USER: ADFR SOLUTION from run 0
USER: SCORE 20.097111 LL:  -1.474 LR: -18.673 RR:   0.000 FEB: -13.303
USER: RMSD 0.618811
USER: STATUS Locally minimized using BFGS
USER: GENES 20
USER: genes 0 Translation |==|  0.61827 0.58425 0.61361
USER: genes 1 Rotation |==|  0.49701 0.53161 0.49827 0.99899
USER: genes 2 Torsion [N]-CA--C-[N] |==|  0.39735
USER: genes 3 Torsion [C]-N--CA-[CB] |==|  0.29062
USER: genes 4 Torsion [N]-CA--CB-[CG] |==|  0.58586
USER: genes 5 Torsion [CA]-CB--CG-[CD] |==|  0.50961
USER: genes 6 Torsion [CB]-CG--CD-[CE] |==|  0.53861
USER: genes 7 Torsion [CG]-CD--CE-[NZ] |==|  0.84644
USER: genes 8 Torsion [CD]-CE--NZ-[HZ2] |==|  0.95338
USER: genes 9 Torsion [N]-CA--C-[OXT] |==|  0.96351
USER: genes 10 Torsion [C]-CA--CB-[SG] |==|  0.47837
USER: genes 11 Torsion [CA]-CB--SG-[HG] |==|  0.48224
USER: genes 12 Torsion [C]-CA--N-[C] |==|  0.77778
USER: genes 13 Torsion [N]-C--CA-[N] |==|  0.38859
USER: genes 14 Torsion [C]-CA--N-[H2] |==|  0.77352
USER: genes 15 Torsion [C]-CA--CB-[CG] |==|  0.79712
USER: genes 16 Torsion [CA]-CB--CG-[CD] |==|  0.52233
USER: genes 17 Torsion [CB]-CG--CD-[CE] |==|  0.14865
USER: genes 18 Torsion [CG]-CD--CE-[NZ] |==|  0.17763
USER: genes 19 Torsion [CD]-CE--NZ-[HZ1] |==|  0.46193
ROOT
ATOM      1  CA  CYS B   2       3.873  20.328  15.882  1.00 13.05 LIG 0.18  C 
ENDROOT
BRANCH 1 2
ATOM      2  C   CYS B   2       2.473  20.214  15.304  1.00 11.99 LIG 0.24  C 
ATOM      3  N   LYS B   3       1.482  20.076  16.190  1.00 12.79 LIG-0.34  N 
ATOM      4 H    LYS B   3       1.591  20.032  17.042  1.00 12.79 LIG 0.16  HD
ATOM      5 O    CYS B   2       2.292  20.384  14.094  1.00 13.18 LIG-0.27  OA
BRANCH 3 6
ATOM      6  CA  LYS B   3       0.108  19.990  15.741  1.00 17.07 LIG 0.18  C 
BRANCH 6 7
ATOM      7  CB  LYS B   3      -0.587  18.631  15.753  1.00 17.68 LIG 0.04  C 
BRANCH 7 8
ATOM      8  CG  LYS B   3      -1.610  18.639  14.591  1.00 18.86 LIG 0.00  C 
BRANCH 8 9
ATOM      9  CD  LYS B   3      -2.439  17.391  14.521  1.00 20.79 LIG 0.03  C 
BRANCH 9 10
ATOM     10  CE  LYS B   3      -3.215  17.213  13.209  1.00 22.05 LIG 0.23  C 
BRANCH 10 11
ATOM     11  NZ  LYS B   3      -4.064  18.408  12.958  1.00 26.11 LIG-0.08  N 
ATOM     12 HZ2  LYS B   3      -4.148  18.876  13.711  1.00 26.11 LIG 0.27  HD
ATOM     13 HZ1  LYS B   3      -4.868  18.148  12.678  1.00 26.11 LIG 0.27  HD
ATOM     14 HZ3  LYS B   3      -3.683  18.916  12.335  1.00 26.11 LIG 0.27  HD
ENDBRANCH 10 11
ENDBRANCH 9 10
ENDBRANCH 8 9
ENDBRANCH 7 8
ENDBRANCH 6 7
BRANCH 6 15
ATOM     15  C   LYS B   3      -0.787  20.960  16.550  1.00 17.69 LIG 0.20  C 
ATOM     16 OXT  LYS B   3      -0.397  21.489  17.567  1.00 15.19 LIG-0.65  OA
ATOM     17 O    LYS B   3      -1.855  21.305  16.025  1.00 19.25 LIG-0.65  OA
ENDBRANCH 6 15
ENDBRANCH 3 6
ENDBRANCH 1 2
BRANCH 1 18
ATOM     18  CB  CYS B   2       4.175  21.824  16.082  1.00 11.90 LIG 0.10  C 
BRANCH 18 19
ATOM     19 SG   CYS B   2       5.785  22.026  17.008  1.00 13.34 LIG-0.18  SA
ATOM     20 HG   CYS B   2       6.079  23.189  17.052  1.00 13.34 LIG 0.10  HD
ENDBRANCH 18 19
ENDBRANCH 1 18
BRANCH 1 21
ATOM     21  N   CYS B   2       4.899  19.662  15.094  1.00 10.67 LIG-0.34  N 
ATOM     22 H    CYS B   2       5.344  20.204  14.597  1.00 10.67 LIG 0.16  HD
ATOM     23  C   LYS B   1       5.139  18.384  15.117  1.00  9.81 LIG 0.25  C 
ATOM     24 O    LYS B   1       4.563  17.623  15.895  1.00 12.59 LIG-0.27  OA
BRANCH 23 25
ATOM     25  CA  LYS B   1       6.288  17.840  14.273  1.00 10.58 LIG 0.27  C 
BRANCH 25 26
ATOM     26  N   LYS B   1       7.033  16.773  15.038  1.00  8.28 LIG-0.07  N 
ATOM     27 H1   LYS B   1       7.477  16.253  14.468  1.00  8.28 LIG 0.28  HD
ATOM     28 H3   LYS B   1       6.453  16.279  15.499  1.00  8.28 LIG 0.28  HD
ATOM     29 H2   LYS B   1       7.608  17.156  15.599  1.00  8.28 LIG 0.28  HD
ENDBRANCH 25 26
BRANCH 25 30
ATOM     30  CB  LYS B   1       5.714  17.299  12.953  1.00 12.65 LIG 0.04  C 
BRANCH 30 31
ATOM     31  CG  LYS B   1       4.937  15.980  13.036  1.00 13.69 LIG 0.00  C 
BRANCH 31 32
ATOM     32  CD  LYS B   1       4.589  15.446  11.622  1.00 12.46 LIG 0.03  C 
BRANCH 32 33
ATOM     33  CE  LYS B   1       5.888  15.355  10.767  1.00 14.43 LIG 0.23  C 
BRANCH 33 34
ATOM     34  NZ  LYS B   1       6.739  14.325  11.470  1.00 15.78 LIG-0.08  N 
ATOM     35 HZ3  LYS B   1       6.240  13.616  11.671  1.00 15.78 LIG 0.27  HD
ATOM     36 HZ1  LYS B   1       7.405  14.076  10.935  1.00 15.78 LIG 0.27  HD
ATOM     37 HZ2  LYS B   1       7.072  14.675  12.217  1.00 15.78 LIG 0.27  HD
ENDBRANCH 33 34
ENDBRANCH 32 33
ENDBRANCH 31 32
ENDBRANCH 30 31
ENDBRANCH 25 30
ENDBRANCH 23 25
ENDBRANCH 1 21
TORSDOF 18
