USER: ADFR SOLUTION from run 0
USER: SCORE 22.223986 LL:  -1.071 LR: -21.212 RR:   0.000 FEB: -15.842
USER: RMSD 0.605932
USER: STATUS Locally minimized using BFGS
USER: GENES 20
USER: genes 0 Translation |==|  0.59587 0.61524 0.55923
USER: genes 1 Rotation |==|  0.48524 0.53316 0.50009 0.99868
USER: genes 2 Torsion [N]-CA--C-[N] |==|  0.35711
USER: genes 3 Torsion [C]-N--CA-[CB] |==|  0.27621
USER: genes 4 Torsion [N]-CA--CB-[CG] |==|  0.59264
USER: genes 5 Torsion [CA]-CB--CG-[CD] |==|  0.58211
USER: genes 6 Torsion [CB]-CG--CD-[CE] |==|  0.49553
USER: genes 7 Torsion [CG]-CD--CE-[NZ] |==|  0.15719
USER: genes 8 Torsion [CD]-CE--NZ-[HZ3] |==|  0.14074
USER: genes 9 Torsion [N]-CA--C-[O] |==|  0.48645
USER: genes 10 Torsion [C]-CA--CB-[CG] |==|  0.44394
USER: genes 11 Torsion [CA]-CB--CG-[CD1] |==|  0.20824
USER: genes 12 Torsion [C]-CA--N-[C] |==|  0.78104
USER: genes 13 Torsion [N]-C--CA-[N] |==|  0.39719
USER: genes 14 Torsion [C]-CA--CB-[CG] |==|  0.76722
USER: genes 15 Torsion [CA]-CB--CG-[CD] |==|  0.52247
USER: genes 16 Torsion [CB]-CG--CD-[CE] |==|  0.20908
USER: genes 17 Torsion [CG]-CD--CE-[NZ] |==|  0.16084
USER: genes 18 Torsion [CD]-CE--NZ-[HZ1] |==|  0.43953
USER: genes 19 Torsion [C]-CA--N-[H3] |==|  0.11375
ROOT
ATOM      1  CA  PHE B   2       4.096  20.428  15.925  1.00 30.29 LIG 0.18  C 
ENDROOT
BRANCH 1 2
ATOM      2  C   PHE B   2       2.692  20.284  15.301  1.00 29.92 LIG 0.24  C 
ATOM      3 O    PHE B   2       2.537  20.609  14.118  1.00 30.56 LIG-0.27  OA
ATOM      4  N   LYS B   3       1.700  19.845  16.083  1.00 27.47 LIG-0.35  N 
ATOM      5 H    LYS B   3       1.802  19.594  16.900  1.00 27.47 LIG 0.16  HD
BRANCH 4 6
ATOM      6  CA  LYS B   3       0.348  19.762  15.591  1.00 30.37 LIG 0.16  C 
BRANCH 6 7
ATOM      7  CB  LYS B   3      -0.007  18.315  15.170  1.00 32.12 LIG 0.03  C 
BRANCH 7 8
ATOM      8  CG  LYS B   3      -0.971  18.355  13.983  1.00 33.18 LIG 0.00  C 
BRANCH 8 9
ATOM      9  CD  LYS B   3      -1.899  17.165  13.941  1.00 36.86 LIG 0.03  C 
BRANCH 9 10
ATOM     10  CE  LYS B   3      -2.897  17.222  12.770  1.00 36.70 LIG 0.23  C 
BRANCH 10 11
ATOM     11  NZ  LYS B   3      -2.147  17.342  11.490  1.00 36.16 LIG-0.08  N 
ATOM     12 HZ3  LYS B   3      -1.519  16.713  11.455  1.00 36.16 LIG 0.27  HD
ATOM     13 HZ2  LYS B   3      -1.766  18.145  11.444  1.00 36.16 LIG 0.27  HD
ATOM     14 HZ1  LYS B   3      -2.708  17.240  10.807  1.00 36.16 LIG 0.27  HD
ENDBRANCH 10 11
ENDBRANCH 9 10
ENDBRANCH 8 9
ENDBRANCH 7 8
ENDBRANCH 6 7
BRANCH 6 15
ATOM     15  C   LYS B   3      -0.657  20.170  16.685  1.00 32.22 LIG 0.22  C 
ATOM     16 O    LYS B   3      -1.863  20.231  16.359  1.00 34.74 LIG-0.29  OA
ENDBRANCH 6 15
ENDBRANCH 4 6
ENDBRANCH 1 2
BRANCH 1 17
ATOM     17  CB  PHE B   2       4.425  21.931  16.022  1.00 30.71 LIG 0.07  C 
BRANCH 17 18
ATOM     18  CG  PHE B   2       5.523  22.233  17.036  1.00 31.43 LIG-0.06  A 
ATOM     19  CD1 PHE B   2       6.846  21.946  16.734  1.00 31.70 LIG 0.01  A 
ATOM     20  CE1 PHE B   2       7.831  22.226  17.651  1.00 34.47 LIG 0.00  A 
ATOM     21  CZ  PHE B   2       7.539  22.772  18.894  1.00 33.74 LIG 0.00  A 
ATOM     22  CE2 PHE B   2       6.208  23.045  19.174  1.00 35.51 LIG 0.00  A 
ATOM     23  CD2 PHE B   2       5.206  22.776  18.247  1.00 30.57 LIG 0.01  A 
ENDBRANCH 17 18
ENDBRANCH 1 17
BRANCH 1 24
ATOM     24  N   PHE B   2       5.130  19.770  15.160  1.00 28.58 LIG-0.35  N 
ATOM     25 H    PHE B   2       5.597  20.303  14.673  1.00 28.58 LIG 0.16  HD
ATOM     26  C   LYS B   1       5.331  18.460  15.212  1.00 31.08 LIG 0.25  C 
ATOM     27 O    LYS B   1       4.644  17.730  15.967  1.00 30.78 LIG-0.27  OA
BRANCH 26 28
ATOM     28  CA  LYS B   1       6.468  17.888  14.361  1.00 28.94 LIG 0.27  C 
BRANCH 28 29
ATOM     29  CB  LYS B   1       5.933  17.409  13.008  1.00 30.63 LIG 0.04  C 
BRANCH 29 30
ATOM     30  CG  LYS B   1       5.338  16.022  12.968  1.00 30.50 LIG 0.00  C 
BRANCH 30 31
ATOM     31  CD  LYS B   1       5.011  15.546  11.566  1.00 31.54 LIG 0.03  C 
BRANCH 31 32
ATOM     32  CE  LYS B   1       6.227  15.127  10.740  1.00 33.13 LIG 0.23  C 
BRANCH 32 33
ATOM     33  NZ  LYS B   1       6.952  14.032  11.475  1.00 35.52 LIG-0.08  N 
ATOM     34 HZ1  LYS B   1       7.450  13.568  10.902  1.00 35.52 LIG 0.27  HD
ATOM     35 HZ2  LYS B   1       7.475  14.389  12.101  1.00 35.52 LIG 0.27  HD
ATOM     36 HZ3  LYS B   1       6.360  13.489  11.859  1.00 35.52 LIG 0.27  HD
ENDBRANCH 32 33
ENDBRANCH 31 32
ENDBRANCH 30 31
ENDBRANCH 29 30
ENDBRANCH 28 29
BRANCH 28 37
ATOM     37  N   LYS B   1       7.166  16.767  15.073  1.00 27.26 LIG-0.07  N 
ATOM     38 H1   LYS B   1       7.618  16.277  14.484  1.00 27.26 LIG 0.28  HD
ATOM     39 H3   LYS B   1       6.564  16.256  15.484  1.00 27.26 LIG 0.28  HD
ATOM     40 H2   LYS B   1       7.730  17.102  15.674  1.00 27.26 LIG 0.28  HD
ENDBRANCH 28 37
ENDBRANCH 26 28
ENDBRANCH 1 24
TORSDOF 18
