USER: ADFR SOLUTION from run 0
USER: SCORE 22.484012 LL:  -1.570 LR: -20.974 RR:   0.000 FEB: -15.307
USER: RMSD 0.606027
USER: STATUS Locally minimized using BFGS
USER: GENES 21
USER: genes 0 Translation |==|  0.60539 0.61631 0.53251
USER: genes 1 Rotation |==|  0.48951 0.53542 0.49613 0.99862
USER: genes 2 Torsion [N]-CA--C-[N] |==|  0.37940
USER: genes 3 Torsion [C]-N--CA-[CB] |==|  0.30675
USER: genes 4 Torsion [N]-CA--CB-[CG] |==|  0.54559
USER: genes 5 Torsion [CA]-CB--CG-[CD] |==|  0.24055
USER: genes 6 Torsion [CB]-CG--CD-[CE] |==|  0.52189
USER: genes 7 Torsion [CG]-CD--CE-[NZ] |==|  0.46369
USER: genes 8 Torsion [CD]-CE--NZ-[HZ3] |==|  0.18801
USER: genes 9 Torsion [N]-CA--C-[O] |==|  0.43645
USER: genes 10 Torsion [C]-CA--CB-[CG] |==|  0.48738
USER: genes 11 Torsion [CA]-CB--CG-[CD] |==|  0.80294
USER: genes 12 Torsion [CB]-CG--CD-[OE1] |==|  0.04287
USER: genes 13 Torsion [C]-CA--N-[C] |==|  0.77222
USER: genes 14 Torsion [N]-C--CA-[N] |==|  0.39175
USER: genes 15 Torsion [C]-CA--N-[H1] |==|  0.41885
USER: genes 16 Torsion [C]-CA--CB-[CG] |==|  0.77560
USER: genes 17 Torsion [CA]-CB--CG-[CD] |==|  0.52745
USER: genes 18 Torsion [CB]-CG--CD-[CE] |==|  0.18509
USER: genes 19 Torsion [CG]-CD--CE-[NZ] |==|  0.14881
USER: genes 20 Torsion [CD]-CE--NZ-[HZ2] |==|  0.80374
ROOT
ATOM      1  CA  GLN B   2       3.792  20.142  15.720  1.00 17.90 LIG 0.18  C 
ENDROOT
BRANCH 1 2
ATOM      2  C   GLN B   2       2.404  19.988  15.142  1.00 16.31 LIG 0.24  C 
ATOM      3 O    GLN B   2       2.133  20.124  13.949  1.00 17.68 LIG-0.27  OA
ATOM      4  N   LYS B   3       1.450  19.704  16.043  1.00 17.96 LIG-0.34  N 
ATOM      5 H    LYS B   3       1.609  19.598  16.882  1.00 17.96 LIG 0.16  HD
BRANCH 4 6
ATOM      6  CA  LYS B   3       0.065  19.547  15.692  1.00 18.66 LIG 0.18  C 
BRANCH 6 7
ATOM      7  CB  LYS B   3      -0.288  18.051  15.864  1.00 21.21 LIG 0.04  C 
BRANCH 7 8
ATOM      8  CG  LYS B   3      -1.570  17.670  15.168  1.00 28.49 LIG 0.00  C 
BRANCH 8 9
ATOM      9  CD  LYS B   3      -1.306  17.307  13.718  1.00 23.11 LIG 0.03  C 
BRANCH 9 10
ATOM     10  CE  LYS B   3      -2.683  17.128  13.033  1.00 24.47 LIG 0.23  C 
BRANCH 10 11
ATOM     11  NZ  LYS B   3      -2.388  17.098  11.569  1.00 24.59 LIG-0.08  N 
ATOM     12 HZ3  LYS B   3      -1.934  16.358  11.372  1.00 24.59 LIG 0.27  HD
ATOM     13 HZ1  LYS B   3      -3.151  17.108  11.112  1.00 24.59 LIG 0.27  HD
ATOM     14 HZ2  LYS B   3      -1.901  17.811  11.349  1.00 24.59 LIG 0.27  HD
ENDBRANCH 10 11
ENDBRANCH 9 10
ENDBRANCH 8 9
ENDBRANCH 7 8
ENDBRANCH 6 7
BRANCH 6 15
ATOM     15  C   LYS B   3      -0.837  20.373  16.628  1.00 20.09 LIG 0.20  C 
ATOM     16 O    LYS B   3      -1.951  20.651  16.140  1.00 20.27 LIG-0.65  OA
ATOM     17 OXT  LYS B   3      -0.451  20.719  17.767  1.00 17.88 LIG-0.65  OA
ENDBRANCH 6 15
ENDBRANCH 4 6
ENDBRANCH 1 2
BRANCH 1 18
ATOM     18  CB  GLN B   2       4.068  21.671  15.720  1.00 14.78 LIG 0.04  C 
BRANCH 18 19
ATOM     19  CG  GLN B   2       5.411  21.962  16.392  1.00 19.11 LIG 0.10  C 
BRANCH 19 20
ATOM     20  CD  GLN B   2       5.577  21.799  17.858  1.00 21.74 LIG 0.21  C 
ATOM     21 OE1  GLN B   2       4.822  21.198  18.606  1.00 22.50 LIG-0.27  OA
ATOM     22  NE2 GLN B   2       6.681  22.344  18.386  1.00 26.70 LIG-0.37  N 
ATOM     23 21HE GLN B   2       7.231  22.774  17.883  1.00 26.70 LIG 0.16  HD
ATOM     24 22HE GLN B   2       6.840  22.265  19.227  1.00 26.70 LIG 0.16  HD
ENDBRANCH 19 20
ENDBRANCH 18 19
ENDBRANCH 1 18
BRANCH 1 25
ATOM     25  N   GLN B   2       4.831  19.480  14.925  1.00 16.65 LIG-0.35  N 
ATOM     26  C   LYS B   1       5.068  18.174  15.044  1.00 15.97 LIG 0.25  C 
ATOM     27 O    LYS B   1       4.492  17.441  15.852  1.00 15.49 LIG-0.27  OA
ATOM     28 H    GLN B   2       5.260  20.002  14.392  1.00 16.65 LIG 0.16  HD
BRANCH 26 29
ATOM     29  CA  LYS B   1       6.180  17.628  14.172  1.00 14.04 LIG 0.27  C 
BRANCH 29 30
ATOM     30  N   LYS B   1       6.987  16.611  14.896  1.00 15.17 LIG-0.07  N 
ATOM     31 H3   LYS B   1       6.471  16.185  15.483  1.00 15.17 LIG 0.28  HD
ATOM     32 H2   LYS B   1       7.655  17.012  15.326  1.00 15.17 LIG 0.28  HD
ATOM     33 H1   LYS B   1       7.319  16.026  14.313  1.00 15.17 LIG 0.28  HD
ENDBRANCH 29 30
BRANCH 29 34
ATOM     34  CB  LYS B   1       5.649  17.118  12.819  1.00 17.90 LIG 0.04  C 
BRANCH 34 35
ATOM     35  CG  LYS B   1       5.040  15.715  12.885  1.00 15.85 LIG 0.00  C 
BRANCH 35 36
ATOM     36  CD  LYS B   1       4.753  15.160  11.490  1.00 19.36 LIG 0.03  C 
BRANCH 36 37
ATOM     37  CE  LYS B   1       6.011  14.891  10.665  1.00 24.06 LIG 0.23  C 
BRANCH 37 38
ATOM     38  NZ  LYS B   1       6.987  14.020  11.385  1.00 18.61 LIG-0.08  N 
ATOM     39 HZ1  LYS B   1       7.626  13.762  10.822  1.00 18.61 LIG 0.27  HD
ATOM     40 HZ2  LYS B   1       7.350  14.473  12.059  1.00 18.61 LIG 0.27  HD
ATOM     41 HZ3  LYS B   1       6.565  13.303  11.704  1.00 18.61 LIG 0.27  HD
ENDBRANCH 37 38
ENDBRANCH 36 37
ENDBRANCH 35 36
ENDBRANCH 34 35
ENDBRANCH 29 34
ENDBRANCH 26 29
ENDBRANCH 1 25
TORSDOF 19
