USER: ADFR SOLUTION from run 0
USER: SCORE 22.032564 LL:  -1.519 LR: -20.616 RR:   0.000 FEB: -15.247
USER: RMSD 0.579427
USER: STATUS Locally minimized using BFGS
USER: GENES 20
USER: genes 0 Translation |==|  0.60393 0.59841 0.58775
USER: genes 1 Rotation |==|  0.49594 0.53655 0.48853 0.99851
USER: genes 2 Torsion [N]-CA--C-[N] |==|  0.37779
USER: genes 3 Torsion [C]-N--CA-[CB] |==|  0.29417
USER: genes 4 Torsion [N]-CA--CB-[CG] |==|  0.59842
USER: genes 5 Torsion [CA]-CB--CG-[CD] |==|  0.51299
USER: genes 6 Torsion [CB]-CG--CD-[CE] |==|  0.47870
USER: genes 7 Torsion [CG]-CD--CE-[NZ] |==|  0.24137
USER: genes 8 Torsion [CD]-CE--NZ-[HZ3] |==|  0.14587
USER: genes 9 Torsion [N]-CA--C-[O] |==|  0.43647
USER: genes 10 Torsion [C]-CA--CB-[CG] |==|  0.42867
USER: genes 11 Torsion [CA]-CB--CG-[CD2] |==|  0.58389
USER: genes 12 Torsion [C]-CA--N-[C] |==|  0.73948
USER: genes 13 Torsion [N]-C--CA-[N] |==|  0.40186
USER: genes 14 Torsion [C]-CA--N-[H1] |==|  0.46889
USER: genes 15 Torsion [C]-CA--CB-[CG] |==|  0.78628
USER: genes 16 Torsion [CA]-CB--CG-[CD] |==|  0.52836
USER: genes 17 Torsion [CB]-CG--CD-[CE] |==|  0.19635
USER: genes 18 Torsion [CG]-CD--CE-[NZ] |==|  0.15257
USER: genes 19 Torsion [CD]-CE--NZ-[HZ3] |==|  0.13219
ROOT
ATOM      1  CA  LEU B   2       3.945  20.193  15.850  1.00 13.49 LIG 0.18  C 
ENDROOT
BRANCH 1 2
ATOM      2  C   LEU B   2       2.544  20.244  15.267  1.00 13.24 LIG 0.24  C 
ATOM      3 O    LEU B   2       2.344  20.480  14.083  1.00 12.84 LIG-0.27  OA
ATOM      4  N   LYS B   3       1.539  19.928  16.093  1.00 13.77 LIG-0.34  N 
ATOM      5 H    LYS B   3       1.629  19.694  16.915  1.00 13.77 LIG 0.16  HD
BRANCH 4 6
ATOM      6  CA  LYS B   3       0.169  19.973  15.595  1.00 14.66 LIG 0.18  C 
BRANCH 6 7
ATOM      7  CB  LYS B   3      -0.401  18.563  15.368  1.00 17.74 LIG 0.04  C 
BRANCH 7 8
ATOM      8  CG  LYS B   3      -1.320  18.595  14.136  1.00 17.95 LIG 0.00  C 
BRANCH 8 9
ATOM      9  CD  LYS B   3      -1.994  17.256  13.941  1.00 21.89 LIG 0.03  C 
BRANCH 9 10
ATOM     10  CE  LYS B   3      -3.051  17.330  12.836  1.00 19.59 LIG 0.23  C 
BRANCH 10 11
ATOM     11  NZ  LYS B   3      -2.355  17.072  11.546  1.00 20.11 LIG-0.08  N 
ATOM     12 HZ3  LYS B   3      -1.890  16.316  11.605  1.00 20.11 LIG 0.27  HD
ATOM     13 HZ2  LYS B   3      -1.803  17.746  11.366  1.00 20.11 LIG 0.27  HD
ATOM     14 HZ1  LYS B   3      -2.957  17.000  10.893  1.00 20.11 LIG 0.27  HD
ENDBRANCH 10 11
ENDBRANCH 9 10
ENDBRANCH 8 9
ENDBRANCH 7 8
ENDBRANCH 6 7
BRANCH 6 15
ATOM     15  C   LYS B   3      -0.715  20.647  16.652  1.00 19.11 LIG 0.20  C 
ATOM     16 O    LYS B   3      -1.764  21.144  16.200  1.00 19.02 LIG-0.65  OA
ATOM     17 OXT  LYS B   3      -0.344  20.672  17.844  1.00 15.29 LIG-0.65  OA
ENDBRANCH 6 15
ENDBRANCH 4 6
ENDBRANCH 1 2
BRANCH 1 18
ATOM     18  CB  LEU B   2       4.444  21.628  16.125  1.00 16.32 LIG 0.04  C 
BRANCH 18 19
ATOM     19  CG  LEU B   2       5.509  21.641  17.251  1.00 17.59 LIG-0.02  C 
ATOM     20  CD2 LEU B   2       5.460  22.946  18.012  1.00 21.32 LIG 0.01  C 
ATOM     21  CD1 LEU B   2       6.888  21.409  16.652  1.00 19.96 LIG 0.01  C 
ENDBRANCH 18 19
ENDBRANCH 1 18
BRANCH 1 22
ATOM     22  N   LEU B   2       4.895  19.545  14.945  1.00 13.93 LIG-0.35  N 
ATOM     23 H    LEU B   2       5.249  20.070  14.363  1.00 13.93 LIG 0.16  HD
ATOM     24  C   LYS B   1       5.167  18.247  15.039  1.00 11.76 LIG 0.25  C 
ATOM     25 O    LYS B   1       4.584  17.495  15.811  1.00 11.37 LIG-0.27  OA
BRANCH 24 26
ATOM     26  CA  LYS B   1       6.237  17.722  14.106  1.00 10.15 LIG 0.27  C 
BRANCH 26 27
ATOM     27  N   LYS B   1       7.031  16.657  14.777  1.00 12.07 LIG-0.07  N 
ATOM     28 H3   LYS B   1       6.480  16.066  15.150  1.00 12.07 LIG 0.28  HD
ATOM     29 H2   LYS B   1       7.544  17.021  15.406  1.00 12.07 LIG 0.28  HD
ATOM     30 H1   LYS B   1       7.543  16.246  14.177  1.00 12.07 LIG 0.28  HD
ENDBRANCH 26 27
BRANCH 26 31
ATOM     31  CB  LYS B   1       5.718  17.278  12.722  1.00 13.63 LIG 0.04  C 
BRANCH 31 32
ATOM     32  CG  LYS B   1       5.020  15.910  12.777  1.00 14.29 LIG 0.00  C 
BRANCH 32 33
ATOM     33  CD  LYS B   1       4.752  15.400  11.357  1.00 16.29 LIG 0.03  C 
BRANCH 33 34
ATOM     34  CE  LYS B   1       6.067  14.997  10.673  1.00 21.27 LIG 0.23  C 
BRANCH 34 35
ATOM     35  NZ  LYS B   1       6.793  14.004  11.517  1.00 18.80 LIG-0.08  N 
ATOM     36 HZ1  LYS B   1       7.454  13.640  11.046  1.00 18.80 LIG 0.27  HD
ATOM     37 HZ3  LYS B   1       6.230  13.366  11.777  1.00 18.80 LIG 0.27  HD
ATOM     38 HZ2  LYS B   1       7.129  14.411  12.233  1.00 18.80 LIG 0.27  HD
ENDBRANCH 34 35
ENDBRANCH 33 34
ENDBRANCH 32 33
ENDBRANCH 31 32
ENDBRANCH 26 31
ENDBRANCH 24 26
ENDBRANCH 1 22
TORSDOF 18
