USER: ADFR SOLUTION from run 0
USER: SCORE 14.099143 LL:  -2.933 LR: -13.461 RR:   0.000 FEB:  -6.004
USER: RMSD 0.379276
USER: STATUS Locally minimized using BFGS
USER: GENES 27
USER: genes 0 Translation |==|  0.47650 0.54232 0.48575
USER: genes 1 Rotation |==|  0.50835 0.50490 0.50100 0.99991
USER: genes 2 Torsion [N]-C--CA-[N] |==|  0.41475
USER: genes 3 Torsion [C]-CA--CB-[CG] |==|  0.48209
USER: genes 4 Torsion [CA]-CB--CG-[CD] |==|  0.51456
USER: genes 5 Torsion [CB]-CG--CD-[NE2] |==|  0.35953
USER: genes 6 Torsion [C]-CA--N-[C] |==|  0.78181
USER: genes 7 Torsion [N]-C--CA-[N] |==|  0.38324
USER: genes 8 Torsion [C]-CA--N-[C] |==|  0.66992
USER: genes 9 Torsion [N]-C--CA-[N] |==|  0.42916
USER: genes 10 Torsion [C]-CA--CB-[CG] |==|  0.48074
USER: genes 11 Torsion [CA]-CB--CG-[CD] |==|  0.50190
USER: genes 12 Torsion [CB]-CG--CD-[NE2] |==|  0.31239
USER: genes 13 Torsion [C]-N--CA-[CB] |==|  0.47506
USER: genes 14 Torsion [N]-CA--C-[N] |==|  0.44027
USER: genes 15 Torsion [C]-N--CA-[CB] |==|  0.39346
USER: genes 16 Torsion [N]-CA--C-[N] |==|  0.94470
USER: genes 17 Torsion [C]-N--CA-[C] |==|  0.66782
USER: genes 18 Torsion [N]-CA--C-[N] |==|  0.08020
USER: genes 19 Torsion [C]-N--CA-[C] |==|  0.71174
USER: genes 20 Torsion [N]-CA--C-[O] |==|  0.99894
USER: genes 21 Torsion [N]-CA--CB-[CG] |==|  0.13736
USER: genes 22 Torsion [CA]-CB--CG-[OD2] |==|  0.99497
USER: genes 23 Torsion [N]-CA--CB-[CG] |==|  0.16437
USER: genes 24 Torsion [CA]-CB--CG-[OD2] |==|  0.56849
USER: genes 25 Torsion [N]-CA--CB-[OG1] |==|  0.18949
USER: genes 26 Torsion [CA]-CB--OG1-[HG1] |==|  0.87470
ROOT
ATOM      1  C   GLN D 206     -22.153  12.693  28.081  1.00 23.02 LIG 0.24  C 
ATOM      2 O    GLN D 206     -22.736  13.689  28.507  1.00 23.21 LIG-0.27  OA
ATOM      3  N   ALA D 207     -21.796  12.543  26.808  1.00 22.72 LIG-0.35  N 
ATOM      4 H    ALA D 207     -21.360  11.863  26.512  1.00 22.72 LIG 0.16  HD
ENDROOT
BRANCH 1 5
ATOM      5  CA  GLN D 206     -21.785  11.547  29.010  1.00 22.90 LIG 0.18  C 
BRANCH 5 6
ATOM      6  CB  GLN D 206     -22.908  10.501  28.974  1.00 23.00 LIG 0.04  C 
BRANCH 6 7
ATOM      7  CG  GLN D 206     -22.611   9.211  29.741  1.00 22.87 LIG 0.10  C 
BRANCH 7 8
ATOM      8  CD  GLN D 206     -23.706   8.174  29.559  1.00 23.72 LIG 0.21  C 
ATOM      9  NE2 GLN D 206     -23.318   6.952  29.200  1.00 23.17 LIG-0.37  N 
ATOM     10 21HE GLN D 206     -22.483   6.784  29.079  1.00 23.17 LIG 0.16  HD
ATOM     11 22HE GLN D 206     -23.902   6.331  29.088  1.00 23.17 LIG 0.16  HD
ATOM     12 OE1  GLN D 206     -24.884   8.467  29.745  1.00 23.11 LIG-0.27  OA
ENDBRANCH 7 8
ENDBRANCH 6 7
ENDBRANCH 5 6
BRANCH 5 13
ATOM     13  N   GLN D 206     -21.520  11.954  30.382  1.00 22.83 LIG-0.35  N 
ATOM     14 H    GLN D 206     -22.168  11.807  30.927  1.00 22.83 LIG 0.16  HD
ATOM     15  C   GLN D 205     -20.363  12.506  30.736  1.00 23.49 LIG 0.24  C 
ATOM     16 O    GLN D 205     -19.453  12.737  29.938  1.00 22.46 LIG-0.27  OA
BRANCH 15 17
ATOM     17  CA  GLN D 205     -20.208  12.851  32.207  1.00 24.37 LIG 0.18  C 
BRANCH 17 18
ATOM     18  N   GLN D 205     -18.862  12.468  32.611  1.00 25.17 LIG-0.35  N 
ATOM     19 H    GLN D 205     -18.239  12.881  32.185  1.00 25.17 LIG 0.16  HD
ATOM     20  C   PRO D 204     -18.628  11.562  33.554  1.00 27.23 LIG 0.24  C 
ATOM     21 O    PRO D 204     -19.520  10.989  34.173  1.00 27.18 LIG-0.27  OA
BRANCH 20 22
ATOM     22  CA  PRO D 204     -17.162  11.238  33.830  1.00 28.49 LIG 0.18  C 
ATOM     23  N   PRO D 204     -16.976  10.744  35.197  1.00 30.00 LIG-0.34  N 
ATOM     24  CD  PRO D 204     -16.922   9.279  35.176  1.00 30.13 LIG 0.13  C 
ATOM     25  C   ACE D 203     -16.842  11.535  36.272  1.00 30.58 LIG 0.22  C 
ATOM     26  CG  PRO D 204     -16.064   9.074  33.983  1.00 30.43 LIG 0.02  C 
ATOM     27  CB  PRO D 204     -16.705  10.051  32.973  1.00 28.78 LIG 0.04  C 
ATOM     28  CH3 ACE D 203     -16.660  10.871  37.622  1.00 31.20 LIG 0.12  C 
ATOM     29 O    ACE D 203     -16.859  12.762  36.180  1.00 31.12 LIG-0.27  OA
ENDBRANCH 20 22
ENDBRANCH 17 18
BRANCH 17 30
ATOM     30  CB  GLN D 205     -20.437  14.345  32.421  1.00 24.72 LIG 0.04  C 
BRANCH 30 31
ATOM     31  CG  GLN D 205     -20.464  14.742  33.880  1.00 27.03 LIG 0.10  C 
BRANCH 31 32
ATOM     32  CD  GLN D 205     -20.709  16.220  34.078  1.00 28.11 LIG 0.21  C 
ATOM     33  NE2 GLN D 205     -21.865  16.556  34.634  1.00 29.45 LIG-0.37  N 
ATOM     34 21HE GLN D 205     -22.424  15.945  34.867  1.00 29.45 LIG 0.16  HD
ATOM     35 22HE GLN D 205     -22.056  17.385  34.763  1.00 29.45 LIG 0.16  HD
ATOM     36 OE1  GLN D 205     -19.874  17.053  33.727  1.00 29.17 LIG-0.27  OA
ENDBRANCH 31 32
ENDBRANCH 30 31
ENDBRANCH 17 30
ENDBRANCH 15 17
ENDBRANCH 5 13
ENDBRANCH 1 5
BRANCH 3 37
ATOM     37  CA  ALA D 207     -22.120  13.534  25.791  1.00 22.93 LIG 0.17  C 
ATOM     38  CB  ALA D 207     -21.400  13.200  24.500  1.00 22.72 LIG 0.04  C 
BRANCH 37 39
ATOM     39  C   ALA D 207     -23.639  13.455  25.596  1.00 23.32 LIG 0.24  C 
ATOM     40  N   THR D 208     -24.255  14.510  25.070  1.00 24.11 LIG-0.34  N 
ATOM     41 H    THR D 208     -23.859  15.227  24.809  1.00 24.11 LIG 0.16  HD
ATOM     42 O    ALA D 207     -24.245  12.434  25.913  1.00 22.54 LIG-0.27  OA
BRANCH 40 43
ATOM     43  CA  THR D 208     -25.706  14.506  24.900  1.00 25.74 LIG 0.20  C 
BRANCH 43 44
ATOM     44  C   THR D 208     -26.269  14.073  23.547  1.00 27.84 LIG 0.24  C 
ATOM     45  N   ASP D 209     -25.465  14.110  22.490  1.00 27.84 LIG-0.34  N 
ATOM     46 H    ASP D 209     -24.635  14.337  22.507  1.00 27.84 LIG 0.16  HD
ATOM     47 O    THR D 208     -27.439  13.698  23.464  1.00 27.83 LIG-0.27  OA
BRANCH 45 48
ATOM     48  CA  ASP D 209     -25.989  13.743  21.177  1.00 29.52 LIG 0.19  C 
BRANCH 48 49
ATOM     49  C   ASP D 209     -25.354  12.564  20.447  1.00 30.14 LIG 0.24  C 
ATOM     50 O    ASP D 209     -25.360  12.544  19.219  1.00 31.34 LIG-0.27  OA
ATOM     51  N   ASP D 210     -24.811  11.591  21.170  1.00 30.20 LIG-0.34  N 
ATOM     52 H    ASP D 210     -24.792  11.573  22.029  1.00 30.20 LIG 0.16  HD
BRANCH 51 53
ATOM     53  CA  ASP D 210     -24.186  10.441  20.515  1.00 30.95 LIG 0.20  C 
BRANCH 53 54
ATOM     54  C   ASP D 210     -25.044   9.175  20.553  1.00 31.44 LIG 0.20  C 
ATOM     55 O    ASP D 210     -26.153   9.228  21.122  1.00 30.73 LIG-0.65  OA
ATOM     56 OXT  ASP D 210     -24.599   8.143  20.006  1.00 31.53 LIG-0.65  OA
ENDBRANCH 53 54
BRANCH 53 57
ATOM     57  CB  ASP D 210     -22.813  10.158  21.137  1.00 31.88 LIG 0.15  C 
BRANCH 57 58
ATOM     58  CG  ASP D 210     -22.853  10.099  22.646  1.00 32.06 LIG 0.17  C 
ATOM     59 OD2  ASP D 210     -23.933  10.309  23.241  1.00 32.64 LIG-0.65  OA
ATOM     60 OD1  ASP D 210     -21.788   9.847  23.239  1.00 34.58 LIG-0.65  OA
ENDBRANCH 57 58
ENDBRANCH 53 57
ENDBRANCH 51 53
ENDBRANCH 48 49
BRANCH 48 61
ATOM     61  CB  ASP D 209     -25.932  14.949  20.239  1.00 29.28 LIG 0.15  C 
BRANCH 61 62
ATOM     62  CG  ASP D 209     -24.525  15.475  20.061  1.00 30.36 LIG 0.17  C 
ATOM     63 OD2  ASP D 209     -24.374  16.670  19.735  1.00 30.91 LIG-0.65  OA
ATOM     64 OD1  ASP D 209     -23.570  14.684  20.222  1.00 31.75 LIG-0.65  OA
ENDBRANCH 61 62
ENDBRANCH 48 61
ENDBRANCH 45 48
ENDBRANCH 43 44
BRANCH 43 65
ATOM     65  CB  THR D 208     -26.318  15.893  25.209  1.00 25.82 LIG 0.15  C 
ATOM     66  CG2 THR D 208     -25.863  16.390  26.574  1.00 25.57 LIG 0.04  C 
BRANCH 65 67
ATOM     67 OG1  THR D 208     -25.912  16.831  24.207  1.00 26.97 LIG-0.39  OA
ATOM     68 HG1  THR D 208     -25.091  16.745  24.059  1.00 26.97 LIG 0.21  HD
ENDBRANCH 65 67
ENDBRANCH 43 65
ENDBRANCH 40 43
ENDBRANCH 37 39
ENDBRANCH 3 37
TORSDOF 25
