USER: ADFR SOLUTION from run 0
USER: SCORE 15.863121 LL:  -2.869 LR: -13.289 RR:   0.000 FEB:  -7.323
USER: RMSD 0.731514
USER: STATUS Locally minimized using BFGS
USER: GENES 22
USER: genes 0 Translation |==|  0.50728 0.54390 0.54220
USER: genes 1 Rotation |==|  0.50616 0.48952 0.48956 0.99974
USER: genes 2 Torsion [C]-CA--N-[C] |==|  0.83889
USER: genes 3 Torsion [N]-C--CA-[N] |==|  0.32503
USER: genes 4 Torsion [C]-CA--N-[C] |==|  0.69781
USER: genes 5 Torsion [N]-C--CA-[CB] |==|  0.75255
USER: genes 6 Torsion [C]-CA--CB-[CG2] |==|  0.16553
USER: genes 7 Torsion [CA]-CB--CG1-[CD1] |==|  0.47964
USER: genes 8 Torsion [N]-CA--C-[N] |==|  0.41666
USER: genes 9 Torsion [C]-N--CA-[C] |==|  0.78128
USER: genes 10 Torsion [N]-CA--C-[N] |==|  0.43049
USER: genes 11 Torsion [C]-N--CA-[C] |==|  0.75090
USER: genes 12 Torsion [N]-CA--C-[O] |==|  0.98500
USER: genes 13 Torsion [N]-CA--CB-[CG] |==|  0.82629
USER: genes 14 Torsion [CA]-CB--CG-[CD] |==|  0.53279
USER: genes 15 Torsion [CB]-CG--CD-[OE1] |==|  0.50358
USER: genes 16 Torsion [N]-CA--CB-[CG] |==|  0.21655
USER: genes 17 Torsion [CA]-CB--CG-[CD] |==|  0.49328
USER: genes 18 Torsion [CB]-CG--CD-[OE1] |==|  0.90458
USER: genes 19 Torsion [N]-CA--CB-[CG] |==|  0.79508
USER: genes 20 Torsion [CA]-CB--CG-[CD] |==|  0.49875
USER: genes 21 Torsion [CB]-CG--CD-[OE1] |==|  0.88298
ROOT
ATOM      1  CA  GLN G 264      24.614  39.921  62.581  1.00 24.93 LIG 0.18  C 
ENDROOT
BRANCH 1 2
ATOM      2  N   GLN G 264      23.657  39.437  63.568  1.00 24.45 LIG-0.35  N 
ATOM      3 H    GLN G 264      23.780  39.726  64.368  1.00 24.45 LIG 0.16  HD
ATOM      4  C   ILE G 263      22.685  38.609  63.203  1.00 25.21 LIG 0.24  C 
ATOM      5 O    ILE G 263      22.559  38.206  62.046  1.00 24.71 LIG-0.27  OA
BRANCH 4 6
ATOM      6  CA  ILE G 263      21.707  38.162  64.288  1.00 25.39 LIG 0.18  C 
BRANCH 6 7
ATOM      7  N   ILE G 263      20.385  38.653  63.919  1.00 26.84 LIG-0.35  N 
ATOM      8 H    ILE G 263      20.038  38.245  63.247  1.00 26.84 LIG 0.16  HD
ATOM      9  C   PRO G 262      19.779  39.640  64.568  1.00 27.66 LIG 0.24  C 
ATOM     10 O    PRO G 262      20.267  40.203  65.543  1.00 28.28 LIG-0.27  OA
BRANCH 9 11
ATOM     11  CA  PRO G 262      18.408  40.048  64.033  1.00 28.51 LIG 0.18  C 
ATOM     12  CB  PRO G 262      18.503  41.127  62.956  1.00 28.21 LIG 0.04  C 
ATOM     13  CG  PRO G 262      18.486  42.407  63.802  1.00 28.36 LIG 0.02  C 
ATOM     14  CD  PRO G 262      17.283  42.081  64.658  1.00 29.26 LIG 0.13  C 
ATOM     15  N   PRO G 262      17.582  40.693  65.055  1.00 29.83 LIG-0.34  N 
ATOM     16  C   ACE G 261      17.196  40.028  66.152  1.00 31.20 LIG 0.22  C 
ATOM     17 O    ACE G 261      17.519  38.854  66.339  1.00 31.65 LIG-0.27  OA
ATOM     18  CH3 ACE G 261      16.341  40.761  67.168  1.00 31.68 LIG 0.12  C 
ENDBRANCH 9 11
ENDBRANCH 6 7
BRANCH 6 19
ATOM     19  CB  ILE G 263      21.713  36.620  64.378  1.00 25.89 LIG 0.01  C 
ATOM     20  CG2 ILE G 263      23.114  36.122  64.716  1.00 25.32 LIG 0.01  C 
BRANCH 19 21
ATOM     21  CG1 ILE G 263      20.690  36.158  65.424  1.00 25.77 LIG 0.00  C 
ATOM     22  CD1 ILE G 263      20.481  34.649  65.476  1.00 27.45 LIG 0.01  C 
ENDBRANCH 19 21
ENDBRANCH 6 19
ENDBRANCH 4 6
ENDBRANCH 1 2
BRANCH 1 23
ATOM     23  C   GLN G 264      25.362  38.801  61.881  1.00 25.80 LIG 0.24  C 
ATOM     24  N   GLU G 265      25.739  39.064  60.637  1.00 25.54 LIG-0.35  N 
ATOM     25 H    GLU G 265      25.564  39.801  60.229  1.00 25.54 LIG 0.16  HD
ATOM     26 O    GLN G 264      25.592  37.730  62.448  1.00 23.91 LIG-0.27  OA
BRANCH 24 27
ATOM     27  CA  GLU G 265      26.493  38.109  59.849  1.00 27.50 LIG 0.18  C 
BRANCH 27 28
ATOM     28  C   GLU G 265      27.934  38.220  60.338  1.00 28.95 LIG 0.24  C 
ATOM     29  N   GLU G 266      28.715  37.158  60.176  1.00 30.90 LIG-0.34  N 
ATOM     30 H    GLU G 266      28.464  36.411  59.832  1.00 30.90 LIG 0.16  HD
ATOM     31 O    GLU G 265      28.332  39.261  60.867  1.00 27.90 LIG-0.27  OA
BRANCH 29 32
ATOM     32  CA  GLU G 266      30.108  37.209  60.596  1.00 33.40 LIG 0.19  C 
BRANCH 32 33
ATOM     33  C   GLU G 266      30.956  37.709  59.440  1.00 34.22 LIG 0.20  C 
ATOM     34 O    GLU G 266      30.390  37.885  58.339  1.00 35.29 LIG-0.65  OA
ATOM     35 OXT  GLU G 266      32.175  37.899  59.646  1.00 35.25 LIG-0.65  OA
ENDBRANCH 32 33
BRANCH 32 36
ATOM     36  CB  GLU G 266      30.611  35.827  61.025  1.00 34.59 LIG 0.05  C 
BRANCH 36 37
ATOM     37  CG  GLU G 266      29.890  35.238  62.223  1.00 35.99 LIG 0.12  C 
BRANCH 37 38
ATOM     38  CD  GLU G 266      30.601  34.018  62.781  1.00 37.74 LIG 0.17  C 
ATOM     39 OE1  GLU G 266      30.087  33.429  63.759  1.00 38.97 LIG-0.65  OA
ATOM     40 OE2  GLU G 266      31.675  33.655  62.247  1.00 36.82 LIG-0.65  OA
ENDBRANCH 37 38
ENDBRANCH 36 37
ENDBRANCH 32 36
ENDBRANCH 29 32
ENDBRANCH 27 28
BRANCH 27 41
ATOM     41  CB  GLU G 265      26.427  38.486  58.364  1.00 27.49 LIG 0.04  C 
BRANCH 41 42
ATOM     42  CG  GLU G 265      27.356  39.633  57.983  1.00 27.71 LIG 0.12  C 
BRANCH 42 43
ATOM     43  CD  GLU G 265      27.331  39.967  56.497  1.00 28.38 LIG 0.17  C 
ATOM     44 OE1  GLU G 265      27.172  39.039  55.672  1.00 27.39 LIG-0.65  OA
ATOM     45 OE2  GLU G 265      27.499  41.161  56.156  1.00 28.48 LIG-0.65  OA
ENDBRANCH 42 43
ENDBRANCH 41 42
ENDBRANCH 27 41
ENDBRANCH 24 27
ENDBRANCH 1 23
BRANCH 1 46
ATOM     46  CB  GLN G 264      25.644  40.859  63.219  1.00 25.62 LIG 0.04  C 
BRANCH 46 47
ATOM     47  CG  GLN G 264      25.133  42.248  63.581  1.00 26.81 LIG 0.10  C 
BRANCH 47 48
ATOM     48  CD  GLN G 264      26.218  43.108  64.220  1.00 28.09 LIG 0.21  C 
ATOM     49  NE2 GLN G 264      26.281  44.379  63.828  1.00 27.12 LIG-0.37  N 
ATOM     50 21HE GLN G 264      25.727  44.676  63.241  1.00 27.12 LIG 0.16  HD
ATOM     51 22HE GLN G 264      26.875  44.903  64.161  1.00 27.12 LIG 0.16  HD
ATOM     52 OE1  GLN G 264      26.987  42.633  65.058  1.00 28.52 LIG-0.27  OA
ENDBRANCH 47 48
ENDBRANCH 46 47
ENDBRANCH 1 46
TORSDOF 20
