USER: ADFR SOLUTION from run 0
USER: SCORE 16.511115 LL:  -6.704 LR: -13.188 RR:   0.000 FEB:  -5.432
USER: RMSD 0.475217
USER: STATUS Locally minimized using BFGS
USER: GENES 28
USER: genes 0 Translation |==|  0.52653 0.33259 0.62891
USER: genes 1 Rotation |==|  0.48924 0.50712 0.48897 0.99971
USER: genes 2 Torsion [N]-CA--C-[N] |==|  0.41309
USER: genes 3 Torsion [C]-N--CA-[CB] |==|  0.48895
USER: genes 4 Torsion [N]-CA--CB-[CG] |==|  0.20250
USER: genes 5 Torsion [CA]-CB--CG-[CD2] |==|  0.28011
USER: genes 6 Torsion [N]-CA--C-[N] |==|  0.91537
USER: genes 7 Torsion [C]-N--CA-[CB] |==|  0.38586
USER: genes 8 Torsion [N]-CA--C-[N] |==|  0.04851
USER: genes 9 Torsion [C]-N--CA-[C] |==|  0.77307
USER: genes 10 Torsion [N]-CA--C-[O] |==|  0.44159
USER: genes 11 Torsion [N]-CA--CB-[CG] |==|  0.79726
USER: genes 12 Torsion [CA]-CB--CG-[OD1] |==|  0.92104
USER: genes 13 Torsion [N]-CA--CB-[CG] |==|  0.17779
USER: genes 14 Torsion [CA]-CB--CG-[OD1] |==|  0.94874
USER: genes 15 Torsion [C]-CA--CB-[CG] |==|  0.51811
USER: genes 16 Torsion [CA]-CB--CG-[CD2] |==|  0.74435
USER: genes 17 Torsion [C]-CA--N-[C] |==|  0.60639
USER: genes 18 Torsion [N]-C--CA-[N] |==|  0.93889
USER: genes 19 Torsion [C]-CA--CB-[OG] |==|  0.78369
USER: genes 20 Torsion [CA]-CB--OG-[HG] |==|  0.46858
USER: genes 21 Torsion [C]-CA--N-[C] |==|  0.75268
USER: genes 22 Torsion [N]-C--CA-[N] |==|  0.46415
USER: genes 23 Torsion [C]-CA--N-[C] |==|  0.62663
USER: genes 24 Torsion [N]-C--CA-[N] |==|  0.33931
USER: genes 25 Torsion [C]-CA--CB-[CG2] |==|  0.49124
USER: genes 26 Torsion [C]-CA--N-[H2] |==|  0.88628
USER: genes 27 Torsion [C]-CA--CB-[CG2] |==|  0.78854
ROOT
ATOM      1  CA  HIS P   4     -17.074   9.602  12.184  1.00 23.76 LIG 0.18  C 
ENDROOT
BRANCH 1 2
ATOM      2  C   HIS P   4     -18.119  10.104  11.177  1.00 25.01 LIG 0.24  C 
ATOM      3 O    HIS P   4     -17.943  11.158  10.551  1.00 23.35 LIG-0.27  OA
ATOM      4  N   PHE P   5     -19.241   9.394  11.074  1.00 23.15 LIG-0.35  N 
ATOM      5 H    PHE P   5     -19.413   8.709  11.564  1.00 23.15 LIG 0.16  HD
BRANCH 4 6
ATOM      6  CA  PHE P   5     -20.287   9.711  10.121  1.00 24.23 LIG 0.18  C 
BRANCH 6 7
ATOM      7  CB  PHE P   5     -21.396   8.618  10.212  1.00 25.15 LIG 0.07  C 
BRANCH 7 8
ATOM      8  CG  PHE P   5     -22.197   8.764  11.465  1.00 25.22 LIG-0.06  A 
ATOM      9  CD2 PHE P   5     -23.440   9.379  11.358  1.00 26.21 LIG 0.01  A 
ATOM     10  CE2 PHE P   5     -24.196   9.616  12.470  1.00 26.58 LIG 0.00  A 
ATOM     11  CZ  PHE P   5     -23.745   9.194  13.707  1.00 27.68 LIG 0.00  A 
ATOM     12  CE1 PHE P   5     -22.526   8.571  13.829  1.00 26.50 LIG 0.00  A 
ATOM     13  CD1 PHE P   5     -21.750   8.354  12.698  1.00 25.73 LIG 0.01  A 
ENDBRANCH 7 8
ENDBRANCH 6 7
BRANCH 6 14
ATOM     14  C   PHE P   5     -20.858  11.103  10.267  1.00 25.59 LIG 0.24  C 
ATOM     15 O    PHE P   5     -21.373  11.704   9.302  1.00 25.82 LIG-0.27  OA
ATOM     16  N   ASN P   6     -20.856  11.609  11.487  1.00 24.53 LIG-0.35  N 
ATOM     17 H    ASN P   6     -20.536  11.208  12.176  1.00 24.53 LIG 0.16  HD
BRANCH 16 18
ATOM     18  CA  ASN P   6     -21.416  12.926  11.755  1.00 25.84 LIG 0.18  C 
BRANCH 18 19
ATOM     19  C   ASN P   6     -20.391  14.036  11.743  1.00 25.26 LIG 0.24  C 
ATOM     20  N   ASP P   7     -19.204  13.789  11.154  1.00 26.59 LIG-0.34  N 
ATOM     21 H    ASP P   7     -18.976  13.036  10.808  1.00 26.59 LIG 0.16  HD
ATOM     22 O    ASN P   6     -20.649  15.108  12.295  1.00 25.72 LIG-0.27  OA
BRANCH 20 23
ATOM     23  CA  ASP P   7     -18.204  14.830  11.072  1.00 25.93 LIG 0.20  C 
BRANCH 23 24
ATOM     24  C   ASP P   7     -18.510  15.753   9.882  1.00 27.07 LIG 0.20  C 
ATOM     25 O    ASP P   7     -18.005  16.861   9.935  1.00 28.96 LIG-0.65  OA
ATOM     26 OXT  ASP P   7     -19.208  15.281   8.873  1.00 29.63 LIG-0.65  OA
ENDBRANCH 23 24
BRANCH 23 27
ATOM     27  CB  ASP P   7     -16.760  14.325  10.882  1.00 25.41 LIG 0.15  C 
BRANCH 27 28
ATOM     28  CG  ASP P   7     -16.178  13.702  12.126  1.00 25.37 LIG 0.17  C 
ATOM     29 OD1  ASP P   7     -16.519  14.020  13.287  1.00 26.66 LIG-0.65  OA
ATOM     30 OD2  ASP P   7     -15.320  12.776  11.929  1.00 23.76 LIG-0.65  OA
ENDBRANCH 27 28
ENDBRANCH 23 27
ENDBRANCH 20 23
ENDBRANCH 18 19
BRANCH 18 31
ATOM     31  CB  ASN P   6     -22.210  12.907  13.063  1.00 24.75 LIG 0.14  C 
BRANCH 31 32
ATOM     32  CG  ASN P   6     -21.322  12.617  14.254  1.00 27.24 LIG 0.22  C 
ATOM     33  ND2 ASN P   6     -21.895  13.038  15.380  1.00 23.85 LIG-0.37  N 
ATOM     34 21HD ASN P   6     -21.477  12.965  16.129  1.00 23.85 LIG 0.16  HD
ATOM     35 22HD ASN P   6     -22.683  13.381  15.360  1.00 23.85 LIG 0.16  HD
ATOM     36 OD1  ASN P   6     -20.183  12.091  14.090  1.00 24.90 LIG-0.27  OA
ENDBRANCH 31 32
ENDBRANCH 18 31
ENDBRANCH 16 18
ENDBRANCH 6 14
ENDBRANCH 4 6
ENDBRANCH 1 2
BRANCH 1 37
ATOM     37  CB  HIS P   4     -17.392  10.223  13.544  1.00 21.80 LIG 0.10  C 
BRANCH 37 38
ATOM     38  CG  HIS P   4     -16.358   9.940  14.590  1.00 23.01 LIG 0.06  A 
ATOM     39  CD2 HIS P   4     -16.221   8.982  15.507  1.00 23.26 LIG 0.14  A 
ATOM     40 NE2  HIS P   4     -14.966   9.116  16.046  1.00 21.45 LIG-0.25  NA
ATOM     41  CE1 HIS P   4     -14.323  10.120  15.457  1.00 22.12 LIG 0.23  A 
ATOM     42 ND1  HIS P   4     -15.123  10.622  14.570  1.00 22.83 LIG-0.24  NA
ENDBRANCH 37 38
ENDBRANCH 1 37
BRANCH 1 43
ATOM     43  N   HIS P   4     -15.733   9.969  11.649  1.00 22.02 LIG-0.35  N 
ATOM     44  C   SER P   3     -14.732   9.104  11.806  1.00 24.42 LIG 0.24  C 
ATOM     45 O    SER P   3     -14.902   8.032  12.410  1.00 24.72 LIG-0.27  OA
ATOM     46 H    HIS P   4     -15.678  10.735  11.261  1.00 22.02 LIG 0.16  HD
BRANCH 44 47
ATOM     47  CA  SER P   3     -13.346   9.502  11.324  1.00 22.14 LIG 0.20  C 
BRANCH 47 48
ATOM     48  CB  SER P   3     -12.433   9.969  12.476  1.00 23.32 LIG 0.20  C 
BRANCH 48 49
ATOM     49 OG   SER P   3     -12.784  11.321  12.845  1.00 23.11 LIG-0.40  OA
ATOM     50 HG   SER P   3     -12.401  11.523  13.564  1.00 23.11 LIG 0.21  HD
ENDBRANCH 48 49
ENDBRANCH 47 48
BRANCH 47 51
ATOM     51  N   SER P   3     -13.355  10.554  10.306  1.00 22.53 LIG-0.34  N 
ATOM     52 H    SER P   3     -13.305  11.355  10.615  1.00 22.53 LIG 0.16  HD
ATOM     53  C   VAL P   2     -13.435  10.254   9.013  1.00 22.76 LIG 0.24  C 
ATOM     54 O    VAL P   2     -13.669   9.088   8.621  1.00 25.85 LIG-0.27  OA
BRANCH 53 55
ATOM     55  CA  VAL P   2     -13.403  11.435   8.040  1.00 24.07 LIG 0.18  C 
BRANCH 55 56
ATOM     56  N   VAL P   2     -13.191  10.978   6.665  1.00 24.29 LIG-0.35  N 
ATOM     57 H    VAL P   2     -13.667  10.305   6.419  1.00 24.29 LIG 0.16  HD
ATOM     58  C   VAL P   1     -12.289  11.621   5.890  1.00 26.39 LIG 0.25  C 
ATOM     59 O    VAL P   1     -11.637  12.613   6.331  1.00 26.90 LIG-0.27  OA
BRANCH 58 60
ATOM     60  CA  VAL P   1     -12.114  11.149   4.454  1.00 27.40 LIG 0.28  C 
BRANCH 60 61
ATOM     61  CB  VAL P   1     -10.672  10.598   4.213  1.00 27.20 LIG 0.02  C 
ATOM     62  CG2 VAL P   1     -10.588  10.069   2.777  1.00 28.02 LIG 0.01  C 
ATOM     63  CG1 VAL P   1     -10.526   9.490   5.233  1.00 27.17 LIG 0.01  C 
ENDBRANCH 60 61
BRANCH 60 64
ATOM     64  N   VAL P   1     -12.356  12.188   3.503  1.00 29.12 LIG-0.07  N 
ATOM     65 H2   VAL P   1     -13.061  12.667   3.759  1.00 29.12 LIG 0.28  HD
ATOM     66 H1   VAL P   1     -12.518  11.828   2.704  1.00 29.12 LIG 0.28  HD
ATOM     67 H3   VAL P   1     -11.642  12.716   3.452  1.00 29.12 LIG 0.28  HD
ENDBRANCH 60 64
ENDBRANCH 58 60
ENDBRANCH 55 56
BRANCH 55 68
ATOM     68  CB  VAL P   2     -14.712  12.252   8.245  1.00 25.03 LIG 0.01  C 
ATOM     69  CG2 VAL P   2     -15.887  11.507   7.581  1.00 23.99 LIG 0.01  C 
ATOM     70  CG1 VAL P   2     -14.625  13.657   7.678  1.00 25.56 LIG 0.01  C 
ENDBRANCH 55 68
ENDBRANCH 53 55
ENDBRANCH 47 51
ENDBRANCH 44 47
ENDBRANCH 1 43
TORSDOF 26
