USER: ADFR SOLUTION from run 0
USER: SCORE 13.319358 LL:  -3.341 LR: -10.089 RR:   0.000 FEB:  -7.703
USER: RMSD 0.512753
USER: STATUS Locally minimized using BFGS
USER: GENES 10
USER: genes 0 Translation |==|  0.48841 0.55694 0.57896
USER: genes 1 Rotation |==|  0.49275 0.48681 0.51579 0.99952
USER: genes 2 Torsion [O]-C--CA-[N] |==|  0.93919
USER: genes 3 Torsion [N]-C--CA-[N] |==|  0.44714
USER: genes 4 Torsion [C]-CA--N-[C] |==|  0.65556
USER: genes 5 Torsion [C]-CA--CB-[CG] |==|  0.46083
USER: genes 6 Torsion [CA]-CB--CG-[CD1] |==|  0.26368
USER: genes 7 Torsion [N]-CA--C-[O] |==|  0.91974
USER: genes 8 Torsion [N]-CA--C-[N] |==|  0.45166
USER: genes 9 Torsion [N]-CA--C-[O] |==|  0.35904
ROOT
ATOM      1  C   PRO B1002      19.691  21.610  19.311  1.00 33.09 LIG 0.24  C 
ATOM      2 O    PRO B1002      19.587  20.960  18.266  1.00 32.82 LIG-0.27  OA
ATOM      3  N   PRO B1003      19.975  22.919  19.304  1.00 33.61 LIG-0.34  N 
ATOM      4  CA  PRO B1003      20.180  23.621  18.037  1.00 34.05 LIG 0.18  C 
ATOM      5  CB  PRO B1003      20.273  25.081  18.471  1.00 34.65 LIG 0.04  C 
ATOM      6  CG  PRO B1003      20.910  24.982  19.818  1.00 34.15 LIG 0.02  C 
ATOM      7  CD  PRO B1003      20.154  23.831  20.447  1.00 34.31 LIG 0.13  C 
ENDROOT
BRANCH 1 8
ATOM      8  CA  PRO B1002      19.494  20.944  20.667  1.00 32.09 LIG 0.18  C 
ATOM      9  N   PRO B1002      18.704  19.728  20.481  1.00 31.87 LIG-0.34  N 
ATOM     10  C   PHE B1001      17.375  19.818  20.328  1.00 31.39 LIG 0.24  C 
ATOM     11  CD  PRO B1002      19.548  18.528  20.630  1.00 31.65 LIG 0.13  C 
ATOM     12 O    PHE B1001      16.784  20.901  20.350  1.00 31.36 LIG-0.27  OA
ATOM     13  CG  PRO B1002      20.953  19.106  20.546  1.00 31.59 LIG 0.02  C 
ATOM     14  CB  PRO B1002      20.801  20.415  21.251  1.00 32.35 LIG 0.04  C 
BRANCH 10 15
ATOM     15  CA  PHE B1001      16.611  18.519  20.128  1.00 30.70 LIG 0.18  C 
BRANCH 15 16
ATOM     16  N   PHE B1001      15.190  18.694  20.420  1.00 31.26 LIG-0.35  N 
ATOM     17  C   ACE B1000      14.557  17.942  21.318  1.00 32.54 LIG 0.21  C 
ATOM     18  CH3 ACE B1000      13.033  18.016  21.210  1.00 32.86 LIG 0.12  C 
ATOM     19 O    ACE B1000      15.103  17.014  21.926  1.00 32.71 LIG-0.27  OA
ATOM     20 H    PHE B1001      14.810  19.318  19.966  1.00 31.26 LIG 0.16  HD
ENDBRANCH 15 16
BRANCH 15 21
ATOM     21  CB  PHE B1001      16.829  18.075  18.677  1.00 29.45 LIG 0.07  C 
BRANCH 21 22
ATOM     22  CG  PHE B1001      16.429  16.661  18.401  1.00 29.10 LIG-0.06  A 
ATOM     23  CD2 PHE B1001      17.316  15.618  18.643  1.00 29.14 LIG 0.01  A 
ATOM     24  CE2 PHE B1001      16.951  14.301  18.383  1.00 28.22 LIG 0.00  A 
ATOM     25  CZ  PHE B1001      15.693  14.021  17.876  1.00 28.72 LIG 0.00  A 
ATOM     26  CE1 PHE B1001      14.799  15.057  17.632  1.00 29.15 LIG 0.00  A 
ATOM     27  CD1 PHE B1001      15.170  16.369  17.895  1.00 28.88 LIG 0.01  A 
ENDBRANCH 21 22
ENDBRANCH 15 21
ENDBRANCH 10 15
ENDBRANCH 1 8
BRANCH 4 28
ATOM     28  C   PRO B1003      21.444  23.140  17.326  1.00 33.85 LIG 0.24  C 
ATOM     29 O    PRO B1003      22.401  22.707  17.970  1.00 33.94 LIG-0.27  OA
ATOM     30  N   PRO B1004      21.455  23.191  15.986  1.00 34.14 LIG-0.34  N 
ATOM     31  CA  PRO B1004      22.630  22.755  15.231  1.00 34.66 LIG 0.18  C 
ATOM     32  CD  PRO B1004      20.358  23.572  15.078  1.00 34.36 LIG 0.13  C 
ATOM     33  CB  PRO B1004      22.120  22.729  13.790  1.00 34.44 LIG 0.04  C 
ATOM     34  CG  PRO B1004      21.087  23.810  13.781  1.00 34.41 LIG 0.02  C 
BRANCH 31 35
ATOM     35  C   PRO B1004      23.799  23.721  15.436  1.00 35.04 LIG 0.24  C 
ATOM     36  N   PRO B1005      25.026  23.286  15.113  1.00 35.67 LIG-0.34  N 
ATOM     37  CD  PRO B1005      25.367  21.936  14.632  1.00 35.53 LIG 0.13  C 
ATOM     38  CA  PRO B1005      26.239  24.099  15.259  1.00 36.27 LIG 0.17  C 
ATOM     39  CG  PRO B1005      26.834  21.841  14.970  1.00 36.24 LIG 0.02  C 
ATOM     40  CB  PRO B1005      27.322  23.210  14.657  1.00 36.11 LIG 0.04  C 
ATOM     41 O    PRO B1004      23.608  24.849  15.893  1.00 35.22 LIG-0.27  OA
BRANCH 38 42
ATOM     42  C   PRO B1005      26.144  25.451  14.553  1.00 36.62 LIG 0.22  C 
ATOM     43 O    PRO B1005      26.435  26.475  15.209  1.00 36.45 LIG-0.29  OA
ENDBRANCH 38 42
ENDBRANCH 31 35
ENDBRANCH 4 28
TORSDOF 8
