USER: ADFR SOLUTION from run 0
USER: SCORE 10.110815 LL:  -2.717 LR:  -9.720 RR:   0.000 FEB:  -5.245
USER: RMSD 0.948552
USER: STATUS Locally minimized using BFGS
USER: GENES 17
USER: genes 0 Translation |==|  0.53394 0.50666 0.48580
USER: genes 1 Rotation |==|  0.48690 0.50116 0.51642 0.99956
USER: genes 2 Torsion [C]-CA--CB-[OG] |==|  0.79862
USER: genes 3 Torsion [CA]-CB--OG-[HG] |==|  0.49876
USER: genes 4 Torsion [N]-CA--C-[N] |==|  0.46115
USER: genes 5 Torsion [C]-N--CA-[C] |==|  0.63023
USER: genes 6 Torsion [N]-CA--C-[N] |==|  0.45250
USER: genes 7 Torsion [C]-N--CA-[C] |==|  0.66079
USER: genes 8 Torsion [N]-CA--C-[O] |==|  0.80373
USER: genes 9 Torsion [N]-CA--CB-[CG] |==|  0.88267
USER: genes 10 Torsion [CA]-CB--CG-[CD2] |==|  0.79485
USER: genes 11 Torsion [CB]-CA--N-[C] |==|  0.33088
USER: genes 12 Torsion [N]-C--CA-[N] |==|  0.28889
USER: genes 13 Torsion [C]-CA--CB-[CG] |==|  0.47915
USER: genes 14 Torsion [CA]-CB--CG-[CD2] |==|  0.90368
USER: genes 15 Torsion [C]-CA--N-[C] |==|  0.55447
USER: genes 16 Torsion [N]-C--CA-[N] |==|  0.17498
ROOT
ATOM      1  CA  SER E  44      27.243  -7.404  18.348  1.00 44.79 LIG 0.20  C 
ENDROOT
BRANCH 1 2
ATOM      2  CB  SER E  44      28.319  -8.414  17.954  1.00 46.10 LIG 0.20  C 
BRANCH 2 3
ATOM      3 OG   SER E  44      28.164  -8.793  16.602  1.00 47.85 LIG-0.40  OA
ATOM      4 HG   SER E  44      28.764  -9.344  16.395  1.00 47.85 LIG 0.21  HD
ENDBRANCH 2 3
ENDBRANCH 1 2
BRANCH 1 5
ATOM      5  C   SER E  44      27.536  -6.067  17.706  1.00 42.78 LIG 0.24  C 
ATOM      6  N   PHE E  45      28.579  -5.421  18.206  1.00 43.36 LIG-0.35  N 
ATOM      7 H    PHE E  45      29.061  -5.714  18.856  1.00 43.36 LIG 0.16  HD
ATOM      8 O    SER E  44      26.827  -5.614  16.806  1.00 37.54 LIG-0.27  OA
BRANCH 6 9
ATOM      9  CA  PHE E  45      29.000  -4.135  17.676  1.00 46.68 LIG 0.18  C 
BRANCH 9 10
ATOM     10  C   PHE E  45      30.507  -4.171  17.470  1.00 48.11 LIG 0.24  C 
ATOM     11 O    PHE E  45      31.195  -5.035  18.017  1.00 49.85 LIG-0.27  OA
ATOM     12  N   GLY E  46      31.028  -3.240  16.681  1.00 50.71 LIG-0.35  N 
ATOM     13 H    GLY E  46      30.583  -2.620  16.285  1.00 50.71 LIG 0.16  HD
BRANCH 12 14
ATOM     14  CA  GLY E  46      32.458  -3.232  16.443  1.00 54.23 LIG 0.21  C 
BRANCH 14 15
ATOM     15  C   GLY E  46      33.109  -1.928  16.845  1.00 55.55 LIG 0.21  C 
ATOM     16 O    GLY E  46      32.869  -0.926  16.145  1.00 59.11 LIG-0.29  OA
ENDBRANCH 14 15
ENDBRANCH 12 14
ENDBRANCH 9 10
BRANCH 9 17
ATOM     17  CB  PHE E  45      28.623  -3.004  18.639  1.00 43.03 LIG 0.07  C 
BRANCH 17 18
ATOM     18  CG  PHE E  45      27.245  -3.146  19.234  1.00 41.93 LIG-0.06  A 
ATOM     19  CD2 PHE E  45      26.106  -2.896  18.470  1.00 42.38 LIG 0.01  A 
ATOM     20  CE2 PHE E  45      24.829  -3.056  19.014  1.00 42.73 LIG 0.00  A 
ATOM     21  CZ  PHE E  45      24.684  -3.469  20.335  1.00 42.74 LIG 0.00  A 
ATOM     22  CE1 PHE E  45      25.813  -3.723  21.108  1.00 41.89 LIG 0.00  A 
ATOM     23  CD1 PHE E  45      27.086  -3.561  20.555  1.00 42.01 LIG 0.01  A 
ENDBRANCH 17 18
ENDBRANCH 9 17
ENDBRANCH 6 9
ENDBRANCH 1 5
BRANCH 1 24
ATOM     24  N   SER E  44      25.932  -7.911  18.001  1.00 46.50 LIG-0.34  N 
ATOM     25  C   PHE E  43      25.061  -8.092  18.969  1.00 47.40 LIG 0.24  C 
ATOM     26 O    PHE E  43      25.344  -7.877  20.145  1.00 45.80 LIG-0.27  OA
ATOM     27 H    SER E  44      25.796  -8.067  17.167  1.00 46.50 LIG 0.16  HD
BRANCH 25 28
ATOM     28  CA  PHE E  43      23.702  -8.629  18.579  1.00 47.87 LIG 0.18  C 
BRANCH 28 29
ATOM     29  CB  PHE E  43      22.635  -7.904  19.394  1.00 42.32 LIG 0.07  C 
BRANCH 29 30
ATOM     30  CG  PHE E  43      21.201  -8.200  18.995  1.00 35.12 LIG-0.06  A 
ATOM     31  CD2 PHE E  43      20.808  -8.438  17.672  1.00 32.72 LIG 0.01  A 
ATOM     32  CE2 PHE E  43      19.439  -8.672  17.363  1.00 30.40 LIG 0.00  A 
ATOM     33  CZ  PHE E  43      18.481  -8.669  18.385  1.00 28.92 LIG 0.00  A 
ATOM     34  CE1 PHE E  43      18.881  -8.431  19.695  1.00 29.46 LIG 0.00  A 
ATOM     35  CD1 PHE E  43      20.229  -8.200  19.984  1.00 34.02 LIG 0.01  A 
ENDBRANCH 29 30
ENDBRANCH 28 29
BRANCH 28 36
ATOM     36  N   PHE E  43      23.887  -9.978  19.030  1.00 51.92 LIG-0.35  N 
ATOM     37  C   GLY E  42      23.196 -11.041  18.659  1.00 55.92 LIG 0.25  C 
ATOM     38 O    GLY E  42      22.251 -11.053  17.858  1.00 57.26 LIG-0.27  OA
ATOM     39 H    PHE E  43      24.528 -10.040  19.600  1.00 51.92 LIG 0.16  HD
BRANCH 37 40
ATOM     40  CA  GLY E  42      23.706 -12.287  19.338  1.00 58.33 LIG 0.47  C 
ATOM     41  N   GLY E  42      23.581 -12.290  20.768  1.00 60.94 LIG 0.61  N 
ENDBRANCH 37 40
ENDBRANCH 28 36
ENDBRANCH 25 28
ENDBRANCH 1 24
TORSDOF 15
