USER: ADFR SOLUTION from run 0
USER: SCORE 15.958012 LL:  -7.055 LR: -11.699 RR:   0.000 FEB:  -4.241
USER: RMSD 0.298888
USER: STATUS Locally minimized using BFGS
USER: GENES 27
USER: genes 0 Translation |==|  0.56448 0.46146 0.53250
USER: genes 1 Rotation |==|  0.49281 0.51085 0.49094 0.99975
USER: genes 2 Torsion [CB]-CA--N-[C] |==|  0.33591
USER: genes 3 Torsion [N]-C--CA-[N] |==|  0.91699
USER: genes 4 Torsion [C]-CA--CB-[CG] |==|  0.18133
USER: genes 5 Torsion [CA]-CB--CG-[CD] |==|  0.47286
USER: genes 6 Torsion [CB]-CG--CD-[NE2] |==|  0.94872
USER: genes 7 Torsion [C]-CA--N-[C] |==|  0.83245
USER: genes 8 Torsion [N]-C--CA-[N] |==|  0.90191
USER: genes 9 Torsion [N]-C--CA-[N] |==|  0.37451
USER: genes 10 Torsion [C]-CA--CB-[CG] |==|  0.18507
USER: genes 11 Torsion [CA]-CB--CG-[CD2] |==|  0.27864
USER: genes 12 Torsion [N]-CA--C-[N] |==|  0.03008
USER: genes 13 Torsion [C]-N--CA-[CB] |==|  0.43996
USER: genes 14 Torsion [N]-CA--CB-[CG] |==|  0.19781
USER: genes 15 Torsion [CA]-CB--CG-[CD] |==|  0.52951
USER: genes 16 Torsion [CB]-CG--CD-[OE1] |==|  0.48082
USER: genes 17 Torsion [N]-CA--C-[N] |==|  0.43576
USER: genes 18 Torsion [C]-N--CA-[CB] |==|  0.35291
USER: genes 19 Torsion [N]-CA--C-[O] |==|  0.39949
USER: genes 20 Torsion [N]-CA--CB-[CG] |==|  0.88651
USER: genes 21 Torsion [CA]-CB--CG-[CD] |==|  0.74654
USER: genes 22 Torsion [CB]-CG--CD-[CE] |==|  0.54740
USER: genes 23 Torsion [CG]-CD--CE-[NZ] |==|  0.20876
USER: genes 24 Torsion [CD]-CE--NZ-[HZ3] |==|  0.16665
USER: genes 25 Torsion [N]-CA--CB-[CG] |==|  0.86390
USER: genes 26 Torsion [CA]-CB--CG-[CD1] |==|  0.80165
ROOT
ATOM      1  CA  PHE G   7      -1.054   5.469   0.639  1.00 26.45 LIG 0.18  C 
ENDROOT
BRANCH 1 2
ATOM      2  N   PHE G   7      -1.119   4.037   0.432  1.00 22.76 LIG-0.35  N 
ATOM      3  C   GLN G   6      -1.727   3.230   1.300  1.00 25.23 LIG 0.24  C 
ATOM      4 O    GLN G   6      -2.412   3.589   2.254  1.00 25.88 LIG-0.27  OA
ATOM      5 H    PHE G   7      -0.737   3.764  -0.289  1.00 22.76 LIG 0.16  HD
BRANCH 3 6
ATOM      6  CA  GLN G   6      -1.560   1.755   1.056  1.00 22.93 LIG 0.18  C 
BRANCH 6 7
ATOM      7  CB  GLN G   6      -0.380   1.231   1.880  1.00 23.17 LIG 0.04  C 
BRANCH 7 8
ATOM      8  CG  GLN G   6      -0.626   1.319   3.384  1.00 21.39 LIG 0.10  C 
BRANCH 8 9
ATOM      9  CD  GLN G   6       0.426   0.589   4.266  1.00 22.17 LIG 0.21  C 
ATOM     10  NE2 GLN G   6       1.161  -0.312   3.647  1.00 17.24 LIG-0.37  N 
ATOM     11 21HE GLN G   6       0.997  -0.511   2.827  1.00 17.24 LIG 0.16  HD
ATOM     12 22HE GLN G   6       1.806  -0.700   4.064  1.00 17.24 LIG 0.16  HD
ATOM     13 OE1  GLN G   6       0.652   0.900   5.484  1.00 25.29 LIG-0.27  OA
ENDBRANCH 8 9
ENDBRANCH 7 8
ENDBRANCH 6 7
BRANCH 6 14
ATOM     14  N   GLN G   6      -1.397   1.488  -0.360  1.00 22.68 LIG-0.35  N 
ATOM     15  C   PRO G   5      -2.356   1.827  -1.211  1.00 24.61 LIG 0.24  C 
ATOM     16 O    PRO G   5      -3.435   2.338  -0.882  1.00 25.71 LIG-0.27  OA
ATOM     17 H    GLN G   6      -0.656   1.109  -0.579  1.00 22.68 LIG 0.16  HD
BRANCH 15 18
ATOM     18  CA  PRO G   5      -2.152   1.477  -2.658  1.00 27.09 LIG 0.18  C 
ATOM     19  CB  PRO G   5      -2.559   0.006  -2.863  1.00 27.99 LIG 0.04  C 
ATOM     20  CG  PRO G   5      -1.489  -0.551  -3.612  1.00 29.73 LIG 0.02  C 
ATOM     21  CD  PRO G   5      -0.298   0.327  -3.783  1.00 26.76 LIG 0.13  C 
ATOM     22  N   PRO G   5      -0.784   1.558  -3.156  1.00 24.34 LIG-0.34  N 
ATOM     23  C   HIS G   4      -0.083   2.687  -3.025  1.00 27.57 LIG 0.26  C 
ATOM     24 O    HIS G   4      -0.528   3.661  -2.434  1.00 27.10 LIG-0.27  OA
BRANCH 23 25
ATOM     25  CA  HIS G   4       1.316   2.786  -3.596  1.00 26.03 LIG 0.41  C 
ATOM     26  N   HIS G   4       1.248   4.159  -4.271  1.00 28.06 LIG 0.61  N 
BRANCH 25 27
ATOM     27  CB  HIS G   4       2.361   2.667  -2.487  1.00 24.96 LIG 0.11  C 
BRANCH 27 28
ATOM     28  CG  HIS G   4       2.353   1.296  -1.877  1.00 22.46 LIG 0.06  A 
ATOM     29  CD2 HIS G   4       3.164   0.229  -2.076  1.00 23.95 LIG 0.14  A 
ATOM     30 NE2  HIS G   4       2.716  -0.775  -1.252  1.00 25.16 LIG-0.25  NA
ATOM     31  CE1 HIS G   4       1.682  -0.316  -0.572  1.00 26.12 LIG 0.23  A 
ATOM     32 ND1  HIS G   4       1.418   0.929  -0.932  1.00 23.55 LIG-0.24  NA
ENDBRANCH 27 28
ENDBRANCH 25 27
ENDBRANCH 23 25
ENDBRANCH 15 18
ENDBRANCH 6 14
ENDBRANCH 3 6
ENDBRANCH 1 2
BRANCH 1 33
ATOM     33  C   PHE G   7      -1.749   6.296  -0.421  1.00 26.79 LIG 0.24  C 
ATOM     34  N   GLU G   8      -2.517   5.646  -1.283  1.00 28.87 LIG-0.35  N 
ATOM     35 H    GLU G   8      -2.722   4.811  -1.245  1.00 28.87 LIG 0.16  HD
ATOM     36 O    PHE G   7      -1.547   7.501  -0.465  1.00 31.74 LIG-0.27  OA
BRANCH 34 37
ATOM     37  CA  GLU G   8      -3.084   6.402  -2.416  1.00 32.81 LIG 0.18  C 
BRANCH 37 38
ATOM     38  CB  GLU G   8      -3.457   5.462  -3.527  1.00 32.33 LIG 0.04  C 
BRANCH 38 39
ATOM     39  CG  GLU G   8      -4.660   4.614  -3.214  1.00 32.73 LIG 0.12  C 
BRANCH 39 40
ATOM     40  CD  GLU G   8      -4.807   3.521  -4.268  1.00 35.15 LIG 0.17  C 
ATOM     41 OE1  GLU G   8      -5.686   2.632  -4.095  1.00 38.54 LIG-0.65  OA
ATOM     42 OE2  GLU G   8      -4.066   3.575  -5.279  1.00 38.35 LIG-0.65  OA
ENDBRANCH 39 40
ENDBRANCH 38 39
ENDBRANCH 37 38
BRANCH 37 43
ATOM     43  C   GLU G   8      -4.308   7.191  -2.015  1.00 36.20 LIG 0.24  C 
ATOM     44  N   LYS G   9      -4.641   8.246  -2.753  1.00 41.18 LIG-0.35  N 
ATOM     45 H    LYS G   9      -4.226   8.497  -3.463  1.00 41.18 LIG 0.16  HD
ATOM     46 O    GLU G   8      -4.951   6.863  -1.031  1.00 35.28 LIG-0.27  OA
BRANCH 44 47
ATOM     47  CA  LYS G   9      -5.790   9.081  -2.375  1.00 46.03 LIG 0.16  C 
BRANCH 47 48
ATOM     48  C   LYS G   9      -6.944   8.883  -3.378  1.00 47.77 LIG 0.22  C 
ATOM     49 O    LYS G   9      -8.114   8.896  -2.979  1.00 48.68 LIG-0.29  OA
ENDBRANCH 47 48
BRANCH 47 50
ATOM     50  CB  LYS G   9      -5.360  10.557  -2.291  1.00 48.34 LIG 0.03  C 
BRANCH 50 51
ATOM     51  CG  LYS G   9      -3.987  10.756  -1.639  1.00 50.79 LIG 0.00  C 
BRANCH 51 52
ATOM     52  CD  LYS G   9      -3.961  10.980  -0.122  1.00 52.72 LIG 0.03  C 
BRANCH 52 53
ATOM     53  CE  LYS G   9      -2.623  11.576   0.364  1.00 54.14 LIG 0.23  C 
BRANCH 53 54
ATOM     54  NZ  LYS G   9      -2.387  13.041   0.086  1.00 55.34 LIG-0.08  N 
ATOM     55 HZ3  LYS G   9      -3.022  13.525   0.480  1.00 55.34 LIG 0.27  HD
ATOM     56 HZ1  LYS G   9      -1.592  13.280   0.406  1.00 55.34 LIG 0.27  HD
ATOM     57 HZ2  LYS G   9      -2.407  13.184  -0.792  1.00 55.34 LIG 0.27  HD
ENDBRANCH 53 54
ENDBRANCH 52 53
ENDBRANCH 51 52
ENDBRANCH 50 51
ENDBRANCH 47 50
ENDBRANCH 44 47
ENDBRANCH 37 43
ENDBRANCH 34 37
ENDBRANCH 1 33
BRANCH 1 58
ATOM     58  CB  PHE G   7       0.436   5.823   0.682  1.00 27.87 LIG 0.07  C 
BRANCH 58 59
ATOM     59  CG  PHE G   7       1.165   4.888   1.630  1.00 29.51 LIG-0.06  A 
ATOM     60  CD2 PHE G   7       2.115   3.949   1.339  1.00 31.96 LIG 0.01  A 
ATOM     61  CE2 PHE G   7       2.664   3.211   2.400  1.00 32.27 LIG 0.00  A 
ATOM     62  CZ  PHE G   7       2.301   3.504   3.706  1.00 29.14 LIG 0.00  A 
ATOM     63  CE1 PHE G   7       1.419   4.439   3.968  1.00 32.29 LIG 0.00  A 
ATOM     64  CD1 PHE G   7       0.864   5.133   2.931  1.00 29.45 LIG 0.01  A 
ENDBRANCH 58 59
ENDBRANCH 1 58
TORSDOF 25
