USER: ADFR SOLUTION from run 0
USER: SCORE 11.236783 LL:  -3.782 LR:  -8.181 RR:   0.000 FEB:  -2.514
USER: RMSD 2.259842
USER: STATUS Locally minimized using BFGS
USER: GENES 21
USER: genes 0 Translation |==|  0.54408 0.47000 0.57734
USER: genes 1 Rotation |==|  0.43361 0.57302 0.52178 0.98968
USER: genes 2 Torsion [C]-N--CA-[C] |==|  0.78038
USER: genes 3 Torsion [N]-CA--C-[N] |==|  0.18464
USER: genes 4 Torsion [C]-N--CA-[CB] |==|  0.91702
USER: genes 5 Torsion [N]-CA--C-[O] |==|  0.77652
USER: genes 6 Torsion [N]-CA--CB-[CG] |==|  0.48270
USER: genes 7 Torsion [CA]-CB--CG-[CD] |==|  0.65015
USER: genes 8 Torsion [CB]-CG--CD-[CE] |==|  0.11449
USER: genes 9 Torsion [CG]-CD--CE-[NZ] |==|  0.49821
USER: genes 10 Torsion [CD]-CE--NZ-[HZ2] |==|  0.83285
USER: genes 11 Torsion [N]-CA--CB-[CG] |==|  0.82403
USER: genes 12 Torsion [CA]-CB--CG-[CD1] |==|  0.67423
USER: genes 13 Torsion [O]-C--CA-[CB] |==|  0.78496
USER: genes 14 Torsion [N]-C--CA-[N] |==|  0.30556
USER: genes 15 Torsion [C]-CA--CB-[CG] |==|  0.20119
USER: genes 16 Torsion [CA]-CB--CG-[OD1] |==|  0.96459
USER: genes 17 Torsion [C]-CA--N-[C] |==|  0.83804
USER: genes 18 Torsion [N]-C--CA-[N] |==|  0.81595
USER: genes 19 Torsion [C]-CA--CB-[OG] |==|  0.25832
USER: genes 20 Torsion [CA]-CB--OG-[HG] |==|  0.50132
ROOT
ATOM      1  C   PRO P 630      25.660   9.427 -14.958  1.00 36.04 LIG 0.24  C 
ATOM      2 O    PRO P 630      26.590   8.708 -14.536  1.00 33.55 LIG-0.27  OA
ATOM      3  N   PHE P 631      24.374   9.107 -14.848  1.00 24.81 LIG-0.35  N 
ATOM      4 H    PHE P 631      23.738   9.607 -15.139  1.00 24.81 LIG 0.16  HD
ENDROOT
BRANCH 3 5
ATOM      5  CA  PHE P 631      23.917   7.888 -14.228  1.00 30.16 LIG 0.18  C 
BRANCH 5 6
ATOM      6  C   PHE P 631      24.086   6.730 -15.248  1.00 46.65 LIG 0.24  C 
ATOM      7  N   LYS P 632      25.331   6.422 -15.566  1.00 37.40 LIG-0.34  N 
ATOM      8 H    LYS P 632      26.013   6.843 -15.255  1.00 37.40 LIG 0.16  HD
ATOM      9 O    PHE P 631      23.031   6.257 -15.691  1.00 54.45 LIG-0.27  OA
BRANCH 7 10
ATOM     10  CA  LYS P 632      25.690   5.316 -16.494  1.00 44.88 LIG 0.18  C 
BRANCH 10 11
ATOM     11  C   LYS P 632      25.933   5.854 -17.899  1.00 45.53 LIG 0.20  C 
ATOM     12 O    LYS P 632      24.987   6.110 -18.671  1.00 61.11 LIG-0.65  OA
ATOM     13 OXT  LYS P 632      27.123   6.039 -18.251  1.00 57.29 LIG-0.65  OA
ENDBRANCH 10 11
BRANCH 10 14
ATOM     14  CB  LYS P 632      24.653   4.213 -16.432  1.00 47.81 LIG 0.04  C 
BRANCH 14 15
ATOM     15  CG  LYS P 632      24.644   3.005 -17.349  1.00 54.84 LIG 0.00  C 
BRANCH 15 16
ATOM     16  CD  LYS P 632      23.255   2.934 -18.012  1.00 63.82 LIG 0.03  C 
BRANCH 16 17
ATOM     17  CE  LYS P 632      22.818   4.347 -18.401  1.00 66.19 LIG 0.23  C 
BRANCH 17 18
ATOM     18  NZ  LYS P 632      21.488   4.376 -19.065  1.00 52.45 LIG-0.08  N 
ATOM     19 HZ2  LYS P 632      21.516   3.888 -19.809  1.00 52.45 LIG 0.27  HD
ATOM     20 HZ1  LYS P 632      21.276   5.216 -19.269  1.00 52.45 LIG 0.27  HD
ATOM     21 HZ3  LYS P 632      20.874   4.041 -18.514  1.00 52.45 LIG 0.27  HD
ENDBRANCH 17 18
ENDBRANCH 16 17
ENDBRANCH 15 16
ENDBRANCH 14 15
ENDBRANCH 10 14
ENDBRANCH 7 10
ENDBRANCH 5 6
BRANCH 5 22
ATOM     22  CB  PHE P 631      22.468   7.841 -13.770  1.00 25.51 LIG 0.07  C 
BRANCH 22 23
ATOM     23  CG  PHE P 631      22.016   8.809 -12.671  1.00 27.58 LIG-0.06  A 
ATOM     24  CD1 PHE P 631      21.542   8.425 -11.418  1.00 30.72 LIG 0.01  A 
ATOM     25  CE1 PHE P 631      21.147   9.379 -10.491  1.00 26.28 LIG 0.00  A 
ATOM     26  CZ  PHE P 631      21.227  10.720 -10.803  1.00 23.54 LIG 0.00  A 
ATOM     27  CE2 PHE P 631      21.694  11.120 -12.046  1.00 23.94 LIG 0.00  A 
ATOM     28  CD2 PHE P 631      22.058  10.160 -12.940  1.00 24.70 LIG 0.01  A 
ENDBRANCH 22 23
ENDBRANCH 5 22
ENDBRANCH 3 5
BRANCH 1 29
ATOM     29  CA  PRO P 630      26.039  10.732 -15.628  1.00 22.29 LIG 0.18  C 
ATOM     30  CB  PRO P 630      26.426  11.817 -14.636  1.00 25.21 LIG 0.04  C 
ATOM     31  CG  PRO P 630      25.183  12.633 -14.448  1.00 30.73 LIG 0.02  C 
ATOM     32  CD  PRO P 630      24.400  12.533 -15.734  1.00 29.29 LIG 0.13  C 
ATOM     33  N   PRO P 630      24.903  11.315 -16.357  1.00 28.31 LIG-0.34  N 
ATOM     34  C   ASP P 629      24.489  10.686 -17.465  1.00 28.38 LIG 0.24  C 
ATOM     35 O    ASP P 629      24.942   9.579 -17.790  1.00 35.14 LIG-0.27  OA
BRANCH 34 36
ATOM     36  CA  ASP P 629      23.434  11.367 -18.306  1.00 31.37 LIG 0.19  C 
BRANCH 36 37
ATOM     37  CB  ASP P 629      22.259  10.433 -18.658  1.00 29.57 LIG 0.15  C 
BRANCH 37 38
ATOM     38  CG  ASP P 629      21.396  10.182 -17.435  1.00 37.10 LIG 0.17  C 
ATOM     39 OD2  ASP P 629      20.285   9.623 -17.571  1.00 43.68 LIG-0.65  OA
ATOM     40 OD1  ASP P 629      21.835  10.516 -16.316  1.00 36.00 LIG-0.65  OA
ENDBRANCH 37 38
ENDBRANCH 36 37
BRANCH 36 41
ATOM     41  N   ASP P 629      24.014  11.818 -19.553  1.00 43.53 LIG-0.34  N 
ATOM     42 H    ASP P 629      23.610  11.471 -20.229  1.00 43.53 LIG 0.16  HD
ATOM     43  C   SER P 628      25.024  12.644 -19.729  1.00 52.75 LIG 0.26  C 
ATOM     44 O    SER P 628      25.644  13.213 -18.834  1.00 74.95 LIG-0.27  OA
BRANCH 43 45
ATOM     45  CA  SER P 628      25.357  12.850 -21.213  1.00 53.54 LIG 0.42  C 
ATOM     46  N   SER P 628      25.865  11.639 -21.855  1.00 68.72 LIG 0.62  N 
BRANCH 45 47
ATOM     47  CB  SER P 628      24.079  13.324 -21.909  1.00 49.52 LIG 0.21  C 
BRANCH 47 48
ATOM     48 OG   SER P 628      24.008  14.742 -21.958  1.00 73.20 LIG-0.40  OA
ATOM     49 HG   SER P 628      23.296  14.975 -22.338  1.00 73.20 LIG 0.21  HD
ENDBRANCH 47 48
ENDBRANCH 45 47
ENDBRANCH 43 45
ENDBRANCH 36 41
ENDBRANCH 34 36
ENDBRANCH 1 29
TORSDOF 19
