USER: ADFR SOLUTION from run 0
USER: SCORE 26.018852 LL:  -5.509 LR: -23.066 RR:   0.000 FEB: -15.012
USER: RMSD 0.244499
USER: STATUS Locally minimized using BFGS
USER: GENES 29
USER: genes 0 Translation |==|  0.39243 0.59595 0.56166
USER: genes 1 Rotation |==|  0.49236 0.50456 0.50595 0.99989
USER: genes 2 Torsion [CB]-CA--N-[C] |==|  0.29031
USER: genes 3 Torsion [N]-C--CA-[N] |==|  0.46316
USER: genes 4 Torsion [C]-CA--CB-[CG] |==|  0.51827
USER: genes 5 Torsion [CA]-CB--CG-[CD2] |==|  0.82468
USER: genes 6 Torsion [C]-CA--N-[C] |==|  0.64805
USER: genes 7 Torsion [N]-C--CA-[N] |==|  0.38728
USER: genes 8 Torsion [C]-CA--CB-[CG] |==|  0.46703
USER: genes 9 Torsion [CA]-CB--CG-[OD1] |==|  0.93654
USER: genes 10 Torsion [C]-CA--N-[C] |==|  0.81451
USER: genes 11 Torsion [N]-C--CA-[N] |==|  0.45403
USER: genes 12 Torsion [C]-CA--N-[C] |==|  0.82464
USER: genes 13 Torsion [C]-CA--CB-[CG] |==|  0.84302
USER: genes 14 Torsion [CA]-CB--CG-[CD] |==|  0.52769
USER: genes 15 Torsion [CB]-CG--CD-[OE1] |==|  0.91973
USER: genes 16 Torsion [N]-CA--C-[N] |==|  0.37595
USER: genes 17 Torsion [C]-N--CA-[CB] |==|  0.47778
USER: genes 18 Torsion [N]-CA--C-[N] |==|  0.36886
USER: genes 19 Torsion [C]-N--CA-[CB] |==|  0.39127
USER: genes 20 Torsion [N]-CA--CB-[CG] |==|  0.56354
USER: genes 21 Torsion [CA]-CB--CG-[CD] |==|  0.48702
USER: genes 22 Torsion [CB]-CG--CD-[NE2] |==|  0.50064
USER: genes 23 Torsion [N]-CA--C-[O] |==|  0.08496
USER: genes 24 Torsion [N]-CA--CB-[CG] |==|  0.81653
USER: genes 25 Torsion [CA]-CB--CG-[CD1] |==|  0.82272
USER: genes 26 Torsion [N]-CA--CB-[CG] |==|  0.23191
USER: genes 27 Torsion [CA]-CB--CG-[CD2] |==|  0.74185
USER: genes 28 Torsion [CE2]-CZ--OH-[HH] |==|  0.63834
ROOT
ATOM      1  CA  TYR C 305       4.624  92.450  10.553  1.00 17.70 LIG 0.18  C 
ENDROOT
BRANCH 1 2
ATOM      2  N   TYR C 305       5.349  92.088   9.350  1.00 18.26 LIG-0.35  N 
ATOM      3  C   LEU C 304       5.584  93.022   8.457  1.00 22.06 LIG 0.24  C 
ATOM      4 O    LEU C 304       5.155  94.146   8.581  1.00 19.49 LIG-0.27  OA
ATOM      5 H    TYR C 305       5.588  91.264   9.287  1.00 18.26 LIG 0.16  HD
BRANCH 3 6
ATOM      6  CA  LEU C 304       6.391  92.606   7.215  1.00 20.64 LIG 0.18  C 
BRANCH 6 7
ATOM      7  CB  LEU C 304       7.861  92.397   7.613  1.00 15.74 LIG 0.04  C 
BRANCH 7 8
ATOM      8  CG  LEU C 304       8.914  92.120   6.490  1.00 18.57 LIG-0.02  C 
ATOM      9  CD2 LEU C 304       8.597  90.839   5.797  1.00 21.94 LIG 0.01  C 
ATOM     10  CD1 LEU C 304      10.326  92.121   7.140  1.00 20.21 LIG 0.01  C 
ENDBRANCH 7 8
ENDBRANCH 6 7
BRANCH 6 11
ATOM     11  N   LEU C 304       6.297  93.637   6.202  1.00 19.38 LIG-0.35  N 
ATOM     12 H    LEU C 304       6.508  94.433   6.451  1.00 19.38 LIG 0.16  HD
ATOM     13  C   ASN C 303       5.903  93.284   4.991  1.00 24.27 LIG 0.24  C 
ATOM     14 O    ASN C 303       5.563  92.136   4.725  1.00 22.60 LIG-0.27  OA
BRANCH 13 15
ATOM     15  CA  ASN C 303       5.821  94.390   3.939  1.00 31.24 LIG 0.18  C 
BRANCH 15 16
ATOM     16  CB  ASN C 303       4.370  94.832   3.791  1.00 21.65 LIG 0.14  C 
BRANCH 16 17
ATOM     17  CG  ASN C 303       4.250  96.142   2.965  1.00 16.90 LIG 0.22  C 
ATOM     18 OD1  ASN C 303       5.210  96.932   2.865  1.00 28.96 LIG-0.27  OA
ATOM     19  ND2 ASN C 303       3.068  96.357   2.391  1.00 28.67 LIG-0.37  N 
ATOM     20 22HD ASN C 303       2.433  95.785   2.487  1.00 28.67 LIG 0.16  HD
ATOM     21 21HD ASN C 303       2.940  97.068   1.924  1.00 28.67 LIG 0.16  HD
ENDBRANCH 16 17
ENDBRANCH 15 16
BRANCH 15 22
ATOM     22  N   ASN C 303       6.326  93.877   2.667  1.00 31.60 LIG-0.35  N 
ATOM     23  C   GLU C 302       7.610  93.558   2.537  1.00 42.93 LIG 0.24  C 
ATOM     24 O    GLU C 302       8.442  93.737   3.461  1.00 23.80 LIG-0.27  OA
ATOM     25 H    ASN C 303       5.739  93.806   2.043  1.00 31.60 LIG 0.16  HD
BRANCH 23 26
ATOM     26  CA  GLU C 302       8.010  92.992   1.157  1.00 34.08 LIG 0.18  C 
BRANCH 26 27
ATOM     27  N   GLU C 302       9.428  93.027   0.950  1.00 23.23 LIG-0.35  N 
ATOM     28  C   ACE C 301      10.050  94.186   0.920  1.00 22.46 LIG 0.21  C 
ATOM     29 O    ACE C 301       9.457  95.243   1.061  1.00 29.32 LIG-0.27  OA
ATOM     30  CH3 ACE C 301      11.553  94.169   0.710  1.00 21.44 LIG 0.12  C 
ATOM     31 H    GLU C 302       9.806  92.260   0.854  1.00 23.23 LIG 0.16  HD
ENDBRANCH 26 27
BRANCH 26 32
ATOM     32  CB  GLU C 302       7.517  91.556   0.983  1.00 20.79 LIG 0.04  C 
BRANCH 32 33
ATOM     33  CG  GLU C 302       8.026  90.584   2.107  1.00 23.79 LIG 0.12  C 
BRANCH 33 34
ATOM     34  CD  GLU C 302       7.764  89.108   1.858  1.00 40.63 LIG 0.17  C 
ATOM     35 OE1  GLU C 302       6.792  88.729   1.182  1.00 32.87 LIG-0.65  OA
ATOM     36 OE2  GLU C 302       8.527  88.291   2.396  1.00 33.51 LIG-0.65  OA
ENDBRANCH 33 34
ENDBRANCH 32 33
ENDBRANCH 26 32
ENDBRANCH 23 26
ENDBRANCH 15 22
ENDBRANCH 13 15
ENDBRANCH 6 11
ENDBRANCH 3 6
ENDBRANCH 1 2
BRANCH 1 37
ATOM     37  C   TYR C 305       5.369  91.814  11.715  1.00 20.52 LIG 0.24  C 
ATOM     38 O    TYR C 305       5.772  90.651  11.628  1.00 23.93 LIG-0.27  OA
ATOM     39  N   PHE C 306       5.564  92.574  12.777  1.00 17.96 LIG-0.35  N 
ATOM     40 H    PHE C 306       5.316  93.394  12.855  1.00 17.96 LIG 0.16  HD
BRANCH 39 41
ATOM     41  CA  PHE C 306       6.272  91.987  13.963  1.00 18.04 LIG 0.18  C 
BRANCH 41 42
ATOM     42  C   PHE C 306       5.367  90.930  14.536  1.00 31.34 LIG 0.24  C 
ATOM     43  N   GLN C 307       5.927  89.758  14.818  1.00 26.23 LIG-0.35  N 
ATOM     44 H    GLN C 307       6.768  89.592  14.752  1.00 26.23 LIG 0.16  HD
ATOM     45 O    PHE C 306       4.176  91.159  14.718  1.00 30.18 LIG-0.27  OA
BRANCH 43 46
ATOM     46  CA  GLN C 307       5.111  88.632  15.278  1.00 27.99 LIG 0.16  C 
BRANCH 46 47
ATOM     47  CB  GLN C 307       5.660  87.372  14.621  1.00 36.24 LIG 0.04  C 
BRANCH 47 48
ATOM     48  CG  GLN C 307       4.681  86.247  14.527  1.00 42.27 LIG 0.10  C 
BRANCH 48 49
ATOM     49  CD  GLN C 307       5.274  85.079  13.760  1.00 30.08 LIG 0.21  C 
ATOM     50  NE2 GLN C 307       4.467  84.010  13.614  1.00 33.32 LIG-0.37  N 
ATOM     51 21HE GLN C 307       3.677  84.019  13.954  1.00 33.32 LIG 0.16  HD
ATOM     52 22HE GLN C 307       4.742  83.320  13.182  1.00 33.32 LIG 0.16  HD
ATOM     53 OE1  GLN C 307       6.437  85.134  13.292  1.00 31.63 LIG-0.27  OA
ENDBRANCH 48 49
ENDBRANCH 47 48
ENDBRANCH 46 47
BRANCH 46 54
ATOM     54  C   GLN C 307       4.941  88.431  16.777  1.00 39.25 LIG 0.22  C 
ATOM     55 O    GLN C 307       4.964  89.439  17.503  1.00 55.00 LIG-0.29  OA
ENDBRANCH 46 54
ENDBRANCH 43 46
ENDBRANCH 41 42
BRANCH 41 56
ATOM     56  CB  PHE C 306       6.577  93.057  15.002  1.00 20.53 LIG 0.07  C 
BRANCH 56 57
ATOM     57  CG  PHE C 306       7.542  94.060  14.541  1.00 20.37 LIG-0.06  A 
ATOM     58  CD2 PHE C 306       7.193  95.379  14.444  1.00 17.20 LIG 0.01  A 
ATOM     59  CE2 PHE C 306       8.117  96.339  14.056  1.00 19.90 LIG 0.00  A 
ATOM     60  CZ  PHE C 306       9.437  95.972  13.751  1.00 23.32 LIG 0.00  A 
ATOM     61  CE1 PHE C 306       9.795  94.625  13.846  1.00 27.54 LIG 0.00  A 
ATOM     62  CD1 PHE C 306       8.866  93.681  14.234  1.00 19.02 LIG 0.01  A 
ENDBRANCH 56 57
ENDBRANCH 41 56
ENDBRANCH 39 41
ENDBRANCH 1 37
BRANCH 1 63
ATOM     63  CB  TYR C 305       3.185  91.951  10.495  1.00 23.59 LIG 0.07  C 
BRANCH 63 64
ATOM     64  CG  TYR C 305       2.985  90.530  10.906  1.00 90.40 LIG-0.06  A 
ATOM     65  CD2 TYR C 305       2.999  89.522   9.958  1.00 31.11 LIG 0.01  A 
ATOM     66  CE2 TYR C 305       2.812  88.175  10.322  1.00 55.34 LIG 0.04  A 
ATOM     67  CZ  TYR C 305       2.613  87.855  11.660  1.00 93.94 LIG 0.07  A 
ATOM     68  CE1 TYR C 305       2.596  88.854  12.633  1.00 56.99 LIG 0.04  A 
ATOM     69  CD1 TYR C 305       2.781  90.184  12.253  1.00 51.39 LIG 0.01  A 
BRANCH 67 70
ATOM     70 OH   TYR C 305       2.430  86.544  12.027  1.00 93.94 LIG-0.36  OA
ATOM     71 HH   TYR C 305       1.750  86.482  12.517  1.00 93.94 LIG 0.22  HD
ENDBRANCH 67 70
ENDBRANCH 63 64
ENDBRANCH 1 63
TORSDOF 27
