USER: ADFR SOLUTION from run 0
USER: SCORE 7.858307 LL:  -1.850 LR:  -8.935 RR:   0.000 FEB:  -4.758
USER: RMSD 0.848497
USER: STATUS Locally minimized using BFGS
USER: GENES 16
USER: genes 0 Translation |==|  0.51195 0.46794 0.38312
USER: genes 1 Rotation |==|  0.56193 0.54427 0.47249 0.99340
USER: genes 2 Torsion [CB]-CA--N-[C] |==|  0.24378
USER: genes 3 Torsion [N]-C--CA-[N] |==|  0.48889
USER: genes 4 Torsion [C]-CA--N-[C] |==|  0.55711
USER: genes 5 Torsion [N]-C--CA-[N] |==|  0.46102
USER: genes 6 Torsion [C]-CA--CB-[OG] |==|  0.77735
USER: genes 7 Torsion [CA]-CB--OG-[HG] |==|  0.49565
USER: genes 8 Torsion [N]-CA--CB-[CG1] |==|  0.74090
USER: genes 9 Torsion [N]-CA--C-[N] |==|  0.45616
USER: genes 10 Torsion [C]-N--CA-[CB] |==|  0.34508
USER: genes 11 Torsion [N]-CA--CB-[OG] |==|  0.09178
USER: genes 12 Torsion [CA]-CB--OG-[HG] |==|  0.52668
USER: genes 13 Torsion [N]-CA--C-[N] |==|  0.37034
USER: genes 14 Torsion [C]-N--CA-[C] |==|  0.83417
USER: genes 15 Torsion [N]-CA--C-[O] |==|  0.52874
ROOT
ATOM      1  CA  VAL B 303      13.317   3.987  31.679  1.00 37.13 LIG 0.18  C 
ENDROOT
BRANCH 1 2
ATOM      2  N   VAL B 303      12.151   3.672  32.494  1.00 37.20 LIG-0.35  N 
ATOM      3  C   SER B 302      11.526   2.503  32.402  1.00 37.39 LIG 0.24  C 
ATOM      4 O    SER B 302      11.874   1.617  31.616  1.00 37.76 LIG-0.27  OA
ATOM      5 H    VAL B 303      11.912   4.301  33.029  1.00 37.20 LIG 0.16  HD
BRANCH 3 6
ATOM      6  CA  SER B 302      10.327   2.307  33.324  1.00 37.09 LIG 0.20  C 
BRANCH 6 7
ATOM      7  N   SER B 302       9.677   1.030  33.061  1.00 36.48 LIG-0.34  N 
ATOM      8 H    SER B 302      10.173   0.455  32.659  1.00 36.48 LIG 0.16  HD
ATOM      9  C   ALA B 301       8.419   0.801  33.425  1.00 36.26 LIG 0.26  C 
ATOM     10 O    ALA B 301       7.728   1.637  34.007  1.00 35.88 LIG-0.27  OA
BRANCH 9 11
ATOM     11  CA  ALA B 301       7.855  -0.575  33.082  1.00 36.43 LIG 0.40  C 
ATOM     12  CB  ALA B 301       7.606  -0.677  31.580  1.00 36.70 LIG 0.06  C 
ATOM     13  N   ALA B 301       6.585  -0.831  33.823  1.00 36.51 LIG 0.61  N 
ENDBRANCH 9 11
ENDBRANCH 6 7
BRANCH 6 14
ATOM     14  CB  SER B 302      10.788   2.383  34.783  1.00 37.65 LIG 0.20  C 
BRANCH 14 15
ATOM     15 OG   SER B 302      11.364   1.159  35.201  1.00 38.63 LIG-0.40  OA
ATOM     16 HG   SER B 302      11.629   1.230  35.995  1.00 38.63 LIG 0.21  HD
ENDBRANCH 14 15
ENDBRANCH 6 14
ENDBRANCH 3 6
ENDBRANCH 1 2
BRANCH 1 17
ATOM     17  CB  VAL B 303      12.910   4.600  30.314  1.00 37.28 LIG 0.01  C 
ATOM     18  CG1 VAL B 303      12.805   3.509  29.265  1.00 36.92 LIG 0.01  C 
ATOM     19  CG2 VAL B 303      11.585   5.339  30.445  1.00 37.06 LIG 0.01  C 
ENDBRANCH 1 17
BRANCH 1 20
ATOM     20  C   VAL B 303      14.200   4.983  32.418  1.00 37.27 LIG 0.24  C 
ATOM     21 O    VAL B 303      13.768   5.608  33.388  1.00 36.92 LIG-0.27  OA
ATOM     22  N   SER B 304      15.440   5.122  31.965  1.00 37.37 LIG-0.34  N 
ATOM     23 H    SER B 304      15.762   4.685  31.298  1.00 37.37 LIG 0.16  HD
BRANCH 22 24
ATOM     24  CA  SER B 304      16.375   6.054  32.584  1.00 37.74 LIG 0.20  C 
BRANCH 24 25
ATOM     25  CB  SER B 304      17.648   5.322  33.015  1.00 37.88 LIG 0.20  C 
BRANCH 25 26
ATOM     26 OG   SER B 304      17.946   4.260  32.124  1.00 38.36 LIG-0.40  OA
ATOM     27 HG   SER B 304      18.565   3.791  32.445  1.00 38.36 LIG 0.21  HD
ENDBRANCH 25 26
ENDBRANCH 24 25
BRANCH 24 28
ATOM     28  C   SER B 304      16.720   7.156  31.588  1.00 37.93 LIG 0.24  C 
ATOM     29 O    SER B 304      17.015   6.879  30.425  1.00 38.21 LIG-0.27  OA
ATOM     30  N   ALA B 305      16.680   8.404  32.044  1.00 38.06 LIG-0.35  N 
ATOM     31 H    ALA B 305      16.478   8.613  32.853  1.00 38.06 LIG 0.16  HD
BRANCH 30 32
ATOM     32  CA  ALA B 305      16.984   9.540  31.182  1.00 38.30 LIG 0.16  C 
ATOM     33  CB  ALA B 305      16.818  10.841  31.967  1.00 38.13 LIG 0.04  C 
BRANCH 32 34
ATOM     34  C   ALA B 305      18.399   9.450  30.621  1.00 38.47 LIG 0.22  C 
ATOM     35 O    ALA B 305      18.861  10.448  30.030  1.00 38.58 LIG-0.29  OA
ENDBRANCH 32 34
ENDBRANCH 30 32
ENDBRANCH 24 28
ENDBRANCH 22 24
ENDBRANCH 1 20
TORSDOF 14
