USER: ADFR SOLUTION from run 0
USER: SCORE 13.580806 LL:  -4.834 LR: -13.404 RR:   0.000 FEB:  -5.350
USER: RMSD 0.673822
USER: STATUS Locally minimized using BFGS
USER: GENES 29
USER: genes 0 Translation |==|  0.52488 0.44453 0.55754
USER: genes 1 Rotation |==|  0.47575 0.49949 0.48755 0.99926
USER: genes 2 Torsion [CB]-CA--N-[C] |==|  0.42256
USER: genes 3 Torsion [N]-C--CA-[N] |==|  0.35652
USER: genes 4 Torsion [C]-CA--N-[C] |==|  0.79499
USER: genes 5 Torsion [N]-C--CA-[N] |==|  0.00291
USER: genes 6 Torsion [C]-CA--CB-[CG] |==|  0.50182
USER: genes 7 Torsion [CA]-CB--CG-[CD] |==|  0.21711
USER: genes 8 Torsion [CB]-CG--CD-[NE] |==|  0.42919
USER: genes 9 Torsion [CG]-CD--NE-[CZ] |==|  0.33215
USER: genes 10 Torsion [C]-CA--CB-[CG] |==|  0.14027
USER: genes 11 Torsion [CA]-CB--CG-[CD] |==|  0.16458
USER: genes 12 Torsion [CB]-CG--CD-[OE1] |==|  0.15939
USER: genes 13 Torsion [N]-CA--CB-[CG] |==|  0.84723
USER: genes 14 Torsion [CA]-CB--CG-[CD2] |==|  0.84513
USER: genes 15 Torsion [N]-CA--C-[N] |==|  0.45872
USER: genes 16 Torsion [C]-N--CA-[CB] |==|  0.32387
USER: genes 17 Torsion [N]-CA--CB-[CG1] |==|  0.82654
USER: genes 18 Torsion [N]-CA--C-[N] |==|  0.43545
USER: genes 19 Torsion [C]-N--CA-[CB] |==|  0.46126
USER: genes 20 Torsion [N]-CA--CB-[CG] |==|  0.82525
USER: genes 21 Torsion [CA]-CB--CG-[CD1] |==|  0.48108
USER: genes 22 Torsion [N]-CA--C-[N] |==|  0.42410
USER: genes 23 Torsion [C]-N--CA-[C] |==|  0.74629
USER: genes 24 Torsion [N]-CA--C-[N] |==|  0.22996
USER: genes 25 Torsion [C]-N--CA-[CB] |==|  0.44696
USER: genes 26 Torsion [N]-CA--CB-[CG] |==|  0.82670
USER: genes 27 Torsion [CA]-CB--CG-[CD1] |==|  0.48224
USER: genes 28 Torsion [N]-CA--C-[O] |==|  0.48161
ROOT
ATOM      1  CA  LEU C  12      -0.054   4.831  33.432  0.76 25.89 LIG 0.18  C 
ENDROOT
BRANCH 1 2
ATOM      2  N   LEU C  12      -0.747   3.852  32.606  0.76 24.12 LIG-0.35  N 
ATOM      3 H    LEU C  12      -0.372   3.079  32.584  0.76 24.12 LIG 0.16  HD
ATOM      4  C   GLN C  11      -1.863   4.152  31.949  0.76 26.11 LIG 0.24  C 
ATOM      5 O    GLN C  11      -2.393   5.266  31.997  0.76 27.34 LIG-0.27  OA
BRANCH 4 6
ATOM      6  CA  GLN C  11      -2.461   3.034  31.098  0.76 26.16 LIG 0.18  C 
BRANCH 6 7
ATOM      7  N   GLN C  11      -3.873   2.777  31.349  0.76 28.86 LIG-0.35  N 
ATOM      8  C   ARG C  10      -4.315   2.162  32.440  0.76 30.48 LIG 0.26  C 
ATOM      9 O    ARG C  10      -3.575   1.782  33.351  0.76 24.30 LIG-0.27  OA
ATOM     10 H    GLN C  11      -4.393   3.061  30.725  0.76 28.86 LIG 0.16  HD
BRANCH 8 11
ATOM     11  CA  ARG C  10      -5.836   1.959  32.520  0.76 33.62 LIG 0.40  C 
ATOM     12  N   ARG C  10      -6.519   2.492  31.303  0.76 36.52 LIG 0.61  N 
BRANCH 11 13
ATOM     13  CB  ARG C  10      -6.132   0.468  32.674  0.76 36.98 LIG 0.05  C 
BRANCH 13 14
ATOM     14  CG  ARG C  10      -7.617   0.096  32.752  0.76 39.40 LIG 0.02  C 
BRANCH 14 15
ATOM     15  CD  ARG C  10      -8.287   0.102  31.383  0.76 42.42 LIG 0.14  C 
BRANCH 15 16
ATOM     16  NE  ARG C  10      -9.451  -0.783  31.346  0.76 44.78 LIG-0.23  N 
ATOM     17  CZ  ARG C  10     -10.695  -0.390  31.085  0.76 45.62 LIG 0.67  C 
ATOM     18  NH2 ARG C  10     -11.677  -1.281  31.057  0.76 46.43 LIG-0.23  N 
ATOM     19  NH1 ARG C  10     -10.959   0.886  30.839  0.76 45.50 LIG-0.23  N 
ATOM     20 2HH2 ARG C  10     -12.482  -1.030  30.889  0.76 46.43 LIG 0.17  HD
ATOM     21 1HH2 ARG C  10     -11.508  -2.112  31.207  0.76 46.43 LIG 0.17  HD
ATOM     22 2HH1 ARG C  10     -11.766   1.134  30.672  0.76 45.50 LIG 0.17  HD
ATOM     23 1HH1 ARG C  10     -10.324   1.466  30.847  0.76 45.50 LIG 0.17  HD
ATOM     24 HE   ARG C  10      -9.322  -1.618  31.503  0.76 44.78 LIG 0.18  HD
ENDBRANCH 15 16
ENDBRANCH 14 15
ENDBRANCH 13 14
ENDBRANCH 11 13
ENDBRANCH 8 11
ENDBRANCH 6 7
BRANCH 6 25
ATOM     25  CB  GLN C  11      -2.255   3.375  29.620  0.76 25.68 LIG 0.04  C 
BRANCH 25 26
ATOM     26  CG  GLN C  11      -0.828   3.750  29.268  0.76 22.66 LIG 0.10  C 
BRANCH 26 27
ATOM     27  CD  GLN C  11       0.140   2.639  29.587  0.76 24.13 LIG 0.21  C 
ATOM     28 OE1  GLN C  11      -0.004   1.518  29.091  0.76 19.83 LIG-0.27  OA
ATOM     29  NE2 GLN C  11       1.134   2.939  30.417  0.76 21.86 LIG-0.37  N 
ATOM     30 21HE GLN C  11       1.199   3.733  30.743  0.76 21.86 LIG 0.16  HD
ATOM     31 22HE GLN C  11       1.712   2.339  30.630  0.76 21.86 LIG 0.16  HD
ENDBRANCH 26 27
ENDBRANCH 25 26
ENDBRANCH 6 25
ENDBRANCH 4 6
ENDBRANCH 1 2
BRANCH 1 32
ATOM     32  CB  LEU C  12       0.715   4.129  34.557  0.76 24.07 LIG 0.04  C 
BRANCH 32 33
ATOM     33  CG  LEU C  12      -0.110   3.197  35.455  0.76 21.16 LIG-0.02  C 
ATOM     34  CD1 LEU C  12       0.792   2.643  36.546  0.76 25.64 LIG 0.01  C 
ATOM     35  CD2 LEU C  12      -1.291   3.951  36.064  0.76 25.10 LIG 0.01  C 
ENDBRANCH 32 33
ENDBRANCH 1 32
BRANCH 1 36
ATOM     36  C   LEU C  12       0.906   5.603  32.523  0.76 25.30 LIG 0.24  C 
ATOM     37 O    LEU C  12       1.182   5.172  31.399  0.76 25.87 LIG-0.27  OA
ATOM     38  N   VAL C  13       1.413   6.738  33.002  0.76 25.62 LIG-0.35  N 
ATOM     39 H    VAL C  13       1.253   7.048  33.788  0.76 25.62 LIG 0.16  HD
BRANCH 38 40
ATOM     40  CA  VAL C  13       2.307   7.560  32.189  0.76 24.99 LIG 0.18  C 
BRANCH 40 41
ATOM     41  CB  VAL C  13       1.685   8.949  31.899  0.76 27.65 LIG 0.01  C 
ATOM     42  CG1 VAL C  13       0.400   8.790  31.094  0.76 28.12 LIG 0.01  C 
ATOM     43  CG2 VAL C  13       1.402   9.674  33.201  0.76 27.69 LIG 0.01  C 
ENDBRANCH 40 41
BRANCH 40 44
ATOM     44  C   VAL C  13       3.692   7.782  32.788  0.76 25.58 LIG 0.24  C 
ATOM     45  N   LEU C  14       4.646   8.085  31.919  0.76 25.74 LIG-0.35  N 
ATOM     46 H    LEU C  14       4.520   8.157  31.072  0.76 25.74 LIG 0.16  HD
ATOM     47 O    VAL C  13       3.896   7.693  33.999  0.76 23.74 LIG-0.27  OA
BRANCH 45 48
ATOM     48  CA  LEU C  14       6.019   8.324  32.344  0.76 27.54 LIG 0.18  C 
BRANCH 48 49
ATOM     49  CB  LEU C  14       6.959   8.307  31.134  0.76 27.94 LIG 0.04  C 
BRANCH 49 50
ATOM     50  CG  LEU C  14       7.067   6.997  30.355  0.76 29.52 LIG-0.02  C 
ATOM     51  CD2 LEU C  14       7.681   5.920  31.246  0.76 29.01 LIG 0.01  C 
ATOM     52  CD1 LEU C  14       7.903   7.224  29.108  0.76 31.53 LIG 0.01  C 
ENDBRANCH 49 50
ENDBRANCH 48 49
BRANCH 48 53
ATOM     53  C   LEU C  14       6.190   9.654  33.062  0.76 27.94 LIG 0.24  C 
ATOM     54  N   GLY C  15       7.185   9.710  33.938  0.76 27.74 LIG-0.35  N 
ATOM     55 H    GLY C  15       7.699   9.048  34.136  0.76 27.74 LIG 0.16  HD
ATOM     56 O    LEU C  14       5.436  10.607  32.834  0.76 29.25 LIG-0.27  OA
BRANCH 54 57
ATOM     57  CA  GLY C  15       7.475  10.944  34.643  0.76 32.19 LIG 0.23  C 
BRANCH 57 58
ATOM     58  C   GLY C  15       8.502  11.691  33.807  0.76 34.72 LIG 0.24  C 
ATOM     59  N   LEU C  16       8.022  12.408  32.796  0.76 34.76 LIG-0.34  N 
ATOM     60 H    LEU C  16       7.184  12.475  32.618  0.76 34.76 LIG 0.16  HD
ATOM     61 O    GLY C  15       9.704  11.612  34.064  0.76 36.88 LIG-0.27  OA
BRANCH 59 62
ATOM     62  CA  LEU C  16       8.885  13.154  31.886  0.76 35.63 LIG 0.18  C 
BRANCH 62 63
ATOM     63  CB  LEU C  16       8.121  13.466  30.599  0.76 32.88 LIG 0.04  C 
BRANCH 63 64
ATOM     64  CG  LEU C  16       7.691  12.220  29.821  0.76 27.62 LIG-0.02  C 
ATOM     65  CD1 LEU C  16       6.807  12.610  28.647  0.76 29.42 LIG 0.01  C 
ATOM     66  CD2 LEU C  16       8.926  11.472  29.348  0.76 30.85 LIG 0.01  C 
ENDBRANCH 63 64
ENDBRANCH 62 63
BRANCH 62 67
ATOM     67  C   LEU C  16       9.451  14.437  32.480  0.76 36.84 LIG 0.20  C 
ATOM     68 O    LEU C  16      10.300  15.068  31.808  0.76 37.63 LIG-0.65  OA
ATOM     69 OXT  LEU C  16       9.040  14.796  33.604  0.76 38.60 LIG-0.65  OA
ENDBRANCH 62 67
ENDBRANCH 59 62
ENDBRANCH 57 58
ENDBRANCH 54 57
ENDBRANCH 48 53
ENDBRANCH 45 48
ENDBRANCH 40 44
ENDBRANCH 38 40
ENDBRANCH 1 36
TORSDOF 27
