USER: ADFR SOLUTION from run 0
USER: SCORE 23.164294 LL:  -3.176 LR: -23.211 RR:   0.000 FEB: -16.350
USER: RMSD 0.441332
USER: STATUS Locally minimized using BFGS
USER: GENES 25
USER: genes 0 Translation |==|  0.62088 0.58285 0.52322
USER: genes 1 Rotation |==|  0.50900 0.50145 0.49244 0.99986
USER: genes 2 Torsion [C]-CA--CB-[CG] |==|  0.50858
USER: genes 3 Torsion [CA]-CB--CG-[CD] |==|  0.57168
USER: genes 4 Torsion [CB]-CG--CD-[CE] |==|  0.40137
USER: genes 5 Torsion [CG]-CD--CE-[NZ] |==|  0.18695
USER: genes 6 Torsion [CD]-CE--NZ-[HZ2] |==|  0.74512
USER: genes 7 Torsion [N]-CA--C-[N] |==|  0.33485
USER: genes 8 Torsion [C]-N--CA-[CB] |==|  0.40356
USER: genes 9 Torsion [N]-CA--CB-[CG] |==|  0.54288
USER: genes 10 Torsion [CA]-CB--CG-[CD] |==|  0.57243
USER: genes 11 Torsion [CB]-CG--CD-[CE] |==|  0.48726
USER: genes 12 Torsion [CG]-CD--CE-[NZ] |==|  0.77820
USER: genes 13 Torsion [CD]-CE--NZ-[HZ1] |==|  0.44533
USER: genes 14 Torsion [N]-CA--C-[N] |==|  0.32926
USER: genes 15 Torsion [C]-N--CA-[CB] |==|  0.47538
USER: genes 16 Torsion [N]-CA--C-[OXT] |==|  0.90143
USER: genes 17 Torsion [CB]-CA--N-[C] |==|  0.43720
USER: genes 18 Torsion [N]-C--CA-[N] |==|  0.38555
USER: genes 19 Torsion [C]-CA--CB-[CG] |==|  0.77675
USER: genes 20 Torsion [CA]-CB--CG-[CD] |==|  0.52884
USER: genes 21 Torsion [CB]-CG--CD-[CE] |==|  0.23003
USER: genes 22 Torsion [CG]-CD--CE-[NZ] |==|  0.14895
USER: genes 23 Torsion [CD]-CE--NZ-[HZ1] |==|  0.49572
USER: genes 24 Torsion [C]-CA--N-[H3] |==|  0.10995
ROOT
ATOM      1  CA  LYS B   2       4.018  20.742  16.247  1.00  9.55 LIG 0.18  C 
ENDROOT
BRANCH 1 2
ATOM      2  CB  LYS B   2       4.475  22.166  16.741  1.00  7.13 LIG 0.04  C 
BRANCH 2 3
ATOM      3  CG  LYS B   2       5.765  22.008  17.559  1.00  9.06 LIG 0.00  C 
BRANCH 3 4
ATOM      4  CD  LYS B   2       6.141  22.975  18.587  1.00 20.34 LIG 0.03  C 
BRANCH 4 5
ATOM      5  CE  LYS B   2       6.852  22.465  19.859  1.00 19.41 LIG 0.23  C 
BRANCH 5 6
ATOM      6  NZ  LYS B   2       8.211  21.944  19.590  1.00 27.89 LIG-0.08  N 
ATOM      7 HZ2  LYS B   2       8.167  21.069  19.433  1.00 27.89 LIG 0.27  HD
ATOM      8 HZ3  LYS B   2       8.552  22.356  18.879  1.00 27.89 LIG 0.27  HD
ATOM      9 HZ1  LYS B   2       8.730  22.093  20.297  1.00 27.89 LIG 0.27  HD
ENDBRANCH 5 6
ENDBRANCH 4 5
ENDBRANCH 3 4
ENDBRANCH 2 3
ENDBRANCH 1 2
BRANCH 1 10
ATOM     10  C   LYS B   2       2.792  20.797  15.367  1.00  8.95 LIG 0.24  C 
ATOM     11 O    LYS B   2       2.775  21.310  14.233  1.00  5.49 LIG-0.27  OA
ATOM     12  N   LYS B   3       1.662  20.175  15.824  1.00  9.84 LIG-0.35  N 
ATOM     13 H    LYS B   3       1.597  19.805  16.598  1.00  9.84 LIG 0.16  HD
BRANCH 12 14
ATOM     14  CA  LYS B   3       0.486  20.091  15.033  1.00  6.67 LIG 0.18  C 
BRANCH 14 15
ATOM     15  CB  LYS B   3      -0.305  18.728  15.260  1.00  5.08 LIG 0.04  C 
BRANCH 15 16
ATOM     16  CG  LYS B   3      -1.268  18.727  14.016  1.00 11.87 LIG 0.00  C 
BRANCH 16 17
ATOM     17  CD  LYS B   3      -2.490  17.941  14.296  1.00 16.50 LIG 0.03  C 
BRANCH 17 18
ATOM     18  CE  LYS B   3      -3.484  18.021  13.144  1.00 11.29 LIG 0.23  C 
BRANCH 18 19
ATOM     19  NZ  LYS B   3      -4.260  19.282  13.174  1.00 14.74 LIG-0.08  N 
ATOM     20 HZ1  LYS B   3      -4.608  19.435  12.369  1.00 14.74 LIG 0.27  HD
ATOM     21 HZ2  LYS B   3      -4.915  19.213  13.773  1.00 14.74 LIG 0.27  HD
ATOM     22 HZ3  LYS B   3      -3.723  19.955  13.398  1.00 14.74 LIG 0.27  HD
ENDBRANCH 18 19
ENDBRANCH 17 18
ENDBRANCH 16 17
ENDBRANCH 15 16
ENDBRANCH 14 15
BRANCH 14 23
ATOM     23  C   LYS B   3      -0.525  21.184  15.398  1.00 11.62 LIG 0.24  C 
ATOM     24  N   ALA B   4      -0.818  22.023  14.417  1.00 11.21 LIG-0.34  N 
ATOM     25 H    ALA B   4      -0.451  22.015  13.639  1.00 11.21 LIG 0.16  HD
ATOM     26 O    LYS B   3      -1.035  21.213  16.536  1.00  6.98 LIG-0.27  OA
BRANCH 24 27
ATOM     27  CA  ALA B   4      -1.847  23.069  14.619  1.00 15.60 LIG 0.18  C 
ATOM     28  CB  ALA B   4      -1.865  24.051  13.442  1.00  9.87 LIG 0.04  C 
BRANCH 27 29
ATOM     29  C   ALA B   4      -3.242  22.392  14.724  1.00 11.70 LIG 0.20  C 
ATOM     30 OXT  ALA B   4      -3.367  21.398  13.992  1.00 11.31 LIG-0.65  OA
ATOM     31 O    ALA B   4      -4.146  22.879  15.435  1.00 13.41 LIG-0.65  OA
ENDBRANCH 27 29
ENDBRANCH 24 27
ENDBRANCH 14 23
ENDBRANCH 12 14
ENDBRANCH 1 10
BRANCH 1 32
ATOM     32  N   LYS B   2       5.134  20.092  15.546  1.00  9.26 LIG-0.35  N 
ATOM     33 H    LYS B   2       5.709  20.657  15.246  1.00  9.26 LIG 0.16  HD
ATOM     34  C   LYS B   1       5.278  18.796  15.372  1.00  9.39 LIG 0.25  C 
ATOM     35 O    LYS B   1       4.508  17.956  15.889  1.00 10.41 LIG-0.27  OA
BRANCH 34 36
ATOM     36  CA  LYS B   1       6.462  18.273  14.565  1.00 10.02 LIG 0.27  C 
BRANCH 36 37
ATOM     37  CB  LYS B   1       6.071  17.961  13.097  1.00  9.48 LIG 0.04  C 
BRANCH 37 38
ATOM     38  CG  LYS B   1       5.377  16.640  12.867  1.00 17.99 LIG 0.00  C 
BRANCH 38 39
ATOM     39  CD  LYS B   1       5.234  16.258  11.386  1.00 11.58 LIG 0.03  C 
BRANCH 39 40
ATOM     40  CE  LYS B   1       6.498  15.601  10.818  1.00 12.42 LIG 0.23  C 
BRANCH 40 41
ATOM     41  NZ  LYS B   1       6.868  14.456  11.686  1.00 15.26 LIG-0.08  N 
ATOM     42 HZ1  LYS B   1       7.588  14.053  11.354  1.00 15.26 LIG 0.27  HD
ATOM     43 HZ2  LYS B   1       7.046  14.751  12.507  1.00 15.26 LIG 0.27  HD
ATOM     44 HZ3  LYS B   1       6.193  13.878  11.718  1.00 15.26 LIG 0.27  HD
ENDBRANCH 40 41
ENDBRANCH 39 40
ENDBRANCH 38 39
ENDBRANCH 37 38
ENDBRANCH 36 37
BRANCH 36 45
ATOM     45  N   LYS B   1       7.010  17.068  15.242  1.00  7.61 LIG-0.07  N 
ATOM     46 H1   LYS B   1       7.485  16.590  14.660  1.00  7.61 LIG 0.28  HD
ATOM     47 H3   LYS B   1       6.340  16.573  15.554  1.00  7.61 LIG 0.28  HD
ATOM     48 H2   LYS B   1       7.533  17.318  15.917  1.00  7.61 LIG 0.28  HD
ENDBRANCH 36 45
ENDBRANCH 34 36
ENDBRANCH 1 32
TORSDOF 23
