USER: ADFR SOLUTION from run 0
USER: SCORE 10.989470 LL:  -2.370 LR:  -8.757 RR:   0.000 FEB:  -5.774
USER: RMSD 1.487441
USER: STATUS Locally minimized using BFGS
USER: GENES 12
USER: genes 0 Translation |==|  0.46337 0.49991 0.55387
USER: genes 1 Rotation |==|  0.44103 0.45600 0.56146 0.99072
USER: genes 2 Torsion [C]-CA--N-[C] |==|  0.73628
USER: genes 3 Torsion [N]-C--CA-[N] |==|  0.23160
USER: genes 4 Torsion [C]-CA--N-[H2] |==|  0.82099
USER: genes 5 Torsion [N]-CA--C-[N] |==|  0.32511
USER: genes 6 Torsion [C]-N--CA-[CB] |==|  0.31131
USER: genes 7 Torsion [N]-CA--CB-[CG] |==|  0.89622
USER: genes 8 Torsion [CA]-CB--CG-[CD2] |==|  0.75805
USER: genes 9 Torsion [N]-CA--C-[OXT] |==|  0.54929
USER: genes 10 Torsion [N]-CA--CB-[CG2] |==|  0.42891
USER: genes 11 Torsion [CA]-CB--CG1-[CD1] |==|  0.59552
ROOT
ATOM      1  CA  ILE B   2      75.553  46.559  17.698  1.00 64.17 LIG 0.18  C 
ENDROOT
BRANCH 1 2
ATOM      2  N   ILE B   2      74.781  47.101  16.587  1.00 64.56 LIG-0.35  N 
ATOM      3  C   ALA B   1      75.248  47.096  15.341  1.00 64.53 LIG 0.25  C 
ATOM      4 O    ALA B   1      76.348  46.630  15.040  1.00 64.21 LIG-0.27  OA
ATOM      5 H    ILE B   2      74.013  47.417  16.809  1.00 64.56 LIG 0.16  HD
BRANCH 3 6
ATOM      6  CA  ALA B   1      74.331  47.702  14.278  1.00 64.34 LIG 0.27  C 
ATOM      7  CB  ALA B   1      74.640  47.096  12.913  1.00 65.15 LIG 0.05  C 
BRANCH 6 8
ATOM      8  N   ALA B   1      74.465  49.186  14.216  1.00 63.44 LIG-0.07  N 
ATOM      9 H2   ALA B   1      74.188  49.541  14.984  1.00 63.44 LIG 0.28  HD
ATOM     10 H3   ALA B   1      75.318  49.402  14.081  1.00 63.44 LIG 0.28  HD
ATOM     11 H1   ALA B   1      73.970  49.501  13.547  1.00 63.44 LIG 0.28  HD
ENDBRANCH 6 8
ENDBRANCH 3 6
ENDBRANCH 1 2
BRANCH 1 12
ATOM     12  C   ILE B   2      75.173  45.110  17.987  1.00 63.93 LIG 0.24  C 
ATOM     13  N   HIS B   3      76.134  44.208  17.823  1.00 63.34 LIG-0.34  N 
ATOM     14 H    HIS B   3      76.934  44.396  17.568  1.00 63.34 LIG 0.16  HD
ATOM     15 O    ILE B   2      74.033  44.817  18.354  1.00 63.64 LIG-0.27  OA
BRANCH 13 16
ATOM     16  CA  HIS B   3      75.892  42.793  18.071  1.00 63.18 LIG 0.19  C 
BRANCH 16 17
ATOM     17  CB  HIS B   3      75.947  42.007  16.759  1.00 62.24 LIG 0.10  C 
BRANCH 17 18
ATOM     18  CG  HIS B   3      75.361  42.736  15.589  1.00 63.21 LIG 0.06  A 
ATOM     19  CD2 HIS B   3      74.090  42.806  15.126  1.00 62.69 LIG 0.14  A 
ATOM     20 NE2  HIS B   3      74.106  43.616  14.017  1.00 63.05 LIG-0.25  NA
ATOM     21  CE1 HIS B   3      75.343  44.030  13.805  1.00 63.79 LIG 0.23  A 
ATOM     22 ND1  HIS B   3      76.120  43.514  14.740  1.00 63.44 LIG-0.24  NA
ENDBRANCH 17 18
ENDBRANCH 16 17
BRANCH 16 23
ATOM     23  C   HIS B   3      76.934  42.249  19.040  1.00 63.55 LIG 0.20  C 
ATOM     24 OXT  HIS B   3      77.090  41.014  19.105  1.00 62.89 LIG-0.65  OA
ATOM     25 O    HIS B   3      77.587  43.069  19.722  1.00 64.85 LIG-0.65  OA
ENDBRANCH 16 23
ENDBRANCH 13 16
ENDBRANCH 1 12
BRANCH 1 26
ATOM     26  CB  ILE B   2      75.337  47.390  18.979  1.00 64.73 LIG 0.01  C 
ATOM     27  CG2 ILE B   2      75.589  46.527  20.212  1.00 64.62 LIG 0.01  C 
BRANCH 26 28
ATOM     28  CG1 ILE B   2      76.267  48.605  18.967  1.00 64.82 LIG 0.00  C 
ATOM     29  CD1 ILE B   2      76.774  49.006  20.334  1.00 66.82 LIG 0.01  C 
ENDBRANCH 26 28
ENDBRANCH 1 26
TORSDOF 10
