USER: ADFR SOLUTION from run 0
USER: SCORE 18.615681 LL:  -6.342 LR: -15.516 RR:   0.000 FEB:  -9.251
USER: RMSD 0.525404
USER: STATUS Locally minimized using BFGS
USER: GENES 23
USER: genes 0 Translation |==|  0.43117 0.35200 0.61260
USER: genes 1 Rotation |==|  0.51352 0.49484 0.51984 0.99940
USER: genes 2 Torsion [C]-CA--CB-[CG] |==|  0.50314
USER: genes 3 Torsion [CA]-CB--CG-[CD1] |==|  0.21921
USER: genes 4 Torsion [N]-CA--C-[N] |==|  0.93866
USER: genes 5 Torsion [C]-N--CA-[CB] |==|  0.28989
USER: genes 6 Torsion [N]-CA--CB-[CG] |==|  0.49059
USER: genes 7 Torsion [CA]-CB--CG-[CD1] |==|  0.81070
USER: genes 8 Torsion [CE2]-CZ--OH-[HH] |==|  0.00101
USER: genes 9 Torsion [N]-CA--C-[N] |==|  0.36157
USER: genes 10 Torsion [C]-N--CA-[C] |==|  0.67222
USER: genes 11 Torsion [N]-CA--CB-[CG1] |==|  0.81215
USER: genes 12 Torsion [CA]-CB--CG1-[CD1] |==|  0.83679
USER: genes 13 Torsion [N]-CA--C-[N] |==|  0.33176
USER: genes 14 Torsion [N]-CA--C-[O] |==|  0.79001
USER: genes 15 Torsion [CB]-CA--N-[C] |==|  0.42893
USER: genes 16 Torsion [N]-C--CA-[N] |==|  0.32465
USER: genes 17 Torsion [C]-CA--N-[C] |==|  0.73347
USER: genes 18 Torsion [N]-C--CA-[N] |==|  0.36211
USER: genes 19 Torsion [C]-CA--CB-[CG1] |==|  0.13905
USER: genes 20 Torsion [C]-CA--N-[C] |==|  0.69367
USER: genes 21 Torsion [N]-C--CA-[N] |==|  0.47494
USER: genes 22 Torsion [C]-CA--N-[H3] |==|  0.18781
ROOT
ATOM      1  CA  PHE B   4      51.889  23.810  -1.151  1.00 44.68 LIG 0.18  C 
ENDROOT
BRANCH 1 2
ATOM      2  CB  PHE B   4      50.822  23.728  -0.055  1.00 43.52 LIG 0.07  C 
BRANCH 2 3
ATOM      3  CG  PHE B   4      51.396  23.662   1.329  1.00 43.42 LIG-0.06  A 
ATOM      4  CD2 PHE B   4      51.523  22.441   1.984  1.00 43.71 LIG 0.01  A 
ATOM      5  CE2 PHE B   4      52.107  22.366   3.251  1.00 44.42 LIG 0.00  A 
ATOM      6  CZ  PHE B   4      52.566  23.528   3.871  1.00 44.23 LIG 0.00  A 
ATOM      7  CE1 PHE B   4      52.440  24.752   3.224  1.00 42.62 LIG 0.00  A 
ATOM      8  CD1 PHE B   4      51.857  24.813   1.960  1.00 43.35 LIG 0.01  A 
ENDBRANCH 2 3
ENDBRANCH 1 2
BRANCH 1 9
ATOM      9  C   PHE B   4      51.252  23.903  -2.531  1.00 47.70 LIG 0.24  C 
ATOM     10 O    PHE B   4      50.834  22.895  -3.100  1.00 47.98 LIG-0.27  OA
ATOM     11  N   TYR B   5      51.197  25.119  -3.063  1.00 50.93 LIG-0.35  N 
ATOM     12 H    TYR B   5      51.480  25.824  -2.662  1.00 50.93 LIG 0.16  HD
BRANCH 11 13
ATOM     13  CA  TYR B   5      50.644  25.374  -4.390  1.00 53.91 LIG 0.18  C 
BRANCH 13 14
ATOM     14  CB  TYR B   5      49.251  26.002  -4.295  1.00 56.99 LIG 0.07  C 
BRANCH 14 15
ATOM     15  CG  TYR B   5      48.649  26.370  -5.641  1.00 60.80 LIG-0.06  A 
ATOM     16  CD2 TYR B   5      47.550  25.677  -6.147  1.00 62.97 LIG 0.01  A 
ATOM     17  CE2 TYR B   5      47.006  25.999  -7.393  1.00 63.70 LIG 0.04  A 
ATOM     18  CZ  TYR B   5      47.568  27.025  -8.141  1.00 64.21 LIG 0.07  A 
ATOM     19  CE1 TYR B   5      48.657  27.729  -7.657  1.00 63.24 LIG 0.04  A 
ATOM     20  CD1 TYR B   5      49.188  27.401  -6.416  1.00 61.93 LIG 0.01  A 
BRANCH 18 21
ATOM     21 OH   TYR B   5      47.052  27.337  -9.378  1.00 64.43 LIG-0.36  OA
ATOM     22 HH   TYR B   5      46.402  26.832  -9.546  1.00 64.43 LIG 0.22  HD
ENDBRANCH 18 21
ENDBRANCH 14 15
ENDBRANCH 13 14
BRANCH 13 23
ATOM     23  C   TYR B   5      51.573  26.326  -5.128  1.00 54.78 LIG 0.24  C 
ATOM     24  N   ILE B   6      51.933  25.965  -6.356  1.00 56.06 LIG-0.35  N 
ATOM     25 H    ILE B   6      51.676  25.238  -6.737  1.00 56.06 LIG 0.16  HD
ATOM     26 O    TYR B   5      51.949  27.370  -4.596  1.00 54.12 LIG-0.27  OA
BRANCH 24 27
ATOM     27  CA  ILE B   6      52.815  26.792  -7.172  1.00 57.79 LIG 0.18  C 
BRANCH 27 28
ATOM     28  CB  ILE B   6      54.103  26.022  -7.555  1.00 57.25 LIG 0.01  C 
ATOM     29  CG2 ILE B   6      54.910  26.811  -8.570  1.00 56.12 LIG 0.01  C 
BRANCH 28 30
ATOM     30  CG1 ILE B   6      54.948  25.780  -6.303  1.00 57.80 LIG 0.00  C 
ATOM     31  CD1 ILE B   6      55.344  27.056  -5.597  1.00 58.80 LIG 0.01  C 
ENDBRANCH 28 30
ENDBRANCH 27 28
BRANCH 27 32
ATOM     32  C   ILE B   6      52.105  27.253  -8.443  1.00 59.33 LIG 0.24  C 
ATOM     33 O    ILE B   6      51.674  26.435  -9.262  1.00 59.66 LIG-0.27  OA
ATOM     34  N   PRO B   7      51.968  28.577  -8.619  1.00 60.44 LIG-0.34  N 
ATOM     35  CA  PRO B   7      51.310  29.167  -9.787  1.00 61.29 LIG 0.17  C 
ATOM     36  CD  PRO B   7      52.412  29.630  -7.688  1.00 60.37 LIG 0.13  C 
ATOM     37  CB  PRO B   7      51.621  30.651  -9.635  1.00 61.79 LIG 0.04  C 
ATOM     38  CG  PRO B   7      51.614  30.827  -8.154  1.00 60.72 LIG 0.02  C 
BRANCH 35 39
ATOM     39  C   PRO B   7      51.818  28.602 -11.113  1.00 62.02 LIG 0.22  C 
ATOM     40 O    PRO B   7      52.909  28.941 -11.564  1.00 61.64 LIG-0.29  OA
ENDBRANCH 35 39
ENDBRANCH 27 32
ENDBRANCH 24 27
ENDBRANCH 13 23
ENDBRANCH 11 13
ENDBRANCH 1 9
BRANCH 1 41
ATOM     41  N   PHE B   4      52.758  24.950  -0.911  1.00 40.22 LIG-0.35  N 
ATOM     42 H    PHE B   4      52.398  25.586  -0.458  1.00 40.22 LIG 0.16  HD
ATOM     43  C   ALA B   3      54.003  24.974  -1.369  1.00 36.80 LIG 0.24  C 
ATOM     44 O    ALA B   3      54.497  24.045  -2.004  1.00 35.05 LIG-0.27  OA
BRANCH 43 45
ATOM     45  CA  ALA B   3      54.816  26.223  -1.058  1.00 35.42 LIG 0.17  C 
ATOM     46  CB  ALA B   3      55.311  26.855  -2.346  1.00 34.55 LIG 0.04  C 
BRANCH 45 47
ATOM     47  N   ALA B   3      55.941  25.829  -0.222  1.00 34.22 LIG-0.35  N 
ATOM     48  C   VAL B   2      55.879  25.933   1.100  1.00 33.55 LIG 0.24  C 
ATOM     49 O    VAL B   2      54.895  26.382   1.687  1.00 34.35 LIG-0.27  OA
ATOM     50 H    ALA B   3      56.623  25.534  -0.654  1.00 34.22 LIG 0.16  HD
BRANCH 48 51
ATOM     51  CA  VAL B   2      57.108  25.464   1.874  1.00 33.22 LIG 0.18  C 
BRANCH 51 52
ATOM     52  CB  VAL B   2      56.770  24.126   2.575  1.00 32.52 LIG 0.01  C 
ATOM     53  CG1 VAL B   2      56.154  23.146   1.584  1.00 33.02 LIG 0.01  C 
ATOM     54  CG2 VAL B   2      58.031  23.533   3.188  1.00 33.85 LIG 0.01  C 
ENDBRANCH 51 52
BRANCH 51 55
ATOM     55  N   VAL B   2      57.547  26.458   2.847  1.00 33.13 LIG-0.35  N 
ATOM     56 H    VAL B   2      57.014  26.558   3.515  1.00 33.13 LIG 0.16  HD
ATOM     57  C   ALA B   1      58.677  27.139   2.696  1.00 33.26 LIG 0.25  C 
ATOM     58 O    ALA B   1      59.422  27.000   1.730  1.00 33.25 LIG-0.27  OA
BRANCH 57 59
ATOM     59  CA  ALA B   1      59.019  28.136   3.795  1.00 31.51 LIG 0.27  C 
ATOM     60  CB  ALA B   1      58.038  29.306   3.774  1.00 29.23 LIG 0.05  C 
BRANCH 59 61
ATOM     61  N   ALA B   1      60.374  28.613   3.562  1.00 32.32 LIG-0.07  N 
ATOM     62 H3   ALA B   1      60.393  29.101   2.819  1.00 32.32 LIG 0.28  HD
ATOM     63 H2   ALA B   1      60.923  27.918   3.474  1.00 32.32 LIG 0.28  HD
ATOM     64 H1   ALA B   1      60.636  29.112   4.251  1.00 32.32 LIG 0.28  HD
ENDBRANCH 59 61
ENDBRANCH 57 59
ENDBRANCH 51 55
ENDBRANCH 48 51
ENDBRANCH 45 47
ENDBRANCH 43 45
ENDBRANCH 1 41
TORSDOF 21
