USER: ADFR SOLUTION from run 0
USER: SCORE 17.507406 LL:  -6.325 LR: -14.308 RR:   0.000 FEB:  -7.745
USER: RMSD 0.160885
USER: STATUS Locally minimized using BFGS
USER: GENES 24
USER: genes 0 Translation |==|  0.37725 0.36144 0.59104
USER: genes 1 Rotation |==|  0.50348 0.50027 0.50459 0.99997
USER: genes 2 Torsion [C]-CA--CB-[CG] |==|  0.45130
USER: genes 3 Torsion [CA]-CB--CG-[CD2] |==|  0.71565
USER: genes 4 Torsion [CE2]-CZ--OH-[HH] |==|  0.49530
USER: genes 5 Torsion [N]-CA--C-[N] |==|  0.95734
USER: genes 6 Torsion [C]-N--CA-[CB] |==|  0.21793
USER: genes 7 Torsion [N]-CA--C-[N] |==|  0.34904
USER: genes 8 Torsion [C]-N--CA-[C] |==|  0.68413
USER: genes 9 Torsion [N]-CA--CB-[CG2] |==|  0.51509
USER: genes 10 Torsion [CA]-CB--CG1-[CD1] |==|  0.49080
USER: genes 11 Torsion [N]-CA--C-[N] |==|  0.35210
USER: genes 12 Torsion [N]-CA--C-[O] |==|  0.72264
USER: genes 13 Torsion [N]-CA--CB-[CG] |==|  0.48469
USER: genes 14 Torsion [CA]-CB--CG-[CD2] |==|  0.25579
USER: genes 15 Torsion [CB]-CA--N-[C] |==|  0.44766
USER: genes 16 Torsion [N]-C--CA-[N] |==|  0.30144
USER: genes 17 Torsion [C]-CA--N-[C] |==|  0.75156
USER: genes 18 Torsion [N]-C--CA-[N] |==|  0.37609
USER: genes 19 Torsion [C]-CA--CB-[CG2] |==|  0.10873
USER: genes 20 Torsion [CA]-CB--CG1-[CD1] |==|  0.16905
USER: genes 21 Torsion [C]-CA--N-[C] |==|  0.67552
USER: genes 22 Torsion [N]-C--CA-[N] |==|  0.47764
USER: genes 23 Torsion [C]-CA--N-[H3] |==|  0.19710
ROOT
ATOM      1  CA  TYR B   4      51.808  23.822  -0.232  1.00 23.69 LIG 0.18  C 
ENDROOT
BRANCH 1 2
ATOM      2  CB  TYR B   4      50.738  23.983   0.846  1.00 21.78 LIG 0.07  C 
BRANCH 2 3
ATOM      3  CG  TYR B   4      51.232  23.574   2.218  1.00 24.88 LIG-0.06  A 
ATOM      4  CD2 TYR B   4      50.870  22.343   2.763  1.00 24.05 LIG 0.01  A 
ATOM      5  CE2 TYR B   4      51.349  21.932   4.004  1.00 20.83 LIG 0.04  A 
ATOM      6  CZ  TYR B   4      52.201  22.756   4.716  1.00 22.15 LIG 0.07  A 
ATOM      7  CE1 TYR B   4      52.578  23.993   4.202  1.00 19.14 LIG 0.04  A 
ATOM      8  CD1 TYR B   4      52.093  24.396   2.956  1.00 18.71 LIG 0.01  A 
BRANCH 6 9
ATOM      9 OH   TYR B   4      52.679  22.329   5.934  1.00 23.41 LIG-0.36  OA
ATOM     10 HH   TYR B   4      53.200  22.908   6.249  1.00 23.41 LIG 0.22  HD
ENDBRANCH 6 9
ENDBRANCH 2 3
ENDBRANCH 1 2
BRANCH 1 11
ATOM     11  C   TYR B   4      51.197  23.818  -1.632  1.00 26.86 LIG 0.24  C 
ATOM     12 O    TYR B   4      50.559  22.849  -2.042  1.00 26.35 LIG-0.27  OA
ATOM     13  N   PHE B   5      51.409  24.909  -2.361  1.00 27.52 LIG-0.35  N 
ATOM     14 H    PHE B   5      51.838  25.598  -2.075  1.00 27.52 LIG 0.16  HD
BRANCH 13 15
ATOM     15  CA  PHE B   5      50.925  25.035  -3.733  1.00 31.98 LIG 0.18  C 
BRANCH 15 16
ATOM     16  C   PHE B   5      51.700  26.099  -4.499  1.00 33.78 LIG 0.24  C 
ATOM     17  N   ILE B   6      52.249  25.709  -5.643  1.00 31.71 LIG-0.35  N 
ATOM     18 H    ILE B   6      52.189  24.910  -5.957  1.00 31.71 LIG 0.16  HD
ATOM     19 O    PHE B   5      51.801  27.247  -4.061  1.00 29.51 LIG-0.27  OA
BRANCH 17 20
ATOM     20  CA  ILE B   6      53.013  26.626  -6.477  1.00 36.87 LIG 0.18  C 
BRANCH 20 21
ATOM     21  CB  ILE B   6      54.415  26.060  -6.778  1.00 37.14 LIG 0.01  C 
ATOM     22  CG2 ILE B   6      55.239  27.089  -7.533  1.00 36.45 LIG 0.01  C 
BRANCH 21 23
ATOM     23  CG1 ILE B   6      55.116  25.689  -5.468  1.00 37.87 LIG 0.00  C 
ATOM     24  CD1 ILE B   6      56.473  25.049  -5.652  1.00 36.09 LIG 0.01  C 
ENDBRANCH 21 23
ENDBRANCH 20 21
BRANCH 20 25
ATOM     25  C   ILE B   6      52.266  26.851  -7.792  1.00 41.32 LIG 0.24  C 
ATOM     26 O    ILE B   6      51.905  25.895  -8.480  1.00 41.04 LIG-0.27  OA
ATOM     27  N   PRO B   7      52.020  28.123  -8.151  1.00 42.91 LIG-0.34  N 
ATOM     28  CA  PRO B   7      51.311  28.467  -9.388  1.00 43.88 LIG 0.17  C 
ATOM     29  CD  PRO B   7      52.442  29.342  -7.436  1.00 40.67 LIG 0.13  C 
ATOM     30  CB  PRO B   7      51.597  29.958  -9.537  1.00 44.00 LIG 0.04  C 
ATOM     31  CG  PRO B   7      51.621  30.421  -8.116  1.00 40.06 LIG 0.02  C 
BRANCH 28 32
ATOM     32  C   PRO B   7      51.782  27.659 -10.595  1.00 46.53 LIG 0.22  C 
ATOM     33 O    PRO B   7      52.573  28.138 -11.408  1.00 48.18 LIG-0.29  OA
ENDBRANCH 28 32
ENDBRANCH 20 25
ENDBRANCH 17 20
ENDBRANCH 15 16
BRANCH 15 34
ATOM     34  CB  PHE B   5      49.433  25.368  -3.770  1.00 34.18 LIG 0.07  C 
BRANCH 34 35
ATOM     35  CG  PHE B   5      48.912  25.638  -5.156  1.00 39.37 LIG-0.06  A 
ATOM     36  CD2 PHE B   5      48.369  24.610  -5.924  1.00 41.89 LIG 0.01  A 
ATOM     37  CE2 PHE B   5      47.917  24.850  -7.224  1.00 44.83 LIG 0.00  A 
ATOM     38  CZ  PHE B   5      48.006  26.130  -7.767  1.00 42.42 LIG 0.00  A 
ATOM     39  CE1 PHE B   5      48.545  27.165  -7.008  1.00 44.61 LIG 0.00  A 
ATOM     40  CD1 PHE B   5      48.994  26.915  -5.709  1.00 43.39 LIG 0.01  A 
ENDBRANCH 34 35
ENDBRANCH 15 34
ENDBRANCH 13 15
ENDBRANCH 1 11
BRANCH 1 41
ATOM     41  N   TYR B   4      52.800  24.877  -0.120  1.00 19.41 LIG-0.35  N 
ATOM     42 H    TYR B   4      52.549  25.566   0.329  1.00 19.41 LIG 0.16  HD
ATOM     43  C   ALA B   3      53.991  24.738  -0.685  1.00 19.00 LIG 0.24  C 
ATOM     44 O    ALA B   3      54.321  23.720  -1.293  1.00 18.56 LIG-0.27  OA
BRANCH 43 45
ATOM     45  CA  ALA B   3      54.963  25.904  -0.525  1.00 21.06 LIG 0.17  C 
ATOM     46  CB  ALA B   3      55.553  26.282  -1.870  1.00 20.02 LIG 0.04  C 
BRANCH 45 47
ATOM     47  N   ALA B   3      56.019  25.506   0.392  1.00 19.71 LIG-0.35  N 
ATOM     48 H    ALA B   3      56.704  25.147   0.015  1.00 19.71 LIG 0.16  HD
ATOM     49  C   ILE B   2      55.904  25.697   1.699  1.00 19.11 LIG 0.24  C 
ATOM     50 O    ILE B   2      54.938  26.254   2.213  1.00 19.33 LIG-0.27  OA
BRANCH 49 51
ATOM     51  CA  ILE B   2      57.063  25.206   2.552  1.00 18.55 LIG 0.18  C 
BRANCH 51 52
ATOM     52  CB  ILE B   2      56.666  23.878   3.230  1.00 21.29 LIG 0.01  C 
ATOM     53  CG2 ILE B   2      55.861  23.010   2.264  1.00 18.18 LIG 0.01  C 
BRANCH 52 54
ATOM     54  CG1 ILE B   2      57.923  23.143   3.703  1.00 26.11 LIG 0.00  C 
ATOM     55  CD1 ILE B   2      58.749  23.906   4.724  1.00 36.60 LIG 0.01  C 
ENDBRANCH 52 54
ENDBRANCH 51 52
BRANCH 51 56
ATOM     56  N   ILE B   2      57.413  26.208   3.546  1.00 18.11 LIG-0.35  N 
ATOM     57 H    ILE B   2      56.791  26.375   4.114  1.00 18.11 LIG 0.16  HD
ATOM     58  C   ALA B   1      58.600  26.799   3.553  1.00 22.52 LIG 0.25  C 
ATOM     59 O    ALA B   1      59.485  26.541   2.739  1.00 25.87 LIG-0.27  OA
BRANCH 58 60
ATOM     60  CA  ALA B   1      58.822  27.833   4.647  1.00 19.14 LIG 0.27  C 
ATOM     61  CB  ALA B   1      57.908  29.033   4.416  1.00 16.49 LIG 0.05  C 
BRANCH 60 62
ATOM     62  N   ALA B   1      60.214  28.254   4.650  1.00 20.16 LIG-0.07  N 
ATOM     63 H3   ALA B   1      60.376  28.751   3.930  1.00 20.16 LIG 0.28  HD
ATOM     64 H2   ALA B   1      60.741  27.537   4.641  1.00 20.16 LIG 0.28  HD
ATOM     65 H1   ALA B   1      60.379  28.733   5.383  1.00 20.16 LIG 0.28  HD
ENDBRANCH 60 62
ENDBRANCH 58 60
ENDBRANCH 51 56
ENDBRANCH 49 51
ENDBRANCH 45 47
ENDBRANCH 43 45
ENDBRANCH 1 41
TORSDOF 22
