USER: ADFR SOLUTION from run 0
USER: SCORE 23.526173 LL:  -6.609 LR: -18.378 RR:   0.000 FEB: -11.816
USER: RMSD 1.207560
USER: STATUS Locally minimized using BFGS
USER: GENES 24
USER: genes 0 Translation |==|  0.53191 0.56094 0.44887
USER: genes 1 Rotation |==|  0.51316 0.52743 0.47451 0.99842
USER: genes 2 Torsion [N]-C--CA-[N] |==|  0.36215
USER: genes 3 Torsion [C]-CA--N-[C] |==|  0.83265
USER: genes 4 Torsion [N]-C--CA-[N] |==|  0.40614
USER: genes 5 Torsion [C]-CA--N-[C] |==|  0.79847
USER: genes 6 Torsion [N]-C--CA-[CB] |==|  0.77221
USER: genes 7 Torsion [C]-CA--CB-[CG] |==|  0.50008
USER: genes 8 Torsion [CA]-CB--CG-[CD] |==|  0.84169
USER: genes 9 Torsion [CB]-CG--CD-[OE1] |==|  0.88330
USER: genes 10 Torsion [C]-CA--CB-[CG] |==|  0.18573
USER: genes 11 Torsion [CA]-CB--CG-[CD2] |==|  0.73404
USER: genes 12 Torsion [C]-N--CA-[C] |==|  0.67955
USER: genes 13 Torsion [N]-CA--C-[N] |==|  0.00367
USER: genes 14 Torsion [C]-N--CA-[CB] |==|  0.39456
USER: genes 15 Torsion [N]-CA--CB-[CG] |==|  0.84829
USER: genes 16 Torsion [CA]-CB--CG-[CD1] |==|  0.48846
USER: genes 17 Torsion [N]-CA--C-[N] |==|  0.95000
USER: genes 18 Torsion [C]-N--CA-[C] |==|  0.67907
USER: genes 19 Torsion [N]-CA--C-[O] |==|  0.05592
USER: genes 20 Torsion [N]-CA--CB-[CG] |==|  0.84177
USER: genes 21 Torsion [CA]-CB--CG-[CD2] |==|  0.37608
USER: genes 22 Torsion [N]-CA--CB-[OG] |==|  0.16659
USER: genes 23 Torsion [CA]-CB--OG-[HG] |==|  0.50129
ROOT
ATOM      1  C   PHE C   3      -0.471  14.180  33.370  1.00 30.25 LIG 0.24  C 
ATOM      2 O    PHE C   3      -0.759  15.100  32.590  1.00 30.55 LIG-0.27  OA
ATOM      3  N   SER C   4       0.777  13.888  33.719  1.00 32.44 LIG-0.34  N 
ATOM      4 H    SER C   4       0.995  13.216  34.209  1.00 32.44 LIG 0.16  HD
ENDROOT
BRANCH 1 5
ATOM      5  CA  PHE C   3      -1.533  13.292  33.995  1.00 26.21 LIG 0.18  C 
BRANCH 5 6
ATOM      6  N   PHE C   3      -2.622  14.031  34.604  1.00 23.98 LIG-0.35  N 
ATOM      7  C   GLN C   2      -2.413  14.890  35.605  1.00 28.84 LIG 0.24  C 
ATOM      8 O    GLN C   2      -1.288  15.149  36.047  1.00 27.39 LIG-0.27  OA
ATOM      9 H    PHE C   3      -3.396  13.866  34.266  1.00 23.98 LIG 0.16  HD
BRANCH 7 10
ATOM     10  CA  GLN C   2      -3.639  15.537  36.225  1.00 27.21 LIG 0.18  C 
BRANCH 10 11
ATOM     11  N   GLN C   2      -3.357  15.722  37.636  1.00 25.94 LIG-0.35  N 
ATOM     12  C   PRO C   1      -3.331  14.674  38.461  1.00 31.50 LIG 0.25  C 
ATOM     13 O    PRO C   1      -3.550  13.498  38.088  1.00 24.91 LIG-0.27  OA
ATOM     14 H    GLN C   2      -3.215  16.535  37.875  1.00 25.94 LIG 0.16  HD
BRANCH 12 15
ATOM     15  CA  PRO C   1      -2.983  14.985  39.916  1.00 31.39 LIG 0.28  C 
ATOM     16  CB  PRO C   1      -1.465  15.087  40.052  1.00 32.27 LIG 0.04  C 
ATOM     17  CG  PRO C   1      -1.191  14.247  41.342  1.00 38.02 LIG 0.03  C 
ATOM     18  CD  PRO C   1      -2.268  13.145  41.309  1.00 35.89 LIG 0.23  C 
ATOM     19  N   PRO C   1      -3.439  13.894  40.813  1.00 34.60 LIG-0.06  N 
ATOM     20 H3   PRO C   1      -3.884  14.219  41.473  1.00 34.60 LIG 0.28  HD
ATOM     21 H2   PRO C   1      -3.970  13.365  40.389  1.00 34.60 LIG 0.28  HD
ENDBRANCH 12 15
ENDBRANCH 10 11
BRANCH 10 22
ATOM     22  CB  GLN C   2      -3.981  16.872  35.561  1.00 25.76 LIG 0.04  C 
BRANCH 22 23
ATOM     23  CG  GLN C   2      -5.224  17.559  36.169  1.00 26.20 LIG 0.10  C 
BRANCH 23 24
ATOM     24  CD  GLN C   2      -6.513  16.711  36.143  1.00 24.22 LIG 0.21  C 
ATOM     25 OE1  GLN C   2      -6.830  16.037  35.161  1.00 24.67 LIG-0.27  OA
ATOM     26  NE2 GLN C   2      -7.259  16.774  37.227  1.00 25.16 LIG-0.37  N 
ATOM     27 21HE GLN C   2      -7.008  17.254  37.895  1.00 25.16 LIG 0.16  HD
ATOM     28 22HE GLN C   2      -7.998  16.335  37.267  1.00 25.16 LIG 0.16  HD
ENDBRANCH 23 24
ENDBRANCH 22 23
ENDBRANCH 10 22
ENDBRANCH 7 10
ENDBRANCH 5 6
BRANCH 5 29
ATOM     29  CB  PHE C   3      -2.053  12.270  32.991  1.00 22.10 LIG 0.07  C 
BRANCH 29 30
ATOM     30  CG  PHE C   3      -1.017  11.248  32.587  1.00 24.32 LIG-0.06  A 
ATOM     31  CD1 PHE C   3      -0.758  10.159  33.393  1.00 23.20 LIG 0.01  A 
ATOM     32  CE1 PHE C   3       0.261   9.234  33.053  1.00 24.47 LIG 0.00  A 
ATOM     33  CZ  PHE C   3       1.008   9.427  31.888  1.00 21.29 LIG 0.00  A 
ATOM     34  CE2 PHE C   3       0.747  10.515  31.075  1.00 28.99 LIG 0.00  A 
ATOM     35  CD2 PHE C   3      -0.257  11.415  31.423  1.00 24.32 LIG 0.01  A 
ENDBRANCH 29 30
ENDBRANCH 5 29
ENDBRANCH 1 5
BRANCH 3 36
ATOM     36  CA  SER C   4       1.902  14.710  33.283  1.00 37.32 LIG 0.20  C 
BRANCH 36 37
ATOM     37  C   SER C   4       2.965  14.125  32.356  1.00 37.03 LIG 0.24  C 
ATOM     38 O    SER C   4       3.913  14.829  32.005  1.00 37.42 LIG-0.27  OA
ATOM     39  N   LEU C   5       2.829  12.876  31.939  1.00 32.57 LIG-0.35  N 
ATOM     40 H    LEU C   5       2.159  12.366  32.116  1.00 32.57 LIG 0.16  HD
BRANCH 39 41
ATOM     41  CA  LEU C   5       3.867  12.278  31.114  1.00 32.69 LIG 0.18  C 
BRANCH 41 42
ATOM     42  CB  LEU C   5       4.045  10.806  31.515  1.00 33.51 LIG 0.04  C 
BRANCH 42 43
ATOM     43  CG  LEU C   5       4.325  10.577  33.005  1.00 35.50 LIG-0.02  C 
ATOM     44  CD1 LEU C   5       4.378   9.076  33.287  1.00 40.78 LIG 0.01  C 
ATOM     45  CD2 LEU C   5       5.643  11.246  33.396  1.00 38.12 LIG 0.01  C 
ENDBRANCH 42 43
ENDBRANCH 41 42
BRANCH 41 46
ATOM     46  C   LEU C   5       3.785  12.369  29.594  1.00 34.97 LIG 0.24  C 
ATOM     47 O    LEU C   5       4.797  12.166  28.915  1.00 35.54 LIG-0.27  OA
ATOM     48  N   TRP C   6       2.612  12.664  29.036  1.00 34.54 LIG-0.35  N 
ATOM     49 H    TRP C   6       1.886  12.825  29.468  1.00 34.54 LIG 0.16  HD
BRANCH 48 50
ATOM     50  CA  TRP C   6       2.505  12.729  27.585  1.00 36.31 LIG 0.17  C 
BRANCH 50 51
ATOM     51  C   TRP C   6       2.167  14.139  27.105  1.00 42.43 LIG 0.22  C 
ATOM     52 O    TRP C   6       2.395  15.095  27.871  1.00 44.49 LIG-0.29  OA
ENDBRANCH 50 51
BRANCH 50 53
ATOM     53  CB  TRP C   6       1.437  11.743  27.095  1.00 37.13 LIG 0.07  C 
BRANCH 53 54
ATOM     54  CG  TRP C   6       1.719  10.342  27.530  1.00 35.61 LIG-0.03  A 
ATOM     55  CD2 TRP C   6       0.789   9.391  28.078  1.00 38.42 LIG-0.00  A 
ATOM     56  CE2 TRP C   6       1.519   8.221  28.384  1.00 38.54 LIG 0.04  A 
ATOM     57  CE3 TRP C   6      -0.590   9.415  28.343  1.00 40.05 LIG 0.01  A 
ATOM     58  CZ2 TRP C   6       0.917   7.075  28.949  1.00 36.38 LIG 0.03  A 
ATOM     59  NE1 TRP C   6       2.823   8.452  28.034  1.00 34.74 LIG-0.36  N 
ATOM     60  CH2 TRP C   6      -0.434   7.129  29.195  1.00 37.49 LIG 0.00  A 
ATOM     61  CZ3 TRP C   6      -1.189   8.278  28.898  1.00 37.02 LIG 0.00  A 
ATOM     62  CD1 TRP C   6       2.929   9.728  27.519  1.00 33.83 LIG 0.10  A 
ATOM     63 HE1  TRP C   6       3.471   7.893  28.121  1.00 34.74 LIG 0.17  HD
ENDBRANCH 53 54
ENDBRANCH 50 53
ENDBRANCH 48 50
ENDBRANCH 41 46
ENDBRANCH 39 41
ENDBRANCH 36 37
BRANCH 36 64
ATOM     64  CB  SER C   4       2.615  15.187  34.529  1.00 37.36 LIG 0.20  C 
BRANCH 64 65
ATOM     65 OG   SER C   4       3.058  14.049  35.248  1.00 45.19 LIG-0.40  OA
ATOM     66 HG   SER C   4       3.451  14.294  35.948  1.00 45.19 LIG 0.21  HD
ENDBRANCH 64 65
ENDBRANCH 36 64
ENDBRANCH 3 36
TORSDOF 22
