USER: ADFR SOLUTION from run 0
USER: SCORE 12.446549 LL:  -2.989 LR: -10.724 RR:   0.000 FEB:  -7.443
USER: RMSD 0.589113
USER: STATUS Locally minimized using BFGS
USER: GENES 13
USER: genes 0 Translation |==|  0.58923 0.52304 0.46004
USER: genes 1 Rotation |==|  0.52207 0.49302 0.52801 0.99868
USER: genes 2 Torsion [C]-N--CA-[CB] |==|  0.44444
USER: genes 3 Torsion [N]-CA--CB-[CG] |==|  0.19124
USER: genes 4 Torsion [CA]-CB--CG-[CD] |==|  0.78541
USER: genes 5 Torsion [CB]-CG--CD-[OE1] |==|  0.98962
USER: genes 6 Torsion [N]-CA--C-[N] |==|  0.46532
USER: genes 7 Torsion [N]-CA--C-[OXT] |==|  0.23102
USER: genes 8 Torsion [N]-C--CA-[N] |==|  0.03799
USER: genes 9 Torsion [C]-CA--N-[C] |==|  0.65663
USER: genes 10 Torsion [N]-C--CA-[N] |==|  0.22420
USER: genes 11 Torsion [C]-CA--CB-[CG] |==|  0.77056
USER: genes 12 Torsion [CA]-CB--CG-[CD2] |==|  0.73701
ROOT
ATOM      1  C   PHE B 724      42.360  37.833  84.941  1.00 20.38 LIG 0.24  C 
ATOM      2 O    PHE B 724      42.834  37.691  83.815  1.00 19.94 LIG-0.27  OA
ATOM      3  N   GLU B 725      41.185  37.334  85.297  1.00 20.55 LIG-0.35  N 
ATOM      4 H    GLU B 725      40.875  37.358  86.098  1.00 20.55 LIG 0.16  HD
ENDROOT
BRANCH 3 5
ATOM      5  CA  GLU B 725      40.309  36.690  84.331  1.00 20.80 LIG 0.18  C 
BRANCH 5 6
ATOM      6  CB  GLU B 725      39.299  35.793  85.060  1.00 21.18 LIG 0.04  C 
BRANCH 6 7
ATOM      7  CG  GLU B 725      38.252  36.529  85.889  1.00 23.39 LIG 0.12  C 
BRANCH 7 8
ATOM      8  CD  GLU B 725      38.780  37.047  87.220  1.00 26.43 LIG 0.17  C 
ATOM      9 OE1  GLU B 725      39.956  36.784  87.565  1.00 27.49 LIG-0.65  OA
ATOM     10 OE2  GLU B 725      38.001  37.718  87.937  1.00 27.53 LIG-0.65  OA
ENDBRANCH 7 8
ENDBRANCH 6 7
ENDBRANCH 5 6
BRANCH 5 11
ATOM     11  C   GLU B 725      39.621  37.786  83.500  1.00 20.17 LIG 0.24  C 
ATOM     12  N   PRO B 726      38.972  37.413  82.393  1.00 19.83 LIG-0.34  N 
ATOM     13  CD  PRO B 726      38.876  36.063  81.804  1.00 19.46 LIG 0.13  C 
ATOM     14  CA  PRO B 726      38.210  38.390  81.621  1.00 19.64 LIG 0.19  C 
ATOM     15  CG  PRO B 726      38.068  36.264  80.550  1.00 19.20 LIG 0.02  C 
ATOM     16  CB  PRO B 726      38.063  37.717  80.256  1.00 19.97 LIG 0.04  C 
ATOM     17 O    GLU B 725      39.682  38.972  83.870  1.00 19.41 LIG-0.27  OA
BRANCH 14 18
ATOM     18  C   PRO B 726      36.865  38.552  82.320  1.00 19.81 LIG 0.20  C 
ATOM     19 OXT  PRO B 726      36.810  39.334  83.287  1.00 20.16 LIG-0.65  OA
ATOM     20 O    PRO B 726      35.899  37.877  81.940  1.00 18.50 LIG-0.65  OA
ENDBRANCH 14 18
ENDBRANCH 5 11
ENDBRANCH 3 5
BRANCH 1 21
ATOM     21  CA  PHE B 724      43.109  38.609  86.026  1.00 20.36 LIG 0.18  C 
BRANCH 21 22
ATOM     22  N   PHE B 724      42.530  38.383  87.355  1.00 20.75 LIG-0.35  N 
ATOM     23  C   GLY B 723      42.105  39.386  88.117  1.00 21.06 LIG 0.25  C 
ATOM     24 O    GLY B 723      42.154  40.565  87.760  1.00 21.29 LIG-0.27  OA
ATOM     25 H    PHE B 724      42.493  37.557  87.589  1.00 20.75 LIG 0.16  HD
BRANCH 23 26
ATOM     26  CA  GLY B 723      41.538  39.008  89.477  1.00 21.22 LIG 0.47  C 
ATOM     27  N   GLY B 723      42.595  38.759  90.501  1.00 21.24 LIG 0.61  N 
ENDBRANCH 23 26
ENDBRANCH 21 22
BRANCH 21 28
ATOM     28  CB  PHE B 724      44.598  38.255  86.010  1.00 20.22 LIG 0.07  C 
BRANCH 28 29
ATOM     29  CG  PHE B 724      44.930  36.995  86.750  1.00 20.05 LIG-0.06  A 
ATOM     30  CD1 PHE B 724      44.819  35.762  86.127  1.00 20.54 LIG 0.01  A 
ATOM     31  CE1 PHE B 724      45.121  34.589  86.816  1.00 21.50 LIG 0.00  A 
ATOM     32  CZ  PHE B 724      45.529  34.651  88.148  1.00 21.54 LIG 0.00  A 
ATOM     33  CE2 PHE B 724      45.643  35.881  88.777  1.00 21.44 LIG 0.00  A 
ATOM     34  CD2 PHE B 724      45.341  37.046  88.077  1.00 20.20 LIG 0.01  A 
ENDBRANCH 28 29
ENDBRANCH 21 28
ENDBRANCH 1 21
TORSDOF 11
