USER: ADFR SOLUTION from run 0
USER: SCORE 11.309105 LL:  -3.422 LR:  -9.447 RR:   0.000 FEB:  -5.569
USER: RMSD 0.141968
USER: STATUS Locally minimized using BFGS
USER: GENES 15
USER: genes 0 Translation |==|  0.62739 0.57240 0.52069
USER: genes 1 Rotation |==|  0.50056 0.49431 0.50423 0.99995
USER: genes 2 Torsion [C]-CA--CB-[CG] |==|  0.77976
USER: genes 3 Torsion [CA]-CB--CG-[CD1] |==|  0.22462
USER: genes 4 Torsion [N]-CA--C-[N] |==|  0.06473
USER: genes 5 Torsion [C]-N--CA-[C] |==|  0.79975
USER: genes 6 Torsion [N]-CA--C-[N] |==|  0.44500
USER: genes 7 Torsion [N]-CA--C-[OXT] |==|  0.27917
USER: genes 8 Torsion [N]-CA--CB-[OG] |==|  0.21160
USER: genes 9 Torsion [CA]-CB--OG-[HG] |==|  0.49972
USER: genes 10 Torsion [CB]-CA--N-[C] |==|  0.28333
USER: genes 11 Torsion [N]-C--CA-[N] |==|  0.37268
USER: genes 12 Torsion [C]-CA--CB-[CG] |==|  0.20333
USER: genes 13 Torsion [CA]-CB--CG-[CD] |==|  0.16118
USER: genes 14 Torsion [CB]-CG--CD-[OE2] |==|  0.71515
ROOT
ATOM      1  CA  PHE B 724      42.836  38.394  85.075  1.00 26.49 LIG 0.18  C 
ENDROOT
BRANCH 1 2
ATOM      2  CB  PHE B 724      44.338  38.011  85.033  1.00 25.63 LIG 0.07  C 
BRANCH 2 3
ATOM      3  CG  PHE B 724      44.686  36.768  85.883  1.00 27.34 LIG-0.06  A 
ATOM      4  CD1 PHE B 724      44.458  35.485  85.382  1.00 28.02 LIG 0.01  A 
ATOM      5  CE1 PHE B 724      44.738  34.321  86.167  1.00 28.62 LIG 0.00  A 
ATOM      6  CZ  PHE B 724      45.253  34.455  87.521  1.00 35.24 LIG 0.00  A 
ATOM      7  CE2 PHE B 724      45.464  35.778  88.037  1.00 37.40 LIG 0.00  A 
ATOM      8  CD2 PHE B 724      45.165  36.910  87.201  1.00 30.54 LIG 0.01  A 
ENDBRANCH 2 3
ENDBRANCH 1 2
BRANCH 1 9
ATOM      9  C   PHE B 724      41.941  37.511  84.139  1.00 25.60 LIG 0.24  C 
ATOM     10 O    PHE B 724      42.330  37.161  83.072  1.00 24.31 LIG-0.27  OA
ATOM     11  N   SER B 725      40.727  37.208  84.580  1.00 25.14 LIG-0.34  N 
ATOM     12 H    SER B 725      40.456  37.364  85.381  1.00 25.14 LIG 0.16  HD
BRANCH 11 13
ATOM     13  CA  SER B 725      39.739  36.571  83.727  1.00 26.01 LIG 0.20  C 
BRANCH 13 14
ATOM     14  C   SER B 725      39.232  37.605  82.688  1.00 25.07 LIG 0.24  C 
ATOM     15  N   PRO B 726      38.641  37.149  81.579  1.00 24.50 LIG-0.34  N 
ATOM     16  CD  PRO B 726      38.545  35.751  81.104  1.00 23.05 LIG 0.13  C 
ATOM     17  CA  PRO B 726      38.059  38.091  80.629  1.00 23.41 LIG 0.19  C 
ATOM     18  CG  PRO B 726      37.817  35.917  79.772  1.00 23.09 LIG 0.02  C 
ATOM     19  CB  PRO B 726      37.995  37.280  79.337  1.00 23.24 LIG 0.04  C 
ATOM     20 O    SER B 725      39.365  38.833  82.898  1.00 24.38 LIG-0.27  OA
BRANCH 17 21
ATOM     21  C   PRO B 726      36.671  38.476  81.141  1.00 26.46 LIG 0.20  C 
ATOM     22 OXT  PRO B 726      36.504  39.592  81.753  1.00 26.95 LIG-0.65  OA
ATOM     23 O    PRO B 726      35.725  37.685  80.937  1.00 25.53 LIG-0.65  OA
ENDBRANCH 17 21
ENDBRANCH 13 14
BRANCH 13 24
ATOM     24  CB  SER B 725      38.605  36.016  84.614  1.00 27.74 LIG 0.20  C 
BRANCH 24 25
ATOM     25 OG   SER B 725      37.711  37.054  85.089  1.00 32.69 LIG-0.40  OA
ATOM     26 HG   SER B 725      37.111  36.711  85.565  1.00 32.69 LIG 0.21  HD
ENDBRANCH 24 25
ENDBRANCH 13 24
ENDBRANCH 11 13
ENDBRANCH 1 9
BRANCH 1 27
ATOM     27  N   PHE B 724      42.334  38.209  86.412  1.00 25.12 LIG-0.34  N 
ATOM     28  C   GLU B 723      42.151  39.226  87.236  1.00 28.42 LIG 0.26  C 
ATOM     29 O    GLU B 723      42.183  40.411  86.899  1.00 26.74 LIG-0.27  OA
ATOM     30 H    PHE B 724      42.170  37.391  86.619  1.00 25.12 LIG 0.16  HD
BRANCH 28 31
ATOM     31  CA  GLU B 723      41.869  38.819  88.668  1.00 29.87 LIG 0.40  C 
ATOM     32  N   GLU B 723      42.638  39.573  89.734  1.00 31.36 LIG 0.61  N 
BRANCH 31 33
ATOM     33  CB  GLU B 723      40.372  38.823  88.822  1.00 32.48 LIG 0.06  C 
BRANCH 33 34
ATOM     34  CG  GLU B 723      39.795  37.608  88.084  1.00 37.12 LIG 0.12  C 
BRANCH 34 35
ATOM     35  CD  GLU B 723      40.410  36.314  88.647  1.00 44.87 LIG 0.17  C 
ATOM     36 OE2  GLU B 723      41.333  35.731  87.974  1.00 46.35 LIG-0.65  OA
ATOM     37 OE1  GLU B 723      39.997  35.917  89.796  1.00 48.21 LIG-0.65  OA
ENDBRANCH 34 35
ENDBRANCH 33 34
ENDBRANCH 31 33
ENDBRANCH 28 31
ENDBRANCH 1 27
TORSDOF 13
