USER: ADFR SOLUTION from run 0
USER: SCORE 16.245134 LL:  -4.728 LR: -11.933 RR:   0.000 FEB:  -5.072
USER: RMSD 1.698624
USER: STATUS Locally minimized using BFGS
USER: GENES 25
USER: genes 0 Translation |==|  0.50395 0.55178 0.49640
USER: genes 1 Rotation |==|  0.52988 0.49756 0.46601 0.99794
USER: genes 2 Torsion [C]-CA--N-[C] |==|  0.63590
USER: genes 3 Torsion [N]-C--CA-[N] |==|  0.36291
USER: genes 4 Torsion [C]-CA--N-[C] |==|  0.77670
USER: genes 5 Torsion [N]-C--CA-[N] |==|  0.45361
USER: genes 6 Torsion [C]-CA--CB-[CG] |==|  0.55984
USER: genes 7 Torsion [CA]-CB--CG-[ND2] |==|  0.39105
USER: genes 8 Torsion [C]-CA--CB-[CG] |==|  0.82948
USER: genes 9 Torsion [CA]-CB--CG-[CD] |==|  0.60906
USER: genes 10 Torsion [CB]-CG--CD-[OE1] |==|  0.58293
USER: genes 11 Torsion [N]-CA--CB-[CG] |==|  0.79109
USER: genes 12 Torsion [CA]-CB--CG-[CD1] |==|  0.78062
USER: genes 13 Torsion [CE2]-CZ--OH-[HH] |==|  0.53038
USER: genes 14 Torsion [N]-CA--C-[N] |==|  0.39059
USER: genes 15 Torsion [C]-N--CA-[C] |==|  0.70440
USER: genes 16 Torsion [N]-CA--CB-[CG] |==|  0.45432
USER: genes 17 Torsion [CA]-CB--CG-[CD] |==|  0.45305
USER: genes 18 Torsion [CB]-CG--CD-[CE] |==|  0.51116
USER: genes 19 Torsion [CG]-CD--CE-[NZ] |==|  0.85137
USER: genes 20 Torsion [CD]-CE--NZ-[HZ3] |==|  0.20857
USER: genes 21 Torsion [N]-CA--C-[N] |==|  0.32313
USER: genes 22 Torsion [C]-N--CA-[C] |==|  0.66109
USER: genes 23 Torsion [N]-CA--C-[O] |==|  0.00372
USER: genes 24 Torsion [N]-CA--CB-[CG2] |==|  0.14296
ROOT
ATOM      1  CA  TYR S   4       8.437 -17.955  41.118  1.00 28.42 LIG 0.18  C 
ENDROOT
BRANCH 1 2
ATOM      2  N   TYR S   4       8.022 -17.399  39.843  1.00 30.10 LIG-0.35  N 
ATOM      3 H    TYR S   4       7.776 -16.577  39.889  1.00 30.10 LIG 0.16  HD
ATOM      4  C   GLU S   3       8.020 -18.090  38.712  1.00 31.33 LIG 0.24  C 
ATOM      5 O    GLU S   3       8.304 -19.291  38.649  1.00 31.71 LIG-0.27  OA
BRANCH 4 6
ATOM      6  CA  GLU S   3       7.650 -17.305  37.469  1.00 32.63 LIG 0.18  C 
BRANCH 6 7
ATOM      7  N   GLU S   3       8.646 -17.552  36.415  1.00 32.63 LIG-0.35  N 
ATOM      8  C   ASN S   2       9.799 -16.913  36.419  1.00 33.77 LIG 0.26  C 
ATOM      9 O    ASN S   2      10.046 -16.004  37.196  1.00 34.52 LIG-0.27  OA
ATOM     10 H    GLU S   3       8.411 -18.129  35.822  1.00 32.63 LIG 0.16  HD
BRANCH 8 11
ATOM     11  CA  ASN S   2      10.843 -17.382  35.398  1.00 34.66 LIG 0.41  C 
ATOM     12  N   ASN S   2      11.927 -16.362  35.211  1.00 35.02 LIG 0.61  N 
BRANCH 11 13
ATOM     13  CB  ASN S   2      11.404 -18.735  35.876  1.00 35.18 LIG 0.15  C 
BRANCH 13 14
ATOM     14  CG  ASN S   2      12.774 -19.060  35.276  1.00 37.91 LIG 0.22  C 
ATOM     15 OD1  ASN S   2      13.033 -18.778  34.103  1.00 41.54 LIG-0.27  OA
ATOM     16  ND2 ASN S   2      13.660 -19.643  36.091  1.00 40.23 LIG-0.37  N 
ATOM     17 22HD ASN S   2      13.442 -19.824  36.903  1.00 40.23 LIG 0.16  HD
ATOM     18 21HD ASN S   2      14.447 -19.836  35.804  1.00 40.23 LIG 0.16  HD
ENDBRANCH 13 14
ENDBRANCH 11 13
ENDBRANCH 8 11
ENDBRANCH 6 7
BRANCH 6 19
ATOM     19  CB  GLU S   3       6.241 -17.642  36.991  1.00 32.72 LIG 0.04  C 
BRANCH 19 20
ATOM     20  CG  GLU S   3       5.989 -19.092  36.587  1.00 35.99 LIG 0.12  C 
BRANCH 20 21
ATOM     21  CD  GLU S   3       5.095 -19.229  35.356  1.00 39.18 LIG 0.17  C 
ATOM     22 OE1  GLU S   3       4.380 -20.253  35.274  1.00 41.46 LIG-0.65  OA
ATOM     23 OE2  GLU S   3       5.092 -18.316  34.474  1.00 41.34 LIG-0.65  OA
ENDBRANCH 20 21
ENDBRANCH 19 20
ENDBRANCH 6 19
ENDBRANCH 4 6
ENDBRANCH 1 2
BRANCH 1 24
ATOM     24  CB  TYR S   4       9.792 -17.380  41.483  1.00 28.42 LIG 0.07  C 
BRANCH 24 25
ATOM     25  CG  TYR S   4      10.916 -17.980  40.690  1.00 29.89 LIG-0.06  A 
ATOM     26  CD2 TYR S   4      11.470 -17.310  39.588  1.00 30.34 LIG 0.01  A 
ATOM     27  CE2 TYR S   4      12.517 -17.904  38.849  1.00 32.01 LIG 0.04  A 
ATOM     28  CZ  TYR S   4      12.994 -19.153  39.232  1.00 31.83 LIG 0.07  A 
ATOM     29  CE1 TYR S   4      12.448 -19.805  40.302  1.00 31.31 LIG 0.04  A 
ATOM     30  CD1 TYR S   4      11.424 -19.222  41.024  1.00 30.54 LIG 0.01  A 
BRANCH 28 31
ATOM     31 OH   TYR S   4      13.990 -19.812  38.536  1.00 36.86 LIG-0.36  OA
ATOM     32 HH   TYR S   4      14.049 -20.603  38.810  1.00 36.86 LIG 0.22  HD
ENDBRANCH 28 31
ENDBRANCH 24 25
ENDBRANCH 1 24
BRANCH 1 33
ATOM     33  C   TYR S   4       7.377 -17.626  42.158  1.00 27.93 LIG 0.24  C 
ATOM     34  N   LYS S   5       7.104 -18.582  43.034  1.00 28.19 LIG-0.35  N 
ATOM     35 H    LYS S   5       7.491 -19.350  43.025  1.00 28.19 LIG 0.16  HD
ATOM     36 O    TYR S   4       6.768 -16.558  42.119  1.00 25.57 LIG-0.27  OA
BRANCH 34 37
ATOM     37  CA  LYS S   5       6.122 -18.437  44.106  1.00 28.81 LIG 0.18  C 
BRANCH 37 38
ATOM     38  CB  LYS S   5       5.184 -19.654  44.152  1.00 29.54 LIG 0.04  C 
BRANCH 38 39
ATOM     39  CG  LYS S   5       4.374 -19.820  45.450  1.00 33.24 LIG 0.00  C 
BRANCH 39 40
ATOM     40  CD  LYS S   5       3.196 -20.767  45.282  1.00 37.34 LIG 0.03  C 
BRANCH 40 41
ATOM     41  CE  LYS S   5       2.369 -20.819  46.570  1.00 39.48 LIG 0.23  C 
BRANCH 41 42
ATOM     42  NZ  LYS S   5       3.219 -21.145  47.744  1.00 41.40 LIG-0.08  N 
ATOM     43 HZ2  LYS S   5       3.766 -21.816  47.538  1.00 41.40 LIG 0.27  HD
ATOM     44 HZ1  LYS S   5       2.702 -21.383  48.428  1.00 41.40 LIG 0.27  HD
ATOM     45 HZ3  LYS S   5       3.699 -20.430  47.971  1.00 41.40 LIG 0.27  HD
ENDBRANCH 41 42
ENDBRANCH 40 41
ENDBRANCH 39 40
ENDBRANCH 38 39
ENDBRANCH 37 38
BRANCH 37 46
ATOM     46  C   LYS S   5       6.893 -18.285  45.406  1.00 28.43 LIG 0.24  C 
ATOM     47  N   VAL S   6       6.754 -17.136  46.046  1.00 27.37 LIG-0.34  N 
ATOM     48 H    VAL S   6       6.188 -16.531  45.817  1.00 27.37 LIG 0.16  HD
ATOM     49 O    LYS S   5       7.612 -19.182  45.826  1.00 28.58 LIG-0.27  OA
BRANCH 47 50
ATOM     50  CA  VAL S   6       7.549 -16.788  47.200  1.00 26.91 LIG 0.19  C 
BRANCH 50 51
ATOM     51  C   VAL S   6       6.692 -16.486  48.439  1.00 27.47 LIG 0.20  C 
ATOM     52 O    VAL S   6       5.449 -16.559  48.454  1.00 25.37 LIG-0.65  OA
ATOM     53 OXT  VAL S   6       7.329 -16.193  49.451  1.00 29.74 LIG-0.65  OA
ENDBRANCH 50 51
BRANCH 50 54
ATOM     54  CB  VAL S   6       8.491 -15.597  46.897  1.00 26.80 LIG 0.01  C 
ATOM     55  CG2 VAL S   6       7.720 -14.414  46.285  1.00 26.48 LIG 0.01  C 
ATOM     56  CG1 VAL S   6       9.618 -16.023  45.967  1.00 26.60 LIG 0.01  C 
ENDBRANCH 50 54
ENDBRANCH 47 50
ENDBRANCH 37 46
ENDBRANCH 34 37
ENDBRANCH 1 33
TORSDOF 23
