USER: ADFR SOLUTION from run 0
USER: SCORE 14.432476 LL:  -2.527 LR: -11.905 RR:   0.000 FEB:  -9.220
USER: RMSD 0.332278
USER: STATUS Locally minimized using BFGS
USER: GENES 11
USER: genes 0 Translation |==|  0.59985 0.63750 0.47174
USER: genes 1 Rotation |==|  0.50242 0.49990 0.48233 0.99968
USER: genes 2 Torsion [N]-CA--C-[O] |==|  0.71924
USER: genes 3 Torsion [C]-N--CA-[C] |==|  0.55928
USER: genes 4 Torsion [N]-CA--C-[OXT] |==|  0.40543
USER: genes 5 Torsion [N]-CA--CB-[CG2] |==|  0.18505
USER: genes 6 Torsion [CA]-CB--CG1-[CD1] |==|  0.48852
USER: genes 7 Torsion [N]-C--CA-[N] |==|  0.37941
USER: genes 8 Torsion [C]-CA--CB-[CG2] |==|  0.15207
USER: genes 9 Torsion [CA]-CB--CG1-[CD1] |==|  0.51287
USER: genes 10 Torsion [C]-CA--N-[H3] |==|  0.12696
ROOT
ATOM      1  C   ILE C   1      56.524  63.703  35.878  1.00 27.75 LIG 0.25  C 
ATOM      2 O    ILE C   1      56.857  62.632  35.363  1.00 26.33 LIG-0.27  OA
ATOM      3  N   PRO C   2      56.930  64.058  37.102  1.00 28.60 LIG-0.34  N 
ATOM      4  CA  PRO C   2      57.766  63.163  37.899  1.00 29.30 LIG 0.18  C 
ATOM      5  CB  PRO C   2      58.362  64.096  38.948  1.00 28.96 LIG 0.04  C 
ATOM      6  CG  PRO C   2      57.271  65.084  39.160  1.00 29.77 LIG 0.02  C 
ATOM      7  CD  PRO C   2      56.807  65.374  37.746  1.00 29.26 LIG 0.13  C 
ENDROOT
BRANCH 4 8
ATOM      8  C   PRO C   2      56.889  62.070  38.505  1.00 30.63 LIG 0.24  C 
ATOM      9 O    PRO C   2      56.526  62.127  39.682  1.00 29.31 LIG-0.27  OA
ATOM     10  N   ILE C   3      56.544  61.088  37.677  1.00 30.96 LIG-0.34  N 
ATOM     11 H    ILE C   3      56.779  61.060  36.850  1.00 30.96 LIG 0.16  HD
BRANCH 10 12
ATOM     12  CA  ILE C   3      55.726  59.958  38.096  1.00 33.52 LIG 0.19  C 
BRANCH 12 13
ATOM     13  C   ILE C   3      55.948  58.795  37.130  1.00 34.53 LIG 0.20  C 
ATOM     14 OXT  ILE C   3      55.909  57.632  37.588  1.00 37.77 LIG-0.65  OA
ATOM     15 O    ILE C   3      56.158  59.061  35.926  1.00 32.63 LIG-0.65  OA
ENDBRANCH 12 13
BRANCH 12 16
ATOM     16  CB  ILE C   3      54.223  60.319  38.098  1.00 35.15 LIG 0.01  C 
ATOM     17  CG2 ILE C   3      53.743  60.574  36.670  1.00 35.36 LIG 0.01  C 
BRANCH 16 18
ATOM     18  CG1 ILE C   3      53.410  59.175  38.709  1.00 35.72 LIG 0.00  C 
ATOM     19  CD1 ILE C   3      51.916  59.482  38.846  1.00 34.66 LIG 0.01  C 
ENDBRANCH 16 18
ENDBRANCH 12 16
ENDBRANCH 10 12
ENDBRANCH 4 8
BRANCH 1 20
ATOM     20  CA  ILE C   1      55.650  64.697  35.132  1.00 26.33 LIG 0.28  C 
BRANCH 20 21
ATOM     21  CB  ILE C   1      54.183  64.216  35.249  1.00 27.81 LIG 0.02  C 
ATOM     22  CG2 ILE C   1      53.812  64.029  36.716  1.00 28.56 LIG 0.01  C 
BRANCH 21 23
ATOM     23  CG1 ILE C   1      53.234  65.233  34.611  1.00 27.24 LIG 0.00  C 
ATOM     24  CD1 ILE C   1      51.759  64.880  34.787  1.00 25.82 LIG 0.01  C 
ENDBRANCH 21 23
ENDBRANCH 20 21
BRANCH 20 25
ATOM     25  N   ILE C   1      56.079  64.809  33.715  1.00 24.71 LIG-0.07  N 
ATOM     26 H1   ILE C   1      55.447  65.225  33.245  1.00 24.71 LIG 0.28  HD
ATOM     27 H3   ILE C   1      56.211  63.995  33.380  1.00 24.71 LIG 0.28  HD
ATOM     28 H2   ILE C   1      56.836  65.274  33.670  1.00 24.71 LIG 0.28  HD
ENDBRANCH 20 25
ENDBRANCH 1 20
TORSDOF 9
