USER: ADFR SOLUTION from run 0
USER: SCORE 15.713880 LL:  -2.891 LR: -13.428 RR:   0.000 FEB:  -7.760
USER: RMSD 1.475655
USER: STATUS Locally minimized using BFGS
USER: GENES 21
USER: genes 0 Translation |==|  0.64326 0.55543 0.61721
USER: genes 1 Rotation |==|  0.49943 0.51328 0.50080 0.99982
USER: genes 2 Torsion [C]-N--CA-[C] |==|  0.57676
USER: genes 3 Torsion [N]-CA--C-[N] |==|  0.39444
USER: genes 4 Torsion [C]-N--CA-[CB] |==|  0.46715
USER: genes 5 Torsion [N]-CA--CB-[CG] |==|  0.69570
USER: genes 6 Torsion [CA]-CB--CG-[CD] |==|  0.46604
USER: genes 7 Torsion [CB]-CG--CD-[CE] |==|  0.43266
USER: genes 8 Torsion [CG]-CD--CE-[NZ] |==|  0.45655
USER: genes 9 Torsion [CD]-CE--NZ-[HZ3] |==|  0.17416
USER: genes 10 Torsion [N]-CA--C-[OXT] |==|  0.40435
USER: genes 11 Torsion [N]-CA--CB-[CG] |==|  0.10257
USER: genes 12 Torsion [CA]-CB--CG-[CD] |==|  0.48805
USER: genes 13 Torsion [CB]-CG--CD-[OE1] |==|  0.07667
USER: genes 14 Torsion [N]-C--CA-[N] |==|  0.38122
USER: genes 15 Torsion [C]-CA--CB-[CG] |==|  0.38771
USER: genes 16 Torsion [CA]-CB--CG-[CD2] |==|  0.55940
USER: genes 17 Torsion [C]-CA--N-[C] |==|  0.55032
USER: genes 18 Torsion [N]-C--CA-[N] |==|  0.32425
USER: genes 19 Torsion [C]-CA--CB-[CG] |==|  0.13910
USER: genes 20 Torsion [CA]-CB--CG-[CD2] |==|  0.63455
ROOT
ATOM      1  C   LEU I 102     -20.561  -4.075  -4.194  0.50 11.09 LIG 0.24  C 
ATOM      2 O    LEU I 102     -19.427  -4.556  -4.267  0.50  6.75 LIG-0.27  OA
ATOM      3  N   GLU I 103     -21.620  -4.732  -4.632  0.50 13.38 LIG-0.35  N 
ATOM      4 H    GLU I 103     -22.430  -4.473  -4.506  0.50 13.38 LIG 0.16  HD
ENDROOT
BRANCH 3 5
ATOM      5  CA  GLU I 103     -21.495  -5.974  -5.378  0.50 18.34 LIG 0.18  C 
BRANCH 5 6
ATOM      6  C   GLU I 103     -22.689  -6.148  -6.303  0.50 17.37 LIG 0.24  C 
ATOM      7  N   LYS I 104     -22.408  -6.673  -7.480  0.50 22.43 LIG-0.34  N 
ATOM      8 H    LYS I 104     -21.613  -6.905  -7.709  0.50 22.43 LIG 0.16  HD
ATOM      9 O    GLU I 103     -23.814  -5.805  -5.944  0.50 19.80 LIG-0.27  OA
BRANCH 7 10
ATOM     10  CA  LYS I 104     -23.397  -6.913  -8.507  0.50 29.15 LIG 0.18  C 
BRANCH 10 11
ATOM     11  CB  LYS I 104     -22.763  -7.244  -9.823  0.50 30.49 LIG 0.04  C 
BRANCH 11 12
ATOM     12  CG  LYS I 104     -22.845  -6.241 -10.926  0.50 30.90 LIG 0.00  C 
BRANCH 12 13
ATOM     13  CD  LYS I 104     -21.856  -6.792 -11.925  0.50 30.43 LIG 0.03  C 
BRANCH 13 14
ATOM     14  CE  LYS I 104     -22.294  -6.242 -13.235  0.50 34.48 LIG 0.23  C 
BRANCH 14 15
ATOM     15  NZ  LYS I 104     -21.209  -6.415 -14.152  0.50 39.75 LIG-0.08  N 
ATOM     16 HZ3  LYS I 104     -21.043  -7.284 -14.255  0.50 39.75 LIG 0.27  HD
ATOM     17 HZ2  LYS I 104     -20.483  -6.011 -13.834  0.50 39.75 LIG 0.27  HD
ATOM     18 HZ1  LYS I 104     -21.426  -6.059 -14.939  0.50 39.75 LIG 0.27  HD
ENDBRANCH 14 15
ENDBRANCH 13 14
ENDBRANCH 12 13
ENDBRANCH 11 12
ENDBRANCH 10 11
BRANCH 10 19
ATOM     19  C   LYS I 104     -24.192  -8.133  -8.087  0.50 31.87 LIG 0.20  C 
ATOM     20 OXT  LYS I 104     -25.390  -8.163  -8.376  0.50 33.47 LIG-0.65  OA
ATOM     21 O    LYS I 104     -23.584  -9.042  -7.502  0.50 36.52 LIG-0.65  OA
ENDBRANCH 10 19
ENDBRANCH 7 10
ENDBRANCH 5 6
BRANCH 5 22
ATOM     22  CB  GLU I 103     -21.424  -7.162  -4.451  0.50 17.76 LIG 0.04  C 
BRANCH 22 23
ATOM     23  CG  GLU I 103     -22.329  -6.934  -3.284  0.50 22.90 LIG 0.12  C 
BRANCH 23 24
ATOM     24  CD  GLU I 103     -22.428  -8.094  -2.333  0.50 27.65 LIG 0.17  C 
ATOM     25 OE1  GLU I 103     -21.491  -8.890  -2.214  0.50 28.22 LIG-0.65  OA
ATOM     26 OE2  GLU I 103     -23.475  -8.170  -1.699  0.50 31.39 LIG-0.65  OA
ENDBRANCH 23 24
ENDBRANCH 22 23
ENDBRANCH 5 22
ENDBRANCH 3 5
BRANCH 1 27
ATOM     27  CA  LEU I 102     -20.715  -2.706  -3.562  0.50 14.84 LIG 0.18  C 
BRANCH 27 28
ATOM     28  CB  LEU I 102     -20.283  -1.732  -4.619  0.50 17.78 LIG 0.04  C 
BRANCH 28 29
ATOM     29  CG  LEU I 102     -21.031  -0.445  -4.830  0.50 23.00 LIG-0.02  C 
ATOM     30  CD2 LEU I 102     -20.726   0.041  -6.232  0.50 23.20 LIG 0.01  C 
ATOM     31  CD1 LEU I 102     -20.616   0.600  -3.806  0.50 25.90 LIG 0.01  C 
ENDBRANCH 28 29
ENDBRANCH 27 28
BRANCH 27 32
ATOM     32  N   LEU I 102     -19.833  -2.711  -2.394  0.50 17.71 LIG-0.35  N 
ATOM     33 H    LEU I 102     -19.247  -3.339  -2.441  0.50 17.71 LIG 0.16  HD
ATOM     34  C   PHE I 101     -19.871  -1.878  -1.347  0.50 15.00 LIG 0.26  C 
ATOM     35 O    PHE I 101     -20.564  -0.869  -1.228  0.50 13.40 LIG-0.27  OA
BRANCH 34 36
ATOM     36  CA  PHE I 101     -18.850  -2.155  -0.257  0.50 16.66 LIG 0.40  C 
ATOM     37  N   PHE I 101     -18.047  -0.955  -0.284  0.50 14.66 LIG 0.61  N 
BRANCH 36 38
ATOM     38  CB  PHE I 101     -19.576  -2.346   1.079  0.50 13.93 LIG 0.09  C 
BRANCH 38 39
ATOM     39  CG  PHE I 101     -20.724  -3.346   0.969  0.50 13.79 LIG-0.06  A 
ATOM     40  CD2 PHE I 101     -21.973  -3.019   1.486  0.50 13.65 LIG 0.01  A 
ATOM     41  CE2 PHE I 101     -23.057  -3.877   1.300  0.50 14.96 LIG 0.00  A 
ATOM     42  CZ  PHE I 101     -22.883  -5.060   0.601  0.50 12.06 LIG 0.00  A 
ATOM     43  CE1 PHE I 101     -21.635  -5.394   0.095  0.50 11.76 LIG 0.00  A 
ATOM     44  CD1 PHE I 101     -20.552  -4.541   0.277  0.50 13.16 LIG 0.01  A 
ENDBRANCH 38 39
ENDBRANCH 36 38
ENDBRANCH 34 36
ENDBRANCH 27 32
ENDBRANCH 1 27
TORSDOF 19
