USER: ADFR SOLUTION from run 0
USER: SCORE 5.190297 LL:  -1.522 LR:  -3.668 RR:   0.000 FEB:  -1.580
USER: RMSD 0.135652
USER: STATUS Locally minimized using BFGS
USER: GENES 9
USER: genes 0 Translation |==|  0.37824 0.54276 0.56774
USER: genes 1 Rotation |==|  0.50025 0.50631 0.49859 0.99996
USER: genes 2 Torsion [N]-CA--C-[N] |==|  0.40955
USER: genes 3 Torsion [C]-N--CA-[CB] |==|  0.29201
USER: genes 4 Torsion [N]-CA--C-[OXT] |==|  0.48987
USER: genes 5 Torsion [N]-CA--CB-[CG2] |==|  0.79488
USER: genes 6 Torsion [CA]-CB--OG1-[HG1] |==|  0.49964
USER: genes 7 Torsion [N]-C--CA-[N] |==|  0.37755
USER: genes 8 Torsion [C]-CA--N-[H2] |==|  0.70838
ROOT
ATOM      1  C   ALA B   1       1.935  12.505  22.475  1.00 21.61 LIG 0.25  C 
ATOM      2 O    ALA B   1       2.996  12.202  23.036  1.00 21.59 LIG-0.27  OA
ATOM      3  N   PRO B   2       1.427  11.803  21.441  1.00 20.68 LIG-0.34  N 
ATOM      4  CA  PRO B   2       2.212  10.731  20.822  1.00 19.66 LIG 0.18  C 
ATOM      5  CB  PRO B   2       1.228  10.101  19.835  1.00 19.68 LIG 0.04  C 
ATOM      6  CG  PRO B   2       0.238  11.188  19.534  1.00 19.82 LIG 0.02  C 
ATOM      7  CD  PRO B   2       0.095  11.940  20.821  1.00 21.17 LIG 0.13  C 
ENDROOT
BRANCH 4 8
ATOM      8  C   PRO B   2       3.452  11.263  20.094  1.00 18.80 LIG 0.24  C 
ATOM      9  N   THR B   3       4.518  10.469  20.090  1.00 18.04 LIG-0.34  N 
ATOM     10 H    THR B   3       4.524   9.678  20.427  1.00 18.04 LIG 0.16  HD
ATOM     11 O    PRO B   2       3.445  12.382  19.572  1.00 18.43 LIG-0.27  OA
BRANCH 9 12
ATOM     12  CA  THR B   3       5.800  10.880  19.501  1.00 16.71 LIG 0.21  C 
BRANCH 12 13
ATOM     13  C   THR B   3       6.349   9.797  18.568  1.00 16.11 LIG 0.20  C 
ATOM     14 OXT  THR B   3       7.387   9.989  17.927  1.00 14.78 LIG-0.65  OA
ATOM     15 O    THR B   3       5.747   8.717  18.425  1.00 14.64 LIG-0.65  OA
ENDBRANCH 12 13
BRANCH 12 16
ATOM     16  CB  THR B   3       6.858  11.238  20.585  1.00 16.70 LIG 0.15  C 
ATOM     17  CG2 THR B   3       6.528  12.585  21.226  1.00 16.85 LIG 0.04  C 
BRANCH 16 18
ATOM     18 OG1  THR B   3       6.979  10.128  21.624  1.00 17.97 LIG-0.39  OA
ATOM     19 HG1  THR B   3       7.555  10.341  22.197  1.00 17.97 LIG 0.21  HD
ENDBRANCH 16 18
ENDBRANCH 12 16
ENDBRANCH 9 12
ENDBRANCH 4 8
BRANCH 1 20
ATOM     20  CA  ALA B   1       1.127  13.713  22.959  1.00 22.08 LIG 0.27  C 
ATOM     21  CB  ALA B   1       1.736  14.985  22.435  1.00 22.59 LIG 0.05  C 
BRANCH 20 22
ATOM     22  N   ALA B   1       1.062  13.741  24.447  1.00 23.15 LIG-0.07  N 
ATOM     23 H3   ALA B   1       1.674  13.189  24.782  1.00 23.15 LIG 0.28  HD
ATOM     24 H2   ALA B   1       0.254  13.484  24.714  1.00 23.15 LIG 0.28  HD
ATOM     25 H1   ALA B   1       1.220  14.569  24.735  1.00 23.15 LIG 0.28  HD
ENDBRANCH 20 22
ENDBRANCH 1 20
TORSDOF 7
