USER: ADFR SOLUTION from run 0
USER: SCORE 21.596563 LL:  -2.781 LR: -19.258 RR:   0.000 FEB: -12.994
USER: RMSD 0.315938
USER: STATUS Locally minimized using BFGS
USER: GENES 23
USER: genes 0 Translation |==|  0.50405 0.54991 0.60981
USER: genes 1 Rotation |==|  0.51220 0.50609 0.50756 0.99976
USER: genes 2 Torsion [C]-CA--N-[C] |==|  0.68089
USER: genes 3 Torsion [N]-C--CA-[N] |==|  0.42768
USER: genes 4 Torsion [C]-CA--CB-[OG] |==|  0.50525
USER: genes 5 Torsion [CA]-CB--OG-[HG] |==|  0.70287
USER: genes 6 Torsion [C]-CA--N-[C] |==|  0.85263
USER: genes 7 Torsion [N]-C--CA-[N] |==|  0.27135
USER: genes 8 Torsion [C]-CA--N-[H1] |==|  0.51592
USER: genes 9 Torsion [N]-CA--C-[N] |==|  0.42545
USER: genes 10 Torsion [N]-CA--C-[N] |==|  0.41759
USER: genes 11 Torsion [C]-N--CA-[C] |==|  0.58011
USER: genes 12 Torsion [N]-CA--C-[O] |==|  0.43531
USER: genes 13 Torsion [N]-CA--CB-[CG] |==|  0.21746
USER: genes 14 Torsion [CA]-CB--CG-[CD] |==|  0.51521
USER: genes 15 Torsion [CB]-CG--CD-[CE] |==|  0.84447
USER: genes 16 Torsion [CG]-CD--CE-[NZ] |==|  0.50179
USER: genes 17 Torsion [CD]-CE--NZ-[HZ1] |==|  0.47392
USER: genes 18 Torsion [N]-CA--CB-[CG] |==|  0.82705
USER: genes 19 Torsion [CA]-CB--CG-[CD] |==|  0.51716
USER: genes 20 Torsion [CB]-CG--CD-[CE] |==|  0.79677
USER: genes 21 Torsion [CG]-CD--CE-[NZ] |==|  0.19729
USER: genes 22 Torsion [CD]-CE--NZ-[HZ2] |==|  0.01080
ROOT
ATOM      1  CA  LYS C   3      18.807  41.352  40.630  1.00 11.26 LIG 0.18  C 
ENDROOT
BRANCH 1 2
ATOM      2  N   LYS C   3      20.164  40.905  40.928  1.00 11.48 LIG-0.35  N 
ATOM      3 H    LYS C   3      20.519  40.413  40.319  1.00 11.48 LIG 0.16  HD
ATOM      4  C   SER C   2      20.775  41.248  42.059  1.00 14.83 LIG 0.24  C 
ATOM      5 O    SER C   2      20.246  41.953  42.916  1.00 15.12 LIG-0.27  OA
BRANCH 4 6
ATOM      6  CA  SER C   2      22.192  40.722  42.256  1.00 17.53 LIG 0.20  C 
BRANCH 6 7
ATOM      7  CB  SER C   2      22.145  39.319  42.862  1.00 18.77 LIG 0.20  C 
BRANCH 7 8
ATOM      8 OG   SER C   2      23.452  38.823  43.095  1.00 25.53 LIG-0.40  OA
ATOM      9 HG   SER C   2      23.632  38.229  42.529  1.00 25.53 LIG 0.21  HD
ENDBRANCH 7 8
ENDBRANCH 6 7
BRANCH 6 10
ATOM     10  N   SER C   2      22.919  41.621  43.145  1.00 20.39 LIG-0.34  N 
ATOM     11 H    SER C   2      23.285  41.233  43.820  1.00 20.39 LIG 0.16  HD
ATOM     12  C   ALA C   1      22.993  42.926  42.909  0.50 21.41 LIG 0.25  C 
ATOM     13 O    ALA C   1      22.466  43.462  41.933  0.50 21.88 LIG-0.27  OA
BRANCH 12 14
ATOM     14  CA  ALA C   1      23.780  43.747  43.922  0.50 22.33 LIG 0.27  C 
ATOM     15  CB  ALA C   1      23.076  45.073  44.174  0.50 23.34 LIG 0.05  C 
BRANCH 14 16
ATOM     16  N   ALA C   1      25.171  43.993  43.450  0.50 23.60 LIG-0.07  N 
ATOM     17 H1   ALA C   1      25.635  44.401  44.091  0.50 23.60 LIG 0.28  HD
ATOM     18 H2   ALA C   1      25.559  43.217  43.252  0.50 23.60 LIG 0.28  HD
ATOM     19 H3   ALA C   1      25.152  44.508  42.724  0.50 23.60 LIG 0.28  HD
ENDBRANCH 14 16
ENDBRANCH 12 14
ENDBRANCH 6 10
ENDBRANCH 4 6
ENDBRANCH 1 2
BRANCH 1 20
ATOM     20  C   LYS C   3      17.842  40.168  40.572  1.00 11.51 LIG 0.24  C 
ATOM     21 O    LYS C   3      18.249  39.043  40.296  1.00 12.69 LIG-0.27  OA
ATOM     22  N   PRO C   4      16.551  40.404  40.858  1.00 12.00 LIG-0.34  N 
ATOM     23  CA  PRO C   4      15.557  39.326  40.831  1.00 11.59 LIG 0.18  C 
ATOM     24  CD  PRO C   4      16.082  41.490  41.731  1.00 14.34 LIG 0.13  C 
ATOM     25  CB  PRO C   4      14.583  39.704  41.953  1.00 14.16 LIG 0.04  C 
ATOM     26  CG  PRO C   4      15.311  40.729  42.768  1.00 18.35 LIG 0.02  C 
BRANCH 23 27
ATOM     27  C   PRO C   4      14.796  39.136  39.529  1.00 10.16 LIG 0.24  C 
ATOM     28  N   LYS C   5      14.404  37.891  39.290  1.00 10.59 LIG-0.34  N 
ATOM     29 H    LYS C   5      14.594  37.226  39.801  1.00 10.59 LIG 0.16  HD
ATOM     30 O    PRO C   4      14.547  40.083  38.781  1.00 10.22 LIG-0.27  OA
BRANCH 28 31
ATOM     31  CA  LYS C   5      13.608  37.535  38.126  1.00 10.68 LIG 0.18  C 
BRANCH 31 32
ATOM     32  C   LYS C   5      12.764  36.319  38.497  1.00 10.68 LIG 0.20  C 
ATOM     33 O    LYS C   5      11.720  36.113  37.849  1.00 12.49 LIG-0.65  OA
ATOM     34 OXT  LYS C   5      13.165  35.579  39.426  1.00  9.63 LIG-0.65  OA
ENDBRANCH 31 32
BRANCH 31 35
ATOM     35  CB  LYS C   5      14.499  37.214  36.924  1.00 15.00 LIG 0.04  C 
BRANCH 35 36
ATOM     36  CG  LYS C   5      15.120  35.834  36.971  1.00 18.03 LIG 0.00  C 
BRANCH 36 37
ATOM     37  CD  LYS C   5      16.097  35.605  35.833  1.00 23.96 LIG 0.03  C 
BRANCH 37 38
ATOM     38  CE  LYS C   5      15.463  35.830  34.477  1.00 22.07 LIG 0.23  C 
BRANCH 38 39
ATOM     39  NZ  LYS C   5      16.454  35.579  33.396  1.00 25.25 LIG-0.08  N 
ATOM     40 HZ3  LYS C   5      16.841  34.789  33.526  1.00 25.25 LIG 0.27  HD
ATOM     41 HZ1  LYS C   5      16.040  35.580  32.608  1.00 25.25 LIG 0.27  HD
ATOM     42 HZ2  LYS C   5      17.073  36.218  33.407  1.00 25.25 LIG 0.27  HD
ENDBRANCH 38 39
ENDBRANCH 37 38
ENDBRANCH 36 37
ENDBRANCH 35 36
ENDBRANCH 31 35
ENDBRANCH 28 31
ENDBRANCH 23 27
ENDBRANCH 1 20
BRANCH 1 43
ATOM     43  CB  LYS C   3      18.787  42.107  39.301  1.00 13.47 LIG 0.04  C 
BRANCH 43 44
ATOM     44  CG  LYS C   3      19.634  43.375  39.295  1.00 17.41 LIG 0.00  C 
BRANCH 44 45
ATOM     45  CD  LYS C   3      19.460  44.163  38.006  1.00 21.64 LIG 0.03  C 
BRANCH 45 46
ATOM     46  CE  LYS C   3      20.149  43.503  36.822  1.00 23.65 LIG 0.23  C 
BRANCH 46 47
ATOM     47  NZ  LYS C   3      19.489  42.255  36.354  1.00 25.13 LIG-0.08  N 
ATOM     48 HZ1  LYS C   3      20.040  41.566  36.470  1.00 25.13 LIG 0.27  HD
ATOM     49 HZ2  LYS C   3      18.744  42.119  36.821  1.00 25.13 LIG 0.27  HD
ATOM     50 HZ3  LYS C   3      19.289  42.331  35.490  1.00 25.13 LIG 0.27  HD
ENDBRANCH 46 47
ENDBRANCH 45 46
ENDBRANCH 44 45
ENDBRANCH 43 44
ENDBRANCH 1 43
TORSDOF 21
