USER: ADFR SOLUTION from run 0
USER: SCORE 21.445750 LL:  -7.784 LR: -15.954 RR:   0.000 FEB:  -7.005
USER: RMSD 0.140252
USER: STATUS Locally minimized using BFGS
USER: GENES 32
USER: genes 0 Translation |==|  0.43626 0.42182 0.58634
USER: genes 1 Rotation |==|  0.49602 0.49938 0.49590 0.99997
USER: genes 2 Torsion [CB]-CA--N-[C] |==|  0.51151
USER: genes 3 Torsion [N]-C--CA-[N] |==|  0.44766
USER: genes 4 Torsion [C]-CA--CB-[CG] |==|  0.15345
USER: genes 5 Torsion [CA]-CB--CG-[OD2] |==|  0.66227
USER: genes 6 Torsion [C]-CA--N-[C] |==|  0.82883
USER: genes 7 Torsion [N]-C--CA-[N] |==|  0.41355
USER: genes 8 Torsion [C]-CA--N-[C] |==|  0.80875
USER: genes 9 Torsion [N]-C--CA-[N] |==|  0.48105
USER: genes 10 Torsion [C]-CA--N-[H3] |==|  0.26948
USER: genes 11 Torsion [C]-CA--CB-[CG] |==|  0.86855
USER: genes 12 Torsion [CA]-CB--CG-[CD] |==|  0.77735
USER: genes 13 Torsion [CB]-CG--CD-[OE2] |==|  0.63568
USER: genes 14 Torsion [C]-CA--CB-[CG] |==|  0.44967
USER: genes 15 Torsion [CA]-CB--CG-[CD2] |==|  0.81017
USER: genes 16 Torsion [N]-CA--CB-[CG] |==|  0.51661
USER: genes 17 Torsion [CA]-CB--CG-[CD] |==|  0.48503
USER: genes 18 Torsion [CB]-CG--CD-[CE] |==|  0.53026
USER: genes 19 Torsion [CG]-CD--CE-[NZ] |==|  0.16550
USER: genes 20 Torsion [CD]-CE--NZ-[HZ2] |==|  0.78343
USER: genes 21 Torsion [N]-CA--C-[N] |==|  0.89985
USER: genes 22 Torsion [C]-N--CA-[C] |==|  0.71257
USER: genes 23 Torsion [N]-CA--C-[N] |==|  0.02659
USER: genes 24 Torsion [C]-N--CA-[CB] |==|  0.45068
USER: genes 25 Torsion [N]-CA--C-[N] |==|  0.43707
USER: genes 26 Torsion [C]-N--CA-[CB] |==|  0.86881
USER: genes 27 Torsion [N]-CA--CB-[OG] |==|  0.82096
USER: genes 28 Torsion [CA]-CB--OG-[HG] |==|  0.49969
USER: genes 29 Torsion [N]-CA--C-[O] |==|  0.27566
USER: genes 30 Torsion [N]-CA--CB-[CG] |==|  0.86828
USER: genes 31 Torsion [CA]-CB--CG-[CD1] |==|  0.29987
ROOT
ATOM      1  CA  LYS P   4       1.768  55.791  82.782  1.00 24.08 LIG 0.18  C 
ENDROOT
BRANCH 1 2
ATOM      2  N   LYS P   4       2.370  55.468  81.491  1.00 23.78 LIG-0.35  N 
ATOM      3 H    LYS P   4       2.191  54.678  81.206  1.00 23.78 LIG 0.16  HD
ATOM      4  C   ASP P   3       3.126  56.341  80.831  1.00 23.78 LIG 0.24  C 
ATOM      5 O    ASP P   3       3.392  57.464  81.268  1.00 23.70 LIG-0.27  OA
BRANCH 4 6
ATOM      6  CA  ASP P   3       3.686  55.867  79.496  1.00 23.69 LIG 0.19  C 
BRANCH 6 7
ATOM      7  CB  ASP P   3       4.874  54.932  79.746  1.00 23.04 LIG 0.15  C 
BRANCH 7 8
ATOM      8  CG  ASP P   3       4.524  53.760  80.651  1.00 22.74 LIG 0.17  C 
ATOM      9 OD2  ASP P   3       5.166  53.610  81.714  1.00 21.45 LIG-0.65  OA
ATOM     10 OD1  ASP P   3       3.600  52.990  80.295  1.00 22.26 LIG-0.65  OA
ENDBRANCH 7 8
ENDBRANCH 6 7
BRANCH 6 11
ATOM     11  N   ASP P   3       4.106  57.001  78.674  1.00 24.40 LIG-0.35  N 
ATOM     12  C   LEU P   2       3.257  57.939  78.262  1.00 25.13 LIG 0.24  C 
ATOM     13 O    LEU P   2       2.058  57.929  78.536  1.00 24.84 LIG-0.27  OA
ATOM     14 H    ASP P   3       4.945  57.004  78.485  1.00 24.40 LIG 0.16  HD
BRANCH 12 15
ATOM     15  CA  LEU P   2       3.862  59.059  77.419  1.00 25.73 LIG 0.18  C 
BRANCH 15 16
ATOM     16  N   LEU P   2       2.929  59.606  76.436  1.00 26.50 LIG-0.35  N 
ATOM     17 H    LEU P   2       2.675  60.412  76.602  1.00 26.50 LIG 0.16  HD
ATOM     18  C   GLU P   1       2.517  58.908  75.382  1.00 27.13 LIG 0.25  C 
ATOM     19 O    GLU P   1       2.875  57.749  75.159  1.00 26.76 LIG-0.27  OA
BRANCH 18 20
ATOM     20  CA  GLU P   1       1.549  59.620  74.434  1.00 27.85 LIG 0.28  C 
BRANCH 20 21
ATOM     21  N   GLU P   1       1.309  58.783  73.226  1.00 27.86 LIG-0.07  N 
ATOM     22 H2   GLU P   1       1.988  58.218  73.115  1.00 27.86 LIG 0.28  HD
ATOM     23 H3   GLU P   1       0.555  58.321  73.329  1.00 27.86 LIG 0.28  HD
ATOM     24 H1   GLU P   1       1.240  59.307  72.509  1.00 27.86 LIG 0.28  HD
ENDBRANCH 20 21
BRANCH 20 25
ATOM     25  CB  GLU P   1       0.227  59.900  75.158  1.00 28.74 LIG 0.05  C 
BRANCH 25 26
ATOM     26  CG  GLU P   1      -0.343  58.712  75.928  1.00 29.95 LIG 0.12  C 
BRANCH 26 27
ATOM     27  CD  GLU P   1      -1.079  57.719  75.044  1.00 30.73 LIG 0.17  C 
ATOM     28 OE2  GLU P   1      -2.210  57.341  75.399  1.00 30.75 LIG-0.65  OA
ATOM     29 OE1  GLU P   1      -0.528  57.305  74.003  1.00 31.83 LIG-0.65  OA
ENDBRANCH 26 27
ENDBRANCH 25 26
ENDBRANCH 20 25
ENDBRANCH 18 20
ENDBRANCH 15 16
BRANCH 15 30
ATOM     30  CB  LEU P   2       4.363  60.168  78.350  1.00 26.14 LIG 0.04  C 
BRANCH 30 31
ATOM     31  CG  LEU P   2       5.368  61.176  77.780  1.00 26.56 LIG-0.02  C 
ATOM     32  CD2 LEU P   2       6.691  60.479  77.517  1.00 26.97 LIG 0.01  C 
ATOM     33  CD1 LEU P   2       5.555  62.330  78.772  1.00 26.91 LIG 0.01  C 
ENDBRANCH 30 31
ENDBRANCH 15 30
ENDBRANCH 12 15
ENDBRANCH 6 11
ENDBRANCH 4 6
ENDBRANCH 1 2
BRANCH 1 34
ATOM     34  CB  LYS P   4       1.042  54.564  83.347  1.00 23.66 LIG 0.04  C 
BRANCH 34 35
ATOM     35  CG  LYS P   4       0.242  54.806  84.637  1.00 23.42 LIG 0.00  C 
BRANCH 35 36
ATOM     36  CD  LYS P   4      -0.540  53.545  85.021  1.00 22.86 LIG 0.03  C 
BRANCH 36 37
ATOM     37  CE  LYS P   4      -1.563  53.795  86.141  1.00 22.94 LIG 0.23  C 
BRANCH 37 38
ATOM     38  NZ  LYS P   4      -2.578  54.829  85.758  1.00 22.16 LIG-0.08  N 
ATOM     39 HZ3  LYS P   4      -2.833  54.697  84.916  1.00 22.16 LIG 0.27  HD
ATOM     40 HZ1  LYS P   4      -3.285  54.764  86.295  1.00 22.16 LIG 0.27  HD
ATOM     41 HZ2  LYS P   4      -2.220  55.640  85.835  1.00 22.16 LIG 0.27  HD
ENDBRANCH 37 38
ENDBRANCH 36 37
ENDBRANCH 35 36
ENDBRANCH 34 35
ENDBRANCH 1 34
BRANCH 1 42
ATOM     42  C   LYS P   4       2.798  56.257  83.807  1.00 24.65 LIG 0.24  C 
ATOM     43 O    LYS P   4       2.520  57.140  84.612  1.00 24.26 LIG-0.27  OA
ATOM     44  N   TRP P   5       3.989  55.674  83.767  1.00 25.14 LIG-0.35  N 
ATOM     45 H    TRP P   5       4.226  55.087  83.185  1.00 25.14 LIG 0.16  HD
BRANCH 44 46
ATOM     46  CA  TRP P   5       5.009  56.010  84.752  1.00 26.12 LIG 0.18  C 
BRANCH 46 47
ATOM     47  C   TRP P   5       6.141  56.929  84.291  1.00 26.95 LIG 0.24  C 
ATOM     48 O    TRP P   5       7.111  57.120  85.015  1.00 26.69 LIG-0.27  OA
ATOM     49  N   ALA P   6       6.006  57.506  83.100  1.00 28.22 LIG-0.35  N 
ATOM     50 H    ALA P   6       5.330  57.391  82.582  1.00 28.22 LIG 0.16  HD
BRANCH 49 51
ATOM     51  CA  ALA P   6       7.029  58.402  82.571  1.00 29.75 LIG 0.17  C 
ATOM     52  CB  ALA P   6       6.856  58.567  81.069  1.00 29.57 LIG 0.04  C 
BRANCH 51 53
ATOM     53  C   ALA P   6       6.996  59.768  83.241  1.00 31.01 LIG 0.24  C 
ATOM     54  N   SER P   7       8.130  60.462  83.182  1.00 32.38 LIG-0.34  N 
ATOM     55 H    SER P   7       8.842  60.162  82.803  1.00 32.38 LIG 0.16  HD
ATOM     56 O    ALA P   6       5.972  60.177  83.787  1.00 31.33 LIG-0.27  OA
BRANCH 54 57
ATOM     57  CA  SER P   7       8.292  61.796  83.749  1.00 33.79 LIG 0.21  C 
BRANCH 57 58
ATOM     58  CB  SER P   7       7.115  62.692  83.345  1.00 34.23 LIG 0.20  C 
BRANCH 58 59
ATOM     59 OG   SER P   7       7.103  62.891  81.942  1.00 34.80 LIG-0.40  OA
ATOM     60 HG   SER P   7       6.453  63.381  81.733  1.00 34.80 LIG 0.21  HD
ENDBRANCH 58 59
ENDBRANCH 57 58
BRANCH 57 61
ATOM     61  C   SER P   7       8.426  61.777  85.259  1.00 34.43 LIG 0.20  C 
ATOM     62 O    SER P   7       9.580  61.856  85.748  1.00 34.68 LIG-0.65  OA
ATOM     63 OXT  SER P   7       7.374  61.674  85.928  1.00 35.29 LIG-0.65  OA
ENDBRANCH 57 61
ENDBRANCH 54 57
ENDBRANCH 51 53
ENDBRANCH 49 51
ENDBRANCH 46 47
BRANCH 46 64
ATOM     64  CB  TRP P   5       5.586  54.706  85.317  1.00 25.45 LIG 0.07  C 
BRANCH 64 65
ATOM     65  CG  TRP P   5       4.503  53.743  85.703  1.00 25.18 LIG-0.03  A 
ATOM     66  CD1 TRP P   5       4.158  52.584  85.060  1.00 25.03 LIG 0.10  A 
ATOM     67  NE1 TRP P   5       3.065  52.011  85.668  1.00 24.37 LIG-0.36  N 
ATOM     68  CE2 TRP P   5       2.684  52.796  86.724  1.00 24.69 LIG 0.04  A 
ATOM     69 HE1  TRP P   5       2.684  51.280  85.426  1.00 24.37 LIG 0.17  HD
ATOM     70  CZ2 TRP P   5       1.635  52.633  87.636  1.00 24.50 LIG 0.03  A 
ATOM     71  CD2 TRP P   5       3.571  53.899  86.775  1.00 24.80 LIG-0.00  A 
ATOM     72  CH2 TRP P   5       1.483  53.595  88.610  1.00 24.87 LIG 0.00  A 
ATOM     73  CZ3 TRP P   5       2.348  54.702  88.689  1.00 24.98 LIG 0.00  A 
ATOM     74  CE3 TRP P   5       3.397  54.863  87.777  1.00 25.01 LIG 0.01  A 
ENDBRANCH 64 65
ENDBRANCH 46 64
ENDBRANCH 44 46
ENDBRANCH 1 42
TORSDOF 30
