USER: ADFR SOLUTION from run 0
USER: SCORE 12.298528 LL:  -1.758 LR: -10.753 RR:   0.000 FEB:  -8.068
USER: RMSD 0.702460
USER: STATUS Locally minimized using BFGS
USER: GENES 11
USER: genes 0 Translation |==|  0.54576 0.53206 0.46227
USER: genes 1 Rotation |==|  0.49421 0.46885 0.54984 0.99650
USER: genes 2 Torsion [N]-CA--C-[N] |==|  0.48333
USER: genes 3 Torsion [N]-CA--C-[O] |==|  0.35463
USER: genes 4 Torsion [C]-CA--CB-[CG] |==|  0.46539
USER: genes 5 Torsion [CA]-CB--CG-[CD] |==|  0.84985
USER: genes 6 Torsion [CB]-CG--CD-[NE] |==|  0.54857
USER: genes 7 Torsion [CG]-CD--NE-[CZ] |==|  0.77867
USER: genes 8 Torsion [C]-CA--N-[C] |==|  0.58324
USER: genes 9 Torsion [N]-C--CA-[CB] |==|  0.85563
USER: genes 10 Torsion [N]-C--CA-[N] |==|  0.54982
ROOT
ATOM      1  CA  ARG B   4      -2.333  14.117  11.950  0.80 38.14 LIG 0.18  C 
ENDROOT
BRANCH 1 2
ATOM      2  C   ARG B   4      -1.901  13.858  10.490  0.80 39.25 LIG 0.24  C 
ATOM      3 O    ARG B   4      -0.847  13.240  10.266  0.80 39.33 LIG-0.27  OA
ATOM      4  N   PRO B   5      -2.752  14.219   9.492  0.80 40.23 LIG-0.34  N 
ATOM      5  CA  PRO B   5      -2.394  14.003   8.080  0.80 40.82 LIG 0.19  C 
ATOM      6  CD  PRO B   5      -4.145  14.698   9.594  0.80 40.52 LIG 0.13  C 
ATOM      7  CB  PRO B   5      -3.699  14.335   7.334  0.80 40.82 LIG 0.04  C 
ATOM      8  CG  PRO B   5      -4.771  14.106   8.357  0.80 40.73 LIG 0.02  C 
BRANCH 5 9
ATOM      9  C   PRO B   5      -1.266  14.956   7.652  0.80 41.28 LIG 0.20  C 
ATOM     10 O    PRO B   5      -0.241  14.472   7.104  0.80 41.33 LIG-0.65  OA
ATOM     11 OXT  PRO B   5      -1.433  16.184   7.871  0.80 41.80 LIG-0.65  OA
ENDBRANCH 5 9
ENDBRANCH 1 2
BRANCH 1 12
ATOM     12  CB  ARG B   4      -2.445  15.629  12.229  0.80 37.56 LIG 0.04  C 
BRANCH 12 13
ATOM     13  CG  ARG B   4      -3.145  16.020  13.536  0.80 36.72 LIG 0.02  C 
BRANCH 13 14
ATOM     14  CD  ARG B   4      -4.521  15.391  13.649  0.80 36.17 LIG 0.14  C 
BRANCH 14 15
ATOM     15  NE  ARG B   4      -5.370  16.038  14.649  0.80 35.68 LIG-0.23  N 
ATOM     16 HE   ARG B   4      -5.961  16.597  14.371  0.80 35.68 LIG 0.18  HD
ATOM     17  CZ  ARG B   4      -5.292  15.821  15.961  0.80 35.42 LIG 0.67  C 
ATOM     18  NH2 ARG B   4      -6.135  16.428  16.786  0.80 34.99 LIG-0.23  N 
ATOM     19  NH1 ARG B   4      -4.396  14.975  16.451  0.80 35.13 LIG-0.23  N 
ATOM     20 2HH2 ARG B   4      -6.084  16.287  17.633  0.80 34.99 LIG 0.17  HD
ATOM     21 1HH2 ARG B   4      -6.731  16.962  16.474  0.80 34.99 LIG 0.17  HD
ATOM     22 2HH1 ARG B   4      -4.352  14.841  17.299  0.80 35.13 LIG 0.17  HD
ATOM     23 1HH1 ARG B   4      -3.859  14.562  15.922  0.80 35.13 LIG 0.17  HD
ENDBRANCH 14 15
ENDBRANCH 13 14
ENDBRANCH 12 13
ENDBRANCH 1 12
BRANCH 1 24
ATOM     24  N   ARG B   4      -1.316  13.511  12.813  0.80 37.32 LIG-0.35  N 
ATOM     25 H    ARG B   4      -0.532  13.502  12.461  0.80 37.32 LIG 0.16  HD
ATOM     26  C   PRO B   3      -1.568  13.019  14.027  0.80 36.53 LIG 0.24  C 
ATOM     27 O    PRO B   3      -2.697  13.012  14.536  0.80 36.51 LIG-0.27  OA
BRANCH 26 28
ATOM     28  CA  PRO B   3      -0.365  12.423  14.769  0.80 35.73 LIG 0.18  C 
ATOM     29  CB  PRO B   3       0.359  11.404  13.898  0.80 35.57 LIG 0.04  C 
ATOM     30  CG  PRO B   3      -0.452  10.189  14.092  0.80 35.32 LIG 0.02  C 
ATOM     31  CD  PRO B   3      -0.658  10.178  15.597  0.80 35.29 LIG 0.13  C 
ATOM     32  N   PRO B   3      -0.758  11.610  15.925  0.80 35.22 LIG-0.34  N 
ATOM     33  C   GLY B   2      -1.115  12.054  17.149  0.80 34.72 LIG 0.25  C 
ATOM     34 O    GLY B   2      -1.134  13.260  17.452  0.80 34.22 LIG-0.27  OA
BRANCH 33 35
ATOM     35  CA  GLY B   2      -1.485  11.015  18.183  0.80 34.38 LIG 0.47  C 
ATOM     36  N   GLY B   2      -2.235  11.632  19.276  0.80 34.02 LIG 0.61  N 
ENDBRANCH 33 35
ENDBRANCH 26 28
ENDBRANCH 1 24
TORSDOF 9
