USER: ADFR SOLUTION from run 0
USER: SCORE 12.530705 LL:  -3.707 LR:  -9.893 RR:   0.000 FEB:  -2.734
USER: RMSD 0.463349
USER: STATUS Locally minimized using BFGS
USER: GENES 26
USER: genes 0 Translation |==|  0.37972 0.50579 0.54846
USER: genes 1 Rotation |==|  0.50064 0.49370 0.52026 0.99955
USER: genes 2 Torsion [N]-CA--C-[N] |==|  0.43815
USER: genes 3 Torsion [C]-N--CA-[CB] |==|  0.18480
USER: genes 4 Torsion [N]-CA--CB-[OG] |==|  0.20570
USER: genes 5 Torsion [CA]-CB--OG-[HG] |==|  0.23255
USER: genes 6 Torsion [N]-CA--C-[N] |==|  0.50730
USER: genes 7 Torsion [C]-N--CA-[C] |==|  0.76846
USER: genes 8 Torsion [N]-CA--C-[N] |==|  0.47016
USER: genes 9 Torsion [C]-N--CA-[C] |==|  0.82422
USER: genes 10 Torsion [N]-CA--C-[O] |==|  0.38874
USER: genes 11 Torsion [N]-CA--CB-[OG] |==|  0.16233
USER: genes 12 Torsion [CA]-CB--OG-[HG] |==|  0.70817
USER: genes 13 Torsion [N]-CA--CB-[OG] |==|  0.17595
USER: genes 14 Torsion [CA]-CB--OG-[HG] |==|  0.49891
USER: genes 15 Torsion [N]-C--CA-[N] |==|  0.37781
USER: genes 16 Torsion [C]-CA--N-[C] |==|  0.74544
USER: genes 17 Torsion [N]-C--CA-[N] |==|  0.36556
USER: genes 18 Torsion [C]-CA--CB-[CG] |==|  0.45022
USER: genes 19 Torsion [CA]-CB--CG-[CD] |==|  0.84343
USER: genes 20 Torsion [CB]-CG--CD-[OE1] |==|  0.91130
USER: genes 21 Torsion [C]-CA--CB-[CG] |==|  0.47171
USER: genes 22 Torsion [CA]-CB--CG-[CD] |==|  0.74329
USER: genes 23 Torsion [CB]-CG--CD-[CE] |==|  0.82162
USER: genes 24 Torsion [CG]-CD--CE-[NZ] |==|  0.49509
USER: genes 25 Torsion [CD]-CE--NZ-[HZ3] |==|  0.16666
ROOT
ATOM      1  C   LYS B 143      32.125 -16.778  -6.403  1.00 34.55 LIG 0.24  C 
ATOM      2 O    LYS B 143      32.923 -17.101  -7.285  1.00 35.84 LIG-0.27  OA
ATOM      3  N   PRO B 144      31.560 -15.560  -6.369  1.00 31.41 LIG-0.34  N 
ATOM      4  CA  PRO B 144      31.896 -14.568  -7.392  1.00 28.99 LIG 0.18  C 
ATOM      5  CB  PRO B 144      30.796 -13.524  -7.230  1.00 27.49 LIG 0.04  C 
ATOM      6  CG  PRO B 144      30.560 -13.541  -5.766  1.00 29.54 LIG 0.02  C 
ATOM      7  CD  PRO B 144      30.541 -15.031  -5.446  1.00 30.41 LIG 0.13  C 
ENDROOT
BRANCH 4 8
ATOM      8  C   PRO B 144      33.284 -13.988  -7.156  1.00 27.24 LIG 0.24  C 
ATOM      9  N   SER B 145      33.885 -13.450  -8.215  1.00 24.69 LIG-0.34  N 
ATOM     10 H    SER B 145      33.533 -13.422  -8.999  1.00 24.69 LIG 0.16  HD
ATOM     11 O    PRO B 144      33.792 -14.027  -6.039  1.00 26.33 LIG-0.27  OA
BRANCH 9 12
ATOM     12  CA  SER B 145      35.211 -12.852  -8.136  1.00 22.76 LIG 0.20  C 
BRANCH 12 13
ATOM     13  CB  SER B 145      36.258 -13.924  -7.836  1.00 22.87 LIG 0.20  C 
BRANCH 13 14
ATOM     14 OG   SER B 145      36.501 -14.724  -8.984  1.00 23.93 LIG-0.40  OA
ATOM     15 HG   SER B 145      37.062 -14.342  -9.478  1.00 23.93 LIG 0.21  HD
ENDBRANCH 13 14
ENDBRANCH 12 13
BRANCH 12 16
ATOM     16  C   SER B 145      35.534 -12.228  -9.483  1.00 23.07 LIG 0.24  C 
ATOM     17 O    SER B 145      34.708 -12.244 -10.402  1.00 22.80 LIG-0.27  OA
ATOM     18  N   SER B 146      36.739 -11.682  -9.602  1.00 21.84 LIG-0.34  N 
ATOM     19 H    SER B 146      37.318 -11.641  -8.968  1.00 21.84 LIG 0.16  HD
BRANCH 18 20
ATOM     20  CA  SER B 146      37.172 -11.095 -10.861  1.00 21.58 LIG 0.20  C 
BRANCH 20 21
ATOM     21  C   SER B 146      37.689 -12.261 -11.701  1.00 21.23 LIG 0.24  C 
ATOM     22 O    SER B 146      37.849 -13.373 -11.189  1.00 18.65 LIG-0.27  OA
ATOM     23  N   SER B 147      37.941 -12.016 -12.983  1.00 20.83 LIG-0.34  N 
ATOM     24 H    SER B 147      37.837 -11.248 -13.355  1.00 20.83 LIG 0.16  HD
BRANCH 23 25
ATOM     25  CA  SER B 147      38.426 -13.060 -13.880  1.00 21.16 LIG 0.21  C 
BRANCH 25 26
ATOM     26  C   SER B 147      39.799 -13.594 -13.470  1.00 22.63 LIG 0.20  C 
ATOM     27 O    SER B 147      39.997 -14.823 -13.566  1.00 24.48 LIG-0.65  OA
ATOM     28 OXT  SER B 147      40.662 -12.783 -13.072  1.00 22.21 LIG-0.65  OA
ENDBRANCH 25 26
BRANCH 25 29
ATOM     29  CB  SER B 147      38.482 -12.538 -15.320  1.00 20.11 LIG 0.20  C 
BRANCH 29 30
ATOM     30 OG   SER B 147      39.320 -11.403 -15.426  1.00 18.07 LIG-0.40  OA
ATOM     31 HG   SER B 147      38.848 -10.713 -15.507  1.00 18.07 LIG 0.21  HD
ENDBRANCH 29 30
ENDBRANCH 25 29
ENDBRANCH 23 25
ENDBRANCH 20 21
BRANCH 20 32
ATOM     32  CB  SER B 146      38.290 -10.079 -10.624  1.00 20.68 LIG 0.20  C 
BRANCH 32 33
ATOM     33 OG   SER B 146      39.432 -10.714 -10.087  1.00 26.78 LIG-0.40  OA
ATOM     34 HG   SER B 146      40.038 -10.146  -9.968  1.00 26.78 LIG 0.21  HD
ENDBRANCH 32 33
ENDBRANCH 20 32
ENDBRANCH 18 20
ENDBRANCH 12 16
ENDBRANCH 9 12
ENDBRANCH 4 8
BRANCH 1 35
ATOM     35  CA  LYS B 143      31.735 -17.771  -5.309  1.00 37.18 LIG 0.18  C 
BRANCH 35 36
ATOM     36  N   LYS B 143      31.499 -19.076  -5.917  1.00 37.14 LIG-0.35  N 
ATOM     37  C   GLU B 142      30.293 -19.455  -6.328  1.00 37.51 LIG 0.26  C 
ATOM     38 O    GLU B 142      29.296 -18.743  -6.222  1.00 36.88 LIG-0.27  OA
ATOM     39 H    LYS B 143      32.202 -19.568  -5.982  1.00 37.14 LIG 0.16  HD
BRANCH 37 40
ATOM     40  CA  GLU B 142      30.203 -20.843  -6.954  1.00 37.87 LIG 0.40  C 
ATOM     41  N   GLU B 142      29.083 -21.653  -6.393  1.00 38.42 LIG 0.61  N 
BRANCH 40 42
ATOM     42  CB  GLU B 142      30.042 -20.695  -8.469  1.00 37.65 LIG 0.06  C 
BRANCH 42 43
ATOM     43  CG  GLU B 142      30.361 -21.944  -9.268  1.00 37.75 LIG 0.12  C 
BRANCH 43 44
ATOM     44  CD  GLU B 142      31.763 -22.465  -9.005  1.00 38.95 LIG 0.17  C 
ATOM     45 OE1  GLU B 142      32.669 -21.647  -8.734  1.00 40.26 LIG-0.65  OA
ATOM     46 OE2  GLU B 142      31.964 -23.696  -9.083  1.00 39.11 LIG-0.65  OA
ENDBRANCH 43 44
ENDBRANCH 42 43
ENDBRANCH 40 42
ENDBRANCH 37 40
ENDBRANCH 35 36
BRANCH 35 47
ATOM     47  CB  LYS B 143      32.865 -17.867  -4.280  1.00 39.83 LIG 0.04  C 
BRANCH 47 48
ATOM     48  CG  LYS B 143      32.505 -18.636  -3.012  1.00 44.30 LIG 0.00  C 
BRANCH 48 49
ATOM     49  CD  LYS B 143      31.981 -17.707  -1.920  1.00 47.73 LIG 0.03  C 
BRANCH 49 50
ATOM     50  CE  LYS B 143      33.068 -16.728  -1.473  1.00 49.61 LIG 0.23  C 
BRANCH 50 51
ATOM     51  NZ  LYS B 143      32.597 -15.767  -0.434  1.00 50.46 LIG-0.08  N 
ATOM     52 HZ2  LYS B 143      31.918 -15.289  -0.756  1.00 50.46 LIG 0.27  HD
ATOM     53 HZ3  LYS B 143      32.326 -16.217   0.286  1.00 50.46 LIG 0.27  HD
ATOM     54 HZ1  LYS B 143      33.263 -15.222  -0.208  1.00 50.46 LIG 0.27  HD
ENDBRANCH 50 51
ENDBRANCH 49 50
ENDBRANCH 48 49
ENDBRANCH 47 48
ENDBRANCH 35 47
ENDBRANCH 1 35
TORSDOF 24
