USER: ADFR SOLUTION from run 0
USER: SCORE 12.330948 LL:  -3.907 LR: -11.707 RR:   0.000 FEB:  -6.338
USER: RMSD 0.159999
USER: STATUS Locally minimized using BFGS
USER: GENES 20
USER: genes 0 Translation |==|  0.46578 0.47068 0.43859
USER: genes 1 Rotation |==|  0.49310 0.49575 0.49531 0.99991
USER: genes 2 Torsion [CB]-CA--N-[C] |==|  0.38373
USER: genes 3 Torsion [N]-C--CA-[N] |==|  0.36432
USER: genes 4 Torsion [C]-CA--CB-[CG] |==|  0.15999
USER: genes 5 Torsion [CA]-CB--CG-[OD1] |==|  0.15849
USER: genes 6 Torsion [C]-CA--N-[C] |==|  0.77310
USER: genes 7 Torsion [N]-C--CA-[N] |==|  0.28220
USER: genes 8 Torsion [C]-CA--CB-[CG] |==|  0.20012
USER: genes 9 Torsion [CA]-CB--CG-[OD1] |==|  0.95941
USER: genes 10 Torsion [N]-CA--CB-[CG] |==|  0.85171
USER: genes 11 Torsion [CA]-CB--CG-[CD2] |==|  0.85816
USER: genes 12 Torsion [N]-CA--C-[N] |==|  0.98949
USER: genes 13 Torsion [C]-N--CA-[CB] |==|  0.33333
USER: genes 14 Torsion [N]-CA--CB-[CG] |==|  0.79631
USER: genes 15 Torsion [CA]-CB--CG-[CD2] |==|  0.78693
USER: genes 16 Torsion [CE2]-CZ--OH-[HH] |==|  0.01618
USER: genes 17 Torsion [N]-CA--C-[N] |==|  0.85626
USER: genes 18 Torsion [C]-N--CA-[C] |==|  0.76014
USER: genes 19 Torsion [N]-CA--C-[O] |==|  0.99423
ROOT
ATOM      1  CA  LEU B 804      49.208  52.897  20.708  1.00 31.72 LIG 0.18  C 
ENDROOT
BRANCH 1 2
ATOM      2  N   LEU B 804      50.279  52.368  21.562  1.00 32.47 LIG-0.35  N 
ATOM      3 H    LEU B 804      50.095  51.603  21.908  1.00 32.47 LIG 0.16  HD
ATOM      4  C   ASP B 803      51.426  53.006  21.783  1.00 36.20 LIG 0.24  C 
ATOM      5 O    ASP B 803      51.693  54.144  21.355  1.00 34.88 LIG-0.27  OA
BRANCH 4 6
ATOM      6  CA  ASP B 803      52.442  52.218  22.624  1.00 38.58 LIG 0.19  C 
BRANCH 6 7
ATOM      7  CB  ASP B 803      52.461  52.722  24.060  1.00 39.00 LIG 0.15  C 
BRANCH 7 8
ATOM      8  CG  ASP B 803      51.076  52.630  24.709  1.00 41.67 LIG 0.17  C 
ATOM      9 OD1  ASP B 803      50.513  51.496  24.747  1.00 44.54 LIG-0.65  OA
ATOM     10 OD2  ASP B 803      50.543  53.688  25.134  1.00 44.60 LIG-0.65  OA
ENDBRANCH 7 8
ENDBRANCH 6 7
BRANCH 6 11
ATOM     11  N   ASP B 803      53.751  52.229  21.989  1.00 40.89 LIG-0.34  N 
ATOM     12  C   ASP B 802      54.003  51.365  21.005  1.00 43.36 LIG 0.26  C 
ATOM     13 O    ASP B 802      53.152  50.559  20.598  1.00 44.71 LIG-0.27  OA
ATOM     14 H    ASP B 803      54.307  52.811  22.293  1.00 40.89 LIG 0.16  HD
BRANCH 12 15
ATOM     15  CA  ASP B 802      55.408  51.370  20.399  1.00 44.06 LIG 0.41  C 
ATOM     16  N   ASP B 802      56.187  50.233  20.949  1.00 45.51 LIG 0.61  N 
BRANCH 15 17
ATOM     17  CB  ASP B 802      55.343  51.256  18.872  1.00 45.52 LIG 0.16  C 
BRANCH 17 18
ATOM     18  CG  ASP B 802      54.838  52.532  18.205  1.00 48.04 LIG 0.17  C 
ATOM     19 OD1  ASP B 802      54.271  53.428  18.889  1.00 55.65 LIG-0.65  OA
ATOM     20 OD2  ASP B 802      55.018  52.636  16.974  1.00 54.24 LIG-0.65  OA
ENDBRANCH 17 18
ENDBRANCH 15 17
ENDBRANCH 12 15
ENDBRANCH 6 11
ENDBRANCH 4 6
ENDBRANCH 1 2
BRANCH 1 21
ATOM     21  CB  LEU B 804      48.647  51.752  19.855  1.00 30.53 LIG 0.04  C 
BRANCH 21 22
ATOM     22  CG  LEU B 804      49.701  50.971  19.050  1.00 30.66 LIG-0.02  C 
ATOM     23  CD1 LEU B 804      49.023  49.961  18.137  1.00 31.81 LIG 0.01  C 
ATOM     24  CD2 LEU B 804      50.582  51.908  18.252  1.00 30.59 LIG 0.01  C 
ENDBRANCH 21 22
ENDBRANCH 1 21
BRANCH 1 25
ATOM     25  C   LEU B 804      48.056  53.560  21.477  1.00 30.12 LIG 0.24  C 
ATOM     26 O    LEU B 804      47.163  54.113  20.874  1.00 28.94 LIG-0.27  OA
ATOM     27  N   TYR B 805      48.103  53.519  22.806  1.00 29.37 LIG-0.35  N 
ATOM     28 H    TYR B 805      48.804  53.300  23.253  1.00 29.37 LIG 0.16  HD
BRANCH 27 29
ATOM     29  CA  TYR B 805      46.940  53.851  23.634  1.00 29.00 LIG 0.18  C 
BRANCH 29 30
ATOM     30  CB  TYR B 805      46.560  52.636  24.499  1.00 27.91 LIG 0.07  C 
BRANCH 30 31
ATOM     31  CG  TYR B 805      45.917  51.602  23.602  1.00 26.10 LIG-0.06  A 
ATOM     32  CD2 TYR B 805      44.617  51.760  23.176  1.00 24.65 LIG 0.01  A 
ATOM     33  CE2 TYR B 805      44.049  50.866  22.276  1.00 24.72 LIG 0.04  A 
ATOM     34  CZ  TYR B 805      44.812  49.824  21.771  1.00 22.85 LIG 0.07  A 
ATOM     35  CE1 TYR B 805      46.095  49.647  22.195  1.00 24.79 LIG 0.04  A 
ATOM     36  CD1 TYR B 805      46.650  50.552  23.080  1.00 25.09 LIG 0.01  A 
BRANCH 34 37
ATOM     37 OH   TYR B 805      44.233  48.898  20.934  1.00 25.16 LIG-0.36  OA
ATOM     38 HH   TYR B 805      43.446  49.133  20.757  1.00 25.16 LIG 0.22  HD
ENDBRANCH 34 37
ENDBRANCH 30 31
ENDBRANCH 29 30
BRANCH 29 39
ATOM     39  C   TYR B 805      47.100  55.105  24.494  1.00 29.85 LIG 0.24  C 
ATOM     40 O    TYR B 805      46.231  56.022  24.462  1.00 30.08 LIG-0.27  OA
ATOM     41  N   GLY B 806      48.193  55.136  25.239  1.00 28.51 LIG-0.35  N 
ATOM     42 H    GLY B 806      48.849  54.588  25.149  1.00 28.51 LIG 0.16  HD
BRANCH 41 43
ATOM     43  CA  GLY B 806      48.373  56.114  26.284  1.00 29.14 LIG 0.23  C 
BRANCH 43 44
ATOM     44  C   GLY B 806      48.958  57.395  25.776  1.00 28.84 LIG 0.19  C 
ATOM     45 O    GLY B 806      49.282  57.556  24.589  1.00 28.96 LIG-0.65  OA
ATOM     46 OXT  GLY B 806      49.134  58.283  26.595  1.00 29.15 LIG-0.65  OA
ENDBRANCH 43 44
ENDBRANCH 41 43
ENDBRANCH 29 39
ENDBRANCH 27 29
ENDBRANCH 1 25
TORSDOF 18
