USER: ADFR SOLUTION from run 0
USER: SCORE 17.504781 LL:  -4.823 LR: -16.041 RR:   0.000 FEB:  -7.688
USER: RMSD 0.260593
USER: STATUS Locally minimized using BFGS
USER: GENES 30
USER: genes 0 Translation |==|  0.49846 0.61995 0.52562
USER: genes 1 Rotation |==|  0.49980 0.49832 0.50343 0.99999
USER: genes 2 Torsion [CB]-CA--N-[C] |==|  0.47092
USER: genes 3 Torsion [N]-C--CA-[N] |==|  0.43056
USER: genes 4 Torsion [C]-CA--N-[C] |==|  0.79064
USER: genes 5 Torsion [N]-C--CA-[N] |==|  0.39773
USER: genes 6 Torsion [C]-CA--CB-[CG] |==|  0.45142
USER: genes 7 Torsion [CA]-CB--CG-[CD] |==|  0.50487
USER: genes 8 Torsion [CB]-CG--CD-[OE1] |==|  0.41126
USER: genes 9 Torsion [C]-CA--N-[C] |==|  0.81125
USER: genes 10 Torsion [N]-C--CA-[N] |==|  0.59401
USER: genes 11 Torsion [C]-CA--CB-[CG] |==|  0.21219
USER: genes 12 Torsion [CA]-CB--CG-[CD2] |==|  0.66991
USER: genes 13 Torsion [N]-CA--C-[N] |==|  0.33335
USER: genes 14 Torsion [C]-N--CA-[CB] |==|  0.26026
USER: genes 15 Torsion [N]-CA--CB-[CG] |==|  0.84263
USER: genes 16 Torsion [CA]-CB--CG-[CD2] |==|  0.28627
USER: genes 17 Torsion [N]-CA--C-[N] |==|  0.36720
USER: genes 18 Torsion [C]-N--CA-[CB] |==|  0.46370
USER: genes 19 Torsion [N]-CA--C-[N] |==|  0.42706
USER: genes 20 Torsion [C]-N--CA-[CB] |==|  0.48175
USER: genes 21 Torsion [N]-CA--CB-[OG] |==|  0.11411
USER: genes 22 Torsion [CA]-CB--OG-[HG] |==|  0.74712
USER: genes 23 Torsion [N]-CA--C-[OXT] |==|  0.38809
USER: genes 24 Torsion [N]-CA--CB-[CG] |==|  0.80180
USER: genes 25 Torsion [CA]-CB--CG-[OD2] |==|  0.47387
USER: genes 26 Torsion [N]-CA--CB-[CG] |==|  0.52371
USER: genes 27 Torsion [CA]-CB--CG-[CD] |==|  0.46530
USER: genes 28 Torsion [CB]-CG--CD-[NE] |==|  0.51744
USER: genes 29 Torsion [CG]-CD--NE-[HE] |==|  0.00248
ROOT
ATOM      1  CA  ARG P   5      31.650  31.894  -6.101  1.00 16.30 LIG 0.18  C 
ENDROOT
BRANCH 1 2
ATOM      2  N   ARG P   5      30.405  32.460  -5.566  1.00 16.36 LIG-0.35  N 
ATOM      3  C   PHE P   4      29.234  31.909  -5.833  1.00 16.61 LIG 0.24  C 
ATOM      4 O    PHE P   4      29.112  30.851  -6.456  1.00 17.57 LIG-0.27  OA
ATOM      5 H    ARG P   5      30.509  33.161  -5.079  1.00 16.36 LIG 0.16  HD
BRANCH 3 6
ATOM      6  CA  PHE P   4      28.005  32.657  -5.319  1.00 17.34 LIG 0.18  C 
BRANCH 6 7
ATOM      7  N   PHE P   4      26.886  32.285  -6.164  1.00 18.03 LIG-0.35  N 
ATOM      8  C   GLU P   3      26.750  32.775  -7.397  1.00 20.04 LIG 0.24  C 
ATOM      9 O    GLU P   3      27.436  33.688  -7.828  1.00 20.03 LIG-0.27  OA
ATOM     10 H    PHE P   4      26.335  31.733  -5.802  1.00 18.03 LIG 0.16  HD
BRANCH 8 11
ATOM     11  CA  GLU P   3      25.652  32.153  -8.263  1.00 21.92 LIG 0.18  C 
BRANCH 11 12
ATOM     12  CB  GLU P   3      26.240  31.046  -9.140  1.00 22.70 LIG 0.04  C 
BRANCH 12 13
ATOM     13  CG  GLU P   3      25.172  30.120  -9.694  1.00 23.46 LIG 0.12  C 
BRANCH 13 14
ATOM     14  CD  GLU P   3      25.711  28.984 -10.534  1.00 23.38 LIG 0.17  C 
ATOM     15 OE1  GLU P   3      25.075  27.904 -10.512  1.00 24.20 LIG-0.65  OA
ATOM     16 OE2  GLU P   3      26.761  29.159 -11.186  1.00 25.77 LIG-0.65  OA
ENDBRANCH 13 14
ENDBRANCH 12 13
ENDBRANCH 11 12
BRANCH 11 17
ATOM     17  N   GLU P   3      25.045  33.210  -9.079  1.00 23.31 LIG-0.35  N 
ATOM     18 H    GLU P   3      25.200  33.146  -9.923  1.00 23.31 LIG 0.16  HD
ATOM     19  C   ALA P   2      24.321  34.173  -8.522  1.00 24.65 LIG 0.26  C 
ATOM     20 O    ALA P   2      23.909  34.098  -7.351  1.00 25.69 LIG-0.27  OA
BRANCH 19 21
ATOM     21  CA  ALA P   2      23.942  35.375  -9.405  1.00 24.82 LIG 0.40  C 
ATOM     22  N   ALA P   2      23.900  36.619  -8.598  1.00 26.06 LIG 0.61  N 
ATOM     23  CB  ALA P   2      24.929  35.550 -10.575  1.00 25.99 LIG 0.06  C 
ENDBRANCH 19 21
ENDBRANCH 11 17
ENDBRANCH 8 11
ENDBRANCH 6 7
BRANCH 6 24
ATOM     24  CB  PHE P   4      27.731  32.299  -3.842  1.00 16.70 LIG 0.07  C 
BRANCH 24 25
ATOM     25  CG  PHE P   4      28.664  32.975  -2.858  1.00 15.87 LIG-0.06  A 
ATOM     26  CD2 PHE P   4      29.490  32.218  -2.035  1.00 14.31 LIG 0.01  A 
ATOM     27  CE2 PHE P   4      30.331  32.832  -1.106  1.00 14.76 LIG 0.00  A 
ATOM     28  CZ  PHE P   4      30.343  34.227  -0.980  1.00 16.46 LIG 0.00  A 
ATOM     29  CE1 PHE P   4      29.524  34.995  -1.800  1.00 16.70 LIG 0.00  A 
ATOM     30  CD1 PHE P   4      28.684  34.356  -2.719  1.00 16.73 LIG 0.01  A 
ENDBRANCH 24 25
ENDBRANCH 6 24
ENDBRANCH 3 6
ENDBRANCH 1 2
BRANCH 1 31
ATOM     31  C   ARG P   5      31.981  30.530  -5.474  1.00 16.50 LIG 0.24  C 
ATOM     32  N   HIS P   6      32.067  29.495  -6.306  1.00 17.02 LIG-0.35  N 
ATOM     33 H    HIS P   6      31.890  29.529  -7.146  1.00 17.02 LIG 0.16  HD
ATOM     34 O    ARG P   5      32.168  30.421  -4.256  1.00 15.68 LIG-0.27  OA
BRANCH 32 35
ATOM     35  CA  HIS P   6      32.490  28.176  -5.813  1.00 18.55 LIG 0.18  C 
BRANCH 35 36
ATOM     36  CB  HIS P   6      31.287  27.319  -5.443  1.00 17.94 LIG 0.10  C 
BRANCH 36 37
ATOM     37  CG  HIS P   6      30.373  27.930  -4.431  1.00 17.06 LIG 0.06  A 
ATOM     38 ND1  HIS P   6      30.643  27.915  -3.081  1.00 15.40 LIG-0.24  NA
ATOM     39  CE1 HIS P   6      29.646  28.482  -2.426  1.00 15.09 LIG 0.23  A 
ATOM     40 NE2  HIS P   6      28.739  28.872  -3.303  1.00 16.22 LIG-0.25  NA
ATOM     41  CD2 HIS P   6      29.170  28.529  -4.567  1.00 16.02 LIG 0.14  A 
ENDBRANCH 36 37
ENDBRANCH 35 36
BRANCH 35 42
ATOM     42  C   HIS P   6      33.193  27.485  -6.956  1.00 20.42 LIG 0.24  C 
ATOM     43 O    HIS P   6      32.659  27.460  -8.060  1.00 21.09 LIG-0.27  OA
ATOM     44  N   ASP P   7      34.359  26.907  -6.734  1.00 22.91 LIG-0.34  N 
ATOM     45 H    ASP P   7      34.757  26.846  -5.974  1.00 22.91 LIG 0.16  HD
BRANCH 44 46
ATOM     46  CA  ASP P   7      35.056  26.303  -7.889  1.00 24.36 LIG 0.19  C 
BRANCH 46 47
ATOM     47  C   ASP P   7      34.335  25.099  -8.482  1.00 26.16 LIG 0.24  C 
ATOM     48  N   SER P   8      34.564  24.844  -9.772  1.00 27.90 LIG-0.34  N 
ATOM     49 H    SER P   8      35.029  25.348 -10.292  1.00 27.90 LIG 0.16  HD
ATOM     50 O    ASP P   7      33.576  24.414  -7.806  1.00 26.07 LIG-0.27  OA
BRANCH 48 51
ATOM     51  CA  SER P   8      34.019  23.642 -10.410  1.00 28.60 LIG 0.21  C 
BRANCH 51 52
ATOM     52  CB  SER P   8      34.291  23.678 -11.912  1.00 29.65 LIG 0.20  C 
BRANCH 52 53
ATOM     53 OG   SER P   8      35.599  24.159 -12.172  1.00 30.91 LIG-0.40  OA
ATOM     54 HG   SER P   8      35.577  24.994 -12.270  1.00 30.91 LIG 0.21  HD
ENDBRANCH 52 53
ENDBRANCH 51 52
BRANCH 51 55
ATOM     55  C   SER P   8      34.547  22.324  -9.759  1.00 29.85 LIG 0.20  C 
ATOM     56 OXT  SER P   8      33.810  21.348  -9.568  1.00 30.94 LIG-0.65  OA
ATOM     57 O    SER P   8      35.707  22.160  -9.350  1.00 30.51 LIG-0.65  OA
ENDBRANCH 51 55
ENDBRANCH 48 51
ENDBRANCH 46 47
BRANCH 46 58
ATOM     58  CB  ASP P   7      36.492  25.975  -7.540  1.00 24.61 LIG 0.15  C 
BRANCH 58 59
ATOM     59  CG  ASP P   7      37.329  27.220  -7.403  1.00 26.42 LIG 0.17  C 
ATOM     60 OD2  ASP P   7      38.476  27.118  -6.949  1.00 29.83 LIG-0.65  OA
ATOM     61 OD1  ASP P   7      36.834  28.310  -7.782  1.00 30.09 LIG-0.65  OA
ENDBRANCH 58 59
ENDBRANCH 46 58
ENDBRANCH 44 46
ENDBRANCH 35 42
ENDBRANCH 32 35
ENDBRANCH 1 31
BRANCH 1 62
ATOM     62  CB  ARG P   5      32.798  32.859  -5.858  1.00 16.24 LIG 0.04  C 
BRANCH 62 63
ATOM     63  CG  ARG P   5      34.104  32.494  -6.537  1.00 15.73 LIG 0.02  C 
BRANCH 63 64
ATOM     64  CD  ARG P   5      35.055  33.657  -6.478  1.00 15.69 LIG 0.14  C 
BRANCH 64 65
ATOM     65  NE  ARG P   5      36.298  33.458  -7.235  1.00 15.25 LIG-0.23  N 
ATOM     66 HE   ARG P   5      36.406  32.721  -7.665  1.00 15.25 LIG 0.18  HD
ATOM     67  CZ  ARG P   5      37.266  34.375  -7.283  1.00 16.06 LIG 0.67  C 
ATOM     68  NH2 ARG P   5      38.388  34.147  -7.967  1.00 16.00 LIG-0.23  N 
ATOM     69  NH1 ARG P   5      37.129  35.513  -6.616  1.00 17.19 LIG-0.23  N 
ATOM     70 1HH2 ARG P   5      38.493  33.403  -8.384  1.00 16.00 LIG 0.17  HD
ATOM     71 2HH2 ARG P   5      39.006  34.745  -7.992  1.00 16.00 LIG 0.17  HD
ATOM     72 1HH1 ARG P   5      36.417  35.658  -6.154  1.00 17.19 LIG 0.17  HD
ATOM     73 2HH1 ARG P   5      37.751  36.107  -6.645  1.00 17.19 LIG 0.17  HD
ENDBRANCH 64 65
ENDBRANCH 63 64
ENDBRANCH 62 63
ENDBRANCH 1 62
TORSDOF 28
