USER: ADFR SOLUTION from run 0
USER: SCORE 11.341319 LL:  -3.295 LR:  -9.908 RR:   0.000 FEB:  -5.434
USER: RMSD 0.674166
USER: STATUS Locally minimized using BFGS
USER: GENES 17
USER: genes 0 Translation |==|  0.49764 0.53028 0.50237
USER: genes 1 Rotation |==|  0.52952 0.53784 0.46453 0.99643
USER: genes 2 Torsion [C]-N--CA-[CB] |==|  0.35119
USER: genes 3 Torsion [N]-CA--C-[N] |==|  0.10369
USER: genes 4 Torsion [C]-N--CA-[C] |==|  0.83998
USER: genes 5 Torsion [N]-CA--CB-[CG] |==|  0.84520
USER: genes 6 Torsion [CA]-CB--CG-[CD2] |==|  0.89367
USER: genes 7 Torsion [N]-CA--C-[OXT] |==|  0.38497
USER: genes 8 Torsion [N]-CA--CB-[CG2] |==|  0.59033
USER: genes 9 Torsion [CA]-CB--OG1-[HG1] |==|  0.50020
USER: genes 10 Torsion [N]-C--CA-[N] |==|  0.36513
USER: genes 11 Torsion [C]-CA--CB-[CG] |==|  0.47784
USER: genes 12 Torsion [CA]-CB--CG-[CD] |==|  0.36027
USER: genes 13 Torsion [CB]-CG--CD-[OE1] |==|  0.17448
USER: genes 14 Torsion [C]-CA--N-[C] |==|  0.64758
USER: genes 15 Torsion [N]-C--CA-[N] |==|  0.67608
USER: genes 16 Torsion [C]-CA--N-[H3] |==|  0.10457
ROOT
ATOM      1  C   GLU S   2     -11.687  13.849  33.186  1.00 67.93 LIG 0.24  C 
ATOM      2 O    GLU S   2     -12.366  14.873  33.346  1.00 66.60 LIG-0.27  OA
ATOM      3  N   THR S   3     -10.588  13.815  32.444  1.00 66.34 LIG-0.34  N 
ATOM      4 H    THR S   3     -10.119  13.104  32.322  1.00 66.34 LIG 0.16  HD
ENDROOT
BRANCH 3 5
ATOM      5  CA  THR S   3     -10.069  14.992  31.760  1.00 65.04 LIG 0.20  C 
BRANCH 5 6
ATOM      6  C   THR S   3     -10.202  14.843  30.253  1.00 64.78 LIG 0.24  C 
ATOM      7 O    THR S   3      -9.335  15.260  29.475  1.00 64.25 LIG-0.27  OA
ATOM      8  N   PHE S   4     -11.309  14.233  29.853  1.00 64.25 LIG-0.34  N 
ATOM      9 H    PHE S   4     -11.918  13.953  30.392  1.00 64.25 LIG 0.16  HD
BRANCH 8 10
ATOM     10  CA  PHE S   4     -11.600  13.977  28.451  1.00 63.65 LIG 0.19  C 
BRANCH 10 11
ATOM     11  CB  PHE S   4     -12.958  13.321  28.337  1.00 60.49 LIG 0.07  C 
BRANCH 11 12
ATOM     12  CG  PHE S   4     -13.086  12.082  29.135  1.00 55.48 LIG-0.06  A 
ATOM     13  CD2 PHE S   4     -12.023  11.198  29.236  1.00 51.26 LIG 0.01  A 
ATOM     14  CE2 PHE S   4     -12.163  10.003  29.925  1.00 48.18 LIG 0.00  A 
ATOM     15  CZ  PHE S   4     -13.353   9.690  30.533  1.00 46.44 LIG 0.00  A 
ATOM     16  CE1 PHE S   4     -14.421  10.568  30.449  1.00 48.00 LIG 0.00  A 
ATOM     17  CD1 PHE S   4     -14.279  11.770  29.759  1.00 50.38 LIG 0.01  A 
ENDBRANCH 11 12
ENDBRANCH 10 11
BRANCH 10 18
ATOM     18  C   PHE S   4     -11.616  15.238  27.626  1.00 64.82 LIG 0.20  C 
ATOM     19 O    PHE S   4     -12.186  16.252  28.087  1.00 66.03 LIG-0.65  OA
ATOM     20 OXT  PHE S   4     -11.078  15.172  26.505  1.00 65.83 LIG-0.65  OA
ENDBRANCH 10 18
ENDBRANCH 8 10
ENDBRANCH 5 6
BRANCH 5 21
ATOM     21  CB  THR S   3      -8.607  15.200  32.139  1.00 64.83 LIG 0.15  C 
ATOM     22  CG2 THR S   3      -8.253  16.673  32.161  1.00 63.45 LIG 0.04  C 
BRANCH 21 23
ATOM     23 OG1  THR S   3      -8.396  14.650  33.441  1.00 64.80 LIG-0.39  OA
ATOM     24 HG1  THR S   3      -7.594  14.758  33.664  1.00 64.80 LIG 0.21  HD
ENDBRANCH 21 23
ENDBRANCH 5 21
ENDBRANCH 3 5
BRANCH 1 25
ATOM     25  CA  GLU S   2     -12.066  12.517  33.853  1.00 70.09 LIG 0.18  C 
BRANCH 25 26
ATOM     26  CB  GLU S   2     -13.270  11.881  33.152  1.00 72.94 LIG 0.04  C 
BRANCH 26 27
ATOM     27  CG  GLU S   2     -13.569  10.468  33.647  1.00 78.29 LIG 0.12  C 
BRANCH 27 28
ATOM     28  CD  GLU S   2     -15.021  10.258  34.030  1.00 81.85 LIG 0.17  C 
ATOM     29 OE1  GLU S   2     -15.897  10.372  33.147  1.00 85.61 LIG-0.65  OA
ATOM     30 OE2  GLU S   2     -15.289   9.979  35.221  1.00 84.00 LIG-0.65  OA
ENDBRANCH 27 28
ENDBRANCH 26 27
ENDBRANCH 25 26
BRANCH 25 31
ATOM     31  N   GLU S   2     -12.368  12.653  35.279  1.00 70.96 LIG-0.35  N 
ATOM     32  C   ALA S   1     -11.762  11.902  36.196  1.00 72.19 LIG 0.25  C 
ATOM     33 O    ALA S   1     -10.898  11.068  35.909  1.00 72.37 LIG-0.27  OA
ATOM     34 H    GLU S   2     -12.958  13.250  35.462  1.00 70.96 LIG 0.16  HD
BRANCH 32 35
ATOM     35  CA  ALA S   1     -12.180  12.117  37.657  1.00 72.54 LIG 0.27  C 
ATOM     36  CB  ALA S   1     -13.365  13.082  37.734  1.00 73.45 LIG 0.05  C 
BRANCH 35 37
ATOM     37  N   ALA S   1     -11.055  12.622  38.505  1.00 73.25 LIG-0.07  N 
ATOM     38 H2   ALA S   1     -10.547  11.939  38.763  1.00 73.25 LIG 0.28  HD
ATOM     39 H3   ALA S   1     -10.564  13.196  38.036  1.00 73.25 LIG 0.28  HD
ATOM     40 H1   ALA S   1     -11.386  13.032  39.223  1.00 73.25 LIG 0.28  HD
ENDBRANCH 35 37
ENDBRANCH 32 35
ENDBRANCH 25 31
ENDBRANCH 1 25
TORSDOF 15
