USER: ADFR SOLUTION from run 0
USER: SCORE 13.534364 LL:  -2.700 LR: -11.877 RR:   0.000 FEB:  -5.911
USER: RMSD 0.213176
USER: STATUS Locally minimized using BFGS
USER: GENES 22
USER: genes 0 Translation |==|  0.61768 0.59235 0.35234
USER: genes 1 Rotation |==|  0.49063 0.49947 0.50479 0.99989
USER: genes 2 Torsion [C]-CA--N-[C] |==|  0.68457
USER: genes 3 Torsion [N]-C--CA-[N] |==|  0.28599
USER: genes 4 Torsion [C]-CA--N-[C] |==|  0.76043
USER: genes 5 Torsion [N]-C--CA-[N] |==|  0.94268
USER: genes 6 Torsion [C]-CA--CB-[CG2] |==|  0.74835
USER: genes 7 Torsion [CA]-CB--OG1-[HG1] |==|  0.49978
USER: genes 8 Torsion [C]-CA--CB-[CG] |==|  0.21394
USER: genes 9 Torsion [CA]-CB--CG-[OD2] |==|  0.42749
USER: genes 10 Torsion [N]-CA--CB-[CG] |==|  0.83599
USER: genes 11 Torsion [CA]-CB--CG-[ND1] |==|  0.84929
USER: genes 12 Torsion [N]-CA--C-[N] |==|  0.06224
USER: genes 13 Torsion [C]-N--CA-[C] |==|  0.29382
USER: genes 14 Torsion [N]-CA--C-[N] |==|  0.56351
USER: genes 15 Torsion [C]-N--CA-[CB] |==|  0.50009
USER: genes 16 Torsion [N]-CA--C-[N] |==|  0.40827
USER: genes 17 Torsion [C]-N--CA-[CB] |==|  0.25984
USER: genes 18 Torsion [N]-CA--CB-[CG] |==|  0.59762
USER: genes 19 Torsion [CA]-CB--CG-[CD] |==|  0.46893
USER: genes 20 Torsion [CB]-CG--CD-[OE1] |==|  0.12999
USER: genes 21 Torsion [N]-CA--C-[OXT] |==|  0.55744
ROOT
ATOM      1  CA  HIS A 388     -26.409 -25.904  11.937  1.00 17.64 LIG 0.18  C 
ENDROOT
BRANCH 1 2
ATOM      2  N   HIS A 388     -27.503 -26.867  12.072  1.00 19.60 LIG-0.35  N 
ATOM      3 H    HIS A 388     -27.938 -26.804  12.811  1.00 19.60 LIG 0.16  HD
ATOM      4  C   ASP A 387     -27.787 -27.758  11.121  1.00 22.66 LIG 0.24  C 
ATOM      5 O    ASP A 387     -27.165 -27.821  10.056  1.00 22.02 LIG-0.27  OA
BRANCH 4 6
ATOM      6  CA  ASP A 387     -28.951 -28.705  11.392  1.00 25.57 LIG 0.19  C 
BRANCH 6 7
ATOM      7  N   ASP A 387     -30.087 -28.196  10.596  1.00 28.40 LIG-0.34  N 
ATOM      8 H    ASP A 387     -30.165 -28.560   9.821  1.00 28.40 LIG 0.16  HD
ATOM      9  C   THR A 386     -30.916 -27.248  11.061  1.00 31.30 LIG 0.26  C 
ATOM     10 O    THR A 386     -31.068 -27.023  12.277  1.00 31.60 LIG-0.27  OA
BRANCH 9 11
ATOM     11  CA  THR A 386     -31.745 -26.442  10.028  1.00 33.11 LIG 0.43  C 
ATOM     12  N   THR A 386     -31.184 -26.472   8.643  1.00 33.83 LIG 0.62  N 
BRANCH 11 13
ATOM     13  CB  THR A 386     -33.240 -26.873  10.041  1.00 33.77 LIG 0.16  C 
ATOM     14  CG2 THR A 386     -33.521 -28.005   9.047  1.00 34.60 LIG 0.04  C 
BRANCH 13 15
ATOM     15 OG1  THR A 386     -33.596 -27.414  11.322  1.00 35.18 LIG-0.39  OA
ATOM     16 HG1  THR A 386     -34.405 -27.641  11.315  1.00 35.18 LIG 0.21  HD
ENDBRANCH 13 15
ENDBRANCH 11 13
ENDBRANCH 9 11
ENDBRANCH 6 7
BRANCH 6 17
ATOM     17  CB  ASP A 387     -28.563 -30.158  11.000  1.00 25.68 LIG 0.15  C 
BRANCH 17 18
ATOM     18  CG  ASP A 387     -27.647 -30.843  12.037  1.00 25.80 LIG 0.17  C 
ATOM     19 OD2  ASP A 387     -27.608 -32.087  12.176  1.00 26.75 LIG-0.65  OA
ATOM     20 OD1  ASP A 387     -26.889 -30.169  12.788  1.00 21.65 LIG-0.65  OA
ENDBRANCH 17 18
ENDBRANCH 6 17
ENDBRANCH 4 6
ENDBRANCH 1 2
BRANCH 1 21
ATOM     21  CB  HIS A 388     -26.873 -24.433  12.139  1.00 17.51 LIG 0.10  C 
BRANCH 21 22
ATOM     22  CG  HIS A 388     -27.941 -23.960  11.183  1.00 19.36 LIG 0.06  A 
ATOM     23 ND1  HIS A 388     -27.817 -24.037   9.815  1.00 21.21 LIG-0.24  NA
ATOM     24  CE1 HIS A 388     -28.910 -23.562   9.243  1.00 22.16 LIG 0.23  A 
ATOM     25 NE2  HIS A 388     -29.733 -23.152  10.191  1.00 21.69 LIG-0.25  NA
ATOM     26  CD2 HIS A 388     -29.147 -23.383  11.413  1.00 21.19 LIG 0.14  A 
ENDBRANCH 21 22
ENDBRANCH 1 21
BRANCH 1 27
ATOM     27  C   HIS A 388     -25.323 -26.217  12.976  1.00 15.45 LIG 0.24  C 
ATOM     28 O    HIS A 388     -24.541 -25.342  13.309  1.00 14.42 LIG-0.27  OA
ATOM     29  N   GLY A 389     -25.261 -27.457  13.478  1.00 14.00 LIG-0.35  N 
ATOM     30 H    GLY A 389     -25.810 -28.087  13.277  1.00 14.00 LIG 0.16  HD
BRANCH 29 31
ATOM     31  CA  GLY A 389     -24.220 -27.837  14.432  1.00 13.01 LIG 0.23  C 
BRANCH 31 32
ATOM     32  C   GLY A 389     -24.741 -27.969  15.846  1.00 11.92 LIG 0.24  C 
ATOM     33 O    GLY A 389     -25.949 -28.214  16.082  1.00 12.61 LIG-0.27  OA
ATOM     34  N   ALA A 390     -23.840 -27.842  16.802  1.00 10.53 LIG-0.35  N 
ATOM     35 H    ALA A 390     -23.001 -27.732  16.651  1.00 10.53 LIG 0.16  HD
BRANCH 34 36
ATOM     36  CA  ALA A 390     -24.189 -27.877  18.225  1.00 11.53 LIG 0.17  C 
ATOM     37  CB  ALA A 390     -22.936 -27.703  19.055  1.00 11.91 LIG 0.04  C 
BRANCH 36 38
ATOM     38  C   ALA A 390     -25.193 -26.756  18.559  1.00 13.11 LIG 0.24  C 
ATOM     39  N   GLU A 391     -26.067 -27.051  19.510  1.00 14.39 LIG-0.34  N 
ATOM     40 H    GLU A 391     -26.064 -27.795  19.941  1.00 14.39 LIG 0.16  HD
ATOM     41 O    ALA A 390     -25.216 -25.682  17.944  1.00 12.73 LIG-0.27  OA
BRANCH 39 42
ATOM     42  CA  GLU A 391     -27.109 -26.148  19.911  1.00 15.60 LIG 0.19  C 
BRANCH 42 43
ATOM     43  CB  GLU A 391     -28.382 -26.471  19.121  1.00 17.03 LIG 0.05  C 
BRANCH 43 44
ATOM     44  CG  GLU A 391     -29.233 -25.286  18.755  1.00 23.68 LIG 0.12  C 
BRANCH 44 45
ATOM     45  CD  GLU A 391     -30.311 -25.682  17.749  1.00 29.63 LIG 0.17  C 
ATOM     46 OE1  GLU A 391     -30.977 -26.735  17.985  1.00 31.73 LIG-0.65  OA
ATOM     47 OE2  GLU A 391     -30.436 -24.973  16.713  1.00 33.20 LIG-0.65  OA
ENDBRANCH 44 45
ENDBRANCH 43 44
ENDBRANCH 42 43
BRANCH 42 48
ATOM     48  C   GLU A 391     -27.335 -26.349  21.406  1.00 14.85 LIG 0.20  C 
ATOM     49 OXT  GLU A 391     -28.391 -25.997  21.914  1.00 14.73 LIG-0.65  OA
ATOM     50 O    GLU A 391     -26.454 -26.847  22.108  1.00 14.85 LIG-0.65  OA
ENDBRANCH 42 48
ENDBRANCH 39 42
ENDBRANCH 36 38
ENDBRANCH 34 36
ENDBRANCH 31 32
ENDBRANCH 29 31
ENDBRANCH 1 27
TORSDOF 20
