USER: ADFR SOLUTION from run 0
USER: SCORE 15.553594 LL:  -4.241 LR: -14.985 RR:   0.000 FEB:  -8.125
USER: RMSD 0.775556
USER: STATUS Locally minimized using BFGS
USER: GENES 25
USER: genes 0 Translation |==|  0.44877 0.57356 0.47070
USER: genes 1 Rotation |==|  0.49370 0.49365 0.48371 0.99965
USER: genes 2 Torsion [CB]-CA--N-[C] |==|  0.36245
USER: genes 3 Torsion [N]-C--CA-[N] |==|  0.98231
USER: genes 4 Torsion [C]-CA--N-[C] |==|  0.79444
USER: genes 5 Torsion [N]-C--CA-[N] |==|  0.61412
USER: genes 6 Torsion [C]-CA--CB-[CG] |==|  0.88160
USER: genes 7 Torsion [CA]-CB--CG-[CD] |==|  0.44872
USER: genes 8 Torsion [CB]-CG--CD-[NE] |==|  0.18312
USER: genes 9 Torsion [CG]-CD--NE-[HE] |==|  0.11971
USER: genes 10 Torsion [N]-CA--CB-[CG] |==|  0.87616
USER: genes 11 Torsion [CA]-CB--CG-[CD2] |==|  0.79903
USER: genes 12 Torsion [N]-CA--C-[N] |==|  0.35288
USER: genes 13 Torsion [C]-N--CA-[C] |==|  0.69396
USER: genes 14 Torsion [N]-CA--CB-[CG] |==|  0.81950
USER: genes 15 Torsion [CA]-CB--CG-[CD] |==|  0.88722
USER: genes 16 Torsion [CB]-CG--CD-[OE1] |==|  0.33620
USER: genes 17 Torsion [N]-CA--C-[N] |==|  0.30705
USER: genes 18 Torsion [C]-N--CA-[CB] |==|  0.37845
USER: genes 19 Torsion [N]-CA--CB-[CG1] |==|  0.91602
USER: genes 20 Torsion [N]-CA--C-[N] |==|  0.34691
USER: genes 21 Torsion [C]-N--CA-[C] |==|  0.67881
USER: genes 22 Torsion [N]-CA--C-[O] |==|  0.38593
USER: genes 23 Torsion [N]-CA--CB-[OG1] |==|  0.52876
USER: genes 24 Torsion [CA]-CB--OG1-[HG1] |==|  0.61207
ROOT
ATOM      1  CA  PHE C1005       0.128 -33.955   6.049  1.00 26.32 LIG 0.18  C 
ENDROOT
BRANCH 1 2
ATOM      2  N   PHE C1005      -0.642 -34.430   4.909  1.00 26.54 LIG-0.35  N 
ATOM      3  C   ARG C1004      -0.079 -34.596   3.710  1.00 27.34 LIG 0.24  C 
ATOM      4 O    ARG C1004       1.133 -34.512   3.518  1.00 26.08 LIG-0.27  OA
ATOM      5 H    PHE C1005      -1.471 -34.587   5.078  1.00 26.54 LIG 0.16  HD
BRANCH 3 6
ATOM      6  CA  ARG C1004      -1.029 -34.919   2.546  1.00 28.49 LIG 0.18  C 
BRANCH 6 7
ATOM      7  N   ARG C1004      -2.409 -35.140   2.970  1.00 30.45 LIG-0.35  N 
ATOM      8  C   GLY C1003      -2.745 -36.269   3.594  1.00 32.03 LIG 0.25  C 
ATOM      9 O    GLY C1003      -1.916 -37.132   3.882  1.00 33.62 LIG-0.27  OA
ATOM     10 H    ARG C1004      -2.954 -34.501   2.787  1.00 30.45 LIG 0.16  HD
BRANCH 8 11
ATOM     11  CA  GLY C1003      -4.205 -36.450   3.953  1.00 33.10 LIG 0.47  C 
ATOM     12  N   GLY C1003      -4.384 -37.043   5.305  1.00 33.92 LIG 0.61  N 
ENDBRANCH 8 11
ENDBRANCH 6 7
BRANCH 6 13
ATOM     13  CB  ARG C1004      -0.945 -33.841   1.462  1.00 28.45 LIG 0.04  C 
BRANCH 13 14
ATOM     14  CG  ARG C1004      -0.900 -32.428   1.995  1.00 27.92 LIG 0.02  C 
BRANCH 14 15
ATOM     15  CD  ARG C1004      -0.370 -31.451   0.946  1.00 26.34 LIG 0.14  C 
BRANCH 15 16
ATOM     16  NE  ARG C1004      -1.288 -31.346  -0.179  1.00 24.25 LIG-0.23  N 
ATOM     17 HE   ARG C1004      -2.129 -31.291  -0.003  1.00 24.25 LIG 0.18  HD
ATOM     18  CZ  ARG C1004      -0.925 -31.328  -1.457  1.00 25.16 LIG 0.67  C 
ATOM     19  NH2 ARG C1004      -1.851 -31.215  -2.391  1.00 24.86 LIG-0.23  N 
ATOM     20  NH1 ARG C1004       0.348 -31.441  -1.804  1.00 22.12 LIG-0.23  N 
ATOM     21 1HH2 ARG C1004      -2.680 -31.154  -2.170  1.00 24.86 LIG 0.17  HD
ATOM     22 2HH2 ARG C1004      -1.626 -31.203  -3.221  1.00 24.86 LIG 0.17  HD
ATOM     23 1HH1 ARG C1004       0.953 -31.528  -1.198  1.00 22.12 LIG 0.17  HD
ATOM     24 2HH1 ARG C1004       0.571 -31.428  -2.634  1.00 22.12 LIG 0.17  HD
ENDBRANCH 15 16
ENDBRANCH 14 15
ENDBRANCH 13 14
ENDBRANCH 6 13
ENDBRANCH 3 6
ENDBRANCH 1 2
BRANCH 1 25
ATOM     25  CB  PHE C1005      -0.603 -32.806   6.732  1.00 25.48 LIG 0.07  C 
BRANCH 25 26
ATOM     26  CG  PHE C1005      -1.151 -31.803   5.767  1.00 23.55 LIG-0.06  A 
ATOM     27  CD1 PHE C1005      -2.532 -31.735   5.514  1.00 22.30 LIG 0.01  A 
ATOM     28  CE1 PHE C1005      -3.046 -30.804   4.597  1.00 23.64 LIG 0.00  A 
ATOM     29  CZ  PHE C1005      -2.147 -29.950   3.908  1.00 21.73 LIG 0.00  A 
ATOM     30  CE2 PHE C1005      -0.783 -30.011   4.164  1.00 19.92 LIG 0.00  A 
ATOM     31  CD2 PHE C1005      -0.279 -30.939   5.095  1.00 21.20 LIG 0.01  A 
ENDBRANCH 25 26
ENDBRANCH 1 25
BRANCH 1 32
ATOM     32  C   PHE C1005       0.382 -35.050   7.055  1.00 27.26 LIG 0.24  C 
ATOM     33 O    PHE C1005      -0.555 -35.708   7.491  1.00 28.13 LIG-0.27  OA
ATOM     34  N   GLN C1006       1.654 -35.224   7.397  1.00 28.15 LIG-0.35  N 
ATOM     35 H    GLN C1006       2.304 -34.830   6.993  1.00 28.15 LIG 0.16  HD
BRANCH 34 36
ATOM     36  CA  GLN C1006       2.091 -36.096   8.486  1.00 29.76 LIG 0.18  C 
BRANCH 36 37
ATOM     37  CB  GLN C1006       3.164 -37.069   8.004  1.00 29.94 LIG 0.04  C 
BRANCH 37 38
ATOM     38  CG  GLN C1006       2.698 -38.070   6.964  1.00 33.02 LIG 0.10  C 
BRANCH 38 39
ATOM     39  CD  GLN C1006       1.312 -38.616   7.256  1.00 35.46 LIG 0.21  C 
ATOM     40 OE1  GLN C1006       0.396 -38.478   6.445  1.00 38.48 LIG-0.27  OA
ATOM     41  NE2 GLN C1006       1.150 -39.233   8.426  1.00 37.01 LIG-0.37  N 
ATOM     42 22HE GLN C1006       0.382 -39.554   8.641  1.00 37.01 LIG 0.16  HD
ATOM     43 21HE GLN C1006       1.815 -39.310   8.967  1.00 37.01 LIG 0.16  HD
ENDBRANCH 38 39
ENDBRANCH 37 38
ENDBRANCH 36 37
BRANCH 36 44
ATOM     44  C   GLN C1006       2.626 -35.244   9.639  1.00 30.09 LIG 0.24  C 
ATOM     45  N   VAL C1007       1.871 -35.235  10.742  1.00 30.97 LIG-0.35  N 
ATOM     46 H    VAL C1007       1.103 -35.621  10.780  1.00 30.97 LIG 0.16  HD
ATOM     47 O    GLN C1006       3.679 -34.604   9.511  1.00 30.15 LIG-0.27  OA
BRANCH 45 48
ATOM     48  CA  VAL C1007       2.248 -34.576  12.003  1.00 32.05 LIG 0.18  C 
BRANCH 48 49
ATOM     49  CB  VAL C1007       1.040 -33.790  12.604  1.00 32.12 LIG 0.01  C 
ATOM     50  CG1 VAL C1007       0.095 -33.270  11.524  1.00 30.72 LIG 0.01  C 
ATOM     51  CG2 VAL C1007       1.500 -32.655  13.512  1.00 30.85 LIG 0.01  C 
ENDBRANCH 48 49
BRANCH 48 52
ATOM     52  C   VAL C1007       2.566 -35.773  12.942  1.00 33.20 LIG 0.24  C 
ATOM     53 O    VAL C1007       1.703 -36.628  13.109  1.00 34.91 LIG-0.27  OA
ATOM     54  N   THR C1008       3.742 -35.872  13.567  1.00 34.53 LIG-0.34  N 
ATOM     55 H    THR C1008       3.930 -36.566  14.039  1.00 34.53 LIG 0.16  HD
BRANCH 54 56
ATOM     56  CA  THR C1008       4.841 -34.911  13.571  1.00 33.96 LIG 0.19  C 
BRANCH 56 57
ATOM     57  C   THR C1008       6.047 -35.555  12.889  1.00 33.93 LIG 0.22  C 
ATOM     58 O    THR C1008       6.762 -34.917  12.112  1.00 34.05 LIG-0.29  OA
ENDBRANCH 56 57
BRANCH 56 59
ATOM     59  CB  THR C1008       5.258 -34.508  15.035  1.00 34.51 LIG 0.14  C 
ATOM     60  CG2 THR C1008       5.959 -35.648  15.776  1.00 33.41 LIG 0.04  C 
BRANCH 59 61
ATOM     61 OG1  THR C1008       6.156 -33.404  14.992  1.00 32.91 LIG-0.39  OA
ATOM     62 HG1  THR C1008       6.763 -33.514  15.562  1.00 32.91 LIG 0.21  HD
ENDBRANCH 59 61
ENDBRANCH 56 59
ENDBRANCH 54 56
ENDBRANCH 48 52
ENDBRANCH 45 48
ENDBRANCH 36 44
ENDBRANCH 34 36
ENDBRANCH 1 32
TORSDOF 23
