USER: ADFR SOLUTION from run 0
USER: SCORE 14.767635 LL:  -6.417 LR: -10.254 RR:   0.000 FEB:  -3.094
USER: RMSD 0.769821
USER: STATUS Locally minimized using BFGS
USER: GENES 26
USER: genes 0 Translation |==|  0.39700 0.60809 0.58269
USER: genes 1 Rotation |==|  0.50514 0.51050 0.50821 0.99980
USER: genes 2 Torsion [N]-C--CA-[N] |==|  0.05549
USER: genes 3 Torsion [C]-CA--N-[C] |==|  0.70996
USER: genes 4 Torsion [N]-C--CA-[N] |==|  0.85000
USER: genes 5 Torsion [C]-CA--N-[C] |==|  0.80865
USER: genes 6 Torsion [N]-C--CA-[N] |==|  0.36556
USER: genes 7 Torsion [C]-CA--N-[H2] |==|  0.83418
USER: genes 8 Torsion [C]-CA--CB-[CG] |==|  0.28771
USER: genes 9 Torsion [CA]-CB--CG-[ND1] |==|  0.67259
USER: genes 10 Torsion [C]-CA--CB-[CG] |==|  0.49743
USER: genes 11 Torsion [CA]-CB--CG-[CD2] |==|  0.72586
USER: genes 12 Torsion [C]-CA--CB-[CG] |==|  0.48139
USER: genes 13 Torsion [CA]-CB--CG-[CD2] |==|  0.82838
USER: genes 14 Torsion [C]-N--CA-[C] |==|  0.84364
USER: genes 15 Torsion [N]-CA--C-[N] |==|  0.42542
USER: genes 16 Torsion [C]-N--CA-[CB] |==|  0.45798
USER: genes 17 Torsion [N]-CA--CB-[CG] |==|  0.17178
USER: genes 18 Torsion [CA]-CB--CG-[ND1] |==|  0.76064
USER: genes 19 Torsion [N]-CA--C-[N] |==|  0.93591
USER: genes 20 Torsion [C]-N--CA-[C] |==|  0.72883
USER: genes 21 Torsion [N]-CA--C-[O] |==|  0.47852
USER: genes 22 Torsion [N]-CA--CB-[CG] |==|  0.81166
USER: genes 23 Torsion [CA]-CB--CG-[ND1] |==|  0.39235
USER: genes 24 Torsion [N]-CA--CB-[CG] |==|  0.56321
USER: genes 25 Torsion [CA]-CB--CG-[CD2] |==|  0.68138
ROOT
ATOM      1  C   HIS X   1       0.544   2.612  21.058  1.00 40.87 LIG 0.24  C 
ATOM      2 O    HIS X   1      -0.674   2.542  21.243  1.00 40.80 LIG-0.27  OA
ATOM      3  N   HIS X   2       1.228   1.819  20.258  1.00 30.16 LIG-0.35  N 
ATOM      4 H    HIS X   2       2.080   1.872  20.156  1.00 30.16 LIG 0.16  HD
ENDROOT
BRANCH 1 5
ATOM      5  CA  HIS X   1       1.410   3.649  21.741  1.00 48.06 LIG 0.18  C 
BRANCH 5 6
ATOM      6  N   HIS X   1       2.661   3.810  20.995  1.00 54.11 LIG-0.35  N 
ATOM      7 H    HIS X   1       2.578   4.260  20.267  1.00 54.11 LIG 0.16  HD
ATOM      8  C   HIS X   0       3.805   3.307  21.411  1.00 58.54 LIG 0.24  C 
ATOM      9 O    HIS X   0       3.901   2.476  22.316  1.00 63.37 LIG-0.27  OA
BRANCH 8 10
ATOM     10  CA  HIS X   0       5.021   3.844  20.673  1.00 62.53 LIG 0.18  C 
BRANCH 10 11
ATOM     11  N   HIS X   0       4.904   3.689  19.219  1.00 60.73 LIG-0.35  N 
ATOM     12  C   HIS X  -1       4.942   2.492  18.654  1.00 60.09 LIG 0.25  C 
ATOM     13 O    HIS X  -1       4.628   1.454  19.240  1.00 62.79 LIG-0.27  OA
ATOM     14 H    HIS X   0       4.812   4.426  18.785  1.00 60.73 LIG 0.16  HD
BRANCH 12 15
ATOM     15  CA  HIS X  -1       5.369   2.486  17.192  1.00 59.53 LIG 0.28  C 
BRANCH 15 16
ATOM     16  N   HIS X  -1       6.429   1.444  16.973  1.00 57.14 LIG-0.07  N 
ATOM     17 H3   HIS X  -1       6.104   0.642  17.185  1.00 57.14 LIG 0.28  HD
ATOM     18 H2   HIS X  -1       7.132   1.623  17.488  1.00 57.14 LIG 0.28  HD
ATOM     19 H1   HIS X  -1       6.677   1.447  16.118  1.00 57.14 LIG 0.28  HD
ENDBRANCH 15 16
BRANCH 15 20
ATOM     20  CB  HIS X  -1       4.176   2.243  16.267  1.00 57.27 LIG 0.10  C 
BRANCH 20 21
ATOM     21  CG  HIS X  -1       3.684   3.475  15.579  1.00 54.13 LIG 0.06  A 
ATOM     22 ND1  HIS X  -1       2.414   3.976  15.769  1.00 52.72 LIG-0.24  NA
ATOM     23  CE1 HIS X  -1       2.253   5.055  15.022  1.00 54.35 LIG 0.23  A 
ATOM     24 NE2  HIS X  -1       3.373   5.272  14.353  1.00 53.65 LIG-0.25  NA
ATOM     25  CD2 HIS X  -1       4.285   4.297  14.686  1.00 55.23 LIG 0.14  A 
ENDBRANCH 20 21
ENDBRANCH 15 20
ENDBRANCH 12 15
ENDBRANCH 10 11
BRANCH 10 26
ATOM     26  CB  HIS X   0       5.274   5.313  21.072  1.00 64.99 LIG 0.10  C 
BRANCH 26 27
ATOM     27  CG  HIS X   0       6.472   5.932  20.411  1.00 69.41 LIG 0.06  A 
ATOM     28 ND1  HIS X   0       6.432   6.458  19.135  1.00 72.01 LIG-0.24  NA
ATOM     29  CE1 HIS X   0       7.623   6.938  18.819  1.00 72.69 LIG 0.23  A 
ATOM     30 NE2  HIS X   0       8.433   6.748  19.846  1.00 72.94 LIG-0.25  NA
ATOM     31  CD2 HIS X   0       7.738   6.125  20.856  1.00 71.12 LIG 0.14  A 
ENDBRANCH 26 27
ENDBRANCH 10 26
ENDBRANCH 8 10
ENDBRANCH 5 6
BRANCH 5 32
ATOM     32  CB  HIS X   1       0.669   4.982  21.826  1.00 48.25 LIG 0.10  C 
BRANCH 32 33
ATOM     33  CG  HIS X   1       1.390   6.021  22.627  1.00 50.36 LIG 0.06  A 
ATOM     34  CD2 HIS X   1       1.754   6.042  23.933  1.00 51.47 LIG 0.14  A 
ATOM     35 NE2  HIS X   1       2.402   7.234  24.153  1.00 50.72 LIG-0.25  NA
ATOM     36  CE1 HIS X   1       2.435   7.919  23.022  1.00 48.50 LIG 0.23  A 
ATOM     37 ND1  HIS X   1       1.830   7.212  22.085  1.00 47.89 LIG-0.24  NA
ENDBRANCH 32 33
ENDBRANCH 5 32
ENDBRANCH 1 5
BRANCH 3 38
ATOM     38  CA  HIS X   2       0.594   0.753  19.450  1.00 26.25 LIG 0.18  C 
BRANCH 38 39
ATOM     39  C   HIS X   2      -0.206  -0.234  20.294  1.00 23.72 LIG 0.24  C 
ATOM     40  N   HIS X   3      -1.197  -0.822  19.644  1.00 22.33 LIG-0.35  N 
ATOM     41 H    HIS X   3      -1.393  -0.657  18.823  1.00 22.33 LIG 0.16  HD
ATOM     42 O    HIS X   2       0.050  -0.447  21.489  1.00 19.88 LIG-0.27  OA
BRANCH 40 43
ATOM     43  CA  HIS X   3      -2.063  -1.825  20.282  1.00 22.38 LIG 0.18  C 
BRANCH 43 44
ATOM     44  CB  HIS X   3      -3.373  -2.110  19.482  1.00 22.51 LIG 0.10  C 
BRANCH 44 45
ATOM     45  CG  HIS X   3      -3.177  -2.670  18.101  1.00 18.10 LIG 0.06  A 
ATOM     46  CD2 HIS X   3      -3.222  -3.942  17.632  1.00 18.75 LIG 0.14  A 
ATOM     47 NE2  HIS X   3      -3.016  -3.881  16.272  1.00 20.06 LIG-0.25  NA
ATOM     48  CE1 HIS X   3      -2.865  -2.618  15.920  1.00 21.69 LIG 0.23  A 
ATOM     49 ND1  HIS X   3      -2.974  -1.868  17.004  1.00 17.48 LIG-0.24  NA
ENDBRANCH 44 45
ENDBRANCH 43 44
BRANCH 43 50
ATOM     50  C   HIS X   3      -1.287  -3.100  20.610  1.00 21.59 LIG 0.24  C 
ATOM     51 O    HIS X   3      -1.625  -3.853  21.515  1.00 25.47 LIG-0.27  OA
ATOM     52  N   HIS X   4      -0.201  -3.293  19.890  1.00 25.63 LIG-0.35  N 
ATOM     53 H    HIS X   4       0.071  -2.761  19.271  1.00 25.63 LIG 0.16  HD
BRANCH 52 54
ATOM     54  CA  HIS X   4       0.648  -4.468  20.105  1.00 23.96 LIG 0.17  C 
BRANCH 54 55
ATOM     55  C   HIS X   4       1.819  -4.059  21.006  1.00 31.35 LIG 0.22  C 
ATOM     56 O    HIS X   4       2.603  -4.897  21.454  1.00 37.06 LIG-0.29  OA
ENDBRANCH 54 55
BRANCH 54 57
ATOM     57  CB  HIS X   4       1.145  -5.063  18.782  1.00 23.83 LIG 0.09  C 
BRANCH 57 58
ATOM     58  CG  HIS X   4       0.058  -5.684  17.944  1.00 22.57 LIG 0.06  A 
ATOM     59 ND1  HIS X   4       0.012  -5.577  16.567  1.00 22.63 LIG-0.24  NA
ATOM     60  CE1 HIS X   4      -1.047  -6.225  16.112  1.00 19.94 LIG 0.23  A 
ATOM     61 NE2  HIS X   4      -1.698  -6.733  17.141  1.00 20.25 LIG-0.25  NA
ATOM     62  CD2 HIS X   4      -1.020  -6.421  18.296  1.00 21.52 LIG 0.14  A 
ENDBRANCH 57 58
ENDBRANCH 54 57
ENDBRANCH 52 54
ENDBRANCH 43 50
ENDBRANCH 40 43
ENDBRANCH 38 39
BRANCH 38 63
ATOM     63  CB  HIS X   2       1.643  -0.011  18.632  1.00 28.74 LIG 0.10  C 
BRANCH 63 64
ATOM     64  CG  HIS X   2       1.085  -0.701  17.433  1.00 28.63 LIG 0.06  A 
ATOM     65 ND1  HIS X   2       0.561  -0.011  16.365  1.00 31.27 LIG-0.24  NA
ATOM     66  CE1 HIS X   2       0.159  -0.867  15.444  1.00 28.11 LIG 0.23  A 
ATOM     67 NE2  HIS X   2       0.393  -2.090  15.879  1.00 29.87 LIG-0.25  NA
ATOM     68  CD2 HIS X   2       0.981  -2.015  17.120  1.00 31.84 LIG 0.14  A 
ENDBRANCH 63 64
ENDBRANCH 38 63
ENDBRANCH 3 38
TORSDOF 24
