USER: ADFR SOLUTION from run 0
USER: SCORE 12.518322 LL:  -3.183 LR: -11.618 RR:   0.000 FEB:  -3.564
USER: RMSD 0.854018
USER: STATUS Locally minimized using BFGS
USER: GENES 29
USER: genes 0 Translation |==|  0.44893 0.46944 0.46753
USER: genes 1 Rotation |==|  0.47741 0.50650 0.49409 0.99941
USER: genes 2 Torsion [N]-CA--C-[N] |==|  0.51667
USER: genes 3 Torsion [C]-N--CA-[CB] |==|  0.36227
USER: genes 4 Torsion [N]-CA--CB-[CG] |==|  0.82120
USER: genes 5 Torsion [CA]-CB--CG-[CD] |==|  0.47928
USER: genes 6 Torsion [CB]-CG--CD-[CE] |==|  0.51705
USER: genes 7 Torsion [CG]-CD--CE-[NZ] |==|  0.50295
USER: genes 8 Torsion [CD]-CE--NZ-[HZ3] |==|  0.17357
USER: genes 9 Torsion [N]-CA--C-[N] |==|  0.93617
USER: genes 10 Torsion [C]-N--CA-[C] |==|  0.30613
USER: genes 11 Torsion [N]-CA--C-[N] |==|  0.32867
USER: genes 12 Torsion [C]-N--CA-[CB] |==|  0.82242
USER: genes 13 Torsion [N]-CA--CB-[CG] |==|  0.79081
USER: genes 14 Torsion [CA]-CB--CG-[CD] |==|  0.54758
USER: genes 15 Torsion [CB]-CG--CD-[OE2] |==|  0.42695
USER: genes 16 Torsion [N]-CA--C-[O] |==|  0.55571
USER: genes 17 Torsion [C]-CA--CB-[OG] |==|  0.75339
USER: genes 18 Torsion [CA]-CB--OG-[HG] |==|  0.14289
USER: genes 19 Torsion [C]-CA--N-[C] |==|  0.72615
USER: genes 20 Torsion [N]-C--CA-[N] |==|  0.39059
USER: genes 21 Torsion [C]-CA--N-[C] |==|  0.62045
USER: genes 22 Torsion [N]-C--CA-[N] |==|  0.53002
USER: genes 23 Torsion [C]-CA--CB-[CG] |==|  0.52463
USER: genes 24 Torsion [CA]-CB--CG-[CD1] |==|  0.84434
USER: genes 25 Torsion [C]-CA--CB-[CG] |==|  0.80557
USER: genes 26 Torsion [CA]-CB--CG-[CD] |==|  0.21221
USER: genes 27 Torsion [CB]-CG--CD-[NE] |==|  0.14691
USER: genes 28 Torsion [CG]-CD--NE-[HE] |==|  0.96215
ROOT
ATOM      1  CA  SER D 109     -12.865  -3.997  13.411  1.00 42.91 LIG 0.20  C 
ENDROOT
BRANCH 1 2
ATOM      2  C   SER D 109     -14.289  -4.477  13.204  1.00 45.81 LIG 0.24  C 
ATOM      3 O    SER D 109     -15.153  -3.705  12.790  1.00 48.15 LIG-0.27  OA
ATOM      4  N   LYS D 110     -14.549  -5.743  13.509  1.00 56.31 LIG-0.35  N 
ATOM      5 H    LYS D 110     -14.008  -6.275  13.913  1.00 56.31 LIG 0.16  HD
BRANCH 4 6
ATOM      6  CA  LYS D 110     -15.846  -6.323  13.146  1.00 51.35 LIG 0.18  C 
BRANCH 6 7
ATOM      7  CB  LYS D 110     -15.629  -7.660  12.429  1.00 62.96 LIG 0.04  C 
BRANCH 7 8
ATOM      8  CG  LYS D 110     -14.904  -7.489  11.102  1.00 63.09 LIG 0.00  C 
BRANCH 8 9
ATOM      9  CD  LYS D 110     -14.520  -8.817  10.462  1.00 65.88 LIG 0.03  C 
BRANCH 9 10
ATOM     10  CE  LYS D 110     -13.664  -8.578   9.214  1.00 57.43 LIG 0.23  C 
BRANCH 10 11
ATOM     11  NZ  LYS D 110     -13.284  -9.847   8.539  1.00 66.24 LIG-0.08  N 
ATOM     12 HZ3  LYS D 110     -14.018 -10.265   8.257  1.00 66.24 LIG 0.27  HD
ATOM     13 HZ1  LYS D 110     -12.759  -9.667   7.843  1.00 66.24 LIG 0.27  HD
ATOM     14 HZ2  LYS D 110     -12.847 -10.369   9.112  1.00 66.24 LIG 0.27  HD
ENDBRANCH 10 11
ENDBRANCH 9 10
ENDBRANCH 8 9
ENDBRANCH 7 8
ENDBRANCH 6 7
BRANCH 6 15
ATOM     15  C   LYS D 110     -16.997  -6.414  14.184  1.00 56.31 LIG 0.24  C 
ATOM     16  N   GLY D 111     -16.725  -6.409  15.491  1.00 59.27 LIG-0.35  N 
ATOM     17 H    GLY D 111     -17.335  -6.532  16.083  1.00 59.27 LIG 0.16  HD
ATOM     18 O    LYS D 110     -18.157  -6.465  13.781  1.00 65.56 LIG-0.27  OA
BRANCH 16 19
ATOM     19  CA  GLY D 111     -15.415  -6.202  16.077  1.00 50.66 LIG 0.23  C 
BRANCH 19 20
ATOM     20  C   GLY D 111     -15.383  -4.849  16.776  1.00 62.91 LIG 0.23  C 
ATOM     21  N   GLU D 112     -15.161  -4.816  18.094  1.00 61.49 LIG-0.35  N 
ATOM     22 H    GLU D 112     -15.069  -4.079  18.528  1.00 61.49 LIG 0.16  HD
ATOM     23 O    GLY D 111     -15.598  -3.820  16.115  1.00 69.91 LIG-0.27  OA
BRANCH 21 24
ATOM     24  CA  GLU D 112     -15.050  -6.002  18.955  1.00 68.08 LIG 0.16  C 
BRANCH 24 25
ATOM     25  CB  GLU D 112     -16.369  -6.780  18.989  1.00 70.52 LIG 0.04  C 
BRANCH 25 26
ATOM     26  CG  GLU D 112     -17.441  -6.127  19.838  1.00 75.61 LIG 0.12  C 
BRANCH 26 27
ATOM     27  CD  GLU D 112     -18.560  -7.082  20.195  1.00 80.23 LIG 0.17  C 
ATOM     28 OE2  GLU D 112     -19.213  -6.871  21.241  1.00 75.53 LIG-0.65  OA
ATOM     29 OE1  GLU D 112     -18.788  -8.035  19.423  1.00 82.12 LIG-0.65  OA
ENDBRANCH 26 27
ENDBRANCH 25 26
ENDBRANCH 24 25
BRANCH 24 30
ATOM     30  C   GLU D 112     -13.884  -6.946  18.677  1.00 62.49 LIG 0.22  C 
ATOM     31 O    GLU D 112     -13.913  -8.113  19.077  1.00 75.48 LIG-0.29  OA
ENDBRANCH 24 30
ENDBRANCH 21 24
ENDBRANCH 19 20
ENDBRANCH 16 19
ENDBRANCH 6 15
ENDBRANCH 4 6
ENDBRANCH 1 2
BRANCH 1 32
ATOM     32  CB  SER D 109     -12.386  -4.375  14.807  1.00 41.32 LIG 0.20  C 
BRANCH 32 33
ATOM     33 OG   SER D 109     -12.709  -3.359  15.742  1.00 47.11 LIG-0.40  OA
ATOM     34 HG   SER D 109     -13.525  -3.169  15.679  1.00 47.11 LIG 0.21  HD
ENDBRANCH 32 33
ENDBRANCH 1 32
BRANCH 1 35
ATOM     35  N   SER D 109     -12.749  -2.549  13.172  1.00 33.49 LIG-0.34  N 
ATOM     36 H    SER D 109     -12.987  -2.052  13.832  1.00 33.49 LIG 0.16  HD
ATOM     37  C   ARG D 108     -12.303  -2.090  12.003  1.00 29.49 LIG 0.24  C 
ATOM     38 O    ARG D 108     -11.840  -2.822  11.125  1.00 22.63 LIG-0.27  OA
BRANCH 37 39
ATOM     39  CA  ARG D 108     -12.358  -0.592  11.795  1.00 38.27 LIG 0.18  C 
BRANCH 39 40
ATOM     40  N   ARG D 108     -11.169  -0.094  11.091  1.00 22.07 LIG-0.35  N 
ATOM     41 H    ARG D 108     -10.911  -0.569  10.422  1.00 22.07 LIG 0.16  HD
ATOM     42  C   PHE D 107     -10.583   1.013  11.507  1.00 20.48 LIG 0.26  C 
ATOM     43 O    PHE D 107     -11.038   1.679  12.423  1.00 25.48 LIG-0.27  OA
BRANCH 42 44
ATOM     44  CA  PHE D 107      -9.320   1.473  10.789  1.00 18.28 LIG 0.40  C 
ATOM     45  N   PHE D 107      -8.716   2.540  11.560  1.00 19.80 LIG 0.61  N 
BRANCH 44 46
ATOM     46  CB  PHE D 107      -8.332   0.339  10.616  1.00 13.52 LIG 0.09  C 
BRANCH 46 47
ATOM     47  CG  PHE D 107      -6.993   0.781  10.107  1.00 17.60 LIG-0.06  A 
ATOM     48  CD1 PHE D 107      -6.881   1.496   8.915  1.00 15.50 LIG 0.01  A 
ATOM     49  CE1 PHE D 107      -5.637   1.910   8.458  1.00 13.30 LIG 0.00  A 
ATOM     50  CZ  PHE D 107      -4.474   1.580   9.148  1.00 10.86 LIG 0.00  A 
ATOM     51  CE2 PHE D 107      -4.566   0.885  10.332  1.00 17.40 LIG 0.00  A 
ATOM     52  CD2 PHE D 107      -5.824   0.479  10.815  1.00 18.44 LIG 0.01  A 
ENDBRANCH 46 47
ENDBRANCH 44 46
ENDBRANCH 42 44
ENDBRANCH 39 40
BRANCH 39 53
ATOM     53  CB  ARG D 108     -13.657  -0.204  11.075  1.00 35.28 LIG 0.04  C 
BRANCH 53 54
ATOM     54  CG  ARG D 108     -13.770  -0.617   9.618  1.00 41.69 LIG 0.02  C 
BRANCH 54 55
ATOM     55  CD  ARG D 108     -14.084  -2.126   9.420  1.00 52.08 LIG 0.14  C 
BRANCH 55 56
ATOM     56  NE  ARG D 108     -15.253  -2.620  10.155  1.00 57.02 LIG-0.23  N 
ATOM     57  CZ  ARG D 108     -15.849  -3.797   9.930  1.00 70.73 LIG 0.67  C 
ATOM     58  NH1 ARG D 108     -15.409  -4.607   8.966  1.00 60.72 LIG-0.23  N 
ATOM     59  NH2 ARG D 108     -16.902  -4.165  10.664  1.00 54.42 LIG-0.23  N 
ATOM     60 2HH1 ARG D 108     -15.798  -5.361   8.827  1.00 60.72 LIG 0.17  HD
ATOM     61 1HH1 ARG D 108     -14.737  -4.374   8.482  1.00 60.72 LIG 0.17  HD
ATOM     62 2HH2 ARG D 108     -17.283  -4.921  10.518  1.00 54.42 LIG 0.17  HD
ATOM     63 1HH2 ARG D 108     -17.197  -3.645  11.282  1.00 54.42 LIG 0.17  HD
ATOM     64 HE   ARG D 108     -15.578  -2.118  10.774  1.00 57.02 LIG 0.18  HD
ENDBRANCH 55 56
ENDBRANCH 54 55
ENDBRANCH 53 54
ENDBRANCH 39 53
ENDBRANCH 37 39
ENDBRANCH 1 35
TORSDOF 27
