USER: ADFR SOLUTION from run 0
USER: SCORE 9.952958 LL:  -2.033 LR:  -9.736 RR:   0.000 FEB:  -4.665
USER: RMSD 0.069306
USER: STATUS Locally minimized using BFGS
USER: GENES 19
USER: genes 0 Translation |==|  0.51370 0.49034 0.55100
USER: genes 1 Rotation |==|  0.49675 0.49823 0.49961 0.99999
USER: genes 2 Torsion [N]-C--CA-[N] |==|  0.43065
USER: genes 3 Torsion [C]-CA--N-[C] |==|  0.66594
USER: genes 4 Torsion [N]-C--CA-[N] |==|  0.92602
USER: genes 5 Torsion [C]-CA--CB-[CG2] |==|  0.87705
USER: genes 6 Torsion [CA]-CB--CG1-[CD1] |==|  0.51340
USER: genes 7 Torsion [C]-CA--N-[H3] |==|  0.19177
USER: genes 8 Torsion [C]-CA--CB-[CG] |==|  0.49337
USER: genes 9 Torsion [CA]-CB--CG-[CD] |==|  0.53057
USER: genes 10 Torsion [CB]-CG--CD-[OE2] |==|  0.48420
USER: genes 11 Torsion [C]-N--CA-[CB] |==|  0.36680
USER: genes 12 Torsion [N]-CA--C-[N] |==|  0.43165
USER: genes 13 Torsion [C]-N--CA-[C] |==|  0.73306
USER: genes 14 Torsion [N]-CA--CB-[CG] |==|  0.76780
USER: genes 15 Torsion [CA]-CB--CG-[OD1] |==|  0.93061
USER: genes 16 Torsion [N]-CA--C-[O] |==|  0.63462
USER: genes 17 Torsion [N]-CA--CB-[OG1] |==|  0.17336
USER: genes 18 Torsion [CA]-CB--OG1-[HG1] |==|  0.74965
ROOT
ATOM      1  C   GLU G   2      16.413   6.262 -35.159  1.00 25.53 LIG 0.24  C 
ATOM      2 O    GLU G   2      15.270   5.824 -35.112  1.00 27.72 LIG-0.27  OA
ATOM      3  N   THR G   3      16.693   7.556 -35.066  1.00 24.80 LIG-0.34  N 
ATOM      4 H    THR G   3      17.489   7.881 -35.093  1.00 24.80 LIG 0.16  HD
ENDROOT
BRANCH 1 5
ATOM      5  CA  GLU G   2      17.600   5.330 -35.333  1.00 28.49 LIG 0.18  C 
BRANCH 5 6
ATOM      6  N   GLU G   2      17.324   3.976 -34.858  1.00 29.38 LIG-0.35  N 
ATOM      7 H    GLU G   2      16.668   3.584 -35.254  1.00 29.38 LIG 0.16  HD
ATOM      8  C   ILE G   1      18.049   3.426 -33.888  1.00 32.49 LIG 0.25  C 
ATOM      9 O    ILE G   1      18.982   4.010 -33.345  1.00 35.08 LIG-0.27  OA
BRANCH 8 10
ATOM     10  CA  ILE G   1      17.659   2.014 -33.458  1.00 40.53 LIG 0.28  C 
BRANCH 10 11
ATOM     11  CB  ILE G   1      18.556   0.980 -34.173  1.00 45.86 LIG 0.02  C 
ATOM     12  CG2 ILE G   1      18.709   1.319 -35.629  1.00 44.63 LIG 0.01  C 
BRANCH 11 13
ATOM     13  CG1 ILE G   1      19.942   0.915 -33.531  1.00 53.07 LIG 0.00  C 
ATOM     14  CD1 ILE G   1      20.900  -0.001 -34.268  1.00 50.29 LIG 0.01  C 
ENDBRANCH 11 13
ENDBRANCH 10 11
BRANCH 10 15
ATOM     15  N   ILE G   1      16.247   1.773 -33.719  1.00 42.16 LIG-0.07  N 
ATOM     16 H3   ILE G   1      16.110   1.735 -34.597  1.00 42.16 LIG 0.28  HD
ATOM     17 H1   ILE G   1      16.004   1.003 -33.347  1.00 42.16 LIG 0.28  HD
ATOM     18 H2   ILE G   1      15.765   2.436 -33.371  1.00 42.16 LIG 0.28  HD
ENDBRANCH 10 15
ENDBRANCH 8 10
ENDBRANCH 5 6
BRANCH 5 19
ATOM     19  CB  GLU G   2      18.022   5.308 -36.796  1.00 31.40 LIG 0.04  C 
BRANCH 19 20
ATOM     20  CG  GLU G   2      19.233   4.450 -37.049  1.00 29.13 LIG 0.12  C 
BRANCH 20 21
ATOM     21  CD  GLU G   2      19.794   4.643 -38.429  1.00 32.73 LIG 0.17  C 
ATOM     22 OE2  GLU G   2      20.862   4.064 -38.711  1.00 36.24 LIG-0.65  OA
ATOM     23 OE1  GLU G   2      19.170   5.375 -39.228  1.00 30.62 LIG-0.65  OA
ENDBRANCH 20 21
ENDBRANCH 19 20
ENDBRANCH 5 19
ENDBRANCH 1 5
BRANCH 3 24
ATOM     24  CA  THR G   3      15.639   8.545 -34.906  1.00 22.88 LIG 0.20  C 
BRANCH 24 25
ATOM     25  C   THR G   3      15.426   9.314 -36.200  1.00 24.60 LIG 0.24  C 
ATOM     26  N   ASP G   4      14.228   9.855 -36.367  1.00 24.15 LIG-0.35  N 
ATOM     27 H    ASP G   4      13.588   9.795 -35.797  1.00 24.15 LIG 0.16  HD
ATOM     28 O    THR G   3      16.326   9.419 -37.029  1.00 25.42 LIG-0.27  OA
BRANCH 26 29
ATOM     29  CA  ASP G   4      13.904  10.612 -37.568  1.00 27.29 LIG 0.17  C 
BRANCH 29 30
ATOM     30  CB  ASP G   4      12.498  10.264 -38.049  1.00 26.38 LIG 0.15  C 
BRANCH 30 31
ATOM     31  CG  ASP G   4      12.486   9.012 -38.892  1.00 24.82 LIG 0.17  C 
ATOM     32 OD2  ASP G   4      11.443   8.329 -38.981  1.00 25.35 LIG-0.65  OA
ATOM     33 OD1  ASP G   4      13.541   8.715 -39.476  1.00 26.55 LIG-0.65  OA
ENDBRANCH 30 31
ENDBRANCH 29 30
BRANCH 29 34
ATOM     34  C   ASP G   4      14.077  12.119 -37.390  1.00 29.06 LIG 0.22  C 
ATOM     35 O    ASP G   4      13.199  12.903 -37.738  1.00 23.21 LIG-0.29  OA
ENDBRANCH 29 34
ENDBRANCH 26 29
ENDBRANCH 24 25
BRANCH 24 36
ATOM     36  CB  THR G   3      15.956   9.534 -33.777  1.00 24.93 LIG 0.15  C 
ATOM     37  CG2 THR G   3      16.144   8.795 -32.462  1.00 25.23 LIG 0.04  C 
BRANCH 36 38
ATOM     38 OG1  THR G   3      17.147  10.260 -34.099  1.00 25.78 LIG-0.39  OA
ATOM     39 HG1  THR G   3      17.816   9.851 -33.798  1.00 25.78 LIG 0.21  HD
ENDBRANCH 36 38
ENDBRANCH 24 36
ENDBRANCH 3 24
TORSDOF 17
