USER: ADFR SOLUTION from run 0
USER: SCORE 17.330653 LL:  -3.116 LR: -17.100 RR:   0.000 FEB:  -9.940
USER: RMSD 0.079126
USER: STATUS Locally minimized using BFGS
USER: GENES 26
USER: genes 0 Translation |==|  0.50740 0.58032 0.59161
USER: genes 1 Rotation |==|  0.49972 0.49959 0.50156 1.00000
USER: genes 2 Torsion [N]-C--CA-[N] |==|  0.39741
USER: genes 3 Torsion [C]-CA--N-[C] |==|  0.71876
USER: genes 4 Torsion [N]-C--CA-[N] |==|  0.42819
USER: genes 5 Torsion [C]-CA--CB-[CG] |==|  0.15557
USER: genes 6 Torsion [CA]-CB--CG-[CD] |==|  0.50388
USER: genes 7 Torsion [CB]-CG--CD-[CE] |==|  0.46734
USER: genes 8 Torsion [CG]-CD--CE-[NZ] |==|  0.18883
USER: genes 9 Torsion [CD]-CE--NZ-[HZ1] |==|  0.45833
USER: genes 10 Torsion [C]-CA--N-[C] |==|  0.60172
USER: genes 11 Torsion [N]-C--CA-[N] |==|  0.95902
USER: genes 12 Torsion [C]-CA--CB-[CG] |==|  0.52681
USER: genes 13 Torsion [CA]-CB--CG-[CD] |==|  0.84827
USER: genes 14 Torsion [CB]-CG--CD-[NE2] |==|  0.35311
USER: genes 15 Torsion [C]-N--CA-[CB] |==|  0.26034
USER: genes 16 Torsion [N]-CA--C-[N] |==|  0.44997
USER: genes 17 Torsion [C]-N--CA-[C] |==|  0.69060
USER: genes 18 Torsion [N]-CA--C-[N] |==|  0.40883
USER: genes 19 Torsion [C]-N--CA-[CB] |==|  0.45087
USER: genes 20 Torsion [N]-CA--C-[N] |==|  0.41951
USER: genes 21 Torsion [C]-N--CA-[CB] |==|  0.35499
USER: genes 22 Torsion [N]-CA--CB-[CG2] |==|  0.18786
USER: genes 23 Torsion [N]-CA--C-[OXT] |==|  0.52496
USER: genes 24 Torsion [N]-CA--CB-[CG] |==|  0.82491
USER: genes 25 Torsion [CA]-CB--CG-[OD1] |==|  0.90272
ROOT
ATOM      1  C   GLN B  14      -3.148  34.807  -7.610  1.00 10.58 LIG 0.24  C 
ATOM      2 O    GLN B  14      -4.383  34.872  -7.631  1.00 11.08 LIG-0.27  OA
ATOM      3  N   ALA B  15      -2.444  33.766  -8.121  1.00  8.59 LIG-0.35  N 
ATOM      4 H    ALA B  15      -1.587  33.687  -8.101  1.00  8.59 LIG 0.16  HD
ENDROOT
BRANCH 1 5
ATOM      5  CA  GLN B  14      -2.328  35.940  -6.964  1.00 10.91 LIG 0.18  C 
BRANCH 5 6
ATOM      6  N   GLN B  14      -2.945  37.252  -7.245  1.00 11.57 LIG-0.35  N 
ATOM      7 H    GLN B  14      -3.626  37.449  -6.758  1.00 11.57 LIG 0.16  HD
ATOM      8  C   LYS B  13      -2.443  38.033  -8.195  0.75 12.06 LIG 0.24  C 
ATOM      9 O    LYS B  13      -1.434  37.766  -8.868  0.75 12.45 LIG-0.27  OA
BRANCH 8 10
ATOM     10  CA  LYS B  13      -3.184  39.367  -8.372  0.75 15.41 LIG 0.18  C 
BRANCH 10 11
ATOM     11  CB  LYS B  13      -4.457  39.259  -9.242  0.75 17.54 LIG 0.04  C 
BRANCH 11 12
ATOM     12  CG  LYS B  13      -5.554  38.259  -8.848  0.75 22.88 LIG 0.00  C 
BRANCH 12 13
ATOM     13  CD  LYS B  13      -6.732  38.280  -9.869  0.75 30.51 LIG 0.03  C 
BRANCH 13 14
ATOM     14  CE  LYS B  13      -7.711  37.101  -9.679  0.75 32.79 LIG 0.23  C 
BRANCH 14 15
ATOM     15  NZ  LYS B  13      -8.519  37.111  -8.437  0.75 35.43 LIG-0.08  N 
ATOM     16 HZ1  LYS B  13      -9.190  36.533  -8.515  0.75 35.43 LIG 0.27  HD
ATOM     17 HZ2  LYS B  13      -8.007  36.878  -7.747  0.75 35.43 LIG 0.27  HD
ATOM     18 HZ3  LYS B  13      -8.846  37.927  -8.301  0.75 35.43 LIG 0.27  HD
ENDBRANCH 14 15
ENDBRANCH 13 14
ENDBRANCH 12 13
ENDBRANCH 11 12
ENDBRANCH 10 11
BRANCH 10 19
ATOM     19  N   LYS B  13      -2.264  40.361  -8.935  0.75 16.03 LIG-0.35  N 
ATOM     20  C   ALA B  12      -2.358  41.641  -8.522  0.50 20.56 LIG 0.26  C 
ATOM     21 O    ALA B  12      -3.191  41.996  -7.712  0.50 22.07 LIG-0.27  OA
ATOM     22 H    LYS B  13      -1.700  40.063  -9.512  0.75 16.03 LIG 0.16  HD
BRANCH 20 23
ATOM     23  CA  ALA B  12      -1.373  42.694  -9.021  0.50 23.14 LIG 0.40  C 
ATOM     24  N   ALA B  12      -0.187  42.121  -9.663  0.50 24.66 LIG 0.61  N 
ATOM     25  CB  ALA B  12      -2.080  43.727  -9.924  0.50 23.20 LIG 0.06  C 
ENDBRANCH 20 23
ENDBRANCH 10 19
ENDBRANCH 8 10
ENDBRANCH 5 6
BRANCH 5 26
ATOM     26  CB  GLN B  14      -2.212  35.707  -5.461  1.00 11.50 LIG 0.04  C 
BRANCH 26 27
ATOM     27  CG  GLN B  14      -1.609  36.900  -4.646  1.00 13.46 LIG 0.10  C 
BRANCH 27 28
ATOM     28  CD  GLN B  14      -0.288  37.367  -5.127  1.00 12.39 LIG 0.21  C 
ATOM     29 OE1  GLN B  14       0.622  36.586  -5.284  1.00 14.45 LIG-0.27  OA
ATOM     30  NE2 GLN B  14      -0.174  38.656  -5.383  1.00 17.10 LIG-0.37  N 
ATOM     31 22HE GLN B  14       0.570  38.972  -5.675  1.00 17.10 LIG 0.16  HD
ATOM     32 21HE GLN B  14      -0.844  39.180  -5.258  1.00 17.10 LIG 0.16  HD
ENDBRANCH 27 28
ENDBRANCH 26 27
ENDBRANCH 5 26
ENDBRANCH 1 5
BRANCH 3 33
ATOM     33  CA  ALA B  15      -3.156  32.683  -8.760  1.00  7.39 LIG 0.17  C 
ATOM     34  CB  ALA B  15      -3.231  32.962 -10.338  1.00  8.95 LIG 0.04  C 
BRANCH 33 35
ATOM     35  C   ALA B  15      -2.430  31.369  -8.416  1.00  7.55 LIG 0.24  C 
ATOM     36  N   GLY B  16      -3.088  30.233  -8.580  1.00  7.69 LIG-0.35  N 
ATOM     37 H    GLY B  16      -3.893  30.188  -8.878  1.00  7.69 LIG 0.16  HD
ATOM     38 O    ALA B  15      -1.270  31.396  -8.024  1.00  7.87 LIG-0.27  OA
BRANCH 36 39
ATOM     39  CA  GLY B  16      -2.485  28.921  -8.259  1.00  6.73 LIG 0.23  C 
BRANCH 39 40
ATOM     40  C   GLY B  16      -2.212  28.066  -9.452  1.00  7.46 LIG 0.24  C 
ATOM     41 O    GLY B  16      -2.961  28.079 -10.416  1.00  8.30 LIG-0.27  OA
ATOM     42  N   ASP B  17      -1.155  27.289  -9.349  1.00  6.73 LIG-0.35  N 
ATOM     43 H    ASP B  17      -0.604  27.316  -8.690  1.00  6.73 LIG 0.16  HD
BRANCH 42 44
ATOM     44  CA  ASP B  17      -0.830  26.308 -10.360  1.00  7.41 LIG 0.19  C 
BRANCH 44 45
ATOM     45  C   ASP B  17      -1.678  25.081 -10.236  1.00  8.52 LIG 0.24  C 
ATOM     46  N   VAL B  18      -1.873  24.467 -11.380  1.00  7.60 LIG-0.34  N 
ATOM     47 H    VAL B  18      -1.763  24.817 -12.158  1.00  7.60 LIG 0.16  HD
ATOM     48 O    ASP B  17      -2.058  24.636  -9.142  1.00  9.78 LIG-0.27  OA
BRANCH 46 49
ATOM     49  CA  VAL B  18      -2.327  23.028 -11.369  1.00  7.37 LIG 0.19  C 
BRANCH 49 50
ATOM     50  CB  VAL B  18      -3.599  22.957 -12.288  1.00  7.62 LIG 0.01  C 
ATOM     51  CG2 VAL B  18      -3.330  23.202 -13.767  1.00  8.69 LIG 0.01  C 
ATOM     52  CG1 VAL B  18      -4.768  23.762 -11.721  1.00  8.94 LIG 0.01  C 
ENDBRANCH 49 50
BRANCH 49 53
ATOM     53  C   VAL B  18      -1.217  21.971 -11.709  1.00  8.71 LIG 0.20  C 
ATOM     54 OXT  VAL B  18      -1.423  20.846 -11.891  1.00  9.21 LIG-0.65  OA
ATOM     55 O    VAL B  18      -0.085  22.579 -11.847  1.00  8.10 LIG-0.65  OA
ENDBRANCH 49 53
ENDBRANCH 46 49
ENDBRANCH 44 45
BRANCH 44 56
ATOM     56  CB  ASP B  17       0.639  25.837 -10.259  1.00  8.76 LIG 0.15  C 
BRANCH 56 57
ATOM     57  CG  ASP B  17       1.639  26.920 -10.493  1.00  8.08 LIG 0.17  C 
ATOM     58 OD1  ASP B  17       1.461  27.808 -11.275  1.00  9.66 LIG-0.65  OA
ATOM     59 OD2  ASP B  17       2.677  26.844  -9.740  1.00  7.95 LIG-0.65  OA
ENDBRANCH 56 57
ENDBRANCH 44 56
ENDBRANCH 42 44
ENDBRANCH 39 40
ENDBRANCH 36 39
ENDBRANCH 33 35
ENDBRANCH 3 33
TORSDOF 24
