USER: ADFR SOLUTION from run 0
USER: SCORE 17.284257 LL:  -4.017 LR: -14.633 RR:   0.000 FEB:  -7.772
USER: RMSD 0.876494
USER: STATUS Locally minimized using BFGS
USER: GENES 25
USER: genes 0 Translation |==|  0.55683 0.43390 0.50012
USER: genes 1 Rotation |==|  0.50116 0.51411 0.51359 0.99961
USER: genes 2 Torsion [N]-C--CA-[N] |==|  0.37680
USER: genes 3 Torsion [C]-CA--N-[C] |==|  0.65841
USER: genes 4 Torsion [N]-C--CA-[N] |==|  0.38254
USER: genes 5 Torsion [C]-CA--N-[C] |==|  0.75010
USER: genes 6 Torsion [N]-C--CA-[CB] |==|  0.73977
USER: genes 7 Torsion [N]-C--CA-[N] |==|  0.42981
USER: genes 8 Torsion [C]-CA--CB-[CG2] |==|  0.19420
USER: genes 9 Torsion [CA]-CB--OG1-[HG1] |==|  0.50043
USER: genes 10 Torsion [C]-CA--CB-[CG2] |==|  0.17369
USER: genes 11 Torsion [CA]-CB--CG1-[CD1] |==|  0.47069
USER: genes 12 Torsion [C]-N--CA-[CB] |==|  0.27193
USER: genes 13 Torsion [N]-CA--CB-[CG] |==|  0.17708
USER: genes 14 Torsion [CA]-CB--CG-[CD] |==|  0.41952
USER: genes 15 Torsion [CB]-CG--CD-[OE2] |==|  0.67741
USER: genes 16 Torsion [N]-CA--C-[N] |==|  0.43222
USER: genes 17 Torsion [C]-N--CA-[C] |==|  0.77666
USER: genes 18 Torsion [N]-CA--CB-[CG] |==|  0.54975
USER: genes 19 Torsion [CA]-CB--CG-[CD] |==|  0.43476
USER: genes 20 Torsion [CB]-CG--CD-[OE1] |==|  0.96246
USER: genes 21 Torsion [N]-CA--C-[N] |==|  0.37039
USER: genes 22 Torsion [C]-N--CA-[C] |==|  0.58807
USER: genes 23 Torsion [N]-CA--C-[O] |==|  0.33561
USER: genes 24 Torsion [N]-CA--CB-[CG1] |==|  0.21321
ROOT
ATOM      1  C   ILE C 637       3.634   4.999  91.723  1.00 71.80 LIG 0.24  C 
ATOM      2 O    ILE C 637       4.665   4.844  91.065  1.00 71.76 LIG-0.27  OA
ATOM      3  N   GLU C 638       3.623   5.451  92.976  1.00 72.25 LIG-0.35  N 
ATOM      4 H    GLU C 638       2.898   5.563  93.425  1.00 72.25 LIG 0.16  HD
ENDROOT
BRANCH 1 5
ATOM      5  CA  ILE C 637       2.262   4.679  91.116  1.00 71.40 LIG 0.18  C 
BRANCH 5 6
ATOM      6  N   ILE C 637       2.154   5.195  89.748  1.00 71.04 LIG-0.35  N 
ATOM      7 H    ILE C 637       2.760   4.907  89.210  1.00 71.04 LIG 0.16  HD
ATOM      8  C   THR C 636       1.185   6.041  89.398  1.00 70.97 LIG 0.24  C 
ATOM      9 O    THR C 636       0.297   6.402  90.176  1.00 70.72 LIG-0.27  OA
BRANCH 8 10
ATOM     10  CA  THR C 636       1.202   6.554  87.955  1.00 71.02 LIG 0.20  C 
BRANCH 10 11
ATOM     11  N   THR C 636      -0.173   6.551  87.427  1.00 70.97 LIG-0.34  N 
ATOM     12  C   PRO C 635      -0.716   5.508  86.795  1.00 71.03 LIG 0.24  C 
ATOM     13 O    PRO C 635      -0.077   4.502  86.465  1.00 70.76 LIG-0.27  OA
ATOM     14 H    THR C 636      -0.596   7.288  87.564  1.00 70.97 LIG 0.16  HD
BRANCH 12 15
ATOM     15  CA  PRO C 635      -2.215   5.612  86.471  1.00 71.21 LIG 0.18  C 
ATOM     16  N   PRO C 635      -2.623   4.864  85.268  1.00 71.31 LIG-0.34  N 
ATOM     17  CD  PRO C 635      -3.644   3.842  85.573  1.00 71.36 LIG 0.13  C 
ATOM     18  C   GLY C 634      -2.179   5.163  84.029  1.00 71.43 LIG 0.25  C 
ATOM     19  CG  PRO C 635      -4.170   4.264  86.911  1.00 71.49 LIG 0.02  C 
ATOM     20  CB  PRO C 635      -3.038   4.958  87.594  1.00 71.24 LIG 0.04  C 
ATOM     21 O    GLY C 634      -1.438   6.125  83.796  1.00 71.42 LIG-0.27  OA
BRANCH 18 22
ATOM     22  CA  GLY C 634      -2.637   4.264  82.894  1.00 71.52 LIG 0.47  C 
ATOM     23  N   GLY C 634      -2.626   4.959  81.571  1.00 71.59 LIG 0.61  N 
ENDBRANCH 18 22
ENDBRANCH 12 15
ENDBRANCH 10 11
BRANCH 10 24
ATOM     24  CB  THR C 636       1.842   7.980  87.926  1.00 71.07 LIG 0.15  C 
ATOM     25  CG2 THR C 636       3.348   7.929  88.220  1.00 70.82 LIG 0.04  C 
BRANCH 24 26
ATOM     26 OG1  THR C 636       1.633   8.588  86.644  1.00 71.09 LIG-0.39  OA
ATOM     27 HG1  THR C 636       1.982   9.352  86.637  1.00 71.09 LIG 0.21  HD
ENDBRANCH 24 26
ENDBRANCH 10 24
ENDBRANCH 8 10
ENDBRANCH 5 6
BRANCH 5 28
ATOM     28  CB  ILE C 637       1.953   3.144  91.206  1.00 71.49 LIG 0.01  C 
ATOM     29  CG2 ILE C 637       1.886   2.687  92.681  1.00 71.22 LIG 0.01  C 
BRANCH 28 30
ATOM     30  CG1 ILE C 637       0.650   2.798  90.460  1.00 71.24 LIG 0.00  C 
ATOM     31  CD1 ILE C 637       0.373   1.309  90.261  1.00 71.20 LIG 0.01  C 
ENDBRANCH 28 30
ENDBRANCH 5 28
ENDBRANCH 1 5
BRANCH 3 32
ATOM     32  CA  GLU C 638       4.833   5.807  93.727  1.00 72.93 LIG 0.18  C 
BRANCH 32 33
ATOM     33  CB  GLU C 638       5.072   7.324  93.674  1.00 72.95 LIG 0.04  C 
BRANCH 33 34
ATOM     34  CG  GLU C 638       3.973   8.165  94.347  1.00 74.36 LIG 0.12  C 
BRANCH 34 35
ATOM     35  CD  GLU C 638       4.480   9.485  94.910  1.00 76.05 LIG 0.17  C 
ATOM     36 OE2  GLU C 638       4.421   9.666  96.147  1.00 76.25 LIG-0.65  OA
ATOM     37 OE1  GLU C 638       4.923  10.345  94.118  1.00 76.85 LIG-0.65  OA
ENDBRANCH 34 35
ENDBRANCH 33 34
ENDBRANCH 32 33
BRANCH 32 38
ATOM     38  C   GLU C 638       4.694   5.348  95.185  1.00 72.91 LIG 0.24  C 
ATOM     39 O    GLU C 638       3.574   5.211  95.682  1.00 72.88 LIG-0.27  OA
ATOM     40  N   GLU C 639       5.814   5.125  95.875  1.00 73.09 LIG-0.35  N 
ATOM     41 H    GLU C 639       6.608   5.196  95.553  1.00 73.09 LIG 0.16  HD
BRANCH 40 42
ATOM     42  CA  GLU C 639       5.751   4.727  97.290  1.00 73.29 LIG 0.18  C 
BRANCH 42 43
ATOM     43  CB  GLU C 639       6.993   3.932  97.716  1.00 73.41 LIG 0.04  C 
BRANCH 43 44
ATOM     44  CG  GLU C 639       6.778   3.138  99.017  1.00 73.70 LIG 0.12  C 
BRANCH 44 45
ATOM     45  CD  GLU C 639       7.704   1.948  99.178  1.00 74.11 LIG 0.17  C 
ATOM     46 OE1  GLU C 639       8.363   1.540  98.196  1.00 74.46 LIG-0.65  OA
ATOM     47 OE2  GLU C 639       7.764   1.411 100.304  1.00 74.46 LIG-0.65  OA
ENDBRANCH 44 45
ENDBRANCH 43 44
ENDBRANCH 42 43
BRANCH 42 48
ATOM     48  C   GLU C 639       5.525   5.916  98.221  1.00 73.41 LIG 0.24  C 
ATOM     49  N   VAL C 640       4.591   5.764  99.161  1.00 73.52 LIG-0.35  N 
ATOM     50 H    VAL C 640       4.141   5.038  99.268  1.00 73.52 LIG 0.16  HD
ATOM     51 O    GLU C 639       6.185   6.947  98.085  1.00 73.53 LIG-0.27  OA
BRANCH 49 52
ATOM     52  CA  VAL C 640       4.239   6.826 100.104  1.00 73.62 LIG 0.17  C 
BRANCH 52 53
ATOM     53  C   VAL C 640       3.803   6.246 101.454  1.00 73.72 LIG 0.22  C 
ATOM     54 O    VAL C 640       4.402   6.532 102.494  1.00 73.67 LIG-0.29  OA
ENDBRANCH 52 53
BRANCH 52 55
ATOM     55  CB  VAL C 640       3.138   7.765  99.522  1.00 73.60 LIG 0.01  C 
ATOM     56  CG1 VAL C 640       1.757   7.115  99.587  1.00 73.34 LIG 0.01  C 
ATOM     57  CG2 VAL C 640       3.139   9.104 100.243  1.00 74.00 LIG 0.01  C 
ENDBRANCH 52 55
ENDBRANCH 49 52
ENDBRANCH 42 48
ENDBRANCH 40 42
ENDBRANCH 32 38
ENDBRANCH 3 32
TORSDOF 23
