USER: ADFR SOLUTION from run 0
USER: SCORE 19.204209 LL:  -4.699 LR: -15.088 RR:   0.000 FEB:  -8.525
USER: RMSD 0.862866
USER: STATUS Locally minimized using BFGS
USER: GENES 24
USER: genes 0 Translation |==|  0.49613 0.52466 0.50272
USER: genes 1 Rotation |==|  0.49450 0.50859 0.51349 0.99971
USER: genes 2 Torsion [C]-N--CA-[C] |==|  0.65123
USER: genes 3 Torsion [N]-CA--C-[N] |==|  0.38684
USER: genes 4 Torsion [C]-N--CA-[C] |==|  0.80852
USER: genes 5 Torsion [N]-CA--C-[N] |==|  0.31667
USER: genes 6 Torsion [C]-N--CA-[CB] |==|  0.26259
USER: genes 7 Torsion [N]-CA--C-[OXT] |==|  0.48433
USER: genes 8 Torsion [N]-CA--CB-[CG] |==|  0.85306
USER: genes 9 Torsion [CA]-CB--CG-[CD1] |==|  0.47639
USER: genes 10 Torsion [N]-CA--CB-[OG] |==|  0.84912
USER: genes 11 Torsion [CA]-CB--OG-[HG] |==|  0.49818
USER: genes 12 Torsion [N]-CA--CB-[CG] |==|  0.58750
USER: genes 13 Torsion [CA]-CB--CG-[CD] |==|  0.36652
USER: genes 14 Torsion [CB]-CG--CD-[OE2] |==|  0.82922
USER: genes 15 Torsion [N]-C--CA-[N] |==|  0.37643
USER: genes 16 Torsion [C]-CA--N-[C] |==|  0.74963
USER: genes 17 Torsion [N]-C--CA-[N] |==|  0.86760
USER: genes 18 Torsion [C]-CA--CB-[CG2] |==|  0.15088
USER: genes 19 Torsion [CA]-CB--CG1-[CD1] |==|  0.42843
USER: genes 20 Torsion [C]-CA--N-[C] |==|  0.82482
USER: genes 21 Torsion [C]-CA--CB-[CG] |==|  0.51237
USER: genes 22 Torsion [CA]-CB--CG-[CD2] |==|  0.72997
USER: genes 23 Torsion [CE2]-CZ--OH-[HH] |==|  0.92691
ROOT
ATOM      1  C   TYR B   2      21.203  14.425  37.309  1.00 34.05 LIG 0.24  C 
ATOM      2 O    TYR B   2      22.430  14.413  37.382  1.00 39.10 LIG-0.27  OA
ATOM      3  N   GLU B   3      20.395  13.604  37.964  1.00 35.19 LIG-0.35  N 
ATOM      4 H    GLU B   3      19.539  13.674  37.936  1.00 35.19 LIG 0.16  HD
ENDROOT
BRANCH 3 5
ATOM      5  CA  GLU B   3      20.860  12.491  38.802  1.00 40.21 LIG 0.18  C 
BRANCH 5 6
ATOM      6  C   GLU B   3      20.194  11.224  38.327  1.00 33.75 LIG 0.24  C 
ATOM      7 O    GLU B   3      19.016  11.251  38.006  1.00 31.69 LIG-0.27  OA
ATOM      8  N   SER B   4      20.925  10.095  38.269  1.00 29.90 LIG-0.34  N 
ATOM      9 H    SER B   4      21.776  10.060  38.393  1.00 29.90 LIG 0.16  HD
BRANCH 8 10
ATOM     10  CA  SER B   4      20.293   8.812  37.982  1.00 28.06 LIG 0.20  C 
BRANCH 10 11
ATOM     11  C   SER B   4      19.416   8.424  39.179  1.00 33.99 LIG 0.24  C 
ATOM     12  N   LEU B   5      18.111   8.386  38.956  1.00 32.03 LIG-0.34  N 
ATOM     13 H    LEU B   5      17.768   8.460  38.172  1.00 32.03 LIG 0.16  HD
ATOM     14 O    SER B   4      19.929   8.191  40.287  1.00 35.03 LIG-0.27  OA
BRANCH 12 15
ATOM     15  CA  LEU B   5      17.104   8.212  40.028  1.00 33.34 LIG 0.18  C 
BRANCH 15 16
ATOM     16  C   LEU B   5      15.905   7.389  39.581  1.00 39.47 LIG 0.20  C 
ATOM     17 O    LEU B   5      15.781   7.104  38.377  1.00 29.87 LIG-0.65  OA
ATOM     18 OXT  LEU B   5      15.001   7.053  40.397  1.00 38.97 LIG-0.65  OA
ENDBRANCH 15 16
BRANCH 15 19
ATOM     19  CB  LEU B   5      16.590   9.567  40.500  1.00 34.52 LIG 0.04  C 
BRANCH 19 20
ATOM     20  CG  LEU B   5      17.639  10.579  40.916  1.00 35.74 LIG-0.02  C 
ATOM     21  CD1 LEU B   5      16.964  11.937  41.154  1.00 34.91 LIG 0.01  C 
ATOM     22  CD2 LEU B   5      18.374  10.089  42.154  1.00 32.02 LIG 0.01  C 
ENDBRANCH 19 20
ENDBRANCH 15 19
ENDBRANCH 12 15
ENDBRANCH 10 11
BRANCH 10 23
ATOM     23  CB  SER B   4      21.323   7.704  37.708  1.00 31.79 LIG 0.20  C 
BRANCH 23 24
ATOM     24 OG   SER B   4      22.211   8.100  36.678  1.00 32.94 LIG-0.40  OA
ATOM     25 HG   SER B   4      22.774   7.491  36.544  1.00 32.94 LIG 0.21  HD
ENDBRANCH 23 24
ENDBRANCH 10 23
ENDBRANCH 8 10
ENDBRANCH 5 6
BRANCH 5 26
ATOM     26  CB  GLU B   3      20.442  12.726  40.250  1.00 42.52 LIG 0.04  C 
BRANCH 26 27
ATOM     27  CG  GLU B   3      21.432  12.141  41.258  1.00 61.90 LIG 0.12  C 
BRANCH 27 28
ATOM     28  CD  GLU B   3      21.793  13.124  42.341  1.00 67.28 LIG 0.17  C 
ATOM     29 OE1  GLU B   3      21.492  12.833  43.523  1.00 80.18 LIG-0.65  OA
ATOM     30 OE2  GLU B   3      22.357  14.192  42.003  1.00 64.56 LIG-0.65  OA
ENDBRANCH 27 28
ENDBRANCH 26 27
ENDBRANCH 5 26
ENDBRANCH 3 5
BRANCH 1 31
ATOM     31  CA  TYR B   2      20.513  15.462  36.435  1.00 27.59 LIG 0.18  C 
BRANCH 31 32
ATOM     32  N   TYR B   2      21.136  16.768  36.621  1.00 28.42 LIG-0.35  N 
ATOM     33 H    TYR B   2      21.791  16.931  36.087  1.00 28.42 LIG 0.16  HD
ATOM     34  C   ILE B   1      20.707  17.608  37.544  1.00 34.57 LIG 0.24  C 
ATOM     35 O    ILE B   1      19.776  17.342  38.332  1.00 35.77 LIG-0.27  OA
BRANCH 34 36
ATOM     36  CA  ILE B   1      21.387  18.952  37.578  1.00 36.91 LIG 0.18  C 
BRANCH 36 37
ATOM     37  CB  ILE B   1      20.935  19.728  36.345  1.00 38.00 LIG 0.01  C 
ATOM     38  CG2 ILE B   1      19.398  19.783  36.293  1.00 37.47 LIG 0.01  C 
BRANCH 37 39
ATOM     39  CG1 ILE B   1      21.531  21.136  36.392  1.00 43.59 LIG 0.00  C 
ATOM     40  CD1 ILE B   1      21.694  21.778  35.038  1.00 39.71 LIG 0.01  C 
ENDBRANCH 37 39
ENDBRANCH 36 37
BRANCH 36 41
ATOM     41  N   ILE B   1      22.879  18.852  37.535  1.00 36.86 LIG-0.35  N 
ATOM     42 H    ILE B   1      23.225  19.214  36.835  1.00 36.86 LIG 0.16  HD
ATOM     43  C   ACE B   0      23.624  18.251  38.503  1.00 40.91 LIG 0.21  C 
ATOM     44 O    ACE B   0      23.132  17.738  39.494  1.00 40.13 LIG-0.27  OA
ATOM     45  CH3 ACE B   0      25.128  18.223  38.298  1.00 36.31 LIG 0.12  C 
ENDBRANCH 36 41
ENDBRANCH 34 36
ENDBRANCH 31 32
BRANCH 31 46
ATOM     46  CB  TYR B   2      20.577  15.042  34.985  1.00 30.42 LIG 0.07  C 
BRANCH 46 47
ATOM     47  CG  TYR B   2      20.006  16.064  33.992  1.00 30.81 LIG-0.06  A 
ATOM     48  CD2 TYR B   2      18.705  15.970  33.497  1.00 30.26 LIG 0.01  A 
ATOM     49  CE2 TYR B   2      18.218  16.926  32.568  1.00 27.61 LIG 0.04  A 
ATOM     50  CZ  TYR B   2      19.047  17.967  32.181  1.00 28.62 LIG 0.07  A 
ATOM     51  CE1 TYR B   2      20.323  18.061  32.668  1.00 33.56 LIG 0.04  A 
ATOM     52  CD1 TYR B   2      20.789  17.112  33.567  1.00 35.64 LIG 0.01  A 
BRANCH 50 53
ATOM     53 OH   TYR B   2      18.655  18.933  31.268  1.00 30.95 LIG-0.36  OA
ATOM     54 HH   TYR B   2      18.069  18.615  30.757  1.00 30.95 LIG 0.22  HD
ENDBRANCH 50 53
ENDBRANCH 46 47
ENDBRANCH 31 46
ENDBRANCH 1 31
TORSDOF 22
