USER: ADFR SOLUTION from run 0
USER: SCORE 9.580845 LL:  -1.327 LR:  -8.253 RR:   0.000 FEB:  -7.060
USER: RMSD 0.344516
USER: STATUS Locally minimized using BFGS
USER: GENES 6
USER: genes 0 Translation |==|  0.36916 0.43808 0.45677
USER: genes 1 Rotation |==|  0.49451 0.49377 0.49700 0.99992
USER: genes 2 Torsion [N]-CA--C-[O] |==|  0.94737
USER: genes 3 Torsion [N]-CA--C-[O] |==|  0.92322
USER: genes 4 Torsion [N]-C--CA-[N] |==|  0.44340
USER: genes 5 Torsion [C]-CA--N-[H1] |==|  0.46715
ROOT
ATOM      1  C   ALA E   1    -108.140  67.196  -9.780  0.79 25.31 LIG 0.25  C 
ATOM      2 O    ALA E   1    -107.429  67.031 -10.761  0.79 21.55 LIG-0.27  OA
ATOM      3  N   PRO E   2    -108.381  68.421  -9.263  0.79 27.56 LIG-0.34  N 
ATOM      4  CA  PRO E   2    -107.578  69.606  -9.636  0.79 29.17 LIG 0.18  C 
ATOM      5  CB  PRO E   2    -108.386  70.784  -9.066  0.79 31.66 LIG 0.04  C 
ATOM      6  CG  PRO E   2    -109.754  70.244  -8.772  0.79 31.87 LIG 0.02  C 
ATOM      7  CD  PRO E   2    -109.552  68.779  -8.449  0.79 37.64 LIG 0.13  C 
ENDROOT
BRANCH 4 8
ATOM      8  C   PRO E   2    -106.199  69.586  -8.955  0.79 31.28 LIG 0.24  C 
ATOM      9 O    PRO E   2    -106.052  68.868  -7.970  0.79 33.48 LIG-0.27  OA
ATOM     10  N   PRO E   3    -105.220  70.380  -9.435  0.79 31.99 LIG-0.34  N 
ATOM     11  CA  PRO E   3    -103.878  70.274  -8.844  0.79 36.13 LIG 0.17  C 
ATOM     12  CD  PRO E   3    -105.301  71.516 -10.364  0.79 37.75 LIG 0.13  C 
ATOM     13  CB  PRO E   3    -102.991  71.114  -9.786  0.79 39.82 LIG 0.04  C 
ATOM     14  CG  PRO E   3    -103.886  71.593 -10.906  0.79 32.33 LIG 0.02  C 
BRANCH 11 15
ATOM     15  C   PRO E   3    -103.851  70.888  -7.455  0.79 38.04 LIG 0.22  C 
ATOM     16 O    PRO E   3    -104.667  71.784  -7.252  0.79 39.77 LIG-0.29  OA
ENDBRANCH 11 15
ENDBRANCH 4 8
BRANCH 1 17
ATOM     17  CA  ALA E   1    -108.802  65.984  -9.099  0.79 27.80 LIG 0.27  C 
ATOM     18  CB  ALA E   1    -108.022  65.598  -7.833  0.79 29.16 LIG 0.05  C 
BRANCH 17 19
ATOM     19  N   ALA E   1    -108.851  64.843 -10.011  0.79 20.73 LIG-0.07  N 
ATOM     20 H1   ALA E   1    -109.074  64.110  -9.558  0.79 20.73 LIG 0.28  HD
ATOM     21 H2   ALA E   1    -109.456  64.995 -10.645  0.79 20.73 LIG 0.28  HD
ATOM     22 H3   ALA E   1    -108.052  64.728 -10.386  0.79 20.73 LIG 0.28  HD
ENDBRANCH 17 19
ENDBRANCH 1 17
TORSDOF 4
