USER: ADFR SOLUTION from run 0
USER: SCORE 7.612200 LL:  -2.411 LR:  -8.043 RR:   0.000 FEB:  -4.464
USER: RMSD 1.205559
USER: STATUS Locally minimized using BFGS
USER: GENES 14
USER: genes 0 Translation |==|  0.58311 0.55396 0.45660
USER: genes 1 Rotation |==|  0.50952 0.47902 0.50810 0.99940
USER: genes 2 Torsion [N]-C--CA-[N] |==|  0.45204
USER: genes 3 Torsion [C]-CA--N-[C] |==|  0.73335
USER: genes 4 Torsion [N]-C--CA-[N] |==|  0.90556
USER: genes 5 Torsion [C]-CA--N-[C] |==|  0.71906
USER: genes 6 Torsion [N]-C--CA-[N] |==|  0.97661
USER: genes 7 Torsion [C]-CA--N-[H1] |==|  0.51405
USER: genes 8 Torsion [C]-N--CA-[CB] |==|  0.32866
USER: genes 9 Torsion [N]-CA--C-[N] |==|  0.39441
USER: genes 10 Torsion [C]-N--CA-[CB] |==|  0.52053
USER: genes 11 Torsion [N]-CA--C-[N] |==|  0.29109
USER: genes 12 Torsion [C]-N--CA-[C] |==|  0.49112
USER: genes 13 Torsion [N]-CA--C-[O] |==|  0.50573
ROOT
ATOM      1  C   ALA B   3      -1.360  19.627   2.997  1.00 25.24 LIG 0.24  C 
ATOM      2 O    ALA B   3      -2.323  19.991   2.317  1.00 26.05 LIG-0.27  OA
ATOM      3  N   ALA B   4      -1.473  18.898   4.098  1.00 24.29 LIG-0.35  N 
ATOM      4 H    ALA B   4      -0.799  18.650   4.570  1.00 24.29 LIG 0.16  HD
ENDROOT
BRANCH 1 5
ATOM      5  CA  ALA B   3       0.077  19.977   2.594  1.00 25.23 LIG 0.17  C 
ATOM      6  CB  ALA B   3       0.644  21.055   3.502  1.00 24.91 LIG 0.04  C 
BRANCH 5 7
ATOM      7  N   ALA B   3       0.114  20.407   1.202  1.00 25.90 LIG-0.35  N 
ATOM      8  C   ALA B   2       0.417  19.565   0.215  1.00 26.37 LIG 0.24  C 
ATOM      9 O    ALA B   2       0.648  18.378   0.403  1.00 26.80 LIG-0.27  OA
ATOM     10 H    ALA B   3      -0.075  21.237   1.082  1.00 25.90 LIG 0.16  HD
BRANCH 8 11
ATOM     11  CA  ALA B   2       0.483  20.157  -1.192  1.00 27.29 LIG 0.17  C 
ATOM     12  CB  ALA B   2       1.889  20.713  -1.470  1.00 27.31 LIG 0.04  C 
BRANCH 11 13
ATOM     13  N   ALA B   2      -0.513  21.221  -1.315  1.00 27.95 LIG-0.35  N 
ATOM     14  C   ALA B   1      -1.690  21.056  -1.924  1.00 29.40 LIG 0.25  C 
ATOM     15 O    ALA B   1      -1.994  20.047  -2.567  1.00 29.69 LIG-0.27  OA
ATOM     16 H    ALA B   2      -0.269  21.965  -0.959  1.00 27.95 LIG 0.16  HD
BRANCH 14 17
ATOM     17  CA  ALA B   1      -2.681  22.216  -1.828  1.00 29.88 LIG 0.27  C 
ATOM     18  CB  ALA B   1      -2.936  22.787  -3.210  1.00 30.40 LIG 0.05  C 
BRANCH 17 19
ATOM     19  N   ALA B   1      -2.256  23.309  -0.885  1.00 30.41 LIG-0.07  N 
ATOM     20 H3   ALA B   1      -1.518  23.698  -1.194  1.00 30.41 LIG 0.28  HD
ATOM     21 H2   ALA B   1      -2.093  22.961  -0.083  1.00 30.41 LIG 0.28  HD
ATOM     22 H1   ALA B   1      -2.905  23.914  -0.820  1.00 30.41 LIG 0.28  HD
ENDBRANCH 17 19
ENDBRANCH 14 17
ENDBRANCH 11 13
ENDBRANCH 8 11
ENDBRANCH 5 7
ENDBRANCH 1 5
BRANCH 3 23
ATOM     23  CA  ALA B   4      -2.750  18.445   4.616  1.00 23.83 LIG 0.17  C 
ATOM     24  CB  ALA B   4      -2.804  16.903   4.633  1.00 23.27 LIG 0.04  C 
BRANCH 23 25
ATOM     25  C   ALA B   4      -2.902  18.971   6.024  1.00 23.25 LIG 0.24  C 
ATOM     26  N   ALA B   5      -4.127  19.356   6.344  1.00 23.30 LIG-0.35  N 
ATOM     27 H    ALA B   5      -4.753  19.495   5.771  1.00 23.30 LIG 0.16  HD
ATOM     28 O    ALA B   4      -1.945  18.988   6.812  1.00 21.74 LIG-0.27  OA
BRANCH 26 29
ATOM     29  CA  ALA B   5      -4.517  19.577   7.733  1.00 23.99 LIG 0.17  C 
ATOM     30  CB  ALA B   5      -6.010  19.830   7.817  1.00 22.76 LIG 0.04  C 
BRANCH 29 31
ATOM     31  C   ALA B   5      -4.140  18.345   8.543  1.00 24.51 LIG 0.24  C 
ATOM     32 O    ALA B   5      -4.786  17.302   8.426  1.00 24.66 LIG-0.27  OA
ATOM     33  N   ALA B   6      -3.075  18.446   9.327  1.00 25.65 LIG-0.35  N 
ATOM     34 H    ALA B   6      -2.549  19.127   9.335  1.00 25.65 LIG 0.16  HD
BRANCH 33 35
ATOM     35  CA  ALA B   6      -2.702  17.387  10.262  1.00 26.64 LIG 0.16  C 
ATOM     36  CB  ALA B   6      -2.608  16.015   9.572  1.00 27.39 LIG 0.04  C 
BRANCH 35 37
ATOM     37  C   ALA B   6      -1.417  17.687  10.992  1.00 26.89 LIG 0.22  C 
ATOM     38 O    ALA B   6      -0.973  16.848  11.785  1.00 29.04 LIG-0.29  OA
ENDBRANCH 35 37
ENDBRANCH 33 35
ENDBRANCH 29 31
ENDBRANCH 26 29
ENDBRANCH 23 25
ENDBRANCH 3 23
TORSDOF 12
