USER: ADFR SOLUTION from run 0
USER: SCORE 7.459820 LL:  -2.245 LR:  -8.025 RR:   0.000 FEB:  -3.252
USER: RMSD 0.374070
USER: STATUS Locally minimized using BFGS
USER: GENES 18
USER: genes 0 Translation |==|  0.54961 0.52951 0.45377
USER: genes 1 Rotation |==|  0.49520 0.50620 0.48267 0.99964
USER: genes 2 Torsion [N]-C--CA-[N] |==|  0.43385
USER: genes 3 Torsion [C]-CA--CB-[OG] |==|  0.50674
USER: genes 4 Torsion [CA]-CB--OG-[HG] |==|  0.49968
USER: genes 5 Torsion [C]-CA--N-[C] |==|  0.72853
USER: genes 6 Torsion [N]-C--CA-[N] |==|  0.87533
USER: genes 7 Torsion [C]-CA--N-[C] |==|  0.72709
USER: genes 8 Torsion [N]-C--CA-[N] |==|  0.97076
USER: genes 9 Torsion [C]-CA--N-[H1] |==|  0.54902
USER: genes 10 Torsion [C]-N--CA-[CB] |==|  0.32150
USER: genes 11 Torsion [N]-CA--C-[N] |==|  0.40834
USER: genes 12 Torsion [C]-N--CA-[CB] |==|  0.52253
USER: genes 13 Torsion [N]-CA--CB-[OG] |==|  0.81613
USER: genes 14 Torsion [CA]-CB--OG-[HG] |==|  0.49959
USER: genes 15 Torsion [N]-CA--C-[N] |==|  0.35008
USER: genes 16 Torsion [C]-N--CA-[C] |==|  0.45135
USER: genes 17 Torsion [N]-CA--C-[O] |==|  0.49537
ROOT
ATOM      1  C   SER B   3      -1.940  19.382   3.066  1.00 29.46 LIG 0.24  C 
ATOM      2 O    SER B   3      -2.925  19.905   2.540  1.00 29.29 LIG-0.27  OA
ATOM      3  N   ALA B   4      -1.991  18.680   4.196  1.00 28.70 LIG-0.35  N 
ATOM      4 H    ALA B   4      -1.296  18.342   4.573  1.00 28.70 LIG 0.16  HD
ENDROOT
BRANCH 1 5
ATOM      5  CA  SER B   3      -0.560  19.507   2.424  1.00 29.76 LIG 0.20  C 
BRANCH 5 6
ATOM      6  CB  SER B   3       0.265  20.621   3.074  1.00 29.85 LIG 0.20  C 
BRANCH 6 7
ATOM      7 OG   SER B   3       1.530  20.752   2.416  1.00 32.14 LIG-0.40  OA
ATOM      8 HG   SER B   3       1.972  21.366   2.780  1.00 32.14 LIG 0.21  HD
ENDBRANCH 6 7
ENDBRANCH 5 6
BRANCH 5 9
ATOM      9  N   SER B   3      -0.695  19.768   1.006  1.00 30.15 LIG-0.34  N 
ATOM     10  C   ALA B   2      -0.605  18.800   0.102  1.00 30.60 LIG 0.24  C 
ATOM     11 O    ALA B   2      -0.540  17.613   0.400  1.00 30.40 LIG-0.27  OA
ATOM     12 H    SER B   3      -0.837  20.594   0.811  1.00 30.15 LIG 0.16  HD
BRANCH 10 13
ATOM     13  CA  ALA B   2      -0.574  19.252  -1.354  1.00 31.29 LIG 0.17  C 
ATOM     14  CB  ALA B   2       0.794  19.831  -1.682  1.00 31.24 LIG 0.04  C 
BRANCH 13 15
ATOM     15  N   ALA B   2      -1.595  20.268  -1.569  1.00 32.02 LIG-0.35  N 
ATOM     16  C   ALA B   1      -2.789  19.996  -2.090  1.00 33.14 LIG 0.25  C 
ATOM     17 O    ALA B   1      -3.088  18.899  -2.578  1.00 33.78 LIG-0.27  OA
ATOM     18 H    ALA B   2      -1.354  21.059  -1.328  1.00 32.02 LIG 0.16  HD
BRANCH 16 19
ATOM     19  CA  ALA B   1      -3.797  21.136  -2.090  1.00 33.48 LIG 0.27  C 
ATOM     20  CB  ALA B   1      -4.095  21.567  -3.502  1.00 33.96 LIG 0.05  C 
BRANCH 19 21
ATOM     21  N   ALA B   1      -3.353  22.314  -1.271  1.00 33.82 LIG-0.07  N 
ATOM     22 H3   ALA B   1      -2.748  22.783  -1.726  1.00 33.82 LIG 0.28  HD
ATOM     23 H2   ALA B   1      -2.991  22.027  -0.509  1.00 33.82 LIG 0.28  HD
ATOM     24 H1   ALA B   1      -4.054  22.831  -1.090  1.00 33.82 LIG 0.28  HD
ENDBRANCH 19 21
ENDBRANCH 16 19
ENDBRANCH 13 15
ENDBRANCH 10 13
ENDBRANCH 5 9
ENDBRANCH 1 5
BRANCH 3 25
ATOM     25  CA  ALA B   4      -3.239  18.415   4.912  1.00 28.07 LIG 0.17  C 
ATOM     26  CB  ALA B   4      -3.534  16.912   4.922  1.00 28.13 LIG 0.04  C 
BRANCH 25 27
ATOM     27  C   ALA B   4      -3.149  18.909   6.341  1.00 27.72 LIG 0.24  C 
ATOM     28  N   SER B   5      -4.285  19.361   6.865  1.00 27.70 LIG-0.34  N 
ATOM     29 H    SER B   5      -4.976  19.575   6.399  1.00 27.70 LIG 0.16  HD
ATOM     30 O    ALA B   4      -2.086  18.858   6.959  1.00 26.03 LIG-0.27  OA
BRANCH 28 31
ATOM     31  CA  SER B   5      -4.455  19.531   8.304  1.00 28.70 LIG 0.20  C 
BRANCH 31 32
ATOM     32  CB  SER B   5      -5.918  19.869   8.638  1.00 28.19 LIG 0.20  C 
BRANCH 32 33
ATOM     33 OG   SER B   5      -6.311  21.147   8.126  1.00 31.03 LIG-0.40  OA
ATOM     34 HG   SER B   5      -7.114  21.295   8.326  1.00 31.03 LIG 0.21  HD
ENDBRANCH 32 33
ENDBRANCH 31 32
BRANCH 31 35
ATOM     35  C   SER B   5      -4.042  18.230   9.004  1.00 28.90 LIG 0.24  C 
ATOM     36 O    SER B   5      -4.519  17.147   8.657  1.00 29.19 LIG-0.27  OA
ATOM     37  N   ALA B   6      -3.131  18.326   9.963  1.00 29.26 LIG-0.35  N 
ATOM     38 H    ALA B   6      -2.739  19.059  10.184  1.00 29.26 LIG 0.16  HD
BRANCH 37 39
ATOM     39  CA  ALA B   6      -2.716  17.163  10.732  1.00 30.00 LIG 0.16  C 
ATOM     40  CB  ALA B   6      -2.604  15.908   9.841  1.00 31.04 LIG 0.04  C 
BRANCH 39 41
ATOM     41  C   ALA B   6      -1.410  17.404  11.447  1.00 30.03 LIG 0.22  C 
ATOM     42 O    ALA B   6      -0.943  16.517  12.167  1.00 31.65 LIG-0.29  OA
ENDBRANCH 39 41
ENDBRANCH 37 39
ENDBRANCH 31 35
ENDBRANCH 28 31
ENDBRANCH 25 27
ENDBRANCH 3 25
TORSDOF 16
