USER: ADFR SOLUTION from run 0
USER: SCORE 8.900334 LL:  -3.044 LR:  -7.363 RR:   0.000 FEB:  -3.187
USER: RMSD 2.041953
USER: STATUS Locally minimized using BFGS
USER: GENES 16
USER: genes 0 Translation |==|  0.63139 0.49791 0.52282
USER: genes 1 Rotation |==|  0.50517 0.48972 0.51790 0.99955
USER: genes 2 Torsion [C]-N--CA-[CB] |==|  0.28333
USER: genes 3 Torsion [N]-CA--CB-[CG] |==|  0.88035
USER: genes 4 Torsion [CA]-CB--CG-[CD2] |==|  0.28389
USER: genes 5 Torsion [CE2]-CZ--OH-[HH] |==|  0.98659
USER: genes 6 Torsion [N]-CA--C-[N] |==|  0.42398
USER: genes 7 Torsion [C]-N--CA-[C] |==|  0.24192
USER: genes 8 Torsion [N]-CA--C-[O] |==|  0.99221
USER: genes 9 Torsion [N]-C--CA-[N] |==|  0.87605
USER: genes 10 Torsion [C]-CA--N-[C] |==|  0.69462
USER: genes 11 Torsion [N]-C--CA-[N] |==|  0.80920
USER: genes 12 Torsion [C]-CA--CB-[CG] |==|  0.41090
USER: genes 13 Torsion [CA]-CB--CG-[OD1] |==|  0.42103
USER: genes 14 Torsion [C]-CA--CB-[CG] |==|  0.40028
USER: genes 15 Torsion [CA]-CB--CG-[CD2] |==|  0.35871
ROOT
ATOM      1  C   LEU F 804      13.817 -11.598  33.046  1.00 42.60 LIG 0.24  C 
ATOM      2 O    LEU F 804      14.951 -11.522  33.531  1.00 42.72 LIG-0.27  OA
ATOM      3  N   TYR F 805      12.949 -10.584  33.062  1.00 41.09 LIG-0.35  N 
ATOM      4 H    TYR F 805      12.110 -10.674  32.898  1.00 41.09 LIG 0.16  HD
ENDROOT
BRANCH 3 5
ATOM      5  CA  TYR F 805      13.357  -9.200  33.367  1.00 40.08 LIG 0.18  C 
BRANCH 5 6
ATOM      6  CB  TYR F 805      13.459  -8.395  32.064  1.00 38.23 LIG 0.07  C 
BRANCH 6 7
ATOM      7  CG  TYR F 805      14.134  -9.157  30.950  1.00 36.43 LIG-0.06  A 
ATOM      8  CD2 TYR F 805      13.387  -9.738  29.932  1.00 35.39 LIG 0.01  A 
ATOM      9  CE2 TYR F 805      13.999 -10.460  28.906  1.00 33.62 LIG 0.04  A 
ATOM     10  CZ  TYR F 805      15.373 -10.598  28.895  1.00 33.40 LIG 0.07  A 
ATOM     11  CE1 TYR F 805      16.148 -10.024  29.898  1.00 31.77 LIG 0.04  A 
ATOM     12  CD1 TYR F 805      15.526  -9.309  30.921  1.00 33.46 LIG 0.01  A 
BRANCH 10 13
ATOM     13 OH   TYR F 805      15.964 -11.304  27.871  1.00 32.97 LIG-0.36  OA
ATOM     14 HH   TYR F 805      15.369 -11.638  27.381  1.00 32.97 LIG 0.22  HD
ENDBRANCH 10 13
ENDBRANCH 6 7
ENDBRANCH 5 6
BRANCH 5 15
ATOM     15  C   TYR F 805      12.432  -8.470  34.359  1.00 40.65 LIG 0.24  C 
ATOM     16 O    TYR F 805      11.247  -8.800  34.445  1.00 41.05 LIG-0.27  OA
ATOM     17  N   GLY F 806      12.957  -7.493  35.114  1.00 41.21 LIG-0.35  N 
ATOM     18 H    GLY F 806      12.476  -6.995  35.625  1.00 41.21 LIG 0.16  HD
BRANCH 17 19
ATOM     19  CA  GLY F 806      14.396  -7.154  35.163  1.00 41.66 LIG 0.21  C 
BRANCH 19 20
ATOM     20  C   GLY F 806      14.879  -6.166  34.111  1.00 41.93 LIG 0.21  C 
ATOM     21 O    GLY F 806      14.114  -5.722  33.241  1.00 42.62 LIG-0.29  OA
ENDBRANCH 19 20
ENDBRANCH 17 19
ENDBRANCH 5 15
ENDBRANCH 3 5
BRANCH 1 22
ATOM     22  CA  LEU F 804      13.352 -12.911  32.388  1.00 43.64 LIG 0.18  C 
BRANCH 22 23
ATOM     23  N   LEU F 804      12.003 -13.353  32.741  1.00 45.07 LIG-0.35  N 
ATOM     24  C   ASP F 803      11.784 -14.421  33.501  1.00 46.18 LIG 0.26  C 
ATOM     25 O    ASP F 803      12.700 -15.064  34.030  1.00 46.48 LIG-0.27  OA
ATOM     26 H    LEU F 804      11.376 -12.863  32.415  1.00 45.07 LIG 0.16  HD
BRANCH 24 27
ATOM     27  CA  ASP F 803      10.313 -14.822  33.703  1.00 46.88 LIG 0.41  C 
ATOM     28  N   ASP F 803       9.562 -13.835  34.529  1.00 47.04 LIG 0.61  N 
BRANCH 27 29
ATOM     29  CB  ASP F 803       9.616 -14.998  32.349  1.00 47.42 LIG 0.16  C 
BRANCH 29 30
ATOM     30  CG  ASP F 803       8.526 -16.069  32.378  1.00 48.96 LIG 0.17  C 
ATOM     31 OD1  ASP F 803       7.566 -15.944  31.581  1.00 50.04 LIG-0.65  OA
ATOM     32 OD2  ASP F 803       8.619 -17.026  33.187  1.00 49.91 LIG-0.65  OA
ENDBRANCH 29 30
ENDBRANCH 27 29
ENDBRANCH 24 27
ENDBRANCH 22 23
BRANCH 22 33
ATOM     33  CB  LEU F 804      13.482 -12.815  30.863  1.00 43.69 LIG 0.04  C 
BRANCH 33 34
ATOM     34  CG  LEU F 804      13.892 -14.025  30.004  1.00 43.67 LIG-0.02  C 
ATOM     35  CD2 LEU F 804      12.906 -14.206  28.868  1.00 43.56 LIG 0.01  C 
ATOM     36  CD1 LEU F 804      14.058 -15.320  30.797  1.00 44.06 LIG 0.01  C 
ENDBRANCH 33 34
ENDBRANCH 22 33
ENDBRANCH 1 22
TORSDOF 14
