USER: ADFR SOLUTION from run 0
USER: SCORE 17.597663 LL:  -2.988 LR: -15.141 RR:   0.000 FEB: -10.965
USER: RMSD 0.627773
USER: STATUS Locally minimized using BFGS
USER: GENES 16
USER: genes 0 Translation |==|  0.52525 0.53370 0.51387
USER: genes 1 Rotation |==|  0.50324 0.48545 0.45845 0.99805
USER: genes 2 Torsion [N]-C--CA-[N] |==|  0.28356
USER: genes 3 Torsion [C]-CA--N-[C] |==|  0.56668
USER: genes 4 Torsion [N]-C--CA-[CB] |==|  0.74577
USER: genes 5 Torsion [C]-CA--CB-[CG] |==|  0.28183
USER: genes 6 Torsion [CA]-CB--CG-[CD1] |==|  0.86707
USER: genes 7 Torsion [CE2]-CZ--OH-[HH] |==|  0.00419
USER: genes 8 Torsion [C]-N--CA-[C] |==|  0.77446
USER: genes 9 Torsion [N]-CA--CB-[CG2] |==|  0.51856
USER: genes 10 Torsion [CA]-CB--CG1-[CD1] |==|  0.80131
USER: genes 11 Torsion [N]-CA--C-[N] |==|  0.42064
USER: genes 12 Torsion [C]-N--CA-[C] |==|  0.59187
USER: genes 13 Torsion [N]-CA--C-[O] |==|  0.44161
USER: genes 14 Torsion [N]-CA--CB-[CG] |==|  0.82187
USER: genes 15 Torsion [CA]-CB--CG-[CD1] |==|  0.37699
ROOT
ATOM      1  C   TYR N  11      15.367  75.592  29.828  1.00 56.96 LIG 0.24  C 
ATOM      2 O    TYR N  11      14.155  75.684  29.663  1.00 54.60 LIG-0.27  OA
ATOM      3  N   ILE N  12      15.969  75.909  30.969  1.00 55.40 LIG-0.35  N 
ATOM      4 H    ILE N  12      16.822  75.980  31.055  1.00 55.40 LIG 0.16  HD
ENDROOT
BRANCH 1 5
ATOM      5  CA  TYR N  11      16.236  75.132  28.671  1.00 58.62 LIG 0.18  C 
BRANCH 5 6
ATOM      6  N   TYR N  11      16.104  73.673  28.623  1.00 60.03 LIG-0.35  N 
ATOM      7 H    TYR N  11      15.368  73.407  28.982  1.00 60.03 LIG 0.16  HD
ATOM      8  C   PRO N  10      16.972  72.806  28.105  1.00 61.18 LIG 0.25  C 
ATOM      9 O    PRO N  10      18.168  73.034  27.962  1.00 61.93 LIG-0.27  OA
BRANCH 8 10
ATOM     10  CA  PRO N  10      16.396  71.439  27.724  1.00 61.60 LIG 0.35  C 
ATOM     11  CB  PRO N  10      16.507  70.434  28.873  1.00 62.04 LIG 0.05  C 
ATOM     12  CG  PRO N  10      16.576  69.084  28.175  1.00 62.43 LIG 0.04  C 
ATOM     13  CD  PRO N  10      17.229  69.319  26.814  1.00 61.79 LIG 0.32  C 
ATOM     14  N   PRO N  10      17.132  70.782  26.631  1.00 62.25 LIG 0.32  N 
ENDBRANCH 8 10
ENDBRANCH 5 6
BRANCH 5 15
ATOM     15  CB  TYR N  11      15.491  75.652  27.467  1.00 60.02 LIG 0.07  C 
BRANCH 15 16
ATOM     16  CG  TYR N  11      15.960  76.877  26.796  1.00 61.42 LIG-0.06  A 
ATOM     17  CD2 TYR N  11      16.033  76.894  25.409  1.00 63.03 LIG 0.01  A 
ATOM     18  CE2 TYR N  11      16.448  78.013  24.729  1.00 63.91 LIG 0.04  A 
ATOM     19  CZ  TYR N  11      16.786  79.162  25.425  1.00 62.76 LIG 0.07  A 
ATOM     20  CE1 TYR N  11      16.710  79.180  26.824  1.00 63.08 LIG 0.04  A 
ATOM     21  CD1 TYR N  11      16.279  78.033  27.503  1.00 63.28 LIG 0.01  A 
BRANCH 19 22
ATOM     22 OH   TYR N  11      17.200  80.263  24.679  1.00 61.08 LIG-0.36  OA
ATOM     23 HH   TYR N  11      17.168  80.076  23.861  1.00 61.08 LIG 0.22  HD
ENDBRANCH 19 22
ENDBRANCH 15 16
ENDBRANCH 5 15
ENDBRANCH 1 5
BRANCH 3 24
ATOM     24  CA  ILE N  12      15.218  76.168  32.198  1.00 53.88 LIG 0.18  C 
BRANCH 24 25
ATOM     25  CB  ILE N  12      16.116  75.927  33.419  1.00 53.93 LIG 0.01  C 
ATOM     26  CG2 ILE N  12      15.331  76.026  34.717  1.00 53.11 LIG 0.01  C 
BRANCH 25 27
ATOM     27  CG1 ILE N  12      16.854  74.589  33.270  1.00 51.92 LIG 0.00  C 
ATOM     28  CD1 ILE N  12      16.010  73.364  33.421  1.00 50.97 LIG 0.01  C 
ENDBRANCH 25 27
ENDBRANCH 24 25
BRANCH 24 29
ATOM     29  C   ILE N  12      14.653  77.581  32.255  1.00 53.48 LIG 0.24  C 
ATOM     30  N   LEU N  13      13.547  77.724  32.958  1.00 52.60 LIG-0.34  N 
ATOM     31 H    LEU N  13      13.140  77.066  33.334  1.00 52.60 LIG 0.16  HD
ATOM     32 O    ILE N  12      15.212  78.514  31.687  1.00 54.19 LIG-0.27  OA
BRANCH 30 33
ATOM     33  CA  LEU N  13      12.898  79.015  33.170  1.00 51.71 LIG 0.18  C 
BRANCH 33 34
ATOM     34  C   LEU N  13      12.215  79.074  34.565  1.00 51.36 LIG 0.20  C 
ATOM     35 O    LEU N  13      11.950  80.177  35.106  1.00 50.70 LIG-0.65  OA
ATOM     36 OXT  LEU N  13      11.894  78.023  35.174  1.00 50.18 LIG-0.65  OA
ENDBRANCH 33 34
BRANCH 33 37
ATOM     37  CB  LEU N  13      11.841  79.249  32.076  1.00 52.27 LIG 0.04  C 
BRANCH 37 38
ATOM     38  CG  LEU N  13      12.185  79.393  30.581  1.00 53.15 LIG-0.02  C 
ATOM     39  CD1 LEU N  13      11.210  78.575  29.711  1.00 53.09 LIG 0.01  C 
ATOM     40  CD2 LEU N  13      12.194  80.855  30.167  1.00 52.44 LIG 0.01  C 
ENDBRANCH 37 38
ENDBRANCH 33 37
ENDBRANCH 30 33
ENDBRANCH 24 29
ENDBRANCH 3 24
TORSDOF 14
