USER: ADFR SOLUTION from run 0
USER: SCORE 11.546187 LL:  -2.063 LR: -12.187 RR:   0.000 FEB:  -5.923
USER: RMSD 0.448777
USER: STATUS Locally minimized using BFGS
USER: GENES 23
USER: genes 0 Translation |==|  0.43031 0.53438 0.44684
USER: genes 1 Rotation |==|  0.50526 0.50697 0.52880 0.99909
USER: genes 2 Torsion [CB]-CA--N-[C] |==|  0.38457
USER: genes 3 Torsion [N]-C--CA-[N] |==|  0.01625
USER: genes 4 Torsion [C]-CA--CB-[CG] |==|  0.21050
USER: genes 5 Torsion [CA]-CB--CG-[CD] |==|  0.62744
USER: genes 6 Torsion [CB]-CG--CD-[OE1] |==|  0.85392
USER: genes 7 Torsion [C]-CA--N-[C] |==|  0.74148
USER: genes 8 Torsion [N]-C--CA-[N] |==|  0.94020
USER: genes 9 Torsion [C]-CA--CB-[CG] |==|  0.48238
USER: genes 10 Torsion [CA]-CB--CG-[SD] |==|  0.79379
USER: genes 11 Torsion [CB]-CG--SD-[CE] |==|  0.25878
USER: genes 12 Torsion [N]-CA--C-[N] |==|  0.38692
USER: genes 13 Torsion [C]-N--CA-[CB] |==|  0.45556
USER: genes 14 Torsion [N]-CA--CB-[CG1] |==|  0.81428
USER: genes 15 Torsion [N]-CA--C-[N] |==|  0.43349
USER: genes 16 Torsion [C]-N--CA-[CB] |==|  0.35135
USER: genes 17 Torsion [N]-CA--CB-[CG] |==|  0.85227
USER: genes 18 Torsion [CA]-CB--CG-[OD2] |==|  0.35012
USER: genes 19 Torsion [N]-CA--C-[O] |==|  0.97672
USER: genes 20 Torsion [N]-CA--CB-[CG] |==|  0.80033
USER: genes 21 Torsion [CA]-CB--CG-[CD] |==|  0.48130
USER: genes 22 Torsion [CB]-CG--CD-[OE2] |==|  0.47200
ROOT
ATOM      1  CA  GLU Q 707      -3.049  19.863  54.431  1.00 49.62 LIG 0.18  C 
ENDROOT
BRANCH 1 2
ATOM      2  N   GLU Q 707      -2.809  20.665  53.219  1.00 50.42 LIG-0.35  N 
ATOM      3 H    GLU Q 707      -1.979  20.763  53.021  1.00 50.42 LIG 0.16  HD
ATOM      4  C   GLU Q 706      -3.802  21.181  52.508  1.00 51.37 LIG 0.24  C 
ATOM      5 O    GLU Q 706      -4.975  21.046  52.846  1.00 51.66 LIG-0.27  OA
BRANCH 4 6
ATOM      6  CA  GLU Q 706      -3.414  21.952  51.211  1.00 52.25 LIG 0.18  C 
BRANCH 6 7
ATOM      7  CB  GLU Q 706      -4.231  21.407  50.025  1.00 52.83 LIG 0.04  C 
BRANCH 7 8
ATOM      8  CG  GLU Q 706      -5.702  21.874  49.999  1.00 56.79 LIG 0.12  C 
BRANCH 8 9
ATOM      9  CD  GLU Q 706      -6.724  20.741  49.718  1.00 61.53 LIG 0.17  C 
ATOM     10 OE1  GLU Q 706      -6.564  20.006  48.707  1.00 62.14 LIG-0.65  OA
ATOM     11 OE2  GLU Q 706      -7.695  20.600  50.516  1.00 62.79 LIG-0.65  OA
ENDBRANCH 8 9
ENDBRANCH 7 8
ENDBRANCH 6 7
BRANCH 6 12
ATOM     12  N   GLU Q 706      -1.970  21.863  50.908  1.00 51.83 LIG-0.35  N 
ATOM     13 H    GLU Q 706      -1.764  21.166  50.447  1.00 51.83 LIG 0.16  HD
ATOM     14  C   MET Q 705      -1.055  22.761  51.300  1.00 52.04 LIG 0.26  C 
ATOM     15 O    MET Q 705      -1.327  23.823  51.873  1.00 51.63 LIG-0.27  OA
BRANCH 14 16
ATOM     16  CA  MET Q 705       0.406  22.410  51.011  1.00 52.15 LIG 0.40  C 
ATOM     17  N   MET Q 705       0.594  20.935  50.817  1.00 52.08 LIG 0.61  N 
BRANCH 16 18
ATOM     18  CB  MET Q 705       0.936  23.216  49.820  1.00 52.13 LIG 0.06  C 
BRANCH 18 19
ATOM     19  CG  MET Q 705       2.432  23.046  49.550  1.00 53.37 LIG 0.08  C 
BRANCH 19 20
ATOM     20 SD   MET Q 705       3.508  23.906  50.736  1.00 56.30 LIG-0.17  SA
ATOM     21  CE  MET Q 705       3.827  22.627  51.946  1.00 57.25 LIG 0.09  C 
ENDBRANCH 19 20
ENDBRANCH 18 19
ENDBRANCH 16 18
ENDBRANCH 14 16
ENDBRANCH 6 12
ENDBRANCH 4 6
ENDBRANCH 1 2
BRANCH 1 22
ATOM     22  C   GLU Q 707      -2.823  20.712  55.690  1.00 47.30 LIG 0.24  C 
ATOM     23  N   VAL Q 708      -3.687  20.546  56.689  1.00 45.52 LIG-0.35  N 
ATOM     24 H    VAL Q 708      -4.419  20.099  56.620  1.00 45.52 LIG 0.16  HD
ATOM     25 O    GLU Q 707      -1.864  21.487  55.750  1.00 46.84 LIG-0.27  OA
BRANCH 23 26
ATOM     26  CA  VAL Q 708      -3.451  21.127  58.021  1.00 44.03 LIG 0.18  C 
BRANCH 26 27
ATOM     27  CB  VAL Q 708      -4.732  21.142  58.870  1.00 43.64 LIG 0.01  C 
ATOM     28  CG1 VAL Q 708      -5.746  22.107  58.261  1.00 41.62 LIG 0.01  C 
ATOM     29  CG2 VAL Q 708      -5.323  19.739  58.968  1.00 42.17 LIG 0.01  C 
ENDBRANCH 26 27
BRANCH 26 30
ATOM     30  C   VAL Q 708      -2.307  20.396  58.745  1.00 43.98 LIG 0.24  C 
ATOM     31 O    VAL Q 708      -1.996  19.261  58.410  1.00 43.91 LIG-0.27  OA
ATOM     32  N   ASP Q 709      -1.662  21.070  59.694  1.00 43.53 LIG-0.34  N 
ATOM     33 H    ASP Q 709      -1.857  21.880  59.909  1.00 43.53 LIG 0.16  HD
BRANCH 32 34
ATOM     34  CA  ASP Q 709      -0.552  20.505  60.476  1.00 43.18 LIG 0.20  C 
BRANCH 34 35
ATOM     35  CB  ASP Q 709       0.656  21.419  60.399  1.00 43.21 LIG 0.15  C 
BRANCH 35 36
ATOM     36  CG  ASP Q 709       1.050  21.747  58.989  1.00 45.24 LIG 0.17  C 
ATOM     37 OD2  ASP Q 709       1.149  22.967  58.698  1.00 45.66 LIG-0.65  OA
ATOM     38 OD1  ASP Q 709       1.283  20.784  58.201  1.00 45.75 LIG-0.65  OA
ENDBRANCH 35 36
ENDBRANCH 34 35
BRANCH 34 39
ATOM     39  C   ASP Q 709      -0.890  20.355  61.971  1.00 42.83 LIG 0.20  C 
ATOM     40 O    ASP Q 709      -1.923  20.825  62.440  1.00 42.06 LIG-0.65  OA
ATOM     41 OXT  ASP Q 709      -0.092  19.810  62.752  1.00 42.11 LIG-0.65  OA
ENDBRANCH 34 39
ENDBRANCH 32 34
ENDBRANCH 26 30
ENDBRANCH 23 26
ENDBRANCH 1 22
BRANCH 1 42
ATOM     42  CB  GLU Q 707      -2.103  18.650  54.463  1.00 49.18 LIG 0.04  C 
BRANCH 42 43
ATOM     43  CG  GLU Q 707      -2.428  17.537  53.444  1.00 51.82 LIG 0.12  C 
BRANCH 43 44
ATOM     44  CD  GLU Q 707      -1.352  16.429  53.410  1.00 52.55 LIG 0.17  C 
ATOM     45 OE2  GLU Q 707      -1.587  15.380  52.770  1.00 56.45 LIG-0.65  OA
ATOM     46 OE1  GLU Q 707      -0.276  16.599  54.043  1.00 56.78 LIG-0.65  OA
ENDBRANCH 43 44
ENDBRANCH 42 43
ENDBRANCH 1 42
TORSDOF 21
