USER: ADFR SOLUTION from run 0
USER: SCORE 18.860448 LL:  -7.760 LR: -12.523 RR:   0.000 FEB:  -5.065
USER: RMSD 1.632236
USER: STATUS Locally minimized using BFGS
USER: GENES 27
USER: genes 0 Translation |==|  0.33331 0.56064 0.35314
USER: genes 1 Rotation |==|  0.46681 0.44140 0.43151 0.99069
USER: genes 2 Torsion [N]-CA--C-[N] |==|  0.00137
USER: genes 3 Torsion [C]-N--CA-[C] |==|  0.66443
USER: genes 4 Torsion [N]-CA--CB-[CG] |==|  0.92378
USER: genes 5 Torsion [CA]-CB--CG-[CD] |==|  0.47867
USER: genes 6 Torsion [CB]-CG--CD-[OE2] |==|  0.81001
USER: genes 7 Torsion [N]-CA--C-[N] |==|  0.42836
USER: genes 8 Torsion [C]-N--CA-[CB] |==|  0.45361
USER: genes 9 Torsion [N]-CA--CB-[CG1] |==|  0.77948
USER: genes 10 Torsion [N]-CA--C-[N] |==|  0.47248
USER: genes 11 Torsion [C]-N--CA-[CB] |==|  0.28071
USER: genes 12 Torsion [N]-CA--CB-[CG] |==|  0.85517
USER: genes 13 Torsion [CA]-CB--CG-[OD2] |==|  0.27890
USER: genes 14 Torsion [N]-CA--C-[O] |==|  0.56523
USER: genes 15 Torsion [C]-CA--CB-[CG] |==|  0.53283
USER: genes 16 Torsion [CA]-CB--CG-[CD] |==|  0.25632
USER: genes 17 Torsion [CB]-CG--CD-[OE2] |==|  0.46608
USER: genes 18 Torsion [C]-CA--N-[C] |==|  0.75119
USER: genes 19 Torsion [N]-C--CA-[N] |==|  0.94303
USER: genes 20 Torsion [C]-CA--CB-[CG1] |==|  0.84642
USER: genes 21 Torsion [C]-CA--N-[C] |==|  0.81282
USER: genes 22 Torsion [N]-C--CA-[N] |==|  0.46946
USER: genes 23 Torsion [C]-CA--CB-[CG2] |==|  0.57202
USER: genes 24 Torsion [CA]-CB--OG1-[HG1] |==|  0.49207
USER: genes 25 Torsion [C]-CA--N-[C] |==|  0.69648
USER: genes 26 Torsion [N]-C--CA-[CB] |==|  0.17130
ROOT
ATOM      1  CA  GLU Q 639      20.367 -36.588  50.708  1.00 17.71 LIG 0.18  C 
ENDROOT
BRANCH 1 2
ATOM      2  C   GLU Q 639      19.715 -37.102  51.988  1.00 15.36 LIG 0.24  C 
ATOM      3 O    GLU Q 639      18.490 -37.126  52.107  1.00 14.90 LIG-0.27  OA
ATOM      4  N   GLU Q 640      20.543 -37.511  52.944  1.00 12.94 LIG-0.35  N 
ATOM      5 H    GLU Q 640      21.399 -37.499  52.874  1.00 12.94 LIG 0.16  HD
BRANCH 4 6
ATOM      6  CA  GLU Q 640      20.050 -38.024  54.216  1.00 11.11 LIG 0.18  C 
BRANCH 6 7
ATOM      7  CB  GLU Q 640      20.477 -39.488  54.361  1.00 10.30 LIG 0.04  C 
BRANCH 7 8
ATOM      8  CG  GLU Q 640      20.656 -40.181  53.000  1.00 11.77 LIG 0.12  C 
BRANCH 8 9
ATOM      9  CD  GLU Q 640      21.260 -41.589  53.091  1.00 13.33 LIG 0.17  C 
ATOM     10 OE2  GLU Q 640      22.450 -41.700  53.450  1.00 13.21 LIG-0.65  OA
ATOM     11 OE1  GLU Q 640      20.547 -42.581  52.797  1.00 12.97 LIG-0.65  OA
ENDBRANCH 8 9
ENDBRANCH 7 8
ENDBRANCH 6 7
BRANCH 6 12
ATOM     12  C   GLU Q 640      20.576 -37.188  55.386  1.00  9.90 LIG 0.24  C 
ATOM     13  N   VAL Q 641      19.829 -37.185  56.498  1.00  8.06 LIG-0.35  N 
ATOM     14 H    VAL Q 641      19.029 -37.500  56.526  1.00  8.06 LIG 0.16  HD
ATOM     15 O    GLU Q 640      21.639 -36.558  55.268  1.00  9.48 LIG-0.27  OA
BRANCH 13 16
ATOM     16  CA  VAL Q 641      20.295 -36.645  57.795  1.00  6.68 LIG 0.18  C 
BRANCH 16 17
ATOM     17  CB  VAL Q 641      19.133 -36.381  58.800  1.00  5.82 LIG 0.01  C 
ATOM     18  CG2 VAL Q 641      18.170 -37.540  58.843  1.00  2.95 LIG 0.01  C 
ATOM     19  CG1 VAL Q 641      18.450 -35.098  58.470  1.00  4.23 LIG 0.01  C 
ENDBRANCH 16 17
BRANCH 16 20
ATOM     20  C   VAL Q 641      21.349 -37.550  58.470  1.00  6.62 LIG 0.24  C 
ATOM     21 O    VAL Q 641      21.584 -38.672  58.036  1.00  7.26 LIG-0.27  OA
ATOM     22  N   ASP Q 642      21.971 -37.054  59.528  1.00  6.11 LIG-0.34  N 
ATOM     23 H    ASP Q 642      21.813 -36.272  59.848  1.00  6.11 LIG 0.16  HD
BRANCH 22 24
ATOM     24  CA  ASP Q 642      22.996 -37.799  60.257  1.00  5.85 LIG 0.20  C 
BRANCH 24 25
ATOM     25  CB  ASP Q 642      24.399 -37.304  59.849  1.00  5.86 LIG 0.15  C 
BRANCH 25 26
ATOM     26  CG  ASP Q 642      24.610 -37.302  58.313  1.00  7.09 LIG 0.17  C 
ATOM     27 OD2  ASP Q 642      24.501 -36.217  57.714  1.00  7.75 LIG-0.65  OA
ATOM     28 OD1  ASP Q 642      24.894 -38.357  57.711  1.00  5.16 LIG-0.65  OA
ENDBRANCH 25 26
ENDBRANCH 24 25
BRANCH 24 29
ATOM     29  C   ASP Q 642      22.795 -37.662  61.780  1.00  5.53 LIG 0.20  C 
ATOM     30 O    ASP Q 642      23.733 -37.824  62.576  1.00  4.89 LIG-0.65  OA
ATOM     31 OXT  ASP Q 642      21.687 -37.350  62.250  1.00  5.08 LIG-0.65  OA
ENDBRANCH 24 29
ENDBRANCH 22 24
ENDBRANCH 16 20
ENDBRANCH 13 16
ENDBRANCH 6 12
ENDBRANCH 4 6
ENDBRANCH 1 2
BRANCH 1 32
ATOM     32  CB  GLU Q 639      19.856 -37.382  49.503  1.00 18.28 LIG 0.04  C 
BRANCH 32 33
ATOM     33  CG  GLU Q 639      20.644 -37.146  48.225  1.00 21.94 LIG 0.12  C 
BRANCH 33 34
ATOM     34  CD  GLU Q 639      21.769 -38.145  48.041  1.00 26.00 LIG 0.17  C 
ATOM     35 OE1  GLU Q 639      22.083 -38.873  49.006  1.00 25.44 LIG-0.65  OA
ATOM     36 OE2  GLU Q 639      22.338 -38.204  46.931  1.00 27.11 LIG-0.65  OA
ENDBRANCH 33 34
ENDBRANCH 32 33
ENDBRANCH 1 32
BRANCH 1 37
ATOM     37  N   GLU Q 639      21.820 -36.663  50.791  1.00 19.24 LIG-0.35  N 
ATOM     38  C   VAL Q 638      22.545 -35.658  51.273  1.00 20.97 LIG 0.24  C 
ATOM     39 O    VAL Q 638      22.047 -34.607  51.678  1.00 20.96 LIG-0.27  OA
ATOM     40 H    GLU Q 639      22.154 -37.402  50.506  1.00 19.24 LIG 0.16  HD
BRANCH 38 41
ATOM     41  CA  VAL Q 638      24.055 -35.870  51.303  1.00 22.03 LIG 0.18  C 
BRANCH 41 42
ATOM     42  CB  VAL Q 638      24.695 -35.095  50.137  1.00 22.63 LIG 0.01  C 
ATOM     43  CG1 VAL Q 638      24.065 -35.506  48.815  1.00 22.21 LIG 0.01  C 
ATOM     44  CG2 VAL Q 638      24.558 -33.597  50.357  1.00 20.65 LIG 0.01  C 
ENDBRANCH 41 42
BRANCH 41 45
ATOM     45  N   VAL Q 638      24.389 -37.288  51.249  1.00 23.53 LIG-0.35  N 
ATOM     46 H    VAL Q 638      24.779 -37.486  50.509  1.00 23.53 LIG 0.16  HD
ATOM     47  C   THR Q 637      24.166 -38.229  52.161  1.00 24.82 LIG 0.24  C 
ATOM     48 O    THR Q 637      23.262 -38.157  52.992  1.00 25.63 LIG-0.27  OA
BRANCH 47 49
ATOM     49  CA  THR Q 637      25.104 -39.432  52.130  1.00 25.03 LIG 0.20  C 
BRANCH 49 50
ATOM     50  CB  THR Q 637      24.437 -40.149  50.942  1.00 24.88 LIG 0.15  C 
ATOM     51  CG2 THR Q 637      24.689 -41.648  51.015  1.00 23.89 LIG 0.04  C 
BRANCH 50 52
ATOM     52 OG1  THR Q 637      23.025 -39.904  50.964  1.00 24.10 LIG-0.39  OA
ATOM     53 HG1  THR Q 637      22.668 -40.264  50.293  1.00 24.10 LIG 0.21  HD
ENDBRANCH 50 52
ENDBRANCH 49 50
BRANCH 49 54
ATOM     54  N   THR Q 637      24.671 -39.992  53.404  1.00 26.29 LIG-0.34  N 
ATOM     55 H    THR Q 637      23.880 -40.329  53.394  1.00 26.29 LIG 0.16  HD
ATOM     56  C   PRO Q 636      25.455 -39.971  54.478  1.00 27.07 LIG 0.25  C 
ATOM     57 O    PRO Q 636      26.585 -39.486  54.480  1.00 27.06 LIG-0.27  OA
BRANCH 56 58
ATOM     58  CA  PRO Q 636      24.886 -40.589  55.751  1.00 27.59 LIG 0.35  C 
ATOM     59  CB  PRO Q 636      24.595 -42.074  55.530  1.00 27.63 LIG 0.05  C 
ATOM     60  CG  PRO Q 636      23.404 -42.349  56.376  1.00 27.91 LIG 0.04  C 
ATOM     61  CD  PRO Q 636      22.573 -41.097  56.335  1.00 28.09 LIG 0.32  C 
ATOM     62  N   PRO Q 636      23.568 -40.040  56.082  1.00 27.47 LIG 0.32  N 
ENDBRANCH 56 58
ENDBRANCH 49 54
ENDBRANCH 47 49
ENDBRANCH 41 45
ENDBRANCH 38 41
ENDBRANCH 1 37
TORSDOF 25
