USER: ADFR SOLUTION from run 0
USER: SCORE 21.107268 LL:  -4.257 LR: -18.581 RR:   0.000 FEB: -12.018
USER: RMSD 0.641041
USER: STATUS Locally minimized using BFGS
USER: GENES 24
USER: genes 0 Translation |==|  0.50491 0.52148 0.55335
USER: genes 1 Rotation |==|  0.49915 0.49985 0.50655 0.99996
USER: genes 2 Torsion [C]-CA--N-[C] |==|  0.81657
USER: genes 3 Torsion [N]-C--CA-[N] |==|  0.38753
USER: genes 4 Torsion [C]-CA--N-[C] |==|  0.83582
USER: genes 5 Torsion [N]-C--CA-[N] |==|  0.41659
USER: genes 6 Torsion [C]-CA--N-[C] |==|  0.79444
USER: genes 7 Torsion [C]-CA--CB-[CG] |==|  0.51213
USER: genes 8 Torsion [CA]-CB--CG-[SD] |==|  0.48458
USER: genes 9 Torsion [CB]-CG--SD-[CE] |==|  0.22594
USER: genes 10 Torsion [C]-CA--CB-[CG] |==|  0.47496
USER: genes 11 Torsion [CA]-CB--CG-[CD] |==|  0.81579
USER: genes 12 Torsion [CB]-CG--CD-[OE1] |==|  0.81497
USER: genes 13 Torsion [N]-CA--C-[N] |==|  0.38596
USER: genes 14 Torsion [C]-N--CA-[CB] |==|  0.37212
USER: genes 15 Torsion [N]-CA--CB-[CG1] |==|  0.80368
USER: genes 16 Torsion [N]-CA--C-[N] |==|  0.42119
USER: genes 17 Torsion [C]-N--CA-[C] |==|  0.68170
USER: genes 18 Torsion [N]-CA--C-[OXT] |==|  0.00001
USER: genes 19 Torsion [N]-CA--CB-[CG] |==|  0.88068
USER: genes 20 Torsion [CA]-CB--CG-[CD1] |==|  0.77669
USER: genes 21 Torsion [N]-CA--CB-[CG] |==|  0.83666
USER: genes 22 Torsion [CA]-CB--CG-[CD] |==|  0.51437
USER: genes 23 Torsion [CB]-CG--CD-[OE2] |==|  0.56514
ROOT
ATOM      1  CA  GLU C   3     -19.216  10.207   3.075  1.00 17.34 LIG 0.18  C 
ENDROOT
BRANCH 1 2
ATOM      2  N   GLU C   3     -18.381   9.520   2.084  1.00 16.96 LIG-0.35  N 
ATOM      3  C   GLU C   2     -18.869   9.164   0.909  1.00 16.75 LIG 0.24  C 
ATOM      4 O    GLU C   2     -20.039   9.371   0.577  1.00 16.41 LIG-0.27  OA
ATOM      5 H    GLU C   3     -17.571   9.375   2.335  1.00 16.96 LIG 0.16  HD
BRANCH 3 6
ATOM      6  CA  GLU C   2     -17.886   8.489  -0.039  1.00 16.90 LIG 0.18  C 
BRANCH 6 7
ATOM      7  N   GLU C   2     -18.565   7.399  -0.712  1.00 16.95 LIG-0.35  N 
ATOM      8  C   MET C   1     -19.112   6.392  -0.059  1.00 17.22 LIG 0.24  C 
ATOM      9 O    MET C   1     -18.972   6.185   1.153  1.00 17.07 LIG-0.27  OA
ATOM     10 H    GLU C   2     -18.576   7.471  -1.568  1.00 16.95 LIG 0.16  HD
BRANCH 8 11
ATOM     11  CA  MET C   1     -19.938   5.478  -0.945  1.00 17.60 LIG 0.18  C 
BRANCH 11 12
ATOM     12  N   MET C   1     -19.937   4.096  -0.452  1.00 17.57 LIG-0.35  N 
ATOM     13 H    MET C   1     -20.680   3.864  -0.084  1.00 17.57 LIG 0.16  HD
ATOM     14  C   ACE C   0     -18.900   3.279  -0.558  1.00 17.66 LIG 0.21  C 
ATOM     15 O    ACE C   0     -18.934   2.197   0.017  1.00 18.17 LIG-0.27  OA
ATOM     16  CH3 ACE C   0     -17.860   3.581  -1.594  1.00 17.74 LIG 0.12  C 
ENDBRANCH 11 12
BRANCH 11 17
ATOM     17  CB  MET C   1     -21.370   6.033  -1.030  1.00 17.86 LIG 0.04  C 
BRANCH 17 18
ATOM     18  CG  MET C   1     -22.357   5.155  -1.812  1.00 18.56 LIG 0.08  C 
BRANCH 18 19
ATOM     19 SD   MET C   1     -24.051   5.790  -1.733  1.00 20.55 LIG-0.17  SA
ATOM     20  CE  MET C   1     -24.018   7.067  -2.997  1.00 18.76 LIG 0.09  C 
ENDBRANCH 18 19
ENDBRANCH 17 18
ENDBRANCH 11 17
ENDBRANCH 8 11
ENDBRANCH 6 7
BRANCH 6 21
ATOM     21  CB  GLU C   2     -17.361   9.504  -1.064  1.00 16.89 LIG 0.04  C 
BRANCH 21 22
ATOM     22  CG  GLU C   2     -16.218   8.980  -1.910  1.00 17.75 LIG 0.12  C 
BRANCH 22 23
ATOM     23  CD  GLU C   2     -14.966   8.725  -1.100  1.00 17.83 LIG 0.17  C 
ATOM     24 OE1  GLU C   2     -14.373   9.692  -0.595  1.00 16.84 LIG-0.65  OA
ATOM     25 OE2  GLU C   2     -14.570   7.549  -0.976  1.00 19.94 LIG-0.65  OA
ENDBRANCH 22 23
ENDBRANCH 21 22
ENDBRANCH 6 21
ENDBRANCH 3 6
ENDBRANCH 1 2
BRANCH 1 26
ATOM     26  C   GLU C   3     -19.627  11.578   2.618  1.00 16.67 LIG 0.24  C 
ATOM     27 O    GLU C   3     -18.825  12.344   2.082  1.00 16.39 LIG-0.27  OA
ATOM     28  N   VAL C   4     -20.882  11.881   2.898  1.00 16.17 LIG-0.35  N 
ATOM     29 H    VAL C   4     -21.457  11.310   3.185  1.00 16.17 LIG 0.16  HD
BRANCH 28 30
ATOM     30  CA  VAL C   4     -21.411  13.229   2.745  1.00 16.42 LIG 0.18  C 
BRANCH 30 31
ATOM     31  CB  VAL C   4     -22.775  13.252   2.032  1.00 16.37 LIG 0.01  C 
ATOM     32  CG1 VAL C   4     -22.598  12.894   0.550  1.00 16.31 LIG 0.01  C 
ATOM     33  CG2 VAL C   4     -23.779  12.324   2.734  1.00 16.31 LIG 0.01  C 
ENDBRANCH 30 31
BRANCH 30 34
ATOM     34  C   VAL C   4     -21.515  13.895   4.115  1.00 17.02 LIG 0.24  C 
ATOM     35 O    VAL C   4     -21.665  13.237   5.141  1.00 16.27 LIG-0.27  OA
ATOM     36  N   PHE C   5     -21.405  15.216   4.107  1.00 17.75 LIG-0.34  N 
ATOM     37 H    PHE C   5     -21.365  15.690   3.390  1.00 17.75 LIG 0.16  HD
BRANCH 36 38
ATOM     38  CA  PHE C   5     -21.341  15.987   5.342  1.00 18.16 LIG 0.19  C 
BRANCH 38 39
ATOM     39  C   PHE C   5     -22.563  16.886   5.495  1.00 18.09 LIG 0.20  C 
ATOM     40 O    PHE C   5     -22.679  17.598   6.499  1.00 17.71 LIG-0.65  OA
ATOM     41 OXT  PHE C   5     -23.451  16.894   4.626  1.00 17.63 LIG-0.65  OA
ENDBRANCH 38 39
BRANCH 38 42
ATOM     42  CB  PHE C   5     -20.036  16.796   5.359  1.00 18.57 LIG 0.07  C 
BRANCH 42 43
ATOM     43  CG  PHE C   5     -18.839  16.001   4.885  1.00 19.32 LIG-0.06  A 
ATOM     44  CD1 PHE C   5     -18.190  15.118   5.734  1.00 20.35 LIG 0.01  A 
ATOM     45  CE1 PHE C   5     -17.105  14.379   5.289  1.00 19.79 LIG 0.00  A 
ATOM     46  CZ  PHE C   5     -16.668  14.514   3.990  1.00 20.19 LIG 0.00  A 
ATOM     47  CE2 PHE C   5     -17.303  15.381   3.140  1.00 20.40 LIG 0.00  A 
ATOM     48  CD2 PHE C   5     -18.386  16.115   3.583  1.00 20.78 LIG 0.01  A 
ENDBRANCH 42 43
ENDBRANCH 38 42
ENDBRANCH 36 38
ENDBRANCH 30 34
ENDBRANCH 28 30
ENDBRANCH 1 26
BRANCH 1 49
ATOM     49  CB  GLU C   3     -18.496  10.375   4.415  1.00 17.73 LIG 0.04  C 
BRANCH 49 50
ATOM     50  CG  GLU C   3     -18.062   9.095   5.048  1.00 21.08 LIG 0.12  C 
BRANCH 50 51
ATOM     51  CD  GLU C   3     -17.473   9.336   6.426  1.00 24.82 LIG 0.17  C 
ATOM     52 OE2  GLU C   3     -16.679   8.480   6.887  1.00 28.13 LIG-0.65  OA
ATOM     53 OE1  GLU C   3     -17.809  10.388   7.032  1.00 24.98 LIG-0.65  OA
ENDBRANCH 50 51
ENDBRANCH 49 50
ENDBRANCH 1 49
TORSDOF 22
