USER: ADFR SOLUTION from run 0
USER: SCORE 14.909678 LL:  -2.093 LR: -12.924 RR:   0.000 FEB:  -9.344
USER: RMSD 0.526580
USER: STATUS Locally minimized using BFGS
USER: GENES 14
USER: genes 0 Translation |==|  0.53367 0.60755 0.40003
USER: genes 1 Rotation |==|  0.51700 0.47446 0.52324 0.99852
USER: genes 2 Torsion [C]-N--CA-[C] |==|  0.75556
USER: genes 3 Torsion [N]-CA--C-[N] |==|  0.33408
USER: genes 4 Torsion [C]-N--CA-[CB] |==|  0.41679
USER: genes 5 Torsion [N]-CA--CB-[CG] |==|  0.49753
USER: genes 6 Torsion [CA]-CB--CG-[CD2] |==|  0.71272
USER: genes 7 Torsion [N]-CA--C-[O] |==|  0.83610
USER: genes 8 Torsion [N]-CA--CB-[CG] |==|  0.54238
USER: genes 9 Torsion [CA]-CB--CG-[CD1] |==|  0.37316
USER: genes 10 Torsion [N]-C--CA-[N] |==|  0.47891
USER: genes 11 Torsion [C]-CA--N-[H3] |==|  0.16544
USER: genes 12 Torsion [C]-CA--CB-[CG] |==|  0.49794
USER: genes 13 Torsion [CA]-CB--CG-[CD2] |==|  0.88884
ROOT
ATOM      1  C   TRP C   1      19.193 -17.576  29.194  1.00 34.42 LIG 0.25  C 
ATOM      2 O    TRP C   1      19.810 -18.336  28.456  1.00 41.57 LIG-0.27  OA
ATOM      3  N   LEU C   2      19.656 -17.130  30.354  1.00 34.28 LIG-0.35  N 
ATOM      4 H    LEU C   2      19.309 -16.460  30.768  1.00 34.28 LIG 0.16  HD
ENDROOT
BRANCH 3 5
ATOM      5  CA  LEU C   2      20.798 -17.720  31.057  1.00 43.88 LIG 0.18  C 
BRANCH 5 6
ATOM      6  C   LEU C   2      20.418 -18.900  32.022  1.00 50.68 LIG 0.24  C 
ATOM      7 O    LEU C   2      19.636 -18.768  33.008  1.00 38.43 LIG-0.27  OA
ATOM      8  N   PHE C   3      20.986 -20.073  31.755  1.00 52.67 LIG-0.35  N 
ATOM      9 H    PHE C   3      21.527 -20.217  31.102  1.00 52.67 LIG 0.16  HD
BRANCH 8 10
ATOM     10  CA  PHE C   3      20.709 -21.239  32.599  1.00 63.47 LIG 0.17  C 
BRANCH 10 11
ATOM     11  CB  PHE C   3      20.803 -22.542  31.793  1.00 59.49 LIG 0.07  C 
BRANCH 11 12
ATOM     12  CG  PHE C   3      20.548 -23.778  32.613  0.00 60.89 LIG-0.06  A 
ATOM     13  CD1 PHE C   3      19.262 -24.125  32.985  0.00 60.45 LIG 0.01  A 
ATOM     14  CE1 PHE C   3      19.028 -25.253  33.755  0.00 60.97 LIG 0.00  A 
ATOM     15  CZ  PHE C   3      20.073 -26.049  34.146  0.00 59.40 LIG 0.00  A 
ATOM     16  CE2 PHE C   3      21.359 -25.720  33.783  0.00 59.26 LIG 0.00  A 
ATOM     17  CD2 PHE C   3      21.594 -24.588  33.020  0.00 60.74 LIG 0.01  A 
ENDBRANCH 11 12
ENDBRANCH 10 11
BRANCH 10 18
ATOM     18  C   PHE C   3      21.638 -21.298  33.822  1.00 72.73 LIG 0.22  C 
ATOM     19 O    PHE C   3      22.864 -21.351  33.699  1.00 72.69 LIG-0.29  OA
ENDBRANCH 10 18
ENDBRANCH 8 10
ENDBRANCH 5 6
BRANCH 5 20
ATOM     20  CB  LEU C   2      21.496 -16.593  31.821  1.00 36.13 LIG 0.04  C 
BRANCH 20 21
ATOM     21  CG  LEU C   2      22.902 -16.811  32.361  1.00 47.78 LIG-0.02  C 
ATOM     22  CD2 LEU C   2      22.825 -17.036  33.834  1.00 53.75 LIG 0.01  C 
ATOM     23  CD1 LEU C   2      23.788 -15.612  32.049  1.00 57.03 LIG 0.01  C 
ENDBRANCH 20 21
ENDBRANCH 5 20
ENDBRANCH 3 5
BRANCH 1 24
ATOM     24  CA  TRP C   1      17.816 -17.079  28.839  1.00 30.44 LIG 0.28  C 
BRANCH 24 25
ATOM     25  N   TRP C   1      17.477 -17.487  27.455  1.00 30.96 LIG-0.07  N 
ATOM     26 H3   TRP C   1      17.501 -18.375  27.393  1.00 30.96 LIG 0.28  HD
ATOM     27 H1   TRP C   1      16.661 -17.197  27.250  1.00 30.96 LIG 0.28  HD
ATOM     28 H2   TRP C   1      18.067 -17.135  26.889  1.00 30.96 LIG 0.28  HD
ENDBRANCH 24 25
BRANCH 24 29
ATOM     29  CB  TRP C   1      16.812 -17.684  29.819  1.00 29.47 LIG 0.08  C 
BRANCH 29 30
ATOM     30  CG  TRP C   1      15.423 -17.277  29.610  1.00 32.35 LIG-0.03  A 
ATOM     31  CD1 TRP C   1      14.301 -18.073  29.671  1.00 34.00 LIG 0.10  A 
ATOM     32  NE1 TRP C   1      13.185 -17.330  29.399  1.00 34.62 LIG-0.36  N 
ATOM     33 HE1  TRP C   1      12.376 -17.625  29.397  1.00 34.62 LIG 0.17  HD
ATOM     34  CE2 TRP C   1      13.563 -16.041  29.130  1.00 29.50 LIG 0.04  A 
ATOM     35  CZ2 TRP C   1      12.794 -14.929  28.832  1.00 29.56 LIG 0.03  A 
ATOM     36  CD2 TRP C   1      14.970 -15.976  29.266  1.00 28.41 LIG-0.00  A 
ATOM     37  CH2 TRP C   1      13.443 -13.754  28.620  1.00 29.15 LIG 0.00  A 
ATOM     38  CZ3 TRP C   1      14.845 -13.660  28.741  1.00 29.71 LIG 0.00  A 
ATOM     39  CE3 TRP C   1      15.604 -14.756  29.057  1.00 28.71 LIG 0.01  A 
ENDBRANCH 29 30
ENDBRANCH 24 29
ENDBRANCH 1 24
TORSDOF 12
