USER: ADFR SOLUTION from run 0
USER: SCORE 12.883160 LL:  -2.249 LR: -12.117 RR:   0.000 FEB:  -7.642
USER: RMSD 0.463815
USER: STATUS Locally minimized using BFGS
USER: GENES 17
USER: genes 0 Translation |==|  0.47339 0.57323 0.46470
USER: genes 1 Rotation |==|  0.50873 0.50260 0.49551 0.99990
USER: genes 2 Torsion [C]-CA--CB-[CG] |==|  0.83569
USER: genes 3 Torsion [CA]-CB--CG-[CD2] |==|  0.21885
USER: genes 4 Torsion [N]-CA--C-[N] |==|  0.41754
USER: genes 5 Torsion [C]-N--CA-[C] |==|  0.57791
USER: genes 6 Torsion [N]-CA--CB-[OG] |==|  0.14060
USER: genes 7 Torsion [CA]-CB--OG-[HG] |==|  0.50610
USER: genes 8 Torsion [N]-CA--C-[N] |==|  0.42256
USER: genes 9 Torsion [C]-N--CA-[CB] |==|  0.42301
USER: genes 10 Torsion [N]-CA--C-[O] |==|  0.02280
USER: genes 11 Torsion [CB]-CA--N-[C] |==|  0.28333
USER: genes 12 Torsion [N]-C--CA-[N] |==|  0.43182
USER: genes 13 Torsion [C]-CA--N-[C] |==|  0.59014
USER: genes 14 Torsion [N]-C--CA-[N] |==|  0.35336
USER: genes 15 Torsion [C]-CA--CB-[OG] |==|  0.85599
USER: genes 16 Torsion [CA]-CB--OG-[HG] |==|  0.50163
ROOT
ATOM      1  CA  TRP E   4      26.527  36.292  19.788  1.00 23.90 LIG 0.18  C 
ENDROOT
BRANCH 1 2
ATOM      2  CB  TRP E   4      25.974  37.740  19.864  1.00 23.42 LIG 0.07  C 
BRANCH 2 3
ATOM      3  CG  TRP E   4      24.762  37.933  20.761  1.00 21.81 LIG-0.03  A 
ATOM      4  CD1 TRP E   4      23.446  38.020  20.354  1.00 20.28 LIG 0.10  A 
ATOM      5  NE1 TRP E   4      22.631  38.183  21.434  1.00 14.71 LIG-0.36  N 
ATOM      6 HE1  TRP E   4      21.776  38.269  21.399  1.00 14.71 LIG 0.17  HD
ATOM      7  CE2 TRP E   4      23.372  38.190  22.577  1.00 22.42 LIG 0.04  A 
ATOM      8  CD2 TRP E   4      24.731  38.042  22.202  1.00 21.74 LIG-0.00  A 
ATOM      9  CZ2 TRP E   4      22.966  38.362  23.910  1.00 22.45 LIG 0.03  A 
ATOM     10  CE3 TRP E   4      25.720  38.042  23.214  1.00 23.04 LIG 0.01  A 
ATOM     11  CZ3 TRP E   4      25.310  38.178  24.538  1.00 25.12 LIG 0.00  A 
ATOM     12  CH2 TRP E   4      23.942  38.337  24.871  1.00 23.64 LIG 0.00  A 
ENDBRANCH 2 3
ENDBRANCH 1 2
BRANCH 1 13
ATOM     13  C   TRP E   4      26.936  35.800  21.180  1.00 25.70 LIG 0.24  C 
ATOM     14  N   SER E   5      28.160  36.115  21.627  1.00 27.23 LIG-0.34  N 
ATOM     15 H    SER E   5      28.748  36.542  21.168  1.00 27.23 LIG 0.16  HD
ATOM     16 O    TRP E   4      26.137  35.142  21.852  1.00 24.65 LIG-0.27  OA
BRANCH 14 17
ATOM     17  CA  SER E   5      28.595  35.733  22.994  1.00 29.24 LIG 0.20  C 
BRANCH 17 18
ATOM     18  CB  SER E   5      29.151  34.307  23.040  1.00 29.98 LIG 0.20  C 
BRANCH 18 19
ATOM     19 OG   SER E   5      30.130  34.120  22.030  1.00 32.06 LIG-0.40  OA
ATOM     20 HG   SER E   5      30.403  33.326  22.048  1.00 32.06 LIG 0.21  HD
ENDBRANCH 18 19
ENDBRANCH 17 18
BRANCH 17 21
ATOM     21  C   SER E   5      29.634  36.681  23.569  1.00 30.08 LIG 0.24  C 
ATOM     22  N   ALA E   6      29.652  36.783  24.894  1.00 30.82 LIG-0.35  N 
ATOM     23 H    ALA E   6      29.065  36.419  25.407  1.00 30.82 LIG 0.16  HD
ATOM     24 O    SER E   5      30.400  37.296  22.827  1.00 31.18 LIG-0.27  OA
BRANCH 22 25
ATOM     25  CA  ALA E   6      30.687  37.535  25.609  1.00 31.79 LIG 0.16  C 
ATOM     26  CB  ALA E   6      30.131  38.051  26.925  1.00 32.45 LIG 0.04  C 
BRANCH 25 27
ATOM     27  C   ALA E   6      31.904  36.646  25.866  1.00 32.63 LIG 0.22  C 
ATOM     28 O    ALA E   6      31.984  35.523  25.358  1.00 33.08 LIG-0.29  OA
ENDBRANCH 25 27
ENDBRANCH 22 25
ENDBRANCH 17 21
ENDBRANCH 14 17
ENDBRANCH 1 13
BRANCH 1 29
ATOM     29  N   TRP E   4      25.568  35.346  19.188  1.00 23.46 LIG-0.35  N 
ATOM     30  C   SER E   3      25.640  34.900  17.924  1.00 23.52 LIG 0.24  C 
ATOM     31 O    SER E   3      26.330  35.435  17.037  1.00 23.44 LIG-0.27  OA
ATOM     32 H    TRP E   4      24.947  35.102  19.732  1.00 23.46 LIG 0.16  HD
BRANCH 30 33
ATOM     33  CA  SER E   3      24.776  33.666  17.599  1.00 23.60 LIG 0.20  C 
BRANCH 33 34
ATOM     34  N   SER E   3      24.408  33.523  16.175  1.00 22.15 LIG-0.34  N 
ATOM     35  C   ALA E   2      23.236  32.975  15.814  1.00 22.11 LIG 0.26  C 
ATOM     36 O    ALA E   2      22.418  32.514  16.603  1.00 20.14 LIG-0.27  OA
ATOM     37 H    SER E   3      24.996  33.815  15.621  1.00 22.15 LIG 0.16  HD
BRANCH 35 38
ATOM     38  CA  ALA E   2      22.889  32.942  14.349  1.00 21.91 LIG 0.40  C 
ATOM     39  N   ALA E   2      22.532  31.517  13.964  1.00 22.04 LIG 0.61  N 
ATOM     40  CB  ALA E   2      21.683  33.898  14.102  1.00 22.52 LIG 0.06  C 
ENDBRANCH 35 38
ENDBRANCH 33 34
BRANCH 33 41
ATOM     41  CB  SER E   3      25.480  32.403  18.110  1.00 24.43 LIG 0.20  C 
BRANCH 41 42
ATOM     42 OG   SER E   3      26.823  32.342  17.640  1.00 28.93 LIG-0.40  OA
ATOM     43 HG   SER E   3      27.187  31.640  17.924  1.00 28.93 LIG 0.21  HD
ENDBRANCH 41 42
ENDBRANCH 33 41
ENDBRANCH 30 33
ENDBRANCH 1 29
TORSDOF 15
