USER: ADFR SOLUTION from run 0
USER: SCORE 20.293918 LL:  -6.037 LR: -15.787 RR:   0.000 FEB:  -8.628
USER: RMSD 0.351945
USER: STATUS Locally minimized using BFGS
USER: GENES 26
USER: genes 0 Translation |==|  0.44340 0.43955 0.42552
USER: genes 1 Rotation |==|  0.49684 0.49370 0.49319 0.99990
USER: genes 2 Torsion [C]-CA--CB-[CG] |==|  0.12332
USER: genes 3 Torsion [CA]-CB--CG-[CD] |==|  0.51925
USER: genes 4 Torsion [CB]-CG--CD-[NE] |==|  0.46833
USER: genes 5 Torsion [CG]-CD--NE-[CZ] |==|  0.55388
USER: genes 6 Torsion [N]-CA--C-[N] |==|  0.35599
USER: genes 7 Torsion [C]-N--CA-[C] |==|  0.66132
USER: genes 8 Torsion [N]-CA--C-[N] |==|  0.00819
USER: genes 9 Torsion [C]-N--CA-[CB] |==|  0.29611
USER: genes 10 Torsion [N]-CA--C-[OXT] |==|  0.39563
USER: genes 11 Torsion [N]-CA--CB-[CG] |==|  0.77754
USER: genes 12 Torsion [CA]-CB--CG-[OD2] |==|  0.77044
USER: genes 13 Torsion [N]-CA--CB-[CG] |==|  0.79356
USER: genes 14 Torsion [CA]-CB--CG-[ND1] |==|  0.76739
USER: genes 15 Torsion [CB]-CA--N-[C] |==|  0.45751
USER: genes 16 Torsion [N]-C--CA-[N] |==|  0.39544
USER: genes 17 Torsion [C]-CA--CB-[CG] |==|  0.20084
USER: genes 18 Torsion [CA]-CB--CG-[CD2] |==|  0.69103
USER: genes 19 Torsion [C]-CA--N-[C] |==|  0.81034
USER: genes 20 Torsion [N]-C--CA-[N] |==|  0.41203
USER: genes 21 Torsion [C]-CA--CB-[CG] |==|  0.45519
USER: genes 22 Torsion [CA]-CB--CG-[CD] |==|  0.54384
USER: genes 23 Torsion [CB]-CG--CD-[OE1] |==|  0.87920
USER: genes 24 Torsion [C]-CA--N-[C] |==|  0.75405
USER: genes 25 Torsion [N]-C--CA-[N] |==|  0.35312
ROOT
ATOM      1  CA  ARG P   5     -23.873  25.081  11.657  1.00 25.78 LIG 0.18  C 
ENDROOT
BRANCH 1 2
ATOM      2  CB  ARG P   5     -24.405  24.046  10.651  1.00 22.44 LIG 0.04  C 
BRANCH 2 3
ATOM      3  CG  ARG P   5     -25.868  24.257  10.260  1.00 26.51 LIG 0.02  C 
BRANCH 3 4
ATOM      4  CD  ARG P   5     -26.405  23.112   9.394  1.00 28.41 LIG 0.14  C 
BRANCH 4 5
ATOM      5  NE  ARG P   5     -27.857  23.175   9.243  1.00 33.08 LIG-0.23  N 
ATOM      6  CZ  ARG P   5     -28.619  22.147   8.875  1.00 31.92 LIG 0.67  C 
ATOM      7  NH2 ARG P   5     -29.929  22.304   8.782  1.00 32.43 LIG-0.23  N 
ATOM      8  NH1 ARG P   5     -28.077  20.957   8.625  1.00 23.99 LIG-0.23  N 
ATOM      9 2HH2 ARG P   5     -30.426  21.644   8.545  1.00 32.43 LIG 0.17  HD
ATOM     10 1HH2 ARG P   5     -30.284  23.067   8.959  1.00 32.43 LIG 0.17  HD
ATOM     11 2HH1 ARG P   5     -28.575  20.299   8.388  1.00 23.99 LIG 0.17  HD
ATOM     12 1HH1 ARG P   5     -27.227  20.848   8.700  1.00 23.99 LIG 0.17  HD
ATOM     13 HE   ARG P   5     -28.245  23.925   9.403  1.00 33.08 LIG 0.18  HD
ENDBRANCH 4 5
ENDBRANCH 3 4
ENDBRANCH 2 3
ENDBRANCH 1 2
BRANCH 1 14
ATOM     14  C   ARG P   5     -24.891  25.310  12.774  1.00 22.77 LIG 0.24  C 
ATOM     15 O    ARG P   5     -25.118  24.430  13.610  1.00 23.41 LIG-0.27  OA
ATOM     16  N   HIS P   6     -25.516  26.485  12.775  1.00 20.21 LIG-0.35  N 
ATOM     17 H    HIS P   6     -25.384  27.099  12.189  1.00 20.21 LIG 0.16  HD
BRANCH 16 18
ATOM     18  CA  HIS P   6     -26.503  26.831  13.800  1.00 24.32 LIG 0.18  C 
BRANCH 18 19
ATOM     19  C   HIS P   6     -27.888  27.180  13.239  1.00 31.11 LIG 0.24  C 
ATOM     20  N   ASP P   7     -28.044  27.070  11.924  1.00 28.94 LIG-0.34  N 
ATOM     21 H    ASP P   7     -27.397  26.977  11.365  1.00 28.94 LIG 0.16  HD
ATOM     22 O    HIS P   6     -28.800  27.545  13.989  1.00 27.73 LIG-0.27  OA
BRANCH 20 23
ATOM     23  CA  ASP P   7     -29.376  27.100  11.321  1.00 30.45 LIG 0.20  C 
BRANCH 23 24
ATOM     24  C   ASP P   7     -29.592  25.904  10.372  1.00 38.41 LIG 0.20  C 
ATOM     25 OXT  ASP P   7     -30.678  25.331  10.295  1.00 43.84 LIG-0.65  OA
ATOM     26 O    ASP P   7     -28.689  25.455   9.657  1.00 36.31 LIG-0.65  OA
ENDBRANCH 23 24
BRANCH 23 27
ATOM     27  CB  ASP P   7     -29.605  28.431  10.605  1.00 42.34 LIG 0.15  C 
BRANCH 27 28
ATOM     28  CG  ASP P   7     -29.990  29.557  11.564  1.00 55.06 LIG 0.17  C 
ATOM     29 OD2  ASP P   7     -31.185  29.649  11.912  1.00 62.01 LIG-0.65  OA
ATOM     30 OD1  ASP P   7     -29.105  30.350  11.967  1.00 52.19 LIG-0.65  OA
ENDBRANCH 27 28
ENDBRANCH 23 27
ENDBRANCH 20 23
ENDBRANCH 18 19
BRANCH 18 31
ATOM     31  CB  HIS P   6     -25.994  27.981  14.652  1.00 25.23 LIG 0.10  C 
BRANCH 31 32
ATOM     32  CG  HIS P   6     -24.925  27.587  15.618  1.00 20.03 LIG 0.06  A 
ATOM     33 ND1  HIS P   6     -25.206  27.038  16.850  1.00 23.24 LIG-0.24  NA
ATOM     34  CE1 HIS P   6     -24.075  26.804  17.493  1.00 27.69 LIG 0.23  A 
ATOM     35 NE2  HIS P   6     -23.071  27.190  16.724  1.00 30.02 LIG-0.25  NA
ATOM     36  CD2 HIS P   6     -23.577  27.682  15.544  1.00 26.95 LIG 0.14  A 
ENDBRANCH 31 32
ENDBRANCH 18 31
ENDBRANCH 16 18
ENDBRANCH 1 14
BRANCH 1 37
ATOM     37  N   ARG P   5     -22.599  24.648  12.212  1.00 23.27 LIG-0.35  N 
ATOM     38 H    ARG P   5     -22.414  23.818  12.083  1.00 23.27 LIG 0.16  HD
ATOM     39  C   PHE P   4     -21.811  25.497  12.861  1.00 23.02 LIG 0.24  C 
ATOM     40 O    PHE P   4     -22.089  26.688  13.021  1.00 27.32 LIG-0.27  OA
BRANCH 39 41
ATOM     41  CA  PHE P   4     -20.516  24.934  13.393  1.00 26.78 LIG 0.18  C 
BRANCH 41 42
ATOM     42  CB  PHE P   4     -20.660  24.570  14.873  1.00 27.56 LIG 0.07  C 
BRANCH 42 43
ATOM     43  CG  PHE P   4     -21.507  23.339  15.141  1.00 23.05 LIG-0.06  A 
ATOM     44  CD2 PHE P   4     -22.749  23.457  15.763  1.00 26.81 LIG 0.01  A 
ATOM     45  CE2 PHE P   4     -23.536  22.327  16.046  1.00 20.39 LIG 0.00  A 
ATOM     46  CZ  PHE P   4     -23.063  21.057  15.707  1.00 15.29 LIG 0.00  A 
ATOM     47  CE1 PHE P   4     -21.814  20.930  15.085  1.00 22.67 LIG 0.00  A 
ATOM     48  CD1 PHE P   4     -21.042  22.065  14.815  1.00 22.68 LIG 0.01  A 
ENDBRANCH 42 43
ENDBRANCH 41 42
BRANCH 41 49
ATOM     49  N   PHE P   4     -19.503  25.965  13.221  1.00 24.27 LIG-0.35  N 
ATOM     50 H    PHE P   4     -19.214  26.305  13.956  1.00 24.27 LIG 0.16  HD
ATOM     51  C   GLU P   3     -19.076  26.334  12.016  1.00 33.66 LIG 0.24  C 
ATOM     52 O    GLU P   3     -19.417  25.777  10.973  1.00 34.99 LIG-0.27  OA
BRANCH 51 53
ATOM     53  CA  GLU P   3     -18.104  27.499  11.988  1.00 34.60 LIG 0.18  C 
BRANCH 53 54
ATOM     54  CB  GLU P   3     -18.884  28.809  11.903  1.00 27.84 LIG 0.04  C 
BRANCH 54 55
ATOM     55  CG  GLU P   3     -18.062  30.041  12.255  1.00 43.05 LIG 0.12  C 
BRANCH 55 56
ATOM     56  CD  GLU P   3     -18.930  31.249  12.533  1.00 49.21 LIG 0.17  C 
ATOM     57 OE1  GLU P   3     -19.893  31.473  11.769  1.00 52.28 LIG-0.65  OA
ATOM     58 OE2  GLU P   3     -18.650  31.972  13.514  1.00 52.44 LIG-0.65  OA
ENDBRANCH 55 56
ENDBRANCH 54 55
ENDBRANCH 53 54
BRANCH 53 59
ATOM     59  N   GLU P   3     -17.161  27.383  10.882  1.00 36.80 LIG-0.35  N 
ATOM     60 H    GLU P   3     -17.415  27.771  10.158  1.00 36.80 LIG 0.16  HD
ATOM     61  C   ALA P   2     -16.012  26.727  11.010  1.00 41.96 LIG 0.26  C 
ATOM     62 O    ALA P   2     -15.698  26.137  12.043  1.00 34.80 LIG-0.27  OA
BRANCH 61 63
ATOM     63  CA  ALA P   2     -15.084  26.735   9.786  1.00 47.40 LIG 0.40  C 
ATOM     64  CB  ALA P   2     -15.046  25.363   9.134  1.00 40.76 LIG 0.06  C 
ATOM     65  N   ALA P   2     -13.727  27.183  10.103  1.00 49.60 LIG 0.61  N 
ENDBRANCH 61 63
ENDBRANCH 53 59
ENDBRANCH 51 53
ENDBRANCH 41 49
ENDBRANCH 39 41
ENDBRANCH 1 37
TORSDOF 24
