USER: ADFR SOLUTION from run 0
USER: SCORE 23.082265 LL:  -4.894 LR: -21.740 RR:   0.000 FEB: -13.090
USER: RMSD 0.580351
USER: STATUS Locally minimized using BFGS
USER: GENES 31
USER: genes 0 Translation |==|  0.53364 0.62330 0.52147
USER: genes 1 Rotation |==|  0.49371 0.49824 0.49123 0.99988
USER: genes 2 Torsion [CB]-CA--N-[C] |==|  0.41667
USER: genes 3 Torsion [N]-C--CA-[N] |==|  0.98348
USER: genes 4 Torsion [C]-CA--N-[C] |==|  0.76739
USER: genes 5 Torsion [N]-C--CA-[N] |==|  0.39601
USER: genes 6 Torsion [C]-CA--N-[C] |==|  0.54215
USER: genes 7 Torsion [N]-C--CA-[N] |==|  0.41017
USER: genes 8 Torsion [C]-CA--CB-[OG] |==|  0.87094
USER: genes 9 Torsion [CA]-CB--OG-[HG] |==|  0.46057
USER: genes 10 Torsion [C]-CA--CB-[OG] |==|  0.16189
USER: genes 11 Torsion [CA]-CB--OG-[HG] |==|  0.27533
USER: genes 12 Torsion [C]-CA--CB-[CG] |==|  0.46225
USER: genes 13 Torsion [CA]-CB--CG-[CD2] |==|  0.77320
USER: genes 14 Torsion [N]-CA--C-[N] |==|  0.42105
USER: genes 15 Torsion [C]-N--CA-[C] |==|  0.77415
USER: genes 16 Torsion [N]-CA--C-[N] |==|  0.94287
USER: genes 17 Torsion [C]-N--CA-[CB] |==|  0.35106
USER: genes 18 Torsion [N]-CA--C-[N] |==|  0.00748
USER: genes 19 Torsion [C]-N--CA-[C] |==|  0.60780
USER: genes 20 Torsion [N]-CA--C-[O] |==|  0.47367
USER: genes 21 Torsion [N]-CA--CB-[CG] |==|  0.82633
USER: genes 22 Torsion [CA]-CB--CG-[CD] |==|  0.71468
USER: genes 23 Torsion [CB]-CG--CD-[NE] |==|  0.84010
USER: genes 24 Torsion [CG]-CD--NE-[HE] |==|  0.06931
USER: genes 25 Torsion [N]-CA--CB-[CG] |==|  0.15903
USER: genes 26 Torsion [CA]-CB--CG-[OD2] |==|  0.47159
USER: genes 27 Torsion [N]-CA--CB-[OG] |==|  0.84033
USER: genes 28 Torsion [CA]-CB--OG-[HG] |==|  0.61974
USER: genes 29 Torsion [N]-CA--CB-[CG] |==|  0.79519
USER: genes 30 Torsion [CA]-CB--CG-[CD2] |==|  0.77881
ROOT
ATOM      1  CA  PHE D  85      23.064  12.665  -6.616  1.00 13.62 LIG 0.18  C 
ENDROOT
BRANCH 1 2
ATOM      2  N   PHE D  85      21.764  12.172  -6.081  1.00 12.64 LIG-0.35  N 
ATOM      3  C   PHE D  84      20.707  12.966  -6.076  1.00 12.54 LIG 0.24  C 
ATOM      4 O    PHE D  84      20.768  14.139  -6.438  1.00 13.45 LIG-0.27  OA
ATOM      5 H    PHE D  85      21.770  11.363  -5.792  1.00 12.64 LIG 0.16  HD
BRANCH 3 6
ATOM      6  CA  PHE D  84      19.411  12.365  -5.549  1.00 10.99 LIG 0.18  C 
BRANCH 6 7
ATOM      7  N   PHE D  84      19.515  10.943  -5.256  1.00 11.22 LIG-0.35  N 
ATOM      8  C   SER D  83      19.364  10.040  -6.214  1.00 13.00 LIG 0.24  C 
ATOM      9 O    SER D  83      18.967  10.316  -7.343  1.00 14.46 LIG-0.27  OA
ATOM     10 H    PHE D  84      19.678  10.756  -4.433  1.00 11.22 LIG 0.16  HD
BRANCH 8 11
ATOM     11  CA  SER D  83      19.716   8.604  -5.861  1.00 14.43 LIG 0.20  C 
BRANCH 11 12
ATOM     12  N   SER D  83      18.757   7.738  -6.527  1.00 17.69 LIG-0.34  N 
ATOM     13 H    SER D  83      18.306   8.128  -7.146  1.00 17.69 LIG 0.16  HD
ATOM     14  C   SER D  82      18.599   6.463  -6.200  1.00 24.18 LIG 0.26  C 
ATOM     15 O    SER D  82      19.244   5.918  -5.314  1.00 25.18 LIG-0.27  OA
BRANCH 14 16
ATOM     16  CA  SER D  82      17.522   5.690  -6.947  1.00 26.20 LIG 0.42  C 
ATOM     17  N   SER D  82      17.936   4.267  -7.093  1.00 29.40 LIG 0.62  N 
BRANCH 16 18
ATOM     18  CB  SER D  82      16.263   5.770  -6.121  1.00 30.27 LIG 0.21  C 
BRANCH 18 19
ATOM     19 OG   SER D  82      16.531   5.498  -4.762  1.00 31.34 LIG-0.40  OA
ATOM     20 HG   SER D  82      15.875   5.733  -4.294  1.00 31.34 LIG 0.21  HD
ENDBRANCH 18 19
ENDBRANCH 16 18
ENDBRANCH 14 16
ENDBRANCH 11 12
BRANCH 11 21
ATOM     21  CB  SER D  83      21.125   8.361  -6.411  1.00 14.68 LIG 0.20  C 
BRANCH 21 22
ATOM     22 OG   SER D  83      22.037   9.284  -5.853  1.00 13.30 LIG-0.40  OA
ATOM     23 HG   SER D  83      22.454   8.919  -5.223  1.00 13.30 LIG 0.21  HD
ENDBRANCH 21 22
ENDBRANCH 11 21
ENDBRANCH 8 11
ENDBRANCH 6 7
BRANCH 6 24
ATOM     24  CB  PHE D  84      18.813  13.092  -4.351  1.00  8.98 LIG 0.07  C 
BRANCH 24 25
ATOM     25  CG  PHE D  84      17.393  12.657  -4.096  1.00  8.49 LIG-0.06  A 
ATOM     26  CD2 PHE D  84      16.347  13.221  -4.847  1.00 10.31 LIG 0.01  A 
ATOM     27  CE2 PHE D  84      15.041  12.768  -4.677  1.00 10.65 LIG 0.00  A 
ATOM     28  CZ  PHE D  84      14.737  11.781  -3.732  1.00 10.75 LIG 0.00  A 
ATOM     29  CE1 PHE D  84      15.778  11.228  -2.938  1.00 10.66 LIG 0.00  A 
ATOM     30  CD1 PHE D  84      17.100  11.630  -3.178  1.00  9.98 LIG 0.01  A 
ENDBRANCH 24 25
ENDBRANCH 6 24
ENDBRANCH 3 6
ENDBRANCH 1 2
BRANCH 1 31
ATOM     31  C   PHE D  85      23.156  12.446  -8.125  1.00 16.85 LIG 0.24  C 
ATOM     32 O    PHE D  85      22.594  11.487  -8.646  1.00 18.00 LIG-0.27  OA
ATOM     33  N   SER D  86      23.922  13.306  -8.803  1.00 18.10 LIG-0.34  N 
ATOM     34 H    SER D  86      24.505  13.810  -8.422  1.00 18.10 LIG 0.16  HD
BRANCH 33 35
ATOM     35  CA  SER D  86      23.857  13.486 -10.239  1.00 22.43 LIG 0.20  C 
BRANCH 35 36
ATOM     36  C   SER D  86      24.646  12.414 -10.967  1.00 23.81 LIG 0.24  C 
ATOM     37  N   ASP D  87      25.566  11.800 -10.232  1.00 23.40 LIG-0.34  N 
ATOM     38 H    ASP D  87      25.661  11.931  -9.388  1.00 23.40 LIG 0.16  HD
ATOM     39 O    SER D  86      24.444  12.163 -12.170  1.00 25.32 LIG-0.27  OA
BRANCH 37 40
ATOM     40  CA  ASP D  87      26.513  10.833 -10.796  1.00 26.51 LIG 0.19  C 
BRANCH 40 41
ATOM     41  C   ASP D  87      26.233   9.403 -10.331  1.00 27.38 LIG 0.24  C 
ATOM     42 O    ASP D  87      26.985   8.463 -10.659  1.00 28.73 LIG-0.27  OA
ATOM     43  N   ARG D  88      25.166   9.252  -9.551  1.00 28.82 LIG-0.35  N 
ATOM     44 H    ARG D  88      24.662   9.911  -9.322  1.00 28.82 LIG 0.16  HD
BRANCH 43 45
ATOM     45  CA  ARG D  88      24.727   7.969  -8.998  1.00 28.71 LIG 0.16  C 
BRANCH 45 46
ATOM     46  C   ARG D  88      23.196   7.865  -9.013  1.00 31.71 LIG 0.22  C 
ATOM     47 O    ARG D  88      22.642   6.782  -8.748  1.00 33.51 LIG-0.29  OA
ENDBRANCH 45 46
BRANCH 45 48
ATOM     48  CB  ARG D  88      25.201   7.766  -7.548  1.00 27.82 LIG 0.04  C 
BRANCH 48 49
ATOM     49  CG  ARG D  88      26.719   7.713  -7.301  1.00 22.71 LIG 0.02  C 
BRANCH 49 50
ATOM     50  CD  ARG D  88      27.158   6.284  -7.099  1.00 22.91 LIG 0.14  C 
BRANCH 50 51
ATOM     51  NE  ARG D  88      26.425   5.694  -5.985  1.00 22.66 LIG-0.23  N 
ATOM     52  CZ  ARG D  88      26.844   4.676  -5.236  1.00 22.61 LIG 0.67  C 
ATOM     53  NH2 ARG D  88      26.068   4.249  -4.255  1.00 21.99 LIG-0.23  N 
ATOM     54  NH1 ARG D  88      27.962   4.015  -5.550  1.00 25.76 LIG-0.23  N 
ATOM     55 2HH2 ARG D  88      26.321   3.592  -3.760  1.00 21.99 LIG 0.17  HD
ATOM     56 1HH2 ARG D  88      25.309   4.628  -4.110  1.00 21.99 LIG 0.17  HD
ATOM     57 2HH1 ARG D  88      28.225   3.358  -5.060  1.00 25.76 LIG 0.17  HD
ATOM     58 1HH1 ARG D  88      28.419   4.245  -6.240  1.00 25.76 LIG 0.17  HD
ATOM     59 HE   ARG D  88      25.658   6.033  -5.795  1.00 22.66 LIG 0.18  HD
ENDBRANCH 50 51
ENDBRANCH 49 50
ENDBRANCH 48 49
ENDBRANCH 45 48
ENDBRANCH 43 45
ENDBRANCH 40 41
BRANCH 40 60
ATOM     60  CB  ASP D  87      27.944  11.256 -10.433  1.00 26.50 LIG 0.15  C 
BRANCH 60 61
ATOM     61  CG  ASP D  87      28.175  11.387  -8.913  1.00 24.52 LIG 0.17  C 
ATOM     62 OD2  ASP D  87      29.373  11.534  -8.549  1.00 24.79 LIG-0.65  OA
ATOM     63 OD1  ASP D  87      27.215  11.334  -8.084  1.00 24.25 LIG-0.65  OA
ENDBRANCH 60 61
ENDBRANCH 40 60
ENDBRANCH 37 40
ENDBRANCH 35 36
BRANCH 35 64
ATOM     64  CB  SER D  86      24.460  14.854 -10.574  1.00 23.53 LIG 0.20  C 
BRANCH 64 65
ATOM     65 OG   SER D  86      23.753  15.854  -9.875  1.00 29.54 LIG-0.40  OA
ATOM     66 HG   SER D  86      23.611  16.506 -10.385  1.00 29.54 LIG 0.21  HD
ENDBRANCH 64 65
ENDBRANCH 35 64
ENDBRANCH 33 35
ENDBRANCH 1 31
BRANCH 1 67
ATOM     67  CB  PHE D  85      24.245  11.974  -5.901  1.00 13.93 LIG 0.07  C 
BRANCH 67 68
ATOM     68  CG  PHE D  85      24.460  12.466  -4.508  1.00 11.63 LIG-0.06  A 
ATOM     69  CD1 PHE D  85      23.893  11.786  -3.403  1.00 12.04 LIG 0.01  A 
ATOM     70  CE1 PHE D  85      24.075  12.248  -2.078  1.00 12.49 LIG 0.00  A 
ATOM     71  CZ  PHE D  85      24.827  13.456  -1.875  1.00 15.08 LIG 0.00  A 
ATOM     72  CE2 PHE D  85      25.337  14.149  -2.992  1.00 13.94 LIG 0.00  A 
ATOM     73  CD2 PHE D  85      25.129  13.670  -4.286  1.00 14.09 LIG 0.01  A 
ENDBRANCH 67 68
ENDBRANCH 1 67
TORSDOF 29
