USER: ADFR SOLUTION from run 0
USER: SCORE 9.621010 LL:  -1.784 LR:  -8.130 RR:   0.000 FEB:  -3.357
USER: RMSD 0.630281
USER: STATUS Locally minimized using BFGS
USER: GENES 18
USER: genes 0 Translation |==|  0.51669 0.49330 0.51633
USER: genes 1 Rotation |==|  0.51884 0.47493 0.52870 0.99819
USER: genes 2 Torsion [N]-C--CA-[N] |==|  0.37396
USER: genes 3 Torsion [C]-CA--CB-[CG] |==|  0.42341
USER: genes 4 Torsion [CA]-CB--CG-[CD] |==|  0.52868
USER: genes 5 Torsion [CB]-CG--CD-[OE2] |==|  0.49382
USER: genes 6 Torsion [C]-CA--N-[C] |==|  0.67545
USER: genes 7 Torsion [N]-C--CA-[N] |==|  0.90384
USER: genes 8 Torsion [C]-CA--CB-[CG] |==|  0.42565
USER: genes 9 Torsion [CA]-CB--CG-[CD] |==|  0.56752
USER: genes 10 Torsion [CB]-CG--CD-[OE2] |==|  0.50933
USER: genes 11 Torsion [C]-N--CA-[C] |==|  0.69995
USER: genes 12 Torsion [N]-CA--C-[N] |==|  0.40044
USER: genes 13 Torsion [C]-N--CA-[CB] |==|  0.39661
USER: genes 14 Torsion [N]-CA--CB-[CG] |==|  0.81288
USER: genes 15 Torsion [CA]-CB--CG-[OD1] |==|  0.96174
USER: genes 16 Torsion [N]-CA--C-[O] |==|  0.87172
USER: genes 17 Torsion [N]-CA--CB-[CG2] |==|  0.57439
ROOT
ATOM      1  C   GLU Q 640      31.224  56.119  71.549  1.00 42.49 LIG 0.24  C 
ATOM      2 O    GLU Q 640      32.169  56.871  71.323  1.00 42.42 LIG-0.27  OA
ATOM      3  N   VAL Q 641      31.151  55.339  72.622  1.00 42.52 LIG-0.35  N 
ATOM      4 H    VAL Q 641      30.521  54.768  72.753  1.00 42.52 LIG 0.16  HD
ENDROOT
BRANCH 1 5
ATOM      5  CA  GLU Q 640      30.049  56.005  70.582  1.00 42.54 LIG 0.18  C 
BRANCH 5 6
ATOM      6  CB  GLU Q 640      30.424  55.105  69.402  1.00 42.65 LIG 0.04  C 
BRANCH 6 7
ATOM      7  CG  GLU Q 640      29.238  54.395  68.762  1.00 42.42 LIG 0.12  C 
BRANCH 7 8
ATOM      8  CD  GLU Q 640      29.651  53.324  67.763  1.00 42.56 LIG 0.17  C 
ATOM      9 OE2  GLU Q 640      28.747  52.651  67.213  1.00 42.27 LIG-0.65  OA
ATOM     10 OE1  GLU Q 640      30.873  53.152  67.527  1.00 42.60 LIG-0.65  OA
ENDBRANCH 7 8
ENDBRANCH 6 7
ENDBRANCH 5 6
BRANCH 5 11
ATOM     11  N   GLU Q 640      29.530  57.292  70.114  1.00 42.67 LIG-0.35  N 
ATOM     12  C   GLU Q 639      28.288  57.683  70.390  1.00 42.69 LIG 0.26  C 
ATOM     13 O    GLU Q 639      27.543  57.062  71.151  1.00 42.71 LIG-0.27  OA
ATOM     14 H    GLU Q 640      30.091  57.757  69.657  1.00 42.67 LIG 0.16  HD
BRANCH 12 15
ATOM     15  CA  GLU Q 639      27.800  58.959  69.705  1.00 42.78 LIG 0.40  C 
ATOM     16  N   GLU Q 639      28.874  59.980  69.521  1.00 42.84 LIG 0.61  N 
BRANCH 15 17
ATOM     17  CB  GLU Q 639      27.155  58.601  68.362  1.00 42.78 LIG 0.06  C 
BRANCH 17 18
ATOM     18  CG  GLU Q 639      26.103  59.589  67.888  1.00 43.01 LIG 0.12  C 
BRANCH 18 19
ATOM     19  CD  GLU Q 639      25.095  58.971  66.931  1.00 43.16 LIG 0.17  C 
ATOM     20 OE1  GLU Q 639      25.165  57.748  66.678  1.00 43.27 LIG-0.65  OA
ATOM     21 OE2  GLU Q 639      24.224  59.714  66.431  1.00 43.17 LIG-0.65  OA
ENDBRANCH 18 19
ENDBRANCH 17 18
ENDBRANCH 15 17
ENDBRANCH 12 15
ENDBRANCH 5 11
ENDBRANCH 1 5
BRANCH 3 22
ATOM     22  CA  VAL Q 641      32.142  55.382  73.688  1.00 42.43 LIG 0.18  C 
BRANCH 22 23
ATOM     23  C   VAL Q 641      33.034  54.125  73.671  1.00 42.31 LIG 0.24  C 
ATOM     24 O    VAL Q 641      32.568  53.029  73.349  1.00 42.15 LIG-0.27  OA
ATOM     25  N   ASP Q 642      34.315  54.295  73.999  1.00 42.19 LIG-0.35  N 
ATOM     26 H    ASP Q 642      34.654  55.051  74.225  1.00 42.19 LIG 0.16  HD
BRANCH 25 27
ATOM     27  CA  ASP Q 642      35.269  53.180  74.000  1.00 42.17 LIG 0.17  C 
BRANCH 27 28
ATOM     28  CB  ASP Q 642      36.646  53.637  73.501  1.00 42.21 LIG 0.15  C 
BRANCH 28 29
ATOM     29  CG  ASP Q 642      36.648  54.019  72.029  1.00 42.38 LIG 0.17  C 
ATOM     30 OD1  ASP Q 642      35.674  53.699  71.310  1.00 42.36 LIG-0.65  OA
ATOM     31 OD2  ASP Q 642      37.640  54.643  71.588  1.00 42.41 LIG-0.65  OA
ENDBRANCH 28 29
ENDBRANCH 27 28
BRANCH 27 32
ATOM     32  C   ASP Q 642      35.403  52.514  75.372  1.00 42.05 LIG 0.22  C 
ATOM     33 O    ASP Q 642      35.532  53.188  76.394  1.00 41.78 LIG-0.29  OA
ENDBRANCH 27 32
ENDBRANCH 25 27
ENDBRANCH 22 23
BRANCH 22 34
ATOM     34  CB  VAL Q 641      31.435  55.607  75.057  1.00 42.38 LIG 0.01  C 
ATOM     35  CG2 VAL Q 641      32.354  56.280  76.024  1.00 42.63 LIG 0.01  C 
ATOM     36  CG1 VAL Q 641      30.873  54.305  75.636  1.00 42.36 LIG 0.01  C 
ENDBRANCH 22 34
ENDBRANCH 3 22
TORSDOF 16
