USER: ADFR SOLUTION from run 0
USER: SCORE 18.798662 LL:  -3.964 LR: -18.164 RR:   0.000 FEB:  -8.618
USER: RMSD 0.580086
USER: STATUS Locally minimized using BFGS
USER: GENES 34
USER: genes 0 Translation |==|  0.47181 0.48836 0.51916
USER: genes 1 Rotation |==|  0.50174 0.49462 0.49653 0.99996
USER: genes 2 Torsion [C]-N--CA-[CB] |==|  0.42996
USER: genes 3 Torsion [N]-CA--C-[N] |==|  0.38068
USER: genes 4 Torsion [C]-N--CA-[CB] |==|  0.29154
USER: genes 5 Torsion [N]-CA--CB-[CG] |==|  0.78225
USER: genes 6 Torsion [CA]-CB--CG-[CD] |==|  0.52978
USER: genes 7 Torsion [CB]-CG--CD-[OE2] |==|  0.43018
USER: genes 8 Torsion [N]-CA--C-[N] |==|  0.30892
USER: genes 9 Torsion [C]-N--CA-[C] |==|  0.85517
USER: genes 10 Torsion [N]-CA--C-[N] |==|  0.38274
USER: genes 11 Torsion [C]-N--CA-[CB] |==|  0.34198
USER: genes 12 Torsion [N]-CA--C-[OXT] |==|  0.08966
USER: genes 13 Torsion [N]-CA--CB-[SG] |==|  0.79808
USER: genes 14 Torsion [CA]-CB--SG-[HG] |==|  0.14127
USER: genes 15 Torsion [N]-CA--CB-[CG] |==|  0.78210
USER: genes 16 Torsion [CA]-CB--CG-[CD] |==|  0.49101
USER: genes 17 Torsion [CB]-CG--CD-[OE1] |==|  0.97507
USER: genes 18 Torsion [N]-CA--CB-[CG] |==|  0.49056
USER: genes 19 Torsion [CA]-CB--CG-[SD] |==|  0.20685
USER: genes 20 Torsion [CB]-CG--SD-[CE] |==|  0.22250
USER: genes 21 Torsion [N]-C--CA-[N] |==|  0.39743
USER: genes 22 Torsion [C]-CA--N-[C] |==|  0.54594
USER: genes 23 Torsion [N]-C--CA-[N] |==|  0.47778
USER: genes 24 Torsion [C]-CA--CB-[CG] |==|  0.80285
USER: genes 25 Torsion [CA]-CB--CG-[OD1] |==|  0.50477
USER: genes 26 Torsion [C]-CA--N-[C] |==|  0.62794
USER: genes 27 Torsion [N]-C--CA-[N] |==|  0.35427
USER: genes 28 Torsion [C]-CA--N-[C] |==|  0.82624
USER: genes 29 Torsion [C]-CA--CB-[CG] |==|  0.16220
USER: genes 30 Torsion [CA]-CB--CG-[CD1] |==|  0.60744
USER: genes 31 Torsion [C]-CA--CB-[CG] |==|  0.70321
USER: genes 32 Torsion [CA]-CB--CG-[CD] |==|  0.16984
USER: genes 33 Torsion [CB]-CG--CD-[OE1] |==|  0.10226
ROOT
ATOM      1  C   GLU C   3      27.687  -3.777  -8.045  1.00 25.67 LIG 0.24  C 
ATOM      2 O    GLU C   3      26.547  -3.329  -8.232  1.00 24.73 LIG-0.27  OA
ATOM      3  N   MET C   4      28.808  -3.074  -8.232  1.00 25.06 LIG-0.35  N 
ATOM      4 H    MET C   4      29.594  -3.403  -8.118  1.00 25.06 LIG 0.16  HD
ENDROOT
BRANCH 3 5
ATOM      5  CA  MET C   4      28.811  -1.671  -8.653  1.00 24.76 LIG 0.18  C 
BRANCH 5 6
ATOM      6  C   MET C   4      28.698  -1.589 -10.166  1.00 24.60 LIG 0.24  C 
ATOM      7 O    MET C   4      29.384  -2.308 -10.900  1.00 25.19 LIG-0.27  OA
ATOM      8  N   GLU C   5      27.868  -0.664 -10.623  1.00 23.81 LIG-0.35  N 
ATOM      9 H    GLU C   5      27.474  -0.088 -10.121  1.00 23.81 LIG 0.16  HD
BRANCH 8 10
ATOM     10  CA  GLU C   5      27.550  -0.541 -12.018  1.00 23.16 LIG 0.18  C 
BRANCH 10 11
ATOM     11  CB  GLU C   5      26.145  -1.087 -12.263  1.00 23.03 LIG 0.04  C 
BRANCH 11 12
ATOM     12  CG  GLU C   5      26.113  -2.614 -12.311  1.00 23.31 LIG 0.12  C 
BRANCH 12 13
ATOM     13  CD  GLU C   5      24.788  -3.195 -12.807  1.00 24.36 LIG 0.17  C 
ATOM     14 OE2  GLU C   5      24.799  -4.340 -13.333  1.00 22.25 LIG-0.65  OA
ATOM     15 OE1  GLU C   5      23.741  -2.528 -12.693  1.00 21.71 LIG-0.65  OA
ENDBRANCH 12 13
ENDBRANCH 11 12
ENDBRANCH 10 11
BRANCH 10 16
ATOM     16  C   GLU C   5      27.616   0.915 -12.410  1.00 22.53 LIG 0.24  C 
ATOM     17  N   GLU C   6      28.608   1.268 -13.223  1.00 22.45 LIG-0.35  N 
ATOM     18 H    GLU C   6      29.258   0.749 -13.444  1.00 22.45 LIG 0.16  HD
ATOM     19 O    GLU C   5      26.794   1.705 -11.965  1.00 22.53 LIG-0.27  OA
BRANCH 17 20
ATOM     20  CA  GLU C   6      28.668   2.615 -13.824  1.00 22.27 LIG 0.18  C 
BRANCH 20 21
ATOM     21  C   GLU C   6      27.353   2.942 -14.512  1.00 21.97 LIG 0.24  C 
ATOM     22 O    GLU C   6      26.781   2.094 -15.198  1.00 22.60 LIG-0.27  OA
ATOM     23  N   CYS C   7      26.859   4.168 -14.351  1.00 20.65 LIG-0.34  N 
ATOM     24 H    CYS C   7      27.249   4.805 -13.925  1.00 20.65 LIG 0.16  HD
BRANCH 23 25
ATOM     25  CA  CYS C   7      25.556   4.500 -14.925  1.00 20.43 LIG 0.19  C 
BRANCH 25 26
ATOM     26  C   CYS C   7      25.697   5.461 -16.090  1.00 19.69 LIG 0.20  C 
ATOM     27 O    CYS C   7      24.841   6.297 -16.363  1.00 19.84 LIG-0.65  OA
ATOM     28 OXT  CYS C   7      26.694   5.409 -16.806  1.00 20.10 LIG-0.65  OA
ENDBRANCH 25 26
BRANCH 25 29
ATOM     29  CB  CYS C   7      24.588   5.006 -13.835  1.00 20.27 LIG 0.11  C 
BRANCH 29 30
ATOM     30 SG   CYS C   7      23.994   3.669 -12.719  1.00 22.98 LIG-0.18  SA
ATOM     31 HG   CYS C   7      24.932   3.047 -12.304  1.00 22.98 LIG 0.10  HD
ENDBRANCH 29 30
ENDBRANCH 25 29
ENDBRANCH 23 25
ENDBRANCH 20 21
BRANCH 20 32
ATOM     32  CB  GLU C   6      29.815   2.696 -14.830  1.00 22.58 LIG 0.04  C 
BRANCH 32 33
ATOM     33  CG  GLU C   6      31.158   2.866 -14.162  1.00 24.64 LIG 0.12  C 
BRANCH 33 34
ATOM     34  CD  GLU C   6      32.323   2.870 -15.142  1.00 27.63 LIG 0.17  C 
ATOM     35 OE1  GLU C   6      32.124   2.572 -16.346  1.00 27.17 LIG-0.65  OA
ATOM     36 OE2  GLU C   6      33.446   3.188 -14.691  1.00 31.71 LIG-0.65  OA
ENDBRANCH 33 34
ENDBRANCH 32 33
ENDBRANCH 20 32
ENDBRANCH 17 20
ENDBRANCH 10 16
ENDBRANCH 8 10
ENDBRANCH 5 6
BRANCH 5 37
ATOM     37  CB  MET C   4      30.096  -0.970  -8.199  1.00 24.86 LIG 0.04  C 
BRANCH 37 38
ATOM     38  CG  MET C   4      30.254   0.496  -8.654  1.00 24.76 LIG 0.08  C 
BRANCH 38 39
ATOM     39 SD   MET C   4      29.221   1.698  -7.781  1.00 26.68 LIG-0.17  SA
ATOM     40  CE  MET C   4      30.199   1.906  -6.281  1.00 24.50 LIG 0.09  C 
ENDBRANCH 38 39
ENDBRANCH 37 38
ENDBRANCH 5 37
ENDBRANCH 3 5
BRANCH 1 41
ATOM     41  CA  GLU C   3      27.875  -5.203  -7.530  1.00 26.55 LIG 0.18  C 
BRANCH 41 42
ATOM     42  N   GLU C   3      26.802  -5.531  -6.595  1.00 27.07 LIG-0.35  N 
ATOM     43 H    GLU C   3      26.122  -5.005  -6.633  1.00 27.07 LIG 0.16  HD
ATOM     44  C   ASP C   2      26.896  -6.566  -5.764  1.00 28.06 LIG 0.24  C 
ATOM     45 O    ASP C   2      27.868  -7.319  -5.755  1.00 27.76 LIG-0.27  OA
BRANCH 44 46
ATOM     46  CA  ASP C   2      25.698  -6.813  -4.843  1.00 28.68 LIG 0.19  C 
BRANCH 46 47
ATOM     47  CB  ASP C   2      25.450  -5.633  -3.883  1.00 28.90 LIG 0.15  C 
BRANCH 47 48
ATOM     48  CG  ASP C   2      26.506  -5.500  -2.792  1.00 30.38 LIG 0.17  C 
ATOM     49 OD2  ASP C   2      27.483  -6.276  -2.780  1.00 31.55 LIG-0.65  OA
ATOM     50 OD1  ASP C   2      26.360  -4.581  -1.945  1.00 32.13 LIG-0.65  OA
ENDBRANCH 47 48
ENDBRANCH 46 47
BRANCH 46 51
ATOM     51  N   ASP C   2      25.787  -8.071  -4.089  1.00 28.83 LIG-0.34  N 
ATOM     52  C   PHE C   1      24.739  -8.888  -4.009  1.00 29.29 LIG 0.24  C 
ATOM     53 O    PHE C   1      23.716  -8.733  -4.680  1.00 29.28 LIG-0.27  OA
ATOM     54 H    ASP C   2      26.550  -8.220  -3.721  1.00 28.83 LIG 0.16  HD
BRANCH 52 55
ATOM     55  CA  PHE C   1      24.828 -10.035  -3.013  1.00 29.71 LIG 0.18  C 
BRANCH 55 56
ATOM     56  N   PHE C   1      23.636  -9.985  -2.167  1.00 30.30 LIG-0.35  N 
ATOM     57 H    PHE C   1      23.134 -10.679  -2.233  1.00 30.30 LIG 0.16  HD
ATOM     58  C   ACE C   0      23.359  -8.945  -1.365  1.00 30.61 LIG 0.21  C 
ATOM     59  CH3 ACE C   0      22.240  -9.183  -0.389  1.00 31.12 LIG 0.12  C 
ATOM     60 O    ACE C   0      23.766  -7.803  -1.600  1.00 30.74 LIG-0.27  OA
ENDBRANCH 55 56
BRANCH 55 61
ATOM     61  CB  PHE C   1      24.902 -11.388  -3.732  1.00 29.76 LIG 0.07  C 
BRANCH 61 62
ATOM     62  CG  PHE C   1      26.074 -11.535  -4.688  1.00 30.32 LIG-0.06  A 
ATOM     63  CD1 PHE C   1      25.910 -12.199  -5.902  1.00 31.60 LIG 0.01  A 
ATOM     64  CE1 PHE C   1      26.983 -12.359  -6.784  1.00 31.29 LIG 0.00  A 
ATOM     65  CZ  PHE C   1      28.229 -11.847  -6.453  1.00 31.54 LIG 0.00  A 
ATOM     66  CE2 PHE C   1      28.407 -11.185  -5.243  1.00 29.54 LIG 0.00  A 
ATOM     67  CD2 PHE C   1      27.336 -11.035  -4.372  1.00 30.51 LIG 0.01  A 
ENDBRANCH 61 62
ENDBRANCH 55 61
ENDBRANCH 52 55
ENDBRANCH 46 51
ENDBRANCH 44 46
ENDBRANCH 41 42
BRANCH 41 68
ATOM     68  CB  GLU C   3      27.988  -6.239  -8.682  1.00 26.96 LIG 0.04  C 
BRANCH 68 69
ATOM     69  CG  GLU C   3      26.789  -7.183  -8.945  1.00 28.76 LIG 0.12  C 
BRANCH 69 70
ATOM     70  CD  GLU C   3      25.512  -6.472  -9.319  1.00 29.94 LIG 0.17  C 
ATOM     71 OE1  GLU C   3      25.593  -5.455 -10.036  1.00 33.38 LIG-0.65  OA
ATOM     72 OE2  GLU C   3      24.422  -6.951  -8.921  1.00 31.06 LIG-0.65  OA
ENDBRANCH 69 70
ENDBRANCH 68 69
ENDBRANCH 41 68
ENDBRANCH 1 41
TORSDOF 32
