USER: ADFR SOLUTION from run 0
USER: SCORE 12.068607 LL:  -4.134 LR: -10.078 RR:   0.000 FEB:  -2.322
USER: RMSD 0.569707
USER: STATUS Locally minimized using BFGS
USER: GENES 28
USER: genes 0 Translation |==|  0.44278 0.41921 0.48535
USER: genes 1 Rotation |==|  0.50424 0.49960 0.53250 0.99892
USER: genes 2 Torsion [C]-CA--N-[C] |==|  0.74540
USER: genes 3 Torsion [N]-C--CA-[N] |==|  0.31751
USER: genes 4 Torsion [C]-CA--CB-[SG] |==|  0.46213
USER: genes 5 Torsion [CA]-CB--SG-[HG] |==|  0.49999
USER: genes 6 Torsion [C]-CA--N-[C] |==|  0.66470
USER: genes 7 Torsion [N]-C--CA-[N] |==|  0.37303
USER: genes 8 Torsion [C]-CA--CB-[CG] |==|  0.42730
USER: genes 9 Torsion [CA]-CB--CG-[CD] |==|  0.59598
USER: genes 10 Torsion [CB]-CG--CD-[OE1] |==|  0.96403
USER: genes 11 Torsion [C]-CA--N-[C] |==|  0.81776
USER: genes 12 Torsion [N]-C--CA-[N] |==|  0.29176
USER: genes 13 Torsion [C]-CA--CB-[OG] |==|  0.18571
USER: genes 14 Torsion [CA]-CB--OG-[HG] |==|  0.49992
USER: genes 15 Torsion [C]-CA--N-[H1] |==|  0.47795
USER: genes 16 Torsion [N]-CA--CB-[OG1] |==|  0.88985
USER: genes 17 Torsion [CA]-CB--OG1-[HG1] |==|  0.49942
USER: genes 18 Torsion [N]-CA--C-[N] |==|  0.30454
USER: genes 19 Torsion [C]-N--CA-[CB] |==|  0.32787
USER: genes 20 Torsion [N]-CA--C-[N] |==|  0.32308
USER: genes 21 Torsion [N]-CA--C-[N] |==|  0.36421
USER: genes 22 Torsion [C]-N--CA-[CB] |==|  0.35314
USER: genes 23 Torsion [N]-CA--CB-[SG] |==|  0.79698
USER: genes 24 Torsion [CA]-CB--SG-[HG] |==|  0.13665
USER: genes 25 Torsion [N]-CA--C-[OXT] |==|  0.58505
USER: genes 26 Torsion [N]-CA--CB-[OG1] |==|  0.84577
USER: genes 27 Torsion [CA]-CB--OG1-[HG1] |==|  0.60109
ROOT
ATOM      1  CA  THR F   4      38.736 -28.421  33.804  1.00 50.77 LIG 0.20  C 
ENDROOT
BRANCH 1 2
ATOM      2  N   THR F   4      40.172 -28.176  33.642  1.00 51.40 LIG-0.34  N 
ATOM      3 H    THR F   4      40.657 -28.884  33.700  1.00 51.40 LIG 0.16  HD
ATOM      4  C   CYS F   3      40.668 -26.955  33.424  1.00 52.18 LIG 0.24  C 
ATOM      5 O    CYS F   3      39.960 -25.964  33.224  1.00 51.89 LIG-0.27  OA
BRANCH 4 6
ATOM      6  CA  CYS F   3      42.194 -26.830  33.376  1.00 52.92 LIG 0.18  C 
BRANCH 6 7
ATOM      7  CB  CYS F   3      42.702 -25.822  34.417  1.00 52.86 LIG 0.10  C 
BRANCH 7 8
ATOM      8 SG   CYS F   3      44.505 -25.887  34.711  1.00 55.16 LIG-0.18  SA
ATOM      9 HG   CYS F   3      44.806 -25.068  35.535  1.00 55.16 LIG 0.10  HD
ENDBRANCH 7 8
ENDBRANCH 6 7
BRANCH 6 10
ATOM     10  N   CYS F   3      42.607 -26.444  32.023  1.00 53.02 LIG-0.34  N 
ATOM     11 H    CYS F   3      42.274 -25.698  31.755  1.00 53.02 LIG 0.16  HD
ATOM     12  C   GLU F   2      43.426 -27.191  31.285  1.00 53.57 LIG 0.24  C 
ATOM     13 O    GLU F   2      44.029 -28.174  31.727  1.00 53.07 LIG-0.27  OA
BRANCH 12 14
ATOM     14  CA  GLU F   2      43.560 -26.797  29.812  1.00 54.00 LIG 0.18  C 
BRANCH 14 15
ATOM     15  CB  GLU F   2      42.707 -27.793  29.013  1.00 54.10 LIG 0.04  C 
BRANCH 15 16
ATOM     16  CG  GLU F   2      42.162 -27.317  27.673  1.00 55.55 LIG 0.12  C 
BRANCH 16 17
ATOM     17  CD  GLU F   2      40.777 -27.895  27.363  1.00 57.36 LIG 0.17  C 
ATOM     18 OE1  GLU F   2      40.325 -28.847  28.044  1.00 58.39 LIG-0.65  OA
ATOM     19 OE2  GLU F   2      40.114 -27.387  26.434  1.00 58.95 LIG-0.65  OA
ENDBRANCH 16 17
ENDBRANCH 15 16
ENDBRANCH 14 15
BRANCH 14 20
ATOM     20  N   GLU F   2      44.950 -26.768  29.333  1.00 53.99 LIG-0.35  N 
ATOM     21 H    GLU F   2      45.114 -27.365  28.736  1.00 53.99 LIG 0.16  HD
ATOM     22  C   SER F   1      45.879 -25.911  29.766  1.00 54.35 LIG 0.25  C 
ATOM     23 O    SER F   1      45.703 -25.114  30.697  1.00 54.45 LIG-0.27  OA
BRANCH 22 24
ATOM     24  CA  SER F   1      47.235 -25.977  29.051  1.00 54.58 LIG 0.30  C 
BRANCH 24 25
ATOM     25  CB  SER F   1      48.376 -26.037  30.074  1.00 54.63 LIG 0.21  C 
BRANCH 25 26
ATOM     26 OG   SER F   1      48.347 -27.258  30.798  1.00 54.91 LIG-0.40  OA
ATOM     27 HG   SER F   1      48.979 -27.271  31.352  1.00 54.91 LIG 0.21  HD
ENDBRANCH 25 26
ENDBRANCH 24 25
BRANCH 24 28
ATOM     28  N   SER F   1      47.430 -24.828  28.113  1.00 54.74 LIG-0.06  N 
ATOM     29 H1   SER F   1      48.265 -24.834  27.805  1.00 54.74 LIG 0.28  HD
ATOM     30 H2   SER F   1      46.862 -24.902  27.432  1.00 54.74 LIG 0.28  HD
ATOM     31 H3   SER F   1      47.278 -24.064  28.543  1.00 54.74 LIG 0.28  HD
ENDBRANCH 24 28
ENDBRANCH 22 24
ENDBRANCH 14 20
ENDBRANCH 12 14
ENDBRANCH 6 10
ENDBRANCH 4 6
ENDBRANCH 1 2
BRANCH 1 32
ATOM     32  CB  THR F   4      38.292 -29.809  33.311  1.00 51.21 LIG 0.15  C 
ATOM     33  CG2 THR F   4      36.780 -29.824  33.084  1.00 50.61 LIG 0.04  C 
BRANCH 32 34
ATOM     34 OG1  THR F   4      38.983 -30.144  32.103  1.00 51.15 LIG-0.39  OA
ATOM     35 HG1  THR F   4      38.739 -30.904  31.841  1.00 51.15 LIG 0.21  HD
ENDBRANCH 32 34
ENDBRANCH 1 32
BRANCH 1 36
ATOM     36  C   THR F   4      38.433 -28.333  35.291  1.00 49.53 LIG 0.24  C 
ATOM     37  N   THR F   5      37.731 -27.278  35.688  1.00 47.76 LIG-0.34  N 
ATOM     38 H    THR F   5      37.349 -26.737  35.139  1.00 47.76 LIG 0.16  HD
ATOM     39 O    THR F   4      38.857 -29.197  36.051  1.00 50.01 LIG-0.27  OA
BRANCH 37 40
ATOM     40  CA  THR F   5      37.530 -26.922  37.089  1.00 46.83 LIG 0.20  C 
BRANCH 40 41
ATOM     41  C   THR F   5      36.030 -26.863  37.373  1.00 45.74 LIG 0.24  C 
ATOM     42  N   PRO F   6      35.538 -27.747  38.255  1.00 45.40 LIG-0.34  N 
ATOM     43  CA  PRO F   6      34.151 -27.612  38.720  1.00 45.02 LIG 0.18  C 
ATOM     44  CD  PRO F   6      36.184 -28.964  38.784  1.00 45.45 LIG 0.13  C 
ATOM     45  CB  PRO F   6      34.005 -28.735  39.749  1.00 45.11 LIG 0.04  C 
ATOM     46  CG  PRO F   6      35.014 -29.758  39.348  1.00 45.75 LIG 0.02  C 
ATOM     47 O    THR F   5      35.321 -26.043  36.789  1.00 44.21 LIG-0.27  OA
BRANCH 43 48
ATOM     48  C   PRO F   6      33.979 -26.263  39.396  1.00 45.08 LIG 0.24  C 
ATOM     49  N   CYS F   7      32.940 -25.512  39.036  1.00 44.40 LIG-0.34  N 
ATOM     50 H    CYS F   7      32.308 -25.759  38.508  1.00 44.40 LIG 0.16  HD
ATOM     51 O    PRO F   6      34.809 -25.907  40.236  1.00 44.91 LIG-0.27  OA
BRANCH 49 52
ATOM     52  CA  CYS F   7      32.830 -24.154  39.561  1.00 45.02 LIG 0.19  C 
BRANCH 52 53
ATOM     53  CB  CYS F   7      32.647 -23.150  38.411  1.00 44.51 LIG 0.11  C 
BRANCH 53 54
ATOM     54 SG   CYS F   7      34.214 -22.911  37.466  1.00 46.73 LIG-0.18  SA
ATOM     55 HG   CYS F   7      34.678 -23.980  37.182  1.00 46.73 LIG 0.10  HD
ENDBRANCH 53 54
ENDBRANCH 52 53
BRANCH 52 56
ATOM     56  C   CYS F   7      31.808 -24.014  40.706  1.00 45.05 LIG 0.20  C 
ATOM     57 OXT  CYS F   7      31.176 -22.963  40.897  1.00 44.33 LIG-0.65  OA
ATOM     58 O    CYS F   7      31.657 -24.968  41.493  1.00 44.51 LIG-0.65  OA
ENDBRANCH 52 56
ENDBRANCH 49 52
ENDBRANCH 43 48
ENDBRANCH 40 41
BRANCH 40 59
ATOM     59  CB  THR F   5      38.144 -25.541  37.377  1.00 46.83 LIG 0.15  C 
ATOM     60  CG2 THR F   5      37.998 -25.135  38.836  1.00 46.88 LIG 0.04  C 
BRANCH 59 61
ATOM     61 OG1  THR F   5      39.527 -25.548  36.997  1.00 48.31 LIG-0.39  OA
ATOM     62 HG1  THR F   5      39.970 -25.085  37.540  1.00 48.31 LIG 0.21  HD
ENDBRANCH 59 61
ENDBRANCH 40 59
ENDBRANCH 37 40
ENDBRANCH 1 36
TORSDOF 26
