USER: ADFR SOLUTION from run 0
USER: SCORE 15.131402 LL:  -4.796 LR: -13.393 RR:   0.000 FEB:  -5.339
USER: RMSD 0.233147
USER: STATUS Locally minimized using BFGS
USER: GENES 29
USER: genes 0 Translation |==|  0.47567 0.41982 0.50076
USER: genes 1 Rotation |==|  0.50626 0.49731 0.50176 0.99995
USER: genes 2 Torsion [C]-N--CA-[CB] |==|  0.40251
USER: genes 3 Torsion [N]-CA--CB-[CG2] |==|  0.83467
USER: genes 4 Torsion [N]-CA--C-[N] |==|  0.32609
USER: genes 5 Torsion [C]-N--CA-[C] |==|  0.68234
USER: genes 6 Torsion [N]-CA--CB-[CG2] |==|  0.83464
USER: genes 7 Torsion [N]-CA--C-[N] |==|  0.33526
USER: genes 8 Torsion [C]-N--CA-[CB] |==|  0.49406
USER: genes 9 Torsion [N]-CA--CB-[SG] |==|  0.78952
USER: genes 10 Torsion [CA]-CB--SG-[HG] |==|  0.69965
USER: genes 11 Torsion [N]-CA--C-[N] |==|  0.37886
USER: genes 12 Torsion [C]-N--CA-[C] |==|  0.68588
USER: genes 13 Torsion [N]-CA--CB-[SG] |==|  0.78923
USER: genes 14 Torsion [CA]-CB--SG-[HG] |==|  0.15324
USER: genes 15 Torsion [N]-CA--C-[OXT] |==|  0.07343
USER: genes 16 Torsion [N]-C--CA-[N] |==|  0.43308
USER: genes 17 Torsion [C]-CA--N-[C] |==|  0.60089
USER: genes 18 Torsion [N]-C--CA-[N] |==|  0.38742
USER: genes 19 Torsion [C]-CA--N-[C] |==|  0.79334
USER: genes 20 Torsion [N]-C--CA-[N] |==|  0.31307
USER: genes 21 Torsion [C]-CA--CB-[CG2] |==|  0.18788
USER: genes 22 Torsion [CA]-CB--OG1-[HG1] |==|  0.28055
USER: genes 23 Torsion [C]-CA--N-[C] |==|  0.69097
USER: genes 24 Torsion [C]-CA--CB-[CG] |==|  0.44267
USER: genes 25 Torsion [CA]-CB--CG-[CD] |==|  0.24395
USER: genes 26 Torsion [CB]-CG--CD-[OE2] |==|  0.48115
USER: genes 27 Torsion [C]-CA--CB-[CG] |==|  0.27038
USER: genes 28 Torsion [CA]-CB--CG-[OD2] |==|  0.37772
ROOT
ATOM      1  C   ASP C   3      -8.730  -0.844 -50.270  1.00 21.95 LIG 0.24  C 
ATOM      2 O    ASP C   3      -8.908   0.341 -49.988  1.00 22.02 LIG-0.27  OA
ATOM      3  N   VAL C   4      -8.362  -1.775 -49.400  1.00 20.47 LIG-0.35  N 
ATOM      4 H    VAL C   4      -8.249  -2.602 -49.608  1.00 20.47 LIG 0.16  HD
ENDROOT
BRANCH 3 5
ATOM      5  CA  VAL C   4      -8.113  -1.477 -47.993  1.00 19.37 LIG 0.18  C 
BRANCH 5 6
ATOM      6  CB  VAL C   4      -8.554  -2.649 -47.091  1.00 19.50 LIG 0.01  C 
ATOM      7  CG2 VAL C   4     -10.053  -2.931 -47.273  1.00 18.97 LIG 0.01  C 
ATOM      8  CG1 VAL C   4      -8.240  -2.352 -45.638  1.00 20.24 LIG 0.01  C 
ENDBRANCH 5 6
BRANCH 5 9
ATOM      9  C   VAL C   4      -6.620  -1.210 -47.853  1.00 18.84 LIG 0.24  C 
ATOM     10  N   VAL C   5      -6.259   0.009 -47.450  1.00 18.10 LIG-0.35  N 
ATOM     11 H    VAL C   5      -6.825   0.604 -47.193  1.00 18.10 LIG 0.16  HD
ATOM     12 O    VAL C   4      -5.816  -2.116 -48.095  1.00 20.23 LIG-0.27  OA
BRANCH 10 13
ATOM     13  CA  VAL C   5      -4.875   0.462 -47.400  1.00 17.69 LIG 0.18  C 
BRANCH 13 14
ATOM     14  CB  VAL C   5      -4.688   1.753 -48.235  1.00 18.27 LIG 0.01  C 
ATOM     15  CG2 VAL C   5      -5.082   1.474 -49.715  1.00 18.63 LIG 0.01  C 
ATOM     16  CG1 VAL C   5      -3.249   2.280 -48.132  1.00 19.20 LIG 0.01  C 
ENDBRANCH 13 14
BRANCH 13 17
ATOM     17  C   VAL C   5      -4.479   0.710 -45.940  1.00 17.55 LIG 0.24  C 
ATOM     18 O    VAL C   5      -5.109   1.522 -45.243  1.00 16.61 LIG-0.27  OA
ATOM     19  N   CYS C   6      -3.455  -0.005 -45.492  1.00 17.33 LIG-0.34  N 
ATOM     20 H    CYS C   6      -3.025  -0.571 -45.975  1.00 17.33 LIG 0.16  HD
BRANCH 19 21
ATOM     21  CA  CYS C   6      -2.955   0.102 -44.119  1.00 17.84 LIG 0.18  C 
BRANCH 21 22
ATOM     22  CB  CYS C   6      -1.811  -0.878 -43.888  1.00 18.00 LIG 0.10  C 
BRANCH 22 23
ATOM     23 SG   CYS C   6      -2.380  -2.566 -43.698  1.00 23.34 LIG-0.18  SA
ATOM     24 HG   CYS C   6      -2.262  -2.902 -42.551  1.00 23.34 LIG 0.10  HD
ENDBRANCH 22 23
ENDBRANCH 21 22
BRANCH 21 25
ATOM     25  C   CYS C   6      -2.479   1.514 -43.854  1.00 17.78 LIG 0.24  C 
ATOM     26 O    CYS C   6      -1.808   2.113 -44.695  1.00 18.30 LIG-0.27  OA
ATOM     27  N   CYS C   7      -2.830   2.055 -42.684  1.00 17.97 LIG-0.34  N 
ATOM     28 H    CYS C   7      -3.263   1.638 -42.068  1.00 17.97 LIG 0.16  HD
BRANCH 27 29
ATOM     29  CA  CYS C   7      -2.485   3.444 -42.360  1.00 18.46 LIG 0.19  C 
BRANCH 29 30
ATOM     30  CB  CYS C   7      -3.762   4.216 -42.058  1.00 18.37 LIG 0.11  C 
BRANCH 30 31
ATOM     31 SG   CYS C   7      -4.680   4.618 -43.567  1.00 21.24 LIG-0.18  SA
ATOM     32 HG   CYS C   7      -4.897   3.612 -44.184  1.00 21.24 LIG 0.10  HD
ENDBRANCH 30 31
ENDBRANCH 29 30
BRANCH 29 33
ATOM     33  C   CYS C   7      -1.472   3.567 -41.218  1.00 18.64 LIG 0.20  C 
ATOM     34 OXT  CYS C   7      -0.669   2.651 -40.981  1.00 18.72 LIG-0.65  OA
ATOM     35 O    CYS C   7      -1.399   4.608 -40.545  1.00 19.07 LIG-0.65  OA
ENDBRANCH 29 33
ENDBRANCH 27 29
ENDBRANCH 21 25
ENDBRANCH 19 21
ENDBRANCH 13 17
ENDBRANCH 10 13
ENDBRANCH 5 9
ENDBRANCH 3 5
BRANCH 1 36
ATOM     36  CA  ASP C   3      -8.937  -1.327 -51.679  1.00 23.26 LIG 0.19  C 
BRANCH 36 37
ATOM     37  N   ASP C   3      -9.840  -0.428 -52.364  1.00 23.08 LIG-0.35  N 
ATOM     38  C   GLU C   2     -10.713  -0.910 -53.234  1.00 23.46 LIG 0.24  C 
ATOM     39 O    GLU C   2     -10.711  -2.087 -53.580  1.00 23.95 LIG-0.27  OA
ATOM     40 H    ASP C   3      -9.756   0.403 -52.159  1.00 23.08 LIG 0.16  HD
BRANCH 38 41
ATOM     41  CA  GLU C   2     -11.730   0.068 -53.794  1.00 23.56 LIG 0.18  C 
BRANCH 41 42
ATOM     42  N   GLU C   2     -11.919  -0.189 -55.229  1.00 23.07 LIG-0.35  N 
ATOM     43  C   THR C   1     -10.992   0.172 -56.117  1.00 23.69 LIG 0.24  C 
ATOM     44 O    THR C   1      -9.960   0.764 -55.813  1.00 24.29 LIG-0.27  OA
ATOM     45 H    GLU C   2     -12.658  -0.580 -55.431  1.00 23.07 LIG 0.16  HD
BRANCH 43 46
ATOM     46  CA  THR C   1     -11.263  -0.159 -57.575  1.00 23.89 LIG 0.20  C 
BRANCH 46 47
ATOM     47  CB  THR C   1     -10.083  -0.972 -58.135  1.00 24.32 LIG 0.15  C 
ATOM     48  CG2 THR C   1     -10.026  -2.360 -57.474  1.00 24.71 LIG 0.04  C 
BRANCH 47 49
ATOM     49 OG1  THR C   1     -10.243  -1.134 -59.551  1.00 24.87 LIG-0.39  OA
ATOM     50 HG1  THR C   1      -9.749  -0.586 -59.954  1.00 24.87 LIG 0.21  HD
ENDBRANCH 47 49
ENDBRANCH 46 47
BRANCH 46 51
ATOM     51  N   THR C   1     -11.459   1.090 -58.301  1.00 24.03 LIG-0.35  N 
ATOM     52 H    THR C   1     -10.749   1.571 -58.377  1.00 24.03 LIG 0.16  HD
ATOM     53  C   ACE C   0     -12.643   1.440 -58.797  1.00 24.28 LIG 0.21  C 
ATOM     54 O    ACE C   0     -13.653   0.736 -58.673  1.00 24.50 LIG-0.27  OA
ATOM     55  CH3 ACE C   0     -12.612   2.618 -59.718  1.00 24.98 LIG 0.12  C 
ENDBRANCH 46 51
ENDBRANCH 43 46
ENDBRANCH 41 42
BRANCH 41 56
ATOM     56  CB  GLU C   2     -13.048  -0.055 -53.013  1.00 23.91 LIG 0.04  C 
BRANCH 56 57
ATOM     57  CG  GLU C   2     -13.960   1.155 -53.119  1.00 27.13 LIG 0.12  C 
BRANCH 57 58
ATOM     58  CD  GLU C   2     -14.898   1.099 -54.312  1.00 29.05 LIG 0.17  C 
ATOM     59 OE2  GLU C   2     -15.773   1.979 -54.416  1.00 31.00 LIG-0.65  OA
ATOM     60 OE1  GLU C   2     -14.768   0.178 -55.142  1.00 31.26 LIG-0.65  OA
ENDBRANCH 57 58
ENDBRANCH 56 57
ENDBRANCH 41 56
ENDBRANCH 38 41
ENDBRANCH 36 37
BRANCH 36 61
ATOM     61  CB  ASP C   3      -7.606  -1.417 -52.413  1.00 24.55 LIG 0.15  C 
BRANCH 61 62
ATOM     62  CG  ASP C   3      -7.034  -2.826 -52.411  1.00 28.69 LIG 0.17  C 
ATOM     63 OD2  ASP C   3      -6.556  -3.276 -53.473  1.00 33.40 LIG-0.65  OA
ATOM     64 OD1  ASP C   3      -7.076  -3.490 -51.349  1.00 33.84 LIG-0.65  OA
ENDBRANCH 61 62
ENDBRANCH 36 61
ENDBRANCH 1 36
TORSDOF 27
