USER: ADFR SOLUTION from run 0
USER: SCORE 15.966048 LL:  -3.045 LR: -13.353 RR:   0.000 FEB:  -7.387
USER: RMSD 0.324414
USER: STATUS Locally minimized using BFGS
USER: GENES 22
USER: genes 0 Translation |==|  0.38626 0.49765 0.47310
USER: genes 1 Rotation |==|  0.49749 0.50427 0.50553 0.99994
USER: genes 2 Torsion [C]-N--CA-[C] |==|  0.75781
USER: genes 3 Torsion [N]-CA--C-[N] |==|  0.36792
USER: genes 4 Torsion [C]-N--CA-[CB] |==|  0.34594
USER: genes 5 Torsion [N]-CA--CB-[CG] |==|  0.80420
USER: genes 6 Torsion [CA]-CB--CG-[CD1] |==|  0.86390
USER: genes 7 Torsion [N]-CA--C-[O] |==|  0.46040
USER: genes 8 Torsion [N]-CA--CB-[CG] |==|  0.82830
USER: genes 9 Torsion [CA]-CB--CG-[CD] |==|  0.41862
USER: genes 10 Torsion [CB]-CG--CD-[NE] |==|  0.88765
USER: genes 11 Torsion [CG]-CD--NE-[CZ] |==|  0.51102
USER: genes 12 Torsion [N]-C--CA-[N] |==|  0.38324
USER: genes 13 Torsion [C]-CA--N-[C] |==|  0.63255
USER: genes 14 Torsion [N]-C--CA-[N] |==|  0.38902
USER: genes 15 Torsion [C]-CA--CB-[CG] |==|  0.17423
USER: genes 16 Torsion [CA]-CB--CG-[CD] |==|  0.51399
USER: genes 17 Torsion [CB]-CG--CD-[OE2] |==|  0.55271
USER: genes 18 Torsion [C]-CA--N-[C] |==|  0.66131
USER: genes 19 Torsion [N]-C--CA-[N] |==|  0.01233
USER: genes 20 Torsion [C]-CA--CB-[OG1] |==|  0.48539
USER: genes 21 Torsion [CA]-CB--OG1-[HG1] |==|  0.20902
ROOT
ATOM      1  C   THR D  11      33.967   0.806   2.002  1.00 18.55 LIG 0.24  C 
ATOM      2 O    THR D  11      33.350   0.939   0.941  1.00 18.02 LIG-0.27  OA
ATOM      3  N   ARG D  12      35.100   0.096   2.114  1.00 18.77 LIG-0.35  N 
ATOM      4 H    ARG D  12      35.535   0.038   2.853  1.00 18.77 LIG 0.16  HD
ENDROOT
BRANCH 3 5
ATOM      5  CA  ARG D  12      35.723  -0.649   1.029  1.00 18.70 LIG 0.18  C 
BRANCH 5 6
ATOM      6  C   ARG D  12      35.082  -2.050   1.015  1.00 21.86 LIG 0.24  C 
ATOM      7  N   LEU D  13      34.673  -2.520  -0.165  1.00 17.74 LIG-0.34  N 
ATOM      8 H    LEU D  13      34.754  -2.066  -0.891  1.00 17.74 LIG 0.16  HD
ATOM      9 O    ARG D  12      34.948  -2.682   2.076  1.00 22.92 LIG-0.27  OA
BRANCH 7 10
ATOM     10  CA  LEU D  13      34.046  -3.836  -0.387  1.00 16.59 LIG 0.18  C 
BRANCH 10 11
ATOM     11  CB  LEU D  13      32.660  -3.702  -1.097  1.00 17.18 LIG 0.04  C 
BRANCH 11 12
ATOM     12  CG  LEU D  13      31.436  -3.109  -0.346  1.00 22.98 LIG-0.02  C 
ATOM     13  CD2 LEU D  13      31.446  -1.605  -0.321  1.00 23.47 LIG 0.01  C 
ATOM     14  CD1 LEU D  13      31.214  -3.720   1.011  1.00 23.63 LIG 0.01  C 
ENDBRANCH 11 12
ENDBRANCH 10 11
BRANCH 10 15
ATOM     15  C   LEU D  13      34.892  -4.725  -1.259  1.00 15.64 LIG 0.20  C 
ATOM     16 OXT  LEU D  13      35.762  -4.195  -1.983  1.00 16.77 LIG-0.65  OA
ATOM     17 O    LEU D  13      34.607  -5.937  -1.295  1.00 16.70 LIG-0.65  OA
ENDBRANCH 10 15
ENDBRANCH 7 10
ENDBRANCH 5 6
BRANCH 5 18
ATOM     18  CB  ARG D  12      37.237  -0.774   1.299  1.00 21.73 LIG 0.04  C 
BRANCH 18 19
ATOM     19  CG  ARG D  12      37.975   0.575   1.360  1.00 32.78 LIG 0.02  C 
BRANCH 19 20
ATOM     20  CD  ARG D  12      39.194   0.541   2.272  1.00 50.92 LIG 0.14  C 
BRANCH 20 21
ATOM     21  NE  ARG D  12      38.939  -0.221   3.499  1.00 62.40 LIG-0.23  N 
ATOM     22  CZ  ARG D  12      39.798  -0.350   4.503  1.00 78.74 LIG 0.67  C 
ATOM     23  NH2 ARG D  12      39.477  -1.075   5.567  1.00 63.99 LIG-0.23  N 
ATOM     24  NH1 ARG D  12      40.977   0.258   4.462  1.00 69.89 LIG-0.23  N 
ATOM     25 1HH2 ARG D  12      38.711  -1.463   5.607  1.00 63.99 LIG 0.17  HD
ATOM     26 2HH2 ARG D  12      40.036  -1.157   6.216  1.00 63.99 LIG 0.17  HD
ATOM     27 2HH1 ARG D  12      41.529   0.171   5.115  1.00 69.89 LIG 0.17  HD
ATOM     28 1HH1 ARG D  12      41.189   0.740   3.782  1.00 69.89 LIG 0.17  HD
ATOM     29 HE   ARG D  12      38.178  -0.613   3.574  1.00 62.40 LIG 0.18  HD
ENDBRANCH 20 21
ENDBRANCH 19 20
ENDBRANCH 18 19
ENDBRANCH 5 18
ENDBRANCH 3 5
BRANCH 1 30
ATOM     30  CA  THR D  11      33.434   1.437   3.288  1.00 18.14 LIG 0.20  C 
BRANCH 30 31
ATOM     31  N   THR D  11      32.970   2.798   3.002  1.00 19.39 LIG-0.34  N 
ATOM     32 H    THR D  11      32.466   2.860   2.308  1.00 19.39 LIG 0.16  HD
ATOM     33  C   GLU D  10      33.314   3.848   3.769  1.00 24.62 LIG 0.24  C 
ATOM     34 O    GLU D  10      34.051   3.748   4.749  1.00 23.89 LIG-0.27  OA
BRANCH 33 35
ATOM     35  CA  GLU D  10      32.823   5.226   3.318  1.00 24.68 LIG 0.18  C 
BRANCH 35 36
ATOM     36  CB  GLU D  10      33.953   5.967   2.585  1.00 26.38 LIG 0.04  C 
BRANCH 36 37
ATOM     37  CG  GLU D  10      34.428   5.297   1.310  1.00 32.13 LIG 0.12  C 
BRANCH 37 38
ATOM     38  CD  GLU D  10      35.620   5.940   0.628  1.00 44.28 LIG 0.17  C 
ATOM     39 OE2  GLU D  10      35.810   5.659  -0.573  1.00 30.19 LIG-0.65  OA
ATOM     40 OE1  GLU D  10      36.375   6.697   1.283  1.00 43.79 LIG-0.65  OA
ENDBRANCH 37 38
ENDBRANCH 36 37
ENDBRANCH 35 36
BRANCH 35 41
ATOM     41  N   GLU D  10      32.387   6.052   4.441  1.00 26.35 LIG-0.35  N 
ATOM     42 H    GLU D  10      33.006   6.173   5.025  1.00 26.35 LIG 0.16  HD
ATOM     43  C   GLY D   9      31.171   6.577   4.575  1.00 30.50 LIG 0.25  C 
ATOM     44 O    GLY D   9      30.250   6.372   3.776  1.00 29.84 LIG-0.27  OA
BRANCH 43 45
ATOM     45  CA  GLY D   9      30.943   7.443   5.800  1.00 28.17 LIG 0.47  C 
ATOM     46  N   GLY D   9      32.140   7.658   6.610  1.00 29.20 LIG 0.61  N 
ENDBRANCH 43 45
ENDBRANCH 35 41
ENDBRANCH 33 35
ENDBRANCH 30 31
BRANCH 30 47
ATOM     47  CB  THR D  11      32.313   0.558   3.903  1.00 19.92 LIG 0.15  C 
ATOM     48  CG2 THR D  11      32.739  -0.916   4.101  1.00 18.13 LIG 0.04  C 
BRANCH 47 49
ATOM     49 OG1  THR D  11      31.909   1.093   5.164  1.00 18.56 LIG-0.39  OA
ATOM     50 HG1  THR D  11      31.435   1.776   5.040  1.00 18.56 LIG 0.21  HD
ENDBRANCH 47 49
ENDBRANCH 30 47
ENDBRANCH 1 30
TORSDOF 20
