USER: ADFR SOLUTION from run 0
USER: SCORE 13.217000 LL:  -2.338 LR: -12.410 RR:   0.000 FEB:  -6.742
USER: RMSD 0.253462
USER: STATUS Locally minimized using BFGS
USER: GENES 21
USER: genes 0 Translation |==|  0.53629 0.49614 0.38714
USER: genes 1 Rotation |==|  0.49862 0.49064 0.49114 0.99983
USER: genes 2 Torsion [CB]-CA--N-[C] |==|  0.29264
USER: genes 3 Torsion [N]-C--CA-[N] |==|  0.39075
USER: genes 4 Torsion [C]-CA--CB-[CG] |==|  0.08585
USER: genes 5 Torsion [CA]-CB--CG-[CD] |==|  0.52477
USER: genes 6 Torsion [CB]-CG--CD-[OE2] |==|  0.20186
USER: genes 7 Torsion [C]-CA--N-[C] |==|  0.66022
USER: genes 8 Torsion [N]-C--CA-[N] |==|  0.43535
USER: genes 9 Torsion [C]-CA--CB-[CG2] |==|  0.44045
USER: genes 10 Torsion [CA]-CB--CG1-[CD1] |==|  0.44199
USER: genes 11 Torsion [N]-CA--CB-[OG] |==|  0.85685
USER: genes 12 Torsion [CA]-CB--OG-[HG] |==|  0.24725
USER: genes 13 Torsion [N]-CA--C-[N] |==|  0.41500
USER: genes 14 Torsion [C]-N--CA-[C] |==|  0.73034
USER: genes 15 Torsion [N]-CA--C-[N] |==|  0.36007
USER: genes 16 Torsion [C]-N--CA-[CB] |==|  0.31682
USER: genes 17 Torsion [N]-CA--C-[OXT] |==|  0.47710
USER: genes 18 Torsion [N]-CA--CB-[CG1] |==|  0.79540
USER: genes 19 Torsion [N]-CA--CB-[CG] |==|  0.12980
USER: genes 20 Torsion [CA]-CB--CG-[OD1] |==|  0.82813
ROOT
ATOM      1  CA  SER G  14      50.887 -16.393  10.227  1.00 44.70 LIG 0.20  C 
ENDROOT
BRANCH 1 2
ATOM      2  N   SER G  14      50.678 -17.330  11.334  1.00 46.20 LIG-0.34  N 
ATOM      3 H    SER G  14      49.928 -17.216  11.738  1.00 46.20 LIG 0.16  HD
ATOM      4  C   GLU G  13      51.566 -18.288  11.697  1.00 51.44 LIG 0.24  C 
ATOM      5 O    GLU G  13      52.656 -18.452  11.134  1.00 50.95 LIG-0.27  OA
BRANCH 4 6
ATOM      6  CA  GLU G  13      51.166 -19.217  12.866  1.00 50.06 LIG 0.18  C 
BRANCH 6 7
ATOM      7  CB  GLU G  13      51.778 -18.759  14.203  1.00 50.83 LIG 0.04  C 
BRANCH 7 8
ATOM      8  CG  GLU G  13      51.997 -17.268  14.368  1.00 52.88 LIG 0.12  C 
BRANCH 8 9
ATOM      9  CD  GLU G  13      52.791 -16.894  15.601  1.00 63.45 LIG 0.17  C 
ATOM     10 OE2  GLU G  13      54.026 -17.130  15.624  1.00 51.34 LIG-0.65  OA
ATOM     11 OE1  GLU G  13      52.163 -16.388  16.563  1.00 49.18 LIG-0.65  OA
ENDBRANCH 8 9
ENDBRANCH 7 8
ENDBRANCH 6 7
BRANCH 6 12
ATOM     12  N   GLU G  13      51.608 -20.576  12.557  1.00 52.96 LIG-0.35  N 
ATOM     13  C   ILE G  12      50.886 -21.707  12.469  1.00 61.55 LIG 0.26  C 
ATOM     14 O    ILE G  12      49.678 -21.776  12.709  1.00 62.55 LIG-0.27  OA
ATOM     15 H    GLU G  13      52.457 -20.596  12.422  1.00 52.96 LIG 0.16  HD
BRANCH 13 16
ATOM     16  CA  ILE G  12      51.671 -22.955  12.055  1.00 62.28 LIG 0.40  C 
ATOM     17  N   ILE G  12      51.042 -24.213  12.474  1.00 63.47 LIG 0.61  N 
BRANCH 16 18
ATOM     18  CB  ILE G  12      52.079 -22.918  10.543  1.00 65.80 LIG 0.03  C 
ATOM     19  CG2 ILE G  12      53.268 -23.849  10.258  1.00 67.40 LIG 0.01  C 
BRANCH 18 20
ATOM     20  CG1 ILE G  12      50.870 -23.168   9.590  1.00 66.47 LIG 0.00  C 
ATOM     21  CD1 ILE G  12      51.058 -22.655   8.115  1.00 71.32 LIG 0.01  C 
ENDBRANCH 18 20
ENDBRANCH 16 18
ENDBRANCH 13 16
ENDBRANCH 6 12
ENDBRANCH 4 6
ENDBRANCH 1 2
BRANCH 1 22
ATOM     22  CB  SER G  14      50.023 -16.780   9.027  1.00 46.99 LIG 0.20  C 
BRANCH 22 23
ATOM     23 OG   SER G  14      50.172 -18.139   8.654  1.00 54.54 LIG-0.40  OA
ATOM     24 HG   SER G  14      49.621 -18.608   9.080  1.00 54.54 LIG 0.21  HD
ENDBRANCH 22 23
ENDBRANCH 1 22
BRANCH 1 25
ATOM     25  C   SER G  14      50.590 -14.943  10.615  1.00 46.83 LIG 0.24  C 
ATOM     26 O    SER G  14      49.705 -14.679  11.417  1.00 45.69 LIG-0.27  OA
ATOM     27  N   ASP G  15      51.291 -14.010   9.990  1.00 44.02 LIG-0.34  N 
ATOM     28 H    ASP G  15      51.899 -14.200   9.412  1.00 44.02 LIG 0.16  HD
BRANCH 27 29
ATOM     29  CA  ASP G  15      51.127 -12.569  10.195  1.00 44.06 LIG 0.19  C 
BRANCH 29 30
ATOM     30  C   ASP G  15      50.223 -11.957   9.122  1.00 44.73 LIG 0.24  C 
ATOM     31 O    ASP G  15      50.435 -12.181   7.934  1.00 45.25 LIG-0.27  OA
ATOM     32  N   VAL G  16      49.218 -11.192   9.545  1.00 39.33 LIG-0.34  N 
ATOM     33 H    VAL G  16      49.062 -11.031  10.376  1.00 39.33 LIG 0.16  HD
BRANCH 32 34
ATOM     34  CA  VAL G  16      48.279 -10.548   8.632  1.00 42.56 LIG 0.19  C 
BRANCH 34 35
ATOM     35  C   VAL G  16      48.362  -9.001   8.697  1.00 36.49 LIG 0.20  C 
ATOM     36 OXT  VAL G  16      47.737  -8.338   7.872  1.00 48.65 LIG-0.65  OA
ATOM     37 O    VAL G  16      49.063  -8.464   9.576  1.00 44.52 LIG-0.65  OA
ENDBRANCH 34 35
BRANCH 34 38
ATOM     38  CB  VAL G  16      46.825 -11.108   8.771  1.00 46.62 LIG 0.01  C 
ATOM     39  CG1 VAL G  16      46.708 -12.507   8.157  1.00 46.76 LIG 0.01  C 
ATOM     40  CG2 VAL G  16      46.374 -11.133  10.225  1.00 45.99 LIG 0.01  C 
ENDBRANCH 34 38
ENDBRANCH 32 34
ENDBRANCH 29 30
BRANCH 29 41
ATOM     41  CB  ASP G  15      52.503 -11.863  10.252  1.00 46.49 LIG 0.15  C 
BRANCH 41 42
ATOM     42  CG  ASP G  15      53.471 -12.263   9.157  1.00 64.67 LIG 0.17  C 
ATOM     43 OD1  ASP G  15      53.838 -13.464   9.097  1.00 66.12 LIG-0.65  OA
ATOM     44 OD2  ASP G  15      53.890 -11.370   8.379  1.00 71.61 LIG-0.65  OA
ENDBRANCH 41 42
ENDBRANCH 29 41
ENDBRANCH 27 29
ENDBRANCH 1 25
TORSDOF 19
