USER: ADFR SOLUTION from run 0
USER: SCORE 9.911659 LL:  -1.584 LR: -10.032 RR:   0.000 FEB:  -7.049
USER: RMSD 0.813628
USER: STATUS Locally minimized using BFGS
USER: GENES 12
USER: genes 0 Translation |==|  0.35830 0.57798 0.54363
USER: genes 1 Rotation |==|  0.47239 0.49169 0.47031 0.99828
USER: genes 2 Torsion [C]-N--CA-[CB] |==|  0.35983
USER: genes 3 Torsion [N]-CA--CB-[CG2] |==|  0.22808
USER: genes 4 Torsion [CA]-CB--CG1-[CD1] |==|  0.21458
USER: genes 5 Torsion [N]-CA--C-[N] |==|  0.42453
USER: genes 6 Torsion [C]-N--CA-[CB] |==|  0.46286
USER: genes 7 Torsion [N]-CA--C-[O] |==|  0.33264
USER: genes 8 Torsion [N]-C--CA-[N] |==|  0.44353
USER: genes 9 Torsion [C]-CA--N-[H1] |==|  0.54349
USER: genes 10 Torsion [C]-CA--CB-[CG] |==|  0.48511
USER: genes 11 Torsion [CA]-CB--CG-[CD2] |==|  0.23933
ROOT
ATOM      1  C   HIS B   1      27.123  11.273  -7.023  1.00 77.53 LIG 0.25  C 
ATOM      2 O    HIS B   1      27.453  12.373  -6.587  1.00 77.48 LIG-0.27  OA
ATOM      3  N   ILE B   2      27.195  10.155  -6.309  1.00 78.06 LIG-0.35  N 
ATOM      4 H    ILE B   2      26.971   9.380  -6.608  1.00 78.06 LIG 0.16  HD
ENDROOT
BRANCH 3 5
ATOM      5  CA  ILE B   2      27.670  10.152  -4.930  1.00 78.69 LIG 0.18  C 
BRANCH 5 6
ATOM      6  CB  ILE B   2      26.676   9.398  -3.993  1.00 78.71 LIG 0.01  C 
ATOM      7  CG2 ILE B   2      26.885   7.877  -4.042  1.00 78.95 LIG 0.01  C 
BRANCH 6 8
ATOM      8  CG1 ILE B   2      26.730   9.963  -2.570  1.00 78.88 LIG 0.00  C 
ATOM      9  CD1 ILE B   2      25.988  11.286  -2.404  1.00 79.16 LIG 0.01  C 
ENDBRANCH 6 8
ENDBRANCH 5 6
BRANCH 5 10
ATOM     10  C   ILE B   2      29.095   9.592  -4.843  1.00 79.02 LIG 0.24  C 
ATOM     11 O    ILE B   2      29.505   8.797  -5.694  1.00 79.18 LIG-0.27  OA
ATOM     12  N   ALA B   3      29.842  10.023  -3.825  1.00 79.42 LIG-0.35  N 
ATOM     13 H    ALA B   3      29.546  10.551  -3.214  1.00 79.42 LIG 0.16  HD
BRANCH 12 14
ATOM     14  CA  ALA B   3      31.247   9.640  -3.646  1.00 79.64 LIG 0.16  C 
ATOM     15  CB  ALA B   3      31.908  10.536  -2.606  1.00 79.64 LIG 0.04  C 
BRANCH 14 16
ATOM     16  C   ALA B   3      31.428   8.166  -3.272  1.00 79.83 LIG 0.22  C 
ATOM     17 O    ALA B   3      32.079   7.408  -3.999  1.00 80.02 LIG-0.29  OA
ENDBRANCH 14 16
ENDBRANCH 12 14
ENDBRANCH 5 10
ENDBRANCH 3 5
BRANCH 1 18
ATOM     18  CA  HIS B   1      26.599  11.130  -8.441  1.00 77.18 LIG 0.28  C 
BRANCH 18 19
ATOM     19  N   HIS B   1      26.106  12.435  -8.966  1.00 77.06 LIG-0.07  N 
ATOM     20 H1   HIS B   1      25.605  12.294  -9.689  1.00 77.06 LIG 0.28  HD
ATOM     21 H2   HIS B   1      25.618  12.841  -8.342  1.00 77.06 LIG 0.28  HD
ATOM     22 H3   HIS B   1      26.799  12.949  -9.182  1.00 77.06 LIG 0.28  HD
ENDBRANCH 18 19
BRANCH 18 23
ATOM     23  CB  HIS B   1      27.680  10.552  -9.357  1.00 76.99 LIG 0.10  C 
BRANCH 23 24
ATOM     24  CG  HIS B   1      27.199  10.262 -10.744  1.00 76.37 LIG 0.06  A 
ATOM     25 ND1  HIS B   1      26.716   9.029 -11.121  1.00 75.55 LIG-0.24  NA
ATOM     26  CE1 HIS B   1      26.357   9.069 -12.392  1.00 75.32 LIG 0.23  A 
ATOM     27 NE2  HIS B   1      26.587  10.286 -12.851  1.00 75.43 LIG-0.25  NA
ATOM     28  CD2 HIS B   1      27.111  11.053 -11.839  1.00 75.70 LIG 0.14  A 
ENDBRANCH 23 24
ENDBRANCH 18 23
ENDBRANCH 1 18
TORSDOF 10
