USER: ADFR SOLUTION from run 0
USER: SCORE 14.047335 LL:  -0.928 LR: -13.244 RR:   0.000 FEB:  -9.664
USER: RMSD 0.760445
USER: STATUS Locally minimized using BFGS
USER: GENES 14
USER: genes 0 Translation |==|  0.58307 0.48382 0.62426
USER: genes 1 Rotation |==|  0.50812 0.51741 0.51218 0.99948
USER: genes 2 Torsion [N]-CA--C-[N] |==|  0.43396
USER: genes 3 Torsion [C]-N--CA-[C] |==|  0.75000
USER: genes 4 Torsion [N]-CA--C-[N] |==|  0.32683
USER: genes 5 Torsion [C]-N--CA-[CB] |==|  0.35251
USER: genes 6 Torsion [N]-CA--C-[O] |==|  0.95996
USER: genes 7 Torsion [N]-CA--CB-[CG] |==|  0.50022
USER: genes 8 Torsion [CA]-CB--CG-[OD2] |==|  0.54846
USER: genes 9 Torsion [C]-CA--CB-[CG] |==|  0.55178
USER: genes 10 Torsion [CA]-CB--CG-[CD] |==|  0.81214
USER: genes 11 Torsion [CB]-CG--CD-[NE] |==|  0.51004
USER: genes 12 Torsion [CG]-CD--NE-[HE] |==|  0.31588
USER: genes 13 Torsion [C]-CA--N-[H3] |==|  0.18622
ROOT
ATOM      1  CA  ARG X   1     -40.200  13.407  -6.270  1.00 44.42 LIG 0.27  C 
ENDROOT
BRANCH 1 2
ATOM      2  C   ARG X   1     -40.478  12.024  -6.855  1.00 44.91 LIG 0.25  C 
ATOM      3 O    ARG X   1     -39.646  11.120  -6.746  1.00 44.76 LIG-0.27  OA
ATOM      4  N   ASP X   2     -41.650  11.860  -7.468  1.00 45.46 LIG-0.34  N 
ATOM      5 H    ASP X   2     -42.271  12.455  -7.480  1.00 45.46 LIG 0.16  HD
BRANCH 4 6
ATOM      6  CA  ASP X   2     -41.981  10.628  -8.186  1.00 46.23 LIG 0.19  C 
BRANCH 6 7
ATOM      7  C   ASP X   2     -41.556  10.710  -9.658  1.00 46.82 LIG 0.24  C 
ATOM      8  N   ALA X   3     -40.639   9.822 -10.045  1.00 47.39 LIG-0.35  N 
ATOM      9 H    ALA X   3     -40.301   9.233  -9.518  1.00 47.39 LIG 0.16  HD
ATOM     10 O    ASP X   2     -42.053  11.549 -10.415  1.00 46.73 LIG-0.27  OA
BRANCH 8 11
ATOM     11  CA  ALA X   3     -40.113   9.763 -11.408  1.00 47.83 LIG 0.16  C 
ATOM     12  CB  ALA X   3     -38.591   9.815 -11.391  1.00 47.95 LIG 0.04  C 
BRANCH 11 13
ATOM     13  C   ALA X   3     -40.604   8.525 -12.166  1.00 48.01 LIG 0.22  C 
ATOM     14 O    ALA X   3     -41.132   7.581 -11.571  1.00 47.84 LIG-0.29  OA
ENDBRANCH 11 13
ENDBRANCH 8 11
ENDBRANCH 6 7
BRANCH 6 15
ATOM     15  CB  ASP X   2     -43.478  10.315  -8.060  1.00 46.29 LIG 0.15  C 
BRANCH 15 16
ATOM     16  CG  ASP X   2     -43.888   9.034  -8.790  1.00 46.38 LIG 0.17  C 
ATOM     17 OD1  ASP X   2     -43.024   8.197  -9.127  1.00 47.16 LIG-0.65  OA
ATOM     18 OD2  ASP X   2     -45.094   8.860  -9.035  1.00 46.37 LIG-0.65  OA
ENDBRANCH 15 16
ENDBRANCH 6 15
ENDBRANCH 4 6
ENDBRANCH 1 2
BRANCH 1 19
ATOM     19  CB  ARG X   1     -39.721  14.365  -7.378  1.00 44.35 LIG 0.04  C 
BRANCH 19 20
ATOM     20  CG  ARG X   1     -38.989  15.628  -6.909  1.00 42.92 LIG 0.02  C 
BRANCH 20 21
ATOM     21  CD  ARG X   1     -39.909  16.585  -6.164  1.00 41.32 LIG 0.14  C 
BRANCH 21 22
ATOM     22  NE  ARG X   1     -39.233  17.829  -5.790  1.00 39.81 LIG-0.23  N 
ATOM     23 HE   ARG X   1     -39.502  18.554  -6.167  1.00 39.81 LIG 0.18  HD
ATOM     24  CZ  ARG X   1     -38.235  17.929  -4.915  1.00 39.75 LIG 0.67  C 
ATOM     25  NH1 ARG X   1     -37.758  16.852  -4.288  1.00 38.76 LIG-0.23  N 
ATOM     26  NH2 ARG X   1     -37.708  19.119  -4.663  1.00 38.02 LIG-0.23  N 
ATOM     27 1HH1 ARG X   1     -38.096  16.077  -4.447  1.00 38.76 LIG 0.17  HD
ATOM     28 2HH1 ARG X   1     -37.113  16.932  -3.726  1.00 38.76 LIG 0.17  HD
ATOM     29 1HH2 ARG X   1     -38.011  19.816  -5.063  1.00 38.02 LIG 0.17  HD
ATOM     30 2HH2 ARG X   1     -37.063  19.192  -4.099  1.00 38.02 LIG 0.17  HD
ENDBRANCH 21 22
ENDBRANCH 20 21
ENDBRANCH 19 20
ENDBRANCH 1 19
BRANCH 1 31
ATOM     31  N   ARG X   1     -39.196  13.327  -5.167  1.00 44.45 LIG-0.07  N 
ATOM     32 H3   ARG X   1     -38.406  13.089  -5.502  1.00 44.45 LIG 0.28  HD
ATOM     33 H2   ARG X   1     -39.459  12.722  -4.569  1.00 44.45 LIG 0.28  HD
ATOM     34 H1   ARG X   1     -39.124  14.122  -4.773  1.00 44.45 LIG 0.28  HD
ENDBRANCH 1 31
TORSDOF 12
