USER: ADFR SOLUTION from run 0
USER: SCORE 13.092047 LL:  -1.013 LR: -13.784 RR:   0.000 FEB: -10.204
USER: RMSD 0.870177
USER: STATUS Locally minimized using BFGS
USER: GENES 14
USER: genes 0 Translation |==|  0.56046 0.45110 0.44030
USER: genes 1 Rotation |==|  0.48610 0.50352 0.49795 0.99979
USER: genes 2 Torsion [CB]-CA--N-[H2] |==|  0.44294
USER: genes 3 Torsion [N]-CA--CB-[CG] |==|  0.81656
USER: genes 4 Torsion [CA]-CB--CG-[CD] |==|  0.39494
USER: genes 5 Torsion [CB]-CG--CD-[NE] |==|  0.52923
USER: genes 6 Torsion [CG]-CD--NE-[HE] |==|  0.71589
USER: genes 7 Torsion [N]-CA--C-[N] |==|  0.39767
USER: genes 8 Torsion [C]-N--CA-[CB] |==|  0.32298
USER: genes 9 Torsion [N]-CA--CB-[CG] |==|  0.56281
USER: genes 10 Torsion [CA]-CB--CG-[CD1] |==|  0.73291
USER: genes 11 Torsion [N]-CA--C-[N] |==|  0.29949
USER: genes 12 Torsion [C]-N--CA-[C] |==|  0.60395
USER: genes 13 Torsion [N]-CA--C-[O] |==|  0.07182
ROOT
ATOM      1  CA  ARG E   1      42.459 -17.364   6.491  1.00 58.91 LIG 0.27  C 
ENDROOT
BRANCH 1 2
ATOM      2  N   ARG E   1      43.376 -18.139   5.619  1.00 58.46 LIG-0.07  N 
ATOM      3 H2   ARG E   1      42.958 -18.352   4.863  1.00 58.46 LIG 0.28  HD
ATOM      4 H1   ARG E   1      43.627 -18.883   6.039  1.00 58.46 LIG 0.28  HD
ATOM      5 H3   ARG E   1      44.094 -17.648   5.432  1.00 58.46 LIG 0.28  HD
ENDBRANCH 1 2
BRANCH 1 6
ATOM      6  CB  ARG E   1      42.921 -17.414   7.948  1.00 58.69 LIG 0.04  C 
BRANCH 6 7
ATOM      7  CG  ARG E   1      42.835 -18.803   8.551  1.00 58.59 LIG 0.02  C 
BRANCH 7 8
ATOM      8  CD  ARG E   1      44.006 -19.050   9.462  1.00 58.62 LIG 0.14  C 
BRANCH 8 9
ATOM      9  NE  ARG E   1      44.135 -20.442   9.895  1.00 56.95 LIG-0.23  N 
ATOM     10  CZ  ARG E   1      44.628 -21.432   9.156  1.00 57.03 LIG 0.67  C 
ATOM     11  NH2 ARG E   1      44.720 -22.644   9.680  1.00 56.92 LIG-0.23  N 
ATOM     12  NH1 ARG E   1      45.020 -21.228   7.901  1.00 56.49 LIG-0.23  N 
ATOM     13 2HH2 ARG E   1      45.037 -23.292   9.211  1.00 56.92 LIG 0.17  HD
ATOM     14 1HH2 ARG E   1      44.462 -22.784  10.489  1.00 56.92 LIG 0.17  HD
ATOM     15 1HH1 ARG E   1      44.957 -20.445   7.553  1.00 56.49 LIG 0.17  HD
ATOM     16 2HH1 ARG E   1      45.337 -21.880   7.438  1.00 56.49 LIG 0.17  HD
ATOM     17 HE   ARG E   1      43.871 -20.635  10.690  1.00 56.95 LIG 0.18  HD
ENDBRANCH 8 9
ENDBRANCH 7 8
ENDBRANCH 6 7
ENDBRANCH 1 6
BRANCH 1 18
ATOM     18  C   ARG E   1      42.318 -15.930   6.017  1.00 59.32 LIG 0.25  C 
ATOM     19  N   LEU E   2      41.108 -15.395   6.148  1.00 59.84 LIG-0.35  N 
ATOM     20 H    LEU E   2      40.452 -15.787   6.542  1.00 59.84 LIG 0.16  HD
ATOM     21 O    ARG E   1      43.283 -15.322   5.557  1.00 59.24 LIG-0.27  OA
BRANCH 19 22
ATOM     22  CA  LEU E   2      40.790 -14.078   5.622  1.00 60.66 LIG 0.18  C 
BRANCH 22 23
ATOM     23  CB  LEU E   2      39.721 -14.208   4.529  1.00 60.80 LIG 0.04  C 
BRANCH 23 24
ATOM     24  CG  LEU E   2      39.529 -13.139   3.446  1.00 61.28 LIG-0.02  C 
ATOM     25  CD1 LEU E   2      38.417 -12.167   3.827  1.00 62.19 LIG 0.01  C 
ATOM     26  CD2 LEU E   2      40.831 -12.417   3.108  1.00 61.48 LIG 0.01  C 
ENDBRANCH 23 24
ENDBRANCH 22 23
BRANCH 22 27
ATOM     27  C   LEU E   2      40.341 -13.124   6.727  1.00 61.14 LIG 0.24  C 
ATOM     28 O    LEU E   2      39.235 -13.252   7.259  1.00 61.18 LIG-0.27  OA
ATOM     29  N   GLY E   3      41.210 -12.168   7.060  1.00 61.67 LIG-0.35  N 
ATOM     30 H    GLY E   3      41.970 -12.062   6.672  1.00 61.67 LIG 0.16  HD
BRANCH 29 31
ATOM     31  CA  GLY E   3      40.946 -11.197   8.126  1.00 62.18 LIG 0.21  C 
BRANCH 31 32
ATOM     32  C   GLY E   3      41.454  -9.793   7.838  1.00 62.54 LIG 0.21  C 
ATOM     33 O    GLY E   3      41.598  -9.383   6.681  1.00 62.83 LIG-0.29  OA
ENDBRANCH 31 32
ENDBRANCH 29 31
ENDBRANCH 22 27
ENDBRANCH 19 22
ENDBRANCH 1 18
TORSDOF 12
