USER: ADFR SOLUTION from run 0
USER: SCORE 11.338480 LL:  -2.990 LR: -11.089 RR:   0.000 FEB:  -4.228
USER: RMSD 1.113907
USER: STATUS Locally minimized using BFGS
USER: GENES 25
USER: genes 0 Translation |==|  0.46182 0.60226 0.48864
USER: genes 1 Rotation |==|  0.49395 0.48921 0.50727 0.99979
USER: genes 2 Torsion [C]-CA--CB-[CG] |==|  0.16349
USER: genes 3 Torsion [CA]-CB--CG-[CD] |==|  0.57143
USER: genes 4 Torsion [CB]-CG--CD-[NE] |==|  0.20422
USER: genes 5 Torsion [CG]-CD--NE-[HE] |==|  0.80620
USER: genes 6 Torsion [N]-CA--C-[N] |==|  0.41367
USER: genes 7 Torsion [C]-N--CA-[C] |==|  0.76277
USER: genes 8 Torsion [N]-CA--C-[N] |==|  0.40679
USER: genes 9 Torsion [C]-N--CA-[CB] |==|  0.46595
USER: genes 10 Torsion [N]-CA--CB-[CG] |==|  0.88964
USER: genes 11 Torsion [CA]-CB--CG-[CD] |==|  0.61571
USER: genes 12 Torsion [CB]-CG--CD-[CE] |==|  0.46552
USER: genes 13 Torsion [CG]-CD--CE-[NZ] |==|  0.55176
USER: genes 14 Torsion [CD]-CE--NZ-[HZ2] |==|  0.83334
USER: genes 15 Torsion [N]-CA--C-[N] |==|  0.91048
USER: genes 16 Torsion [C]-N--CA-[C] |==|  0.56865
USER: genes 17 Torsion [N]-CA--C-[O] |==|  0.65265
USER: genes 18 Torsion [N]-CA--CB-[OG] |==|  0.12779
USER: genes 19 Torsion [CA]-CB--OG-[HG] |==|  0.49977
USER: genes 20 Torsion [CB]-CA--N-[C] |==|  0.30000
USER: genes 21 Torsion [N]-C--CA-[N] |==|  0.49856
USER: genes 22 Torsion [C]-CA--CB-[CG] |==|  0.50872
USER: genes 23 Torsion [CA]-CB--CG-[CD1] |==|  0.82853
USER: genes 24 Torsion [C]-CA--N-[H2] |==|  0.82217
ROOT
ATOM      1  CA  ARG D   2     -12.394  -0.734  11.707  1.00 39.33 LIG 0.18  C 
ENDROOT
BRANCH 1 2
ATOM      2  CB  ARG D   2     -13.566  -0.444  10.786  1.00 35.05 LIG 0.04  C 
BRANCH 2 3
ATOM      3  CG  ARG D   2     -14.862  -0.990  11.321  1.00 57.88 LIG 0.02  C 
BRANCH 3 4
ATOM      4  CD  ARG D   2     -15.852  -1.268  10.207  1.00 90.52 LIG 0.14  C 
BRANCH 4 5
ATOM      5  NE  ARG D   2     -15.490  -2.456   9.434  1.00 84.14 LIG-0.23  N 
ATOM      6 HE   ARG D   2     -14.794  -2.409   8.931  1.00 84.14 LIG 0.18  HD
ATOM      7  CZ  ARG D   2     -16.162  -3.606   9.454  1.00 83.97 LIG 0.67  C 
ATOM      8  NH2 ARG D   2     -15.745  -4.627   8.714  1.00 60.39 LIG-0.23  N 
ATOM      9  NH1 ARG D   2     -17.254  -3.738  10.200  1.00 80.72 LIG-0.23  N 
ATOM     10 1HH2 ARG D   2     -15.043  -4.544   8.224  1.00 60.39 LIG 0.17  HD
ATOM     11 2HH2 ARG D   2     -16.177  -5.370   8.724  1.00 60.39 LIG 0.17  HD
ATOM     12 2HH1 ARG D   2     -17.683  -4.483  10.208  1.00 80.72 LIG 0.17  HD
ATOM     13 1HH1 ARG D   2     -17.531  -3.078  10.676  1.00 80.72 LIG 0.17  HD
ENDBRANCH 4 5
ENDBRANCH 3 4
ENDBRANCH 2 3
ENDBRANCH 1 2
BRANCH 1 14
ATOM     14  C   ARG D   2     -12.255  -2.230  11.896  1.00 29.38 LIG 0.24  C 
ATOM     15 O    ARG D   2     -11.565  -2.899  11.130  1.00 21.44 LIG-0.27  OA
ATOM     16  N   SER D   3     -12.910  -2.763  12.917  1.00 29.93 LIG-0.34  N 
ATOM     17 H    SER D   3     -13.353  -2.318  13.504  1.00 29.93 LIG 0.16  HD
BRANCH 16 18
ATOM     18  CA  SER D   3     -12.908  -4.207  13.099  1.00 48.61 LIG 0.20  C 
BRANCH 18 19
ATOM     19  C   SER D   3     -14.015  -4.819  12.262  1.00 58.83 LIG 0.24  C 
ATOM     20  N   LYS D   4     -13.770  -6.022  11.757  1.00 77.18 LIG-0.35  N 
ATOM     21 H    LYS D   4     -13.020  -6.436  11.834  1.00 77.18 LIG 0.16  HD
ATOM     22 O    SER D   3     -15.061  -4.204  12.059  1.00 53.61 LIG-0.27  OA
BRANCH 20 23
ATOM     23  CA  LYS D   4     -14.791  -6.746  11.013  1.00 70.35 LIG 0.18  C 
BRANCH 23 24
ATOM     24  CB  LYS D   4     -14.183  -7.949  10.287  1.00 80.12 LIG 0.04  C 
BRANCH 24 25
ATOM     25  CG  LYS D   4     -12.817  -7.662   9.679  1.00 84.36 LIG 0.00  C 
BRANCH 25 26
ATOM     26  CD  LYS D   4     -12.657  -8.262   8.296  1.00102.13 LIG 0.03  C 
BRANCH 26 27
ATOM     27  CE  LYS D   4     -11.418  -7.704   7.606  1.00 86.00 LIG 0.23  C 
BRANCH 27 28
ATOM     28  NZ  LYS D   4     -11.458  -7.906   6.132  1.00 85.97 LIG-0.08  N 
ATOM     29 HZ3  LYS D   4     -12.172  -7.493   5.796  1.00 85.97 LIG 0.27  HD
ATOM     30 HZ2  LYS D   4     -11.506  -8.775   5.953  1.00 85.97 LIG 0.27  HD
ATOM     31 HZ1  LYS D   4     -10.720  -7.568   5.767  1.00 85.97 LIG 0.27  HD
ENDBRANCH 27 28
ENDBRANCH 26 27
ENDBRANCH 25 26
ENDBRANCH 24 25
ENDBRANCH 23 24
BRANCH 23 32
ATOM     32  C   LYS D   4     -15.855  -7.193  12.002  1.00 69.25 LIG 0.24  C 
ATOM     33 O    LYS D   4     -17.039  -7.265  11.670  1.00 74.50 LIG-0.27  OA
ATOM     34  N   GLY D   5     -15.422  -7.475  13.227  1.00 72.69 LIG-0.35  N 
ATOM     35 H    GLY D   5     -14.593  -7.458  13.456  1.00 72.69 LIG 0.16  HD
BRANCH 34 36
ATOM     36  CA  GLY D   5     -16.327  -7.840  14.301  1.00 67.28 LIG 0.21  C 
BRANCH 36 37
ATOM     37  C   GLY D   5     -15.738  -7.532  15.663  1.00 69.64 LIG 0.21  C 
ATOM     38 O    GLY D   5     -15.644  -8.410  16.523  1.00 73.82 LIG-0.29  OA
ENDBRANCH 36 37
ENDBRANCH 34 36
ENDBRANCH 23 32
ENDBRANCH 20 23
ENDBRANCH 18 19
BRANCH 18 39
ATOM     39  CB  SER D   3     -13.099  -4.558  14.565  1.00 47.59 LIG 0.20  C 
BRANCH 39 40
ATOM     40 OG   SER D   3     -14.151  -3.791  15.115  1.00 55.88 LIG-0.40  OA
ATOM     41 HG   SER D   3     -14.251  -3.992  15.925  1.00 55.88 LIG 0.21  HD
ENDBRANCH 39 40
ENDBRANCH 18 39
ENDBRANCH 16 18
ENDBRANCH 1 14
BRANCH 1 42
ATOM     42  N   ARG D   2     -11.184  -0.201  11.127  1.00 24.62 LIG-0.35  N 
ATOM     43 H    ARG D   2     -10.892  -0.631  10.442  1.00 24.62 LIG 0.16  HD
ATOM     44  C   PHE D   1     -10.603   0.867  11.639  1.00 23.06 LIG 0.25  C 
ATOM     45 O    PHE D   1     -11.039   1.459  12.622  1.00 27.40 LIG-0.27  OA
BRANCH 44 46
ATOM     46  CA  PHE D   1      -9.395   1.402  10.882  1.00 18.76 LIG 0.28  C 
BRANCH 46 47
ATOM     47  CB  PHE D   1      -8.286   0.371  10.685  1.00 12.58 LIG 0.08  C 
BRANCH 47 48
ATOM     48  CG  PHE D   1      -7.066   0.944   9.997  1.00 17.06 LIG-0.06  A 
ATOM     49  CD1 PHE D   1      -7.157   1.460   8.707  1.00 22.27 LIG 0.01  A 
ATOM     50  CE1 PHE D   1      -6.036   2.012   8.073  1.00 15.67 LIG 0.00  A 
ATOM     51  CZ  PHE D   1      -4.809   2.041   8.734  1.00 13.83 LIG 0.00  A 
ATOM     52  CE2 PHE D   1      -4.713   1.540  10.019  1.00 20.38 LIG 0.00  A 
ATOM     53  CD2 PHE D   1      -5.838   0.998  10.651  1.00 21.07 LIG 0.01  A 
ENDBRANCH 47 48
ENDBRANCH 46 47
BRANCH 46 54
ATOM     54  N   PHE D   1      -8.867   2.602  11.572  1.00 21.45 LIG-0.07  N 
ATOM     55 H2   PHE D   1      -9.478   3.249  11.552  1.00 21.45 LIG 0.28  HD
ATOM     56 H3   PHE D   1      -8.678   2.399  12.418  1.00 21.45 LIG 0.28  HD
ATOM     57 H1   PHE D   1      -8.127   2.879  11.162  1.00 21.45 LIG 0.28  HD
ENDBRANCH 46 54
ENDBRANCH 44 46
ENDBRANCH 1 42
TORSDOF 23
