USER: ADFR SOLUTION from run 0
USER: SCORE 14.796238 LL:  -4.268 LR: -12.588 RR:   0.000 FEB:  -6.324
USER: RMSD 0.793964
USER: STATUS Locally minimized using BFGS
USER: GENES 23
USER: genes 0 Translation |==|  0.61957 0.48683 0.53914
USER: genes 1 Rotation |==|  0.51142 0.50815 0.49653 0.99979
USER: genes 2 Torsion [N]-CA--C-[N] |==|  0.39462
USER: genes 3 Torsion [C]-N--CA-[C] |==|  0.62798
USER: genes 4 Torsion [N]-CA--C-[N] |==|  0.41111
USER: genes 5 Torsion [C]-N--CA-[CB] |==|  0.28313
USER: genes 6 Torsion [N]-CA--C-[N] |==|  0.41274
USER: genes 7 Torsion [N]-CA--C-[OXT] |==|  0.71740
USER: genes 8 Torsion [N]-CA--CB-[OG] |==|  0.89969
USER: genes 9 Torsion [CA]-CB--OG-[HG] |==|  0.49651
USER: genes 10 Torsion [N]-CA--CB-[CG2] |==|  0.93366
USER: genes 11 Torsion [CA]-CB--CG1-[CD1] |==|  0.43061
USER: genes 12 Torsion [N]-C--CA-[N] |==|  0.22989
USER: genes 13 Torsion [C]-CA--CB-[CG] |==|  0.26111
USER: genes 14 Torsion [CA]-CB--CG-[CD1] |==|  0.93909
USER: genes 15 Torsion [C]-CA--N-[C] |==|  0.65401
USER: genes 16 Torsion [N]-C--CA-[N] |==|  0.30829
USER: genes 17 Torsion [C]-CA--CB-[CG] |==|  0.46077
USER: genes 18 Torsion [CA]-CB--CG-[OD1] |==|  0.82319
USER: genes 19 Torsion [C]-CA--N-[C] |==|  0.61023
USER: genes 20 Torsion [N]-C--CA-[N] |==|  0.49576
USER: genes 21 Torsion [C]-CA--CB-[CG] |==|  0.21792
USER: genes 22 Torsion [CA]-CB--CG-[CD2] |==|  0.45357
ROOT
ATOM      1  C   PHE C 305      16.441   6.515   0.519  0.50 34.66 LIG 0.24  C 
ATOM      2 O    PHE C 305      17.116   5.654  -0.039  0.50 33.80 LIG-0.27  OA
ATOM      3  N   PRO C 306      15.346   6.212   1.243  0.50 35.29 LIG-0.34  N 
ATOM      4  CA  PRO C 306      14.646   4.962   0.992  0.50 35.79 LIG 0.18  C 
ATOM      5  CB  PRO C 306      14.077   4.589   2.380  0.50 35.80 LIG 0.04  C 
ATOM      6  CG  PRO C 306      14.374   5.787   3.288  0.50 35.25 LIG 0.02  C 
ATOM      7  CD  PRO C 306      14.745   6.927   2.379  0.50 35.51 LIG 0.13  C 
ENDROOT
BRANCH 4 8
ATOM      8  C   PRO C 306      13.485   5.190   0.021  0.50 36.50 LIG 0.24  C 
ATOM      9  N   ILE C 307      13.271   4.214  -0.876  0.50 37.01 LIG-0.35  N 
ATOM     10 H    ILE C 307      13.767   3.519  -0.975  0.50 37.01 LIG 0.16  HD
ATOM     11 O    PRO C 306      12.794   6.230   0.099  0.50 36.74 LIG-0.27  OA
BRANCH 9 12
ATOM     12  CA  ILE C 307      12.119   4.291  -1.777  0.50 37.44 LIG 0.18  C 
BRANCH 12 13
ATOM     13  C   ILE C 307      11.352   2.970  -1.867  0.50 38.23 LIG 0.24  C 
ATOM     14  N   SER C 308      10.044   3.096  -2.068  0.50 38.91 LIG-0.34  N 
ATOM     15 H    SER C 308       9.634   3.851  -2.023  0.50 38.91 LIG 0.16  HD
ATOM     16 O    ILE C 307      11.933   1.880  -1.767  0.50 38.79 LIG-0.27  OA
BRANCH 14 17
ATOM     17  CA  SER C 308       9.162   1.976  -2.385  0.50 39.43 LIG 0.20  C 
BRANCH 17 18
ATOM     18  C   SER C 308       8.215   2.484  -3.475  0.50 39.77 LIG 0.24  C 
ATOM     19  N   PRO C 309       7.771   1.590  -4.376  0.50 40.03 LIG-0.34  N 
ATOM     20  CD  PRO C 309       7.773   0.122  -4.271  0.50 39.83 LIG 0.13  C 
ATOM     21  CA  PRO C 309       7.157   2.049  -5.624  0.50 40.09 LIG 0.19  C 
ATOM     22  CG  PRO C 309       7.542  -0.315  -5.684  0.50 40.19 LIG 0.02  C 
ATOM     23  CB  PRO C 309       6.667   0.748  -6.274  0.50 40.09 LIG 0.04  C 
ATOM     24 O    SER C 308       7.870   3.669  -3.497  0.50 39.81 LIG-0.27  OA
BRANCH 21 25
ATOM     25  C   PRO C 309       6.004   3.029  -5.407  0.50 40.04 LIG 0.20  C 
ATOM     26 OXT  PRO C 309       4.827   2.668  -5.491  0.50 40.10 LIG-0.65  OA
ATOM     27 O    PRO C 309       6.224   4.215  -5.154  0.50 40.34 LIG-0.65  OA
ENDBRANCH 21 25
ENDBRANCH 17 18
BRANCH 17 28
ATOM     28  CB  SER C 308       8.372   1.535  -1.151  0.50 39.49 LIG 0.20  C 
BRANCH 28 29
ATOM     29 OG   SER C 308       9.151   1.645   0.031  0.50 39.70 LIG-0.40  OA
ATOM     30 HG   SER C 308       8.690   1.414   0.694  0.50 39.70 LIG 0.21  HD
ENDBRANCH 28 29
ENDBRANCH 17 28
ENDBRANCH 14 17
ENDBRANCH 12 13
BRANCH 12 31
ATOM     31  CB  ILE C 307      12.522   4.703  -3.214  0.50 37.20 LIG 0.01  C 
ATOM     32  CG2 ILE C 307      13.849   5.477  -3.210  0.50 36.86 LIG 0.01  C 
BRANCH 31 33
ATOM     33  CG1 ILE C 307      12.556   3.456  -4.114  0.50 35.88 LIG 0.00  C 
ATOM     34  CD1 ILE C 307      12.347   3.714  -5.587  0.50 32.01 LIG 0.01  C 
ENDBRANCH 31 33
ENDBRANCH 12 31
ENDBRANCH 9 12
ENDBRANCH 4 8
BRANCH 1 35
ATOM     35  CA  PHE C 305      16.863   7.987   0.432  0.50 34.47 LIG 0.18  C 
BRANCH 35 36
ATOM     36  CB  PHE C 305      17.689   8.153  -0.852  0.50 34.49 LIG 0.07  C 
BRANCH 36 37
ATOM     37  CG  PHE C 305      16.900   8.602  -2.071  0.50 35.55 LIG-0.06  A 
ATOM     38  CD1 PHE C 305      15.521   8.419  -2.164  0.50 36.28 LIG 0.01  A 
ATOM     39  CE1 PHE C 305      14.817   8.845  -3.294  0.50 36.66 LIG 0.00  A 
ATOM     40  CZ  PHE C 305      15.496   9.450  -4.356  0.50 36.87 LIG 0.00  A 
ATOM     41  CE2 PHE C 305      16.865   9.634  -4.281  0.50 36.76 LIG 0.00  A 
ATOM     42  CD2 PHE C 305      17.565   9.202  -3.143  0.50 36.02 LIG 0.01  A 
ENDBRANCH 36 37
ENDBRANCH 35 36
BRANCH 35 43
ATOM     43  N   PHE C 305      17.656   8.470   1.569  0.50 33.54 LIG-0.35  N 
ATOM     44 H    PHE C 305      18.368   8.014   1.731  0.50 33.54 LIG 0.16  HD
ATOM     45  C   ASN C 304      17.268   9.535   2.270  0.50 33.07 LIG 0.24  C 
ATOM     46 O    ASN C 304      16.104   9.952   2.260  0.50 33.39 LIG-0.27  OA
BRANCH 45 47
ATOM     47  CA  ASN C 304      18.353  10.239   3.096  0.50 32.40 LIG 0.18  C 
BRANCH 47 48
ATOM     48  CB  ASN C 304      17.970  10.412   4.574  0.50 32.38 LIG 0.14  C 
BRANCH 48 49
ATOM     49  CG  ASN C 304      19.173  10.796   5.472  0.50 31.77 LIG 0.22  C 
ATOM     50 OD1  ASN C 304      20.123  10.036   5.621  0.50 27.48 LIG-0.27  OA
ATOM     51  ND2 ASN C 304      19.095  11.963   6.100  0.50 32.56 LIG-0.37  N 
ATOM     52 21HD ASN C 304      19.725  12.207   6.633  0.50 32.56 LIG 0.16  HD
ATOM     53 22HD ASN C 304      18.415  12.475   5.974  0.50 32.56 LIG 0.16  HD
ENDBRANCH 48 49
ENDBRANCH 47 48
BRANCH 47 54
ATOM     54  N   ASN C 304      18.647  11.537   2.538  0.50 31.56 LIG-0.34  N 
ATOM     55  C   LEU C 303      19.894  11.982   2.486  0.50 30.83 LIG 0.26  C 
ATOM     56 O    LEU C 303      20.857  11.260   2.699  0.50 29.02 LIG-0.27  OA
ATOM     57 H    ASN C 304      17.962  11.973   2.255  0.50 31.56 LIG 0.16  HD
BRANCH 55 58
ATOM     58  CA  LEU C 303      20.059  13.466   2.135  0.50 30.56 LIG 0.40  C 
ATOM     59  N   LEU C 303      21.475  13.926   2.124  0.50 30.88 LIG 0.61  N 
BRANCH 58 60
ATOM     60  CB  LEU C 303      19.386  13.794   0.796  0.50 30.80 LIG 0.06  C 
BRANCH 60 61
ATOM     61  CG  LEU C 303      17.863  13.965   0.783  0.50 30.92 LIG-0.02  C 
ATOM     62  CD2 LEU C 303      17.403  14.682  -0.500  0.50 31.43 LIG 0.01  C 
ATOM     63  CD1 LEU C 303      17.375  14.680   2.031  0.50 30.50 LIG 0.01  C 
ENDBRANCH 60 61
ENDBRANCH 58 60
ENDBRANCH 55 58
ENDBRANCH 47 54
ENDBRANCH 45 47
ENDBRANCH 35 43
ENDBRANCH 1 35
TORSDOF 21
