USER: ADFR SOLUTION from run 0
USER: SCORE 10.070615 LL:  -1.918 LR:  -9.915 RR:   0.000 FEB:  -4.247
USER: RMSD 0.321864
USER: STATUS Locally minimized using BFGS
USER: GENES 21
USER: genes 0 Translation |==|  0.48763 0.44705 0.44691
USER: genes 1 Rotation |==|  0.50249 0.51171 0.49332 0.99981
USER: genes 2 Torsion [C]-N--CA-[CB] |==|  0.42229
USER: genes 3 Torsion [N]-CA--CB-[CG] |==|  0.47649
USER: genes 4 Torsion [CA]-CB--CG-[CD] |==|  0.46964
USER: genes 5 Torsion [CB]-CG--CD-[CE] |==|  0.49284
USER: genes 6 Torsion [CG]-CD--CE-[NZ] |==|  0.48419
USER: genes 7 Torsion [CD]-CE--NZ-[HZ1] |==|  0.49992
USER: genes 8 Torsion [N]-CA--C-[N] |==|  0.34140
USER: genes 9 Torsion [C]-N--CA-[CB] |==|  0.44025
USER: genes 10 Torsion [N]-CA--CB-[CG] |==|  0.79392
USER: genes 11 Torsion [CA]-CB--CG-[CD2] |==|  0.88714
USER: genes 12 Torsion [N]-CA--C-[O] |==|  0.84299
USER: genes 13 Torsion [N]-C--CA-[N] |==|  0.35576
USER: genes 14 Torsion [C]-CA--N-[C] |==|  0.61298
USER: genes 15 Torsion [N]-C--CA-[N] |==|  0.31649
USER: genes 16 Torsion [C]-CA--CB-[CG] |==|  0.16513
USER: genes 17 Torsion [CA]-CB--CG-[CD] |==|  0.53169
USER: genes 18 Torsion [CB]-CG--CD-[CE] |==|  0.86022
USER: genes 19 Torsion [CG]-CD--CE-[NZ] |==|  0.48276
USER: genes 20 Torsion [CD]-CE--NZ-[HZ2] |==|  0.96358
ROOT
ATOM      1  C   LYS L   5     -25.137 -77.133 -28.065  1.00 61.96 LIG 0.24  C 
ATOM      2 O    LYS L   5     -24.494 -76.693 -29.027  1.00 44.78 LIG-0.27  OA
ATOM      3  N   LYS L   6     -25.875 -76.355 -27.276  1.00 60.12 LIG-0.35  N 
ATOM      4 H    LYS L   6     -26.437 -76.652 -26.697  1.00 60.12 LIG 0.16  HD
ENDROOT
BRANCH 3 5
ATOM      5  CA  LYS L   6     -25.781 -74.900 -27.337  1.00 64.44 LIG 0.18  C 
BRANCH 5 6
ATOM      6  CB  LYS L   6     -27.097 -74.246 -26.915  1.00 71.41 LIG 0.04  C 
BRANCH 6 7
ATOM      7  CG  LYS L   6     -27.008 -72.731 -26.760  1.00 72.05 LIG 0.00  C 
BRANCH 7 8
ATOM      8  CD  LYS L   6     -28.379 -72.092 -26.603  1.00 65.16 LIG 0.03  C 
BRANCH 8 9
ATOM      9  CE  LYS L   6     -28.254 -70.591 -26.387  1.00 70.38 LIG 0.23  C 
BRANCH 9 10
ATOM     10  NZ  LYS L   6     -29.590 -69.931 -26.368  1.00 74.13 LIG-0.08  N 
ATOM     11 HZ2  LYS L   6     -30.001 -70.070 -27.145  1.00 74.13 LIG 0.27  HD
ATOM     12 HZ1  LYS L   6     -29.487 -69.056 -26.240  1.00 74.13 LIG 0.27  HD
ATOM     13 HZ3  LYS L   6     -30.080 -70.270 -25.708  1.00 74.13 LIG 0.27  HD
ENDBRANCH 9 10
ENDBRANCH 8 9
ENDBRANCH 7 8
ENDBRANCH 6 7
ENDBRANCH 5 6
BRANCH 5 14
ATOM     14  C   LYS L   6     -24.654 -74.469 -26.410  1.00 59.21 LIG 0.24  C 
ATOM     15  N   LEU L   7     -23.669 -73.756 -26.946  1.00 55.77 LIG-0.35  N 
ATOM     16 H    LEU L   7     -23.660 -73.480 -27.761  1.00 55.77 LIG 0.16  HD
ATOM     17 O    LYS L   6     -24.671 -74.791 -25.227  1.00 62.62 LIG-0.27  OA
BRANCH 15 18
ATOM     18  CA  LEU L   7     -22.493 -73.378 -26.159  1.00 55.07 LIG 0.16  C 
BRANCH 18 19
ATOM     19  CB  LEU L   7     -21.308 -73.053 -27.075  1.00 49.39 LIG 0.04  C 
BRANCH 19 20
ATOM     20  CG  LEU L   7     -20.636 -74.262 -27.725  1.00 45.34 LIG-0.02  C 
ATOM     21  CD2 LEU L   7     -20.527 -75.411 -26.718  1.00 40.01 LIG 0.01  C 
ATOM     22  CD1 LEU L   7     -19.271 -73.853 -28.240  1.00 33.03 LIG 0.01  C 
ENDBRANCH 19 20
ENDBRANCH 18 19
BRANCH 18 23
ATOM     23  C   LEU L   7     -22.770 -72.202 -25.225  1.00 52.26 LIG 0.22  C 
ATOM     24 O    LEU L   7     -23.191 -71.136 -25.675  1.00 59.22 LIG-0.29  OA
ENDBRANCH 18 23
ENDBRANCH 15 18
ENDBRANCH 5 14
ENDBRANCH 3 5
BRANCH 1 25
ATOM     25  CA  LYS L   5     -25.129 -78.631 -27.722  1.00 63.64 LIG 0.18  C 
BRANCH 25 26
ATOM     26  N   LYS L   5     -25.450 -79.495 -28.859  1.00 68.83 LIG-0.35  N 
ATOM     27  C   ALA L   4     -26.232 -80.567 -28.728  1.00 74.38 LIG 0.26  C 
ATOM     28 O    ALA L   4     -26.813 -80.851 -27.676  1.00 71.28 LIG-0.27  OA
ATOM     29 H    LYS L   5     -25.093 -79.250 -29.602  1.00 68.83 LIG 0.16  HD
BRANCH 27 30
ATOM     30  CA  ALA L   4     -26.387 -81.457 -29.968  1.00 68.81 LIG 0.40  C 
ATOM     31  N   ALA L   4     -25.790 -82.770 -29.742  1.00 73.56 LIG 0.61  N 
ATOM     32  CB  ALA L   4     -27.864 -81.597 -30.363  1.00 57.48 LIG 0.06  C 
ENDBRANCH 27 30
ENDBRANCH 25 26
BRANCH 25 33
ATOM     33  CB  LYS L   5     -23.763 -79.022 -27.150  1.00 69.62 LIG 0.04  C 
BRANCH 33 34
ATOM     34  CG  LYS L   5     -23.366 -78.274 -25.890  1.00 80.66 LIG 0.00  C 
BRANCH 34 35
ATOM     35  CD  LYS L   5     -21.898 -78.516 -25.553  1.00 85.15 LIG 0.03  C 
BRANCH 35 36
ATOM     36  CE  LYS L   5     -21.564 -80.001 -25.557  1.00 90.30 LIG 0.23  C 
BRANCH 36 37
ATOM     37  NZ  LYS L   5     -20.105 -80.259 -25.377  1.00 90.68 LIG-0.08  N 
ATOM     38 HZ3  LYS L   5     -19.958 -80.575 -24.558  1.00 90.68 LIG 0.27  HD
ATOM     39 HZ2  LYS L   5     -19.654 -79.500 -25.487  1.00 90.68 LIG 0.27  HD
ATOM     40 HZ1  LYS L   5     -19.832 -80.856 -25.978  1.00 90.68 LIG 0.27  HD
ENDBRANCH 36 37
ENDBRANCH 35 36
ENDBRANCH 34 35
ENDBRANCH 33 34
ENDBRANCH 25 33
ENDBRANCH 1 25
TORSDOF 19
