USER: ADFR SOLUTION from run 0
USER: SCORE 18.366753 LL:  -5.795 LR: -15.200 RR:   0.000 FEB:  -8.339
USER: RMSD 0.336563
USER: STATUS Locally minimized using BFGS
USER: GENES 25
USER: genes 0 Translation |==|  0.50236 0.38194 0.67947
USER: genes 1 Rotation |==|  0.49564 0.50415 0.48938 0.99985
USER: genes 2 Torsion [N]-CA--C-[N] |==|  0.85250
USER: genes 3 Torsion [C]-N--CA-[CB] |==|  0.32584
USER: genes 4 Torsion [N]-CA--CB-[CG] |==|  0.80816
USER: genes 5 Torsion [CA]-CB--CG-[CD1] |==|  0.83194
USER: genes 6 Torsion [N]-CA--C-[N] |==|  0.36031
USER: genes 7 Torsion [C]-N--CA-[C] |==|  0.74633
USER: genes 8 Torsion [N]-CA--CB-[CG] |==|  0.49266
USER: genes 9 Torsion [CA]-CB--CG-[CD] |==|  0.56277
USER: genes 10 Torsion [CB]-CG--CD-[OE2] |==|  0.47247
USER: genes 11 Torsion [N]-CA--C-[N] |==|  0.36876
USER: genes 12 Torsion [C]-N--CA-[CB] |==|  0.48561
USER: genes 13 Torsion [N]-CA--C-[O] |==|  0.82625
USER: genes 14 Torsion [C]-CA--CB-[CG] |==|  0.16401
USER: genes 15 Torsion [CA]-CB--CG-[CD1] |==|  0.14673
USER: genes 16 Torsion [C]-CA--N-[C] |==|  0.74322
USER: genes 17 Torsion [N]-C--CA-[N] |==|  0.90046
USER: genes 18 Torsion [C]-CA--CB-[CG] |==|  0.14302
USER: genes 19 Torsion [CA]-CB--CG-[CD1] |==|  0.21895
USER: genes 20 Torsion [C]-CA--N-[C] |==|  0.80665
USER: genes 21 Torsion [N]-C--CA-[N] |==|  0.05031
USER: genes 22 Torsion [C]-CA--N-[C] |==|  0.61111
USER: genes 23 Torsion [N]-C--CA-[N] |==|  0.94746
USER: genes 24 Torsion [C]-CA--N-[H3] |==|  0.20829
ROOT
ATOM      1  CA  LEU B   4       2.990 -37.420  -5.812  1.00 25.55 LIG 0.18  C 
ENDROOT
BRANCH 1 2
ATOM      2  C   LEU B   4       2.250 -37.074  -7.108  1.00 26.13 LIG 0.24  C 
ATOM      3 O    LEU B   4       1.854 -37.982  -7.818  1.00 25.31 LIG-0.27  OA
ATOM      4  N   PHE B   5       2.067 -35.774  -7.389  1.00 26.68 LIG-0.35  N 
ATOM      5 H    PHE B   5       2.423 -35.129  -6.945  1.00 26.68 LIG 0.16  HD
BRANCH 4 6
ATOM      6  CA  PHE B   5       1.218 -35.350  -8.511  1.00 28.54 LIG 0.18  C 
BRANCH 6 7
ATOM      7  CB  PHE B   5       0.000 -34.529  -8.033  1.00 28.61 LIG 0.07  C 
BRANCH 7 8
ATOM      8  CG  PHE B   5      -1.018 -35.303  -7.275  1.00 26.86 LIG-0.06  A 
ATOM      9  CD1 PHE B   5      -1.675 -36.368  -7.847  1.00 26.13 LIG 0.01  A 
ATOM     10  CE1 PHE B   5      -2.620 -37.094  -7.124  1.00 23.59 LIG 0.00  A 
ATOM     11  CZ  PHE B   5      -2.904 -36.759  -5.778  1.00 25.19 LIG 0.00  A 
ATOM     12  CE2 PHE B   5      -2.278 -35.665  -5.222  1.00 26.30 LIG 0.00  A 
ATOM     13  CD2 PHE B   5      -1.324 -34.960  -5.957  1.00 27.99 LIG 0.01  A 
ENDBRANCH 7 8
ENDBRANCH 6 7
BRANCH 6 14
ATOM     14  C   PHE B   5       1.972 -34.523  -9.555  1.00 31.71 LIG 0.24  C 
ATOM     15  N   GLU B   6       1.846 -34.902 -10.830  1.00 34.73 LIG-0.35  N 
ATOM     16 H    GLU B   6       1.665 -35.710 -11.065  1.00 34.73 LIG 0.16  HD
ATOM     17 O    PHE B   5       2.705 -33.601  -9.184  1.00 30.66 LIG-0.27  OA
BRANCH 15 18
ATOM     18  CA  GLU B   6       2.004 -33.967 -11.981  1.00 38.89 LIG 0.18  C 
BRANCH 18 19
ATOM     19  CB  GLU B   6       2.642 -34.636 -13.205  1.00 39.10 LIG 0.04  C 
BRANCH 19 20
ATOM     20  CG  GLU B   6       2.753 -33.691 -14.431  1.00 43.96 LIG 0.12  C 
BRANCH 20 21
ATOM     21  CD  GLU B   6       2.858 -34.403 -15.789  1.00 49.39 LIG 0.17  C 
ATOM     22 OE1  GLU B   6       3.078 -35.630 -15.840  1.00 53.88 LIG-0.65  OA
ATOM     23 OE2  GLU B   6       2.761 -33.714 -16.839  1.00 56.34 LIG-0.65  OA
ENDBRANCH 20 21
ENDBRANCH 19 20
ENDBRANCH 18 19
BRANCH 18 24
ATOM     24  C   GLU B   6       0.605 -33.372 -12.335  1.00 41.03 LIG 0.24  C 
ATOM     25 O    GLU B   6      -0.423 -34.098 -12.409  1.00 40.13 LIG-0.27  OA
ATOM     26  N   ALA B   7       0.588 -32.043 -12.504  1.00 43.76 LIG-0.35  N 
ATOM     27 H    ALA B   7       1.306 -31.570 -12.507  1.00 43.76 LIG 0.16  HD
BRANCH 26 28
ATOM     28  CA  ALA B   7      -0.656 -31.220 -12.705  1.00 45.80 LIG 0.16  C 
ATOM     29  CB  ALA B   7      -0.303 -29.693 -12.735  1.00 46.43 LIG 0.04  C 
BRANCH 28 30
ATOM     30  C   ALA B   7      -1.400 -31.567 -13.986  1.00 46.67 LIG 0.22  C 
ATOM     31 O    ALA B   7      -0.848 -31.395 -15.086  1.00 48.32 LIG-0.29  OA
ENDBRANCH 28 30
ENDBRANCH 26 28
ENDBRANCH 18 24
ENDBRANCH 15 18
ENDBRANCH 6 14
ENDBRANCH 4 6
ENDBRANCH 1 2
BRANCH 1 32
ATOM     32  CB  LEU B   4       2.072 -37.118  -4.645  1.00 24.11 LIG 0.04  C 
BRANCH 32 33
ATOM     33  CG  LEU B   4       0.739 -37.900  -4.676  1.00 25.40 LIG-0.02  C 
ATOM     34  CD2 LEU B   4      -0.028 -37.514  -3.431  1.00 26.98 LIG 0.01  C 
ATOM     35  CD1 LEU B   4       0.844 -39.444  -4.825  1.00 25.06 LIG 0.01  C 
ENDBRANCH 32 33
ENDBRANCH 1 32
BRANCH 1 36
ATOM     36  N   LEU B   4       4.273 -36.759  -5.679  1.00 24.30 LIG-0.35  N 
ATOM     37  C   TRP B   3       5.397 -37.337  -6.094  1.00 25.24 LIG 0.24  C 
ATOM     38 O    TRP B   3       5.417 -38.429  -6.638  1.00 25.23 LIG-0.27  OA
ATOM     39 H    LEU B   4       4.237 -35.980  -5.316  1.00 24.30 LIG 0.16  HD
BRANCH 37 40
ATOM     40  CA  TRP B   3       6.713 -36.580  -5.819  1.00 26.39 LIG 0.18  C 
BRANCH 40 41
ATOM     41  CB  TRP B   3       7.238 -36.949  -4.431  1.00 26.78 LIG 0.07  C 
BRANCH 41 42
ATOM     42  CG  TRP B   3       7.305 -38.366  -4.269  1.00 25.50 LIG-0.03  A 
ATOM     43  CD1 TRP B   3       8.267 -39.191  -4.749  1.00 28.00 LIG 0.10  A 
ATOM     44  NE1 TRP B   3       7.981 -40.481  -4.423  1.00 26.39 LIG-0.36  N 
ATOM     45 HE1  TRP B   3       8.460 -41.166  -4.629  1.00 26.39 LIG 0.17  HD
ATOM     46  CE2 TRP B   3       6.817 -40.514  -3.718  1.00 23.90 LIG 0.04  A 
ATOM     47  CZ2 TRP B   3       6.126 -41.603  -3.183  1.00 23.10 LIG 0.03  A 
ATOM     48  CD2 TRP B   3       6.367 -39.189  -3.597  1.00 23.76 LIG-0.00  A 
ATOM     49  CH2 TRP B   3       4.983 -41.352  -2.499  1.00 22.34 LIG 0.00  A 
ATOM     50  CZ3 TRP B   3       4.488 -40.043  -2.366  1.00 25.34 LIG 0.00  A 
ATOM     51  CE3 TRP B   3       5.185 -38.944  -2.929  1.00 25.10 LIG 0.01  A 
ENDBRANCH 41 42
ENDBRANCH 40 41
BRANCH 40 52
ATOM     52  N   TRP B   3       6.494 -35.135  -5.949  1.00 27.54 LIG-0.35  N 
ATOM     53  C   ALA B   2       6.262 -34.638  -7.169  1.00 31.13 LIG 0.24  C 
ATOM     54 O    ALA B   2       6.249 -35.364  -8.157  1.00 30.30 LIG-0.27  OA
ATOM     55 H    TRP B   3       6.528 -34.680  -5.220  1.00 27.54 LIG 0.16  HD
BRANCH 53 56
ATOM     56  CA  ALA B   2       6.001 -33.130  -7.306  1.00 33.66 LIG 0.17  C 
ATOM     57  CB  ALA B   2       6.657 -32.549  -8.585  1.00 33.40 LIG 0.04  C 
BRANCH 56 58
ATOM     58  N   ALA B   2       6.440 -32.333  -6.154  1.00 35.64 LIG-0.35  N 
ATOM     59 H    ALA B   2       7.191 -32.575  -5.811  1.00 35.64 LIG 0.16  HD
ATOM     60  C   ALA B   1       5.696 -31.322  -5.710  1.00 39.08 LIG 0.25  C 
ATOM     61 O    ALA B   1       4.514 -31.245  -5.967  1.00 40.54 LIG-0.27  OA
BRANCH 60 62
ATOM     62  CA  ALA B   1       6.348 -30.257  -4.794  1.00 41.05 LIG 0.27  C 
ATOM     63  CB  ALA B   1       6.621 -28.952  -5.575  1.00 41.95 LIG 0.05  C 
BRANCH 62 64
ATOM     64  N   ALA B   1       7.609 -30.736  -4.167  1.00 41.48 LIG-0.07  N 
ATOM     65 H3   ALA B   1       8.260 -30.739  -4.774  1.00 41.48 LIG 0.28  HD
ATOM     66 H2   ALA B   1       7.491 -31.562  -3.856  1.00 41.48 LIG 0.28  HD
ATOM     67 H1   ALA B   1       7.832 -30.196  -3.497  1.00 41.48 LIG 0.28  HD
ENDBRANCH 62 64
ENDBRANCH 60 62
ENDBRANCH 56 58
ENDBRANCH 53 56
ENDBRANCH 40 52
ENDBRANCH 37 40
ENDBRANCH 1 36
TORSDOF 23
