USER: ADFR SOLUTION from run 0
USER: SCORE 17.315027 LL:  -6.136 LR: -14.908 RR:   0.000 FEB:  -8.345
USER: RMSD 0.658256
USER: STATUS Locally minimized using BFGS
USER: GENES 24
USER: genes 0 Translation |==|  0.62869 0.49935 0.32333
USER: genes 1 Rotation |==|  0.50171 0.49012 0.48527 0.99968
USER: genes 2 Torsion [C]-CA--CB-[CG] |==|  0.16430
USER: genes 3 Torsion [CA]-CB--CG-[CD1] |==|  0.13445
USER: genes 4 Torsion [N]-CA--C-[N] |==|  0.84865
USER: genes 5 Torsion [C]-N--CA-[CB] |==|  0.34662
USER: genes 6 Torsion [N]-CA--CB-[CG] |==|  0.79950
USER: genes 7 Torsion [CA]-CB--CG-[CD2] |==|  0.32875
USER: genes 8 Torsion [N]-CA--C-[N] |==|  0.32646
USER: genes 9 Torsion [C]-N--CA-[C] |==|  0.75036
USER: genes 10 Torsion [N]-CA--CB-[CG] |==|  0.45597
USER: genes 11 Torsion [CA]-CB--CG-[CD] |==|  0.64523
USER: genes 12 Torsion [CB]-CG--CD-[OE2] |==|  0.39394
USER: genes 13 Torsion [N]-CA--C-[N] |==|  0.39479
USER: genes 14 Torsion [C]-N--CA-[CB] |==|  0.49120
USER: genes 15 Torsion [N]-CA--C-[O] |==|  0.61549
USER: genes 16 Torsion [CB]-CA--N-[C] |==|  0.41042
USER: genes 17 Torsion [N]-C--CA-[N] |==|  0.90108
USER: genes 18 Torsion [C]-CA--N-[C] |==|  0.84964
USER: genes 19 Torsion [N]-C--CA-[N] |==|  0.08411
USER: genes 20 Torsion [C]-CA--N-[C] |==|  0.58889
USER: genes 21 Torsion [N]-C--CA-[N] |==|  0.33008
USER: genes 22 Torsion [C]-CA--CB-[CG] |==|  0.13276
USER: genes 23 Torsion [CA]-CB--CG-[CD1] |==|  0.20455
ROOT
ATOM      1  CA  LEU B   4      37.554  -3.015   5.684  1.00 36.98 LIG 0.18  C 
ENDROOT
BRANCH 1 2
ATOM      2  CB  LEU B   4      37.351  -2.005   4.555  1.00 35.91 LIG 0.04  C 
BRANCH 2 3
ATOM      3  CG  LEU B   4      38.185  -0.715   4.643  1.00 35.93 LIG-0.02  C 
ATOM      4  CD2 LEU B   4      38.070   0.143   3.389  1.00 33.66 LIG 0.01  C 
ATOM      5  CD1 LEU B   4      39.694  -1.034   4.930  1.00 37.78 LIG 0.01  C 
ENDBRANCH 2 3
ENDBRANCH 1 2
BRANCH 1 6
ATOM      6  C   LEU B   4      37.202  -2.320   6.990  1.00 38.06 LIG 0.24  C 
ATOM      7  N   PHE B   5      35.908  -2.053   7.183  1.00 38.73 LIG-0.35  N 
ATOM      8 H    PHE B   5      35.282  -2.351   6.675  1.00 38.73 LIG 0.16  HD
ATOM      9 O    LEU B   4      38.103  -1.974   7.761  1.00 36.58 LIG-0.27  OA
BRANCH 7 10
ATOM     10  CA  PHE B   5      35.430  -1.222   8.284  1.00 41.04 LIG 0.18  C 
BRANCH 10 11
ATOM     11  CB  PHE B   5      34.568  -0.039   7.809  1.00 39.67 LIG 0.07  C 
BRANCH 11 12
ATOM     12  CG  PHE B   5      35.345   1.028   7.137  1.00 38.07 LIG-0.06  A 
ATOM     13  CD2 PHE B   5      35.099   1.355   5.829  1.00 33.96 LIG 0.01  A 
ATOM     14  CE2 PHE B   5      35.853   2.362   5.167  1.00 35.53 LIG 0.00  A 
ATOM     15  CZ  PHE B   5      36.893   2.995   5.820  1.00 34.38 LIG 0.00  A 
ATOM     16  CE1 PHE B   5      37.146   2.645   7.154  1.00 35.56 LIG 0.00  A 
ATOM     17  CD1 PHE B   5      36.371   1.669   7.799  1.00 35.27 LIG 0.01  A 
ENDBRANCH 11 12
ENDBRANCH 10 11
BRANCH 10 18
ATOM     18  C   PHE B   5      34.622  -2.001   9.277  1.00 43.64 LIG 0.24  C 
ATOM     19 O    PHE B   5      33.583  -2.567   8.909  1.00 43.27 LIG-0.27  OA
ATOM     20  N   GLU B   6      35.128  -2.056  10.511  1.00 47.41 LIG-0.35  N 
ATOM     21 H    GLU B   6      35.957  -1.902  10.686  1.00 47.41 LIG 0.16  HD
BRANCH 20 22
ATOM     22  CA  GLU B   6      34.323  -2.387  11.709  1.00 51.55 LIG 0.18  C 
BRANCH 22 23
ATOM     23  CB  GLU B   6      35.150  -3.135  12.770  1.00 52.47 LIG 0.04  C 
BRANCH 23 24
ATOM     24  CG  GLU B   6      34.458  -3.146  14.180  1.00 56.11 LIG 0.12  C 
BRANCH 24 25
ATOM     25  CD  GLU B   6      35.350  -2.654  15.348  1.00 59.86 LIG 0.17  C 
ATOM     26 OE2  GLU B   6      34.834  -1.966  16.248  1.00 64.67 LIG-0.65  OA
ATOM     27 OE1  GLU B   6      36.554  -2.972  15.414  1.00 64.70 LIG-0.65  OA
ENDBRANCH 24 25
ENDBRANCH 23 24
ENDBRANCH 22 23
BRANCH 22 28
ATOM     28  C   GLU B   6      33.750  -1.064  12.291  1.00 53.54 LIG 0.24  C 
ATOM     29 O    GLU B   6      34.401  -0.002  12.266  1.00 53.95 LIG-0.27  OA
ATOM     30  N   ALA B   7      32.511  -1.112  12.780  1.00 56.31 LIG-0.35  N 
ATOM     31 H    ALA B   7      32.038  -1.829  12.825  1.00 56.31 LIG 0.16  HD
BRANCH 30 32
ATOM     32  CA  ALA B   7      31.836   0.107  13.299  1.00 57.55 LIG 0.16  C 
ATOM     33  CB  ALA B   7      30.392  -0.193  13.733  1.00 58.11 LIG 0.04  C 
BRANCH 32 34
ATOM     34  C   ALA B   7      32.616   0.701  14.460  1.00 58.67 LIG 0.22  C 
ATOM     35 O    ALA B   7      32.021   1.124  15.447  1.00 60.59 LIG-0.29  OA
ENDBRANCH 32 34
ENDBRANCH 30 32
ENDBRANCH 22 28
ENDBRANCH 20 22
ENDBRANCH 10 18
ENDBRANCH 7 10
ENDBRANCH 1 6
BRANCH 1 36
ATOM     36  N   LEU B   4      36.823  -4.253   5.440  1.00 37.09 LIG-0.35  N 
ATOM     37 H    LEU B   4      36.086  -4.146   5.009  1.00 37.09 LIG 0.16  HD
ATOM     38  C   TRP B   3      37.270  -5.444   5.855  1.00 37.19 LIG 0.24  C 
ATOM     39 O    TRP B   3      38.295  -5.581   6.447  1.00 36.60 LIG-0.27  OA
BRANCH 38 40
ATOM     40  CA  TRP B   3      36.451  -6.676   5.492  1.00 38.87 LIG 0.18  C 
BRANCH 40 41
ATOM     41  N   TRP B   3      35.026  -6.330   5.525  1.00 40.30 LIG-0.35  N 
ATOM     42  C   ALA B   2      34.486  -5.775   6.624  1.00 43.05 LIG 0.24  C 
ATOM     43 O    ALA B   2      35.087  -5.693   7.698  1.00 42.86 LIG-0.27  OA
ATOM     44 H    TRP B   3      34.592  -6.510   4.804  1.00 40.30 LIG 0.16  HD
BRANCH 42 45
ATOM     45  CA  ALA B   2      33.047  -5.299   6.532  1.00 44.71 LIG 0.17  C 
ATOM     46  CB  ALA B   2      32.344  -5.391   7.912  1.00 44.36 LIG 0.04  C 
BRANCH 45 47
ATOM     47  N   ALA B   2      32.336  -6.144   5.573  1.00 46.59 LIG-0.35  N 
ATOM     48 H    ALA B   2      32.615  -6.957   5.543  1.00 46.59 LIG 0.16  HD
ATOM     49  C   PRO B   1      31.355  -5.678   4.828  1.00 48.49 LIG 0.25  C 
ATOM     50 O    PRO B   1      31.092  -4.486   4.783  1.00 48.43 LIG-0.27  OA
BRANCH 49 51
ATOM     51  CA  PRO B   1      30.543  -6.756   3.999  1.00 50.22 LIG 0.28  C 
ATOM     52  N   PRO B   1      29.092  -6.836   4.338  1.00 50.48 LIG-0.06  N 
ATOM     53 H3   PRO B   1      28.880  -7.659   4.473  1.00 50.48 LIG 0.28  HD
ATOM     54 H2   PRO B   1      28.953  -6.416   5.076  1.00 50.48 LIG 0.28  HD
ATOM     55  CD  PRO B   1      28.217  -6.277   3.291  1.00 50.94 LIG 0.23  C 
ATOM     56  CG  PRO B   1      29.167  -5.883   2.164  1.00 51.81 LIG 0.03  C 
ATOM     57  CB  PRO B   1      30.550  -6.460   2.485  1.00 50.52 LIG 0.04  C 
ENDBRANCH 49 51
ENDBRANCH 45 47
ENDBRANCH 42 45
ENDBRANCH 40 41
BRANCH 40 58
ATOM     58  CB  TRP B   3      36.913  -7.215   4.119  1.00 38.41 LIG 0.07  C 
BRANCH 58 59
ATOM     59  CG  TRP B   3      38.370  -7.305   4.083  1.00 37.10 LIG-0.03  A 
ATOM     60  CD1 TRP B   3      39.131  -8.217   4.712  1.00 36.42 LIG 0.10  A 
ATOM     61  NE1 TRP B   3      40.449  -7.969   4.478  1.00 36.34 LIG-0.36  N 
ATOM     62 HE1  TRP B   3      41.108  -8.429   4.784  1.00 36.34 LIG 0.17  HD
ATOM     63  CE2 TRP B   3      40.554  -6.863   3.676  1.00 35.80 LIG 0.04  A 
ATOM     64  CD2 TRP B   3      39.268  -6.409   3.428  1.00 33.30 LIG-0.00  A 
ATOM     65  CZ2 TRP B   3      41.691  -6.208   3.193  1.00 36.94 LIG 0.03  A 
ATOM     66  CE3 TRP B   3      39.096  -5.290   2.628  1.00 37.18 LIG 0.01  A 
ATOM     67  CZ3 TRP B   3      40.224  -4.650   2.117  1.00 37.29 LIG 0.00  A 
ATOM     68  CH2 TRP B   3      41.509  -5.119   2.412  1.00 32.87 LIG 0.00  A 
ENDBRANCH 58 59
ENDBRANCH 40 58
ENDBRANCH 38 40
ENDBRANCH 1 36
TORSDOF 22
