USER: ADFR SOLUTION from run 0
USER: SCORE 20.753108 LL:  -7.222 LR: -15.997 RR:   0.000 FEB:  -8.241
USER: RMSD 0.596002
USER: STATUS Locally minimized using BFGS
USER: GENES 28
USER: genes 0 Translation |==|  0.42339 0.60581 0.41584
USER: genes 1 Rotation |==|  0.49768 0.50342 0.51661 0.99971
USER: genes 2 Torsion [C]-N--CA-[CB] |==|  0.43307
USER: genes 3 Torsion [N]-CA--CB-[CG] |==|  0.47412
USER: genes 4 Torsion [CA]-CB--CG-[CD1] |==|  0.72345
USER: genes 5 Torsion [CE1]-CZ--OH-[HH] |==|  0.06970
USER: genes 6 Torsion [N]-CA--C-[N] |==|  0.85000
USER: genes 7 Torsion [C]-N--CA-[CB] |==|  0.48255
USER: genes 8 Torsion [N]-CA--C-[N] |==|  0.37042
USER: genes 9 Torsion [C]-N--CA-[CB] |==|  0.36807
USER: genes 10 Torsion [N]-CA--CB-[CG] |==|  0.80160
USER: genes 11 Torsion [CA]-CB--CG-[CD] |==|  0.45165
USER: genes 12 Torsion [CB]-CG--CD-[NE] |==|  0.49204
USER: genes 13 Torsion [CG]-CD--NE-[HE] |==|  0.99634
USER: genes 14 Torsion [N]-CA--C-[O] |==|  0.07841
USER: genes 15 Torsion [N]-CA--CB-[CG] |==|  0.82939
USER: genes 16 Torsion [CA]-CB--CG-[CD1] |==|  0.48991
USER: genes 17 Torsion [N]-C--CA-[N] |==|  0.99109
USER: genes 18 Torsion [C]-CA--N-[C] |==|  0.72835
USER: genes 19 Torsion [N]-C--CA-[N] |==|  0.93994
USER: genes 20 Torsion [C]-CA--N-[C] |==|  0.83669
USER: genes 21 Torsion [N]-C--CA-[N] |==|  0.41061
USER: genes 22 Torsion [C]-CA--N-[C] |==|  0.83989
USER: genes 23 Torsion [N]-C--CA-[N] |==|  0.33224
USER: genes 24 Torsion [C]-CA--CB-[CG1] |==|  0.49649
USER: genes 25 Torsion [CA]-CB--CG1-[CD1] |==|  0.51422
USER: genes 26 Torsion [C]-CA--CB-[CG] |==|  0.79447
USER: genes 27 Torsion [CA]-CB--CG-[CD1] |==|  0.71002
ROOT
ATOM      1  C   TRP B1542      -4.239  46.025   0.892  1.00 26.55 LIG 0.24  C 
ATOM      2 O    TRP B1542      -3.187  46.437   0.425  1.00 27.86 LIG-0.27  OA
ATOM      3  N   TYR B1543      -4.285  45.137   1.877  1.00 24.62 LIG-0.35  N 
ATOM      4 H    TYR B1543      -5.008  44.776   2.171  1.00 24.62 LIG 0.16  HD
ENDROOT
BRANCH 3 5
ATOM      5  CA  TYR B1543      -3.074  44.700   2.549  1.00 22.31 LIG 0.18  C 
BRANCH 5 6
ATOM      6  CB  TYR B1543      -3.444  44.197   3.947  1.00 23.67 LIG 0.07  C 
BRANCH 6 7
ATOM      7  CG  TYR B1543      -2.332  43.500   4.706  1.00 24.58 LIG-0.06  A 
ATOM      8  CD1 TYR B1543      -2.267  42.108   4.755  1.00 24.59 LIG 0.01  A 
ATOM      9  CE1 TYR B1543      -1.296  41.462   5.506  1.00 26.50 LIG 0.04  A 
ATOM     10  CZ  TYR B1543      -0.386  42.218   6.220  1.00 24.60 LIG 0.07  A 
ATOM     11  CE2 TYR B1543      -0.432  43.609   6.175  1.00 24.06 LIG 0.04  A 
ATOM     12  CD2 TYR B1543      -1.392  44.230   5.423  1.00 22.62 LIG 0.01  A 
BRANCH 10 13
ATOM     13 OH   TYR B1543       0.542  41.591   7.001  1.00 26.51 LIG-0.36  OA
ATOM     14 HH   TYR B1543       0.677  40.815   6.707  1.00 26.51 LIG 0.22  HD
ENDBRANCH 10 13
ENDBRANCH 6 7
ENDBRANCH 5 6
BRANCH 5 15
ATOM     15  C   TYR B1543      -2.170  43.684   1.871  1.00 22.90 LIG 0.24  C 
ATOM     16  N   LEU B1544      -2.730  42.550   1.474  1.00 22.60 LIG-0.35  N 
ATOM     17 H    LEU B1544      -3.567  42.367   1.545  1.00 22.60 LIG 0.16  HD
ATOM     18 O    TYR B1543      -0.976  43.919   1.720  1.00 21.43 LIG-0.27  OA
BRANCH 16 19
ATOM     19  CA  LEU B1544      -1.919  41.505   0.870  1.00 22.81 LIG 0.18  C 
BRANCH 19 20
ATOM     20  C   LEU B1544      -1.284  41.962  -0.440  1.00 21.53 LIG 0.24  C 
ATOM     21 O    LEU B1544      -1.949  42.547  -1.302  1.00 22.00 LIG-0.27  OA
ATOM     22  N   ARG B1545       0.008  41.691  -0.592  1.00 20.14 LIG-0.35  N 
ATOM     23 H    ARG B1545       0.499  41.284  -0.014  1.00 20.14 LIG 0.16  HD
BRANCH 22 24
ATOM     24  CA  ARG B1545       0.687  42.092  -1.813  1.00 18.95 LIG 0.16  C 
BRANCH 24 25
ATOM     25  CB  ARG B1545       2.012  42.789  -1.475  1.00 20.51 LIG 0.04  C 
BRANCH 25 26
ATOM     26  CG  ARG B1545       1.743  44.170  -0.875  1.00 20.78 LIG 0.02  C 
BRANCH 26 27
ATOM     27  CD  ARG B1545       2.944  44.749  -0.134  1.00 21.13 LIG 0.14  C 
BRANCH 27 28
ATOM     28  NE  ARG B1545       2.647  46.098   0.359  1.00 20.56 LIG-0.23  N 
ATOM     29 HE   ARG B1545       1.874  46.432   0.182  1.00 20.56 LIG 0.18  HD
ATOM     30  CZ  ARG B1545       3.501  46.833   1.063  1.00 23.27 LIG 0.67  C 
ATOM     31  NH2 ARG B1545       3.167  48.071   1.451  1.00 19.37 LIG-0.23  N 
ATOM     32  NH1 ARG B1545       4.697  46.340   1.356  1.00 20.25 LIG-0.23  N 
ATOM     33 1HH2 ARG B1545       2.397  48.393   1.246  1.00 19.37 LIG 0.17  HD
ATOM     34 2HH2 ARG B1545       3.723  48.543   1.907  1.00 19.37 LIG 0.17  HD
ATOM     35 1HH1 ARG B1545       4.915  45.551   1.091  1.00 20.25 LIG 0.17  HD
ATOM     36 2HH1 ARG B1545       5.256  46.809   1.811  1.00 20.25 LIG 0.17  HD
ENDBRANCH 27 28
ENDBRANCH 26 27
ENDBRANCH 25 26
ENDBRANCH 24 25
BRANCH 24 37
ATOM     37  C   ARG B1545       0.887  40.931  -2.779  1.00 20.11 LIG 0.22  C 
ATOM     38 O    ARG B1545       0.048  40.000  -2.724  1.00 20.61 LIG-0.29  OA
ENDBRANCH 24 37
ENDBRANCH 22 24
ENDBRANCH 19 20
BRANCH 19 39
ATOM     39  CB  LEU B1544      -2.774  40.251   0.648  1.00 22.71 LIG 0.04  C 
BRANCH 39 40
ATOM     40  CG  LEU B1544      -3.353  39.634   1.931  1.00 23.46 LIG-0.02  C 
ATOM     41  CD1 LEU B1544      -4.249  38.454   1.542  1.00 24.99 LIG 0.01  C 
ATOM     42  CD2 LEU B1544      -2.245  39.175   2.871  1.00 22.67 LIG 0.01  C 
ENDBRANCH 39 40
ENDBRANCH 19 39
ENDBRANCH 16 19
ENDBRANCH 5 15
ENDBRANCH 3 5
BRANCH 1 43
ATOM     43  CA  TRP B1542      -5.572  46.502   0.326  1.00 29.62 LIG 0.18  C 
BRANCH 43 44
ATOM     44  N   TRP B1542      -6.721  45.829   0.929  1.00 31.24 LIG-0.35  N 
ATOM     45  C   ALA B1541      -7.294  44.803   0.322  1.00 34.20 LIG 0.24  C 
ATOM     46 O    ALA B1541      -6.870  44.349  -0.738  1.00 33.88 LIG-0.27  OA
ATOM     47 H    TRP B1542      -6.977  46.154   1.684  1.00 31.24 LIG 0.16  HD
BRANCH 45 48
ATOM     48  CA  ALA B1541      -8.520  44.184   1.011  1.00 35.59 LIG 0.17  C 
ATOM     49  CB  ALA B1541      -9.812  44.651   0.302  1.00 37.24 LIG 0.04  C 
BRANCH 48 50
ATOM     50  N   ALA B1541      -8.638  44.440   2.453  1.00 36.68 LIG-0.35  N 
ATOM     51  C   ALA B1540      -7.695  44.075   3.317  1.00 36.41 LIG 0.24  C 
ATOM     52 O    ALA B1540      -6.637  43.544   2.965  1.00 35.55 LIG-0.27  OA
ATOM     53 H    ALA B1541      -9.363  44.842   2.680  1.00 36.68 LIG 0.16  HD
BRANCH 51 54
ATOM     54  CA  ALA B1540      -7.978  44.383   4.792  1.00 37.40 LIG 0.17  C 
ATOM     55  CB  ALA B1540      -7.448  45.779   5.155  1.00 38.11 LIG 0.04  C 
BRANCH 54 56
ATOM     56  N   ALA B1540      -7.389  43.388   5.687  1.00 38.31 LIG-0.35  N 
ATOM     57 H    ALA B1540      -6.843  43.717   6.265  1.00 38.31 LIG 0.16  HD
ATOM     58  C   ILE B1539      -7.679  42.097   5.605  1.00 39.48 LIG 0.26  C 
ATOM     59 O    ILE B1539      -8.450  41.644   4.770  1.00 40.50 LIG-0.27  OA
BRANCH 58 60
ATOM     60  CA  ILE B1539      -6.970  41.177   6.601  1.00 40.24 LIG 0.40  C 
ATOM     61  N   ILE B1539      -7.938  40.450   7.484  1.00 42.50 LIG 0.61  N 
BRANCH 60 62
ATOM     62  CB  ILE B1539      -6.083  40.192   5.782  1.00 40.48 LIG 0.03  C 
ATOM     63  CG2 ILE B1539      -5.105  40.977   4.909  1.00 38.85 LIG 0.01  C 
BRANCH 62 64
ATOM     64  CG1 ILE B1539      -5.312  39.253   6.718  1.00 39.99 LIG 0.00  C 
ATOM     65  CD1 ILE B1539      -4.323  38.338   5.984  1.00 39.67 LIG 0.01  C 
ENDBRANCH 62 64
ENDBRANCH 60 62
ENDBRANCH 58 60
ENDBRANCH 54 56
ENDBRANCH 51 54
ENDBRANCH 48 50
ENDBRANCH 45 48
ENDBRANCH 43 44
BRANCH 43 66
ATOM     66  CB  TRP B1542      -5.688  48.014   0.562  1.00 29.93 LIG 0.07  C 
BRANCH 66 67
ATOM     67  CG  TRP B1542      -5.976  48.388   2.018  1.00 31.09 LIG-0.03  A 
ATOM     68  CD1 TRP B1542      -7.178  48.803   2.534  1.00 35.00 LIG 0.10  A 
ATOM     69  NE1 TRP B1542      -7.068  49.018   3.895  1.00 35.42 LIG-0.36  N 
ATOM     70 HE1  TRP B1542      -7.703  49.280   4.413  1.00 35.42 LIG 0.17  HD
ATOM     71  CE2 TRP B1542      -5.782  48.745   4.286  1.00 34.23 LIG 0.04  A 
ATOM     72  CD2 TRP B1542      -5.060  48.348   3.131  1.00 31.85 LIG-0.00  A 
ATOM     73  CZ2 TRP B1542      -5.191  48.813   5.559  1.00 32.49 LIG 0.03  A 
ATOM     74  CE3 TRP B1542      -3.704  48.013   3.266  1.00 30.05 LIG 0.01  A 
ATOM     75  CZ3 TRP B1542      -3.115  48.080   4.532  1.00 29.28 LIG 0.00  A 
ATOM     76  CH2 TRP B1542      -3.866  48.479   5.664  1.00 32.34 LIG 0.00  A 
ENDBRANCH 66 67
ENDBRANCH 43 66
ENDBRANCH 1 43
TORSDOF 26
