USER: ADFR SOLUTION from run 0
USER: SCORE 16.790041 LL:  -5.737 LR: -13.895 RR:   0.000 FEB:  -4.946
USER: RMSD 0.466861
USER: STATUS Locally minimized using BFGS
USER: GENES 32
USER: genes 0 Translation |==|  0.42393 0.35609 0.47467
USER: genes 1 Rotation |==|  0.49839 0.52142 0.49558 0.99952
USER: genes 2 Torsion [N]-CA--C-[N] |==|  0.90030
USER: genes 3 Torsion [C]-N--CA-[CB] |==|  0.45753
USER: genes 4 Torsion [N]-CA--CB-[CG] |==|  0.48625
USER: genes 5 Torsion [CA]-CB--CG-[CD] |==|  0.51261
USER: genes 6 Torsion [CB]-CG--CD-[OE1] |==|  0.14889
USER: genes 7 Torsion [N]-CA--C-[N] |==|  0.88400
USER: genes 8 Torsion [C]-N--CA-[CB] |==|  0.40457
USER: genes 9 Torsion [N]-CA--C-[N] |==|  0.95058
USER: genes 10 Torsion [C]-N--CA-[CB] |==|  0.45294
USER: genes 11 Torsion [N]-CA--C-[O] |==|  0.99994
USER: genes 12 Torsion [N]-CA--CB-[CG2] |==|  0.84275
USER: genes 13 Torsion [CA]-CB--OG1-[HG1] |==|  0.49979
USER: genes 14 Torsion [C]-CA--CB-[CG] |==|  0.36109
USER: genes 15 Torsion [CA]-CB--CG-[CD] |==|  0.81942
USER: genes 16 Torsion [CB]-CG--CD-[CE] |==|  0.52116
USER: genes 17 Torsion [CG]-CD--CE-[NZ] |==|  0.81016
USER: genes 18 Torsion [CD]-CE--NZ-[HZ2] |==|  0.68996
USER: genes 19 Torsion [C]-CA--N-[C] |==|  0.84999
USER: genes 20 Torsion [N]-C--CA-[N] |==|  0.46663
USER: genes 21 Torsion [C]-CA--CB-[CG2] |==|  0.51536
USER: genes 22 Torsion [CA]-CB--OG1-[HG1] |==|  0.49960
USER: genes 23 Torsion [C]-CA--N-[C] |==|  0.65392
USER: genes 24 Torsion [N]-C--CA-[N] |==|  0.39723
USER: genes 25 Torsion [C]-CA--CB-[CG] |==|  0.47958
USER: genes 26 Torsion [CA]-CB--CG-[CD] |==|  0.50910
USER: genes 27 Torsion [CB]-CG--CD-[NE] |==|  0.81765
USER: genes 28 Torsion [CG]-CD--NE-[HE] |==|  0.90221
USER: genes 29 Torsion [C]-CA--N-[C] |==|  0.77583
USER: genes 30 Torsion [N]-C--CA-[N] |==|  0.41026
USER: genes 31 Torsion [C]-CA--N-[H2] |==|  0.82855
ROOT
ATOM      1  CA  LYS B   4     -13.519   6.960  13.067  1.00 37.28 LIG 0.18  C 
ENDROOT
BRANCH 1 2
ATOM      2  C   LYS B   4     -14.382   7.513  14.179  1.00 39.57 LIG 0.24  C 
ATOM      3 O    LYS B   4     -15.595   7.676  14.030  1.00 42.15 LIG-0.27  OA
ATOM      4  N   GLN B   5     -13.752   7.796  15.306  1.00 37.54 LIG-0.35  N 
ATOM      5 H    GLN B   5     -12.904   7.716  15.429  1.00 37.54 LIG 0.16  HD
BRANCH 4 6
ATOM      6  CA  GLN B   5     -14.500   8.277  16.447  1.00 44.43 LIG 0.18  C 
BRANCH 6 7
ATOM      7  CB  GLN B   5     -13.673   8.182  17.717  1.00 42.91 LIG 0.04  C 
BRANCH 7 8
ATOM      8  CG  GLN B   5     -14.381   8.782  18.882  1.00 46.61 LIG 0.10  C 
BRANCH 8 9
ATOM      9  CD  GLN B   5     -13.528   8.786  20.100  1.00 50.89 LIG 0.21  C 
ATOM     10  NE2 GLN B   5     -14.055   8.216  21.186  1.00 54.67 LIG-0.37  N 
ATOM     11 21HE GLN B   5     -14.846   7.881  21.155  1.00 54.67 LIG 0.16  HD
ATOM     12 22HE GLN B   5     -13.604   8.185  21.917  1.00 54.67 LIG 0.16  HD
ATOM     13 OE1  GLN B   5     -12.393   9.287  20.083  1.00 48.99 LIG-0.27  OA
ENDBRANCH 8 9
ENDBRANCH 7 8
ENDBRANCH 6 7
BRANCH 6 14
ATOM     14  C   GLN B   5     -15.003   9.700  16.224  1.00 45.34 LIG 0.24  C 
ATOM     15 O    GLN B   5     -16.147  10.013  16.538  1.00 47.84 LIG-0.27  OA
ATOM     16  N   THR B   6     -14.162  10.554  15.652  1.00 44.99 LIG-0.34  N 
ATOM     17 H    THR B   6     -13.373  10.353  15.375  1.00 44.99 LIG 0.16  HD
BRANCH 16 18
ATOM     18  CA  THR B   6     -14.553  11.942  15.456  1.00 47.63 LIG 0.20  C 
BRANCH 18 19
ATOM     19  C   THR B   6     -15.277  12.155  14.125  1.00 49.11 LIG 0.24  C 
ATOM     20 O    THR B   6     -15.972  13.152  13.946  1.00 51.64 LIG-0.27  OA
ATOM     21  N   ALA B   7     -15.132  11.206  13.208  1.00 46.55 LIG-0.35  N 
ATOM     22 H    ALA B   7     -14.626  10.518  13.305  1.00 46.55 LIG 0.16  HD
BRANCH 21 23
ATOM     23  CA  ALA B   7     -15.838  11.260  11.932  1.00 49.58 LIG 0.16  C 
ATOM     24  CB  ALA B   7     -15.190  10.300  10.910  1.00 45.32 LIG 0.04  C 
BRANCH 23 25
ATOM     25  C   ALA B   7     -17.322  10.933  12.132  1.00 53.19 LIG 0.22  C 
ATOM     26 O    ALA B   7     -17.765  10.671  13.266  1.00 57.48 LIG-0.29  OA
ENDBRANCH 23 25
ENDBRANCH 21 23
ENDBRANCH 18 19
BRANCH 18 27
ATOM     27  CB  THR B   6     -13.356  12.913  15.607  1.00 48.13 LIG 0.15  C 
ATOM     28  CG2 THR B   6     -12.705  12.733  16.968  1.00 44.70 LIG 0.04  C 
BRANCH 27 29
ATOM     29 OG1  THR B   6     -12.392  12.680  14.566  1.00 42.78 LIG-0.39  OA
ATOM     30 HG1  THR B   6     -11.748  13.212  14.656  1.00 42.78 LIG 0.21  HD
ENDBRANCH 27 29
ENDBRANCH 18 27
ENDBRANCH 16 18
ENDBRANCH 6 14
ENDBRANCH 4 6
ENDBRANCH 1 2
BRANCH 1 31
ATOM     31  CB  LYS B   4     -13.401   5.445  13.253  1.00 35.55 LIG 0.04  C 
BRANCH 31 32
ATOM     32  CG  LYS B   4     -13.696   4.660  12.037  1.00 39.70 LIG 0.00  C 
BRANCH 32 33
ATOM     33  CD  LYS B   4     -15.141   4.837  11.646  1.00 40.13 LIG 0.03  C 
BRANCH 33 34
ATOM     34  CE  LYS B   4     -15.498   3.900  10.523  1.00 42.33 LIG 0.23  C 
BRANCH 34 35
ATOM     35  NZ  LYS B   4     -14.815   4.269   9.267  1.00 43.53 LIG-0.08  N 
ATOM     36 HZ3  LYS B   4     -14.219   4.910   9.431  1.00 43.53 LIG 0.27  HD
ATOM     37 HZ1  LYS B   4     -14.400   3.556   8.934  1.00 43.53 LIG 0.27  HD
ATOM     38 HZ2  LYS B   4     -15.413   4.565   8.679  1.00 43.53 LIG 0.27  HD
ENDBRANCH 34 35
ENDBRANCH 33 34
ENDBRANCH 32 33
ENDBRANCH 31 32
ENDBRANCH 1 31
BRANCH 1 39
ATOM     39  N   LYS B   4     -12.208   7.594  13.098  1.00 32.65 LIG-0.35  N 
ATOM     40  C   THR B   3     -12.070   8.914  13.076  1.00 34.58 LIG 0.24  C 
ATOM     41 O    THR B   3     -13.016   9.670  12.920  1.00 36.58 LIG-0.27  OA
ATOM     42 H    LYS B   4     -11.549   7.042  13.132  1.00 32.65 LIG 0.16  HD
BRANCH 40 43
ATOM     43  CA  THR B   3     -10.660   9.463  13.226  1.00 32.52 LIG 0.20  C 
BRANCH 43 44
ATOM     44  CB  THR B   3     -10.174   9.204  14.640  1.00 35.15 LIG 0.15  C 
ATOM     45  CG2 THR B   3      -8.827   9.859  14.858  1.00 35.84 LIG 0.04  C 
BRANCH 44 46
ATOM     46 OG1  THR B   3     -11.131   9.740  15.561  1.00 37.78 LIG-0.39  OA
ATOM     47 HG1  THR B   3     -10.872   9.600  16.347  1.00 37.78 LIG 0.21  HD
ENDBRANCH 44 46
ENDBRANCH 43 44
BRANCH 43 48
ATOM     48  N   THR B   3     -10.655  10.882  12.898  1.00 36.19 LIG-0.34  N 
ATOM     49  C   ARG B   2      -9.849  11.375  11.970  1.00 33.52 LIG 0.24  C 
ATOM     50 O    ARG B   2      -8.967  10.726  11.444  1.00 34.90 LIG-0.27  OA
ATOM     51 H    THR B   3     -11.212  11.354  13.352  1.00 36.19 LIG 0.16  HD
BRANCH 49 52
ATOM     52  CA  ARG B   2     -10.087  12.812  11.552  1.00 37.04 LIG 0.18  C 
BRANCH 52 53
ATOM     53  CB  ARG B   2     -10.948  12.786  10.303  1.00 37.98 LIG 0.04  C 
BRANCH 53 54
ATOM     54  CG  ARG B   2     -11.431  14.141   9.844  1.00 44.54 LIG 0.02  C 
BRANCH 54 55
ATOM     55  CD  ARG B   2     -12.322  13.907   8.660  1.00 45.57 LIG 0.14  C 
BRANCH 55 56
ATOM     56  NE  ARG B   2     -11.530  13.369   7.567  1.00 45.97 LIG-0.23  N 
ATOM     57  CZ  ARG B   2     -11.968  12.473   6.694  1.00 44.90 LIG 0.67  C 
ATOM     58  NH1 ARG B   2     -13.204  11.983   6.783  1.00 46.97 LIG-0.23  N 
ATOM     59  NH2 ARG B   2     -11.155  12.053   5.745  1.00 41.82 LIG-0.23  N 
ATOM     60 2HH1 ARG B   2     -13.478  11.402   6.211  1.00 46.97 LIG 0.17  HD
ATOM     61 1HH1 ARG B   2     -13.727  12.248   7.413  1.00 46.97 LIG 0.17  HD
ATOM     62 2HH2 ARG B   2     -11.426  11.472   5.173  1.00 41.82 LIG 0.17  HD
ATOM     63 1HH2 ARG B   2     -10.353  12.360   5.700  1.00 41.82 LIG 0.17  HD
ATOM     64 HE   ARG B   2     -10.722  13.650   7.481  1.00 45.97 LIG 0.18  HD
ENDBRANCH 55 56
ENDBRANCH 54 55
ENDBRANCH 53 54
ENDBRANCH 52 53
BRANCH 52 65
ATOM     65  N   ARG B   2      -8.815  13.468  11.297  1.00 35.35 LIG-0.35  N 
ATOM     66 H    ARG B   2      -8.594  13.518  10.467  1.00 35.35 LIG 0.16  HD
ATOM     67  C   ALA B   1      -8.082  13.941  12.293  1.00 38.28 LIG 0.25  C 
ATOM     68 O    ALA B   1      -8.467  13.920  13.461  1.00 39.08 LIG-0.27  OA
BRANCH 67 69
ATOM     69  CA  ALA B   1      -6.732  14.547  11.932  1.00 38.95 LIG 0.27  C 
ATOM     70  CB  ALA B   1      -5.637  13.492  11.951  1.00 37.91 LIG 0.05  C 
BRANCH 69 71
ATOM     71  N   ALA B   1      -6.406  15.634  12.854  1.00 44.33 LIG-0.07  N 
ATOM     72 H1   ALA B   1      -5.606  15.966  12.651  1.00 44.33 LIG 0.28  HD
ATOM     73 H2   ALA B   1      -7.019  16.276  12.785  1.00 44.33 LIG 0.28  HD
ATOM     74 H3   ALA B   1      -6.395  15.323  13.688  1.00 44.33 LIG 0.28  HD
ENDBRANCH 69 71
ENDBRANCH 67 69
ENDBRANCH 52 65
ENDBRANCH 49 52
ENDBRANCH 43 48
ENDBRANCH 40 43
ENDBRANCH 1 39
TORSDOF 30
