USER: ADFR SOLUTION from run 0
USER: SCORE 18.120948 LL:  -6.217 LR: -14.048 RR:   0.000 FEB:  -6.591
USER: RMSD 1.135379
USER: STATUS Locally minimized using BFGS
USER: GENES 27
USER: genes 0 Translation |==|  0.42519 0.51506 0.50662
USER: genes 1 Rotation |==|  0.52734 0.51684 0.47245 0.99821
USER: genes 2 Torsion [N]-CA--C-[N] |==|  0.39851
USER: genes 3 Torsion [C]-N--CA-[C] |==|  0.70061
USER: genes 4 Torsion [N]-CA--CB-[CG] |==|  0.74430
USER: genes 5 Torsion [CA]-CB--CG-[CD1] |==|  0.30398
USER: genes 6 Torsion [N]-CA--C-[N] |==|  0.38130
USER: genes 7 Torsion [C]-N--CA-[CB] |==|  0.31503
USER: genes 8 Torsion [N]-CA--CB-[CG] |==|  0.90934
USER: genes 9 Torsion [CA]-CB--CG-[CD1] |==|  0.86317
USER: genes 10 Torsion [N]-CA--C-[N] |==|  0.42296
USER: genes 11 Torsion [C]-N--CA-[C] |==|  0.71984
USER: genes 12 Torsion [N]-CA--C-[O] |==|  0.02002
USER: genes 13 Torsion [N]-CA--CB-[OG] |==|  0.15244
USER: genes 14 Torsion [CA]-CB--OG-[HG] |==|  0.50012
USER: genes 15 Torsion [N]-C--CA-[N] |==|  0.36469
USER: genes 16 Torsion [C]-CA--N-[C] |==|  0.72703
USER: genes 17 Torsion [N]-C--CA-[N] |==|  0.35000
USER: genes 18 Torsion [C]-CA--N-[C] |==|  0.65777
USER: genes 19 Torsion [N]-C--CA-[N] |==|  0.33015
USER: genes 20 Torsion [C]-CA--CB-[CG] |==|  0.17130
USER: genes 21 Torsion [CA]-CB--CG-[CD] |==|  0.65481
USER: genes 22 Torsion [CB]-CG--CD-[OE1] |==|  0.11484
USER: genes 23 Torsion [C]-CA--CB-[CG] |==|  0.33218
USER: genes 24 Torsion [CA]-CB--CG-[CD2] |==|  0.20243
USER: genes 25 Torsion [C]-CA--CB-[CG] |==|  0.52156
USER: genes 26 Torsion [CA]-CB--CG-[CD2] |==|  0.67433
ROOT
ATOM      1  C   LEU D   6      15.774  12.190  42.800  1.00 70.97 LIG 0.24  C 
ATOM      2 O    LEU D   6      15.710  13.360  43.147  1.00 69.80 LIG-0.27  OA
ATOM      3  N   PRO D   7      16.744  11.371  43.239  1.00 67.36 LIG-0.34  N 
ATOM      4  CA  PRO D   7      17.756  11.888  44.157  1.00 66.95 LIG 0.18  C 
ATOM      5  CB  PRO D   7      18.077  10.672  45.042  1.00 69.23 LIG 0.04  C 
ATOM      6  CG  PRO D   7      17.618   9.448  44.242  1.00 73.99 LIG 0.02  C 
ATOM      7  CD  PRO D   7      16.962   9.934  42.975  1.00 69.55 LIG 0.13  C 
ENDROOT
BRANCH 4 8
ATOM      8  C   PRO D   7      18.990  12.403  43.423  1.00 67.39 LIG 0.24  C 
ATOM      9  N   LEU D   8      19.565  13.481  43.945  1.00 63.51 LIG-0.35  N 
ATOM     10 H    LEU D   8      19.252  13.905  44.625  1.00 63.51 LIG 0.16  HD
ATOM     11 O    PRO D   7      19.415  11.841  42.411  1.00 65.73 LIG-0.27  OA
BRANCH 9 12
ATOM     12  CA  LEU D   8      20.788  14.045  43.410  1.00 63.43 LIG 0.18  C 
BRANCH 12 13
ATOM     13  CB  LEU D   8      20.635  15.535  43.122  1.00 63.06 LIG 0.04  C 
BRANCH 13 14
ATOM     14  CG  LEU D   8      20.193  15.804  41.704  1.00 67.32 LIG-0.02  C 
ATOM     15  CD1 LEU D   8      18.792  16.297  41.668  1.00 66.57 LIG 0.01  C 
ATOM     16  CD2 LEU D   8      21.146  16.731  40.999  1.00 70.19 LIG 0.01  C 
ENDBRANCH 13 14
ENDBRANCH 12 13
BRANCH 12 17
ATOM     17  C   LEU D   8      21.941  13.769  44.348  1.00 69.22 LIG 0.24  C 
ATOM     18  N   PHE D   9      23.099  13.385  43.795  1.00 66.75 LIG-0.35  N 
ATOM     19 H    PHE D   9      23.210  13.289  42.948  1.00 66.75 LIG 0.16  HD
ATOM     20 O    LEU D   8      21.769  13.851  45.564  1.00 69.38 LIG-0.27  OA
BRANCH 18 21
ATOM     21  CA  PHE D   9      24.289  13.093  44.583  1.00 67.50 LIG 0.18  C 
BRANCH 21 22
ATOM     22  CB  PHE D   9      24.653  11.605  44.497  1.00 70.09 LIG 0.07  C 
BRANCH 22 23
ATOM     23  CG  PHE D   9      23.519  10.612  44.357  1.00 72.62 LIG-0.06  A 
ATOM     24  CD2 PHE D   9      23.600   9.568  43.443  1.00 75.26 LIG 0.01  A 
ATOM     25  CE2 PHE D   9      22.573   8.630  43.339  1.00 78.46 LIG 0.00  A 
ATOM     26  CZ  PHE D   9      21.462   8.728  44.151  1.00 76.95 LIG 0.00  A 
ATOM     27  CE1 PHE D   9      21.371   9.744  45.076  1.00 77.74 LIG 0.00  A 
ATOM     28  CD1 PHE D   9      22.413  10.663  45.203  1.00 76.53 LIG 0.01  A 
ENDBRANCH 22 23
ENDBRANCH 21 22
BRANCH 21 29
ATOM     29  C   PHE D   9      25.477  13.958  44.158  1.00 72.50 LIG 0.24  C 
ATOM     30 O    PHE D   9      25.547  14.391  43.005  1.00 71.57 LIG-0.27  OA
ATOM     31  N   SER D  10      26.408  14.225  45.093  1.00 70.70 LIG-0.34  N 
ATOM     32 H    SER D  10      26.359  13.947  45.905  1.00 70.70 LIG 0.16  HD
BRANCH 31 33
ATOM     33  CA  SER D  10      27.605  15.025  44.808  1.00110.54 LIG 0.19  C 
BRANCH 33 34
ATOM     34  C   SER D  10      28.831  14.133  44.599  1.00112.68 LIG 0.22  C 
ATOM     35 O    SER D  10      28.700  12.911  44.547  1.00 61.17 LIG-0.29  OA
ENDBRANCH 33 34
BRANCH 33 36
ATOM     36  CB  SER D  10      27.860  16.040  45.919  1.00114.99 LIG 0.20  C 
BRANCH 36 37
ATOM     37 OG   SER D  10      27.941  15.421  47.194  1.00125.63 LIG-0.40  OA
ATOM     38 HG   SER D  10      28.081  16.005  47.781  1.00125.63 LIG 0.21  HD
ENDBRANCH 36 37
ENDBRANCH 33 36
ENDBRANCH 31 33
ENDBRANCH 21 29
ENDBRANCH 18 21
ENDBRANCH 12 17
ENDBRANCH 9 12
ENDBRANCH 4 8
BRANCH 1 39
ATOM     39  CA  LEU D   6      14.773  11.645  41.820  1.00 70.47 LIG 0.18  C 
BRANCH 39 40
ATOM     40  N   LEU D   6      13.372  11.892  42.122  1.00 72.03 LIG-0.35  N 
ATOM     41  C   PHE D   5      12.628  10.956  42.711  1.00 78.51 LIG 0.24  C 
ATOM     42 O    PHE D   5      13.075   9.859  43.067  1.00 77.96 LIG-0.27  OA
ATOM     43 H    LEU D   6      13.084  12.668  41.892  1.00 72.03 LIG 0.16  HD
BRANCH 41 44
ATOM     44  CA  PHE D   5      11.150  11.254  42.823  1.00 78.26 LIG 0.18  C 
BRANCH 44 45
ATOM     45  N   PHE D   5      10.387  10.149  42.238  1.00 79.00 LIG-0.34  N 
ATOM     46 H    PHE D   5      10.550   9.378  42.585  1.00 79.00 LIG 0.16  HD
ATOM     47  C   GLU D   4       9.515  10.355  41.248  1.00 84.09 LIG 0.26  C 
ATOM     48 O    GLU D   4       9.227  11.475  40.830  1.00 84.89 LIG-0.27  OA
BRANCH 47 49
ATOM     49  CA  GLU D   4       8.850   9.138  40.630  1.00 80.59 LIG 0.40  C 
ATOM     50  N   GLU D   4       7.404   9.205  40.812  1.00 81.26 LIG 0.61  N 
BRANCH 49 51
ATOM     51  CB  GLU D   4       9.198   9.067  39.126  1.00 81.69 LIG 0.06  C 
BRANCH 51 52
ATOM     52  CG  GLU D   4      10.682   8.917  38.835  1.00 88.66 LIG 0.12  C 
BRANCH 52 53
ATOM     53  CD  GLU D   4      11.291   9.969  37.925  1.00 99.07 LIG 0.17  C 
ATOM     54 OE1  GLU D   4      10.956  11.167  38.074  1.00 74.80 LIG-0.65  OA
ATOM     55 OE2  GLU D   4      12.165   9.599  37.108  1.00 93.08 LIG-0.65  OA
ENDBRANCH 52 53
ENDBRANCH 51 52
ENDBRANCH 49 51
ENDBRANCH 47 49
ENDBRANCH 44 45
BRANCH 44 56
ATOM     56  CB  PHE D   5      10.690  11.637  44.232  1.00 80.27 LIG 0.07  C 
BRANCH 56 57
ATOM     57  CG  PHE D   5      10.086  13.022  44.287  1.00 81.89 LIG-0.06  A 
ATOM     58  CD2 PHE D   5       8.825  13.274  43.749  1.00 84.17 LIG 0.01  A 
ATOM     59  CE2 PHE D   5       8.271  14.557  43.791  1.00 86.81 LIG 0.00  A 
ATOM     60  CZ  PHE D   5       8.967  15.589  44.382  1.00 84.76 LIG 0.00  A 
ATOM     61  CE1 PHE D   5      10.221  15.360  44.909  1.00 85.59 LIG 0.00  A 
ATOM     62  CD1 PHE D   5      10.782  14.079  44.857  1.00 84.61 LIG 0.01  A 
ENDBRANCH 56 57
ENDBRANCH 44 56
ENDBRANCH 41 44
ENDBRANCH 39 40
BRANCH 39 63
ATOM     63  CB  LEU D   6      15.105  12.089  40.399  1.00 70.57 LIG 0.04  C 
BRANCH 63 64
ATOM     64  CG  LEU D   6      14.052  11.744  39.369  1.00 75.48 LIG-0.02  C 
ATOM     65  CD2 LEU D   6      14.585  10.824  38.360  1.00 78.97 LIG 0.01  C 
ATOM     66  CD1 LEU D   6      13.528  12.960  38.726  1.00 75.94 LIG 0.01  C 
ENDBRANCH 63 64
ENDBRANCH 39 63
ENDBRANCH 1 39
TORSDOF 25
