USER: ADFR SOLUTION from run 0
USER: SCORE 12.115558 LL:  -4.286 LR:  -7.888 RR:   0.000 FEB:  -4.309
USER: RMSD 0.699540
USER: STATUS Locally minimized using BFGS
USER: GENES 14
USER: genes 0 Translation |==|  0.54933 0.53500 0.44466
USER: genes 1 Rotation |==|  0.47986 0.53321 0.47224 0.99772
USER: genes 2 Torsion [N]-CA--C-[O] |==|  0.57487
USER: genes 3 Torsion [C]-N--CA-[CB] |==|  0.23682
USER: genes 4 Torsion [N]-CA--CB-[CG] |==|  0.08609
USER: genes 5 Torsion [CA]-CB--CG-[CD2] |==|  0.76372
USER: genes 6 Torsion [N]-CA--C-[OXT] |==|  0.43612
USER: genes 7 Torsion [N]-C--CA-[N] |==|  0.35559
USER: genes 8 Torsion [C]-CA--CB-[CG2] |==|  0.12208
USER: genes 9 Torsion [CA]-CB--CG1-[CD1] |==|  0.45336
USER: genes 10 Torsion [C]-CA--N-[C] |==|  0.78020
USER: genes 11 Torsion [N]-C--CA-[N] |==|  0.38990
USER: genes 12 Torsion [C]-CA--CB-[CG] |==|  0.51028
USER: genes 13 Torsion [CA]-CB--CG-[OD1] |==|  0.07221
ROOT
ATOM      1  C   ILE C 175     -71.256  -9.033  22.458  1.00 65.51 LIG 0.24  C 
ATOM      2 O    ILE C 175     -72.387  -8.591  22.687  1.00 66.37 LIG-0.27  OA
ATOM      3  N   PRO C 176     -70.345  -8.365  21.715  1.00 64.39 LIG-0.34  N 
ATOM      4  CA  PRO C 176     -70.578  -7.010  21.203  1.00 64.23 LIG 0.18  C 
ATOM      5  CB  PRO C 176     -69.154  -6.442  21.043  1.00 63.87 LIG 0.04  C 
ATOM      6  CG  PRO C 176     -68.200  -7.580  21.370  1.00 63.56 LIG 0.02  C 
ATOM      7  CD  PRO C 176     -68.996  -8.840  21.368  1.00 63.45 LIG 0.13  C 
ENDROOT
BRANCH 4 8
ATOM      8  C   PRO C 176     -71.340  -6.946  19.869  1.00 63.07 LIG 0.24  C 
ATOM      9  N   PHE C 177     -72.170  -7.951  19.598  1.00 62.32 LIG-0.34  N 
ATOM     10 H    PHE C 177     -72.253  -8.649  20.094  1.00 62.32 LIG 0.16  HD
ATOM     11 O    PRO C 176     -71.174  -5.987  19.108  1.00 62.88 LIG-0.27  OA
BRANCH 9 12
ATOM     12  CA  PHE C 177     -73.030  -7.956  18.409  1.00 61.42 LIG 0.19  C 
BRANCH 12 13
ATOM     13  CB  PHE C 177     -72.292  -8.503  17.171  1.00 59.64 LIG 0.07  C 
BRANCH 13 14
ATOM     14  CG  PHE C 177     -71.243  -9.538  17.484  1.00 58.09 LIG-0.06  A 
ATOM     15  CD1 PHE C 177     -71.539 -10.898  17.407  1.00 57.17 LIG 0.01  A 
ATOM     16  CE1 PHE C 177     -70.568 -11.860  17.693  1.00 55.93 LIG 0.00  A 
ATOM     17  CZ  PHE C 177     -69.283 -11.462  18.053  1.00 55.64 LIG 0.00  A 
ATOM     18  CE2 PHE C 177     -68.974 -10.105  18.128  1.00 56.04 LIG 0.00  A 
ATOM     19  CD2 PHE C 177     -69.953  -9.153  17.841  1.00 56.91 LIG 0.01  A 
ENDBRANCH 13 14
ENDBRANCH 12 13
BRANCH 12 20
ATOM     20  C   PHE C 177     -74.337  -8.713  18.648  1.00 62.04 LIG 0.20  C 
ATOM     21 O    PHE C 177     -74.431  -9.567  19.530  1.00 62.52 LIG-0.65  OA
ATOM     22 OXT  PHE C 177     -75.335  -8.485  17.962  1.00 62.11 LIG-0.65  OA
ENDBRANCH 12 20
ENDBRANCH 9 12
ENDBRANCH 4 8
BRANCH 1 23
ATOM     23  CA  ILE C 175     -70.834 -10.392  23.026  1.00 65.77 LIG 0.18  C 
BRANCH 23 24
ATOM     24  CB  ILE C 175     -71.560 -11.549  22.289  1.00 65.27 LIG 0.01  C 
ATOM     25  CG2 ILE C 175     -71.560 -11.313  20.782  1.00 63.89 LIG 0.01  C 
BRANCH 24 26
ATOM     26  CG1 ILE C 175     -70.903 -12.894  22.629  1.00 65.41 LIG 0.00  C 
ATOM     27  CD1 ILE C 175     -71.750 -14.111  22.300  1.00 65.60 LIG 0.01  C 
ENDBRANCH 24 26
ENDBRANCH 23 24
BRANCH 23 28
ATOM     28  N   ILE C 175     -71.083 -10.440  24.468  1.00 67.68 LIG-0.34  N 
ATOM     29 H    ILE C 175     -71.799 -10.865  24.684  1.00 67.68 LIG 0.16  HD
ATOM     30  C   ASP C 174     -70.271  -9.874  25.359  1.00 68.58 LIG 0.26  C 
ATOM     31 O    ASP C 174     -69.264  -9.228  25.050  1.00 68.06 LIG-0.27  OA
BRANCH 30 32
ATOM     32  CA  ASP C 174     -70.651 -10.071  26.823  1.00 70.51 LIG 0.41  C 
ATOM     33  N   ASP C 174     -69.437 -10.309  27.660  1.00 70.88 LIG 0.61  N 
BRANCH 32 34
ATOM     34  CB  ASP C 174     -71.437  -8.857  27.337  1.00 71.81 LIG 0.16  C 
BRANCH 34 35
ATOM     35  CG  ASP C 174     -71.768  -8.954  28.818  1.00 74.09 LIG 0.17  C 
ATOM     36 OD1  ASP C 174     -71.031  -9.642  29.560  1.00 74.88 LIG-0.65  OA
ATOM     37 OD2  ASP C 174     -72.767  -8.336  29.244  1.00 75.75 LIG-0.65  OA
ENDBRANCH 34 35
ENDBRANCH 32 34
ENDBRANCH 30 32
ENDBRANCH 23 28
ENDBRANCH 1 23
TORSDOF 12
