USER: ADFR SOLUTION from run 0
USER: SCORE 7.749222 LL:  -1.376 LR:  -6.426 RR:   0.000 FEB:  -4.039
USER: RMSD 0.777879
USER: STATUS Locally minimized using BFGS
USER: GENES 10
USER: genes 0 Translation |==|  0.51547 0.49294 0.64107
USER: genes 1 Rotation |==|  0.49653 0.51373 0.45486 0.99776
USER: genes 2 Torsion [C]-CA--N-[C] |==|  0.79194
USER: genes 3 Torsion [N]-C--CA-[N] |==|  0.41837
USER: genes 4 Torsion [C]-CA--N-[H3] |==|  0.25387
USER: genes 5 Torsion [N]-CA--C-[N] |==|  0.35556
USER: genes 6 Torsion [C]-N--CA-[CB] |==|  0.18193
USER: genes 7 Torsion [N]-CA--C-[O] |==|  0.00831
USER: genes 8 Torsion [N]-CA--CB-[CG] |==|  0.82119
USER: genes 9 Torsion [CA]-CB--CG-[ND1] |==|  0.94374
ROOT
ATOM      1  CA  HIS F   2      -1.105  30.477 -16.877  1.00 30.59 LIG 0.18  C 
ENDROOT
BRANCH 1 2
ATOM      2  N   HIS F   2      -0.861  30.782 -18.291  1.00 30.70 LIG-0.35  N 
ATOM      3  C   ALA F   1      -1.677  30.387 -19.266  1.00 31.15 LIG 0.25  C 
ATOM      4 O    ALA F   1      -2.702  29.725 -19.072  1.00 30.37 LIG-0.27  OA
ATOM      5 H    HIS F   2      -0.144  31.237 -18.429  1.00 30.70 LIG 0.16  HD
BRANCH 3 6
ATOM      6  CA  ALA F   1      -1.272  30.803 -20.686  1.00 31.15 LIG 0.27  C 
ATOM      7  CB  ALA F   1      -1.207  32.045 -20.897  0.00 20.00 LIG 0.05  C 
BRANCH 6 8
ATOM      8  N   ALA F   1      -1.751  29.813 -21.709  1.00 31.97 LIG-0.07  N 
ATOM      9 H3   ALA F   1      -2.554  30.056 -22.005  1.00 31.97 LIG 0.28  HD
ATOM     10 H1   ALA F   1      -1.179  29.788 -22.390  1.00 31.97 LIG 0.28  HD
ATOM     11 H2   ALA F   1      -1.804  29.005 -21.338  1.00 31.97 LIG 0.28  HD
ENDBRANCH 6 8
ENDBRANCH 3 6
ENDBRANCH 1 2
BRANCH 1 12
ATOM     12  C   HIS F   2      -2.230  31.356 -16.314  1.00 31.15 LIG 0.24  C 
ATOM     13 O    HIS F   2      -2.195  32.594 -16.446  1.00 30.80 LIG-0.27  OA
ATOM     14  N   ALA F   3      -3.223  30.711 -15.690  1.00 30.97 LIG-0.35  N 
ATOM     15 H    ALA F   3      -3.252  29.856 -15.601  1.00 30.97 LIG 0.16  HD
BRANCH 14 16
ATOM     16  CA  ALA F   3      -4.360  31.411 -15.096  1.00 31.72 LIG 0.16  C 
ATOM     17  CB  ALA F   3      -5.134  32.060 -16.270  0.00 20.00 LIG 0.04  C 
BRANCH 16 18
ATOM     18  C   ALA F   3      -5.469  30.478 -14.617  1.00 32.37 LIG 0.22  C 
ATOM     19 O    ALA F   3      -5.341  29.247 -14.693  1.00 33.75 LIG-0.29  OA
ENDBRANCH 16 18
ENDBRANCH 14 16
ENDBRANCH 1 12
BRANCH 1 20
ATOM     20  CB  HIS F   2       0.177  30.682 -16.052  1.00 30.20 LIG 0.10  C 
BRANCH 20 21
ATOM     21  CG  HIS F   2       1.305  29.750 -16.406  1.00 29.66 LIG 0.06  A 
ATOM     22 ND1  HIS F   2       1.119  28.553 -17.068  1.00 29.25 LIG-0.24  NA
ATOM     23  CE1 HIS F   2       2.283  27.939 -17.212  1.00 27.69 LIG 0.23  A 
ATOM     24 NE2  HIS F   2       3.221  28.688 -16.652  1.00 31.40 LIG-0.25  NA
ATOM     25  CD2 HIS F   2       2.632  29.819 -16.126  1.00 30.69 LIG 0.14  A 
ENDBRANCH 20 21
ENDBRANCH 1 20
TORSDOF 8
