USER: ADFR SOLUTION from run 0
USER: SCORE 14.572100 LL:  -1.034 LR: -13.815 RR:   0.000 FEB:  -9.639
USER: RMSD 0.534521
USER: STATUS Locally minimized using BFGS
USER: GENES 16
USER: genes 0 Translation |==|  0.35096 0.35236 0.53262
USER: genes 1 Rotation |==|  0.49477 0.48813 0.47886 0.99938
USER: genes 2 Torsion [N]-C--CA-[N] |==|  0.39550
USER: genes 3 Torsion [C]-CA--CB-[CG] |==|  0.74408
USER: genes 4 Torsion [CA]-CB--CG-[CD] |==|  0.48518
USER: genes 5 Torsion [CB]-CG--CD-[CE] |==|  0.43163
USER: genes 6 Torsion [CG]-CD--CE-[NZ] |==|  0.01557
USER: genes 7 Torsion [CD]-CE--NZ-[HZ2] |==|  0.83116
USER: genes 8 Torsion [C]-CA--N-[H2] |==|  0.75884
USER: genes 9 Torsion [C]-N--CA-[C] |==|  0.76829
USER: genes 10 Torsion [N]-CA--C-[N] |==|  0.39082
USER: genes 11 Torsion [C]-N--CA-[C] |==|  0.61307
USER: genes 12 Torsion [N]-CA--C-[O] |==|  0.38295
USER: genes 13 Torsion [N]-CA--CB-[CG] |==|  0.43860
USER: genes 14 Torsion [CA]-CB--CG-[CD] |==|  0.19744
USER: genes 15 Torsion [CB]-CG--CD-[OE2] |==|  0.66907
ROOT
ATOM      1  C   LYS I   1      13.882 -24.005  11.517  1.00 18.69 LIG 0.25  C 
ATOM      2 O    LYS I   1      14.660 -23.790  12.422  1.00 17.50 LIG-0.27  OA
ATOM      3  N   GLY I   2      14.124 -24.856  10.521  1.00 19.29 LIG-0.35  N 
ATOM      4 H    GLY I   2      13.573 -24.998   9.876  1.00 19.29 LIG 0.16  HD
ENDROOT
BRANCH 1 5
ATOM      5  CA  LYS I   1      12.544 -23.283  11.482  1.00 19.30 LIG 0.27  C 
BRANCH 5 6
ATOM      6  CB  LYS I   1      12.705 -21.914  10.796  1.00 20.67 LIG 0.04  C 
BRANCH 6 7
ATOM      7  CG  LYS I   1      13.001 -20.737  11.702  1.00 22.16 LIG 0.00  C 
BRANCH 7 8
ATOM      8  CD  LYS I   1      13.259 -19.502  10.837  1.00 24.26 LIG 0.03  C 
BRANCH 8 9
ATOM      9  CE  LYS I   1      13.002 -18.171  11.502  1.00 26.09 LIG 0.23  C 
BRANCH 9 10
ATOM     10  NZ  LYS I   1      12.656 -18.228  12.952  1.00 28.14 LIG-0.08  N 
ATOM     11 HZ2  LYS I   1      11.909 -18.700  13.061  1.00 28.14 LIG 0.27  HD
ATOM     12 HZ1  LYS I   1      12.534 -17.403  13.261  1.00 28.14 LIG 0.27  HD
ATOM     13 HZ3  LYS I   1      13.319 -18.617  13.400  1.00 28.14 LIG 0.27  HD
ENDBRANCH 9 10
ENDBRANCH 8 9
ENDBRANCH 7 8
ENDBRANCH 6 7
ENDBRANCH 5 6
BRANCH 5 14
ATOM     14  N   LYS I   1      11.982 -23.134  12.860  1.00 18.10 LIG-0.07  N 
ATOM     15 H3   LYS I   1      12.647 -23.031  13.442  1.00 18.10 LIG 0.28  HD
ATOM     16 H1   LYS I   1      11.450 -22.420  12.888  1.00 18.10 LIG 0.28  HD
ATOM     17 H2   LYS I   1      11.513 -23.861  13.070  1.00 18.10 LIG 0.28  HD
ENDBRANCH 5 14
ENDBRANCH 1 5
BRANCH 3 18
ATOM     18  CA  GLY I   2      15.362 -25.639  10.425  1.00 20.06 LIG 0.23  C 
BRANCH 18 19
ATOM     19  C   GLY I   2      16.497 -24.862   9.795  1.00 20.91 LIG 0.23  C 
ATOM     20 O    GLY I   2      16.298 -24.123   8.835  1.00 20.34 LIG-0.27  OA
ATOM     21  N   GLU I   3      17.701 -25.044  10.327  1.00 23.55 LIG-0.35  N 
ATOM     22 H    GLU I   3      17.874 -25.634  10.928  1.00 23.55 LIG 0.16  HD
BRANCH 21 23
ATOM     23  CA  GLU I   3      18.853 -24.240   9.927  1.00 24.92 LIG 0.16  C 
BRANCH 23 24
ATOM     24  C   GLU I   3      20.098 -25.110   9.811  1.00 25.70 LIG 0.22  C 
ATOM     25 O    GLU I   3      20.865 -24.943   8.865  1.00 27.47 LIG-0.29  OA
ENDBRANCH 23 24
BRANCH 23 26
ATOM     26  CB  GLU I   3      19.033 -23.109  10.937  1.00 26.58 LIG 0.04  C 
BRANCH 26 27
ATOM     27  CG  GLU I   3      20.411 -22.450  11.060  1.00 29.64 LIG 0.12  C 
BRANCH 27 28
ATOM     28  CD  GLU I   3      20.815 -21.579   9.886  1.00 32.56 LIG 0.17  C 
ATOM     29 OE2  GLU I   3      21.845 -21.905   9.252  1.00 37.52 LIG-0.65  OA
ATOM     30 OE1  GLU I   3      20.150 -20.550   9.625  1.00 34.95 LIG-0.65  OA
ENDBRANCH 27 28
ENDBRANCH 26 27
ENDBRANCH 23 26
ENDBRANCH 21 23
ENDBRANCH 18 19
ENDBRANCH 3 18
TORSDOF 14
