USER: ADFR SOLUTION from run 0
USER: SCORE 12.967587 LL:  -4.616 LR:  -8.422 RR:   0.000 FEB:  -4.842
USER: RMSD 0.816319
USER: STATUS Locally minimized using BFGS
USER: GENES 14
USER: genes 0 Translation |==|  0.42501 0.49348 0.52982
USER: genes 1 Rotation |==|  0.51558 0.52646 0.51896 0.99870
USER: genes 2 Torsion [N]-C--CA-[N] |==|  0.40663
USER: genes 3 Torsion [C]-CA--CB-[CG] |==|  0.41746
USER: genes 4 Torsion [CA]-CB--CG-[CD2] |==|  0.87246
USER: genes 5 Torsion [C]-CA--N-[C] |==|  0.84444
USER: genes 6 Torsion [N]-C--CA-[N] |==|  0.86018
USER: genes 7 Torsion [C]-CA--CB-[CG] |==|  0.78395
USER: genes 8 Torsion [CA]-CB--CG-[OD2] |==|  0.00348
USER: genes 9 Torsion [N]-CA--C-[N] |==|  0.06086
USER: genes 10 Torsion [C]-N--CA-[CB] |==|  0.20923
USER: genes 11 Torsion [N]-CA--CB-[CG] |==|  0.11544
USER: genes 12 Torsion [CA]-CB--CG-[CD2] |==|  0.16365
USER: genes 13 Torsion [N]-CA--C-[O] |==|  0.51400
ROOT
ATOM      1  C   LEU B 299     -17.631   0.451  14.303  1.00 46.80 LIG 0.24  C 
ATOM      2 O    LEU B 299     -18.280  -0.004  13.350  1.00 48.15 LIG-0.27  OA
ATOM      3  N   PRO B 300     -18.218   1.086  15.340  1.00 44.47 LIG-0.34  N 
ATOM      4  CA  PRO B 300     -19.674   1.301  15.363  1.00 41.25 LIG 0.18  C 
ATOM      5  CB  PRO B 300     -19.995   1.243  16.859  1.00 41.07 LIG 0.04  C 
ATOM      6  CG  PRO B 300     -18.754   1.825  17.517  1.00 41.88 LIG 0.02  C 
ATOM      7  CD  PRO B 300     -17.580   1.554  16.593  1.00 43.19 LIG 0.13  C 
ENDROOT
BRANCH 1 8
ATOM      8  CA  LEU B 299     -16.101   0.285  14.358  1.00 51.80 LIG 0.18  C 
BRANCH 8 9
ATOM      9  CB  LEU B 299     -15.384   1.509  13.785  1.00 51.70 LIG 0.04  C 
BRANCH 9 10
ATOM     10  CG  LEU B 299     -13.998   1.848  14.353  1.00 53.57 LIG-0.02  C 
ATOM     11  CD2 LEU B 299     -13.955   1.791  15.878  1.00 54.40 LIG 0.01  C 
ATOM     12  CD1 LEU B 299     -13.550   3.215  13.868  1.00 50.77 LIG 0.01  C 
ENDBRANCH 9 10
ENDBRANCH 8 9
BRANCH 8 13
ATOM     13  N   LEU B 299     -15.611  -0.963  13.743  1.00 58.35 LIG-0.35  N 
ATOM     14  C   ASP B 298     -16.060  -2.154  14.146  1.00 67.04 LIG 0.26  C 
ATOM     15 O    ASP B 298     -16.943  -2.271  15.017  1.00 64.28 LIG-0.27  OA
ATOM     16 H    LEU B 299     -15.028  -0.851  13.121  1.00 58.35 LIG 0.16  HD
BRANCH 14 17
ATOM     17  CA  ASP B 298     -15.442  -3.418  13.485  1.00 70.29 LIG 0.41  C 
ATOM     18  N   ASP B 298     -15.426  -3.386  11.990  1.00 66.44 LIG 0.61  N 
BRANCH 17 19
ATOM     19  CB  ASP B 298     -14.038  -3.734  14.046  1.00 75.12 LIG 0.16  C 
BRANCH 19 20
ATOM     20  CG  ASP B 298     -12.939  -2.831  13.468  1.00 83.78 LIG 0.17  C 
ATOM     21 OD2  ASP B 298     -13.240  -1.934  12.647  1.00 86.97 LIG-0.65  OA
ATOM     22 OD1  ASP B 298     -11.760  -3.019  13.840  1.00 89.47 LIG-0.65  OA
ENDBRANCH 19 20
ENDBRANCH 17 19
ENDBRANCH 14 17
ENDBRANCH 8 13
ENDBRANCH 1 8
BRANCH 4 23
ATOM     23  C   PRO B 300     -20.077   2.665  14.724  1.00 41.91 LIG 0.24  C 
ATOM     24  N   PHE B 301     -19.190   3.192  13.883  1.00 41.99 LIG-0.34  N 
ATOM     25 H    PHE B 301     -18.431   2.819  13.726  1.00 41.99 LIG 0.16  HD
ATOM     26 O    PRO B 300     -21.163   3.192  14.994  1.00 39.52 LIG-0.27  OA
BRANCH 24 27
ATOM     27  CA  PHE B 301     -19.374   4.444  13.129  1.00 41.99 LIG 0.19  C 
BRANCH 27 28
ATOM     28  CB  PHE B 301     -19.204   5.680  14.039  1.00 39.59 LIG 0.07  C 
BRANCH 28 29
ATOM     29  CG  PHE B 301     -18.052   5.579  15.028  1.00 41.19 LIG-0.06  A 
ATOM     30  CD1 PHE B 301     -18.289   5.691  16.392  1.00 38.91 LIG 0.01  A 
ATOM     31  CE1 PHE B 301     -17.244   5.606  17.315  1.00 39.99 LIG 0.00  A 
ATOM     32  CZ  PHE B 301     -15.940   5.437  16.875  1.00 37.57 LIG 0.00  A 
ATOM     33  CE2 PHE B 301     -15.686   5.327  15.510  1.00 41.60 LIG 0.00  A 
ATOM     34  CD2 PHE B 301     -16.737   5.390  14.595  1.00 40.14 LIG 0.01  A 
ENDBRANCH 28 29
ENDBRANCH 27 28
BRANCH 27 35
ATOM     35  C   PHE B 301     -18.376   4.466  11.965  1.00 45.15 LIG 0.20  C 
ATOM     36 O    PHE B 301     -18.224   5.435  11.198  1.00 42.31 LIG-0.65  OA
ATOM     37 OXT  PHE B 301     -17.654   3.472  11.782  1.00 47.06 LIG-0.65  OA
ENDBRANCH 27 35
ENDBRANCH 24 27
ENDBRANCH 4 23
TORSDOF 12
