USER: ADFR SOLUTION from run 0
USER: SCORE 19.213847 LL:  -2.028 LR: -17.480 RR:   0.000 FEB: -12.707
USER: RMSD 0.607057
USER: STATUS Locally minimized using BFGS
USER: GENES 18
USER: genes 0 Translation |==|  0.45963 0.47232 0.57803
USER: genes 1 Rotation |==|  0.48618 0.51203 0.50178 0.99966
USER: genes 2 Torsion [N]-C--CA-[N] |==|  0.30000
USER: genes 3 Torsion [C]-CA--CB-[CG] |==|  0.16277
USER: genes 4 Torsion [CA]-CB--CG-[CD] |==|  0.52788
USER: genes 5 Torsion [CB]-CG--CD-[NE] |==|  0.84102
USER: genes 6 Torsion [CG]-CD--NE-[CZ] |==|  0.30118
USER: genes 7 Torsion [C]-CA--N-[C] |==|  0.62785
USER: genes 8 Torsion [N]-C--CA-[N] |==|  0.45984
USER: genes 9 Torsion [C]-CA--CB-[CG2] |==|  0.76978
USER: genes 10 Torsion [C]-CA--N-[H3] |==|  0.09025
USER: genes 11 Torsion [N]-CA--C-[O] |==|  0.93493
USER: genes 12 Torsion [C]-N--CA-[C] |==|  0.69703
USER: genes 13 Torsion [N]-CA--CB-[CG] |==|  0.83801
USER: genes 14 Torsion [CA]-CB--CG-[CD] |==|  0.50963
USER: genes 15 Torsion [CB]-CG--CD-[NE] |==|  0.45661
USER: genes 16 Torsion [CG]-CD--NE-[HE] |==|  0.95609
USER: genes 17 Torsion [N]-CA--C-[O] |==|  0.62588
ROOT
ATOM      1  C   ARG L   2     -23.789   7.291 -39.949  1.00 28.86 LIG 0.24  C 
ATOM      2 O    ARG L   2     -22.914   8.123 -39.755  1.00 28.60 LIG-0.27  OA
ATOM      3  N   PRO L   3     -23.974   6.238 -39.150  1.00 31.50 LIG-0.34  N 
ATOM      4  CA  PRO L   3     -23.180   6.069 -37.932  1.00 28.56 LIG 0.18  C 
ATOM      5  CB  PRO L   3     -23.984   5.036 -37.144  1.00 31.15 LIG 0.04  C 
ATOM      6  CG  PRO L   3     -24.629   4.209 -38.190  1.00 34.79 LIG 0.02  C 
ATOM      7  CD  PRO L   3     -24.939   5.140 -39.332  1.00 34.83 LIG 0.13  C 
ENDROOT
BRANCH 1 8
ATOM      8  CA  ARG L   2     -24.722   7.432 -41.135  1.00 35.60 LIG 0.18  C 
BRANCH 8 9
ATOM      9  CB  ARG L   2     -23.900   7.686 -42.396  1.00 35.35 LIG 0.04  C 
BRANCH 9 10
ATOM     10  CG  ARG L   2     -22.899   6.590 -42.696  1.00 43.75 LIG 0.02  C 
BRANCH 10 11
ATOM     11  CD  ARG L   2     -21.936   6.990 -43.809  1.00 55.75 LIG 0.14  C 
BRANCH 11 12
ATOM     12  NE  ARG L   2     -22.619   7.348 -45.050  1.00 59.77 LIG-0.23  N 
ATOM     13 HE   ARG L   2     -22.983   6.711 -45.501  1.00 59.77 LIG 0.18  HD
ATOM     14  CZ  ARG L   2     -22.722   8.583 -45.539  1.00 59.01 LIG 0.67  C 
ATOM     15  NH2 ARG L   2     -23.368   8.781 -46.683  1.00 68.00 LIG-0.23  N 
ATOM     16  NH1 ARG L   2     -22.181   9.617 -44.905  1.00 46.29 LIG-0.23  N 
ATOM     17 1HH2 ARG L   2     -23.715   8.114 -47.102  1.00 68.00 LIG 0.17  HD
ATOM     18 2HH2 ARG L   2     -23.439   9.575 -47.005  1.00 68.00 LIG 0.17  HD
ATOM     19 1HH1 ARG L   2     -21.756   9.496 -44.168  1.00 46.29 LIG 0.17  HD
ATOM     20 2HH1 ARG L   2     -22.255  10.409 -45.233  1.00 46.29 LIG 0.17  HD
ENDBRANCH 11 12
ENDBRANCH 10 11
ENDBRANCH 9 10
ENDBRANCH 8 9
BRANCH 8 21
ATOM     21  N   ARG L   2     -25.640   8.534 -40.889  1.00 36.06 LIG-0.35  N 
ATOM     22  C   VAL L   1     -26.944   8.421 -41.116  1.00 46.58 LIG 0.25  C 
ATOM     23 O    VAL L   1     -27.459   7.388 -41.536  1.00 52.05 LIG-0.27  OA
ATOM     24 H    ARG L   2     -25.265   9.247 -40.590  1.00 36.06 LIG 0.16  HD
BRANCH 22 25
ATOM     25  CA  VAL L   1     -27.795   9.651 -40.824  1.00 44.00 LIG 0.28  C 
BRANCH 25 26
ATOM     26  CB  VAL L   1     -27.890   9.836 -39.303  1.00 44.54 LIG 0.02  C 
ATOM     27  CG2 VAL L   1     -28.988   8.943 -38.724  1.00 44.46 LIG 0.01  C 
ATOM     28  CG1 VAL L   1     -28.135  11.295 -38.962  1.00 39.43 LIG 0.01  C 
ENDBRANCH 25 26
BRANCH 25 29
ATOM     29  N   VAL L   1     -29.148   9.518 -41.435  1.00 43.15 LIG-0.07  N 
ATOM     30 H3   VAL L   1     -29.392   8.661 -41.435  1.00 43.15 LIG 0.28  HD
ATOM     31 H2   VAL L   1     -29.127   9.820 -42.271  1.00 43.15 LIG 0.28  HD
ATOM     32 H1   VAL L   1     -29.735   9.992 -40.963  1.00 43.15 LIG 0.28  HD
ENDBRANCH 25 29
ENDBRANCH 22 25
ENDBRANCH 8 21
ENDBRANCH 1 8
BRANCH 4 33
ATOM     33  C   PRO L   3     -21.787   5.525 -38.208  1.00 21.59 LIG 0.24  C 
ATOM     34 O    PRO L   3     -21.571   4.884 -39.242  1.00 24.79 LIG-0.27  OA
ATOM     35  N   ARG L   4     -20.873   5.761 -37.270  1.00 21.43 LIG-0.35  N 
ATOM     36 H    ARG L   4     -21.029   6.236 -36.570  1.00 21.43 LIG 0.16  HD
BRANCH 35 37
ATOM     37  CA  ARG L   4     -19.519   5.242 -37.335  1.00 26.28 LIG 0.16  C 
BRANCH 37 38
ATOM     38  CB  ARG L   4     -18.516   6.378 -37.133  1.00 29.57 LIG 0.04  C 
BRANCH 38 39
ATOM     39  CG  ARG L   4     -18.671   7.482 -38.162  1.00 30.64 LIG 0.02  C 
BRANCH 39 40
ATOM     40  CD  ARG L   4     -17.621   8.571 -38.014  1.00 33.05 LIG 0.14  C 
BRANCH 40 41
ATOM     41  NE  ARG L   4     -17.557   9.409 -39.207  1.00 22.53 LIG-0.23  N 
ATOM     42 HE   ARG L   4     -17.927   9.112 -39.924  1.00 22.53 LIG 0.18  HD
ATOM     43  CZ  ARG L   4     -16.969  10.595 -39.263  1.00 22.76 LIG 0.67  C 
ATOM     44  NH2 ARG L   4     -16.956  11.271 -40.400  1.00 22.03 LIG-0.23  N 
ATOM     45  NH1 ARG L   4     -16.384  11.104 -38.186  1.00 22.99 LIG-0.23  N 
ATOM     46 2HH2 ARG L   4     -16.575  12.041 -40.438  1.00 22.03 LIG 0.17  HD
ATOM     47 1HH2 ARG L   4     -17.328  10.940 -41.101  1.00 22.03 LIG 0.17  HD
ATOM     48 1HH1 ARG L   4     -16.384  10.665 -37.447  1.00 22.99 LIG 0.17  HD
ATOM     49 2HH1 ARG L   4     -16.004  11.875 -38.228  1.00 22.99 LIG 0.17  HD
ENDBRANCH 40 41
ENDBRANCH 39 40
ENDBRANCH 38 39
ENDBRANCH 37 38
BRANCH 37 50
ATOM     50  C   ARG L   4     -19.298   4.146 -36.294  1.00 33.78 LIG 0.22  C 
ATOM     51 O    ARG L   4     -18.282   4.135 -35.599  1.00 23.95 LIG-0.29  OA
ENDBRANCH 37 50
ENDBRANCH 35 37
ENDBRANCH 4 33
TORSDOF 16
