USER: ADFR SOLUTION from run 0
USER: SCORE 21.260951 LL:  -5.523 LR: -16.055 RR:   0.000 FEB:  -8.598
USER: RMSD 0.386151
USER: STATUS Locally minimized using BFGS
USER: GENES 27
USER: genes 0 Translation |==|  0.65240 0.52986 0.56304
USER: genes 1 Rotation |==|  0.49057 0.50896 0.50359 0.99982
USER: genes 2 Torsion [N]-CA--C-[N] |==|  0.01215
USER: genes 3 Torsion [C]-N--CA-[C] |==|  0.67908
USER: genes 4 Torsion [N]-CA--CB-[CG] |==|  0.85064
USER: genes 5 Torsion [CA]-CB--CG-[CD] |==|  0.75993
USER: genes 6 Torsion [CB]-CG--CD-[OE2] |==|  0.03416
USER: genes 7 Torsion [N]-CA--C-[N] |==|  0.38333
USER: genes 8 Torsion [C]-N--CA-[C] |==|  0.65810
USER: genes 9 Torsion [N]-CA--C-[N] |==|  0.44033
USER: genes 10 Torsion [C]-N--CA-[C] |==|  0.69652
USER: genes 11 Torsion [N]-CA--C-[OXT] |==|  0.38842
USER: genes 12 Torsion [N]-CA--CB-[CG] |==|  0.82195
USER: genes 13 Torsion [CA]-CB--CG-[OD1] |==|  0.75360
USER: genes 14 Torsion [N]-CA--CB-[CG2] |==|  0.13441
USER: genes 15 Torsion [C]-CA--CB-[CG] |==|  0.50803
USER: genes 16 Torsion [CA]-CB--CG-[CD] |==|  0.80896
USER: genes 17 Torsion [CB]-CG--CD-[OE2] |==|  0.98087
USER: genes 18 Torsion [C]-CA--N-[C] |==|  0.72888
USER: genes 19 Torsion [N]-C--CA-[N] |==|  0.94446
USER: genes 20 Torsion [C]-CA--N-[C] |==|  0.80791
USER: genes 21 Torsion [N]-C--CA-[N] |==|  0.90637
USER: genes 22 Torsion [C]-CA--N-[C] |==|  0.83486
USER: genes 23 Torsion [N]-C--CA-[CB] |==|  0.79530
USER: genes 24 Torsion [C]-CA--CB-[CG2] |==|  0.11195
USER: genes 25 Torsion [CA]-CB--OG1-[HG1] |==|  0.17950
USER: genes 26 Torsion [C]-CA--CB-[CG1] |==|  0.48487
ROOT
ATOM      1  CA  GLU B 653       8.056 -22.307  14.987  1.00 16.59 LIG 0.18  C 
ENDROOT
BRANCH 1 2
ATOM      2  C   GLU B 653       7.072 -22.727  13.876  1.00 17.01 LIG 0.24  C 
ATOM      3 O    GLU B 653       7.429 -23.485  12.952  1.00 18.89 LIG-0.27  OA
ATOM      4  N   GLU B 654       5.838 -22.267  13.979  1.00 17.47 LIG-0.35  N 
ATOM      5 H    GLU B 654       5.606 -21.681  14.565  1.00 17.47 LIG 0.16  HD
BRANCH 4 6
ATOM      6  CA  GLU B 654       4.760 -22.685  13.136  1.00 19.20 LIG 0.18  C 
BRANCH 6 7
ATOM      7  CB  GLU B 654       3.630 -23.236  13.988  1.00 21.36 LIG 0.04  C 
BRANCH 7 8
ATOM      8  CG  GLU B 654       4.077 -24.316  14.923  1.00 25.94 LIG 0.12  C 
BRANCH 8 9
ATOM      9  CD  GLU B 654       4.065 -25.668  14.295  1.00 34.53 LIG 0.17  C 
ATOM     10 OE2  GLU B 654       3.928 -25.756  13.044  1.00 38.43 LIG-0.65  OA
ATOM     11 OE1  GLU B 654       4.213 -26.657  15.069  1.00 40.98 LIG-0.65  OA
ENDBRANCH 8 9
ENDBRANCH 7 8
ENDBRANCH 6 7
BRANCH 6 12
ATOM     12  C   GLU B 654       4.234 -21.555  12.280  1.00 18.66 LIG 0.24  C 
ATOM     13  N   VAL B 655       3.951 -21.844  11.006  1.00 18.37 LIG-0.35  N 
ATOM     14 H    VAL B 655       4.158 -22.588  10.630  1.00 18.37 LIG 0.16  HD
ATOM     15 O    GLU B 654       4.208 -20.424  12.737  1.00 17.95 LIG-0.27  OA
BRANCH 13 16
ATOM     16  CA  VAL B 655       3.252 -20.903  10.128  1.00 18.99 LIG 0.18  C 
BRANCH 16 17
ATOM     17  C   VAL B 655       1.996 -21.602   9.597  1.00 20.12 LIG 0.24  C 
ATOM     18 O    VAL B 655       1.915 -22.842   9.618  1.00 20.44 LIG-0.27  OA
ATOM     19  N   ASP B 656       1.023 -20.804   9.160  1.00 20.60 LIG-0.34  N 
ATOM     20 H    ASP B 656       1.081 -19.946   9.138  1.00 20.60 LIG 0.16  HD
BRANCH 19 21
ATOM     21  CA  ASP B 656      -0.259 -21.342   8.667  1.00 22.64 LIG 0.20  C 
BRANCH 21 22
ATOM     22  C   ASP B 656      -0.422 -21.188   7.146  1.00 24.92 LIG 0.20  C 
ATOM     23 OXT  ASP B 656      -0.938 -22.122   6.463  1.00 27.50 LIG-0.65  OA
ATOM     24 O    ASP B 656      -0.011 -20.167   6.558  1.00 24.52 LIG-0.65  OA
ENDBRANCH 21 22
BRANCH 21 25
ATOM     25  CB  ASP B 656      -1.383 -20.621   9.393  1.00 22.32 LIG 0.15  C 
BRANCH 25 26
ATOM     26  CG  ASP B 656      -1.369 -20.904  10.891  1.00 24.14 LIG 0.17  C 
ATOM     27 OD1  ASP B 656      -1.993 -21.889  11.339  1.00 27.79 LIG-0.65  OA
ATOM     28 OD2  ASP B 656      -0.682 -20.175  11.625  1.00 21.16 LIG-0.65  OA
ENDBRANCH 25 26
ENDBRANCH 21 25
ENDBRANCH 19 21
ENDBRANCH 16 17
BRANCH 16 29
ATOM     29  CB  VAL B 655       4.080 -20.407   8.939  1.00 17.39 LIG 0.01  C 
ATOM     30  CG2 VAL B 655       4.761 -21.584   8.200  1.00 19.33 LIG 0.01  C 
ATOM     31  CG1 VAL B 655       5.129 -19.320   9.396  1.00 17.58 LIG 0.01  C 
ENDBRANCH 16 29
ENDBRANCH 13 16
ENDBRANCH 6 12
ENDBRANCH 4 6
ENDBRANCH 1 2
BRANCH 1 32
ATOM     32  CB  GLU B 653       8.718 -23.605  15.565  1.00 16.22 LIG 0.04  C 
BRANCH 32 33
ATOM     33  CG  GLU B 653       9.655 -23.355  16.709  1.00 17.46 LIG 0.12  C 
BRANCH 33 34
ATOM     34  CD  GLU B 653      10.958 -22.612  16.297  1.00 17.13 LIG 0.17  C 
ATOM     35 OE1  GLU B 653      11.720 -22.257  17.228  1.00 19.48 LIG-0.65  OA
ATOM     36 OE2  GLU B 653      11.241 -22.374  15.072  1.00 19.36 LIG-0.65  OA
ENDBRANCH 33 34
ENDBRANCH 32 33
ENDBRANCH 1 32
BRANCH 1 37
ATOM     37  N   GLU B 653       7.446 -21.523  16.073  1.00 15.81 LIG-0.35  N 
ATOM     38  C   VAL B 652       7.465 -20.182  16.182  1.00 15.71 LIG 0.24  C 
ATOM     39 O    VAL B 652       7.912 -19.440  15.319  1.00 14.72 LIG-0.27  OA
ATOM     40 H    GLU B 653       7.058 -22.020  16.659  1.00 15.81 LIG 0.16  HD
BRANCH 38 41
ATOM     41  CA  VAL B 652       6.719 -19.557  17.418  1.00 15.41 LIG 0.18  C 
BRANCH 41 42
ATOM     42  N   VAL B 652       5.764 -20.515  17.947  1.00 15.06 LIG-0.35  N 
ATOM     43  C   THR B 651       4.674 -20.838  17.254  1.00 17.05 LIG 0.24  C 
ATOM     44 O    THR B 651       4.505 -20.539  16.078  1.00 16.18 LIG-0.27  OA
ATOM     45 H    VAL B 652       5.964 -20.838  18.718  1.00 15.06 LIG 0.16  HD
BRANCH 43 46
ATOM     46  CA  THR B 651       3.670 -21.737  17.926  1.00 18.25 LIG 0.20  C 
BRANCH 46 47
ATOM     47  N   THR B 651       4.246 -22.721  18.820  1.00 18.62 LIG-0.34  N 
ATOM     48 H    THR B 651       3.976 -22.666  19.635  1.00 18.62 LIG 0.16  HD
ATOM     49  C   PRO B 650       5.110 -23.614  18.388  1.00 22.21 LIG 0.25  C 
ATOM     50 O    PRO B 650       5.618 -23.554  17.279  1.00 21.73 LIG-0.27  OA
BRANCH 49 51
ATOM     51  CA  PRO B 650       5.421 -24.762  19.344  1.00 24.06 LIG 0.35  C 
ATOM     52  CB  PRO B 650       6.303 -24.357  20.524  1.00 25.19 LIG 0.05  C 
ATOM     53  CG  PRO B 650       7.025 -25.651  20.834  1.00 26.54 LIG 0.04  C 
ATOM     54  CD  PRO B 650       7.329 -26.211  19.463  1.00 26.80 LIG 0.32  C 
ATOM     55  N   PRO B 650       6.251 -25.682  18.632  1.00 26.10 LIG 0.32  N 
ENDBRANCH 49 51
ENDBRANCH 46 47
BRANCH 46 56
ATOM     56  CB  THR B 651       2.607 -20.929  18.724  1.00 18.88 LIG 0.15  C 
ATOM     57  CG2 THR B 651       2.105 -19.626  18.016  1.00 20.33 LIG 0.04  C 
BRANCH 56 58
ATOM     58 OG1  THR B 651       1.572 -21.845  19.079  1.00 19.33 LIG-0.39  OA
ATOM     59 HG1  THR B 651       1.879 -22.427  19.601  1.00 19.33 LIG 0.21  HD
ENDBRANCH 56 58
ENDBRANCH 46 56
ENDBRANCH 43 46
ENDBRANCH 41 42
BRANCH 41 60
ATOM     60  CB  VAL B 652       7.769 -19.070  18.460  1.00 13.27 LIG 0.01  C 
ATOM     61  CG1 VAL B 652       7.151 -18.371  19.565  1.00 15.32 LIG 0.01  C 
ATOM     62  CG2 VAL B 652       8.631 -20.224  18.969  1.00 15.72 LIG 0.01  C 
ENDBRANCH 41 60
ENDBRANCH 38 41
ENDBRANCH 1 37
TORSDOF 25
