USER: ADFR SOLUTION from run 0
USER: SCORE 18.851012 LL:  -6.011 LR: -17.216 RR:   0.000 FEB:  -8.267
USER: RMSD 0.645298
USER: STATUS Locally minimized using BFGS
USER: GENES 32
USER: genes 0 Translation |==|  0.43543 0.60652 0.52893
USER: genes 1 Rotation |==|  0.48427 0.51469 0.48118 0.99918
USER: genes 2 Torsion [C]-CA--CB-[CG] |==|  0.10942
USER: genes 3 Torsion [CA]-CB--CG-[CD] |==|  0.42807
USER: genes 4 Torsion [CB]-CG--CD-[CE] |==|  0.48664
USER: genes 5 Torsion [CG]-CD--CE-[NZ] |==|  0.40401
USER: genes 6 Torsion [CD]-CE--NZ-[HZ1] |==|  0.49335
USER: genes 7 Torsion [N]-CA--C-[N] |==|  0.84793
USER: genes 8 Torsion [C]-N--CA-[CB] |==|  0.43598
USER: genes 9 Torsion [N]-CA--CB-[CG] |==|  0.85356
USER: genes 10 Torsion [CA]-CB--CG-[CD] |==|  0.81150
USER: genes 11 Torsion [CB]-CG--CD-[OE1] |==|  0.95709
USER: genes 12 Torsion [N]-CA--C-[N] |==|  0.96692
USER: genes 13 Torsion [C]-N--CA-[CB] |==|  0.38220
USER: genes 14 Torsion [N]-CA--CB-[CG2] |==|  0.80142
USER: genes 15 Torsion [CA]-CB--OG1-[HG1] |==|  0.44791
USER: genes 16 Torsion [N]-CA--C-[N] |==|  0.96299
USER: genes 17 Torsion [C]-N--CA-[C] |==|  0.72877
USER: genes 18 Torsion [N]-CA--C-[O] |==|  0.93978
USER: genes 19 Torsion [CB]-CA--N-[C] |==|  0.48889
USER: genes 20 Torsion [N]-C--CA-[N] |==|  0.47001
USER: genes 21 Torsion [C]-CA--CB-[CG2] |==|  0.57209
USER: genes 22 Torsion [CA]-CB--OG1-[HG1] |==|  0.86045
USER: genes 23 Torsion [C]-CA--N-[C] |==|  0.62529
USER: genes 24 Torsion [N]-C--CA-[N] |==|  0.41052
USER: genes 25 Torsion [C]-CA--N-[C] |==|  0.65932
USER: genes 26 Torsion [N]-C--CA-[N] |==|  0.51430
USER: genes 27 Torsion [C]-CA--N-[H1] |==|  0.51947
USER: genes 28 Torsion [C]-CA--CB-[CG] |==|  0.43861
USER: genes 29 Torsion [CA]-CB--CG-[CD] |==|  0.53393
USER: genes 30 Torsion [CB]-CG--CD-[NE] |==|  0.81996
USER: genes 31 Torsion [CG]-CD--NE-[HE] |==|  0.82809
ROOT
ATOM      1  CA  LYS Q   4      14.041  13.232  16.869  1.00 15.20 LIG 0.18  C 
ENDROOT
BRANCH 1 2
ATOM      2  CB  LYS Q   4      12.565  13.488  16.578  1.00 14.69 LIG 0.04  C 
BRANCH 2 3
ATOM      3  CG  LYS Q   4      11.959  14.540  17.460  1.00 16.14 LIG 0.00  C 
BRANCH 3 4
ATOM      4  CD  LYS Q   4      10.787  15.200  16.792  1.00 18.10 LIG 0.03  C 
BRANCH 4 5
ATOM      5  CE  LYS Q   4      10.138  16.165  17.759  1.00 22.11 LIG 0.23  C 
BRANCH 5 6
ATOM      6  NZ  LYS Q   4       9.605  17.358  17.049  1.00 25.79 LIG-0.08  N 
ATOM      7 HZ1  LYS Q   4       9.199  17.894  17.632  1.00 25.79 LIG 0.27  HD
ATOM      8 HZ2  LYS Q   4      10.276  17.797  16.661  1.00 25.79 LIG 0.27  HD
ATOM      9 HZ3  LYS Q   4       9.022  17.099  16.429  1.00 25.79 LIG 0.27  HD
ENDBRANCH 5 6
ENDBRANCH 4 5
ENDBRANCH 3 4
ENDBRANCH 2 3
ENDBRANCH 1 2
BRANCH 1 10
ATOM     10  C   LYS Q   4      14.270  13.276  18.382  1.00 15.70 LIG 0.24  C 
ATOM     11  N   GLN Q   5      13.733  12.293  19.107  1.00 16.90 LIG-0.35  N 
ATOM     12 H    GLN Q   5      13.370  11.587  18.775  1.00 16.90 LIG 0.16  HD
ATOM     13 O    LYS Q   4      14.918  14.200  18.887  1.00 16.41 LIG-0.27  OA
BRANCH 11 14
ATOM     14  CA  GLN Q   5      13.726  12.354  20.574  1.00 18.58 LIG 0.18  C 
BRANCH 14 15
ATOM     15  CB  GLN Q   5      12.616  11.476  21.161  1.00 18.36 LIG 0.04  C 
BRANCH 15 16
ATOM     16  CG  GLN Q   5      11.222  11.735  20.595  1.00 19.34 LIG 0.10  C 
BRANCH 16 17
ATOM     17  CD  GLN Q   5      10.639  13.082  20.966  1.00 21.85 LIG 0.21  C 
ATOM     18  NE2 GLN Q   5       9.578  13.482  20.264  1.00 24.33 LIG-0.37  N 
ATOM     19 21HE GLN Q   5       9.267  12.987  19.633  1.00 24.33 LIG 0.16  HD
ATOM     20 22HE GLN Q   5       9.204  14.236  20.441  1.00 24.33 LIG 0.16  HD
ATOM     21 OE1  GLN Q   5      11.122  13.750  21.875  1.00 24.78 LIG-0.27  OA
ENDBRANCH 16 17
ENDBRANCH 15 16
ENDBRANCH 14 15
BRANCH 14 22
ATOM     22  C   GLN Q   5      15.072  11.972  21.172  1.00 20.15 LIG 0.24  C 
ATOM     23 O    GLN Q   5      15.295  12.179  22.370  1.00 22.37 LIG-0.27  OA
ATOM     24  N   THR Q   6      15.973  11.415  20.374  1.00 20.72 LIG-0.34  N 
ATOM     25 H    THR Q   6      15.823  11.164  19.565  1.00 20.72 LIG 0.16  HD
BRANCH 24 26
ATOM     26  CA  THR Q   6      17.338  11.187  20.858  1.00 22.01 LIG 0.20  C 
BRANCH 26 27
ATOM     27  CB  THR Q   6      17.898   9.813  20.443  1.00 21.09 LIG 0.15  C 
ATOM     28  CG2 THR Q   6      17.217   8.684  21.217  1.00 22.53 LIG 0.04  C 
BRANCH 27 29
ATOM     29 OG1  THR Q   6      17.701   9.619  19.039  1.00 19.47 LIG-0.39  OA
ATOM     30 HG1  THR Q   6      18.215   9.013  18.765  1.00 19.47 LIG 0.21  HD
ENDBRANCH 27 29
ENDBRANCH 26 27
BRANCH 26 31
ATOM     31  C   THR Q   6      18.292  12.293  20.416  1.00 23.85 LIG 0.24  C 
ATOM     32  N   ALA Q   7      17.856  13.121  19.465  1.00 25.35 LIG-0.35  N 
ATOM     33 H    ALA Q   7      17.088  13.042  19.086  1.00 25.35 LIG 0.16  HD
ATOM     34 O    THR Q   6      19.400  12.405  20.954  1.00 25.66 LIG-0.27  OA
BRANCH 32 35
ATOM     35  CA  ALA Q   7      18.649  14.256  18.970  1.00 27.02 LIG 0.16  C 
ATOM     36  CB  ALA Q   7      18.523  14.368  17.453  1.00 27.03 LIG 0.04  C 
BRANCH 35 37
ATOM     37  C   ALA Q   7      18.254  15.579  19.637  1.00 28.43 LIG 0.22  C 
ATOM     38 O    ALA Q   7      17.142  15.717  20.170  1.00 30.23 LIG-0.29  OA
ENDBRANCH 35 37
ENDBRANCH 32 35
ENDBRANCH 26 31
ENDBRANCH 24 26
ENDBRANCH 14 22
ENDBRANCH 11 14
ENDBRANCH 1 10
BRANCH 1 39
ATOM     39  N   LYS Q   4      14.466  11.967  16.272  1.00 13.85 LIG-0.35  N 
ATOM     40 H    LYS Q   4      13.835  11.521  15.895  1.00 13.85 LIG 0.16  HD
ATOM     41  C   THR Q   3      15.737  11.565  16.324  1.00 13.84 LIG 0.24  C 
ATOM     42 O    THR Q   3      16.645  12.240  16.824  1.00 14.15 LIG-0.27  OA
BRANCH 41 43
ATOM     43  CA  THR Q   3      16.024  10.190  15.762  1.00 13.21 LIG 0.20  C 
BRANCH 43 44
ATOM     44  CB  THR Q   3      15.310   9.145  16.656  1.00 13.38 LIG 0.15  C 
ATOM     45  CG2 THR Q   3      15.985   7.795  16.610  1.00 13.96 LIG 0.04  C 
BRANCH 44 46
ATOM     46 OG1  THR Q   3      15.209   9.618  18.007  1.00 13.85 LIG-0.39  OA
ATOM     47 HG1  THR Q   3      15.962   9.882  18.268  1.00 13.85 LIG 0.21  HD
ENDBRANCH 44 46
ENDBRANCH 43 44
BRANCH 43 48
ATOM     48  N   THR Q   3      17.469   9.972  15.643  1.00 13.00 LIG-0.34  N 
ATOM     49  C   ARG Q   2      18.013   9.438  14.553  1.00 13.30 LIG 0.24  C 
ATOM     50 O    ARG Q   2      17.356   8.955  13.640  1.00 13.04 LIG-0.27  OA
ATOM     51 H    THR Q   3      17.922  10.218  16.331  1.00 13.00 LIG 0.16  HD
BRANCH 49 52
ATOM     52  CA  ARG Q   2      19.523   9.424  14.497  1.00 13.85 LIG 0.18  C 
BRANCH 52 53
ATOM     53  N   ARG Q   2      19.967   8.249  13.763  1.00 14.89 LIG-0.35  N 
ATOM     54 H    ARG Q   2      19.649   8.199  12.965  1.00 14.89 LIG 0.16  HD
ATOM     55  C   ALA Q   1      20.783   7.340  14.276  1.00 17.12 LIG 0.25  C 
ATOM     56 O    ALA Q   1      21.246   7.405  15.420  1.00 19.52 LIG-0.27  OA
BRANCH 55 57
ATOM     57  CA  ALA Q   1      21.147   6.191  13.343  1.00 17.93 LIG 0.27  C 
ATOM     58  CB  ALA Q   1      19.890   5.565  12.724  1.00 18.07 LIG 0.05  C 
BRANCH 57 59
ATOM     59  N   ALA Q   1      21.966   5.162  14.053  1.00 19.51 LIG-0.07  N 
ATOM     60 H1   ALA Q   1      22.251   4.555  13.468  1.00 19.51 LIG 0.28  HD
ATOM     61 H3   ALA Q   1      21.468   4.764  14.674  1.00 19.51 LIG 0.28  HD
ATOM     62 H2   ALA Q   1      22.665   5.554  14.439  1.00 19.51 LIG 0.28  HD
ENDBRANCH 57 59
ENDBRANCH 55 57
ENDBRANCH 52 53
BRANCH 52 63
ATOM     63  CB  ARG Q   2      20.014  10.704  13.810  1.00 13.50 LIG 0.04  C 
BRANCH 63 64
ATOM     64  CG  ARG Q   2      21.466  11.087  14.145  1.00 14.15 LIG 0.02  C 
BRANCH 64 65
ATOM     65  CD  ARG Q   2      21.771  12.501  13.675  1.00 12.93 LIG 0.14  C 
BRANCH 65 66
ATOM     66  NE  ARG Q   2      21.700  12.584  12.218  1.00 12.58 LIG-0.23  N 
ATOM     67 HE   ARG Q   2      22.253  12.101  11.769  1.00 12.58 LIG 0.18  HD
ATOM     68  CZ  ARG Q   2      20.849  13.347  11.520  1.00 11.80 LIG 0.67  C 
ATOM     69  NH2 ARG Q   2      20.866  13.296  10.199  1.00 12.39 LIG-0.23  N 
ATOM     70  NH1 ARG Q   2      19.996  14.165  12.122  1.00 13.65 LIG-0.23  N 
ATOM     71 2HH2 ARG Q   2      20.323  13.782   9.743  1.00 12.39 LIG 0.17  HD
ATOM     72 1HH2 ARG Q   2      21.421  12.776   9.796  1.00 12.39 LIG 0.17  HD
ATOM     73 2HH1 ARG Q   2      19.458  14.645  11.654  1.00 13.65 LIG 0.17  HD
ATOM     74 1HH1 ARG Q   2      19.980  14.214  12.981  1.00 13.65 LIG 0.17  HD
ENDBRANCH 65 66
ENDBRANCH 64 65
ENDBRANCH 63 64
ENDBRANCH 52 63
ENDBRANCH 49 52
ENDBRANCH 43 48
ENDBRANCH 41 43
ENDBRANCH 1 39
TORSDOF 30
