USER: ADFR SOLUTION from run 0
USER: SCORE 16.655180 LL:  -4.021 LR: -15.889 RR:   0.000 FEB: -10.818
USER: RMSD 0.483824
USER: STATUS Locally minimized using BFGS
USER: GENES 19
USER: genes 0 Translation |==|  0.64790 0.46929 0.55613
USER: genes 1 Rotation |==|  0.48622 0.49555 0.52012 0.99939
USER: genes 2 Torsion [C]-N--CA-[CB] |==|  0.44738
USER: genes 3 Torsion [N]-CA--CB-[CG2] |==|  0.83328
USER: genes 4 Torsion [CA]-CB--CG1-[CD1] |==|  0.50110
USER: genes 5 Torsion [N]-CA--C-[N] |==|  0.43818
USER: genes 6 Torsion [C]-N--CA-[CB] |==|  0.36385
USER: genes 7 Torsion [N]-CA--C-[N] |==|  0.29087
USER: genes 8 Torsion [N]-CA--C-[O] |==|  0.87474
USER: genes 9 Torsion [N]-CA--CB-[CG] |==|  0.49309
USER: genes 10 Torsion [CA]-CB--CG-[ND1] |==|  0.69832
USER: genes 11 Torsion [N]-C--CA-[N] |==|  0.12222
USER: genes 12 Torsion [C]-CA--N-[C] |==|  0.76284
USER: genes 13 Torsion [N]-C--CA-[N] |==|  0.39759
USER: genes 14 Torsion [C]-CA--N-[H2] |==|  0.78109
USER: genes 15 Torsion [C]-CA--CB-[CG1] |==|  0.46814
USER: genes 16 Torsion [C]-CA--CB-[CG] |==|  0.41481
USER: genes 17 Torsion [CA]-CB--CG-[CD1] |==|  0.87831
USER: genes 18 Torsion [CE1]-CZ--OH-[HH] |==|  0.52167
ROOT
ATOM      1  C   TYR C   2      57.927  30.375  36.548  1.00 15.61 LIG 0.24  C 
ATOM      2 O    TYR C   2      58.880  30.694  35.822  1.00 14.40 LIG-0.27  OA
ATOM      3  N   ILE C   3      57.628  29.129  36.787  1.00 16.82 LIG-0.35  N 
ATOM      4 H    ILE C   3      57.109  28.871  37.422  1.00 16.82 LIG 0.16  HD
ENDROOT
BRANCH 3 5
ATOM      5  CA  ILE C   3      58.168  28.047  35.972  1.00 16.46 LIG 0.18  C 
BRANCH 5 6
ATOM      6  CB  ILE C   3      58.067  26.718  36.698  1.00 18.77 LIG 0.01  C 
ATOM      7  CG2 ILE C   3      58.858  26.804  37.995  1.00 19.99 LIG 0.01  C 
BRANCH 6 8
ATOM      8  CG1 ILE C   3      56.602  26.352  37.034  1.00 18.05 LIG 0.00  C 
ATOM      9  CD1 ILE C   3      56.441  25.022  37.776  1.00 24.94 LIG 0.01  C 
ENDBRANCH 6 8
ENDBRANCH 5 6
BRANCH 5 10
ATOM     10  C   ILE C   3      57.401  28.032  34.646  1.00 19.56 LIG 0.24  C 
ATOM     11  N   HIS C   4      57.972  27.469  33.600  1.00 25.52 LIG-0.35  N 
ATOM     12 H    HIS C   4      58.715  27.035  33.617  1.00 25.52 LIG 0.16  HD
ATOM     13 O    ILE C   3      56.274  28.524  34.562  1.00 16.93 LIG-0.27  OA
BRANCH 11 14
ATOM     14  CA  HIS C   4      57.326  27.565  32.275  1.00 31.94 LIG 0.18  C 
BRANCH 14 15
ATOM     15  C   HIS C   4      56.705  26.225  31.967  1.00 43.02 LIG 0.24  C 
ATOM     16 O    HIS C   4      57.480  25.334  31.567  1.00 47.49 LIG-0.27  OA
ATOM     17  N   PRO C   5      55.330  26.110  32.079  1.00 55.18 LIG-0.34  N 
ATOM     18  CA  PRO C   5      54.441  24.888  31.949  1.00 55.75 LIG 0.17  C 
ATOM     19  CD  PRO C   5      54.502  27.343  32.012  1.00 48.44 LIG 0.13  C 
ATOM     20  CB  PRO C   5      53.050  25.434  32.289  1.00 55.43 LIG 0.04  C 
ATOM     21  CG  PRO C   5      53.077  26.842  31.775  1.00 51.63 LIG 0.02  C 
BRANCH 18 22
ATOM     22  C   PRO C   5      54.352  24.272  30.562  1.00 57.38 LIG 0.22  C 
ATOM     23 O    PRO C   5      54.196  24.999  29.576  1.00 61.90 LIG-0.29  OA
ENDBRANCH 18 22
ENDBRANCH 14 15
BRANCH 14 24
ATOM     24  CB  HIS C   4      58.334  28.028  31.174  1.00 32.76 LIG 0.10  C 
BRANCH 24 25
ATOM     25  CG  HIS C   4      57.773  28.097  29.782  1.00 32.77 LIG 0.06  A 
ATOM     26 ND1  HIS C   4      58.123  27.192  28.796  1.00 34.96 LIG-0.24  NA
ATOM     27  CE1 HIS C   4      57.468  27.474  27.680  1.00 36.21 LIG 0.23  A 
ATOM     28 NE2  HIS C   4      56.709  28.540  27.901  1.00 34.31 LIG-0.25  NA
ATOM     29  CD2 HIS C   4      56.884  28.951  29.209  1.00 30.94 LIG 0.14  A 
ENDBRANCH 24 25
ENDBRANCH 14 24
ENDBRANCH 11 14
ENDBRANCH 5 10
ENDBRANCH 3 5
BRANCH 1 30
ATOM     30  CA  TYR C   2      57.099  31.391  37.275  1.00 15.99 LIG 0.18  C 
BRANCH 30 31
ATOM     31  N   TYR C   2      56.858  31.114  38.678  1.00 12.71 LIG-0.35  N 
ATOM     32  C   VAL C   1      55.882  30.355  39.095  1.00 12.74 LIG 0.25  C 
ATOM     33 O    VAL C   1      55.138  29.769  38.335  1.00 11.92 LIG-0.27  OA
ATOM     34 H    TYR C   2      57.417  31.495  39.208  1.00 12.71 LIG 0.16  HD
BRANCH 32 35
ATOM     35  CA  VAL C   1      55.675  30.293  40.616  1.00 14.22 LIG 0.28  C 
BRANCH 35 36
ATOM     36  N   VAL C   1      54.201  30.222  40.887  1.00 13.26 LIG-0.07  N 
ATOM     37 H1   VAL C   1      54.065  29.917  41.712  1.00 13.26 LIG 0.28  HD
ATOM     38 H2   VAL C   1      53.846  31.035  40.810  1.00 13.26 LIG 0.28  HD
ATOM     39 H3   VAL C   1      53.818  29.674  40.301  1.00 13.26 LIG 0.28  HD
ENDBRANCH 35 36
BRANCH 35 40
ATOM     40  CB  VAL C   1      56.466  29.175  41.332  1.00 17.02 LIG 0.02  C 
ATOM     41  CG1 VAL C   1      56.437  29.350  42.897  1.00 17.35 LIG 0.01  C 
ATOM     42  CG2 VAL C   1      55.929  27.855  40.986  1.00 19.35 LIG 0.01  C 
ENDBRANCH 35 40
ENDBRANCH 32 35
ENDBRANCH 30 31
BRANCH 30 43
ATOM     43  CB  TYR C   2      57.665  32.851  37.163  1.00 16.65 LIG 0.07  C 
BRANCH 43 44
ATOM     44  CG  TYR C   2      56.599  33.930  37.202  1.00 19.66 LIG-0.06  A 
ATOM     45  CD1 TYR C   2      55.437  33.833  36.506  1.00 23.16 LIG 0.01  A 
ATOM     46  CE1 TYR C   2      54.447  34.860  36.485  1.00 26.66 LIG 0.04  A 
ATOM     47  CZ  TYR C   2      54.637  36.000  37.162  1.00 21.30 LIG 0.07  A 
ATOM     48  CE2 TYR C   2      55.783  36.111  37.867  1.00 23.08 LIG 0.04  A 
ATOM     49  CD2 TYR C   2      56.783  35.114  37.886  1.00 20.76 LIG 0.01  A 
BRANCH 47 50
ATOM     50 OH   TYR C   2      53.622  37.030  37.149  1.00 23.41 LIG-0.36  OA
ATOM     51 HH   TYR C   2      53.919  37.721  37.522  1.00 23.41 LIG 0.22  HD
ENDBRANCH 47 50
ENDBRANCH 43 44
ENDBRANCH 30 43
ENDBRANCH 1 30
TORSDOF 17
