USER: ADFR SOLUTION from run 0
USER: SCORE 18.765647 LL:  -5.718 LR: -14.949 RR:   0.000 FEB:  -7.193
USER: RMSD 0.267470
USER: STATUS Locally minimized using BFGS
USER: GENES 28
USER: genes 0 Translation |==|  0.67282 0.46440 0.50374
USER: genes 1 Rotation |==|  0.50392 0.50380 0.50519 0.99994
USER: genes 2 Torsion [N]-C--CA-[N] |==|  0.43796
USER: genes 3 Torsion [C]-CA--N-[C] |==|  0.77179
USER: genes 4 Torsion [N]-C--CA-[N] |==|  0.12498
USER: genes 5 Torsion [C]-CA--CB-[CG] |==|  0.45755
USER: genes 6 Torsion [CA]-CB--CG-[CD] |==|  0.78650
USER: genes 7 Torsion [CB]-CG--CD-[NE] |==|  0.51435
USER: genes 8 Torsion [CG]-CD--NE-[CZ] |==|  0.53204
USER: genes 9 Torsion [C]-CA--N-[C] |==|  0.75468
USER: genes 10 Torsion [N]-C--CA-[N] |==|  0.36751
USER: genes 11 Torsion [C]-CA--CB-[CG] |==|  0.48238
USER: genes 12 Torsion [CA]-CB--CG-[OD2] |==|  0.38428
USER: genes 13 Torsion [C]-CA--N-[H1] |==|  0.47629
USER: genes 14 Torsion [C]-CA--CB-[CG1] |==|  0.51525
USER: genes 15 Torsion [C]-N--CA-[CB] |==|  0.46552
USER: genes 16 Torsion [N]-CA--CB-[CG] |==|  0.51253
USER: genes 17 Torsion [CA]-CB--CG-[CD2] |==|  0.65902
USER: genes 18 Torsion [CE2]-CZ--OH-[HH] |==|  0.99252
USER: genes 19 Torsion [N]-CA--C-[N] |==|  0.35000
USER: genes 20 Torsion [C]-N--CA-[C] |==|  0.74928
USER: genes 21 Torsion [N]-CA--C-[N] |==|  0.30695
USER: genes 22 Torsion [C]-N--CA-[CB] |==|  0.80498
USER: genes 23 Torsion [N]-CA--CB-[CG] |==|  0.72232
USER: genes 24 Torsion [CA]-CB--CG-[CD2] |==|  0.46356
USER: genes 25 Torsion [N]-CA--C-[O] |==|  0.53217
USER: genes 26 Torsion [N]-CA--CB-[CG1] |==|  0.80641
USER: genes 27 Torsion [CA]-CB--CG1-[CD1] |==|  0.46031
ROOT
ATOM      1  C   VAL C   3      57.125  28.422  34.459  1.00 15.94 LIG 0.24  C 
ATOM      2 O    VAL C   3      55.988  28.847  34.523  1.00 17.86 LIG-0.27  OA
ATOM      3  N   TYR C   4      57.650  28.019  33.307  1.00 16.41 LIG-0.35  N 
ATOM      4 H    TYR C   4      58.443  27.696  33.227  1.00 16.41 LIG 0.16  HD
ENDROOT
BRANCH 1 5
ATOM      5  CA  VAL C   3      57.969  28.306  35.745  1.00 16.01 LIG 0.18  C 
BRANCH 5 6
ATOM      6  N   VAL C   3      57.411  29.276  36.710  1.00 15.77 LIG-0.35  N 
ATOM      7 H    VAL C   3      56.865  28.949  37.289  1.00 15.77 LIG 0.16  HD
ATOM      8  C   ARG C   2      57.767  30.548  36.636  1.00 16.54 LIG 0.24  C 
ATOM      9 O    ARG C   2      58.644  30.956  35.845  1.00 14.63 LIG-0.27  OA
BRANCH 8 10
ATOM     10  CA  ARG C   2      57.077  31.512  37.583  1.00 19.03 LIG 0.18  C 
BRANCH 10 11
ATOM     11  CB  ARG C   2      57.835  32.844  37.583  1.00 20.38 LIG 0.04  C 
BRANCH 11 12
ATOM     12  CG  ARG C   2      57.092  33.993  38.176  1.00 20.75 LIG 0.02  C 
BRANCH 12 13
ATOM     13  CD  ARG C   2      56.081  34.499  37.246  1.00 22.55 LIG 0.14  C 
BRANCH 13 14
ATOM     14  NE  ARG C   2      55.425  35.681  37.736  1.00 20.36 LIG-0.23  N 
ATOM     15  CZ  ARG C   2      54.341  36.207  37.206  1.00 23.11 LIG 0.67  C 
ATOM     16  NH1 ARG C   2      53.712  35.598  36.263  1.00 23.20 LIG-0.23  N 
ATOM     17  NH2 ARG C   2      53.842  37.334  37.727  1.00 25.55 LIG-0.23  N 
ATOM     18 1HH1 ARG C   2      53.999  34.841  35.973  1.00 23.20 LIG 0.17  HD
ATOM     19 2HH1 ARG C   2      53.004  35.949  35.922  1.00 23.20 LIG 0.17  HD
ATOM     20 2HH2 ARG C   2      53.134  37.687  37.390  1.00 25.55 LIG 0.17  HD
ATOM     21 1HH2 ARG C   2      54.229  37.705  38.400  1.00 25.55 LIG 0.17  HD
ATOM     22 HE   ARG C   2      55.765  36.071  38.422  1.00 20.36 LIG 0.18  HD
ENDBRANCH 13 14
ENDBRANCH 12 13
ENDBRANCH 11 12
ENDBRANCH 10 11
BRANCH 10 23
ATOM     23  N   ARG C   2      57.012  30.957  38.945  1.00 19.42 LIG-0.35  N 
ATOM     24  C   ASP C   1      55.985  30.196  39.299  1.00 19.51 LIG 0.25  C 
ATOM     25 O    ASP C   1      55.187  29.732  38.468  1.00 19.29 LIG-0.27  OA
ATOM     26 H    ARG C   2      57.670  31.164  39.458  1.00 19.42 LIG 0.16  HD
BRANCH 24 27
ATOM     27  CA  ASP C   1      55.781  29.916  40.777  1.00 19.04 LIG 0.28  C 
BRANCH 27 28
ATOM     28  CB  ASP C   1      56.152  28.484  41.064  1.00 21.34 LIG 0.15  C 
BRANCH 28 29
ATOM     29  CG  ASP C   1      56.120  28.165  42.581  1.00 23.67 LIG 0.17  C 
ATOM     30 OD2  ASP C   1      55.622  27.061  42.936  1.00 27.41 LIG-0.65  OA
ATOM     31 OD1  ASP C   1      56.562  29.017  43.419  1.00 20.87 LIG-0.65  OA
ENDBRANCH 28 29
ENDBRANCH 27 28
BRANCH 27 32
ATOM     32  N   ASP C   1      54.326  30.165  41.086  1.00 18.38 LIG-0.07  N 
ATOM     33 H1   ASP C   1      54.147  29.892  41.914  1.00 18.38 LIG 0.28  HD
ATOM     34 H3   ASP C   1      53.819  29.716  40.509  1.00 18.38 LIG 0.28  HD
ATOM     35 H2   ASP C   1      54.151  31.035  41.017  1.00 18.38 LIG 0.28  HD
ENDBRANCH 27 32
ENDBRANCH 24 27
ENDBRANCH 10 23
ENDBRANCH 8 10
ENDBRANCH 5 6
BRANCH 5 36
ATOM     36  CB  VAL C   3      57.872  26.876  36.227  1.00 17.74 LIG 0.01  C 
ATOM     37  CG1 VAL C   3      58.560  26.686  37.562  1.00 20.72 LIG 0.01  C 
ATOM     38  CG2 VAL C   3      56.424  26.449  36.389  1.00 18.64 LIG 0.01  C 
ENDBRANCH 5 36
ENDBRANCH 1 5
BRANCH 3 39
ATOM     39  CA  TYR C   4      56.904  28.097  32.057  1.00 17.90 LIG 0.18  C 
BRANCH 39 40
ATOM     40  CB  TYR C   4      57.805  27.870  30.882  1.00 20.19 LIG 0.07  C 
BRANCH 40 41
ATOM     41  CG  TYR C   4      57.175  28.028  29.525  1.00 23.00 LIG-0.06  A 
ATOM     42  CD2 TYR C   4      57.201  26.979  28.604  1.00 26.62 LIG 0.01  A 
ATOM     43  CE2 TYR C   4      56.635  27.105  27.352  1.00 28.63 LIG 0.04  A 
ATOM     44  CZ  TYR C   4      56.042  28.280  27.006  1.00 25.42 LIG 0.07  A 
ATOM     45  CE1 TYR C   4      55.959  29.305  27.887  1.00 26.89 LIG 0.04  A 
ATOM     46  CD1 TYR C   4      56.537  29.179  29.159  1.00 24.41 LIG 0.01  A 
BRANCH 44 47
ATOM     47 OH   TYR C   4      55.478  28.399  25.770  1.00 32.39 LIG-0.36  OA
ATOM     48 HH   TYR C   4      55.606  27.692  25.334  1.00 32.39 LIG 0.22  HD
ENDBRANCH 44 47
ENDBRANCH 40 41
ENDBRANCH 39 40
BRANCH 39 49
ATOM     49  C   TYR C   4      55.666  27.154  32.026  1.00 20.63 LIG 0.24  C 
ATOM     50 O    TYR C   4      55.751  26.005  32.359  1.00 19.73 LIG-0.27  OA
ATOM     51  N   ILE C   5      54.503  27.718  31.738  1.00 22.91 LIG-0.35  N 
ATOM     52 H    ILE C   5      54.392  28.562  31.614  1.00 22.91 LIG 0.16  HD
BRANCH 51 53
ATOM     53  CA  ILE C   5      53.294  26.923  31.607  1.00 27.58 LIG 0.18  C 
BRANCH 53 54
ATOM     54  C   ILE C   5      53.130  26.478  30.156  1.00 33.14 LIG 0.24  C 
ATOM     55  N   HIS C   6      53.296  25.175  29.894  1.00 39.14 LIG-0.35  N 
ATOM     56 H    HIS C   6      53.548  24.607  30.489  1.00 39.14 LIG 0.16  HD
ATOM     57 O    ILE C   5      52.961  27.341  29.299  1.00 25.88 LIG-0.27  OA
BRANCH 55 58
ATOM     58  CA  HIS C   6      53.066  24.557  28.538  1.00 56.87 LIG 0.17  C 
BRANCH 58 59
ATOM     59  CB  HIS C   6      51.548  24.540  28.191  1.00 66.39 LIG 0.09  C 
BRANCH 59 60
ATOM     60  CG  HIS C   6      50.869  23.218  28.415  1.00 78.50 LIG 0.06  A 
ATOM     61  CD2 HIS C   6      49.550  22.902  28.451  1.00 82.71 LIG 0.14  A 
ATOM     62 NE2  HIS C   6      49.460  21.541  28.640  1.00 84.02 LIG-0.25  NA
ATOM     63  CE1 HIS C   6      50.680  21.033  28.696  1.00 85.20 LIG 0.23  A 
ATOM     64 ND1  HIS C   6      51.550  22.022  28.557  1.00 88.66 LIG-0.24  NA
ENDBRANCH 59 60
ENDBRANCH 58 59
BRANCH 58 65
ATOM     65  C   HIS C   6      53.802  25.181  27.344  1.00 59.18 LIG 0.22  C 
ATOM     66 O    HIS C   6      53.494  24.862  26.164  1.00 63.69 LIG-0.29  OA
ENDBRANCH 58 65
ENDBRANCH 55 58
ENDBRANCH 53 54
BRANCH 53 67
ATOM     67  CB  ILE C   5      52.094  27.721  32.099  1.00 28.54 LIG 0.01  C 
ATOM     68  CG2 ILE C   5      50.820  27.020  31.632  1.00 32.34 LIG 0.01  C 
BRANCH 67 69
ATOM     69  CG1 ILE C   5      52.232  27.854  33.625  1.00 30.21 LIG 0.00  C 
ATOM     70  CD1 ILE C   5      51.347  28.878  34.291  1.00 32.85 LIG 0.01  C 
ENDBRANCH 67 69
ENDBRANCH 53 67
ENDBRANCH 51 53
ENDBRANCH 39 49
ENDBRANCH 3 39
TORSDOF 26
