USER: ADFR SOLUTION from run 0
USER: SCORE 15.104457 LL:  -2.829 LR: -15.652 RR:   0.000 FEB:  -7.001
USER: RMSD 0.400417
USER: STATUS Locally minimized using BFGS
USER: GENES 31
USER: genes 0 Translation |==|  0.55109 0.54851 0.45805
USER: genes 1 Rotation |==|  0.51441 0.49965 0.50379 0.99978
USER: genes 2 Torsion [N]-CA--C-[N] |==|  0.36218
USER: genes 3 Torsion [C]-N--CA-[CB] |==|  0.42778
USER: genes 4 Torsion [N]-CA--CB-[OG] |==|  0.17813
USER: genes 5 Torsion [CA]-CB--OG-[HG] |==|  0.49971
USER: genes 6 Torsion [N]-CA--C-[N] |==|  0.41973
USER: genes 7 Torsion [C]-N--CA-[CB] |==|  0.36462
USER: genes 8 Torsion [N]-CA--CB-[CG] |==|  0.51433
USER: genes 9 Torsion [CA]-CB--CG-[CD2] |==|  0.52067
USER: genes 10 Torsion [N]-CA--C-[N] |==|  0.28532
USER: genes 11 Torsion [C]-N--CA-[CB] |==|  0.40834
USER: genes 12 Torsion [N]-CA--CB-[OG] |==|  0.53769
USER: genes 13 Torsion [CA]-CB--OG-[HG] |==|  0.49972
USER: genes 14 Torsion [N]-CA--C-[O] |==|  0.33689
USER: genes 15 Torsion [C]-CA--CB-[CG] |==|  0.50128
USER: genes 16 Torsion [CA]-CB--CG-[CD] |==|  0.60067
USER: genes 17 Torsion [CB]-CG--CD-[NE] |==|  0.68623
USER: genes 18 Torsion [CG]-CD--NE-[CZ] |==|  0.33028
USER: genes 19 Torsion [C]-CA--N-[C] |==|  0.60117
USER: genes 20 Torsion [N]-C--CA-[N] |==|  0.40001
USER: genes 21 Torsion [C]-CA--CB-[CG] |==|  0.46803
USER: genes 22 Torsion [CA]-CB--CG-[CD] |==|  0.49304
USER: genes 23 Torsion [CB]-CG--CD-[CE] |==|  0.56639
USER: genes 24 Torsion [CG]-CD--CE-[NZ] |==|  0.50489
USER: genes 25 Torsion [CD]-CE--NZ-[HZ2] |==|  0.82365
USER: genes 26 Torsion [C]-CA--N-[C] |==|  0.63742
USER: genes 27 Torsion [N]-C--CA-[N] |==|  0.44742
USER: genes 28 Torsion [C]-CA--CB-[CG] |==|  0.25247
USER: genes 29 Torsion [CA]-CB--CG-[CD] |==|  0.18182
USER: genes 30 Torsion [CB]-CG--CD-[OE1] |==|  0.12589
ROOT
ATOM      1  CA  ARG C 843       1.415   5.680   8.179  1.00 48.28 LIG 0.18  C 
ENDROOT
BRANCH 1 2
ATOM      2  C   ARG C 843       1.191   4.417   9.004  1.00 51.26 LIG 0.24  C 
ATOM      3  N   SER C 844       1.796   3.298   8.569  1.00 48.21 LIG-0.34  N 
ATOM      4 H    SER C 844       2.271   3.266   7.854  1.00 48.21 LIG 0.16  HD
ATOM      5 O    ARG C 843       0.472   4.453  10.008  1.00 49.46 LIG-0.27  OA
BRANCH 3 6
ATOM      6  CA  SER C 844       1.704   2.017   9.276  1.00 48.58 LIG 0.20  C 
BRANCH 6 7
ATOM      7  CB  SER C 844       1.901   0.849   8.310  1.00 52.82 LIG 0.20  C 
BRANCH 7 8
ATOM      8 OG   SER C 844       3.199   0.830   7.736  1.00 64.87 LIG-0.40  OA
ATOM      9 HG   SER C 844       3.266   0.175   7.215  1.00 64.87 LIG 0.21  HD
ENDBRANCH 7 8
ENDBRANCH 6 7
BRANCH 6 10
ATOM     10  C   SER C 844       2.733   1.951  10.408  1.00 51.88 LIG 0.24  C 
ATOM     11  N   PHE C 845       2.419   1.191  11.473  1.00 48.65 LIG-0.35  N 
ATOM     12 H    PHE C 845       1.664   0.785  11.555  1.00 48.65 LIG 0.16  HD
ATOM     13 O    SER C 844       3.786   2.589  10.320  1.00 50.80 LIG-0.27  OA
BRANCH 11 14
ATOM     14  CA  PHE C 845       3.327   0.975  12.601  1.00 48.60 LIG 0.18  C 
BRANCH 14 15
ATOM     15  CB  PHE C 845       2.618   1.208  13.958  1.00 50.69 LIG 0.07  C 
BRANCH 15 16
ATOM     16  CG  PHE C 845       3.435   1.146  15.240  1.00 53.32 LIG-0.06  A 
ATOM     17  CD2 PHE C 845       2.813   1.196  16.482  1.00 56.28 LIG 0.01  A 
ATOM     18  CE2 PHE C 845       3.559   1.138  17.667  1.00 59.52 LIG 0.00  A 
ATOM     19  CZ  PHE C 845       4.929   1.070  17.615  1.00 57.95 LIG 0.00  A 
ATOM     20  CE1 PHE C 845       5.569   1.034  16.393  1.00 59.50 LIG 0.00  A 
ATOM     21  CD1 PHE C 845       4.824   1.088  15.206  1.00 58.05 LIG 0.01  A 
ENDBRANCH 15 16
ENDBRANCH 14 15
BRANCH 14 22
ATOM     22  C   PHE C 845       3.894  -0.443  12.461  1.00 51.55 LIG 0.24  C 
ATOM     23 O    PHE C 845       3.196  -1.432  12.715  1.00 49.31 LIG-0.27  OA
ATOM     24  N   SER C 846       5.151  -0.523  11.988  1.00 48.84 LIG-0.34  N 
ATOM     25 H    SER C 846       5.614   0.173  11.785  1.00 48.84 LIG 0.16  HD
BRANCH 24 26
ATOM     26  CA  SER C 846       5.873  -1.776  11.765  1.00 80.27 LIG 0.19  C 
BRANCH 26 27
ATOM     27  CB  SER C 846       6.813  -1.643  10.570  1.00 83.79 LIG 0.20  C 
BRANCH 27 28
ATOM     28 OG   SER C 846       7.288  -2.909  10.141  1.00 92.96 LIG-0.40  OA
ATOM     29 HG   SER C 846       7.801  -2.808   9.483  1.00 92.96 LIG 0.21  HD
ENDBRANCH 27 28
ENDBRANCH 26 27
BRANCH 26 30
ATOM     30  C   SER C 846       6.656  -2.176  13.007  1.00107.57 LIG 0.22  C 
ATOM     31 O    SER C 846       6.435  -3.257  13.548  1.00 73.66 LIG-0.29  OA
ENDBRANCH 26 30
ENDBRANCH 24 26
ENDBRANCH 14 22
ENDBRANCH 11 14
ENDBRANCH 6 10
ENDBRANCH 3 6
ENDBRANCH 1 2
BRANCH 1 32
ATOM     32  CB  ARG C 843       2.392   6.638   8.920  1.00 50.74 LIG 0.04  C 
BRANCH 32 33
ATOM     33  CG  ARG C 843       2.679   7.951   8.176  1.00 63.97 LIG 0.02  C 
BRANCH 33 34
ATOM     34  CD  ARG C 843       4.099   8.444   8.328  1.00 82.46 LIG 0.14  C 
BRANCH 34 35
ATOM     35  NE  ARG C 843       4.134   9.685   9.097  1.00 98.18 LIG-0.23  N 
ATOM     36 HE   ARG C 843       3.716  10.365   8.778  1.00 98.18 LIG 0.18  HD
ATOM     37  CZ  ARG C 843       4.767   9.835  10.255  1.00115.63 LIG 0.67  C 
ATOM     38  NH2 ARG C 843       4.721  10.992  10.897  1.00101.74 LIG-0.23  N 
ATOM     39  NH1 ARG C 843       5.461   8.830  10.777  1.00105.44 LIG-0.23  N 
ATOM     40 1HH2 ARG C 843       4.280  11.651  10.564  1.00101.74 LIG 0.17  HD
ATOM     41 2HH2 ARG C 843       5.132  11.085  11.646  1.00101.74 LIG 0.17  HD
ATOM     42 1HH1 ARG C 843       5.502   8.076  10.365  1.00105.44 LIG 0.17  HD
ATOM     43 2HH1 ARG C 843       5.869   8.932  11.527  1.00105.44 LIG 0.17  HD
ENDBRANCH 34 35
ENDBRANCH 33 34
ENDBRANCH 32 33
ENDBRANCH 1 32
BRANCH 1 44
ATOM     44  N   ARG C 843       0.137   6.340   7.881  1.00 47.52 LIG-0.35  N 
ATOM     45  C   LYS C 842      -0.097   6.954   6.713  1.00 51.06 LIG 0.24  C 
ATOM     46 O    LYS C 842       0.732   7.005   5.800  1.00 51.08 LIG-0.27  OA
ATOM     47 H    ARG C 843      -0.439   6.295   8.519  1.00 47.52 LIG 0.16  HD
BRANCH 45 48
ATOM     48  CA  LYS C 842      -1.453   7.617   6.534  1.00 46.69 LIG 0.18  C 
BRANCH 48 49
ATOM     49  CB  LYS C 842      -2.438   6.637   5.870  1.00 47.71 LIG 0.04  C 
BRANCH 49 50
ATOM     50  CG  LYS C 842      -3.888   7.089   5.891  1.00 50.03 LIG 0.00  C 
BRANCH 50 51
ATOM     51  CD  LYS C 842      -4.768   6.088   5.160  1.00 53.65 LIG 0.03  C 
BRANCH 51 52
ATOM     52  CE  LYS C 842      -6.032   6.742   4.663  1.00 52.95 LIG 0.23  C 
BRANCH 52 53
ATOM     53  NZ  LYS C 842      -6.931   5.783   3.982  1.00 44.67 LIG-0.08  N 
ATOM     54 HZ3  LYS C 842      -7.120   5.110   4.533  1.00 44.67 LIG 0.27  HD
ATOM     55 HZ2  LYS C 842      -6.531   5.466   3.254  1.00 44.67 LIG 0.27  HD
ATOM     56 HZ1  LYS C 842      -7.685   6.197   3.751  1.00 44.67 LIG 0.27  HD
ENDBRANCH 52 53
ENDBRANCH 51 52
ENDBRANCH 50 51
ENDBRANCH 49 50
ENDBRANCH 48 49
BRANCH 48 57
ATOM     57  N   LYS C 842      -1.302   8.844   5.755  1.00 47.24 LIG-0.35  N 
ATOM     58 H    LYS C 842      -0.845   8.730   5.035  1.00 47.24 LIG 0.16  HD
ATOM     59  C   GLN C 841      -1.810  10.035   6.103  1.00 52.93 LIG 0.26  C 
ATOM     60 O    GLN C 841      -2.508  10.208   7.106  1.00 51.68 LIG-0.27  OA
BRANCH 59 61
ATOM     61  CA  GLN C 841      -1.531  11.199   5.147  1.00 52.44 LIG 0.40  C 
ATOM     62  N   GLN C 841      -2.482  12.284   5.390  1.00 53.67 LIG 0.61  N 
BRANCH 61 63
ATOM     63  CB  GLN C 841      -0.076  11.698   5.291  1.00 53.85 LIG 0.06  C 
BRANCH 63 64
ATOM     64  CG  GLN C 841       0.941  11.020   4.358  1.00 74.06 LIG 0.10  C 
BRANCH 64 65
ATOM     65  CD  GLN C 841       0.732  11.293   2.879  1.00 99.82 LIG 0.21  C 
ATOM     66 OE1  GLN C 841       0.499  12.430   2.444  1.00 97.42 LIG-0.27  OA
ATOM     67  NE2 GLN C 841       0.861  10.254   2.066  1.00 91.89 LIG-0.37  N 
ATOM     68 22HE GLN C 841       0.783  10.361   1.217  1.00 91.89 LIG 0.16  HD
ATOM     69 21HE GLN C 841       1.022   9.473   2.389  1.00 91.89 LIG 0.16  HD
ENDBRANCH 64 65
ENDBRANCH 63 64
ENDBRANCH 61 63
ENDBRANCH 59 61
ENDBRANCH 48 57
ENDBRANCH 45 48
ENDBRANCH 1 44
TORSDOF 29
