USER: ADFR SOLUTION from run 0
USER: SCORE 13.717597 LL:  -2.257 LR: -12.514 RR:   0.000 FEB:  -9.829
USER: RMSD 0.628855
USER: STATUS Locally minimized using BFGS
USER: GENES 11
USER: genes 0 Translation |==|  0.50484 0.58006 0.41672
USER: genes 1 Rotation |==|  0.49397 0.45488 0.49886 0.99792
USER: genes 2 Torsion [C]-N--CA-[CB] |==|  0.46111
USER: genes 3 Torsion [N]-CA--CB-[CG2] |==|  0.14587
USER: genes 4 Torsion [N]-CA--C-[N] |==|  0.39313
USER: genes 5 Torsion [C]-N--CA-[CB] |==|  0.33048
USER: genes 6 Torsion [N]-CA--C-[O] |==|  0.40081
USER: genes 7 Torsion [N]-C--CA-[N] |==|  0.46292
USER: genes 8 Torsion [C]-CA--N-[H2] |==|  0.75761
USER: genes 9 Torsion [C]-CA--CB-[CG] |==|  0.80885
USER: genes 10 Torsion [CA]-CB--CG-[OD2] |==|  0.59330
ROOT
ATOM      1  C   ASP B   1      11.632  -6.000  18.851  1.00 14.06 LIG 0.25  C 
ATOM      2 O    ASP B   1      12.303  -5.459  19.740  1.00 13.02 LIG-0.27  OA
ATOM      3  N   VAL B   2      10.765  -6.979  19.099  1.00 15.42 LIG-0.35  N 
ATOM      4 H    VAL B   2      10.296  -7.377  18.497  1.00 15.42 LIG 0.16  HD
ENDROOT
BRANCH 3 5
ATOM      5  CA  VAL B   2      10.547  -7.455  20.460  1.00 13.63 LIG 0.18  C 
BRANCH 5 6
ATOM      6  CB  VAL B   2       9.277  -8.329  20.566  1.00 22.00 LIG 0.01  C 
ATOM      7  CG2 VAL B   2       9.310  -9.434  19.538  1.00 31.03 LIG 0.01  C 
ATOM      8  CG1 VAL B   2       8.027  -7.481  20.393  1.00 26.65 LIG 0.01  C 
ENDBRANCH 5 6
BRANCH 5 9
ATOM      9  C   VAL B   2      11.763  -8.215  21.006  1.00 16.31 LIG 0.24  C 
ATOM     10 O    VAL B   2      12.427  -8.958  20.284  1.00 16.18 LIG-0.27  OA
ATOM     11  N   ALA B   3      12.053  -8.011  22.287  1.00 17.95 LIG-0.34  N 
ATOM     12 H    ALA B   3      11.624  -7.462  22.792  1.00 17.95 LIG 0.16  HD
BRANCH 11 13
ATOM     13  CA  ALA B   3      13.145  -8.717  22.957  1.00 23.42 LIG 0.18  C 
ATOM     14  CB  ALA B   3      14.183  -7.727  23.464  1.00 32.12 LIG 0.04  C 
BRANCH 13 15
ATOM     15  C   ALA B   3      12.607  -9.555  24.115  1.00 26.28 LIG 0.20  C 
ATOM     16 O    ALA B   3      13.086 -10.651  24.413  1.00 32.58 LIG-0.65  OA
ATOM     17 OXT  ALA B   3      11.670  -9.142  24.790  1.00 24.09 LIG-0.65  OA
ENDBRANCH 13 15
ENDBRANCH 11 13
ENDBRANCH 5 9
ENDBRANCH 3 5
BRANCH 1 18
ATOM     18  CA  ASP B   1      11.758  -5.548  17.396  1.00 13.24 LIG 0.28  C 
BRANCH 18 19
ATOM     19  N   ASP B   1      12.488  -4.287  17.325  1.00 13.44 LIG-0.07  N 
ATOM     20 H2   ASP B   1      11.918  -3.609  17.419  1.00 13.44 LIG 0.28  HD
ATOM     21 H3   ASP B   1      13.094  -4.258  17.977  1.00 13.44 LIG 0.28  HD
ATOM     22 H1   ASP B   1      12.897  -4.225  16.538  1.00 13.44 LIG 0.28  HD
ENDBRANCH 18 19
BRANCH 18 23
ATOM     23  CB  ASP B   1      12.433  -6.621  16.520  1.00 18.19 LIG 0.15  C 
BRANCH 23 24
ATOM     24  CG  ASP B   1      13.919  -6.825  16.847  1.00 31.60 LIG 0.17  C 
ATOM     25 OD2  ASP B   1      14.712  -7.122  15.914  1.00 40.27 LIG-0.65  OA
ATOM     26 OD1  ASP B   1      14.301  -6.713  18.029  1.00 39.31 LIG-0.65  OA
ENDBRANCH 23 24
ENDBRANCH 18 23
ENDBRANCH 1 18
TORSDOF 9
