USER: ADFR SOLUTION from run 0
USER: SCORE 15.523317 LL:  -3.952 LR: -12.193 RR:   0.000 FEB:  -5.332
USER: RMSD 0.328540
USER: STATUS Locally minimized using BFGS
USER: GENES 25
USER: genes 0 Translation |==|  0.37557 0.60132 0.64855
USER: genes 1 Rotation |==|  0.51117 0.49566 0.49932 0.99986
USER: genes 2 Torsion [C]-N--CA-[C] |==|  0.72121
USER: genes 3 Torsion [N]-CA--C-[N] |==|  0.51679
USER: genes 4 Torsion [C]-N--CA-[C] |==|  0.67560
USER: genes 5 Torsion [N]-CA--C-[N] |==|  0.42973
USER: genes 6 Torsion [C]-N--CA-[C] |==|  0.74608
USER: genes 7 Torsion [N]-CA--CB-[CG] |==|  0.84454
USER: genes 8 Torsion [CA]-CB--CG-[CD] |==|  0.50175
USER: genes 9 Torsion [CB]-CG--CD-[OE1] |==|  0.22126
USER: genes 10 Torsion [N]-CA--C-[OXT] |==|  0.45229
USER: genes 11 Torsion [N]-CA--CB-[CG1] |==|  0.78875
USER: genes 12 Torsion [N]-CA--CB-[CG] |==|  0.55393
USER: genes 13 Torsion [CA]-CB--CG-[OD1] |==|  0.97920
USER: genes 14 Torsion [N]-C--CA-[N] |==|  0.04559
USER: genes 15 Torsion [C]-CA--N-[C] |==|  0.70625
USER: genes 16 Torsion [N]-C--CA-[N] |==|  0.95652
USER: genes 17 Torsion [C]-CA--N-[C] |==|  0.80802
USER: genes 18 Torsion [N]-C--CA-[N] |==|  0.40546
USER: genes 19 Torsion [C]-CA--N-[H3] |==|  0.07501
USER: genes 20 Torsion [C]-CA--CB-[CG] |==|  0.44123
USER: genes 21 Torsion [CA]-CB--CG-[CD] |==|  0.84230
USER: genes 22 Torsion [CB]-CG--CD-[OE2] |==|  0.35617
USER: genes 23 Torsion [C]-CA--CB-[CG] |==|  0.84388
USER: genes 24 Torsion [CA]-CB--CG-[OD1] |==|  0.95340
ROOT
ATOM      1  C   ASP D   3      25.677 -11.089  28.436  1.00 34.79 LIG 0.24  C 
ATOM      2 O    ASP D   3      26.019 -10.245  29.269  1.00 37.58 LIG-0.27  OA
ATOM      3  N   ASP D   4      26.536 -11.913  27.841  1.00 33.46 LIG-0.34  N 
ATOM      4 H    ASP D   4      26.298 -12.550  27.315  1.00 33.46 LIG 0.16  HD
ENDROOT
BRANCH 3 5
ATOM      5  CA  ASP D   4      27.967 -11.808  28.032  1.00 24.32 LIG 0.19  C 
BRANCH 5 6
ATOM      6  C   ASP D   4      28.510 -11.084  26.801  1.00 29.08 LIG 0.24  C 
ATOM      7  N   VAL D   5      29.825 -10.989  26.711  1.00 26.12 LIG-0.35  N 
ATOM      8 H    VAL D   5      30.373 -11.272  27.311  1.00 26.12 LIG 0.16  HD
ATOM      9 O    ASP D   4      27.746 -10.618  25.947  1.00 25.35 LIG-0.27  OA
BRANCH 7 10
ATOM     10  CA  VAL D   5      30.456 -10.379  25.549  1.00 27.68 LIG 0.18  C 
BRANCH 10 11
ATOM     11  C   VAL D   5      31.304 -11.432  24.827  1.00 28.81 LIG 0.24  C 
ATOM     12  N   GLU D   6      31.517 -11.233  23.531  1.00 27.30 LIG-0.34  N 
ATOM     13 H    GLU D   6      31.228 -10.548  23.099  1.00 27.30 LIG 0.16  HD
ATOM     14 O    VAL D   5      31.725 -12.423  25.429  1.00 31.14 LIG-0.27  OA
BRANCH 12 15
ATOM     15  CA  GLU D   6      32.275 -12.181  22.714  1.00 31.22 LIG 0.19  C 
BRANCH 15 16
ATOM     16  CB  GLU D   6      31.772 -12.177  21.272  1.00 26.83 LIG 0.05  C 
BRANCH 16 17
ATOM     17  CG  GLU D   6      30.298 -12.460  21.112  1.00 32.75 LIG 0.12  C 
BRANCH 17 18
ATOM     18  CD  GLU D   6      29.876 -12.455  19.652  1.00 37.41 LIG 0.17  C 
ATOM     19 OE1  GLU D   6      30.104 -13.466  18.959  1.00 40.07 LIG-0.65  OA
ATOM     20 OE2  GLU D   6      29.317 -11.439  19.195  1.00 32.49 LIG-0.65  OA
ENDBRANCH 17 18
ENDBRANCH 16 17
ENDBRANCH 15 16
BRANCH 15 21
ATOM     21  C   GLU D   6      33.742 -11.802  22.699  1.00 32.10 LIG 0.20  C 
ATOM     22 OXT  GLU D   6      34.590 -12.622  22.345  1.00 29.11 LIG-0.65  OA
ATOM     23 O    GLU D   6      34.098 -10.662  23.001  1.00 24.06 LIG-0.65  OA
ENDBRANCH 15 21
ENDBRANCH 12 15
ENDBRANCH 10 11
BRANCH 10 24
ATOM     24  CB  VAL D   5      31.287  -9.154  25.961  1.00 24.95 LIG 0.01  C 
ATOM     25  CG1 VAL D   5      30.359  -7.977  26.253  1.00 19.21 LIG 0.01  C 
ATOM     26  CG2 VAL D   5      32.140  -9.479  27.189  1.00 24.99 LIG 0.01  C 
ENDBRANCH 10 24
ENDBRANCH 7 10
ENDBRANCH 5 6
BRANCH 5 27
ATOM     27  CB  ASP D   4      28.590 -13.204  28.150  1.00 34.66 LIG 0.15  C 
BRANCH 27 28
ATOM     28  CG  ASP D   4      29.975 -13.194  28.811  1.00 38.29 LIG 0.17  C 
ATOM     29 OD2  ASP D   4      30.508 -14.293  29.077  1.00 38.65 LIG-0.65  OA
ATOM     30 OD1  ASP D   4      30.539 -12.107  29.060  1.00 35.40 LIG-0.65  OA
ENDBRANCH 27 28
ENDBRANCH 5 27
ENDBRANCH 3 5
BRANCH 1 31
ATOM     31  CA  ASP D   3      24.212 -11.247  28.011  1.00 30.73 LIG 0.19  C 
BRANCH 31 32
ATOM     32  N   ASP D   3      23.981 -12.518  27.324  1.00 30.00 LIG-0.35  N 
ATOM     33  C   GLU D   2      23.803 -12.549  26.003  1.00 37.22 LIG 0.24  C 
ATOM     34 O    GLU D   2      23.784 -11.533  25.309  1.00 35.26 LIG-0.27  OA
ATOM     35 H    ASP D   3      23.973 -13.211  27.834  1.00 30.00 LIG 0.16  HD
BRANCH 33 36
ATOM     36  CA  GLU D   2      23.640 -13.922  25.358  1.00 39.45 LIG 0.18  C 
BRANCH 36 37
ATOM     37  N   GLU D   2      24.063 -15.003  26.236  1.00 40.85 LIG-0.35  N 
ATOM     38  C   ALA D   1      25.343 -15.178  26.547  1.00 38.03 LIG 0.25  C 
ATOM     39 O    ALA D   1      26.238 -14.435  26.141  1.00 37.20 LIG-0.27  OA
ATOM     40 H    GLU D   2      23.424 -15.501  26.525  1.00 40.85 LIG 0.16  HD
BRANCH 38 41
ATOM     41  CA  ALA D   1      25.660 -16.369  27.448  1.00 41.40 LIG 0.27  C 
ATOM     42  CB  ALA D   1      25.626 -15.956  28.919  1.00 39.88 LIG 0.05  C 
BRANCH 41 43
ATOM     43  N   ALA D   1      26.956 -16.948  27.103  1.00 41.88 LIG-0.07  N 
ATOM     44 H2   ALA D   1      26.840 -17.609  26.519  1.00 41.88 LIG 0.28  HD
ATOM     45 H3   ALA D   1      27.476 -16.321  26.743  1.00 41.88 LIG 0.28  HD
ATOM     46 H1   ALA D   1      27.344 -17.267  27.838  1.00 41.88 LIG 0.28  HD
ENDBRANCH 41 43
ENDBRANCH 38 41
ENDBRANCH 36 37
BRANCH 36 47
ATOM     47  CB  GLU D   2      22.205 -14.142  24.884  1.00 37.20 LIG 0.04  C 
BRANCH 47 48
ATOM     48  CG  GLU D   2      22.108 -15.213  23.822  1.00 39.39 LIG 0.12  C 
BRANCH 48 49
ATOM     49  CD  GLU D   2      22.984 -14.899  22.629  1.00 42.36 LIG 0.17  C 
ATOM     50 OE2  GLU D   2      23.790 -15.764  22.209  1.00 45.25 LIG-0.65  OA
ATOM     51 OE1  GLU D   2      22.863 -13.776  22.109  1.00 37.51 LIG-0.65  OA
ENDBRANCH 48 49
ENDBRANCH 47 48
ENDBRANCH 36 47
ENDBRANCH 33 36
ENDBRANCH 31 32
BRANCH 31 52
ATOM     52  CB  ASP D   3      23.230 -11.031  29.177  1.00 35.86 LIG 0.15  C 
BRANCH 52 53
ATOM     53  CG  ASP D   3      23.493 -11.947  30.360  1.00 46.33 LIG 0.17  C 
ATOM     54 OD1  ASP D   3      24.207 -12.961  30.207  1.00 38.55 LIG-0.65  OA
ATOM     55 OD2  ASP D   3      22.967 -11.648  31.454  1.00 55.15 LIG-0.65  OA
ENDBRANCH 52 53
ENDBRANCH 31 52
ENDBRANCH 1 31
TORSDOF 23
