USER: ADFR SOLUTION from run 0
USER: SCORE 12.322994 LL:  -3.069 LR: -10.084 RR:   0.000 FEB:  -5.908
USER: RMSD 0.762745
USER: STATUS Locally minimized using BFGS
USER: GENES 16
USER: genes 0 Translation |==|  0.53429 0.49374 0.55944
USER: genes 1 Rotation |==|  0.51122 0.50826 0.49696 0.99980
USER: genes 2 Torsion [C]-CA--N-[C] |==|  0.63859
USER: genes 3 Torsion [N]-C--CA-[N] |==|  0.37546
USER: genes 4 Torsion [C]-CA--CB-[CG] |==|  0.47713
USER: genes 5 Torsion [CA]-CB--CG-[CD2] |==|  0.24696
USER: genes 6 Torsion [C]-CA--N-[C] |==|  0.78600
USER: genes 7 Torsion [N]-CA--C-[N] |==|  0.43087
USER: genes 8 Torsion [C]-N--CA-[CB] |==|  0.50322
USER: genes 9 Torsion [N]-CA--CB-[CG2] |==|  0.19390
USER: genes 10 Torsion [CA]-CB--OG1-[HG1] |==|  0.80475
USER: genes 11 Torsion [N]-CA--C-[N] |==|  0.40801
USER: genes 12 Torsion [C]-N--CA-[C] |==|  0.76971
USER: genes 13 Torsion [N]-CA--C-[N] |==|  0.98857
USER: genes 14 Torsion [N]-CA--CB-[CG] |==|  0.87959
USER: genes 15 Torsion [CA]-CB--CG-[ND1] |==|  0.78143
ROOT
ATOM      1  CA  HIS C   2      25.446   2.484  44.131  1.00 11.69 LIG 0.18  C 
ENDROOT
BRANCH 1 2
ATOM      2  N   HIS C   2      25.315   2.212  42.699  1.00 10.87 LIG-0.35  N 
ATOM      3 H    HIS C   2      24.749   2.710  42.287  1.00 10.87 LIG 0.16  HD
ATOM      4  C   PHE C   1      26.035   1.258  42.122  1.00 11.47 LIG 0.24  C 
ATOM      5 O    PHE C   1      26.938   0.640  42.714  1.00 12.97 LIG-0.27  OA
BRANCH 4 6
ATOM      6  CA  PHE C   1      25.722   0.987  40.648  1.00 11.05 LIG 0.18  C 
BRANCH 6 7
ATOM      7  CB  PHE C   1      24.875  -0.282  40.511  1.00 10.09 LIG 0.07  C 
BRANCH 7 8
ATOM      8  CG  PHE C   1      24.361  -0.511  39.123  1.00  8.73 LIG-0.06  A 
ATOM      9  CD2 PHE C   1      25.102  -1.221  38.206  1.00  8.91 LIG 0.01  A 
ATOM     10  CE2 PHE C   1      24.624  -1.416  36.927  1.00  8.44 LIG 0.00  A 
ATOM     11  CZ  PHE C   1      23.403  -0.886  36.557  1.00  8.32 LIG 0.00  A 
ATOM     12  CE1 PHE C   1      22.651  -0.183  37.472  1.00  8.07 LIG 0.00  A 
ATOM     13  CD1 PHE C   1      23.139   0.013  38.741  1.00  8.33 LIG 0.01  A 
ENDBRANCH 7 8
ENDBRANCH 6 7
BRANCH 6 14
ATOM     14  N   PHE C   1      26.937   0.859  39.874  1.00 11.54 LIG-0.35  N 
ATOM     15 H    PHE C   1      27.133   0.044  39.684  1.00 11.54 LIG 0.16  HD
ATOM     16  C   ACE C   0      27.682   1.882  39.488  1.00 13.21 LIG 0.21  C 
ATOM     17  CH3 ACE C   0      29.017   1.602  38.860  1.00 13.47 LIG 0.12  C 
ATOM     18 O    ACE C   0      27.330   2.999  39.864  1.00 14.75 LIG-0.27  OA
ENDBRANCH 6 14
ENDBRANCH 4 6
ENDBRANCH 1 2
BRANCH 1 19
ATOM     19  C   HIS C   2      24.066   2.514  44.729  1.00 11.19 LIG 0.24  C 
ATOM     20  N   THR C   3      23.980   2.238  46.023  1.00 11.67 LIG-0.34  N 
ATOM     21 H    THR C   3      24.645   2.008  46.519  1.00 11.67 LIG 0.16  HD
ATOM     22 O    HIS C   2      23.090   2.827  44.052  1.00 11.10 LIG-0.27  OA
BRANCH 20 23
ATOM     23  CA  THR C   3      22.705   2.312  46.705  1.00 11.71 LIG 0.20  C 
BRANCH 23 24
ATOM     24  CB  THR C   3      22.831   1.980  48.216  1.00 13.34 LIG 0.15  C 
ATOM     25  CG2 THR C   3      23.566   3.062  48.968  1.00 14.42 LIG 0.04  C 
BRANCH 24 26
ATOM     26 OG1  THR C   3      21.523   1.845  48.763  1.00 13.01 LIG-0.39  OA
ATOM     27 HG1  THR C   3      21.152   2.598  48.791  1.00 13.01 LIG 0.21  HD
ENDBRANCH 24 26
ENDBRANCH 23 24
BRANCH 23 28
ATOM     28  C   THR C   3      22.058   3.689  46.486  1.00 11.33 LIG 0.24  C 
ATOM     29  N   ALA C   4      20.728   3.720  46.422  1.00 10.31 LIG-0.35  N 
ATOM     30 H    ALA C   4      20.227   3.023  46.380  1.00 10.31 LIG 0.16  HD
ATOM     31 O    THR C   3      22.753   4.707  46.376  1.00 11.88 LIG-0.27  OA
BRANCH 29 32
ATOM     32  CA  ALA C   4      20.015   4.991  46.420  1.00 10.35 LIG 0.18  C 
ATOM     33  CB  ALA C   4      18.667   4.855  45.698  1.00 10.31 LIG 0.04  C 
BRANCH 32 34
ATOM     34  C   ALA C   4      19.828   5.529  47.862  1.00 10.99 LIG 0.28  C 
ATOM     35 O    ALA C   4      19.310   6.622  48.061  0.79 11.43 LIG-0.27  OA
ATOM     36  N   NH2 C   5      20.245   4.751  48.856  0.91 10.97 LIG-0.11  N 
ENDBRANCH 32 34
ENDBRANCH 29 32
ENDBRANCH 23 28
ENDBRANCH 20 23
ENDBRANCH 1 19
BRANCH 1 37
ATOM     37  CB  HIS C   2      26.077   3.842  44.400  1.00 14.08 LIG 0.10  C 
BRANCH 37 38
ATOM     38  CG  HIS C   2      27.244   4.149  43.532  1.00 15.42 LIG 0.06  A 
ATOM     39  CD2 HIS C   2      27.335   4.930  42.435  1.00 15.59 LIG 0.14  A 
ATOM     40 NE2  HIS C   2      28.640   4.876  42.005  1.00 17.02 LIG-0.25  NA
ATOM     41  CE1 HIS C   2      29.324   4.091  42.815  1.00 16.99 LIG 0.23  A 
ATOM     42 ND1  HIS C   2      28.505   3.636  43.746  0.48 15.92 LIG-0.24  NA
ENDBRANCH 37 38
ENDBRANCH 1 37
TORSDOF 14
