USER: ADFR SOLUTION from run 0
USER: SCORE 19.155667 LL:  -5.297 LR: -15.381 RR:   0.000 FEB:  -7.625
USER: RMSD 0.665441
USER: STATUS Locally minimized using BFGS
USER: GENES 28
USER: genes 0 Translation |==|  0.47885 0.47421 0.40727
USER: genes 1 Rotation |==|  0.47365 0.49121 0.49072 0.99914
USER: genes 2 Torsion [N]-CA--C-[O] |==|  0.90936
USER: genes 3 Torsion [C]-N--CA-[CB] |==|  0.44008
USER: genes 4 Torsion [N]-CA--C-[N] |==|  0.40005
USER: genes 5 Torsion [C]-N--CA-[C] |==|  0.53967
USER: genes 6 Torsion [N]-CA--CB-[CG] |==|  0.19591
USER: genes 7 Torsion [CA]-CB--CG-[CD1] |==|  0.77259
USER: genes 8 Torsion [N]-CA--C-[N] |==|  0.47137
USER: genes 9 Torsion [C]-N--CA-[C] |==|  0.66731
USER: genes 10 Torsion [N]-CA--CB-[CG] |==|  0.84464
USER: genes 11 Torsion [CA]-CB--CG-[OD1] |==|  0.79879
USER: genes 12 Torsion [N]-CA--C-[O] |==|  0.24143
USER: genes 13 Torsion [N]-CA--CB-[CG2] |==|  0.42807
USER: genes 14 Torsion [CA]-CB--CG1-[CD1] |==|  0.52976
USER: genes 15 Torsion [N]-C--CA-[N] |==|  0.34160
USER: genes 16 Torsion [C]-CA--N-[C] |==|  0.81109
USER: genes 17 Torsion [N]-C--CA-[N] |==|  0.94789
USER: genes 18 Torsion [C]-CA--N-[C] |==|  0.76158
USER: genes 19 Torsion [N]-C--CA-[N] |==|  0.38110
USER: genes 20 Torsion [C]-CA--CB-[CG1] |==|  0.48695
USER: genes 21 Torsion [CA]-CB--CG1-[CD1] |==|  0.37881
USER: genes 22 Torsion [C]-CA--CB-[CG] |==|  0.47168
USER: genes 23 Torsion [CA]-CB--CG-[CD] |==|  0.51805
USER: genes 24 Torsion [CB]-CG--CD-[NE] |==|  0.84933
USER: genes 25 Torsion [CG]-CD--NE-[CZ] |==|  0.31986
USER: genes 26 Torsion [C]-CA--CB-[CG1] |==|  0.51150
USER: genes 27 Torsion [CA]-CB--CG1-[CD1] |==|  0.87526
ROOT
ATOM      1  C   ILE E1023     -48.673  24.430  -2.185  1.00 40.02 LIG 0.24  C 
ATOM      2 O    ILE E1023     -48.575  25.610  -2.553  1.00 38.38 LIG-0.27  OA
ATOM      3  N   PRO E1024     -49.624  24.003  -1.316  1.00 37.38 LIG-0.34  N 
ATOM      4  CA  PRO E1024     -50.499  24.988  -0.664  1.00 36.67 LIG 0.18  C 
ATOM      5  CB  PRO E1024     -51.624  24.135  -0.084  1.00 38.74 LIG 0.04  C 
ATOM      6  CG  PRO E1024     -51.007  22.812   0.171  1.00 43.33 LIG 0.02  C 
ATOM      7  CD  PRO E1024     -49.863  22.641  -0.787  1.00 39.42 LIG 0.13  C 
ENDROOT
BRANCH 4 8
ATOM      8  C   PRO E1024     -49.710  25.707   0.423  1.00 39.60 LIG 0.24  C 
ATOM      9 O    PRO E1024     -48.834  25.094   1.031  1.00 37.18 LIG-0.27  OA
ATOM     10  N   ILE E1025     -50.003  27.008   0.629  1.00 37.20 LIG-0.35  N 
ATOM     11 H    ILE E1025     -50.617  27.407   0.178  1.00 37.20 LIG 0.16  HD
BRANCH 10 12
ATOM     12  CA  ILE E1025     -49.361  27.905   1.600  1.00 37.42 LIG 0.18  C 
BRANCH 12 13
ATOM     13  C   ILE E1025     -50.036  27.796   2.965  1.00 40.88 LIG 0.24  C 
ATOM     14 O    ILE E1025     -51.266  27.824   3.026  1.00 40.29 LIG-0.27  OA
ATOM     15  N   PHE E1026     -49.258  27.896   4.062  1.00 36.23 LIG-0.35  N 
ATOM     16 H    PHE E1026     -48.399  27.865   4.050  1.00 36.23 LIG 0.16  HD
BRANCH 15 17
ATOM     17  CA  PHE E1026     -49.849  28.068   5.395  1.00 36.58 LIG 0.18  C 
BRANCH 17 18
ATOM     18  CB  PHE E1026     -50.539  26.795   5.875  1.00 38.58 LIG 0.07  C 
BRANCH 18 19
ATOM     19  CG  PHE E1026     -49.563  25.705   6.209  1.00 40.24 LIG-0.06  A 
ATOM     20  CD1 PHE E1026     -49.032  24.908   5.217  1.00 42.20 LIG 0.01  A 
ATOM     21  CE1 PHE E1026     -48.140  23.896   5.528  1.00 42.54 LIG 0.00  A 
ATOM     22  CZ  PHE E1026     -47.774  23.676   6.830  1.00 41.81 LIG 0.00  A 
ATOM     23  CE2 PHE E1026     -48.294  24.451   7.832  1.00 44.36 LIG 0.00  A 
ATOM     24  CD2 PHE E1026     -49.191  25.461   7.525  1.00 42.30 LIG 0.01  A 
ENDBRANCH 18 19
ENDBRANCH 17 18
BRANCH 17 25
ATOM     25  C   PHE E1026     -48.798  28.501   6.401  1.00 38.60 LIG 0.24  C 
ATOM     26  N   ASN E1027     -49.261  28.900   7.612  1.00 38.80 LIG-0.35  N 
ATOM     27 H    ASN E1027     -50.101  28.932   7.796  1.00 38.80 LIG 0.16  HD
ATOM     28 O    PHE E1026     -47.606  28.416   6.113  1.00 31.59 LIG-0.27  OA
BRANCH 26 29
ATOM     29  CA  ASN E1027     -48.412  29.318   8.734  1.00 74.37 LIG 0.17  C 
BRANCH 29 30
ATOM     30  CB  ASN E1027     -48.720  30.760   9.123  1.00 75.17 LIG 0.14  C 
BRANCH 30 31
ATOM     31  CG  ASN E1027     -48.581  31.729   7.976  1.00 99.64 LIG 0.22  C 
ATOM     32  ND2 ASN E1027     -49.698  32.225   7.451  1.00 92.55 LIG-0.37  N 
ATOM     33 22HD ASN E1027     -50.462  31.997   7.771  1.00 92.55 LIG 0.16  HD
ATOM     34 21HD ASN E1027     -49.656  32.775   6.790  1.00 92.55 LIG 0.16  HD
ATOM     35 OD1  ASN E1027     -47.471  32.038   7.538  1.00 94.01 LIG-0.27  OA
ENDBRANCH 30 31
ENDBRANCH 29 30
BRANCH 29 36
ATOM     36  C   ASN E1027     -48.642  28.407   9.938  1.00103.37 LIG 0.22  C 
ATOM     37 O    ASN E1027     -48.007  27.363  10.056  1.00 69.20 LIG-0.29  OA
ENDBRANCH 29 36
ENDBRANCH 26 29
ENDBRANCH 17 25
ENDBRANCH 15 17
ENDBRANCH 12 13
BRANCH 12 38
ATOM     38  CB  ILE E1025     -49.601  29.406   1.129  1.00 40.50 LIG 0.01  C 
ATOM     39  CG2 ILE E1025     -49.560  30.387   2.309  1.00 43.95 LIG 0.01  C 
BRANCH 38 40
ATOM     40  CG1 ILE E1025     -48.647  29.849   0.020  1.00 41.58 LIG 0.00  C 
ATOM     41  CD1 ILE E1025     -48.709  31.449  -0.260  1.00 52.05 LIG 0.01  C 
ENDBRANCH 38 40
ENDBRANCH 12 38
ENDBRANCH 10 12
ENDBRANCH 4 8
BRANCH 1 42
ATOM     42  CA  ILE E1023     -47.751  23.399  -2.812  1.00 36.06 LIG 0.18  C 
BRANCH 42 43
ATOM     43  N   ILE E1023     -47.895  23.536  -4.274  1.00 37.96 LIG-0.35  N 
ATOM     44  C   ARG E1022     -49.029  23.211  -4.933  1.00 45.42 LIG 0.24  C 
ATOM     45 O    ARG E1022     -50.006  22.704  -4.381  1.00 45.23 LIG-0.27  OA
ATOM     46 H    ILE E1023     -47.193  23.840  -4.666  1.00 37.96 LIG 0.16  HD
BRANCH 44 47
ATOM     47  CA  ARG E1022     -49.074  23.416  -6.447  1.00 45.59 LIG 0.18  C 
BRANCH 47 48
ATOM     48  N   ARG E1022     -48.039  24.341  -6.938  1.00 48.30 LIG-0.35  N 
ATOM     49 H    ARG E1022     -47.318  23.957  -7.206  1.00 48.30 LIG 0.16  HD
ATOM     50  C   ILE E1021     -48.233  25.678  -6.956  1.00 57.51 LIG 0.26  C 
ATOM     51 O    ILE E1021     -49.282  26.208  -6.569  1.00 59.03 LIG-0.27  OA
BRANCH 50 52
ATOM     52  CA  ILE E1021     -47.100  26.568  -7.495  1.00 57.59 LIG 0.40  C 
ATOM     53  N   ILE E1021     -47.681  27.599  -8.349  1.00 58.96 LIG 0.61  N 
BRANCH 52 54
ATOM     54  CB  ILE E1021     -46.318  27.295  -6.365  1.00 60.58 LIG 0.03  C 
ATOM     55  CG2 ILE E1021     -45.857  26.349  -5.260  1.00 61.37 LIG 0.01  C 
BRANCH 54 56
ATOM     56  CG1 ILE E1021     -45.119  28.081  -6.951  1.00 60.59 LIG 0.00  C 
ATOM     57  CD1 ILE E1021     -44.982  29.437  -6.366  1.00 60.15 LIG 0.01  C 
ENDBRANCH 54 56
ENDBRANCH 52 54
ENDBRANCH 50 52
ENDBRANCH 47 48
BRANCH 47 58
ATOM     58  CB  ARG E1022     -48.987  22.045  -7.129  1.00 44.33 LIG 0.04  C 
BRANCH 58 59
ATOM     59  CG  ARG E1022     -49.269  22.100  -8.625  1.00 47.73 LIG 0.02  C 
BRANCH 59 60
ATOM     60  CD  ARG E1022     -49.338  20.730  -9.268  1.00 47.87 LIG 0.14  C 
BRANCH 60 61
ATOM     61  NE  ARG E1022     -48.125  19.965  -8.983  1.00 55.98 LIG-0.23  N 
ATOM     62  CZ  ARG E1022     -48.051  18.846  -8.267  1.00 56.00 LIG 0.67  C 
ATOM     63  NH1 ARG E1022     -49.147  18.300  -7.751  1.00 48.69 LIG-0.23  N 
ATOM     64  NH2 ARG E1022     -46.884  18.245  -8.089  1.00 32.20 LIG-0.23  N 
ATOM     65 1HH1 ARG E1022     -49.912  18.670  -7.879  1.00 48.69 LIG 0.17  HD
ATOM     66 2HH1 ARG E1022     -49.090  17.577  -7.290  1.00 48.69 LIG 0.17  HD
ATOM     67 2HH2 ARG E1022     -46.840  17.522  -7.626  1.00 32.20 LIG 0.17  HD
ATOM     68 1HH2 ARG E1022     -46.171  18.578  -8.437  1.00 32.20 LIG 0.17  HD
ATOM     69 HE   ARG E1022     -47.389  20.267  -9.310  1.00 55.98 LIG 0.18  HD
ENDBRANCH 60 61
ENDBRANCH 59 60
ENDBRANCH 58 59
ENDBRANCH 47 58
ENDBRANCH 44 47
ENDBRANCH 42 43
BRANCH 42 70
ATOM     70  CB  ILE E1023     -46.288  23.641  -2.315  1.00 38.78 LIG 0.01  C 
ATOM     71  CG2 ILE E1023     -46.215  23.559  -0.783  1.00 39.01 LIG 0.01  C 
BRANCH 70 72
ATOM     72  CG1 ILE E1023     -45.244  22.696  -2.982  1.00 39.61 LIG 0.00  C 
ATOM     73  CD1 ILE E1023     -45.602  21.234  -3.093  1.00 43.21 LIG 0.01  C 
ENDBRANCH 70 72
ENDBRANCH 42 70
ENDBRANCH 1 42
TORSDOF 26
