USER: ADFR SOLUTION from run 0
USER: SCORE 15.680875 LL:  -6.015 LR: -11.293 RR:   0.000 FEB:  -4.133
USER: RMSD 1.113702
USER: STATUS Locally minimized using BFGS
USER: GENES 26
USER: genes 0 Translation |==|  0.40590 0.58357 0.58322
USER: genes 1 Rotation |==|  0.50252 0.50866 0.49273 0.99987
USER: genes 2 Torsion [C]-CA--N-[C] |==|  0.80238
USER: genes 3 Torsion [N]-C--CA-[N] |==|  0.88800
USER: genes 4 Torsion [C]-CA--N-[C] |==|  0.86667
USER: genes 5 Torsion [N]-C--CA-[N] |==|  0.41743
USER: genes 6 Torsion [C]-CA--N-[C] |==|  0.61825
USER: genes 7 Torsion [N]-C--CA-[N] |==|  0.92139
USER: genes 8 Torsion [C]-CA--CB-[SG] |==|  0.86304
USER: genes 9 Torsion [CA]-CB--SG-[HG] |==|  0.49156
USER: genes 10 Torsion [N]-CA--C-[N] |==|  0.87710
USER: genes 11 Torsion [C]-N--CA-[C] |==|  0.81904
USER: genes 12 Torsion [N]-CA--C-[N] |==|  0.94676
USER: genes 13 Torsion [C]-N--CA-[CB] |==|  0.42969
USER: genes 14 Torsion [N]-CA--C-[N] |==|  0.90126
USER: genes 15 Torsion [C]-N--CA-[C] |==|  0.19358
USER: genes 16 Torsion [N]-CA--C-[O] |==|  0.10096
USER: genes 17 Torsion [N]-CA--CB-[CG] |==|  0.89251
USER: genes 18 Torsion [CA]-CB--CG-[CD] |==|  0.87199
USER: genes 19 Torsion [CB]-CG--CD-[OE2] |==|  0.33953
USER: genes 20 Torsion [N]-CA--CB-[OG] |==|  0.15431
USER: genes 21 Torsion [CA]-CB--OG-[HG] |==|  0.76917
USER: genes 22 Torsion [N]-CA--CB-[CG] |==|  0.50344
USER: genes 23 Torsion [CA]-CB--CG-[CD] |==|  0.47002
USER: genes 24 Torsion [CB]-CG--CD-[NE] |==|  0.85760
USER: genes 25 Torsion [CG]-CD--NE-[CZ] |==|  0.75581
ROOT
ATOM      1  CA  ARG C1705     -15.105 -25.922  -6.757  1.00 19.53 LIG 0.18  C 
ENDROOT
BRANCH 1 2
ATOM      2  N   ARG C1705     -13.752 -26.485  -6.717  1.00 19.64 LIG-0.35  N 
ATOM      3 H    ARG C1705     -13.129 -25.980  -7.027  1.00 19.64 LIG 0.16  HD
ATOM      4  C   ALA C1704     -13.576 -27.704  -6.219  1.00 22.93 LIG 0.24  C 
ATOM      5 O    ALA C1704     -14.525 -28.406  -5.845  1.00 21.24 LIG-0.27  OA
BRANCH 4 6
ATOM      6  CA  ALA C1704     -12.145 -28.233  -6.137  1.00 20.87 LIG 0.17  C 
ATOM      7  CB  ALA C1704     -11.458 -27.767  -4.868  1.00 18.21 LIG 0.04  C 
BRANCH 6 8
ATOM      8  N   ALA C1704     -11.347 -27.891  -7.306  1.00 22.42 LIG-0.35  N 
ATOM      9  C   CYS C1703     -11.819 -28.088  -8.533  1.00 22.90 LIG 0.24  C 
ATOM     10 O    CYS C1703     -12.961 -28.484  -8.757  1.00 23.45 LIG-0.27  OA
ATOM     11 H    ALA C1704     -10.573 -27.561  -7.131  1.00 22.42 LIG 0.16  HD
BRANCH 9 12
ATOM     12  CA  CYS C1703     -10.863 -27.791  -9.680  1.00 24.41 LIG 0.18  C 
BRANCH 12 13
ATOM     13  N   CYS C1703     -11.155 -28.642 -10.834  1.00 24.32 LIG-0.34  N 
ATOM     14  C   GLY C1702     -10.162 -29.205 -11.521  1.00 24.70 LIG 0.25  C 
ATOM     15 O    GLY C1702      -8.977 -28.985 -11.270  1.00 27.37 LIG-0.27  OA
ATOM     16 H    CYS C1703     -11.990 -28.736 -11.015  1.00 24.32 LIG 0.16  HD
BRANCH 14 17
ATOM     17  CA  GLY C1702     -10.548 -30.147 -12.649  1.00 25.50 LIG 0.47  C 
ATOM     18  N   GLY C1702     -11.830 -30.794 -12.416  1.00 32.41 LIG 0.61  N 
ENDBRANCH 14 17
ENDBRANCH 12 13
BRANCH 12 19
ATOM     19  CB  CYS C1703     -10.906 -26.298 -10.054  1.00 19.88 LIG 0.10  C 
BRANCH 19 20
ATOM     20 SG   CYS C1703     -12.554 -25.602 -10.296  1.00 23.51 LIG-0.18  SA
ATOM     21 HG   CYS C1703     -12.463 -24.428 -10.523  1.00 23.51 LIG 0.10  HD
ENDBRANCH 19 20
ENDBRANCH 12 19
ENDBRANCH 9 12
ENDBRANCH 6 8
ENDBRANCH 4 6
ENDBRANCH 1 2
BRANCH 1 22
ATOM     22  C   ARG C1705     -16.027 -26.580  -7.797  1.00 20.76 LIG 0.24  C 
ATOM     23 O    ARG C1705     -17.193 -26.870  -7.505  1.00 22.20 LIG-0.27  OA
ATOM     24  N   SER C1706     -15.518 -26.811  -9.005  1.00 20.62 LIG-0.34  N 
ATOM     25 H    SER C1706     -14.710 -26.629  -9.235  1.00 20.62 LIG 0.16  HD
BRANCH 24 26
ATOM     26  CA  SER C1706     -16.334 -27.412 -10.056  1.00 20.36 LIG 0.20  C 
BRANCH 26 27
ATOM     27  C   SER C1706     -16.735 -28.840  -9.698  1.00 23.85 LIG 0.24  C 
ATOM     28 O    SER C1706     -17.692 -29.380 -10.252  1.00 24.92 LIG-0.27  OA
ATOM     29  N   GLU C1707     -16.009 -29.440  -8.763  1.00 21.35 LIG-0.35  N 
ATOM     30 H    GLU C1707     -15.320 -29.088  -8.388  1.00 21.35 LIG 0.16  HD
BRANCH 29 31
ATOM     31  CA  GLU C1707     -16.338 -30.784  -8.289  1.00 28.80 LIG 0.18  C 
BRANCH 31 32
ATOM     32  C   GLU C1707     -17.405 -30.716  -7.207  1.00 29.29 LIG 0.24  C 
ATOM     33 O    GLU C1707     -18.270 -31.591  -7.121  1.00 32.31 LIG-0.27  OA
ATOM     34  N   GLY C1708     -17.339 -29.671  -6.387  1.00 26.36 LIG-0.35  N 
ATOM     35 H    GLY C1708     -16.757 -29.043  -6.459  1.00 26.36 LIG 0.16  HD
BRANCH 34 36
ATOM     36  CA  GLY C1708     -18.265 -29.501  -5.285  1.00 26.05 LIG 0.21  C 
BRANCH 36 37
ATOM     37  C   GLY C1708     -18.056 -30.507  -4.173  1.00 34.75 LIG 0.21  C 
ATOM     38 O    GLY C1708     -16.930 -30.886  -3.868  1.00 36.48 LIG-0.29  OA
ENDBRANCH 36 37
ENDBRANCH 34 36
ENDBRANCH 31 32
BRANCH 31 39
ATOM     39  CB  GLU C1707     -15.103 -31.498  -7.731  1.00 30.33 LIG 0.04  C 
BRANCH 39 40
ATOM     40  CG  GLU C1707     -13.825 -31.241  -8.510  1.00 34.25 LIG 0.12  C 
BRANCH 40 41
ATOM     41  CD  GLU C1707     -14.017 -31.367 -10.014  1.00 39.35 LIG 0.17  C 
ATOM     42 OE2  GLU C1707     -13.738 -30.383 -10.733  1.00 42.40 LIG-0.65  OA
ATOM     43 OE1  GLU C1707     -14.449 -32.449 -10.474  1.00 45.84 LIG-0.65  OA
ENDBRANCH 40 41
ENDBRANCH 39 40
ENDBRANCH 31 39
ENDBRANCH 29 31
ENDBRANCH 26 27
BRANCH 26 44
ATOM     44  CB  SER C1706     -15.613 -27.378 -11.407  1.00 19.38 LIG 0.20  C 
BRANCH 44 45
ATOM     45 OG   SER C1706     -14.337 -28.003 -11.335  1.00 20.52 LIG-0.40  OA
ATOM     46 HG   SER C1706     -13.773 -27.457 -11.037  1.00 20.52 LIG 0.21  HD
ENDBRANCH 44 45
ENDBRANCH 26 44
ENDBRANCH 24 26
ENDBRANCH 1 22
BRANCH 1 47
ATOM     47  CB  ARG C1705     -15.074 -24.398  -6.939  1.00 21.30 LIG 0.04  C 
BRANCH 47 48
ATOM     48  CG  ARG C1705     -16.471 -23.776  -6.955  1.00 23.17 LIG 0.02  C 
BRANCH 48 49
ATOM     49  CD  ARG C1705     -16.444 -22.248  -6.871  1.00 21.38 LIG 0.14  C 
BRANCH 49 50
ATOM     50  NE  ARG C1705     -15.625 -21.762  -5.758  1.00 20.43 LIG-0.23  N 
ATOM     51  CZ  ARG C1705     -16.062 -21.566  -4.515  1.00 19.01 LIG 0.67  C 
ATOM     52  NH1 ARG C1705     -17.332 -21.813  -4.187  1.00 20.29 LIG-0.23  N 
ATOM     53  NH2 ARG C1705     -15.225 -21.114  -3.592  1.00 19.46 LIG-0.23  N 
ATOM     54 1HH1 ARG C1705     -17.882 -22.103  -4.782  1.00 20.29 LIG 0.17  HD
ATOM     55 2HH1 ARG C1705     -17.601 -21.681  -3.381  1.00 20.29 LIG 0.17  HD
ATOM     56 2HH2 ARG C1705     -15.500 -20.985  -2.787  1.00 19.46 LIG 0.17  HD
ATOM     57 1HH2 ARG C1705     -14.406 -20.950  -3.797  1.00 19.46 LIG 0.17  HD
ATOM     58 HE   ARG C1705     -14.798 -21.590  -5.919  1.00 20.43 LIG 0.18  HD
ENDBRANCH 49 50
ENDBRANCH 48 49
ENDBRANCH 47 48
ENDBRANCH 1 47
TORSDOF 24
