USER: ADFR SOLUTION from run 0
USER: SCORE 18.334197 LL:  -5.228 LR: -13.621 RR:   0.000 FEB:  -5.268
USER: RMSD 0.476011
USER: STATUS Locally minimized using BFGS
USER: GENES 30
USER: genes 0 Translation |==|  0.55449 0.44371 0.62627
USER: genes 1 Rotation |==|  0.50612 0.48136 0.48512 0.99939
USER: genes 2 Torsion [N]-CA--C-[N] |==|  0.43465
USER: genes 3 Torsion [C]-N--CA-[C] |==|  0.66131
USER: genes 4 Torsion [N]-CA--C-[N] |==|  0.38543
USER: genes 5 Torsion [C]-N--CA-[C] |==|  0.68036
USER: genes 6 Torsion [N]-CA--C-[N] |==|  0.39130
USER: genes 7 Torsion [C]-N--CA-[C] |==|  0.72959
USER: genes 8 Torsion [N]-CA--C-[N] |==|  0.46626
USER: genes 9 Torsion [C]-N--CA-[C] |==|  0.77264
USER: genes 10 Torsion [N]-CA--C-[O] |==|  0.44732
USER: genes 11 Torsion [N]-CA--CB-[CG2] |==|  0.81303
USER: genes 12 Torsion [CA]-CB--OG1-[HG1] |==|  0.72284
USER: genes 13 Torsion [N]-CA--CB-[CG] |==|  0.84991
USER: genes 14 Torsion [CA]-CB--CG-[CD1] |==|  0.44912
USER: genes 15 Torsion [N]-CA--CB-[CG] |==|  0.81220
USER: genes 16 Torsion [CA]-CB--CG-[CD2] |==|  0.86608
USER: genes 17 Torsion [C]-CA--CB-[CG] |==|  0.41658
USER: genes 18 Torsion [CA]-CB--CG-[CD2] |==|  0.18475
USER: genes 19 Torsion [C]-CA--N-[C] |==|  0.77961
USER: genes 20 Torsion [N]-C--CA-[N] |==|  0.37222
USER: genes 21 Torsion [C]-CA--CB-[CG] |==|  0.15008
USER: genes 22 Torsion [CA]-CB--CG-[CD] |==|  0.21984
USER: genes 23 Torsion [CB]-CG--CD-[NE] |==|  0.13754
USER: genes 24 Torsion [CG]-CD--NE-[HE] |==|  0.12991
USER: genes 25 Torsion [C]-CA--N-[C] |==|  0.81801
USER: genes 26 Torsion [N]-C--CA-[N] |==|  0.49291
USER: genes 27 Torsion [C]-CA--CB-[CG] |==|  0.20925
USER: genes 28 Torsion [CA]-CB--CG-[OD1] |==|  0.00470
USER: genes 29 Torsion [C]-CA--N-[H2] |==|  0.99196
ROOT
ATOM      1  CA  LEU E   3      46.696  42.853  20.462  1.00 22.83 LIG 0.18  C 
ENDROOT
BRANCH 1 2
ATOM      2  C   LEU E   3      45.794  42.905  19.186  1.00 19.55 LIG 0.24  C 
ATOM      3 O    LEU E   3      44.644  43.312  19.239  1.00 19.60 LIG-0.27  OA
ATOM      4  N   LEU E   4      46.344  42.483  18.072  1.00 19.32 LIG-0.35  N 
ATOM      5 H    LEU E   4      47.062  42.013  18.026  1.00 19.32 LIG 0.16  HD
BRANCH 4 6
ATOM      6  CA  LEU E   4      45.711  42.818  16.745  1.00 17.74 LIG 0.18  C 
BRANCH 6 7
ATOM      7  C   LEU E   4      45.371  41.594  15.972  1.00 18.94 LIG 0.24  C 
ATOM      8  N   LEU E   5      44.175  41.621  15.331  1.00 19.76 LIG-0.35  N 
ATOM      9 H    LEU E   5      43.665  42.313  15.287  1.00 19.76 LIG 0.16  HD
ATOM     10 O    LEU E   4      46.129  40.577  15.983  1.00 20.41 LIG-0.27  OA
BRANCH 8 11
ATOM     11  CA  LEU E   5      43.659  40.439  14.651  1.00 18.99 LIG 0.18  C 
BRANCH 11 12
ATOM     12  C   LEU E   5      43.601  40.768  13.157  1.00 20.67 LIG 0.24  C 
ATOM     13  N   THR E   6      43.955  39.771  12.347  1.00 21.83 LIG-0.34  N 
ATOM     14 H    THR E   6      44.277  39.014  12.598  1.00 21.83 LIG 0.16  HD
ATOM     15 O    LEU E   5      43.199  41.860  12.820  1.00 20.01 LIG-0.27  OA
BRANCH 13 16
ATOM     16  CA  THR E   6      43.793  39.947  10.894  1.00 24.74 LIG 0.20  C 
BRANCH 16 17
ATOM     17  C   THR E   6      42.480  39.303  10.442  1.00 26.78 LIG 0.24  C 
ATOM     18  N   GLY E   7      42.110  39.625   9.193  1.00 28.46 LIG-0.35  N 
ATOM     19 H    GLY E   7      42.676  39.887   8.602  1.00 28.46 LIG 0.16  HD
ATOM     20 O    THR E   6      41.843  38.518  11.150  1.00 25.34 LIG-0.27  OA
BRANCH 18 21
ATOM     21  CA  GLY E   7      40.742  39.574   8.685  1.00 36.11 LIG 0.23  C 
BRANCH 21 22
ATOM     22  C   GLY E   7      40.392  38.193   8.290  1.00 43.05 LIG 0.19  C 
ATOM     23 OXT  GLY E   7      41.337  37.428   8.088  1.00 50.23 LIG-0.65  OA
ATOM     24 O    GLY E   7      39.202  37.827   8.159  1.00 56.48 LIG-0.65  OA
ENDBRANCH 21 22
ENDBRANCH 18 21
ENDBRANCH 16 17
BRANCH 16 25
ATOM     25  CB  THR E   6      45.002  39.357  10.138  1.00 24.32 LIG 0.15  C 
ATOM     26  CG2 THR E   6      46.317  40.200  10.438  1.00 23.74 LIG 0.04  C 
BRANCH 25 27
ATOM     27 OG1  THR E   6      45.169  38.034  10.612  1.00 30.49 LIG-0.39  OA
ATOM     28 HG1  THR E   6      45.784  38.017  11.184  1.00 30.49 LIG 0.21  HD
ENDBRANCH 25 27
ENDBRANCH 16 25
ENDBRANCH 13 16
ENDBRANCH 11 12
BRANCH 11 29
ATOM     29  CB  LEU E   5      42.230  40.112  15.061  1.00 19.92 LIG 0.04  C 
BRANCH 29 30
ATOM     30  CG  LEU E   5      42.139  39.993  16.610  1.00 17.19 LIG-0.02  C 
ATOM     31  CD1 LEU E   5      40.700  40.121  17.034  1.00 19.71 LIG 0.01  C 
ATOM     32  CD2 LEU E   5      42.749  38.694  17.069  1.00 21.46 LIG 0.01  C 
ENDBRANCH 29 30
ENDBRANCH 11 29
ENDBRANCH 8 11
ENDBRANCH 6 7
BRANCH 6 33
ATOM     33  CB  LEU E   4      46.728  43.675  15.922  1.00 18.44 LIG 0.04  C 
BRANCH 33 34
ATOM     34  CG  LEU E   4      46.926  45.059  16.581  1.00 22.78 LIG-0.02  C 
ATOM     35  CD2 LEU E   4      45.600  45.756  16.944  1.00 23.44 LIG 0.01  C 
ATOM     36  CD1 LEU E   4      47.741  45.894  15.591  1.00 27.53 LIG 0.01  C 
ENDBRANCH 33 34
ENDBRANCH 6 33
ENDBRANCH 4 6
ENDBRANCH 1 2
BRANCH 1 37
ATOM     37  CB  LEU E   3      46.672  41.422  21.008  1.00 29.41 LIG 0.04  C 
BRANCH 37 38
ATOM     38  CG  LEU E   3      47.934  40.928  21.753  1.00 30.90 LIG-0.02  C 
ATOM     39  CD1 LEU E   3      49.190  41.067  20.865  1.00 35.09 LIG 0.01  C 
ATOM     40  CD2 LEU E   3      48.112  41.706  23.045  1.00 39.15 LIG 0.01  C 
ENDBRANCH 37 38
ENDBRANCH 1 37
BRANCH 1 41
ATOM     41  N   LEU E   3      46.228  43.830  21.491  1.00 22.92 LIG-0.35  N 
ATOM     42 H    LEU E   3      45.763  43.499  22.134  1.00 22.92 LIG 0.16  HD
ATOM     43  C   ARG E   2      46.547  45.112  21.357  1.00 28.87 LIG 0.24  C 
ATOM     44 O    ARG E   2      47.215  45.525  20.363  1.00 29.44 LIG-0.27  OA
BRANCH 43 45
ATOM     45  CA  ARG E   2      46.078  46.112  22.440  1.00 32.90 LIG 0.18  C 
BRANCH 45 46
ATOM     46  CB  ARG E   2      45.060  47.083  21.864  1.00 32.53 LIG 0.04  C 
BRANCH 46 47
ATOM     47  CG  ARG E   2      43.884  46.463  21.196  1.00 34.92 LIG 0.02  C 
BRANCH 47 48
ATOM     48  CD  ARG E   2      42.920  46.021  22.240  1.00 37.57 LIG 0.14  C 
BRANCH 48 49
ATOM     49  NE  ARG E   2      42.603  47.044  23.248  1.00 41.00 LIG-0.23  N 
ATOM     50 HE   ARG E   2      42.414  47.838  22.975  1.00 41.00 LIG 0.18  HD
ATOM     51  CZ  ARG E   2      42.591  46.811  24.567  1.00 43.22 LIG 0.67  C 
ATOM     52  NH2 ARG E   2      42.226  47.766  25.412  1.00 39.75 LIG-0.23  N 
ATOM     53  NH1 ARG E   2      42.946  45.609  25.057  1.00 41.20 LIG-0.23  N 
ATOM     54 2HH2 ARG E   2      42.219  47.613  26.258  1.00 39.75 LIG 0.17  HD
ATOM     55 1HH2 ARG E   2      41.996  48.539  25.114  1.00 39.75 LIG 0.17  HD
ATOM     56 1HH1 ARG E   2      43.184  44.980  24.522  1.00 41.20 LIG 0.17  HD
ATOM     57 2HH1 ARG E   2      42.934  45.471  25.905  1.00 41.20 LIG 0.17  HD
ENDBRANCH 48 49
ENDBRANCH 47 48
ENDBRANCH 46 47
ENDBRANCH 45 46
BRANCH 45 58
ATOM     58  N   ARG E   2      47.198  46.990  22.810  1.00 36.64 LIG-0.35  N 
ATOM     59 H    ARG E   2      47.069  47.813  22.597  1.00 36.64 LIG 0.16  HD
ATOM     60  C   ASN E   1      48.292  46.574  23.409  1.00 41.83 LIG 0.25  C 
ATOM     61 O    ASN E   1      48.430  45.390  23.748  1.00 38.61 LIG-0.27  OA
BRANCH 60 62
ATOM     62  CA  ASN E   1      49.349  47.684  23.752  1.00 50.15 LIG 0.28  C 
BRANCH 62 63
ATOM     63  CB  ASN E   1      49.832  48.531  22.527  1.00 58.25 LIG 0.14  C 
BRANCH 63 64
ATOM     64  CG  ASN E   1      48.787  49.592  22.032  1.00 70.07 LIG 0.22  C 
ATOM     65 OD1  ASN E   1      47.688  49.764  22.587  1.00 69.16 LIG-0.27  OA
ATOM     66  ND2 ASN E   1      49.153  50.309  20.966  1.00 65.88 LIG-0.37  N 
ATOM     67 22HD ASN E   1      49.919  50.172  20.599  1.00 65.88 LIG 0.16  HD
ATOM     68 21HD ASN E   1      48.623  50.907  20.648  1.00 65.88 LIG 0.16  HD
ENDBRANCH 63 64
ENDBRANCH 62 63
BRANCH 62 69
ATOM     69  N   ASN E   1      50.518  47.112  24.480  1.00 55.39 LIG-0.07  N 
ATOM     70 H1   ASN E   1      50.616  47.531  25.259  1.00 55.39 LIG 0.28  HD
ATOM     71 H2   ASN E   1      50.382  46.245  24.625  1.00 55.39 LIG 0.28  HD
ATOM     72 H3   ASN E   1      51.253  47.220  23.992  1.00 55.39 LIG 0.28  HD
ENDBRANCH 62 69
ENDBRANCH 60 62
ENDBRANCH 45 58
ENDBRANCH 43 45
ENDBRANCH 1 41
TORSDOF 28
