USER: ADFR SOLUTION from run 0
USER: SCORE 16.828683 LL:  -3.211 LR: -15.455 RR:   0.000 FEB:  -8.893
USER: RMSD 0.732558
USER: STATUS Locally minimized using BFGS
USER: GENES 24
USER: genes 0 Translation |==|  0.49395 0.45619 0.42105
USER: genes 1 Rotation |==|  0.46662 0.51135 0.49087 0.99867
USER: genes 2 Torsion [N]-C--CA-[N] |==|  0.42067
USER: genes 3 Torsion [C]-CA--CB-[CG] |==|  0.46907
USER: genes 4 Torsion [CA]-CB--CG-[CD] |==|  0.42381
USER: genes 5 Torsion [CB]-CG--CD-[NE] |==|  0.73189
USER: genes 6 Torsion [CG]-CD--NE-[HE] |==|  0.94357
USER: genes 7 Torsion [C]-CA--N-[C] |==|  0.79559
USER: genes 8 Torsion [N]-C--CA-[N] |==|  0.07500
USER: genes 9 Torsion [C]-CA--CB-[CG] |==|  0.42304
USER: genes 10 Torsion [CA]-CB--CG-[OD1] |==|  0.09250
USER: genes 11 Torsion [C]-CA--N-[H1] |==|  0.51407
USER: genes 12 Torsion [C]-N--CA-[CB] |==|  0.37052
USER: genes 13 Torsion [N]-CA--C-[N] |==|  0.36918
USER: genes 14 Torsion [C]-N--CA-[C] |==|  0.71037
USER: genes 15 Torsion [N]-CA--CB-[CG1] |==|  0.18539
USER: genes 16 Torsion [CA]-CB--CG1-[CD1] |==|  0.45497
USER: genes 17 Torsion [N]-CA--C-[N] |==|  0.41951
USER: genes 18 Torsion [C]-N--CA-[C] |==|  0.77437
USER: genes 19 Torsion [N]-CA--C-[O] |==|  0.89349
USER: genes 20 Torsion [N]-CA--CB-[CG] |==|  0.79251
USER: genes 21 Torsion [CA]-CB--CG-[CD1] |==|  0.37793
USER: genes 22 Torsion [N]-CA--CB-[CG] |==|  0.76610
USER: genes 23 Torsion [CA]-CB--CG-[CD1] |==|  0.30095
ROOT
ATOM      1  C   ARG B   2      56.880  86.155  28.037  1.00 25.54 LIG 0.24  C 
ATOM      2 O    ARG B   2      57.221  85.111  28.675  1.00 21.45 LIG-0.27  OA
ATOM      3  N   LEU B   3      56.680  87.314  28.646  1.00 32.00 LIG-0.35  N 
ATOM      4 H    LEU B   3      56.552  88.059  28.237  1.00 32.00 LIG 0.16  HD
ENDROOT
BRANCH 1 5
ATOM      5  CA  ARG B   2      56.646  86.144  26.533  1.00 29.44 LIG 0.18  C 
BRANCH 5 6
ATOM      6  CB  ARG B   2      55.141  85.859  26.230  1.00 37.02 LIG 0.04  C 
BRANCH 6 7
ATOM      7  CG  ARG B   2      54.752  86.092  24.771  1.00 39.92 LIG 0.02  C 
BRANCH 7 8
ATOM      8  CD  ARG B   2      53.563  85.204  24.383  1.00 40.77 LIG 0.14  C 
BRANCH 8 9
ATOM      9  NE  ARG B   2      54.142  84.018  23.734  1.00 48.07 LIG-0.23  N 
ATOM     10 HE   ARG B   2      54.941  84.108  23.431  1.00 48.07 LIG 0.18  HD
ATOM     11  CZ  ARG B   2      53.581  82.813  23.557  1.00 44.36 LIG 0.67  C 
ATOM     12  NH1 ARG B   2      54.332  81.875  22.950  1.00 36.12 LIG-0.23  N 
ATOM     13  NH2 ARG B   2      52.324  82.531  23.971  1.00 39.61 LIG-0.23  N 
ATOM     14 1HH1 ARG B   2      55.131  82.061  22.695  1.00 36.12 LIG 0.17  HD
ATOM     15 2HH1 ARG B   2      54.011  81.088  22.816  1.00 36.12 LIG 0.17  HD
ATOM     16 1HH2 ARG B   2      51.855  83.135  24.363  1.00 39.61 LIG 0.17  HD
ATOM     17 2HH2 ARG B   2      51.995  81.747  23.841  1.00 39.61 LIG 0.17  HD
ENDBRANCH 8 9
ENDBRANCH 7 8
ENDBRANCH 6 7
ENDBRANCH 5 6
BRANCH 5 18
ATOM     18  N   ARG B   2      57.487  85.129  25.872  1.00 32.37 LIG-0.35  N 
ATOM     19 H    ARG B   2      57.083  84.422  25.595  1.00 32.37 LIG 0.16  HD
ATOM     20  C   ASN B   1      58.776  85.381  25.756  1.00 31.22 LIG 0.25  C 
ATOM     21 O    ASN B   1      59.258  86.385  26.235  1.00 24.61 LIG-0.27  OA
BRANCH 20 22
ATOM     22  CA  ASN B   1      59.690  84.388  25.059  1.00 32.89 LIG 0.28  C 
BRANCH 22 23
ATOM     23  CB  ASN B   1      60.832  85.205  24.452  1.00 38.07 LIG 0.14  C 
BRANCH 23 24
ATOM     24  CG  ASN B   1      62.080  84.425  24.326  1.00 44.05 LIG 0.22  C 
ATOM     25  ND2 ASN B   1      63.191  85.091  24.503  1.00 47.62 LIG-0.37  N 
ATOM     26 21HD ASN B   1      63.948  84.685  24.456  1.00 47.62 LIG 0.16  HD
ATOM     27 22HD ASN B   1      63.166  85.935  24.666  1.00 47.62 LIG 0.16  HD
ATOM     28 OD1  ASN B   1      62.055  83.209  24.089  1.00 47.48 LIG-0.27  OA
ENDBRANCH 23 24
ENDBRANCH 22 23
BRANCH 22 29
ATOM     29  N   ASN B   1      59.085  83.502  24.023  1.00 44.58 LIG-0.07  N 
ATOM     30 H1   ASN B   1      59.693  82.917  23.739  1.00 44.58 LIG 0.28  HD
ATOM     31 H3   ASN B   1      58.805  83.995  23.337  1.00 44.58 LIG 0.28  HD
ATOM     32 H2   ASN B   1      58.394  83.063  24.374  1.00 44.58 LIG 0.28  HD
ENDBRANCH 22 29
ENDBRANCH 20 22
ENDBRANCH 5 18
ENDBRANCH 1 5
BRANCH 3 33
ATOM     33  CA  LEU B   3      56.664  87.409  30.098  1.00 27.74 LIG 0.18  C 
BRANCH 33 34
ATOM     34  C   LEU B   3      55.293  87.640  30.599  1.00 25.40 LIG 0.24  C 
ATOM     35 O    LEU B   3      54.572  88.488  30.091  1.00 26.81 LIG-0.27  OA
ATOM     36  N   ILE B   4      54.895  86.894  31.601  1.00 26.13 LIG-0.35  N 
ATOM     37 H    ILE B   4      55.339  86.231  31.923  1.00 26.13 LIG 0.16  HD
BRANCH 36 38
ATOM     38  CA  ILE B   4      53.680  87.149  32.222  1.00 24.17 LIG 0.18  C 
BRANCH 38 39
ATOM     39  CB  ILE B   4      52.927  85.804  32.289  1.00 29.09 LIG 0.01  C 
ATOM     40  CG2 ILE B   4      52.928  85.208  30.923  1.00 25.20 LIG 0.01  C 
BRANCH 39 41
ATOM     41  CG1 ILE B   4      53.600  84.797  33.211  1.00 28.67 LIG 0.00  C 
ATOM     42  CD1 ILE B   4      52.682  83.657  33.578  1.00 34.41 LIG 0.01  C 
ENDBRANCH 39 41
ENDBRANCH 38 39
BRANCH 38 43
ATOM     43  C   ILE B   4      53.856  87.837  33.580  1.00 29.58 LIG 0.24  C 
ATOM     44  N   LEU B   5      52.856  88.627  33.950  1.00 36.70 LIG-0.35  N 
ATOM     45 H    LEU B   5      52.201  88.844  33.438  1.00 36.70 LIG 0.16  HD
ATOM     46 O    ILE B   4      54.897  87.668  34.288  1.00 23.70 LIG-0.27  OA
BRANCH 44 47
ATOM     47  CA  LEU B   5      52.789  89.197  35.273  1.00 37.00 LIG 0.16  C 
BRANCH 47 48
ATOM     48  C   LEU B   5      52.222  88.183  36.287  1.00 42.59 LIG 0.22  C 
ATOM     49 O    LEU B   5      51.286  87.401  35.973  1.00 38.80 LIG-0.29  OA
ENDBRANCH 47 48
BRANCH 47 50
ATOM     50  CB  LEU B   5      51.892  90.426  35.211  1.00 50.59 LIG 0.04  C 
BRANCH 50 51
ATOM     51  CG  LEU B   5      52.503  91.653  34.561  1.00 50.85 LIG-0.02  C 
ATOM     52  CD1 LEU B   5      51.471  92.264  33.638  1.00 54.07 LIG 0.01  C 
ATOM     53  CD2 LEU B   5      52.882  92.612  35.684  1.00 54.33 LIG 0.01  C 
ENDBRANCH 50 51
ENDBRANCH 47 50
ENDBRANCH 44 47
ENDBRANCH 38 43
ENDBRANCH 36 38
ENDBRANCH 33 34
BRANCH 33 54
ATOM     54  CB  LEU B   3      57.520  88.586  30.503  1.00 34.11 LIG 0.04  C 
BRANCH 54 55
ATOM     55  CG  LEU B   3      58.935  88.121  30.555  1.00 35.49 LIG-0.02  C 
ATOM     56  CD1 LEU B   3      59.677  88.726  29.379  1.00 39.12 LIG 0.01  C 
ATOM     57  CD2 LEU B   3      59.433  88.695  31.857  1.00 34.32 LIG 0.01  C 
ENDBRANCH 54 55
ENDBRANCH 33 54
ENDBRANCH 3 33
TORSDOF 22
