USER: ADFR SOLUTION from run 0
USER: SCORE 11.458522 LL:  -2.600 LR:  -9.526 RR:   0.000 FEB:  -4.455
USER: RMSD 0.512886
USER: STATUS Locally minimized using BFGS
USER: GENES 19
USER: genes 0 Translation |==|  0.57128 0.39962 0.43774
USER: genes 1 Rotation |==|  0.47449 0.50245 0.51596 0.99909
USER: genes 2 Torsion [N]-CA--C-[N] |==|  0.25651
USER: genes 3 Torsion [C]-N--CA-[C] |==|  0.73117
USER: genes 4 Torsion [N]-CA--C-[OXT] |==|  0.49404
USER: genes 5 Torsion [N]-CA--CB-[CG] |==|  0.86450
USER: genes 6 Torsion [CA]-CB--CG-[CD1] |==|  0.79311
USER: genes 7 Torsion [CE1]-CZ--OH-[HH] |==|  0.08176
USER: genes 8 Torsion [C]-CA--CB-[CG] |==|  0.52409
USER: genes 9 Torsion [CA]-CB--CG-[ND2] |==|  0.26067
USER: genes 10 Torsion [C]-CA--N-[C] |==|  0.62688
USER: genes 11 Torsion [N]-C--CA-[N] |==|  0.31687
USER: genes 12 Torsion [C]-CA--CB-[CG] |==|  0.46373
USER: genes 13 Torsion [CA]-CB--CG-[CD] |==|  0.50233
USER: genes 14 Torsion [CB]-CG--CD-[NE2] |==|  0.11866
USER: genes 15 Torsion [C]-CA--N-[C] |==|  0.68506
USER: genes 16 Torsion [N]-C--CA-[N] |==|  0.77554
USER: genes 17 Torsion [C]-CA--CB-[OG] |==|  0.15661
USER: genes 18 Torsion [CA]-CB--OG-[HG] |==|  0.49927
ROOT
ATOM      1  CA  ASN C   4      22.381   1.536  18.944  1.00 23.87 LIG 0.18  C 
ENDROOT
BRANCH 1 2
ATOM      2  C   ASN C   4      21.533   0.324  18.549  1.00 24.50 LIG 0.24  C 
ATOM      3 O    ASN C   4      21.745  -0.787  19.029  1.00 25.26 LIG-0.27  OA
ATOM      4  N   TYR C   5      20.570   0.570  17.667  1.00 25.46 LIG-0.34  N 
ATOM      5 H    TYR C   5      20.435   1.349  17.329  1.00 25.46 LIG 0.16  HD
BRANCH 4 6
ATOM      6  CA  TYR C   5      19.635  -0.448  17.172  1.00 27.53 LIG 0.19  C 
BRANCH 6 7
ATOM      7  C   TYR C   5      20.125  -0.994  15.841  1.00 27.73 LIG 0.20  C 
ATOM      8 OXT  TYR C   5      19.499  -1.897  15.267  1.00 28.08 LIG-0.65  OA
ATOM      9 O    TYR C   5      21.131  -0.494  15.327  1.00 30.08 LIG-0.65  OA
ENDBRANCH 6 7
BRANCH 6 10
ATOM     10  CB  TYR C   5      18.242   0.162  16.994  1.00 26.02 LIG 0.07  C 
BRANCH 10 11
ATOM     11  CG  TYR C   5      17.847   0.923  18.217  1.00 28.29 LIG-0.06  A 
ATOM     12  CD1 TYR C   5      17.468   0.243  19.366  1.00 28.93 LIG 0.01  A 
ATOM     13  CE1 TYR C   5      17.147   0.925  20.520  1.00 31.65 LIG 0.04  A 
ATOM     14  CZ  TYR C   5      17.229   2.305  20.549  1.00 33.19 LIG 0.07  A 
ATOM     15  CE2 TYR C   5      17.626   3.006  19.425  1.00 31.83 LIG 0.04  A 
ATOM     16  CD2 TYR C   5      17.939   2.309  18.262  1.00 30.09 LIG 0.01  A 
BRANCH 14 17
ATOM     17 OH   TYR C   5      16.910   2.961  21.715  1.00 32.69 LIG-0.36  OA
ATOM     18 HH   TYR C   5      17.082   2.465  22.372  1.00 32.69 LIG 0.22  HD
ENDBRANCH 14 17
ENDBRANCH 10 11
ENDBRANCH 6 10
ENDBRANCH 4 6
ENDBRANCH 1 2
BRANCH 1 19
ATOM     19  CB  ASN C   4      23.838   1.160  19.173  1.00 21.84 LIG 0.14  C 
BRANCH 19 20
ATOM     20  CG  ASN C   4      24.617   2.312  19.763  1.00 23.44 LIG 0.22  C 
ATOM     21 OD1  ASN C   4      25.049   3.192  19.032  1.00 24.15 LIG-0.27  OA
ATOM     22  ND2 ASN C   4      24.730   2.357  21.089  1.00 22.78 LIG-0.37  N 
ATOM     23 21HD ASN C   4      25.119   3.026  21.465  1.00 22.78 LIG 0.16  HD
ATOM     24 22HD ASN C   4      24.413   1.718  21.570  1.00 22.78 LIG 0.16  HD
ENDBRANCH 19 20
ENDBRANCH 1 19
BRANCH 1 25
ATOM     25  N   ASN C   4      21.892   2.242  20.130  1.00 22.84 LIG-0.35  N 
ATOM     26 H    ASN C   4      21.679   1.724  20.783  1.00 22.84 LIG 0.16  HD
ATOM     27  C   GLN C   3      21.790   3.568  20.184  1.00 20.90 LIG 0.24  C 
ATOM     28 O    GLN C   3      21.858   4.290  19.193  1.00 18.13 LIG-0.27  OA
BRANCH 27 29
ATOM     29  CA  GLN C   3      21.508   4.165  21.566  1.00 23.72 LIG 0.18  C 
BRANCH 29 30
ATOM     30  CB  GLN C   3      20.178   4.931  21.526  1.00 25.20 LIG 0.04  C 
BRANCH 30 31
ATOM     31  CG  GLN C   3      19.631   5.303  22.899  1.00 28.81 LIG 0.10  C 
BRANCH 31 32
ATOM     32  CD  GLN C   3      18.300   6.045  22.820  1.00 35.20 LIG 0.21  C 
ATOM     33  NE2 GLN C   3      17.404   5.573  21.944  1.00 25.96 LIG-0.37  N 
ATOM     34 21HE GLN C   3      17.592   4.882  21.468  1.00 25.96 LIG 0.16  HD
ATOM     35 22HE GLN C   3      16.641   5.961  21.857  1.00 25.96 LIG 0.16  HD
ATOM     36 OE1  GLN C   3      18.085   7.039  23.535  1.00 36.24 LIG-0.27  OA
ENDBRANCH 31 32
ENDBRANCH 30 31
ENDBRANCH 29 30
BRANCH 29 37
ATOM     37  N   GLN C   3      22.624   4.990  22.092  1.00 22.58 LIG-0.35  N 
ATOM     38 H    GLN C   3      22.777   5.715  21.656  1.00 22.58 LIG 0.16  HD
ATOM     39  C   SER C   2      23.310   4.592  23.164  1.00 24.53 LIG 0.26  C 
ATOM     40 O    SER C   2      23.023   3.567  23.789  1.00 22.38 LIG-0.27  OA
BRANCH 39 41
ATOM     41  CA  SER C   2      24.496   5.423  23.629  1.00 25.92 LIG 0.42  C 
ATOM     42  N   SER C   2      25.684   5.077  22.783  1.00 33.46 LIG 0.62  N 
BRANCH 41 43
ATOM     43  CB  SER C   2      24.155   6.914  23.607  1.00 31.59 LIG 0.21  C 
BRANCH 43 44
ATOM     44 OG   SER C   2      23.008   7.233  24.388  1.00 27.93 LIG-0.40  OA
ATOM     45 HG   SER C   2      22.862   8.059  24.348  1.00 27.93 LIG 0.21  HD
ENDBRANCH 43 44
ENDBRANCH 41 43
ENDBRANCH 39 41
ENDBRANCH 29 37
ENDBRANCH 27 29
ENDBRANCH 1 25
TORSDOF 17
