USER: ADFR SOLUTION from run 0
USER: SCORE 20.186563 LL:  -5.137 LR: -18.556 RR:   0.000 FEB:  -9.905
USER: RMSD 0.055235
USER: STATUS Locally minimized using BFGS
USER: GENES 31
USER: genes 0 Translation |==|  0.54193 0.39237 0.39425
USER: genes 1 Rotation |==|  0.49974 0.49873 0.49924 1.00000
USER: genes 2 Torsion [C]-N--CA-[CB] |==|  0.49640
USER: genes 3 Torsion [N]-CA--CB-[CG] |==|  0.46081
USER: genes 4 Torsion [CA]-CB--CG-[CD1] |==|  0.69669
USER: genes 5 Torsion [N]-CA--C-[N] |==|  0.38249
USER: genes 6 Torsion [C]-N--CA-[C] |==|  0.59028
USER: genes 7 Torsion [N]-CA--CB-[CG] |==|  0.48949
USER: genes 8 Torsion [CA]-CB--CG-[CD] |==|  0.77061
USER: genes 9 Torsion [CB]-CG--CD-[OE1] |==|  0.95061
USER: genes 10 Torsion [N]-CA--C-[N] |==|  0.37400
USER: genes 11 Torsion [C]-N--CA-[CB] |==|  0.25398
USER: genes 12 Torsion [N]-CA--C-[N] |==|  0.39310
USER: genes 13 Torsion [C]-N--CA-[CB] |==|  0.33764
USER: genes 14 Torsion [N]-CA--C-[OXT] |==|  0.74584
USER: genes 15 Torsion [N]-CA--CB-[CG] |==|  0.36316
USER: genes 16 Torsion [CA]-CB--CG-[SD] |==|  0.32832
USER: genes 17 Torsion [CB]-CG--SD-[CE] |==|  0.16413
USER: genes 18 Torsion [N]-C--CA-[N] |==|  0.15156
USER: genes 19 Torsion [C]-CA--N-[C] |==|  0.74881
USER: genes 20 Torsion [N]-C--CA-[N] |==|  0.26413
USER: genes 21 Torsion [C]-CA--N-[C] |==|  0.65086
USER: genes 22 Torsion [N]-C--CA-[N] |==|  0.44383
USER: genes 23 Torsion [C]-CA--N-[H1] |==|  0.51954
USER: genes 24 Torsion [C]-CA--CB-[CG] |==|  0.62081
USER: genes 25 Torsion [CA]-CB--CG-[CD] |==|  0.56278
USER: genes 26 Torsion [CB]-CG--CD-[NE] |==|  0.64975
USER: genes 27 Torsion [CG]-CD--NE-[CZ] |==|  0.67934
USER: genes 28 Torsion [C]-CA--CB-[CG2] |==|  0.49511
USER: genes 29 Torsion [C]-CA--CB-[CG] |==|  0.52551
USER: genes 30 Torsion [CA]-CB--CG-[CD2] |==|  0.82569
ROOT
ATOM      1  C   LEU D   3     -13.738   7.236  -8.464  1.00 15.92 LIG 0.24  C 
ATOM      2 O    LEU D   3     -13.716   6.381  -7.580  1.00 19.39 LIG-0.27  OA
ATOM      3  N   PHE D   4     -12.631   7.695  -9.032  1.00 13.65 LIG-0.35  N 
ATOM      4 H    PHE D   4     -12.606   8.104  -9.788  1.00 13.65 LIG 0.16  HD
ENDROOT
BRANCH 3 5
ATOM      5  CA  PHE D   4     -11.349   7.529  -8.388  1.00 13.25 LIG 0.18  C 
BRANCH 5 6
ATOM      6  CB  PHE D   4     -10.255   8.126  -9.287  1.00 13.20 LIG 0.07  C 
BRANCH 6 7
ATOM      7  CG  PHE D   4      -8.951   8.315  -8.601  1.00 13.63 LIG-0.06  A 
ATOM      8  CD1 PHE D   4      -8.492   9.591  -8.297  1.00 13.10 LIG 0.01  A 
ATOM      9  CE1 PHE D   4      -7.285   9.765  -7.633  1.00 15.10 LIG 0.00  A 
ATOM     10  CZ  PHE D   4      -6.536   8.654  -7.251  1.00 15.27 LIG 0.00  A 
ATOM     11  CE2 PHE D   4      -7.010   7.376  -7.528  1.00 13.31 LIG 0.00  A 
ATOM     12  CD2 PHE D   4      -8.199   7.220  -8.212  1.00 12.44 LIG 0.01  A 
ENDBRANCH 6 7
ENDBRANCH 5 6
BRANCH 5 13
ATOM     13  C   PHE D   4     -11.417   8.247  -7.041  1.00 14.19 LIG 0.24  C 
ATOM     14 O    PHE D   4     -12.046   9.294  -6.926  1.00 15.09 LIG-0.27  OA
ATOM     15  N   GLU D   5     -10.879   7.634  -5.996  1.00 15.42 LIG-0.35  N 
ATOM     16 H    GLU D   5     -10.554   6.838  -6.013  1.00 15.42 LIG 0.16  HD
BRANCH 15 17
ATOM     17  CA  GLU D   5     -10.806   8.296  -4.705  1.00 15.66 LIG 0.18  C 
BRANCH 17 18
ATOM     18  CB  GLU D   5     -12.066   8.012  -3.873  1.00 15.74 LIG 0.04  C 
BRANCH 18 19
ATOM     19  CG  GLU D   5     -12.045   8.587  -2.473  1.00 13.49 LIG 0.12  C 
BRANCH 19 20
ATOM     20  CD  GLU D   5     -11.294   7.703  -1.492  1.00 17.86 LIG 0.17  C 
ATOM     21 OE1  GLU D   5     -11.089   6.511  -1.812  1.00 19.55 LIG-0.65  OA
ATOM     22 OE2  GLU D   5     -10.850   8.208  -0.432  1.00 19.96 LIG-0.65  OA
ENDBRANCH 19 20
ENDBRANCH 18 19
ENDBRANCH 17 18
BRANCH 17 23
ATOM     23  C   GLU D   5      -9.554   7.826  -3.986  1.00 17.50 LIG 0.24  C 
ATOM     24 O    GLU D   5      -9.244   6.633  -3.984  1.00 17.10 LIG-0.27  OA
ATOM     25  N   ALA D   6      -8.820   8.769  -3.408  1.00 19.03 LIG-0.35  N 
ATOM     26 H    ALA D   6      -9.022   9.604  -3.408  1.00 19.03 LIG 0.16  HD
BRANCH 25 27
ATOM     27  CA  ALA D   6      -7.582   8.446  -2.713  1.00 21.37 LIG 0.17  C 
ATOM     28  CB  ALA D   6      -6.408   8.540  -3.661  1.00 21.30 LIG 0.04  C 
BRANCH 27 29
ATOM     29  C   ALA D   6      -7.397   9.400  -1.544  1.00 24.24 LIG 0.24  C 
ATOM     30 O    ALA D   6      -7.711  10.587  -1.640  1.00 22.56 LIG-0.27  OA
ATOM     31  N   MET D   7      -6.895   8.869  -0.436  1.00 27.55 LIG-0.34  N 
ATOM     32 H    MET D   7      -6.589   8.066  -0.383  1.00 27.55 LIG 0.16  HD
BRANCH 31 33
ATOM     33  CA  MET D   7      -6.820   9.625   0.808  1.00 30.72 LIG 0.19  C 
BRANCH 33 34
ATOM     34  C   MET D   7      -5.361   9.817   1.195  1.00 33.25 LIG 0.20  C 
ATOM     35 O    MET D   7      -4.707  10.746   0.702  1.00 35.29 LIG-0.65  OA
ATOM     36 OXT  MET D   7      -4.782   9.005   1.932  1.00 35.43 LIG-0.65  OA
ENDBRANCH 33 34
BRANCH 33 37
ATOM     37  CB  MET D   7      -7.598   8.898   1.911  1.00 30.73 LIG 0.05  C 
BRANCH 37 38
ATOM     38  CG  MET D   7      -6.862   8.713   3.223  1.00 32.79 LIG 0.08  C 
BRANCH 38 39
ATOM     39 SD   MET D   7      -7.696   9.551   4.573  1.00 33.89 LIG-0.17  SA
ATOM     40  CE  MET D   7      -9.306   8.765   4.555  1.00 31.39 LIG 0.09  C 
ENDBRANCH 38 39
ENDBRANCH 37 38
ENDBRANCH 33 37
ENDBRANCH 31 33
ENDBRANCH 27 29
ENDBRANCH 25 27
ENDBRANCH 17 23
ENDBRANCH 15 17
ENDBRANCH 5 13
ENDBRANCH 3 5
BRANCH 1 41
ATOM     41  CA  LEU D   3     -15.052   7.862  -8.926  1.00 16.32 LIG 0.18  C 
BRANCH 41 42
ATOM     42  N   LEU D   3     -15.233   7.796 -10.371  1.00 16.05 LIG-0.35  N 
ATOM     43  C   VAL D   2     -14.807   8.776 -11.166  1.00 15.61 LIG 0.24  C 
ATOM     44 O    VAL D   2     -14.324   9.823 -10.732  1.00 16.79 LIG-0.27  OA
ATOM     45 H    LEU D   3     -15.630   7.086 -10.651  1.00 16.05 LIG 0.16  HD
BRANCH 43 46
ATOM     46  CA  VAL D   2     -15.108   8.625 -12.649  1.00 14.78 LIG 0.18  C 
BRANCH 46 47
ATOM     47  N   VAL D   2     -16.339   9.353 -12.925  1.00 14.77 LIG-0.35  N 
ATOM     48  C   ARG D   1     -17.370   8.765 -13.517  1.00 16.50 LIG 0.25  C 
ATOM     49 O    ARG D   1     -17.380   7.570 -13.828  1.00 16.49 LIG-0.27  OA
ATOM     50 H    VAL D   2     -16.331  10.176 -12.675  1.00 14.77 LIG 0.16  HD
BRANCH 48 51
ATOM     51  CA  ARG D   1     -18.607   9.613 -13.685  1.00 17.64 LIG 0.27  C 
BRANCH 51 52
ATOM     52  N   ARG D   1     -19.451   9.020 -14.753  1.00 17.90 LIG-0.07  N 
ATOM     53 H3   ARG D   1     -19.766   8.233 -14.481  1.00 17.90 LIG 0.28  HD
ATOM     54 H2   ARG D   1     -18.962   8.904 -15.489  1.00 17.90 LIG 0.28  HD
ATOM     55 H1   ARG D   1     -20.131   9.565 -14.932  1.00 17.90 LIG 0.28  HD
ENDBRANCH 51 52
BRANCH 51 56
ATOM     56  CB  ARG D   1     -19.343   9.641 -12.337  1.00 19.06 LIG 0.04  C 
BRANCH 56 57
ATOM     57  CG  ARG D   1     -20.836   9.472 -12.391  1.00 22.89 LIG 0.02  C 
BRANCH 57 58
ATOM     58  CD  ARG D   1     -21.445  10.067 -11.127  1.00 26.83 LIG 0.14  C 
BRANCH 58 59
ATOM     59  NE  ARG D   1     -22.299   9.115 -10.429  1.00 30.01 LIG-0.23  N 
ATOM     60  CZ  ARG D   1     -23.609   9.276 -10.270  1.00 33.71 LIG 0.67  C 
ATOM     61  NH1 ARG D   1     -24.203  10.357 -10.758  1.00 32.13 LIG-0.23  N 
ATOM     62  NH2 ARG D   1     -24.325   8.360  -9.626  1.00 33.53 LIG-0.23  N 
ATOM     63 1HH1 ARG D   1     -23.741  10.950 -11.175  1.00 32.13 LIG 0.17  HD
ATOM     64 2HH1 ARG D   1     -25.050  10.464 -10.657  1.00 32.13 LIG 0.17  HD
ATOM     65 1HH2 ARG D   1     -23.942   7.659  -9.308  1.00 33.53 LIG 0.17  HD
ATOM     66 2HH2 ARG D   1     -25.173   8.468  -9.526  1.00 33.53 LIG 0.17  HD
ATOM     67 HE   ARG D   1     -21.934   8.409 -10.101  1.00 30.01 LIG 0.18  HD
ENDBRANCH 58 59
ENDBRANCH 57 58
ENDBRANCH 56 57
ENDBRANCH 51 56
ENDBRANCH 48 51
ENDBRANCH 46 47
BRANCH 46 68
ATOM     68  CB  VAL D   2     -13.949   9.202 -13.489  1.00 15.28 LIG 0.01  C 
ATOM     69  CG2 VAL D   2     -14.233   9.011 -14.966  1.00 14.68 LIG 0.01  C 
ATOM     70  CG1 VAL D   2     -12.604   8.593 -13.091  1.00 13.75 LIG 0.01  C 
ENDBRANCH 46 68
ENDBRANCH 43 46
ENDBRANCH 41 42
BRANCH 41 71
ATOM     71  CB  LEU D   3     -16.239   7.229  -8.194  1.00 15.85 LIG 0.04  C 
BRANCH 71 72
ATOM     72  CG  LEU D   3     -17.636   7.596  -8.703  1.00 19.10 LIG-0.02  C 
ATOM     73  CD2 LEU D   3     -17.919   9.083  -8.553  1.00 16.59 LIG 0.01  C 
ATOM     74  CD1 LEU D   3     -18.675   6.762  -7.955  1.00 21.08 LIG 0.01  C 
ENDBRANCH 71 72
ENDBRANCH 41 71
ENDBRANCH 1 41
TORSDOF 29
