USER: ADFR SOLUTION from run 0
USER: SCORE 24.337753 LL:  -6.762 LR: -17.957 RR:   0.000 FEB: -11.693
USER: RMSD 0.485878
USER: STATUS Locally minimized using BFGS
USER: GENES 23
USER: genes 0 Translation |==|  0.55652 0.55095 0.50880
USER: genes 1 Rotation |==|  0.48161 0.49499 0.49864 0.99963
USER: genes 2 Torsion [N]-C--CA-[N] |==|  0.35075
USER: genes 3 Torsion [C]-CA--CB-[CG2] |==|  0.11115
USER: genes 4 Torsion [CA]-CB--CG1-[CD1] |==|  0.44426
USER: genes 5 Torsion [C]-CA--N-[C] |==|  0.65183
USER: genes 6 Torsion [N]-C--CA-[N] |==|  0.36667
USER: genes 7 Torsion [C]-CA--CB-[CG] |==|  0.15008
USER: genes 8 Torsion [CA]-CB--CG-[CD2] |==|  0.75281
USER: genes 9 Torsion [CE2]-CZ--OH-[HH] |==|  0.99909
USER: genes 10 Torsion [C]-CA--N-[C] |==|  0.73263
USER: genes 11 Torsion [N]-C--CA-[N] |==|  0.43673
USER: genes 12 Torsion [C]-CA--CB-[CG1] |==|  0.42001
USER: genes 13 Torsion [C]-CA--N-[H3] |==|  0.06479
USER: genes 14 Torsion [C]-N--CA-[C] |==|  0.81756
USER: genes 15 Torsion [N]-CA--C-[N] |==|  0.34004
USER: genes 16 Torsion [N]-CA--C-[O] |==|  0.80503
USER: genes 17 Torsion [C]-N--CA-[C] |==|  0.75589
USER: genes 18 Torsion [N]-CA--C-[O] |==|  0.88806
USER: genes 19 Torsion [N]-CA--CB-[CG] |==|  0.52574
USER: genes 20 Torsion [CA]-CB--CG-[CD1] |==|  0.20321
USER: genes 21 Torsion [N]-CA--CB-[CG] |==|  0.52430
USER: genes 22 Torsion [CA]-CB--CG-[CD2] |==|  0.69590
ROOT
ATOM      1  C   ILE C   3     103.263  18.789  17.317  1.00 36.59 LIG 0.24  C 
ATOM      2 O    ILE C   3     102.929  19.971  17.229  1.00 38.27 LIG-0.27  OA
ATOM      3  N   HIS C   4     102.794  17.862  16.480  1.00 46.08 LIG-0.35  N 
ATOM      4 H    HIS C   4     102.998  17.026  16.486  1.00 46.08 LIG 0.16  HD
ENDROOT
BRANCH 1 5
ATOM      5  CA  ILE C   3     104.256  18.370  18.409  1.00 34.07 LIG 0.18  C 
BRANCH 5 6
ATOM      6  CB  ILE C   3     103.644  18.541  19.812  1.00 34.47 LIG 0.01  C 
ATOM      7  CG2 ILE C   3     102.173  18.114  19.844  1.00 38.92 LIG 0.01  C 
BRANCH 6 8
ATOM      8  CG1 ILE C   3     104.470  17.743  20.819  1.00 35.39 LIG 0.00  C 
ATOM      9  CD1 ILE C   3     104.275  18.204  22.242  1.00 37.65 LIG 0.01  C 
ENDBRANCH 6 8
ENDBRANCH 5 6
BRANCH 5 10
ATOM     10  N   ILE C   3     105.429  19.230  18.285  1.00 27.24 LIG-0.35  N 
ATOM     11 H    ILE C   3     105.253  20.071  18.308  1.00 27.24 LIG 0.16  HD
ATOM     12  C   TYR C   2     106.650  18.739  18.151  1.00 25.56 LIG 0.24  C 
ATOM     13 O    TYR C   2     106.913  17.551  18.270  1.00 25.11 LIG-0.27  OA
BRANCH 12 14
ATOM     14  CA  TYR C   2     107.754  19.755  17.888  1.00 24.41 LIG 0.18  C 
BRANCH 14 15
ATOM     15  CB  TYR C   2     108.188  19.686  16.432  1.00 23.53 LIG 0.07  C 
BRANCH 15 16
ATOM     16  CG  TYR C   2     107.011  19.842  15.501  1.00 26.01 LIG-0.06  A 
ATOM     17  CD2 TYR C   2     106.268  18.718  15.079  1.00 25.97 LIG 0.01  A 
ATOM     18  CE2 TYR C   2     105.168  18.858  14.254  1.00 26.70 LIG 0.04  A 
ATOM     19  CZ  TYR C   2     104.796  20.106  13.833  1.00 26.24 LIG 0.07  A 
ATOM     20  CE1 TYR C   2     105.494  21.241  14.240  1.00 24.75 LIG 0.04  A 
ATOM     21  CD1 TYR C   2     106.595  21.101  15.076  1.00 24.78 LIG 0.01  A 
BRANCH 19 22
ATOM     22 OH   TYR C   2     103.712  20.215  13.008  1.00 29.14 LIG-0.36  OA
ATOM     23 HH   TYR C   2     103.398  19.451  12.855  1.00 29.14 LIG 0.22  HD
ENDBRANCH 19 22
ENDBRANCH 15 16
ENDBRANCH 14 15
BRANCH 14 24
ATOM     24  N   TYR C   2     108.834  19.448  18.804  1.00 21.44 LIG-0.35  N 
ATOM     25 H    TYR C   2     109.372  18.831  18.539  1.00 21.44 LIG 0.16  HD
ATOM     26  C   VAL C   1     108.943  20.095  19.952  1.00 22.04 LIG 0.25  C 
ATOM     27 O    VAL C   1     108.265  21.098  20.240  1.00 22.28 LIG-0.27  OA
BRANCH 26 28
ATOM     28  CA  VAL C   1     109.921  19.501  20.955  1.00 20.62 LIG 0.28  C 
BRANCH 28 29
ATOM     29  CB  VAL C   1     109.113  18.316  21.607  1.00 21.07 LIG 0.02  C 
ATOM     30  CG1 VAL C   1     110.010  17.189  22.083  1.00 24.54 LIG 0.01  C 
ATOM     31  CG2 VAL C   1     108.176  18.797  22.736  1.00 20.31 LIG 0.01  C 
ENDBRANCH 28 29
BRANCH 28 32
ATOM     32  N   VAL C   1     110.373  20.573  21.935  1.00 19.14 LIG-0.07  N 
ATOM     33 H1   VAL C   1     110.466  20.215  22.745  1.00 19.14 LIG 0.28  HD
ATOM     34 H2   VAL C   1     111.153  20.909  21.668  1.00 19.14 LIG 0.28  HD
ATOM     35 H3   VAL C   1     109.765  21.222  21.967  1.00 19.14 LIG 0.28  HD
ENDBRANCH 28 32
ENDBRANCH 26 28
ENDBRANCH 14 24
ENDBRANCH 12 14
ENDBRANCH 5 10
ENDBRANCH 1 5
BRANCH 3 36
ATOM     36  CA  HIS C   4     101.841  18.293  15.448  1.00 52.11 LIG 0.18  C 
BRANCH 36 37
ATOM     37  C   HIS C   4     100.533  18.771  16.051  1.00 56.91 LIG 0.24  C 
ATOM     38  N   PRO C   5     100.162  20.034  15.746  1.00 60.52 LIG-0.34  N 
ATOM     39  CD  PRO C   5     101.020  21.012  15.045  1.00 64.10 LIG 0.13  C 
ATOM     40  CA  PRO C   5      98.861  20.609  16.033  1.00 66.68 LIG 0.18  C 
ATOM     41  CG  PRO C   5     100.076  22.138  14.682  1.00 63.73 LIG 0.02  C 
ATOM     42  CB  PRO C   5      98.699  21.627  14.896  1.00 65.87 LIG 0.04  C 
ATOM     43 O    HIS C   4      99.886  18.020  16.789  1.00 55.90 LIG-0.27  OA
BRANCH 40 44
ATOM     44  C   PRO C   5      97.743  19.561  15.985  1.00 66.75 LIG 0.24  C 
ATOM     45 O    PRO C   5      97.396  19.067  14.911  1.00 68.20 LIG-0.27  OA
ATOM     46  N   PHE C   6      97.223  19.200  17.154  1.00 67.82 LIG-0.34  N 
ATOM     47 H    PHE C   6      97.512  19.473  17.916  1.00 67.82 LIG 0.16  HD
BRANCH 46 48
ATOM     48  CA  PHE C   6      96.092  18.285  17.228  1.00 66.93 LIG 0.19  C 
BRANCH 48 49
ATOM     49  C   PHE C   6      94.786  19.074  17.144  1.00 69.04 LIG 0.20  C 
ATOM     50 O    PHE C   6      94.646  20.155  17.728  1.00 69.16 LIG-0.65  OA
ATOM     51 OXT  PHE C   6      93.846  18.642  16.477  1.00 68.12 LIG-0.65  OA
ENDBRANCH 48 49
BRANCH 48 52
ATOM     52  CB  PHE C   6      96.147  17.441  18.507  1.00 62.34 LIG 0.07  C 
BRANCH 52 53
ATOM     53  CG  PHE C   6      95.134  16.323  18.546  1.00 57.42 LIG-0.06  A 
ATOM     54  CD1 PHE C   6      95.299  15.184  17.752  1.00 55.80 LIG 0.01  A 
ATOM     55  CE1 PHE C   6      94.368  14.154  17.786  1.00 52.49 LIG 0.00  A 
ATOM     56  CZ  PHE C   6      93.262  14.249  18.634  1.00 53.54 LIG 0.00  A 
ATOM     57  CE2 PHE C   6      93.091  15.373  19.427  1.00 53.16 LIG 0.00  A 
ATOM     58  CD2 PHE C   6      94.022  16.402  19.381  1.00 55.01 LIG 0.01  A 
ENDBRANCH 52 53
ENDBRANCH 48 52
ENDBRANCH 46 48
ENDBRANCH 40 44
ENDBRANCH 36 37
BRANCH 36 59
ATOM     59  CB  HIS C   4     101.558  17.270  14.343  1.00 57.66 LIG 0.10  C 
BRANCH 59 60
ATOM     60  CG  HIS C   4     100.745  17.848  13.216  1.00 65.67 LIG 0.06  A 
ATOM     61  CD2 HIS C   4      99.462  17.631  12.834  1.00 66.99 LIG 0.14  A 
ATOM     62 NE2  HIS C   4      99.211  18.455  11.761  1.00 66.34 LIG-0.25  NA
ATOM     63  CE1 HIS C   4     100.296  19.164  11.500  1.00 66.88 LIG 0.23  A 
ATOM     64 ND1  HIS C   4     101.232  18.827  12.370  1.00 66.49 LIG-0.24  NA
ENDBRANCH 59 60
ENDBRANCH 36 59
ENDBRANCH 3 36
TORSDOF 21
