USER: ADFR SOLUTION from run 0
USER: SCORE 24.086747 LL:  -3.575 LR: -20.915 RR:   0.000 FEB: -14.352
USER: RMSD 0.335553
USER: STATUS Locally minimized using BFGS
USER: GENES 24
USER: genes 0 Translation |==|  0.58688 0.45289 0.52258
USER: genes 1 Rotation |==|  0.51574 0.50048 0.49621 0.99974
USER: genes 2 Torsion [N]-CA--C-[N] |==|  0.40944
USER: genes 3 Torsion [C]-N--CA-[C] |==|  0.82725
USER: genes 4 Torsion [N]-CA--C-[N] |==|  0.44708
USER: genes 5 Torsion [C]-N--CA-[C] |==|  0.73554
USER: genes 6 Torsion [N]-CA--C-[N] |==|  0.41789
USER: genes 7 Torsion [C]-N--CA-[C] |==|  0.62730
USER: genes 8 Torsion [N]-CA--C-[OXT] |==|  0.48231
USER: genes 9 Torsion [N]-CA--CB-[CG2] |==|  0.78046
USER: genes 10 Torsion [CA]-CB--OG1-[HG1] |==|  0.45532
USER: genes 11 Torsion [N]-CA--CB-[CG] |==|  0.82118
USER: genes 12 Torsion [CA]-CB--CG-[SD] |==|  0.50088
USER: genes 13 Torsion [CB]-CG--SD-[CE] |==|  0.50016
USER: genes 14 Torsion [C]-CA--CB-[CG] |==|  0.48612
USER: genes 15 Torsion [CA]-CB--CG-[CD] |==|  0.79263
USER: genes 16 Torsion [CB]-CG--CD-[NE] |==|  0.20018
USER: genes 17 Torsion [CG]-CD--NE-[CZ] |==|  0.54218
USER: genes 18 Torsion [C]-CA--N-[C] |==|  0.70809
USER: genes 19 Torsion [N]-C--CA-[N] |==|  0.41757
USER: genes 20 Torsion [C]-CA--CB-[CG] |==|  0.47552
USER: genes 21 Torsion [CA]-CB--CG-[CD] |==|  0.81444
USER: genes 22 Torsion [CB]-CG--CD-[OE1] |==|  0.80913
USER: genes 23 Torsion [C]-CA--N-[H1] |==|  0.54263
ROOT
ATOM      1  CA  ARG C   2       8.469  59.017  94.884  1.00 28.55 LIG 0.18  C 
ENDROOT
BRANCH 1 2
ATOM      2  C   ARG C   2       7.391  60.044  94.564  1.00 27.63 LIG 0.24  C 
ATOM      3  N   GLY C   3       7.637  60.857  93.541  1.00 28.98 LIG-0.35  N 
ATOM      4 H    GLY C   3       8.378  60.873  93.107  1.00 28.98 LIG 0.16  HD
ATOM      5 O    ARG C   2       6.359  60.100  95.230  1.00 38.18 LIG-0.27  OA
BRANCH 3 6
ATOM      6  CA  GLY C   3       6.642  61.803  93.071  1.00 28.70 LIG 0.23  C 
BRANCH 6 7
ATOM      7  C   GLY C   3       5.404  61.085  92.567  1.00 32.52 LIG 0.24  C 
ATOM      8  N   MET C   4       4.294  61.810  92.479  1.00 24.44 LIG-0.35  N 
ATOM      9 H    MET C   4       4.256  62.654  92.642  1.00 24.44 LIG 0.16  HD
ATOM     10 O    GLY C   3       5.450  59.891  92.260  1.00 29.09 LIG-0.27  OA
BRANCH 8 11
ATOM     11  CA  MET C   4       3.020  61.212  92.088  1.00 28.81 LIG 0.18  C 
BRANCH 11 12
ATOM     12  C   MET C   4       2.718  61.348  90.601  1.00 31.65 LIG 0.24  C 
ATOM     13  N   THR C   5       1.975  60.377  90.076  1.00 30.68 LIG-0.34  N 
ATOM     14 H    THR C   5       1.779  59.650  90.493  1.00 30.68 LIG 0.16  HD
ATOM     15 O    MET C   4       3.139  62.306  89.953  1.00 27.41 LIG-0.27  OA
BRANCH 13 16
ATOM     16  CA  THR C   5       1.418  60.457  88.732  1.00 35.68 LIG 0.21  C 
BRANCH 16 17
ATOM     17  C   THR C   5      -0.045  60.030  88.754  1.00 44.01 LIG 0.20  C 
ATOM     18 OXT  THR C   5      -0.753  60.128  87.752  1.00 37.19 LIG-0.65  OA
ATOM     19 O    THR C   5      -0.551  59.578  89.781  1.00 36.37 LIG-0.65  OA
ENDBRANCH 16 17
BRANCH 16 20
ATOM     20  CB  THR C   5       2.181  59.569  87.734  1.00 39.19 LIG 0.15  C 
ATOM     21  CG2 THR C   5       3.466  60.247  87.297  1.00 34.97 LIG 0.04  C 
BRANCH 20 22
ATOM     22 OG1  THR C   5       2.492  58.312  88.349  1.00 33.33 LIG-0.39  OA
ATOM     23 HG1  THR C   5       2.704  57.756  87.757  1.00 33.33 LIG 0.21  HD
ENDBRANCH 20 22
ENDBRANCH 16 20
ENDBRANCH 13 16
ENDBRANCH 11 12
BRANCH 11 24
ATOM     24  CB  MET C   4       1.873  61.840  92.877  1.00 29.60 LIG 0.04  C 
BRANCH 24 25
ATOM     25  CG  MET C   4       1.918  61.590  94.367  1.00 30.85 LIG 0.08  C 
BRANCH 25 26
ATOM     26 SD   MET C   4       0.513  62.372  95.172  1.00 29.25 LIG-0.17  SA
ATOM     27  CE  MET C   4       0.806  61.933  96.882  1.00 27.46 LIG 0.09  C 
ENDBRANCH 25 26
ENDBRANCH 24 25
ENDBRANCH 11 24
ENDBRANCH 8 11
ENDBRANCH 6 7
ENDBRANCH 3 6
ENDBRANCH 1 2
BRANCH 1 28
ATOM     28  CB  ARG C   2       8.190  57.724  94.108  1.00 31.53 LIG 0.04  C 
BRANCH 28 29
ATOM     29  CG  ARG C   2       9.261  56.643  94.241  1.00 24.41 LIG 0.02  C 
BRANCH 29 30
ATOM     30  CD  ARG C   2      10.509  56.973  93.434  1.00 21.67 LIG 0.14  C 
BRANCH 30 31
ATOM     31  NE  ARG C   2      11.282  58.061  94.025  1.00 22.58 LIG-0.23  N 
ATOM     32  CZ  ARG C   2      12.236  58.732  93.389  1.00 29.43 LIG 0.67  C 
ATOM     33  NH1 ARG C   2      12.535  58.434  92.131  1.00 25.92 LIG-0.23  N 
ATOM     34  NH2 ARG C   2      12.885  59.710  94.008  1.00 25.80 LIG-0.23  N 
ATOM     35 1HH1 ARG C   2      12.111  57.805  91.726  1.00 25.92 LIG 0.17  HD
ATOM     36 2HH1 ARG C   2      13.153  58.870  91.721  1.00 25.92 LIG 0.17  HD
ATOM     37 2HH2 ARG C   2      13.502  60.145  93.597  1.00 25.80 LIG 0.17  HD
ATOM     38 1HH2 ARG C   2      12.688  59.909  94.821  1.00 25.80 LIG 0.17  HD
ATOM     39 HE   ARG C   2      11.109  58.282  94.837  1.00 22.58 LIG 0.18  HD
ENDBRANCH 30 31
ENDBRANCH 29 30
ENDBRANCH 28 29
ENDBRANCH 1 28
BRANCH 1 40
ATOM     40  N   ARG C   2       8.508  58.752  96.317  1.00 27.17 LIG-0.35  N 
ATOM     41 H    ARG C   2       7.860  58.265  96.604  1.00 27.17 LIG 0.16  HD
ATOM     42  C   GLU C   1       9.471  59.233  97.096  1.00 28.98 LIG 0.25  C 
ATOM     43 O    GLU C   1      10.430  59.875  96.664  1.00 27.13 LIG-0.27  OA
BRANCH 42 44
ATOM     44  CA  GLU C   1       9.336  58.938  98.586  1.00 33.23 LIG 0.28  C 
BRANCH 44 45
ATOM     45  CB  GLU C   1       8.470  60.007  99.260  1.00 35.26 LIG 0.05  C 
BRANCH 45 46
ATOM     46  CG  GLU C   1       8.099  59.690 100.702  1.00 36.87 LIG 0.12  C 
BRANCH 46 47
ATOM     47  CD  GLU C   1       7.176  58.490 100.816  1.00 40.37 LIG 0.17  C 
ATOM     48 OE1  GLU C   1       6.006  58.595 100.392  1.00 44.48 LIG-0.65  OA
ATOM     49 OE2  GLU C   1       7.621  57.438 101.324  1.00 35.28 LIG-0.65  OA
ENDBRANCH 46 47
ENDBRANCH 45 46
ENDBRANCH 44 45
BRANCH 44 50
ATOM     50  N   GLU C   1      10.639  58.853  99.233  1.00 29.71 LIG-0.07  N 
ATOM     51 H1   GLU C   1      10.551  58.468 100.030  1.00 29.71 LIG 0.28  HD
ATOM     52 H2   GLU C   1      11.190  58.368  98.728  1.00 29.71 LIG 0.28  HD
ATOM     53 H3   GLU C   1      10.974  59.671  99.334  1.00 29.71 LIG 0.28  HD
ENDBRANCH 44 50
ENDBRANCH 42 44
ENDBRANCH 1 40
TORSDOF 22
