USER: ADFR SOLUTION from run 0
USER: SCORE 5.370090 LL:  -0.723 LR:  -5.092 RR:   0.000 FEB:  -1.811
USER: RMSD 1.198735
USER: STATUS Locally minimized using BFGS
USER: GENES 13
USER: genes 0 Translation |==|  0.29691 0.50409 0.38549
USER: genes 1 Rotation |==|  0.50793 0.44773 0.57460 0.99157
USER: genes 2 Torsion [N]-C--CA-[N] |==|  0.41565
USER: genes 3 Torsion [C]-CA--CB-[CG] |==|  0.24329
USER: genes 4 Torsion [CA]-CB--CG-[CD] |==|  0.51163
USER: genes 5 Torsion [CB]-CG--CD-[NE] |==|  0.46772
USER: genes 6 Torsion [CG]-CD--NE-[CZ] |==|  0.27961
USER: genes 7 Torsion [C]-N--CA-[C] |==|  0.70803
USER: genes 8 Torsion [N]-CA--C-[N] |==|  0.70167
USER: genes 9 Torsion [C]-N--CA-[C] |==|  0.21275
USER: genes 10 Torsion [N]-CA--C-[OXT] |==|  0.87227
USER: genes 11 Torsion [N]-CA--CB-[OG1] |==|  0.92069
USER: genes 12 Torsion [CA]-CB--OG1-[HG1] |==|  0.31579
ROOT
ATOM      1  C   ARG C 760      13.785 -16.954  15.772  1.00 56.34 LIG 0.26  C 
ATOM      2 O    ARG C 760      12.626 -16.631  16.015  1.00 53.76 LIG-0.27  OA
ATOM      3  N   GLY C 761      14.583 -17.509  16.679  1.00 59.89 LIG-0.35  N 
ATOM      4 H    GLY C 761      15.438 -17.554  16.602  1.00 59.89 LIG 0.16  HD
ENDROOT
BRANCH 1 5
ATOM      5  CA  ARG C 760      14.380 -16.722  14.383  1.00 61.16 LIG 0.40  C 
ATOM      6  N   ARG C 760      13.330 -16.813  13.371  1.00 59.95 LIG 0.61  N 
BRANCH 5 7
ATOM      7  CB  ARG C 760      15.085 -15.368  14.298  1.00 63.40 LIG 0.05  C 
BRANCH 7 8
ATOM      8  CG  ARG C 760      16.538 -15.394  14.726  1.00 63.69 LIG 0.02  C 
BRANCH 8 9
ATOM      9  CD  ARG C 760      17.136 -13.997  14.711  1.00 63.30 LIG 0.14  C 
BRANCH 9 10
ATOM     10  NE  ARG C 760      18.437 -13.963  15.373  1.00 65.15 LIG-0.23  N 
ATOM     11  CZ  ARG C 760      19.605 -13.964  14.738  1.00 66.46 LIG 0.67  C 
ATOM     12  NH1 ARG C 760      19.647 -13.989  13.412  1.00 66.43 LIG-0.23  N 
ATOM     13  NH2 ARG C 760      20.734 -13.933  15.431  1.00 66.89 LIG-0.23  N 
ATOM     14 2HH1 ARG C 760      20.405 -13.989  13.006  1.00 66.43 LIG 0.17  HD
ATOM     15 1HH1 ARG C 760      18.916 -14.005  12.958  1.00 66.43 LIG 0.17  HD
ATOM     16 2HH2 ARG C 760      21.489 -13.933  15.021  1.00 66.89 LIG 0.17  HD
ATOM     17 1HH2 ARG C 760      20.710 -13.913  16.290  1.00 66.89 LIG 0.17  HD
ATOM     18 HE   ARG C 760      18.448 -13.940  16.233  1.00 65.15 LIG 0.18  HD
ENDBRANCH 9 10
ENDBRANCH 8 9
ENDBRANCH 7 8
ENDBRANCH 5 7
ENDBRANCH 1 5
BRANCH 3 19
ATOM     19  CA  GLY C 761      14.057 -18.097  17.900  1.00 62.83 LIG 0.23  C 
BRANCH 19 20
ATOM     20  C   GLY C 761      14.202 -17.381  19.235  1.00 67.24 LIG 0.24  C 
ATOM     21 O    GLY C 761      13.538 -16.375  19.487  1.00 65.14 LIG-0.27  OA
ATOM     22  N   THR C 762      15.087 -17.914  20.075  1.00 72.11 LIG-0.34  N 
ATOM     23 H    THR C 762      15.730 -18.418  19.809  1.00 72.11 LIG 0.16  HD
BRANCH 22 24
ATOM     24  CA  THR C 762      15.077 -17.716  21.529  1.00 75.13 LIG 0.21  C 
BRANCH 24 25
ATOM     25  C   THR C 762      13.972 -18.596  22.106  1.00 73.09 LIG 0.20  C 
ATOM     26 OXT  THR C 762      12.864 -18.614  21.574  1.00 76.95 LIG-0.65  OA
ATOM     27 O    THR C 762      14.143 -19.309  23.096  1.00 68.26 LIG-0.65  OA
ENDBRANCH 24 25
BRANCH 24 28
ATOM     28  CB  THR C 762      14.832 -16.256  21.971  1.00 77.67 LIG 0.15  C 
ATOM     29  CG2 THR C 762      15.560 -15.974  23.274  1.00 76.40 LIG 0.04  C 
BRANCH 28 30
ATOM     30 OG1  THR C 762      15.312 -15.353  20.969  1.00 80.43 LIG-0.39  OA
ATOM     31 HG1  THR C 762      14.663 -14.942  20.630  1.00 80.43 LIG 0.21  HD
ENDBRANCH 28 30
ENDBRANCH 24 28
ENDBRANCH 22 24
ENDBRANCH 19 20
ENDBRANCH 3 19
TORSDOF 11
