USER: ADFR SOLUTION from run 0
USER: SCORE 16.793506 LL:  -5.923 LR: -13.205 RR:   0.000 FEB:  -5.449
USER: RMSD 0.381094
USER: STATUS Locally minimized using BFGS
USER: GENES 28
USER: genes 0 Translation |==|  0.53058 0.36336 0.52160
USER: genes 1 Rotation |==|  0.51482 0.50348 0.49586 0.99975
USER: genes 2 Torsion [C]-N--CA-[CB] |==|  0.80297
USER: genes 3 Torsion [N]-CA--CB-[CG] |==|  0.82771
USER: genes 4 Torsion [CA]-CB--CG-[CD2] |==|  0.25969
USER: genes 5 Torsion [CE2]-CZ--OH-[HH] |==|  0.95814
USER: genes 6 Torsion [N]-CA--C-[N] |==|  0.13800
USER: genes 7 Torsion [C]-N--CA-[CB] |==|  0.42869
USER: genes 8 Torsion [N]-CA--CB-[CG] |==|  0.81534
USER: genes 9 Torsion [CA]-CB--CG-[SD] |==|  0.47324
USER: genes 10 Torsion [CB]-CG--SD-[CE] |==|  0.17148
USER: genes 11 Torsion [N]-CA--C-[N] |==|  0.37222
USER: genes 12 Torsion [C]-N--CA-[C] |==|  0.70109
USER: genes 13 Torsion [N]-CA--C-[O] |==|  0.76627
USER: genes 14 Torsion [N]-CA--CB-[CG] |==|  0.84275
USER: genes 15 Torsion [CA]-CB--CG-[CD1] |==|  0.40840
USER: genes 16 Torsion [N]-C--CA-[N] |==|  0.99604
USER: genes 17 Torsion [C]-CA--CB-[CG] |==|  0.48379
USER: genes 18 Torsion [CA]-CB--CG-[CD2] |==|  0.82859
USER: genes 19 Torsion [C]-CA--N-[C] |==|  0.74821
USER: genes 20 Torsion [N]-C--CA-[N] |==|  0.32678
USER: genes 21 Torsion [C]-CA--N-[C] |==|  0.67880
USER: genes 22 Torsion [N]-C--CA-[N] |==|  0.31594
USER: genes 23 Torsion [C]-CA--CB-[CG2] |==|  0.16598
USER: genes 24 Torsion [CA]-CB--OG1-[HG1] |==|  0.46997
USER: genes 25 Torsion [C]-CA--N-[H2] |==|  0.75781
USER: genes 26 Torsion [C]-CA--CB-[CG] |==|  0.21679
USER: genes 27 Torsion [CA]-CB--CG-[OD1] |==|  0.93392
ROOT
ATOM      1  C   LEU B   3       1.930  18.128  13.887  1.00 37.56 LIG 0.24  C 
ATOM      2 O    LEU B   3       2.829  17.458  14.431  1.00 36.01 LIG-0.27  OA
ATOM      3  N   TYR B   4       1.198  19.087  14.524  1.00 34.90 LIG-0.35  N 
ATOM      4 H    TYR B   4       0.590  19.533  14.112  1.00 34.90 LIG 0.16  HD
ENDROOT
BRANCH 3 5
ATOM      5  CA  TYR B   4       1.318  19.488  15.928  1.00 36.24 LIG 0.18  C 
BRANCH 5 6
ATOM      6  CB  TYR B   4       0.782  18.384  16.862  1.00 36.37 LIG 0.07  C 
BRANCH 6 7
ATOM      7  CG  TYR B   4      -0.683  18.143  16.607  1.00 36.28 LIG-0.06  A 
ATOM      8  CD2 TYR B   4      -1.108  17.152  15.722  1.00 36.38 LIG 0.01  A 
ATOM      9  CE2 TYR B   4      -2.456  16.965  15.436  1.00 36.34 LIG 0.04  A 
ATOM     10  CZ  TYR B   4      -3.397  17.802  16.012  1.00 42.86 LIG 0.07  A 
ATOM     11  CE1 TYR B   4      -2.999  18.804  16.884  1.00 38.54 LIG 0.04  A 
ATOM     12  CD1 TYR B   4      -1.650  18.973  17.171  1.00 37.84 LIG 0.01  A 
BRANCH 10 13
ATOM     13 OH   TYR B   4      -4.727  17.644  15.731  1.00 44.02 LIG-0.36  OA
ATOM     14 HH   TYR B   4      -4.814  17.154  15.053  1.00 44.02 LIG 0.22  HD
ENDBRANCH 10 13
ENDBRANCH 6 7
ENDBRANCH 5 6
BRANCH 5 15
ATOM     15  C   TYR B   4       2.750  19.882  16.276  1.00 47.41 LIG 0.24  C 
ATOM     16  N   MET B   5       3.321  20.746  15.444  1.00 49.29 LIG-0.35  N 
ATOM     17 H    MET B   5       2.951  21.045  14.728  1.00 49.29 LIG 0.16  HD
ATOM     18 O    TYR B   4       3.319  19.435  17.275  1.00 47.26 LIG-0.27  OA
BRANCH 16 19
ATOM     19  CA  MET B   5       4.653  21.262  15.698  1.00 52.16 LIG 0.18  C 
BRANCH 19 20
ATOM     20  CB  MET B   5       5.335  21.689  14.399  1.00 55.77 LIG 0.04  C 
BRANCH 20 21
ATOM     21  CG  MET B   5       5.625  20.508  13.475  1.00 61.00 LIG 0.08  C 
BRANCH 21 22
ATOM     22 SD   MET B   5       6.171  21.019  11.837  1.00 67.05 LIG-0.17  SA
ATOM     23  CE  MET B   5       7.664  21.885  12.264  1.00 63.64 LIG 0.09  C 
ENDBRANCH 21 22
ENDBRANCH 20 21
ENDBRANCH 19 20
BRANCH 19 24
ATOM     24  C   MET B   5       4.490  22.389  16.696  1.00 55.98 LIG 0.24  C 
ATOM     25 O    MET B   5       3.535  23.160  16.585  1.00 56.32 LIG-0.27  OA
ATOM     26  N   LEU B   6       5.333  22.415  17.735  1.00 51.23 LIG-0.35  N 
ATOM     27 H    LEU B   6       5.985  21.863  17.833  1.00 51.23 LIG 0.16  HD
BRANCH 26 28
ATOM     28  CA  LEU B   6       5.216  23.398  18.810  1.00 69.26 LIG 0.16  C 
BRANCH 28 29
ATOM     29  C   LEU B   6       6.329  24.441  18.732  1.00 97.67 LIG 0.22  C 
ATOM     30 O    LEU B   6       7.434  24.224  19.227  1.00 61.20 LIG-0.29  OA
ENDBRANCH 28 29
BRANCH 28 31
ATOM     31  CB  LEU B   6       5.220  22.686  20.177  1.00 69.14 LIG 0.04  C 
BRANCH 31 32
ATOM     32  CG  LEU B   6       4.141  21.622  20.370  1.00 73.60 LIG-0.02  C 
ATOM     33  CD2 LEU B   6       2.859  22.231  20.884  1.00 75.76 LIG 0.01  C 
ATOM     34  CD1 LEU B   6       4.632  20.495  21.250  1.00 73.41 LIG 0.01  C 
ENDBRANCH 31 32
ENDBRANCH 28 31
ENDBRANCH 26 28
ENDBRANCH 19 24
ENDBRANCH 16 19
ENDBRANCH 5 15
ENDBRANCH 3 5
BRANCH 1 35
ATOM     35  CA  LEU B   3       1.554  17.844  12.432  1.00 32.52 LIG 0.18  C 
BRANCH 35 36
ATOM     36  CB  LEU B   3       2.761  18.040  11.492  1.00 32.14 LIG 0.04  C 
BRANCH 36 37
ATOM     37  CG  LEU B   3       2.516  17.641  10.027  1.00 34.99 LIG-0.02  C 
ATOM     38  CD2 LEU B   3       2.175  16.134   9.904  1.00 35.91 LIG 0.01  C 
ATOM     39  CD1 LEU B   3       3.711  18.063   9.141  1.00 33.16 LIG 0.01  C 
ENDBRANCH 36 37
ENDBRANCH 35 36
BRANCH 35 40
ATOM     40  N   LEU B   3       0.423  18.658  11.997  1.00 32.48 LIG-0.35  N 
ATOM     41  C   ASN B   2      -0.840  18.211  12.130  1.00 36.40 LIG 0.24  C 
ATOM     42 O    ASN B   2      -1.112  17.095  12.592  1.00 34.95 LIG-0.27  OA
ATOM     43 H    LEU B   3       0.635  19.421  11.662  1.00 32.48 LIG 0.16  HD
BRANCH 41 44
ATOM     44  CA  ASN B   2      -1.964  19.104  11.597  1.00 32.65 LIG 0.18  C 
BRANCH 44 45
ATOM     45  N   ASN B   2      -2.625  18.349  10.539  1.00 32.45 LIG-0.34  N 
ATOM     46 H    ASN B   2      -3.007  17.637  10.832  1.00 32.45 LIG 0.16  HD
ATOM     47  C   THR B   1      -2.659  18.686   9.245  1.00 35.22 LIG 0.25  C 
ATOM     48 O    THR B   1      -2.236  19.768   8.792  1.00 34.61 LIG-0.27  OA
BRANCH 47 49
ATOM     49  CA  THR B   1      -3.283  17.635   8.360  1.00 32.53 LIG 0.30  C 
BRANCH 49 50
ATOM     50  CB  THR B   1      -2.283  17.174   7.288  1.00 31.51 LIG 0.15  C 
ATOM     51  CG2 THR B   1      -0.979  16.559   7.885  1.00 30.77 LIG 0.04  C 
BRANCH 50 52
ATOM     52 OG1  THR B   1      -2.929  16.234   6.430  1.00 21.64 LIG-0.39  OA
ATOM     53 HG1  THR B   1      -2.445  16.088   5.759  1.00 21.64 LIG 0.21  HD
ENDBRANCH 50 52
ENDBRANCH 49 50
BRANCH 49 54
ATOM     54  N   THR B   1      -4.536  18.101   7.774  1.00 34.33 LIG-0.06  N 
ATOM     55 H2   THR B   1      -5.208  17.929   8.332  1.00 34.33 LIG 0.28  HD
ATOM     56 H1   THR B   1      -4.677  17.681   7.001  1.00 34.33 LIG 0.28  HD
ATOM     57 H3   THR B   1      -4.489  18.978   7.630  1.00 34.33 LIG 0.28  HD
ENDBRANCH 49 54
ENDBRANCH 47 49
ENDBRANCH 44 45
BRANCH 44 58
ATOM     58  CB  ASN B   2      -2.960  19.512  12.699  1.00 33.77 LIG 0.14  C 
BRANCH 58 59
ATOM     59  CG  ASN B   2      -2.453  20.624  13.595  1.00 47.71 LIG 0.22  C 
ATOM     60 OD1  ASN B   2      -1.247  20.849  13.742  1.00 37.59 LIG-0.27  OA
ATOM     61  ND2 ASN B   2      -3.367  21.331  14.245  1.00 40.38 LIG-0.37  N 
ATOM     62 22HD ASN B   2      -4.202  21.162  14.130  1.00 40.38 LIG 0.16  HD
ATOM     63 21HD ASN B   2      -3.124  21.959  14.779  1.00 40.38 LIG 0.16  HD
ENDBRANCH 58 59
ENDBRANCH 44 58
ENDBRANCH 41 44
ENDBRANCH 35 40
ENDBRANCH 1 35
TORSDOF 26
