USER: ADFR SOLUTION from run 0
USER: SCORE 12.474634 LL:  -2.642 LR: -10.826 RR:   0.000 FEB:  -7.544
USER: RMSD 0.611070
USER: STATUS Locally minimized using BFGS
USER: GENES 13
USER: genes 0 Translation |==|  0.48679 0.51558 0.44324
USER: genes 1 Rotation |==|  0.50166 0.49234 0.50740 0.99988
USER: genes 2 Torsion [N]-C--CA-[N] |==|  0.42148
USER: genes 3 Torsion [C]-CA--CB-[CG1] |==|  0.83024
USER: genes 4 Torsion [CA]-CB--CG1-[CD1] |==|  0.48901
USER: genes 5 Torsion [C]-CA--N-[C] |==|  0.68133
USER: genes 6 Torsion [N]-C--CA-[N] |==|  0.46362
USER: genes 7 Torsion [C]-CA--N-[H1] |==|  0.50442
USER: genes 8 Torsion [C]-N--CA-[CB] |==|  0.46286
USER: genes 9 Torsion [N]-CA--C-[N] |==|  0.38134
USER: genes 10 Torsion [C]-N--CA-[CB] |==|  0.38644
USER: genes 11 Torsion [N]-CA--CB-[CG2] |==|  0.84543
USER: genes 12 Torsion [N]-CA--C-[O] |==|  0.83521
ROOT
ATOM      1  C   ILE B   2      27.979  34.943  11.206  1.00 15.80 LIG 0.24  C 
ATOM      2 O    ILE B   2      27.405  35.433  12.176  1.00 15.82 LIG-0.27  OA
ATOM      3  N   ALA B   3      28.353  33.670  11.151  1.00 15.83 LIG-0.35  N 
ATOM      4 H    ALA B   3      28.718  33.306  10.463  1.00 15.83 LIG 0.16  HD
ENDROOT
BRANCH 1 5
ATOM      5  CA  ILE B   2      28.357  35.770   9.992  1.00 17.33 LIG 0.18  C 
BRANCH 5 6
ATOM      6  CB  ILE B   2      29.822  36.235  10.067  1.00 21.75 LIG 0.01  C 
ATOM      7  CG2 ILE B   2      30.221  36.957   8.788  1.00 23.79 LIG 0.01  C 
BRANCH 6 8
ATOM      8  CG1 ILE B   2      30.052  37.101  11.272  1.00 23.11 LIG 0.00  C 
ATOM      9  CD1 ILE B   2      31.513  37.506  11.438  1.00 27.15 LIG 0.01  C 
ENDBRANCH 6 8
ENDBRANCH 5 6
BRANCH 5 10
ATOM     10  N   ILE B   2      27.407  36.861   9.810  1.00 15.33 LIG-0.35  N 
ATOM     11  C   ALA B   1      26.622  36.900   8.739  1.00 14.45 LIG 0.25  C 
ATOM     12 O    ALA B   1      26.667  36.102   7.813  1.00 16.00 LIG-0.27  OA
ATOM     13 H    ILE B   2      27.407  37.449  10.436  1.00 15.33 LIG 0.16  HD
BRANCH 11 14
ATOM     14  CA  ALA B   1      25.573  38.013   8.699  1.00 14.39 LIG 0.27  C 
ATOM     15  CB  ALA B   1      24.461  37.737   9.710  1.00 14.30 LIG 0.05  C 
BRANCH 14 16
ATOM     16  N   ALA B   1      25.034  38.084   7.329  1.00 15.51 LIG-0.07  N 
ATOM     17 H3   ALA B   1      24.641  37.313   7.124  1.00 15.51 LIG 0.28  HD
ATOM     18 H2   ALA B   1      25.696  38.240   6.757  1.00 15.51 LIG 0.28  HD
ATOM     19 H1   ALA B   1      24.437  38.743   7.279  1.00 15.51 LIG 0.28  HD
ENDBRANCH 14 16
ENDBRANCH 11 14
ENDBRANCH 5 10
ENDBRANCH 1 5
BRANCH 3 20
ATOM     20  CA  ALA B   3      28.164  32.763  12.292  1.00 17.37 LIG 0.17  C 
ATOM     21  CB  ALA B   3      28.361  31.309  11.882  1.00 18.86 LIG 0.04  C 
BRANCH 20 22
ATOM     22  C   ALA B   3      29.118  33.101  13.376  1.00 19.46 LIG 0.24  C 
ATOM     23  N   VAL B   4      28.641  33.099  14.607  1.00 19.29 LIG-0.34  N 
ATOM     24 H    VAL B   4      27.822  32.915  14.794  1.00 19.29 LIG 0.16  HD
ATOM     25 O    ALA B   3      30.292  33.359  13.113  1.00 22.03 LIG-0.27  OA
BRANCH 23 26
ATOM     26  CA  VAL B   4      29.459  33.410  15.781  1.00 21.21 LIG 0.19  C 
BRANCH 26 27
ATOM     27  CB  VAL B   4      28.678  34.286  16.778  1.00 21.09 LIG 0.01  C 
ATOM     28  CG2 VAL B   4      28.176  35.549  16.079  1.00 23.07 LIG 0.01  C 
ATOM     29  CG1 VAL B   4      29.508  34.642  18.008  1.00 23.35 LIG 0.01  C 
ENDBRANCH 26 27
BRANCH 26 30
ATOM     30  C   VAL B   4      29.875  32.093  16.414  1.00 22.92 LIG 0.20  C 
ATOM     31 O    VAL B   4      29.025  31.292  16.811  1.00 22.82 LIG-0.65  OA
ATOM     32 OXT  VAL B   4      31.084  31.778  16.492  1.00 22.76 LIG-0.65  OA
ENDBRANCH 26 30
ENDBRANCH 23 26
ENDBRANCH 20 22
ENDBRANCH 3 20
TORSDOF 11
