USER: ADFR SOLUTION from run 0
USER: SCORE 8.903432 LL:  -2.006 LR:  -9.756 RR:   0.000 FEB:  -6.773
USER: RMSD 0.345601
USER: STATUS Locally minimized using BFGS
USER: GENES 12
USER: genes 0 Translation |==|  0.56204 0.55600 0.39126
USER: genes 1 Rotation |==|  0.49815 0.48647 0.49366 0.99977
USER: genes 2 Torsion [CB]-CA--N-[C] |==|  0.34231
USER: genes 3 Torsion [N]-C--CA-[N] |==|  0.46784
USER: genes 4 Torsion [C]-CA--N-[H3] |==|  0.15310
USER: genes 5 Torsion [N]-CA--CB-[CG2] |==|  0.86251
USER: genes 6 Torsion [CA]-CB--OG1-[HG1] |==|  0.49978
USER: genes 7 Torsion [N]-CA--C-[N] |==|  0.40329
USER: genes 8 Torsion [C]-N--CA-[CB] |==|  0.45394
USER: genes 9 Torsion [N]-CA--C-[N] |==|  0.35204
USER: genes 10 Torsion [C]-N--CA-[CB] |==|  0.36439
USER: genes 11 Torsion [N]-CA--C-[O] |==|  0.00502
ROOT
ATOM      1  CA  THR B   2      28.422  35.702   9.930  1.00 29.13 LIG 0.20  C 
ENDROOT
BRANCH 1 2
ATOM      2  N   THR B   2      27.448  36.736   9.582  1.00 25.25 LIG-0.34  N 
ATOM      3 H    THR B   2      27.358  37.338  10.191  1.00 25.25 LIG 0.16  HD
ATOM      4  C   ALA B   1      26.771  36.755   8.455  1.00 22.96 LIG 0.25  C 
ATOM      5 O    ALA B   1      26.812  35.912   7.560  1.00 26.59 LIG-0.27  OA
BRANCH 4 6
ATOM      6  CA  ALA B   1      25.745  37.896   8.401  1.00 23.15 LIG 0.27  C 
ATOM      7  CB  ALA B   1      24.556  37.590   9.360  1.00 22.78 LIG 0.05  C 
BRANCH 6 8
ATOM      8  N   ALA B   1      25.265  37.988   7.027  1.00 25.73 LIG-0.07  N 
ATOM      9 H3   ALA B   1      24.950  37.197   6.769  1.00 25.73 LIG 0.28  HD
ATOM     10 H1   ALA B   1      24.616  38.595   6.980  1.00 25.73 LIG 0.28  HD
ATOM     11 H2   ALA B   1      25.935  38.228   6.493  1.00 25.73 LIG 0.28  HD
ENDBRANCH 6 8
ENDBRANCH 4 6
ENDBRANCH 1 2
BRANCH 1 12
ATOM     12  CB  THR B   2      29.810  36.307  10.239  1.00 34.37 LIG 0.15  C 
ATOM     13  CG2 THR B   2      30.184  37.236   9.150  1.00 33.94 LIG 0.04  C 
BRANCH 12 14
ATOM     14 OG1  THR B   2      29.792  37.045  11.465  1.00 38.98 LIG-0.39  OA
ATOM     15 HG1  THR B   2      30.555  37.363  11.613  1.00 38.98 LIG 0.21  HD
ENDBRANCH 12 14
ENDBRANCH 1 12
BRANCH 1 16
ATOM     16  C   THR B   2      27.958  34.837  11.123  1.00 26.58 LIG 0.24  C 
ATOM     17  N   ALA B   3      28.313  33.542  11.075  1.00 27.81 LIG-0.35  N 
ATOM     18 H    ALA B   3      28.756  33.183  10.432  1.00 27.81 LIG 0.16  HD
ATOM     19 O    THR B   2      27.393  35.355  12.104  1.00 25.13 LIG-0.27  OA
BRANCH 17 20
ATOM     20  CA  ALA B   3      27.949  32.620  12.167  1.00 29.92 LIG 0.17  C 
ATOM     21  CB  ALA B   3      28.082  31.172  11.735  1.00 32.19 LIG 0.04  C 
BRANCH 20 22
ATOM     22  C   ALA B   3      28.901  32.913  13.278  1.00 36.50 LIG 0.24  C 
ATOM     23 O    ALA B   3      30.104  32.911  13.075  1.00 40.07 LIG-0.27  OA
ATOM     24  N   ALA B   4      28.358  33.175  14.454  1.00 42.66 LIG-0.34  N 
ATOM     25 H    ALA B   4      27.538  32.997  14.642  1.00 42.66 LIG 0.16  HD
BRANCH 24 26
ATOM     26  CA  ALA B   4      29.083  33.790  15.556  1.00 45.67 LIG 0.18  C 
ATOM     27  CB  ALA B   4      28.274  34.942  16.127  1.00 44.89 LIG 0.04  C 
BRANCH 26 28
ATOM     28  C   ALA B   4      29.329  32.737  16.617  1.00 51.09 LIG 0.20  C 
ATOM     29 O    ALA B   4      28.960  31.558  16.450  1.00 48.34 LIG-0.65  OA
ATOM     30 OXT  ALA B   4      29.901  33.075  17.658  1.00 61.57 LIG-0.65  OA
ENDBRANCH 26 28
ENDBRANCH 24 26
ENDBRANCH 20 22
ENDBRANCH 17 20
ENDBRANCH 1 16
TORSDOF 10
