USER: ADFR SOLUTION from run 0
USER: SCORE 14.514530 LL:  -2.657 LR: -11.994 RR:   0.000 FEB:  -9.011
USER: RMSD 0.322358
USER: STATUS Locally minimized using BFGS
USER: GENES 12
USER: genes 0 Translation |==|  0.51032 0.56281 0.45940
USER: genes 1 Rotation |==|  0.50899 0.48699 0.50423 0.99973
USER: genes 2 Torsion [N]-CA--C-[O] |==|  0.91181
USER: genes 3 Torsion [C]-N--CA-[CB] |==|  0.31564
USER: genes 4 Torsion [N]-CA--C-[O] |==|  0.87554
USER: genes 5 Torsion [N]-CA--CB-[CG2] |==|  0.49805
USER: genes 6 Torsion [CA]-CB--CG1-[CD1] |==|  0.51960
USER: genes 7 Torsion [N]-C--CA-[N] |==|  0.35599
USER: genes 8 Torsion [C]-CA--CB-[CG2] |==|  0.48665
USER: genes 9 Torsion [C]-CA--N-[C] |==|  0.71263
USER: genes 10 Torsion [N]-C--CA-[N] |==|  0.47780
USER: genes 11 Torsion [C]-CA--N-[H3] |==|  0.15541
ROOT
ATOM      1  C   VAL B   2      27.792  34.883  11.120  1.00 20.42 LIG 0.24  C 
ATOM      2 O    VAL B   2      27.264  35.258  12.170  1.00 19.98 LIG-0.27  OA
ATOM      3  N   PRO B   3      28.009  33.576  10.849  1.00 20.62 LIG-0.34  N 
ATOM      4  CA  PRO B   3      27.527  32.549  11.781  1.00 20.39 LIG 0.18  C 
ATOM      5  CB  PRO B   3      27.200  31.394  10.829  1.00 21.35 LIG 0.04  C 
ATOM      6  CG  PRO B   3      28.176  31.510   9.701  1.00 22.27 LIG 0.02  C 
ATOM      7  CD  PRO B   3      28.368  33.010   9.523  1.00 22.13 LIG 0.13  C 
ENDROOT
BRANCH 4 8
ATOM      8  C   PRO B   3      28.533  32.160  12.866  1.00 20.13 LIG 0.24  C 
ATOM      9  N   ILE B   4      28.081  31.877  14.064  1.00 20.03 LIG-0.34  N 
ATOM     10 H    ILE B   4      27.270  32.042  14.300  1.00 20.03 LIG 0.16  HD
ATOM     11 O    PRO B   3      29.760  32.188  12.646  1.00 24.31 LIG-0.27  OA
BRANCH 9 12
ATOM     12  CA  ILE B   4      28.877  31.256  15.141  1.00 20.48 LIG 0.19  C 
BRANCH 12 13
ATOM     13  C   ILE B   4      28.219  29.981  15.661  1.00 21.21 LIG 0.20  C 
ATOM     14 O    ILE B   4      27.013  29.999  15.877  1.00 18.53 LIG-0.65  OA
ATOM     15 OXT  ILE B   4      28.856  28.909  15.942  1.00 22.21 LIG-0.65  OA
ENDBRANCH 12 13
BRANCH 12 16
ATOM     16  CB  ILE B   4      29.090  32.221  16.318  1.00 24.00 LIG 0.01  C 
ATOM     17  CG2 ILE B   4      29.894  31.600  17.451  1.00 26.11 LIG 0.01  C 
BRANCH 16 18
ATOM     18  CG1 ILE B   4      29.748  33.509  15.856  1.00 29.43 LIG 0.00  C 
ATOM     19  CD1 ILE B   4      30.112  34.382  17.029  1.00 33.97 LIG 0.01  C 
ENDBRANCH 16 18
ENDBRANCH 12 16
ENDBRANCH 9 12
ENDBRANCH 4 8
BRANCH 1 20
ATOM     20  CA  VAL B   2      28.330  35.898  10.091  1.00 21.93 LIG 0.18  C 
BRANCH 20 21
ATOM     21  CB  VAL B   2      29.504  36.684  10.717  1.00 24.26 LIG 0.01  C 
ATOM     22  CG2 VAL B   2      30.111  37.606   9.643  1.00 26.21 LIG 0.01  C 
ATOM     23  CG1 VAL B   2      30.534  35.767  11.373  1.00 24.62 LIG 0.01  C 
ENDBRANCH 20 21
BRANCH 20 24
ATOM     24  N   VAL B   2      27.275  36.813   9.697  1.00 19.39 LIG-0.35  N 
ATOM     25  C   ALA B   1      26.597  36.788   8.568  1.00 18.41 LIG 0.25  C 
ATOM     26 O    ALA B   1      26.640  35.910   7.683  1.00 21.55 LIG-0.27  OA
ATOM     27 H    VAL B   2      27.122  37.408  10.299  1.00 19.39 LIG 0.16  HD
BRANCH 25 28
ATOM     28  CA  ALA B   1      25.567  37.901   8.426  1.00 19.20 LIG 0.27  C 
ATOM     29  CB  ALA B   1      24.473  37.718   9.519  1.00 19.41 LIG 0.05  C 
BRANCH 28 30
ATOM     30  N   ALA B   1      24.987  37.924   7.076  1.00 20.83 LIG-0.07  N 
ATOM     31 H1   ALA B   1      24.348  38.543   7.037  1.00 20.83 LIG 0.28  HD
ATOM     32 H3   ALA B   1      24.638  37.127   6.889  1.00 20.83 LIG 0.28  HD
ATOM     33 H2   ALA B   1      25.622  38.116   6.483  1.00 20.83 LIG 0.28  HD
ENDBRANCH 28 30
ENDBRANCH 25 28
ENDBRANCH 20 24
ENDBRANCH 1 20
TORSDOF 10
