USER: ADFR SOLUTION from run 0
USER: SCORE 19.304162 LL:  -3.077 LR: -16.327 RR:   0.000 FEB: -10.361
USER: RMSD 0.544740
USER: STATUS Locally minimized using BFGS
USER: GENES 22
USER: genes 0 Translation |==|  0.44253 0.58774 0.60358
USER: genes 1 Rotation |==|  0.49514 0.52012 0.49960 0.99957
USER: genes 2 Torsion [C]-CA--N-[C] |==|  0.15556
USER: genes 3 Torsion [N]-C--CA-[N] |==|  0.39758
USER: genes 4 Torsion [N]-C--CA-[N] |==|  0.38535
USER: genes 5 Torsion [C]-CA--N-[H2] |==|  0.73001
USER: genes 6 Torsion [C]-CA--CB-[CG] |==|  0.16976
USER: genes 7 Torsion [CA]-CB--CG-[CD] |==|  0.53157
USER: genes 8 Torsion [CB]-CG--CD-[CE] |==|  0.76947
USER: genes 9 Torsion [CG]-CD--CE-[NZ] |==|  0.75277
USER: genes 10 Torsion [CD]-CE--NZ-[HZ1] |==|  0.57420
USER: genes 11 Torsion [N]-CA--CB-[CG] |==|  0.83861
USER: genes 12 Torsion [CA]-CB--CG-[CD2] |==|  0.73796
USER: genes 13 Torsion [N]-CA--C-[N] |==|  0.12411
USER: genes 14 Torsion [C]-N--CA-[C] |==|  0.80322
USER: genes 15 Torsion [N]-CA--CB-[OG] |==|  0.11894
USER: genes 16 Torsion [CA]-CB--OG-[HG] |==|  0.80145
USER: genes 17 Torsion [N]-CA--C-[N] |==|  0.91834
USER: genes 18 Torsion [C]-N--CA-[CB] |==|  0.47489
USER: genes 19 Torsion [N]-CA--CB-[CG] |==|  0.71780
USER: genes 20 Torsion [CA]-CB--CG-[OD2] |==|  0.43795
USER: genes 21 Torsion [N]-CA--C-[O] |==|  0.47641
ROOT
ATOM      1  CA  HIS C   3    -134.868  50.351  65.630  1.00 14.15 LIG 0.18  C 
ENDROOT
BRANCH 1 2
ATOM      2  N   HIS C   3    -135.789  49.234  65.645  1.00 14.43 LIG-0.35  N 
ATOM      3  C   PRO C   2    -135.418  48.026  66.047  1.00 20.79 LIG 0.24  C 
ATOM      4 O    PRO C   2    -134.270  47.750  66.377  1.00 15.59 LIG-0.27  OA
ATOM      5 H    HIS C   3    -136.582  49.426  65.373  1.00 14.43 LIG 0.16  HD
BRANCH 3 6
ATOM      6  CA  PRO C   2    -136.505  46.956  66.091  1.00 18.69 LIG 0.18  C 
ATOM      7  N   PRO C   2    -135.982  45.650  65.687  1.00 22.33 LIG-0.34  N 
ATOM      8  C   LYS C   1    -135.496  45.467  64.466  1.00 22.74 LIG 0.25  C 
ATOM      9  CD  PRO C   2    -136.243  44.614  66.701  1.00 22.53 LIG 0.13  C 
ATOM     10 O    LYS C   1    -135.492  46.352  63.614  1.00 19.84 LIG-0.27  OA
ATOM     11  CG  PRO C   2    -137.240  45.268  67.609  1.00 25.33 LIG 0.02  C 
ATOM     12  CB  PRO C   2    -136.946  46.725  67.536  1.00 21.74 LIG 0.04  C 
BRANCH 8 13
ATOM     13  CA  LYS C   1    -134.881  44.104  64.158  1.00 25.81 LIG 0.28  C 
BRANCH 13 14
ATOM     14  N   LYS C   1    -135.272  43.665  62.822  1.00 28.38 LIG-0.07  N 
ATOM     15 H3   LYS C   1    -135.498  44.372  62.331  1.00 28.38 LIG 0.28  HD
ATOM     16 H2   LYS C   1    -135.968  43.112  62.883  1.00 28.38 LIG 0.28  HD
ATOM     17 H1   LYS C   1    -134.591  43.241  62.437  1.00 28.38 LIG 0.28  HD
ENDBRANCH 13 14
BRANCH 13 18
ATOM     18  CB  LYS C   1    -133.358  44.182  64.258  1.00 28.10 LIG 0.04  C 
BRANCH 18 19
ATOM     19  CG  LYS C   1    -132.839  44.567  65.629  1.00 29.36 LIG 0.00  C 
BRANCH 19 20
ATOM     20  CD  LYS C   1    -131.352  44.891  65.565  1.00 23.94 LIG 0.03  C 
BRANCH 20 21
ATOM     21  CE  LYS C   1    -130.495  43.641  65.634  1.00 22.49 LIG 0.23  C 
BRANCH 21 22
ATOM     22  NZ  LYS C   1    -130.196  43.320  67.049  1.00 23.53 LIG-0.08  N 
ATOM     23 HZ1  LYS C   1    -129.429  42.870  67.096  1.00 23.53 LIG 0.27  HD
ATOM     24 HZ2  LYS C   1    -130.127  44.074  67.516  1.00 23.53 LIG 0.27  HD
ATOM     25 HZ3  LYS C   1    -130.853  42.822  67.386  1.00 23.53 LIG 0.27  HD
ENDBRANCH 21 22
ENDBRANCH 20 21
ENDBRANCH 19 20
ENDBRANCH 18 19
ENDBRANCH 13 18
ENDBRANCH 8 13
ENDBRANCH 3 6
ENDBRANCH 1 2
BRANCH 1 26
ATOM     26  CB  HIS C   3    -134.496  50.745  67.053  1.00 14.42 LIG 0.10  C 
BRANCH 26 27
ATOM     27  CG  HIS C   3    -135.680  51.116  67.903  1.00 17.65 LIG 0.06  A 
ATOM     28 ND1  HIS C   3    -136.417  50.201  68.548  1.00 19.76 LIG-0.24  NA
ATOM     29  CE1 HIS C   3    -137.412  50.816  69.212  1.00 20.53 LIG 0.23  A 
ATOM     30 NE2  HIS C   3    -137.311  52.130  68.985  1.00 17.64 LIG-0.25  NA
ATOM     31  CD2 HIS C   3    -136.256  52.351  68.180  1.00 21.96 LIG 0.14  A 
ENDBRANCH 26 27
ENDBRANCH 1 26
BRANCH 1 32
ATOM     32  C   HIS C   3    -133.633  50.090  64.827  1.00 15.49 LIG 0.24  C 
ATOM     33  N   SER C   4    -133.808  49.516  63.642  1.00 15.13 LIG-0.34  N 
ATOM     34 H    SER C   4    -134.571  49.274  63.328  1.00 15.13 LIG 0.16  HD
ATOM     35 O    HIS C   3    -132.514  50.416  65.263  1.00 14.84 LIG-0.27  OA
BRANCH 33 36
ATOM     36  CA  SER C   4    -132.676  49.250  62.764  1.00 18.69 LIG 0.20  C 
BRANCH 36 37
ATOM     37  CB  SER C   4    -133.057  48.274  61.648  1.00 23.38 LIG 0.20  C 
BRANCH 37 38
ATOM     38 OG   SER C   4    -134.324  48.585  61.108  1.00 30.32 LIG-0.40  OA
ATOM     39 HG   SER C   4    -134.922  48.391  61.664  1.00 30.32 LIG 0.21  HD
ENDBRANCH 37 38
ENDBRANCH 36 37
BRANCH 36 40
ATOM     40  C   SER C   4    -132.107  50.542  62.181  1.00 18.90 LIG 0.24  C 
ATOM     41  N   ASP C   5    -132.959  51.548  62.014  1.00 17.72 LIG-0.34  N 
ATOM     42 H    ASP C   5    -133.802  51.499  62.174  1.00 17.72 LIG 0.16  HD
ATOM     43 O    SER C   4    -130.919  50.623  61.901  1.00 16.42 LIG-0.27  OA
BRANCH 41 44
ATOM     44  CA  ASP C   5    -132.505  52.849  61.533  1.00 16.40 LIG 0.20  C 
BRANCH 44 45
ATOM     45  CB  ASP C   5    -133.694  53.766  61.213  1.00 18.53 LIG 0.15  C 
BRANCH 45 46
ATOM     46  CG  ASP C   5    -133.991  53.853  59.725  1.00 25.22 LIG 0.17  C 
ATOM     47 OD2  ASP C   5    -135.141  54.197  59.381  1.00 28.97 LIG-0.65  OA
ATOM     48 OD1  ASP C   5    -133.085  53.597  58.905  1.00 27.70 LIG-0.65  OA
ENDBRANCH 45 46
ENDBRANCH 44 45
BRANCH 44 49
ATOM     49  C   ASP C   5    -131.608  53.533  62.552  1.00 17.83 LIG 0.20  C 
ATOM     50 O    ASP C   5    -131.000  54.573  62.262  1.00 18.34 LIG-0.65  OA
ATOM     51 OXT  ASP C   5    -131.475  53.075  63.698  1.00 17.06 LIG-0.65  OA
ENDBRANCH 44 49
ENDBRANCH 41 44
ENDBRANCH 36 40
ENDBRANCH 33 36
ENDBRANCH 1 32
TORSDOF 20
