USER: ADFR SOLUTION from run 0
USER: SCORE 21.077424 LL:  -5.037 LR: -17.146 RR:   0.000 FEB:  -8.197
USER: RMSD 0.526047
USER: STATUS Locally minimized using BFGS
USER: GENES 32
USER: genes 0 Translation |==|  0.50979 0.52500 0.60947
USER: genes 1 Rotation |==|  0.49553 0.51170 0.50360 0.99983
USER: genes 2 Torsion [N]-C--CA-[N] |==|  0.48054
USER: genes 3 Torsion [C]-CA--N-[C] |==|  0.63856
USER: genes 4 Torsion [N]-C--CA-[N] |==|  0.43333
USER: genes 5 Torsion [C]-CA--N-[C] |==|  0.69361
USER: genes 6 Torsion [N]-C--CA-[N] |==|  0.85958
USER: genes 7 Torsion [C]-CA--N-[H1] |==|  0.50041
USER: genes 8 Torsion [C]-CA--CB-[CG] |==|  0.05523
USER: genes 9 Torsion [CA]-CB--CG-[CD1] |==|  0.34162
USER: genes 10 Torsion [C]-CA--CB-[CG] |==|  0.42952
USER: genes 11 Torsion [CA]-CB--CG-[CD] |==|  0.54963
USER: genes 12 Torsion [CB]-CG--CD-[CE] |==|  0.25056
USER: genes 13 Torsion [CG]-CD--CE-[NZ] |==|  0.11806
USER: genes 14 Torsion [CD]-CE--NZ-[HZ2] |==|  0.79561
USER: genes 15 Torsion [C]-CA--CB-[CG2] |==|  0.84672
USER: genes 16 Torsion [CA]-CB--OG1-[HG1] |==|  0.49819
USER: genes 17 Torsion [C]-N--CA-[CB] |==|  0.81101
USER: genes 18 Torsion [N]-CA--CB-[CG] |==|  0.82999
USER: genes 19 Torsion [CA]-CB--CG-[CD] |==|  0.83278
USER: genes 20 Torsion [CB]-CG--CD-[CE] |==|  0.48638
USER: genes 21 Torsion [CG]-CD--CE-[NZ] |==|  0.45030
USER: genes 22 Torsion [CD]-CE--NZ-[HZ3] |==|  0.15904
USER: genes 23 Torsion [N]-CA--C-[N] |==|  0.14007
USER: genes 24 Torsion [C]-N--CA-[C] |==|  0.74709
USER: genes 25 Torsion [N]-CA--CB-[CG] |==|  0.87475
USER: genes 26 Torsion [CA]-CB--CG-[CD1] |==|  0.46952
USER: genes 27 Torsion [N]-CA--C-[N] |==|  0.96884
USER: genes 28 Torsion [C]-N--CA-[CB] |==|  0.46686
USER: genes 29 Torsion [N]-CA--CB-[CG] |==|  0.78976
USER: genes 30 Torsion [CA]-CB--CG-[CD2] |==|  0.81299
USER: genes 31 Torsion [N]-CA--C-[O] |==|  0.44040
ROOT
ATOM      1  C   THR B   3     -31.184 -18.510   9.321  1.00 25.84 LIG 0.24  C 
ATOM      2 O    THR B   3     -30.357 -19.136   9.903  1.00 21.55 LIG-0.27  OA
ATOM      3  N   LYS B   4     -30.900 -17.436   8.612  1.00 22.14 LIG-0.35  N 
ATOM      4 H    LYS B   4     -31.491 -16.974   8.193  1.00 22.14 LIG 0.16  HD
ENDROOT
BRANCH 1 5
ATOM      5  CA  THR B   3     -32.650 -18.950   9.336  1.00 27.73 LIG 0.20  C 
BRANCH 5 6
ATOM      6  N   THR B   3     -32.784 -20.206  10.002  1.00 40.69 LIG-0.34  N 
ATOM      7  C   LYS B   2     -33.441 -21.177   9.451  1.00 44.89 LIG 0.24  C 
ATOM      8 O    LYS B   2     -34.018 -21.053   8.414  1.00 60.56 LIG-0.27  OA
ATOM      9 H    THR B   3     -32.402 -20.251  10.771  1.00 40.69 LIG 0.16  HD
BRANCH 7 10
ATOM     10  CA  LYS B   2     -33.421 -22.493  10.192  1.00 29.71 LIG 0.18  C 
BRANCH 10 11
ATOM     11  N   LYS B   2     -34.579 -23.257   9.814  1.00 39.55 LIG-0.35  N 
ATOM     12 H    LYS B   2     -34.566 -23.550   9.005  1.00 39.55 LIG 0.16  HD
ATOM     13  C   LEU B   1     -35.562 -23.472  10.663  1.00 48.29 LIG 0.25  C 
ATOM     14 O    LEU B   1     -35.391 -23.422  11.817  1.00 42.73 LIG-0.27  OA
BRANCH 13 15
ATOM     15  CA  LEU B   1     -36.973 -23.857  10.154  1.00 50.99 LIG 0.28  C 
BRANCH 15 16
ATOM     16  N   LEU B   1     -37.619 -23.058   9.110  1.00 47.15 LIG-0.07  N 
ATOM     17 H3   LEU B   1     -37.117 -23.068   8.375  1.00 47.15 LIG 0.28  HD
ATOM     18 H2   LEU B   1     -37.713 -22.219   9.393  1.00 47.15 LIG 0.28  HD
ATOM     19 H1   LEU B   1     -38.420 -23.400   8.927  1.00 47.15 LIG 0.28  HD
ENDBRANCH 15 16
BRANCH 15 20
ATOM     20  CB  LEU B   1     -36.974 -25.337   9.836  1.00 20.00 LIG 0.05  C 
BRANCH 20 21
ATOM     21  CG  LEU B   1     -35.874 -26.102  10.498  1.00 20.00 LIG-0.02  C 
ATOM     22  CD1 LEU B   1     -36.318 -27.262  11.375  1.00 20.00 LIG 0.01  C 
ATOM     23  CD2 LEU B   1     -34.788 -26.523   9.558  1.00 20.00 LIG 0.01  C 
ENDBRANCH 20 21
ENDBRANCH 15 20
ENDBRANCH 13 15
ENDBRANCH 10 11
BRANCH 10 24
ATOM     24  CB  LYS B   2     -32.101 -23.206   9.902  1.00 39.10 LIG 0.04  C 
BRANCH 24 25
ATOM     25  CG  LYS B   2     -31.723 -24.153  10.998  1.00 49.91 LIG 0.00  C 
BRANCH 25 26
ATOM     26  CD  LYS B   2     -30.284 -24.529  10.958  1.00 34.11 LIG 0.03  C 
BRANCH 26 27
ATOM     27  CE  LYS B   2     -29.442 -23.610  11.762  1.00 29.48 LIG 0.23  C 
BRANCH 27 28
ATOM     28  NZ  LYS B   2     -30.020 -23.256  13.041  1.00 22.12 LIG-0.08  N 
ATOM     29 HZ2  LYS B   2     -30.693 -22.687  12.916  1.00 22.12 LIG 0.27  HD
ATOM     30 HZ1  LYS B   2     -29.401 -22.874  13.552  1.00 22.12 LIG 0.27  HD
ATOM     31 HZ3  LYS B   2     -30.324 -23.990  13.443  1.00 22.12 LIG 0.27  HD
ENDBRANCH 27 28
ENDBRANCH 26 27
ENDBRANCH 25 26
ENDBRANCH 24 25
ENDBRANCH 10 24
ENDBRANCH 7 10
ENDBRANCH 5 6
BRANCH 5 32
ATOM     32  CB  THR B   3     -33.618 -17.929   9.954  1.00 28.72 LIG 0.15  C 
ATOM     33  CG2 THR B   3     -33.203 -17.577  11.280  1.00 25.30 LIG 0.04  C 
BRANCH 32 34
ATOM     34 OG1  THR B   3     -33.682 -16.767   9.142  1.00 33.89 LIG-0.39  OA
ATOM     35 HG1  THR B   3     -34.220 -16.217   9.480  1.00 33.89 LIG 0.21  HD
ENDBRANCH 32 34
ENDBRANCH 5 32
ENDBRANCH 1 5
BRANCH 3 36
ATOM     36  CA  LYS B   4     -29.555 -16.930   8.472  1.00 23.55 LIG 0.18  C 
BRANCH 36 37
ATOM     37  CB  LYS B   4     -29.043 -16.389   9.779  1.00 17.52 LIG 0.04  C 
BRANCH 37 38
ATOM     38  CG  LYS B   4     -29.813 -15.241  10.361  1.00 21.24 LIG 0.00  C 
BRANCH 38 39
ATOM     39  CD  LYS B   4     -29.840 -14.035   9.449  1.00 20.05 LIG 0.03  C 
BRANCH 39 40
ATOM     40  CE  LYS B   4     -30.726 -12.939  10.018  1.00 29.11 LIG 0.23  C 
BRANCH 40 41
ATOM     41  NZ  LYS B   4     -30.449 -11.635   9.400  1.00 27.01 LIG-0.08  N 
ATOM     42 HZ3  LYS B   4     -30.557 -11.696   8.518  1.00 27.01 LIG 0.27  HD
ATOM     43 HZ1  LYS B   4     -31.011 -11.027   9.726  1.00 27.01 LIG 0.27  HD
ATOM     44 HZ2  LYS B   4     -29.612 -11.393   9.580  1.00 27.01 LIG 0.27  HD
ENDBRANCH 40 41
ENDBRANCH 39 40
ENDBRANCH 38 39
ENDBRANCH 37 38
ENDBRANCH 36 37
BRANCH 36 45
ATOM     45  C   LYS B   4     -28.584 -18.013   7.958  1.00 22.27 LIG 0.24  C 
ATOM     46  N   LEU B   5     -28.964 -18.669   6.891  1.00 20.84 LIG-0.35  N 
ATOM     47 H    LEU B   5     -29.712 -18.544   6.485  1.00 20.84 LIG 0.16  HD
ATOM     48 O    LYS B   4     -27.558 -18.238   8.520  1.00 21.40 LIG-0.27  OA
BRANCH 46 49
ATOM     49  CA  LEU B   5     -28.130 -19.671   6.313  1.00 17.17 LIG 0.18  C 
BRANCH 49 50
ATOM     50  CB  LEU B   5     -28.959 -20.752   5.693  1.00 24.05 LIG 0.04  C 
BRANCH 50 51
ATOM     51  CG  LEU B   5     -30.092 -21.215   6.537  1.00 29.68 LIG-0.02  C 
ATOM     52  CD1 LEU B   5     -30.925 -22.069   5.643  1.00 40.26 LIG 0.01  C 
ATOM     53  CD2 LEU B   5     -29.614 -21.932   7.745  1.00 27.30 LIG 0.01  C 
ENDBRANCH 50 51
ENDBRANCH 49 50
BRANCH 49 54
ATOM     54  C   LEU B   5     -27.203 -19.160   5.258  1.00 24.14 LIG 0.24  C 
ATOM     55  N   LEU B   6     -27.376 -17.943   4.802  1.00 19.58 LIG-0.34  N 
ATOM     56 H    LEU B   6     -28.004 -17.405   5.039  1.00 19.58 LIG 0.16  HD
ATOM     57 O    LEU B   5     -26.367 -19.867   4.836  1.00 22.75 LIG-0.27  OA
BRANCH 55 58
ATOM     58  CA  LEU B   6     -26.455 -17.440   3.823  1.00 30.46 LIG 0.18  C 
BRANCH 58 59
ATOM     59  CB  LEU B   6     -26.938 -16.135   3.168  1.00 23.52 LIG 0.04  C 
BRANCH 59 60
ATOM     60  CG  LEU B   6     -28.032 -16.218   2.137  1.00 29.01 LIG-0.02  C 
ATOM     61  CD2 LEU B   6     -27.607 -16.914   0.876  1.00 23.42 LIG 0.01  C 
ATOM     62  CD1 LEU B   6     -28.516 -14.849   1.778  1.00 27.14 LIG 0.01  C 
ENDBRANCH 59 60
ENDBRANCH 58 59
BRANCH 58 63
ATOM     63  C   LEU B   6     -25.048 -17.279   4.395  1.00 34.06 LIG 0.20  C 
ATOM     64 O    LEU B   6     -24.138 -17.253   3.620  1.00 28.47 LIG-0.65  OA
ATOM     65 OXT  LEU B   6     -24.925 -17.220   5.517  1.00 31.04 LIG-0.65  OA
ENDBRANCH 58 63
ENDBRANCH 55 58
ENDBRANCH 49 54
ENDBRANCH 46 49
ENDBRANCH 36 45
ENDBRANCH 3 36
TORSDOF 30
