USER: ADFR SOLUTION from run 0
USER: SCORE 8.089823 LL:  -1.246 LR:  -8.175 RR:   0.000 FEB:  -4.297
USER: RMSD 0.770312
USER: STATUS Locally minimized using BFGS
USER: GENES 15
USER: genes 0 Translation |==|  0.48238 0.52051 0.58331
USER: genes 1 Rotation |==|  0.48349 0.48796 0.51395 0.99939
USER: genes 2 Torsion [C]-N--CA-[CB] |==|  0.46707
USER: genes 3 Torsion [N]-CA--C-[N] |==|  0.50165
USER: genes 4 Torsion [C]-N--CA-[C] |==|  0.85034
USER: genes 5 Torsion [N]-CA--C-[O] |==|  0.39248
USER: genes 6 Torsion [N]-CA--CB-[OG] |==|  0.11690
USER: genes 7 Torsion [CA]-CB--OG-[HG] |==|  0.79107
USER: genes 8 Torsion [N]-CA--CB-[CG2] |==|  0.77904
USER: genes 9 Torsion [CA]-CB--OG1-[HG1] |==|  0.49837
USER: genes 10 Torsion [N]-C--CA-[N] |==|  0.50000
USER: genes 11 Torsion [C]-CA--CB-[OG] |==|  0.82907
USER: genes 12 Torsion [CA]-CB--OG-[HG] |==|  0.77639
USER: genes 13 Torsion [C]-CA--N-[C] |==|  0.56339
USER: genes 14 Torsion [N]-C--CA-[N] |==|  0.43640
ROOT
ATOM      1  C   SER B  13      35.487 -12.085  -9.851  1.00 23.09 LIG 0.24  C 
ATOM      2 O    SER B  13      34.702 -12.068 -10.799  1.00 20.43 LIG-0.27  OA
ATOM      3  N   THR B  14      36.690 -11.521  -9.898  1.00 21.89 LIG-0.34  N 
ATOM      4 H    THR B  14      37.240 -11.501  -9.237  1.00 21.89 LIG 0.16  HD
ENDROOT
BRANCH 3 5
ATOM      5  CA  THR B  14      37.177 -10.877 -11.113  1.00 22.97 LIG 0.20  C 
BRANCH 5 6
ATOM      6  C   THR B  14      37.528 -12.009 -12.070  1.00 23.95 LIG 0.24  C 
ATOM      7  N   SER B  15      38.012 -11.669 -13.260  1.00 23.79 LIG-0.34  N 
ATOM      8 H    SER B  15      38.139 -10.859 -13.520  1.00 23.79 LIG 0.16  HD
ATOM      9 O    THR B  14      37.361 -13.182 -11.728  1.00 24.21 LIG-0.27  OA
BRANCH 7 10
ATOM     10  CA  SER B  15      38.371 -12.690 -14.238  1.00 24.78 LIG 0.19  C 
BRANCH 10 11
ATOM     11  C   SER B  15      39.339 -13.700 -13.638  1.00 26.56 LIG 0.22  C 
ATOM     12 O    SER B  15      39.166 -14.892 -13.970  1.00 28.00 LIG-0.29  OA
ENDBRANCH 10 11
BRANCH 10 13
ATOM     13  CB  SER B  15      39.006 -12.051 -15.476  1.00 23.87 LIG 0.20  C 
BRANCH 13 14
ATOM     14 OG   SER B  15      39.912 -11.025 -15.112  1.00 25.06 LIG-0.40  OA
ATOM     15 HG   SER B  15      39.484 -10.344 -14.872  1.00 25.06 LIG 0.21  HD
ENDBRANCH 13 14
ENDBRANCH 10 13
ENDBRANCH 7 10
ENDBRANCH 5 6
BRANCH 5 16
ATOM     16  CB  THR B  14      38.447 -10.052 -10.851  1.00 24.21 LIG 0.15  C 
ATOM     17  CG2 THR B  14      38.097  -8.708 -10.231  1.00 24.44 LIG 0.04  C 
BRANCH 16 18
ATOM     18 OG1  THR B  14      39.308 -10.777  -9.964  1.00 24.18 LIG-0.39  OA
ATOM     19 HG1  THR B  14      40.006 -10.331  -9.826  1.00 24.18 LIG 0.21  HD
ENDBRANCH 16 18
ENDBRANCH 5 16
ENDBRANCH 3 5
BRANCH 1 20
ATOM     20  CA  SER B  13      35.111 -12.765  -8.540  1.00 24.49 LIG 0.20  C 
BRANCH 20 21
ATOM     21  CB  SER B  13      36.135 -13.866  -8.249  1.00 26.86 LIG 0.20  C 
BRANCH 21 22
ATOM     22 OG   SER B  13      36.121 -14.851  -9.275  1.00 27.16 LIG-0.40  OA
ATOM     23 HG   SER B  13      35.482 -15.380  -9.146  1.00 27.16 LIG 0.21  HD
ENDBRANCH 21 22
ENDBRANCH 20 21
BRANCH 20 24
ATOM     24  N   SER B  13      33.771 -13.335  -8.638  1.00 26.25 LIG-0.34  N 
ATOM     25 H    SER B  13      33.512 -13.494  -9.443  1.00 26.25 LIG 0.16  HD
ATOM     26  C   ALA B  12      33.033 -13.578  -7.559  1.00 27.91 LIG 0.26  C 
ATOM     27 O    ALA B  12      33.416 -13.341  -6.414  1.00 29.06 LIG-0.27  OA
BRANCH 26 28
ATOM     28  CA  ALA B  12      31.653 -14.178  -7.802  1.00 28.19 LIG 0.40  C 
ATOM     29  N   ALA B  12      31.186 -14.890  -6.577  1.00 28.78 LIG 0.61  N 
ATOM     30  CB  ALA B  12      30.662 -13.080  -8.181  1.00 26.50 LIG 0.06  C 
ENDBRANCH 26 28
ENDBRANCH 20 24
ENDBRANCH 1 20
TORSDOF 13
