USER: ADFR SOLUTION from run 0
USER: SCORE 12.521505 LL:  -3.109 LR: -11.430 RR:   0.000 FEB:  -6.358
USER: RMSD 0.707843
USER: STATUS Locally minimized using BFGS
USER: GENES 19
USER: genes 0 Translation |==|  0.50992 0.55732 0.46476
USER: genes 1 Rotation |==|  0.52708 0.51558 0.50886 0.99894
USER: genes 2 Torsion [C]-CA--CB-[OG] |==|  0.50015
USER: genes 3 Torsion [CA]-CB--OG-[HG] |==|  0.20971
USER: genes 4 Torsion [N]-CA--C-[N] |==|  0.46474
USER: genes 5 Torsion [C]-N--CA-[C] |==|  0.65008
USER: genes 6 Torsion [N]-CA--C-[N] |==|  0.36996
USER: genes 7 Torsion [C]-N--CA-[C] |==|  0.68873
USER: genes 8 Torsion [N]-CA--CB-[CG2] |==|  0.80086
USER: genes 9 Torsion [CA]-CB--CG1-[CD1] |==|  0.48690
USER: genes 10 Torsion [N]-CA--C-[O] |==|  0.94697
USER: genes 11 Torsion [N]-CA--CB-[CG2] |==|  0.45989
USER: genes 12 Torsion [CA]-CB--CG1-[CD1] |==|  0.51801
USER: genes 13 Torsion [CB]-CA--N-[C] |==|  0.34072
USER: genes 14 Torsion [N]-C--CA-[N] |==|  0.36587
USER: genes 15 Torsion [C]-CA--N-[C] |==|  0.66335
USER: genes 16 Torsion [N]-C--CA-[N] |==|  0.39405
USER: genes 17 Torsion [C]-CA--CB-[OG1] |==|  0.54251
USER: genes 18 Torsion [CA]-CB--OG1-[HG1] |==|  0.66275
ROOT
ATOM      1  CA  SER D   8      14.504  25.961  45.137  1.00  5.81 LIG 0.20  C 
ENDROOT
BRANCH 1 2
ATOM      2  CB  SER D   8      13.685  26.896  44.245  1.00  5.44 LIG 0.20  C 
BRANCH 2 3
ATOM      3 OG   SER D   8      14.437  28.045  43.916  1.00  4.91 LIG-0.40  OA
ATOM      4 HG   SER D   8      15.011  27.848  43.335  1.00  4.91 LIG 0.21  HD
ENDBRANCH 2 3
ENDBRANCH 1 2
BRANCH 1 5
ATOM      5  C   SER D   8      13.682  24.742  45.473  1.00  6.04 LIG 0.24  C 
ATOM      6  N   ILE D   9      12.676  24.938  46.311  1.00  5.23 LIG-0.35  N 
ATOM      7 H    ILE D   9      12.539  25.675  46.734  1.00  5.23 LIG 0.16  HD
ATOM      8 O    SER D   8      13.959  23.644  44.995  1.00  7.88 LIG-0.27  OA
BRANCH 6 9
ATOM      9  CA  ILE D   9      11.705  23.896  46.588  1.00  5.91 LIG 0.18  C 
BRANCH 9 10
ATOM     10  C   ILE D   9      10.312  24.450  46.328  1.00  8.30 LIG 0.24  C 
ATOM     11  N   ILE D  10       9.507  23.674  45.613  1.00  7.14 LIG-0.34  N 
ATOM     12 H    ILE D  10       9.726  22.894  45.322  1.00  7.14 LIG 0.16  HD
ATOM     13 O    ILE D   9       9.985  25.568  46.742  1.00  8.28 LIG-0.27  OA
BRANCH 11 14
ATOM     14  CA  ILE D  10       8.156  24.092  45.253  1.00  6.72 LIG 0.19  C 
BRANCH 14 15
ATOM     15  CB  ILE D  10       7.918  23.991  43.739  1.00  6.99 LIG 0.01  C 
ATOM     16  CG2 ILE D  10       8.694  25.083  43.013  1.00  9.23 LIG 0.01  C 
BRANCH 15 17
ATOM     17  CG1 ILE D  10       8.360  22.622  43.218  1.00  6.78 LIG 0.00  C 
ATOM     18  CD1 ILE D  10       8.053  22.400  41.746  1.00  7.71 LIG 0.01  C 
ENDBRANCH 15 17
ENDBRANCH 14 15
BRANCH 14 19
ATOM     19  C   ILE D  10       7.144  23.233  45.980  1.00  8.00 LIG 0.20  C 
ATOM     20 O    ILE D  10       7.494  22.144  46.445  1.00  7.10 LIG-0.65  OA
ATOM     21 OXT  ILE D  10       5.988  23.622  46.120  1.00 10.02 LIG-0.65  OA
ENDBRANCH 14 19
ENDBRANCH 11 14
ENDBRANCH 9 10
BRANCH 9 22
ATOM     22  CB  ILE D   9      11.849  23.370  48.031  1.00  4.97 LIG 0.01  C 
ATOM     23  CG2 ILE D   9      10.619  22.547  48.429  1.00  9.61 LIG 0.01  C 
BRANCH 22 24
ATOM     24  CG1 ILE D   9      13.131  22.550  48.136  1.00  5.60 LIG 0.00  C 
ATOM     25  CD1 ILE D   9      13.317  21.839  49.474  1.00  8.38 LIG 0.01  C 
ENDBRANCH 22 24
ENDBRANCH 9 22
ENDBRANCH 6 9
ENDBRANCH 1 5
BRANCH 1 26
ATOM     26  N   SER D   8      15.722  25.537  44.467  1.00  6.06 LIG-0.34  N 
ATOM     27 H    SER D   8      15.594  25.144  43.713  1.00  6.06 LIG 0.16  HD
ATOM     28  C   THR D   7      16.919  25.753  44.997  1.00 11.81 LIG 0.24  C 
ATOM     29 O    THR D   7      17.097  26.440  46.012  1.00 11.44 LIG-0.27  OA
BRANCH 28 30
ATOM     30  CA  THR D   7      18.090  25.114  44.280  1.00  8.59 LIG 0.20  C 
BRANCH 30 31
ATOM     31  N   THR D   7      19.149  26.095  44.085  1.00 15.26 LIG-0.34  N 
ATOM     32 H    THR D   7      19.448  26.444  44.812  1.00 15.26 LIG 0.16  HD
ATOM     33  C   PRO D   6      19.595  26.405  42.874  1.00 19.06 LIG 0.25  C 
ATOM     34 O    PRO D   6      19.134  25.920  41.847  1.00 17.22 LIG-0.27  OA
BRANCH 33 35
ATOM     35  CA  PRO D   6      20.736  27.418  42.809  1.00 33.07 LIG 0.35  C 
ATOM     36  N   PRO D   6      21.720  27.097  41.767  1.00 36.75 LIG 0.32  N 
ATOM     37  CD  PRO D   6      21.957  28.238  40.870  1.00 36.34 LIG 0.32  C 
ATOM     38  CG  PRO D   6      20.683  29.003  40.981  1.00 37.69 LIG 0.04  C 
ATOM     39  CB  PRO D   6      20.208  28.797  42.389  1.00 35.30 LIG 0.05  C 
ENDBRANCH 33 35
ENDBRANCH 30 31
BRANCH 30 40
ATOM     40  CB  THR D   7      18.584  23.926  45.124  1.00 10.85 LIG 0.15  C 
ATOM     41  CG2 THR D   7      17.634  22.751  44.998  1.00 12.17 LIG 0.04  C 
BRANCH 40 42
ATOM     42 OG1  THR D   7      19.883  23.530  44.670  1.00 14.88 LIG-0.39  OA
ATOM     43 HG1  THR D   7      19.862  22.725  44.429  1.00 14.88 LIG 0.21  HD
ENDBRANCH 40 42
ENDBRANCH 30 40
ENDBRANCH 28 30
ENDBRANCH 1 26
TORSDOF 17
