USER: ADFR SOLUTION from run 0
USER: SCORE 13.909887 LL:  -3.640 LR: -13.661 RR:   0.000 FEB:  -7.397
USER: RMSD 0.576527
USER: STATUS Locally minimized using BFGS
USER: GENES 23
USER: genes 0 Translation |==|  0.54731 0.51250 0.62743
USER: genes 1 Rotation |==|  0.49915 0.50803 0.49995 0.99993
USER: genes 2 Torsion [N]-C--CA-[N] |==|  0.36577
USER: genes 3 Torsion [C]-CA--CB-[CG2] |==|  0.16180
USER: genes 4 Torsion [CA]-CB--OG1-[HG1] |==|  0.16258
USER: genes 5 Torsion [C]-CA--N-[C] |==|  0.66816
USER: genes 6 Torsion [N]-C--CA-[CB] |==|  0.75752
USER: genes 7 Torsion [N]-C--CA-[N] |==|  0.39418
USER: genes 8 Torsion [C]-CA--CB-[CG] |==|  0.51731
USER: genes 9 Torsion [CA]-CB--CG-[CD1] |==|  0.92225
USER: genes 10 Torsion [CE2]-CZ--OH-[HH] |==|  0.00022
USER: genes 11 Torsion [C]-N--CA-[CB] |==|  0.32703
USER: genes 12 Torsion [N]-CA--CB-[OG] |==|  0.80510
USER: genes 13 Torsion [CA]-CB--OG-[HG] |==|  0.22823
USER: genes 14 Torsion [N]-CA--C-[N] |==|  0.45492
USER: genes 15 Torsion [C]-N--CA-[CB] |==|  0.31667
USER: genes 16 Torsion [N]-CA--C-[N] |==|  0.38496
USER: genes 17 Torsion [C]-N--CA-[CB] |==|  0.31178
USER: genes 18 Torsion [N]-CA--CB-[CG2] |==|  0.82511
USER: genes 19 Torsion [CA]-CB--CG1-[CD1] |==|  0.49445
USER: genes 20 Torsion [N]-CA--C-[O] |==|  0.96743
USER: genes 21 Torsion [N]-CA--CB-[CG1] |==|  0.82580
USER: genes 22 Torsion [CA]-CB--CG1-[CD1] |==|  0.50641
ROOT
ATOM      1  C   THR D   7      17.128  25.583  45.033  1.00  9.65 LIG 0.24  C 
ATOM      2 O    THR D   7      17.346  26.410  45.932  1.00 10.36 LIG-0.27  OA
ATOM      3  N   SER D   8      15.925  25.363  44.511  1.00  8.02 LIG-0.34  N 
ATOM      4 H    SER D   8      15.790  24.886  43.808  1.00  8.02 LIG 0.16  HD
ENDROOT
BRANCH 1 5
ATOM      5  CA  THR D   7      18.255  24.752  44.444  1.00 11.21 LIG 0.20  C 
BRANCH 5 6
ATOM      6  CB  THR D   7      18.659  23.659  45.452  1.00 12.81 LIG 0.15  C 
ATOM      7  CG2 THR D   7      17.478  22.768  45.800  1.00 13.23 LIG 0.04  C 
BRANCH 6 8
ATOM      8 OG1  THR D   7      19.703  22.855  44.888  1.00 15.88 LIG-0.39  OA
ATOM      9 HG1  THR D   7      20.361  23.342  44.699  1.00 15.88 LIG 0.21  HD
ENDBRANCH 6 8
ENDBRANCH 5 6
BRANCH 5 10
ATOM     10  N   THR D   7      19.403  25.579  44.104  1.00 13.33 LIG-0.34  N 
ATOM     11  C   PRO D   6      19.861  25.670  42.861  1.00 13.20 LIG 0.24  C 
ATOM     12 O    PRO D   6      19.315  25.130  41.900  1.00 14.28 LIG-0.27  OA
ATOM     13 H    THR D   7      19.749  25.995  44.773  1.00 13.33 LIG 0.16  HD
BRANCH 11 14
ATOM     14  CA  PRO D   6      21.114  26.520  42.662  1.00 20.50 LIG 0.18  C 
ATOM     15  CB  PRO D   6      20.704  27.977  42.445  1.00 26.18 LIG 0.04  C 
ATOM     16  CG  PRO D   6      20.715  28.155  40.965  1.00 30.25 LIG 0.02  C 
ATOM     17  CD  PRO D   6      21.856  27.322  40.486  1.00 26.41 LIG 0.13  C 
ATOM     18  N   PRO D   6      21.851  26.197  41.434  1.00 20.28 LIG-0.34  N 
ATOM     19  C   TYR D   5      22.390  24.996  41.186  1.00 26.16 LIG 0.26  C 
ATOM     20 O    TYR D   5      22.327  24.064  41.984  1.00 27.79 LIG-0.27  OA
BRANCH 19 21
ATOM     21  CA  TYR D   5      23.107  24.824  39.848  1.00 28.17 LIG 0.40  C 
ATOM     22  N   TYR D   5      24.296  23.998  40.012  1.00 34.40 LIG 0.61  N 
BRANCH 21 23
ATOM     23  CB  TYR D   5      22.166  24.203  38.812  1.00 23.65 LIG 0.09  C 
BRANCH 23 24
ATOM     24  CG  TYR D   5      22.837  23.860  37.499  1.00 24.31 LIG-0.06  A 
ATOM     25  CD2 TYR D   5      22.360  22.826  36.704  1.00 24.91 LIG 0.01  A 
ATOM     26  CE2 TYR D   5      22.969  22.505  35.506  1.00 24.35 LIG 0.04  A 
ATOM     27  CZ  TYR D   5      24.069  23.222  35.086  1.00 25.18 LIG 0.07  A 
ATOM     28  CE1 TYR D   5      24.565  24.255  35.857  1.00 25.68 LIG 0.04  A 
ATOM     29  CD1 TYR D   5      23.949  24.568  37.056  1.00 25.57 LIG 0.01  A 
BRANCH 27 30
ATOM     30 OH   TYR D   5      24.668  22.897  33.891  1.00 28.89 LIG-0.36  OA
ATOM     31 HH   TYR D   5      24.258  22.255  33.538  1.00 28.89 LIG 0.22  HD
ENDBRANCH 27 30
ENDBRANCH 23 24
ENDBRANCH 21 23
ENDBRANCH 19 21
ENDBRANCH 11 14
ENDBRANCH 5 10
ENDBRANCH 1 5
BRANCH 3 32
ATOM     32  CA  SER D   8      14.722  25.921  45.092  1.00  7.80 LIG 0.20  C 
BRANCH 32 33
ATOM     33  CB  SER D   8      14.034  26.867  44.114  1.00  7.43 LIG 0.20  C 
BRANCH 33 34
ATOM     34 OG   SER D   8      14.782  28.050  43.941  1.00  7.87 LIG-0.40  OA
ATOM     35 HG   SER D   8      15.393  27.916  43.381  1.00  7.87 LIG 0.21  HD
ENDBRANCH 33 34
ENDBRANCH 32 33
BRANCH 32 36
ATOM     36  C   SER D   8      13.787  24.784  45.439  1.00  7.75 LIG 0.24  C 
ATOM     37 O    SER D   8      13.953  23.661  44.962  1.00  8.57 LIG-0.27  OA
ATOM     38  N   ILE D   9      12.800  25.077  46.270  1.00  7.82 LIG-0.35  N 
ATOM     39 H    ILE D   9      12.714  25.832  46.672  1.00  7.82 LIG 0.16  HD
BRANCH 38 40
ATOM     40  CA  ILE D   9      11.760  24.110  46.568  1.00  8.70 LIG 0.18  C 
BRANCH 40 41
ATOM     41  C   ILE D   9      10.420  24.719  46.209  1.00  9.89 LIG 0.24  C 
ATOM     42  N   ILE D  10       9.561  23.908  45.606  1.00  9.26 LIG-0.34  N 
ATOM     43 H    ILE D  10       9.733  23.087  45.415  1.00  9.26 LIG 0.16  HD
ATOM     44 O    ILE D   9      10.185  25.908  46.434  1.00 11.43 LIG-0.27  OA
BRANCH 42 45
ATOM     45  CA  ILE D  10       8.231  24.343  45.212  1.00 10.77 LIG 0.19  C 
BRANCH 45 46
ATOM     46  CB  ILE D  10       8.087  24.393  43.675  1.00 11.26 LIG 0.01  C 
ATOM     47  CG2 ILE D  10       9.048  25.420  43.081  1.00 13.36 LIG 0.01  C 
BRANCH 46 48
ATOM     48  CG1 ILE D  10       8.328  23.009  43.064  1.00 10.59 LIG 0.00  C 
ATOM     49  CD1 ILE D  10       8.157  22.967  41.558  1.00 13.29 LIG 0.01  C 
ENDBRANCH 46 48
ENDBRANCH 45 46
BRANCH 45 50
ATOM     50  C   ILE D  10       7.170  23.419  45.790  1.00 10.61 LIG 0.20  C 
ATOM     51 O    ILE D  10       7.477  22.337  46.306  1.00 10.13 LIG-0.65  OA
ATOM     52 OXT  ILE D  10       5.987  23.751  45.725  1.00 13.38 LIG-0.65  OA
ENDBRANCH 45 50
ENDBRANCH 42 45
ENDBRANCH 40 41
BRANCH 40 53
ATOM     53  CB  ILE D   9      11.800  23.660  48.036  1.00  9.74 LIG 0.01  C 
ATOM     54  CG2 ILE D   9      10.619  22.748  48.346  1.00 14.85 LIG 0.01  C 
BRANCH 53 55
ATOM     55  CG1 ILE D   9      13.128  22.956  48.306  1.00  9.98 LIG 0.00  C 
ATOM     56  CD1 ILE D   9      13.266  22.415  49.711  1.00 13.31 LIG 0.01  C 
ENDBRANCH 53 55
ENDBRANCH 40 53
ENDBRANCH 38 40
ENDBRANCH 32 36
ENDBRANCH 3 32
TORSDOF 21
