USER: ADFR SOLUTION from run 0
USER: SCORE 12.909365 LL:  -5.037 LR: -11.037 RR:   0.000 FEB:  -1.193
USER: RMSD 0.420150
USER: STATUS Locally minimized using BFGS
USER: GENES 35
USER: genes 0 Translation |==|  0.41779 0.54147 0.44864
USER: genes 1 Rotation |==|  0.49812 0.50294 0.50299 0.99998
USER: genes 2 Torsion [N]-C--CA-[N] |==|  0.31364
USER: genes 3 Torsion [C]-CA--CB-[CG] |==|  0.16616
USER: genes 4 Torsion [CA]-CB--CG-[CD] |==|  0.21265
USER: genes 5 Torsion [CB]-CG--CD-[NE] |==|  0.19223
USER: genes 6 Torsion [CG]-CD--NE-[HE] |==|  0.00118
USER: genes 7 Torsion [C]-CA--N-[C] |==|  0.76586
USER: genes 8 Torsion [N]-C--CA-[N] |==|  0.38163
USER: genes 9 Torsion [C]-CA--CB-[CG] |==|  0.15523
USER: genes 10 Torsion [CA]-CB--CG-[CD] |==|  0.59915
USER: genes 11 Torsion [CB]-CG--CD-[NE] |==|  0.13746
USER: genes 12 Torsion [CG]-CD--NE-[HE] |==|  0.97204
USER: genes 13 Torsion [C]-CA--N-[C] |==|  0.68221
USER: genes 14 Torsion [N]-C--CA-[N] |==|  0.07689
USER: genes 15 Torsion [C]-CA--CB-[CG2] |==|  0.20760
USER: genes 16 Torsion [CA]-CB--OG1-[HG1] |==|  0.05262
USER: genes 17 Torsion [C]-N--CA-[CB] |==|  0.28368
USER: genes 18 Torsion [N]-CA--C-[N] |==|  0.35693
USER: genes 19 Torsion [C]-N--CA-[CB] |==|  0.31327
USER: genes 20 Torsion [N]-CA--CB-[CG2] |==|  0.51483
USER: genes 21 Torsion [CA]-CB--OG1-[HG1] |==|  0.29636
USER: genes 22 Torsion [N]-CA--C-[N] |==|  0.37229
USER: genes 23 Torsion [C]-N--CA-[C] |==|  0.75430
USER: genes 24 Torsion [N]-CA--C-[N] |==|  0.38519
USER: genes 25 Torsion [C]-N--CA-[C] |==|  0.61152
USER: genes 26 Torsion [N]-CA--CB-[CG] |==|  0.71042
USER: genes 27 Torsion [CA]-CB--CG-[CD1] |==|  0.13483
USER: genes 28 Torsion [N]-CA--C-[O] |==|  0.93374
USER: genes 29 Torsion [N]-CA--CB-[CG] |==|  0.52622
USER: genes 30 Torsion [CA]-CB--CG-[CD] |==|  0.49790
USER: genes 31 Torsion [CB]-CG--CD-[NE2] |==|  0.48294
USER: genes 32 Torsion [N]-CA--CB-[CG] |==|  0.50890
USER: genes 33 Torsion [CA]-CB--CG-[CD] |==|  0.51045
USER: genes 34 Torsion [CB]-CG--CD-[OE1] |==|  0.07547
ROOT
ATOM      1  C   ARG C   6      20.087  20.061  23.932  1.00 27.90 LIG 0.24  C 
ATOM      2 O    ARG C   6      19.924  20.848  23.003  1.00 25.69 LIG-0.27  OA
ATOM      3  N   GLU C   7      21.043  20.209  24.843  1.00 23.63 LIG-0.35  N 
ATOM      4 H    GLU C   7      21.099  19.739  25.561  1.00 23.63 LIG 0.16  HD
ENDROOT
BRANCH 1 5
ATOM      5  CA  ARG C   6      19.171  18.849  24.098  1.00 28.24 LIG 0.18  C 
BRANCH 5 6
ATOM      6  CB  ARG C   6      19.179  18.027  22.808  1.00 28.37 LIG 0.04  C 
BRANCH 6 7
ATOM      7  CG  ARG C   6      20.547  17.512  22.421  1.00 35.92 LIG 0.02  C 
BRANCH 7 8
ATOM      8  CD  ARG C   6      20.936  16.326  23.279  1.00 41.81 LIG 0.14  C 
BRANCH 8 9
ATOM      9  NE  ARG C   6      20.111  15.162  22.964  1.00 46.88 LIG-0.23  N 
ATOM     10 HE   ARG C   6      19.515  15.247  22.350  1.00 46.88 LIG 0.18  HD
ATOM     11  CZ  ARG C   6      20.219  13.981  23.564  1.00 47.79 LIG 0.67  C 
ATOM     12  NH2 ARG C   6      19.427  12.979  23.205  1.00 52.15 LIG-0.23  N 
ATOM     13  NH1 ARG C   6      21.118  13.801  24.521  1.00 41.40 LIG-0.23  N 
ATOM     14 1HH2 ARG C   6      18.843  13.094  22.585  1.00 52.15 LIG 0.17  HD
ATOM     15 2HH2 ARG C   6      19.497  12.214  23.594  1.00 52.15 LIG 0.17  HD
ATOM     16 2HH1 ARG C   6      21.187  13.036  24.909  1.00 41.40 LIG 0.17  HD
ATOM     17 1HH1 ARG C   6      21.632  14.449  24.755  1.00 41.40 LIG 0.17  HD
ENDBRANCH 8 9
ENDBRANCH 7 8
ENDBRANCH 6 7
ENDBRANCH 5 6
BRANCH 5 18
ATOM     18  N   ARG C   6      17.808  19.248  24.426  1.00 41.74 LIG-0.35  N 
ATOM     19  C   ARG C   5      17.428  19.508  25.673  1.00 53.56 LIG 0.24  C 
ATOM     20 O    ARG C   5      18.188  19.427  26.637  1.00 51.79 LIG-0.27  OA
ATOM     21 H    ARG C   6      17.283  19.297  23.747  1.00 41.74 LIG 0.16  HD
BRANCH 19 22
ATOM     22  CA  ARG C   5      15.974  19.946  25.849  1.00 62.48 LIG 0.18  C 
BRANCH 22 23
ATOM     23  CB  ARG C   5      15.909  21.474  25.930  1.00 65.36 LIG 0.04  C 
BRANCH 23 24
ATOM     24  CG  ARG C   5      16.542  22.171  24.727  1.00 67.86 LIG 0.02  C 
BRANCH 24 25
ATOM     25  CD  ARG C   5      17.244  23.459  25.127  1.00 67.74 LIG 0.14  C 
BRANCH 25 26
ATOM     26  NE  ARG C   5      18.134  23.251  26.264  1.00 69.26 LIG-0.23  N 
ATOM     27 HE   ARG C   5      18.088  22.499  26.679  1.00 69.26 LIG 0.18  HD
ATOM     28  CZ  ARG C   5      19.011  24.148  26.701  1.00 72.53 LIG 0.67  C 
ATOM     29  NH1 ARG C   5      19.776  23.873  27.750  1.00 70.69 LIG-0.23  N 
ATOM     30  NH2 ARG C   5      19.125  25.319  26.087  1.00 74.37 LIG-0.23  N 
ATOM     31 2HH1 ARG C   5      20.344  24.454  28.032  1.00 70.69 LIG 0.17  HD
ATOM     32 1HH1 ARG C   5      19.704  23.114  28.148  1.00 70.69 LIG 0.17  HD
ATOM     33 1HH2 ARG C   5      18.631  25.497  25.406  1.00 74.37 LIG 0.17  HD
ATOM     34 2HH2 ARG C   5      19.693  25.899  26.370  1.00 74.37 LIG 0.17  HD
ENDBRANCH 25 26
ENDBRANCH 24 25
ENDBRANCH 23 24
ENDBRANCH 22 23
BRANCH 22 35
ATOM     35  N   ARG C   5      15.308  19.326  26.995  1.00 62.98 LIG-0.35  N 
ATOM     36  C   THR C   4      14.291  18.485  26.825  1.00 71.37 LIG 0.26  C 
ATOM     37 O    THR C   4      13.886  18.151  25.710  1.00 72.41 LIG-0.27  OA
ATOM     38 H    ARG C   5      15.628  19.551  27.761  1.00 62.98 LIG 0.16  HD
BRANCH 36 39
ATOM     39  CA  THR C   4      13.629  17.933  28.090  1.00 77.23 LIG 0.43  C 
ATOM     40  N   THR C   4      13.767  18.864  29.206  1.00 78.75 LIG 0.62  N 
BRANCH 39 41
ATOM     41  CB  THR C   4      12.141  17.617  27.790  1.00 73.87 LIG 0.16  C 
ATOM     42  CG2 THR C   4      12.010  16.348  26.957  1.00 73.94 LIG 0.04  C 
BRANCH 41 43
ATOM     43 OG1  THR C   4      11.417  17.457  29.017  1.00 74.59 LIG-0.39  OA
ATOM     44 HG1  THR C   4      11.849  17.809  29.645  1.00 74.59 LIG 0.21  HD
ENDBRANCH 41 43
ENDBRANCH 39 41
ENDBRANCH 36 39
ENDBRANCH 22 35
ENDBRANCH 19 22
ENDBRANCH 5 18
ENDBRANCH 1 5
BRANCH 3 45
ATOM     45  CA  GLU C   7      22.097  21.203  24.692  1.00 24.11 LIG 0.18  C 
BRANCH 45 46
ATOM     46  C   GLU C   7      23.427  20.574  25.074  1.00 31.12 LIG 0.24  C 
ATOM     47 O    GLU C   7      23.558  19.989  26.149  1.00 26.64 LIG-0.27  OA
ATOM     48  N   THR C   8      24.418  20.698  24.198  1.00 26.11 LIG-0.34  N 
ATOM     49 H    THR C   8      24.354  21.118  23.451  1.00 26.11 LIG 0.16  HD
BRANCH 48 50
ATOM     50  CA  THR C   8      25.728  20.107  24.456  1.00 18.32 LIG 0.20  C 
BRANCH 50 51
ATOM     51  CB  THR C   8      26.026  18.961  23.473  1.00 19.43 LIG 0.15  C 
ATOM     52  CG2 THR C   8      27.333  18.270  23.835  1.00 20.66 LIG 0.04  C 
BRANCH 51 53
ATOM     53 OG1  THR C   8      24.956  18.012  23.527  1.00 16.70 LIG-0.39  OA
ATOM     54 HG1  THR C   8      24.489  18.076  22.832  1.00 16.70 LIG 0.21  HD
ENDBRANCH 51 53
ENDBRANCH 50 51
BRANCH 50 55
ATOM     55  C   THR C   8      26.841  21.126  24.339  1.00 17.75 LIG 0.24  C 
ATOM     56  N   GLN C   9      27.749  21.122  25.307  1.00 18.17 LIG-0.35  N 
ATOM     57 H    GLN C   9      27.721  20.610  25.997  1.00 18.17 LIG 0.16  HD
ATOM     58 O    THR C   8      26.891  21.891  23.383  1.00 18.31 LIG-0.27  OA
BRANCH 56 59
ATOM     59  CA  GLN C   9      28.894  22.023  25.259  1.00 20.01 LIG 0.18  C 
BRANCH 59 60
ATOM     60  C   GLN C   9      30.032  21.345  24.494  1.00 23.96 LIG 0.24  C 
ATOM     61 O    GLN C   9      30.278  20.155  24.677  1.00 22.16 LIG-0.27  OA
ATOM     62  N   LEU C  10      30.722  22.106  23.646  1.00 18.63 LIG-0.34  N 
ATOM     63 H    LEU C  10      30.674  22.965  23.630  1.00 18.63 LIG 0.16  HD
BRANCH 62 64
ATOM     64  CA  LEU C  10      31.633  21.544  22.654  1.00 17.73 LIG 0.18  C 
BRANCH 64 65
ATOM     65  CB  LEU C  10      30.934  21.504  21.283  1.00 25.34 LIG 0.04  C 
BRANCH 65 66
ATOM     66  CG  LEU C  10      30.404  20.200  20.705  1.00 39.39 LIG-0.02  C 
ATOM     67  CD1 LEU C  10      29.579  19.435  21.717  1.00 48.08 LIG 0.01  C 
ATOM     68  CD2 LEU C  10      29.593  20.503  19.462  1.00 37.51 LIG 0.01  C 
ENDBRANCH 65 66
ENDBRANCH 64 65
BRANCH 64 69
ATOM     69  C   LEU C  10      32.898  22.366  22.521  1.00 24.54 LIG 0.20  C 
ATOM     70 O    LEU C  10      32.921  23.563  22.835  1.00 20.83 LIG-0.65  OA
ATOM     71 OXT  LEU C  10      33.921  21.855  22.050  1.00 16.98 LIG-0.65  OA
ENDBRANCH 64 69
ENDBRANCH 62 64
ENDBRANCH 59 60
BRANCH 59 72
ATOM     72  CB  GLN C   9      29.330  22.410  26.674  1.00 28.41 LIG 0.04  C 
BRANCH 72 73
ATOM     73  CG  GLN C   9      30.363  23.514  26.703  1.00 32.25 LIG 0.10  C 
BRANCH 73 74
ATOM     74  CD  GLN C   9      30.770  23.897  28.111  1.00 38.89 LIG 0.21  C 
ATOM     75 OE1  GLN C   9      30.202  23.412  29.094  1.00 37.39 LIG-0.27  OA
ATOM     76  NE2 GLN C   9      31.766  24.772  28.216  1.00 32.46 LIG-0.37  N 
ATOM     77 22HE GLN C   9      32.038  25.021  28.993  1.00 32.46 LIG 0.16  HD
ATOM     78 21HE GLN C   9      32.137  25.089  27.508  1.00 32.46 LIG 0.16  HD
ENDBRANCH 73 74
ENDBRANCH 72 73
ENDBRANCH 59 72
ENDBRANCH 56 59
ENDBRANCH 50 55
ENDBRANCH 48 50
ENDBRANCH 45 46
BRANCH 45 79
ATOM     79  CB  GLU C   7      21.835  22.431  25.567  1.00 23.92 LIG 0.04  C 
BRANCH 79 80
ATOM     80  CG  GLU C   7      22.865  23.542  25.394  1.00 19.46 LIG 0.12  C 
BRANCH 80 81
ATOM     81  CD  GLU C   7      22.642  24.716  26.336  1.00 36.59 LIG 0.17  C 
ATOM     82 OE1  GLU C   7      22.070  24.509  27.425  1.00 43.07 LIG-0.65  OA
ATOM     83 OE2  GLU C   7      23.048  25.848  25.991  1.00 30.47 LIG-0.65  OA
ENDBRANCH 80 81
ENDBRANCH 79 80
ENDBRANCH 45 79
ENDBRANCH 3 45
TORSDOF 33
