USER: ADFR SOLUTION from run 0
USER: SCORE 13.320866 LL:  -4.012 LR: -10.586 RR:   0.000 FEB:  -4.919
USER: RMSD 0.565587
USER: STATUS Locally minimized using BFGS
USER: GENES 21
USER: genes 0 Translation |==|  0.49199 0.47066 0.51253
USER: genes 1 Rotation |==|  0.50302 0.50483 0.51076 0.99985
USER: genes 2 Torsion [C]-N--CA-[CB] |==|  0.47781
USER: genes 3 Torsion [N]-CA--CB-[CG] |==|  0.80301
USER: genes 4 Torsion [CA]-CB--CG-[OD2] |==|  0.41970
USER: genes 5 Torsion [N]-CA--C-[N] |==|  0.38484
USER: genes 6 Torsion [C]-N--CA-[C] |==|  0.82778
USER: genes 7 Torsion [N]-CA--C-[N] |==|  0.32984
USER: genes 8 Torsion [C]-N--CA-[CB] |==|  0.20176
USER: genes 9 Torsion [N]-CA--C-[OXT] |==|  0.43561
USER: genes 10 Torsion [N]-CA--CB-[CG] |==|  0.52329
USER: genes 11 Torsion [CA]-CB--CG-[CD2] |==|  0.48525
USER: genes 12 Torsion [N]-C--CA-[N] |==|  0.42577
USER: genes 13 Torsion [C]-CA--CB-[CG] |==|  0.49535
USER: genes 14 Torsion [CA]-CB--CG-[CD2] |==|  0.80986
USER: genes 15 Torsion [C]-CA--N-[C] |==|  0.74894
USER: genes 16 Torsion [N]-C--CA-[N] |==|  0.34548
USER: genes 17 Torsion [C]-CA--CB-[CG] |==|  0.15732
USER: genes 18 Torsion [CA]-CB--CG-[CD] |==|  0.16827
USER: genes 19 Torsion [CB]-CG--CD-[OE1] |==|  0.15212
USER: genes 20 Torsion [C]-CA--N-[C] |==|  0.81471
ROOT
ATOM      1  C   LEU E   1       2.582  -6.320 -13.017  1.00 28.67 LIG 0.24  C 
ATOM      2 O    LEU E   1       2.586  -5.569 -12.036  1.00 26.53 LIG-0.27  OA
ATOM      3  N   ASP E   2       3.640  -7.030 -13.397  1.00 29.47 LIG-0.35  N 
ATOM      4 H    ASP E   2       3.624  -7.624 -14.018  1.00 29.47 LIG 0.16  HD
ENDROOT
BRANCH 3 5
ATOM      5  CA  ASP E   2       4.938  -6.846 -12.772  1.00 30.54 LIG 0.19  C 
BRANCH 5 6
ATOM      6  CB  ASP E   2       5.941  -7.905 -13.240  1.00 32.40 LIG 0.15  C 
BRANCH 6 7
ATOM      7  CG  ASP E   2       5.634  -9.280 -12.690  1.00 34.09 LIG 0.17  C 
ATOM      8 OD2  ASP E   2       5.973 -10.274 -13.361  1.00 37.71 LIG-0.65  OA
ATOM      9 OD1  ASP E   2       5.062  -9.371 -11.581  1.00 36.77 LIG-0.65  OA
ENDBRANCH 6 7
ENDBRANCH 5 6
BRANCH 5 10
ATOM     10  C   ASP E   2       5.429  -5.468 -13.144  1.00 30.01 LIG 0.24  C 
ATOM     11 O    ASP E   2       5.276  -5.033 -14.286  1.00 27.94 LIG-0.27  OA
ATOM     12  N   LEU E   3       6.010  -4.786 -12.167  1.00 30.14 LIG-0.35  N 
ATOM     13 H    LEU E   3       6.103  -5.087 -11.367  1.00 30.14 LIG 0.16  HD
BRANCH 12 14
ATOM     14  CA  LEU E   3       6.550  -3.453 -12.365  1.00 30.90 LIG 0.18  C 
BRANCH 14 15
ATOM     15  C   LEU E   3       7.673  -3.499 -13.401  1.00 32.33 LIG 0.24  C 
ATOM     16 O    LEU E   3       8.679  -4.194 -13.216  1.00 31.45 LIG-0.27  OA
ATOM     17  N   ALA E   4       7.474  -2.779 -14.502  1.00 33.58 LIG-0.34  N 
ATOM     18 H    ALA E   4       6.780  -2.288 -14.632  1.00 33.58 LIG 0.16  HD
BRANCH 17 19
ATOM     19  CA  ALA E   4       8.435  -2.762 -15.603  1.00 35.71 LIG 0.18  C 
ATOM     20  CB  ALA E   4       8.393  -4.080 -16.360  1.00 36.03 LIG 0.04  C 
BRANCH 19 21
ATOM     21  C   ALA E   4       8.145  -1.605 -16.547  1.00 37.05 LIG 0.20  C 
ATOM     22 OXT  ALA E   4       9.029  -1.148 -17.269  1.00 36.72 LIG-0.65  OA
ATOM     23 O    ALA E   4       7.022  -1.102 -16.613  1.00 37.61 LIG-0.65  OA
ENDBRANCH 19 21
ENDBRANCH 17 19
ENDBRANCH 14 15
BRANCH 14 24
ATOM     24  CB  LEU E   3       7.060  -2.908 -11.031  1.00 30.03 LIG 0.04  C 
BRANCH 24 25
ATOM     25  CG  LEU E   3       7.500  -1.451 -10.931  1.00 29.85 LIG-0.02  C 
ATOM     26  CD1 LEU E   3       6.445  -0.498 -11.465  1.00 29.46 LIG 0.01  C 
ATOM     27  CD2 LEU E   3       7.830  -1.147  -9.479  1.00 29.65 LIG 0.01  C 
ENDBRANCH 24 25
ENDBRANCH 14 24
ENDBRANCH 12 14
ENDBRANCH 5 10
ENDBRANCH 3 5
BRANCH 1 28
ATOM     28  CA  LEU E   1       1.331  -6.494 -13.860  1.00 29.46 LIG 0.18  C 
BRANCH 28 29
ATOM     29  CB  LEU E   1       1.382  -5.584 -15.089  1.00 29.35 LIG 0.04  C 
BRANCH 29 30
ATOM     30  CG  LEU E   1       0.179  -5.710 -16.035  1.00 30.22 LIG-0.02  C 
ATOM     31  CD2 LEU E   1       0.169  -7.062 -16.735  1.00 31.32 LIG 0.01  C 
ATOM     32  CD1 LEU E   1       0.160  -4.578 -17.046  1.00 30.06 LIG 0.01  C 
ENDBRANCH 29 30
ENDBRANCH 28 29
BRANCH 28 33
ATOM     33  N   LEU E   1       0.155  -6.217 -13.040  1.00 28.73 LIG-0.35  N 
ATOM     34  C   GLN E   0      -0.446  -7.190 -12.364  1.00 28.95 LIG 0.24  C 
ATOM     35 O    GLN E   0      -0.136  -8.373 -12.478  1.00 30.73 LIG-0.27  OA
ATOM     36 H    LEU E   1      -0.099  -5.395 -13.038  1.00 28.73 LIG 0.16  HD
BRANCH 34 37
ATOM     37  CA  GLN E   0      -1.569  -6.786 -11.422  1.00 28.12 LIG 0.18  C 
BRANCH 37 38
ATOM     38  CB  GLN E   0      -1.146  -7.084  -9.977  1.00 27.70 LIG 0.04  C 
BRANCH 38 39
ATOM     39  CG  GLN E   0       0.153  -6.415  -9.534  1.00 26.51 LIG 0.10  C 
BRANCH 39 40
ATOM     40  CD  GLN E   0       0.079  -4.901  -9.602  1.00 26.51 LIG 0.21  C 
ATOM     41 OE1  GLN E   0      -0.822  -4.290  -9.015  1.00 26.66 LIG-0.27  OA
ATOM     42  NE2 GLN E   0       1.021  -4.283 -10.313  1.00 24.64 LIG-0.37  N 
ATOM     43 22HE GLN E   0       1.019  -3.426 -10.376  1.00 24.64 LIG 0.16  HD
ATOM     44 21HE GLN E   0       1.632  -4.743 -10.708  1.00 24.64 LIG 0.16  HD
ENDBRANCH 39 40
ENDBRANCH 38 39
ENDBRANCH 37 38
BRANCH 37 45
ATOM     45  N   GLN E   0      -2.823  -7.543 -11.771  1.00 28.94 LIG-0.35  N 
ATOM     46  C   ACE E  -1      -3.496  -7.358 -12.933  1.00 29.25 LIG 0.21  C 
ATOM     47 O    ACE E  -1      -2.818  -7.061 -13.920  1.00 28.69 LIG-0.27  OA
ATOM     48  CH3 ACE E  -1      -4.529  -8.452 -13.156  1.00 29.73 LIG 0.12  C 
ATOM     49 H    GLN E   0      -3.072  -8.101 -11.166  1.00 28.94 LIG 0.16  HD
ENDBRANCH 37 45
ENDBRANCH 34 37
ENDBRANCH 28 33
ENDBRANCH 1 28
TORSDOF 19
