USER: ADFR SOLUTION from run 0
USER: SCORE 13.314943 LL:  -3.201 LR: -10.270 RR:   0.000 FEB:  -5.796
USER: RMSD 0.561854
USER: STATUS Locally minimized using BFGS
USER: GENES 17
USER: genes 0 Translation |==|  0.47145 0.44389 0.43965
USER: genes 1 Rotation |==|  0.50035 0.49997 0.47948 0.99958
USER: genes 2 Torsion [C]-N--CA-[C] |==|  0.77224
USER: genes 3 Torsion [N]-CA--CB-[CG1] |==|  0.89510
USER: genes 4 Torsion [CA]-CB--CG1-[CD1] |==|  0.85955
USER: genes 5 Torsion [N]-CA--C-[N] |==|  0.35198
USER: genes 6 Torsion [C]-N--CA-[CB] |==|  0.28386
USER: genes 7 Torsion [N]-CA--CB-[CG2] |==|  0.54003
USER: genes 8 Torsion [CA]-CB--CG1-[CD1] |==|  0.50044
USER: genes 9 Torsion [N]-CA--C-[O] |==|  0.90072
USER: genes 10 Torsion [N]-C--CA-[N] |==|  0.36963
USER: genes 11 Torsion [C]-CA--N-[C] |==|  0.75579
USER: genes 12 Torsion [N]-C--CA-[N] |==|  0.38530
USER: genes 13 Torsion [C]-CA--CB-[CG] |==|  0.53678
USER: genes 14 Torsion [CA]-CB--CG-[OD2] |==|  0.48120
USER: genes 15 Torsion [C]-CA--CB-[OG] |==|  0.45693
USER: genes 16 Torsion [CA]-CB--OG-[HG] |==|  0.21736
ROOT
ATOM      1  C   SER C   8       0.259  23.645  45.927  1.00 23.80 LIG 0.24  C 
ATOM      2 O    SER C   8       0.847  24.506  45.273  1.00 21.47 LIG-0.27  OA
ATOM      3  N   ILE C   9       0.560  23.361  47.192  1.00 23.49 LIG-0.35  N 
ATOM      4 H    ILE C   9       0.130  22.789  47.671  1.00 23.49 LIG 0.16  HD
ENDROOT
BRANCH 3 5
ATOM      5  CA  ILE C   9       1.669  24.011  47.885  1.00 20.80 LIG 0.18  C 
BRANCH 5 6
ATOM      6  CB  ILE C   9       1.516  23.924  49.412  1.00 28.93 LIG 0.01  C 
ATOM      7  CG2 ILE C   9       2.448  24.931  50.107  1.00 27.59 LIG 0.01  C 
BRANCH 6 8
ATOM      8  CG1 ILE C   9       0.052  24.080  49.837  1.00 40.08 LIG 0.00  C 
ATOM      9  CD1 ILE C   9      -0.653  25.279  49.252  1.00 35.68 LIG 0.01  C 
ENDBRANCH 6 8
ENDBRANCH 5 6
BRANCH 5 10
ATOM     10  C   ILE C   9       2.968  23.314  47.520  1.00 29.58 LIG 0.24  C 
ATOM     11  N   ILE C  10       3.948  24.084  47.057  1.00 24.64 LIG-0.34  N 
ATOM     12 H    ILE C  10       3.879  24.934  46.948  1.00 24.64 LIG 0.16  HD
ATOM     13 O    ILE C   9       3.083  22.096  47.659  1.00 37.49 LIG-0.27  OA
BRANCH 11 14
ATOM     14  CA  ILE C  10       5.246  23.533  46.692  1.00 23.95 LIG 0.19  C 
BRANCH 14 15
ATOM     15  CB  ILE C  10       5.410  23.380  45.157  1.00 22.27 LIG 0.01  C 
ATOM     16  CG2 ILE C  10       6.607  22.488  44.835  1.00 24.85 LIG 0.01  C 
BRANCH 15 17
ATOM     17  CG1 ILE C  10       4.132  22.830  44.521  1.00 32.35 LIG 0.00  C 
ATOM     18  CD1 ILE C  10       4.238  22.655  43.006  1.00 31.42 LIG 0.01  C 
ENDBRANCH 15 17
ENDBRANCH 14 15
BRANCH 14 19
ATOM     19  C   ILE C  10       6.363  24.432  47.198  1.00 24.88 LIG 0.20  C 
ATOM     20 OXT  ILE C  10       7.426  23.947  47.582  1.00 25.96 LIG-0.65  OA
ATOM     21 O    ILE C  10       6.226  25.654  47.212  1.00 20.25 LIG-0.65  OA
ENDBRANCH 14 19
ENDBRANCH 11 14
ENDBRANCH 5 10
ENDBRANCH 3 5
BRANCH 1 22
ATOM     22  CA  SER C   8      -0.864  22.825  45.302  1.00 22.40 LIG 0.20  C 
BRANCH 22 23
ATOM     23  N   SER C   8      -1.829  23.654  44.591  1.00 32.61 LIG-0.34  N 
ATOM     24 H    SER C   8      -1.691  23.779  43.751  1.00 32.61 LIG 0.16  HD
ATOM     25  C   ASP C   7      -2.834  24.138  45.309  1.00 44.43 LIG 0.26  C 
ATOM     26 O    ASP C   7      -3.073  23.761  46.441  1.00 41.29 LIG-0.27  OA
BRANCH 25 27
ATOM     27  CA  ASP C   7      -3.708  25.200  44.739  1.00 57.36 LIG 0.41  C 
ATOM     28  N   ASP C   7      -5.056  24.866  45.116  1.00 63.06 LIG 0.61  N 
BRANCH 27 29
ATOM     29  CB  ASP C   7      -3.367  26.528  45.369  1.00 56.13 LIG 0.16  C 
BRANCH 29 30
ATOM     30  CG  ASP C   7      -4.389  27.537  45.081  1.00 57.80 LIG 0.17  C 
ATOM     31 OD2  ASP C   7      -4.349  28.612  45.596  1.00 66.43 LIG-0.65  OA
ATOM     32 OD1  ASP C   7      -5.251  27.222  44.288  1.00 48.55 LIG-0.65  OA
ENDBRANCH 29 30
ENDBRANCH 27 29
ENDBRANCH 25 27
ENDBRANCH 22 23
BRANCH 22 33
ATOM     33  CB  SER C   8      -0.267  21.803  44.345  1.00 17.52 LIG 0.20  C 
BRANCH 33 34
ATOM     34 OG   SER C   8      -1.218  20.810  44.024  1.00 22.08 LIG-0.40  OA
ATOM     35 HG   SER C   8      -1.755  21.110  43.453  1.00 22.08 LIG 0.21  HD
ENDBRANCH 33 34
ENDBRANCH 22 33
ENDBRANCH 1 22
TORSDOF 15
