USER: ADFR SOLUTION from run 0
USER: SCORE 17.998193 LL:  -4.451 LR: -15.638 RR:   0.000 FEB:  -7.286
USER: RMSD 1.308292
USER: STATUS Locally minimized using BFGS
USER: GENES 30
USER: genes 0 Translation |==|  0.46481 0.50672 0.48185
USER: genes 1 Rotation |==|  0.49538 0.49549 0.49397 0.99992
USER: genes 2 Torsion [N]-CA--C-[N] |==|  0.34257
USER: genes 3 Torsion [C]-N--CA-[CB] |==|  0.33608
USER: genes 4 Torsion [N]-CA--CB-[CG2] |==|  0.46222
USER: genes 5 Torsion [CA]-CB--OG1-[HG1] |==|  0.23800
USER: genes 6 Torsion [N]-CA--C-[N] |==|  0.34351
USER: genes 7 Torsion [C]-N--CA-[C] |==|  0.76361
USER: genes 8 Torsion [N]-CA--C-[N] |==|  0.37092
USER: genes 9 Torsion [C]-N--CA-[CB] |==|  0.34273
USER: genes 10 Torsion [N]-CA--CB-[CG] |==|  0.88305
USER: genes 11 Torsion [CA]-CB--CG-[CD1] |==|  0.47619
USER: genes 12 Torsion [N]-CA--C-[OXT] |==|  0.45236
USER: genes 13 Torsion [N]-CA--CB-[CG] |==|  0.53308
USER: genes 14 Torsion [CA]-CB--CG-[CD] |==|  0.46417
USER: genes 15 Torsion [CB]-CG--CD-[NE] |==|  0.47770
USER: genes 16 Torsion [CG]-CD--NE-[CZ] |==|  0.49621
USER: genes 17 Torsion [C]-CA--CB-[CG2] |==|  0.12480
USER: genes 18 Torsion [CA]-CB--OG1-[HG1] |==|  0.49795
USER: genes 19 Torsion [C]-CA--N-[C] |==|  0.67323
USER: genes 20 Torsion [N]-C--CA-[N] |==|  0.41894
USER: genes 21 Torsion [N]-C--CA-[N] |==|  0.32783
USER: genes 22 Torsion [C]-CA--CB-[CG] |==|  0.49750
USER: genes 23 Torsion [CA]-CB--CG-[CD1] |==|  0.97694
USER: genes 24 Torsion [C]-CA--N-[C] |==|  0.76908
USER: genes 25 Torsion [N]-C--CA-[N] |==|  0.98420
USER: genes 26 Torsion [C]-CA--CB-[CG] |==|  0.47013
USER: genes 27 Torsion [CA]-CB--CG-[CD] |==|  0.85592
USER: genes 28 Torsion [CB]-CG--CD-[NE] |==|  0.49214
USER: genes 29 Torsion [CG]-CD--NE-[HE] |==|  0.73611
ROOT
ATOM      1  CA  THR G   7      43.488  15.187  -1.468  1.00 26.40 LIG 0.20  C 
ENDROOT
BRANCH 1 2
ATOM      2  C   THR G   7      42.874  15.756  -2.737  1.00 25.30 LIG 0.24  C 
ATOM      3  N   THR G   8      41.975  14.999  -3.358  1.00 15.59 LIG-0.34  N 
ATOM      4 H    THR G   8      41.728  14.218  -3.096  1.00 15.59 LIG 0.16  HD
ATOM      5 O    THR G   7      43.213  16.864  -3.157  1.00 25.63 LIG-0.27  OA
BRANCH 3 6
ATOM      6  CA  THR G   8      41.327  15.473  -4.574  1.00 11.76 LIG 0.20  C 
BRANCH 6 7
ATOM      7  CB  THR G   8      41.570  14.533  -5.777  1.00 16.39 LIG 0.15  C 
ATOM      8  CG2 THR G   8      40.622  14.875  -6.912  1.00 20.98 LIG 0.04  C 
BRANCH 7 9
ATOM      9 OG1  THR G   8      42.918  14.658  -6.243  1.00 14.98 LIG-0.39  OA
ATOM     10 HG1  THR G   8      43.417  14.149  -5.799  1.00 14.98 LIG 0.21  HD
ENDBRANCH 7 9
ENDBRANCH 6 7
BRANCH 6 11
ATOM     11  C   THR G   8      39.835  15.610  -4.356  1.00 14.98 LIG 0.24  C 
ATOM     12 O    THR G   8      39.165  14.648  -3.975  1.00 17.64 LIG-0.27  OA
ATOM     13  N   ARG G   9      39.301  16.802  -4.595  1.00 15.79 LIG-0.35  N 
ATOM     14 H    ARG G   9      39.741  17.496  -4.845  1.00 15.79 LIG 0.16  HD
BRANCH 13 15
ATOM     15  CA  ARG G   9      37.871  16.997  -4.436  1.00 12.84 LIG 0.18  C 
BRANCH 15 16
ATOM     16  C   ARG G   9      37.156  16.586  -5.711  1.00 12.32 LIG 0.24  C 
ATOM     17  N   LEU G  10      36.083  15.819  -5.560  1.00 12.88 LIG-0.34  N 
ATOM     18 H    LEU G  10      35.760  15.590  -4.796  1.00 12.88 LIG 0.16  HD
ATOM     19 O    ARG G   9      37.585  16.942  -6.811  1.00 17.68 LIG-0.27  OA
BRANCH 17 20
ATOM     20  CA  LEU G  10      35.353  15.292  -6.704  1.00 16.59 LIG 0.18  C 
BRANCH 20 21
ATOM     21  CB  LEU G  10      35.269  13.771  -6.646  1.00 15.66 LIG 0.04  C 
BRANCH 21 22
ATOM     22  CG  LEU G  10      36.533  13.033  -6.225  1.00 23.51 LIG-0.02  C 
ATOM     23  CD1 LEU G  10      36.208  11.576  -6.021  1.00 20.87 LIG 0.01  C 
ATOM     24  CD2 LEU G  10      37.608  13.215  -7.287  1.00 22.37 LIG 0.01  C 
ENDBRANCH 21 22
ENDBRANCH 20 21
BRANCH 20 25
ATOM     25  C   LEU G  10      33.949  15.845  -6.753  1.00 15.89 LIG 0.20  C 
ATOM     26 OXT  LEU G  10      33.313  15.764  -7.797  1.00 24.01 LIG-0.65  OA
ATOM     27 O    LEU G  10      33.424  16.355  -5.756  1.00 15.92 LIG-0.65  OA
ENDBRANCH 20 25
ENDBRANCH 17 20
ENDBRANCH 15 16
BRANCH 15 28
ATOM     28  CB  ARG G   9      37.536  18.446  -4.083  1.00 18.79 LIG 0.04  C 
BRANCH 28 29
ATOM     29  CG  ARG G   9      36.101  18.620  -3.632  1.00 22.18 LIG 0.02  C 
BRANCH 29 30
ATOM     30  CD  ARG G   9      35.866  19.974  -2.994  1.00 31.14 LIG 0.14  C 
BRANCH 30 31
ATOM     31  NE  ARG G   9      34.448  20.199  -2.738  1.00 29.63 LIG-0.23  N 
ATOM     32  CZ  ARG G   9      33.966  21.293  -2.162  1.00 25.64 LIG 0.67  C 
ATOM     33  NH2 ARG G   9      32.661  21.423  -1.964  1.00 30.24 LIG-0.23  N 
ATOM     34  NH1 ARG G   9      34.794  22.250  -1.775  1.00 28.33 LIG-0.23  N 
ATOM     35 1HH2 ARG G   9      32.124  20.798  -2.210  1.00 30.24 LIG 0.17  HD
ATOM     36 2HH2 ARG G   9      32.352  22.133  -1.591  1.00 30.24 LIG 0.17  HD
ATOM     37 1HH1 ARG G   9      35.641  22.162  -1.897  1.00 28.33 LIG 0.17  HD
ATOM     38 2HH1 ARG G   9      34.486  22.960  -1.401  1.00 28.33 LIG 0.17  HD
ATOM     39 HE   ARG G   9      33.891  19.587  -2.974  1.00 29.63 LIG 0.18  HD
ENDBRANCH 30 31
ENDBRANCH 29 30
ENDBRANCH 28 29
ENDBRANCH 15 28
ENDBRANCH 13 15
ENDBRANCH 6 11
ENDBRANCH 3 6
ENDBRANCH 1 2
BRANCH 1 40
ATOM     40  CB  THR G   7      43.059  16.053  -0.266  1.00 34.82 LIG 0.15  C 
ATOM     41  CG2 THR G   7      41.574  16.366  -0.337  1.00 38.74 LIG 0.04  C 
BRANCH 40 42
ATOM     42 OG1  THR G   7      43.332  15.351   0.954  1.00 40.69 LIG-0.39  OA
ATOM     43 HG1  THR G   7      43.108  15.827   1.609  1.00 40.69 LIG 0.21  HD
ENDBRANCH 40 42
ENDBRANCH 1 40
BRANCH 1 44
ATOM     44  N   THR G   7      44.937  15.149  -1.614  1.00 22.98 LIG-0.34  N 
ATOM     45  C   PRO G   6      45.629  14.016  -1.588  1.00 24.87 LIG 0.24  C 
ATOM     46 O    PRO G   6      45.138  12.913  -1.354  1.00 25.14 LIG-0.27  OA
ATOM     47 H    THR G   7      45.298  15.923  -1.717  1.00 22.98 LIG 0.16  HD
BRANCH 45 48
ATOM     48  CA  PRO G   6      47.123  14.124  -1.840  1.00 32.16 LIG 0.18  C 
ATOM     49  N   PRO G   6      47.812  13.043  -1.133  1.00 31.00 LIG-0.34  N 
ATOM     50  CD  PRO G   6      48.402  12.066  -2.061  1.00 36.67 LIG 0.13  C 
ATOM     51  C   TRP G   5      47.716  12.947   0.199  1.00 25.71 LIG 0.24  C 
ATOM     52  CG  PRO G   6      47.695  12.366  -3.354  1.00 44.45 LIG 0.02  C 
ATOM     53  CB  PRO G   6      47.423  13.828  -3.313  1.00 38.26 LIG 0.04  C 
ATOM     54 O    TRP G   5      47.111  13.774   0.885  1.00 31.33 LIG-0.27  OA
BRANCH 51 55
ATOM     55  CA  TRP G   5      48.389  11.753   0.852  1.00 33.03 LIG 0.18  C 
BRANCH 55 56
ATOM     56  CB  TRP G   5      47.345  10.925   1.600  1.00 34.46 LIG 0.07  C 
BRANCH 56 57
ATOM     57  CG  TRP G   5      47.898   9.703   2.269  1.00 31.46 LIG-0.03  A 
ATOM     58  CD2 TRP G   5      47.198   8.825   3.162  1.00 33.83 LIG-0.00  A 
ATOM     59  CE3 TRP G   5      45.901   8.806   3.682  1.00 34.43 LIG 0.01  A 
ATOM     60  CE2 TRP G   5      48.102   7.814   3.550  1.00 38.54 LIG 0.04  A 
ATOM     61  CZ3 TRP G   5      45.547   7.791   4.554  1.00 33.62 LIG 0.00  A 
ATOM     62  CH2 TRP G   5      46.462   6.798   4.918  1.00 35.83 LIG 0.00  A 
ATOM     63  CZ2 TRP G   5      47.741   6.786   4.425  1.00 36.99 LIG 0.03  A 
ATOM     64  NE1 TRP G   5      49.291   8.058   2.912  1.00 38.15 LIG-0.36  N 
ATOM     65  CD1 TRP G   5      49.160   9.194   2.143  1.00 30.20 LIG 0.10  A 
ATOM     66 HE1  TRP G   5      50.003   7.580   2.981  1.00 38.15 LIG 0.17  HD
ENDBRANCH 56 57
ENDBRANCH 55 56
BRANCH 55 67
ATOM     67  N   TRP G   5      49.430  12.215   1.761  1.00 35.55 LIG-0.34  N 
ATOM     68 H    TRP G   5      49.187  12.264   2.584  1.00 35.55 LIG 0.16  HD
ATOM     69  C   ARG G   4      50.645  12.528   1.326  1.00 46.16 LIG 0.26  C 
ATOM     70 O    ARG G   4      51.011  12.349   0.161  1.00 51.01 LIG-0.27  OA
BRANCH 69 71
ATOM     71  CA  ARG G   4      51.596  13.104   2.367  1.00 46.30 LIG 0.40  C 
ATOM     72  N   ARG G   4      50.915  13.322   3.641  1.00 41.08 LIG 0.61  N 
BRANCH 71 73
ATOM     73  CB  ARG G   4      52.796  12.175   2.557  1.00 45.78 LIG 0.05  C 
BRANCH 73 74
ATOM     74  CG  ARG G   4      53.908  12.804   3.381  1.00 42.28 LIG 0.02  C 
BRANCH 74 75
ATOM     75  CD  ARG G   4      54.282  14.166   2.815  1.00 34.41 LIG 0.14  C 
BRANCH 75 76
ATOM     76  NE  ARG G   4      55.303  14.826   3.624  1.00 34.91 LIG-0.23  N 
ATOM     77 HE   ARG G   4      55.045  15.384   4.227  1.00 34.91 LIG 0.18  HD
ATOM     78  CZ  ARG G   4      56.606  14.614   3.482  1.00 31.49 LIG 0.67  C 
ATOM     79  NH1 ARG G   4      57.041  13.761   2.565  1.00 30.98 LIG-0.23  N 
ATOM     80  NH2 ARG G   4      57.476  15.249   4.253  1.00 25.73 LIG-0.23  N 
ATOM     81 2HH1 ARG G   4      57.885  13.623   2.472  1.00 30.98 LIG 0.17  HD
ATOM     82 1HH1 ARG G   4      56.479  13.346   2.063  1.00 30.98 LIG 0.17  HD
ATOM     83 1HH2 ARG G   4      57.199  15.802   4.850  1.00 25.73 LIG 0.17  HD
ATOM     84 2HH2 ARG G   4      58.319  15.107   4.156  1.00 25.73 LIG 0.17  HD
ENDBRANCH 75 76
ENDBRANCH 74 75
ENDBRANCH 73 74
ENDBRANCH 71 73
ENDBRANCH 69 71
ENDBRANCH 55 67
ENDBRANCH 51 55
ENDBRANCH 45 48
ENDBRANCH 1 44
TORSDOF 28
