USER: ADFR SOLUTION from run 0
USER: SCORE 17.467373 LL:  -2.448 LR: -16.277 RR:   0.000 FEB:  -8.223
USER: RMSD 0.480814
USER: STATUS Locally minimized using BFGS
USER: GENES 29
USER: genes 0 Translation |==|  0.59653 0.44769 0.45946
USER: genes 1 Rotation |==|  0.48876 0.51500 0.50523 0.99962
USER: genes 2 Torsion [N]-C--CA-[N] |==|  0.40309
USER: genes 3 Torsion [C]-CA--CB-[CG] |==|  0.49338
USER: genes 4 Torsion [CA]-CB--CG-[CD] |==|  0.43373
USER: genes 5 Torsion [CB]-CG--CD-[NE] |==|  0.12110
USER: genes 6 Torsion [CG]-CD--NE-[HE] |==|  0.19960
USER: genes 7 Torsion [C]-CA--N-[C] |==|  0.66679
USER: genes 8 Torsion [N]-C--CA-[N] |==|  0.40544
USER: genes 9 Torsion [C]-CA--N-[C] |==|  0.81182
USER: genes 10 Torsion [N]-C--CA-[N] |==|  0.04275
USER: genes 11 Torsion [C]-CA--CB-[OG] |==|  0.76010
USER: genes 12 Torsion [CA]-CB--OG-[HG] |==|  0.92398
USER: genes 13 Torsion [C]-CA--CB-[CG] |==|  0.53304
USER: genes 14 Torsion [CA]-CB--CG-[CD] |==|  0.79456
USER: genes 15 Torsion [CB]-CG--CD-[CE] |==|  0.54280
USER: genes 16 Torsion [CG]-CD--CE-[NZ] |==|  0.45638
USER: genes 17 Torsion [CD]-CE--NZ-[HZ3] |==|  0.22440
USER: genes 18 Torsion [C]-N--CA-[CB] |==|  0.50144
USER: genes 19 Torsion [N]-CA--C-[N] |==|  0.42778
USER: genes 20 Torsion [C]-N--CA-[CB] |==|  0.49481
USER: genes 21 Torsion [N]-CA--C-[N] |==|  0.38834
USER: genes 22 Torsion [N]-CA--C-[N] |==|  0.40799
USER: genes 23 Torsion [C]-N--CA-[CB] |==|  0.52081
USER: genes 24 Torsion [N]-CA--C-[O] |==|  0.44560
USER: genes 25 Torsion [N]-CA--CB-[CG] |==|  0.49665
USER: genes 26 Torsion [CA]-CB--CG-[CD] |==|  0.50376
USER: genes 27 Torsion [CB]-CG--CD-[NE] |==|  0.78572
USER: genes 28 Torsion [CG]-CD--NE-[HE] |==|  0.79347
ROOT
ATOM      1  C   ARG A  15      41.994  58.682  40.992  1.00 45.62 LIG 0.24  C 
ATOM      2 O    ARG A  15      41.083  58.727  41.832  1.00 41.49 LIG-0.27  OA
ATOM      3  N   ALA A  16      42.914  59.644  40.873  1.00 45.00 LIG-0.35  N 
ATOM      4 H    ALA A  16      43.612  59.586  40.374  1.00 45.00 LIG 0.16  HD
ENDROOT
BRANCH 1 5
ATOM      5  CA  ARG A  15      42.078  57.508  40.016  1.00 46.83 LIG 0.18  C 
BRANCH 5 6
ATOM      6  CB  ARG A  15      41.179  57.813  38.796  1.00 49.57 LIG 0.04  C 
BRANCH 6 7
ATOM      7  CG  ARG A  15      41.190  56.749  37.677  1.00 52.69 LIG 0.02  C 
BRANCH 7 8
ATOM      8  CD  ARG A  15      39.920  56.787  36.825  1.00 53.59 LIG 0.14  C 
BRANCH 8 9
ATOM      9  NE  ARG A  15      39.522  58.150  36.483  1.00 54.25 LIG-0.23  N 
ATOM     10  CZ  ARG A  15      38.475  58.791  36.990  1.00 51.22 LIG 0.67  C 
ATOM     11  NH1 ARG A  15      37.669  58.203  37.865  1.00 49.54 LIG-0.23  N 
ATOM     12  NH2 ARG A  15      38.224  60.031  36.606  1.00 55.83 LIG-0.23  N 
ATOM     13 2HH1 ARG A  15      36.994  58.631  38.184  1.00 49.54 LIG 0.17  HD
ATOM     14 1HH1 ARG A  15      37.820  57.393  38.113  1.00 49.54 LIG 0.17  HD
ATOM     15 2HH2 ARG A  15      37.548  60.453  36.930  1.00 55.83 LIG 0.17  HD
ATOM     16 1HH2 ARG A  15      38.736  60.416  36.033  1.00 55.83 LIG 0.17  HD
ATOM     17 HE   ARG A  15      40.005  58.571  35.909  1.00 54.25 LIG 0.18  HD
ENDBRANCH 8 9
ENDBRANCH 7 8
ENDBRANCH 6 7
ENDBRANCH 5 6
BRANCH 5 18
ATOM     18  N   ARG A  15      41.672  56.246  40.652  1.00 49.13 LIG-0.35  N 
ATOM     19 H    ARG A  15      40.866  56.245  40.951  1.00 49.13 LIG 0.16  HD
ATOM     20  C   LYS A  14      42.499  55.202  40.747  1.00 54.29 LIG 0.24  C 
ATOM     21 O    LYS A  14      43.658  55.232  40.325  1.00 54.85 LIG-0.27  OA
BRANCH 20 22
ATOM     22  CA  LYS A  14      41.972  53.924  41.408  1.00 53.70 LIG 0.18  C 
BRANCH 22 23
ATOM     23  N   LYS A  14      42.600  52.783  40.729  1.00 51.97 LIG-0.35  N 
ATOM     24  C   SER A  13      42.309  52.492  39.459  1.00 54.08 LIG 0.26  C 
ATOM     25 O    SER A  13      41.377  53.032  38.833  1.00 52.27 LIG-0.27  OA
ATOM     26 H    LYS A  14      43.154  52.336  41.213  1.00 51.97 LIG 0.16  HD
BRANCH 24 27
ATOM     27  CA  SER A  13      43.204  51.457  38.769  1.00 61.00 LIG 0.42  C 
ATOM     28  N   SER A  13      44.032  50.668  39.691  1.00 64.04 LIG 0.62  N 
BRANCH 27 29
ATOM     29  CB  SER A  13      42.365  50.544  37.881  1.00 62.15 LIG 0.21  C 
BRANCH 29 30
ATOM     30 OG   SER A  13      41.852  49.466  38.635  1.00 63.97 LIG-0.40  OA
ATOM     31 HG   SER A  13      42.365  49.306  39.280  1.00 63.97 LIG 0.21  HD
ENDBRANCH 29 30
ENDBRANCH 27 29
ENDBRANCH 24 27
ENDBRANCH 22 23
BRANCH 22 32
ATOM     32  CB  LYS A  14      42.331  53.947  42.905  1.00 53.93 LIG 0.04  C 
BRANCH 32 33
ATOM     33  CG  LYS A  14      42.133  52.626  43.668  1.00 52.68 LIG 0.00  C 
BRANCH 33 34
ATOM     34  CD  LYS A  14      40.666  52.321  43.928  1.00 44.05 LIG 0.03  C 
BRANCH 34 35
ATOM     35  CE  LYS A  14      40.499  51.234  44.992  1.00 42.34 LIG 0.23  C 
BRANCH 35 36
ATOM     36  NZ  LYS A  14      39.068  51.210  45.517  1.00 42.55 LIG-0.08  N 
ATOM     37 HZ1  LYS A  14      39.050  50.811  46.313  1.00 42.55 LIG 0.27  HD
ATOM     38 HZ2  LYS A  14      38.768  52.043  45.598  1.00 42.55 LIG 0.27  HD
ATOM     39 HZ3  LYS A  14      38.550  50.762  44.949  1.00 42.55 LIG 0.27  HD
ENDBRANCH 35 36
ENDBRANCH 34 35
ENDBRANCH 33 34
ENDBRANCH 32 33
ENDBRANCH 22 32
ENDBRANCH 20 22
ENDBRANCH 5 18
ENDBRANCH 1 5
BRANCH 3 40
ATOM     40  CA  ALA A  16      42.794  60.898  41.606  1.00 45.18 LIG 0.17  C 
ATOM     41  CB  ALA A  16      43.957  61.829  41.291  1.00 49.83 LIG 0.04  C 
BRANCH 40 42
ATOM     42  C   ALA A  16      41.468  61.580  41.244  1.00 49.79 LIG 0.24  C 
ATOM     43 O    ALA A  16      40.906  61.364  40.163  1.00 50.51 LIG-0.27  OA
ATOM     44  N   ARG A  17      40.968  62.395  42.164  1.00 50.44 LIG-0.35  N 
ATOM     45 H    ARG A  17      41.301  62.476  42.952  1.00 50.44 LIG 0.16  HD
BRANCH 44 46
ATOM     46  CA  ARG A  17      39.807  63.232  41.928  1.00 55.17 LIG 0.18  C 
BRANCH 46 47
ATOM     47  C   ARG A  17      40.130  64.186  40.774  1.00 63.19 LIG 0.24  C 
ATOM     48  N   PRO A  18      39.154  64.414  39.884  1.00 71.41 LIG-0.34  N 
ATOM     49  CD  PRO A  18      37.999  63.513  39.754  1.00 72.83 LIG 0.13  C 
ATOM     50  CA  PRO A  18      39.229  65.376  38.766  1.00 77.88 LIG 0.18  C 
ATOM     51  CG  PRO A  18      37.621  63.678  38.309  1.00 77.48 LIG 0.02  C 
ATOM     52  CB  PRO A  18      37.919  65.127  38.011  1.00 79.41 LIG 0.04  C 
ATOM     53 O    ARG A  17      41.258  64.672  40.663  1.00 63.05 LIG-0.27  OA
BRANCH 50 54
ATOM     54  C   PRO A  18      39.293  66.839  39.217  1.00 78.56 LIG 0.24  C 
ATOM     55 O    PRO A  18      38.673  67.187  40.230  1.00 75.87 LIG-0.27  OA
ATOM     56  N   ALA A  19      40.009  67.666  38.447  1.00 80.14 LIG-0.35  N 
ATOM     57 H    ALA A  19      40.321  67.432  37.680  1.00 80.14 LIG 0.16  HD
BRANCH 56 58
ATOM     58  CA  ALA A  19      40.345  69.055  38.810  1.00 81.44 LIG 0.16  C 
ATOM     59  CB  ALA A  19      41.007  69.757  37.628  1.00 83.90 LIG 0.04  C 
BRANCH 58 60
ATOM     60  C   ALA A  19      39.217  69.924  39.376  1.00 82.06 LIG 0.22  C 
ATOM     61 O    ALA A  19      39.483  70.948  40.028  1.00 84.95 LIG-0.29  OA
ENDBRANCH 58 60
ENDBRANCH 56 58
ENDBRANCH 50 54
ENDBRANCH 46 47
BRANCH 46 62
ATOM     62  CB  ARG A  17      39.501  63.994  43.230  1.00 51.88 LIG 0.04  C 
BRANCH 62 63
ATOM     63  CG  ARG A  17      38.342  64.949  43.202  1.00 49.36 LIG 0.02  C 
BRANCH 63 64
ATOM     64  CD  ARG A  17      38.195  65.656  44.580  1.00 46.57 LIG 0.14  C 
BRANCH 64 65
ATOM     65  NE  ARG A  17      37.572  64.800  45.609  1.00 43.47 LIG-0.23  N 
ATOM     66 HE   ARG A  17      36.725  64.664  45.551  1.00 43.47 LIG 0.18  HD
ATOM     67  CZ  ARG A  17      38.222  64.219  46.625  1.00 44.86 LIG 0.67  C 
ATOM     68  NH2 ARG A  17      37.533  63.481  47.489  1.00 38.62 LIG-0.23  N 
ATOM     69  NH1 ARG A  17      39.549  64.383  46.796  1.00 40.09 LIG-0.23  N 
ATOM     70 1HH2 ARG A  17      36.685  63.384  47.390  1.00 38.62 LIG 0.17  HD
ATOM     71 2HH2 ARG A  17      37.937  63.101  48.147  1.00 38.62 LIG 0.17  HD
ATOM     72 2HH1 ARG A  17      39.948  64.001  47.455  1.00 40.09 LIG 0.17  HD
ATOM     73 1HH1 ARG A  17      39.997  64.870  46.246  1.00 40.09 LIG 0.17  HD
ENDBRANCH 64 65
ENDBRANCH 63 64
ENDBRANCH 62 63
ENDBRANCH 46 62
ENDBRANCH 44 46
ENDBRANCH 40 42
ENDBRANCH 3 40
TORSDOF 27
