USER: ADFR SOLUTION from run 0
USER: SCORE 15.748328 LL:  -5.739 LR: -12.326 RR:   0.000 FEB:  -5.465
USER: RMSD 0.077367
USER: STATUS Locally minimized using BFGS
USER: GENES 25
USER: genes 0 Translation |==|  0.67306 0.52982 0.56704
USER: genes 1 Rotation |==|  0.50037 0.49814 0.49794 0.99999
USER: genes 2 Torsion [C]-N--CA-[C] |==|  0.63323
USER: genes 3 Torsion [N]-CA--C-[N] |==|  0.46272
USER: genes 4 Torsion [C]-N--CA-[C] |==|  0.63127
USER: genes 5 Torsion [N]-CA--C-[N] |==|  0.48503
USER: genes 6 Torsion [C]-N--CA-[C] |==|  0.70896
USER: genes 7 Torsion [N]-CA--C-[N] |==|  0.33222
USER: genes 8 Torsion [C]-N--CA-[CB] |==|  0.33618
USER: genes 9 Torsion [N]-CA--C-[N] |==|  0.42850
USER: genes 10 Torsion [N]-CA--CB-[OG] |==|  0.83350
USER: genes 11 Torsion [CA]-CB--OG-[HG] |==|  0.02720
USER: genes 12 Torsion [N]-CA--CB-[CG] |==|  0.82402
USER: genes 13 Torsion [CA]-CB--CG-[OD2] |==|  0.34234
USER: genes 14 Torsion [N]-CA--CB-[SG] |==|  0.18324
USER: genes 15 Torsion [CA]-CB--SG-[HG] |==|  0.05341
USER: genes 16 Torsion [N]-CA--CB-[OG1] |==|  0.16604
USER: genes 17 Torsion [CA]-CB--OG1-[HG1] |==|  0.34726
USER: genes 18 Torsion [N]-C--CA-[N] |==|  0.90340
USER: genes 19 Torsion [C]-CA--N-[C] |==|  0.84308
USER: genes 20 Torsion [N]-C--CA-[N] |==|  0.97214
USER: genes 21 Torsion [C]-CA--N-[C] |==|  0.81852
USER: genes 22 Torsion [N]-C--CA-[N] |==|  0.98729
USER: genes 23 Torsion [C]-CA--CB-[CG] |==|  0.77907
USER: genes 24 Torsion [CA]-CB--CG-[CD2] |==|  0.72946
ROOT
ATOM      1  C   ALA E  68      10.673   4.290  28.703  1.00 21.38 LIG 0.24  C 
ATOM      2 O    ALA E  68      11.485   3.366  28.580  1.00 23.30 LIG-0.27  OA
ATOM      3  N   THR E  69       9.347   4.114  28.667  1.00 18.30 LIG-0.34  N 
ATOM      4 H    THR E  69       8.776   4.757  28.647  1.00 18.30 LIG 0.16  HD
ENDROOT
BRANCH 3 5
ATOM      5  CA  THR E  69       8.757   2.777  28.661  1.00 19.45 LIG 0.20  C 
BRANCH 5 6
ATOM      6  C   THR E  69       7.680   2.631  27.570  1.00 19.66 LIG 0.24  C 
ATOM      7  N   CYS E  70       7.275   1.406  27.289  1.00 18.57 LIG-0.34  N 
ATOM      8 H    CYS E  70       7.529   0.704  27.717  1.00 18.57 LIG 0.16  HD
ATOM      9 O    THR E  69       7.245   3.602  26.984  1.00 20.15 LIG-0.27  OA
BRANCH 7 10
ATOM     10  CA  CYS E  70       6.342   1.147  26.206  1.00 18.45 LIG 0.18  C 
BRANCH 10 11
ATOM     11  C   CYS E  70       5.278   0.219  26.762  1.00 19.42 LIG 0.24  C 
ATOM     12  N   ASP E  71       4.249  -0.055  25.942  1.00 17.61 LIG-0.34  N 
ATOM     13 H    ASP E  71       4.164   0.292  25.159  1.00 17.61 LIG 0.16  HD
ATOM     14 O    CYS E  70       5.385  -0.194  27.922  1.00 18.07 LIG-0.27  OA
BRANCH 12 15
ATOM     15  CA  ASP E  71       3.179  -0.966  26.297  1.00 16.95 LIG 0.19  C 
BRANCH 15 16
ATOM     16  C   ASP E  71       3.473  -2.205  25.506  1.00 18.90 LIG 0.24  C 
ATOM     17 O    ASP E  71       3.489  -2.151  24.251  1.00 16.52 LIG-0.27  OA
ATOM     18  N   SER E  72       3.682  -3.318  26.212  1.00 19.80 LIG-0.34  N 
ATOM     19 H    SER E  72       3.608  -3.369  27.067  1.00 19.80 LIG 0.16  HD
BRANCH 18 20
ATOM     20  CA  SER E  72       4.064  -4.564  25.556  1.00 20.01 LIG 0.20  C 
BRANCH 20 21
ATOM     21  C   SER E  72       3.050  -5.655  25.696  1.00 24.22 LIG 0.29  C 
ATOM     22  N   NH2 E  73       3.072  -6.604  24.694  1.00 28.43 LIG-0.11  N 
ATOM     23 O    SER E  72       2.140  -5.564  26.488  1.00 27.83 LIG-0.27  OA
ENDBRANCH 20 21
BRANCH 20 24
ATOM     24  CB  SER E  72       5.391  -5.048  26.090  1.00 25.59 LIG 0.20  C 
BRANCH 24 25
ATOM     25 OG   SER E  72       6.403  -4.099  25.862  1.00 28.15 LIG-0.40  OA
ATOM     26 HG   SER E  72       6.059  -3.381  25.591  1.00 28.15 LIG 0.21  HD
ENDBRANCH 24 25
ENDBRANCH 20 24
ENDBRANCH 18 20
ENDBRANCH 15 16
BRANCH 15 27
ATOM     27  CB  ASP E  71       1.806  -0.363  25.963  1.00 12.80 LIG 0.15  C 
BRANCH 27 28
ATOM     28  CG  ASP E  71       1.527   0.882  26.761  1.00 14.21 LIG 0.17  C 
ATOM     29 OD2  ASP E  71       1.263   1.954  26.197  1.00 15.44 LIG-0.65  OA
ATOM     30 OD1  ASP E  71       1.597   0.805  27.995  1.00 16.80 LIG-0.65  OA
ENDBRANCH 27 28
ENDBRANCH 15 27
ENDBRANCH 12 15
ENDBRANCH 10 11
BRANCH 10 31
ATOM     31  CB  CYS E  70       7.064   0.522  24.980  1.00 19.19 LIG 0.10  C 
BRANCH 31 32
ATOM     32 SG   CYS E  70       7.762  -1.131  25.202  1.00 25.14 LIG-0.18  SA
ATOM     33 HG   CYS E  70       7.247  -1.660  26.149  1.00 25.14 LIG 0.10  HD
ENDBRANCH 31 32
ENDBRANCH 10 31
ENDBRANCH 7 10
ENDBRANCH 5 6
BRANCH 5 34
ATOM     34  CB  THR E  69       8.212   2.425  30.057  1.00 17.77 LIG 0.15  C 
ATOM     35  CG2 THR E  69       9.308   2.489  31.064  1.00 20.71 LIG 0.04  C 
BRANCH 34 36
ATOM     36 OG1  THR E  69       7.220   3.350  30.463  1.00 16.43 LIG-0.39  OA
ATOM     37 HG1  THR E  69       6.517   2.937  30.663  1.00 16.43 LIG 0.21  HD
ENDBRANCH 34 36
ENDBRANCH 5 34
ENDBRANCH 3 5
BRANCH 1 38
ATOM     38  CA  ALA E  68      11.181   5.714  28.911  1.00 20.08 LIG 0.17  C 
ATOM     39  CB  ALA E  68      11.285   6.026  30.385  1.00 20.16 LIG 0.04  C 
BRANCH 38 40
ATOM     40  N   ALA E  68      10.314   6.661  28.267  1.00 18.16 LIG-0.35  N 
ATOM     41 H    ALA E  68       9.994   7.269  28.784  1.00 18.16 LIG 0.16  HD
ATOM     42  C   TRP E  67      10.057   6.570  26.977  1.00 18.88 LIG 0.24  C 
ATOM     43 O    TRP E  67      10.470   5.661  26.238  1.00 21.47 LIG-0.27  OA
BRANCH 42 44
ATOM     44  CA  TRP E  67       9.126   7.607  26.462  1.00 17.18 LIG 0.18  C 
BRANCH 44 45
ATOM     45  N   TRP E  67       8.486   8.399  27.572  1.00 16.72 LIG-0.35  N 
ATOM     46  C   PRO E  66       7.639   7.889  28.479  1.00 16.87 LIG 0.24  C 
ATOM     47 O    PRO E  66       7.178   6.750  28.421  1.00 18.41 LIG-0.27  OA
ATOM     48 H    TRP E  67       8.718   9.226  27.572  1.00 16.72 LIG 0.16  HD
BRANCH 46 49
ATOM     49  CA  PRO E  66       7.183   8.806  29.640  1.00 17.04 LIG 0.18  C 
ATOM     50  CB  PRO E  66       5.685   9.142  29.553  1.00 18.40 LIG 0.04  C 
ATOM     51  CG  PRO E  66       5.597  10.558  29.063  1.00 18.41 LIG 0.02  C 
ATOM     52  CD  PRO E  66       6.851  11.236  29.538  1.00 21.21 LIG 0.13  C 
ATOM     53  N   PRO E  66       7.816  10.139  29.694  1.00 19.82 LIG-0.34  N 
ATOM     54  C   ACE E  65       9.149  10.213  30.000  1.00 17.72 LIG 0.22  C 
ATOM     55  CH3 ACE E  65       9.742  11.559  30.102  1.00 22.93 LIG 0.12  C 
ATOM     56 O    ACE E  65       9.859   9.246  30.145  1.00 18.13 LIG-0.27  OA
ENDBRANCH 46 49
ENDBRANCH 44 45
BRANCH 44 57
ATOM     57  CB  TRP E  67       9.832   8.546  25.449  1.00 18.36 LIG 0.07  C 
BRANCH 57 58
ATOM     58  CG  TRP E  67      10.646   9.570  26.058  1.00 19.51 LIG-0.03  A 
ATOM     59  CD1 TRP E  67      11.920   9.445  26.492  1.00 20.71 LIG 0.10  A 
ATOM     60  NE1 TRP E  67      12.361  10.631  27.000  1.00 21.73 LIG-0.36  N 
ATOM     61  CE2 TRP E  67      11.359  11.553  26.897  1.00 22.59 LIG 0.04  A 
ATOM     62 HE1  TRP E  67      13.143  10.775  27.330  1.00 21.73 LIG 0.17  HD
ATOM     63  CD2 TRP E  67      10.260  10.909  26.300  1.00 20.57 LIG-0.00  A 
ATOM     64  CZ2 TRP E  67      11.323  12.887  27.269  1.00 23.91 LIG 0.03  A 
ATOM     65  CE3 TRP E  67       9.092  11.636  26.072  1.00 19.56 LIG 0.01  A 
ATOM     66  CZ3 TRP E  67       9.054  12.939  26.434  1.00 20.82 LIG 0.00  A 
ATOM     67  CH2 TRP E  67      10.162  13.567  27.028  1.00 24.07 LIG 0.00  A 
ENDBRANCH 57 58
ENDBRANCH 44 57
ENDBRANCH 42 44
ENDBRANCH 38 40
ENDBRANCH 1 38
TORSDOF 23
