USER: ADFR SOLUTION from run 0
USER: SCORE 17.409080 LL:  -4.190 LR: -15.982 RR:   0.000 FEB:  -7.033
USER: RMSD 0.195616
USER: STATUS Locally minimized using BFGS
USER: GENES 32
USER: genes 0 Translation |==|  0.65105 0.50761 0.44310
USER: genes 1 Rotation |==|  0.50430 0.49908 0.50744 0.99993
USER: genes 2 Torsion [C]-CA--N-[C] |==|  0.67266
USER: genes 3 Torsion [N]-C--CA-[N] |==|  0.86970
USER: genes 4 Torsion [C]-CA--N-[C] |==|  0.84748
USER: genes 5 Torsion [N]-C--CA-[N] |==|  0.41647
USER: genes 6 Torsion [C]-CA--CB-[CG] |==|  0.24261
USER: genes 7 Torsion [CA]-CB--CG-[CD] |==|  0.48517
USER: genes 8 Torsion [CB]-CG--CD-[NE] |==|  0.46913
USER: genes 9 Torsion [CG]-CD--NE-[CZ] |==|  0.27560
USER: genes 10 Torsion [C]-CA--N-[C] |==|  0.56169
USER: genes 11 Torsion [N]-C--CA-[N] |==|  0.41211
USER: genes 12 Torsion [C]-CA--N-[H1] |==|  0.46668
USER: genes 13 Torsion [C]-CA--CB-[CG2] |==|  0.14667
USER: genes 14 Torsion [CA]-CB--OG1-[HG1] |==|  0.82062
USER: genes 15 Torsion [N]-CA--CB-[CG] |==|  0.82556
USER: genes 16 Torsion [CA]-CB--CG-[CD] |==|  0.48405
USER: genes 17 Torsion [CB]-CG--CD-[CE] |==|  0.50811
USER: genes 18 Torsion [CG]-CD--CE-[NZ] |==|  0.48899
USER: genes 19 Torsion [CD]-CE--NZ-[HZ1] |==|  0.51397
USER: genes 20 Torsion [N]-CA--C-[N] |==|  0.41214
USER: genes 21 Torsion [C]-N--CA-[CB] |==|  0.45000
USER: genes 22 Torsion [N]-CA--C-[N] |==|  0.39692
USER: genes 23 Torsion [C]-N--CA-[CB] |==|  0.17192
USER: genes 24 Torsion [N]-CA--CB-[CG2] |==|  0.53607
USER: genes 25 Torsion [CA]-CB--OG1-[HG1] |==|  0.89903
USER: genes 26 Torsion [N]-CA--C-[N] |==|  0.30286
USER: genes 27 Torsion [C]-N--CA-[CB] |==|  0.48031
USER: genes 28 Torsion [N]-CA--C-[O] |==|  0.33478
USER: genes 29 Torsion [N]-CA--CB-[CG] |==|  0.09472
USER: genes 30 Torsion [CA]-CB--CG-[CD] |==|  0.49763
USER: genes 31 Torsion [CB]-CG--CD-[NE2] |==|  0.04798
ROOT
ATOM      1  CA  LYS B   4      37.882  55.290   9.445  1.00 30.17 LIG 0.18  C 
ENDROOT
BRANCH 1 2
ATOM      2  N   LYS B   4      38.442  54.049   9.943  1.00 25.68 LIG-0.35  N 
ATOM      3 H    LYS B   4      37.971  53.354   9.756  1.00 25.68 LIG 0.16  HD
ATOM      4  C   THR B   3      39.589  53.999  10.630  1.00 23.58 LIG 0.24  C 
ATOM      5 O    THR B   3      40.281  54.993  10.882  1.00 24.56 LIG-0.27  OA
BRANCH 4 6
ATOM      6  CA  THR B   3      40.024  52.620  11.130  1.00 21.46 LIG 0.20  C 
BRANCH 6 7
ATOM      7  N   THR B   3      38.931  51.912  11.763  1.00 21.22 LIG-0.34  N 
ATOM      8 H    THR B   3      38.781  51.135  11.427  1.00 21.22 LIG 0.16  HD
ATOM      9  C   ARG B   2      38.238  52.416  12.756  1.00 21.22 LIG 0.24  C 
ATOM     10 O    ARG B   2      38.457  53.509  13.209  1.00 22.30 LIG-0.27  OA
BRANCH 9 11
ATOM     11  CA  ARG B   2      37.136  51.517  13.337  1.00 22.28 LIG 0.18  C 
BRANCH 11 12
ATOM     12  CB  ARG B   2      35.784  51.737  12.652  1.00 24.95 LIG 0.04  C 
BRANCH 12 13
ATOM     13  CG  ARG B   2      35.487  50.935  11.405  1.00 25.01 LIG 0.02  C 
BRANCH 13 14
ATOM     14  CD  ARG B   2      34.038  51.208  10.959  1.00 28.81 LIG 0.14  C 
BRANCH 14 15
ATOM     15  NE  ARG B   2      33.691  50.703   9.630  1.00 31.55 LIG-0.23  N 
ATOM     16 HE   ARG B   2      33.928  51.177   8.953  1.00 31.55 LIG 0.18  HD
ATOM     17  CZ  ARG B   2      33.033  49.561   9.381  1.00 33.58 LIG 0.67  C 
ATOM     18  NH2 ARG B   2      32.691  48.736  10.363  1.00 33.13 LIG-0.23  N 
ATOM     19  NH1 ARG B   2      32.739  49.227   8.141  1.00 37.12 LIG-0.23  N 
ATOM     20 1HH2 ARG B   2      32.890  48.930  11.177  1.00 33.13 LIG 0.17  HD
ATOM     21 2HH2 ARG B   2      32.269  48.007  10.186  1.00 33.13 LIG 0.17  HD
ATOM     22 2HH1 ARG B   2      32.317  48.494   7.981  1.00 37.12 LIG 0.17  HD
ATOM     23 1HH1 ARG B   2      32.969  49.741   7.491  1.00 37.12 LIG 0.17  HD
ENDBRANCH 14 15
ENDBRANCH 13 14
ENDBRANCH 12 13
ENDBRANCH 11 12
BRANCH 11 24
ATOM     24  N   ARG B   2      36.967  51.827  14.744  1.00 22.27 LIG-0.35  N 
ATOM     25  C   ALA B   1      36.425  50.934  15.556  1.00 22.85 LIG 0.25  C 
ATOM     26 O    ALA B   1      36.049  49.826  15.157  1.00 22.62 LIG-0.27  OA
ATOM     27 H    ARG B   2      37.240  52.607  14.983  1.00 22.27 LIG 0.16  HD
BRANCH 25 28
ATOM     28  CA  ALA B   1      36.258  51.364  17.023  1.00 23.76 LIG 0.27  C 
ATOM     29  CB  ALA B   1      37.509  51.068  17.842  1.00 24.39 LIG 0.05  C 
BRANCH 28 30
ATOM     30  N   ALA B   1      35.092  50.756  17.654  1.00 25.03 LIG-0.07  N 
ATOM     31 H1   ALA B   1      35.128  50.887  18.533  1.00 25.03 LIG 0.28  HD
ATOM     32 H3   ALA B   1      35.085  49.882  17.484  1.00 25.03 LIG 0.28  HD
ATOM     33 H2   ALA B   1      34.351  51.126  17.329  1.00 25.03 LIG 0.28  HD
ENDBRANCH 28 30
ENDBRANCH 25 28
ENDBRANCH 11 24
ENDBRANCH 9 11
ENDBRANCH 6 7
BRANCH 6 34
ATOM     34  CB  THR B   3      40.601  51.803   9.979  1.00 21.53 LIG 0.15  C 
ATOM     35  CG2 THR B   3      41.667  52.543   9.269  1.00 22.92 LIG 0.04  C 
BRANCH 34 36
ATOM     36 OG1  THR B   3      41.135  50.601  10.513  1.00 22.47 LIG-0.39  OA
ATOM     37 HG1  THR B   3      41.780  50.782  11.020  1.00 22.47 LIG 0.21  HD
ENDBRANCH 34 36
ENDBRANCH 6 34
ENDBRANCH 4 6
ENDBRANCH 1 2
BRANCH 1 38
ATOM     38  CB  LYS B   4      37.734  55.221   7.949  1.00 32.55 LIG 0.04  C 
BRANCH 38 39
ATOM     39  CG  LYS B   4      39.045  55.065   7.231  1.00 30.49 LIG 0.00  C 
BRANCH 39 40
ATOM     40  CD  LYS B   4      38.806  54.859   5.735  1.00 34.18 LIG 0.03  C 
BRANCH 40 41
ATOM     41  CE  LYS B   4      40.118  54.629   5.005  1.00 33.34 LIG 0.23  C 
BRANCH 41 42
ATOM     42  NZ  LYS B   4      39.953  54.329   3.560  1.00 36.76 LIG-0.08  N 
ATOM     43 HZ1  LYS B   4      40.745  54.133   3.205  1.00 36.76 LIG 0.27  HD
ATOM     44 HZ2  LYS B   4      39.405  53.635   3.462  1.00 36.76 LIG 0.27  HD
ATOM     45 HZ3  LYS B   4      39.609  55.038   3.147  1.00 36.76 LIG 0.27  HD
ENDBRANCH 41 42
ENDBRANCH 40 41
ENDBRANCH 39 40
ENDBRANCH 38 39
ENDBRANCH 1 38
BRANCH 1 46
ATOM     46  C   LYS B   4      36.545  55.533  10.082  1.00 34.41 LIG 0.24  C 
ATOM     47  N   GLN B   5      36.192  56.795  10.279  1.00 39.81 LIG-0.35  N 
ATOM     48 H    GLN B   5      36.637  57.481  10.013  1.00 39.81 LIG 0.16  HD
ATOM     49 O    LYS B   4      35.817  54.564  10.380  1.00 33.27 LIG-0.27  OA
BRANCH 47 50
ATOM     50  CA  GLN B   5      34.953  57.089  11.001  1.00 46.50 LIG 0.18  C 
BRANCH 50 51
ATOM     51  C   GLN B   5      33.708  56.721  10.190  1.00 52.91 LIG 0.24  C 
ATOM     52  N   THR B   6      32.687  56.217  10.895  1.00 59.38 LIG-0.34  N 
ATOM     53 H    THR B   6      32.660  56.243  11.755  1.00 59.38 LIG 0.16  HD
ATOM     54 O    GLN B   5      33.704  56.830   8.973  1.00 55.19 LIG-0.27  OA
BRANCH 52 55
ATOM     55  CA  THR B   6      31.488  55.555  10.285  1.00 66.40 LIG 0.20  C 
BRANCH 55 56
ATOM     56  CB  THR B   6      31.852  54.266   9.470  1.00 64.05 LIG 0.15  C 
ATOM     57  CG2 THR B   6      30.671  53.816   8.616  1.00 70.60 LIG 0.04  C 
BRANCH 56 58
ATOM     58 OG1  THR B   6      32.993  54.482   8.621  1.00 62.34 LIG-0.39  OA
ATOM     59 HG1  THR B   6      32.971  55.265   8.317  1.00 62.34 LIG 0.21  HD
ENDBRANCH 56 58
ENDBRANCH 55 56
BRANCH 55 60
ATOM     60  C   THR B   6      30.438  55.104  11.343  1.00 68.19 LIG 0.24  C 
ATOM     61 O    THR B   6      30.666  54.129  12.091  1.00 63.20 LIG-0.27  OA
ATOM     62  N   ALA B   7      29.295  55.796  11.384  1.00 78.65 LIG-0.35  N 
ATOM     63 H    ALA B   7      29.168  56.530  10.954  1.00 78.65 LIG 0.16  HD
BRANCH 62 64
ATOM     64  CA  ALA B   7      28.140  55.359  12.174  1.00 81.14 LIG 0.16  C 
ATOM     65  CB  ALA B   7      27.047  56.431  12.168  1.00 91.84 LIG 0.04  C 
BRANCH 64 66
ATOM     66  C   ALA B   7      27.589  54.033  11.627  1.00 81.58 LIG 0.22  C 
ATOM     67 O    ALA B   7      27.535  53.022  12.334  1.00 77.41 LIG-0.29  OA
ENDBRANCH 64 66
ENDBRANCH 62 64
ENDBRANCH 55 60
ENDBRANCH 52 55
ENDBRANCH 50 51
BRANCH 50 68
ATOM     68  CB  GLN B   5      34.879  58.528  11.538  1.00 52.07 LIG 0.04  C 
BRANCH 68 69
ATOM     69  CG  GLN B   5      35.520  59.629  10.727  1.00 55.77 LIG 0.10  C 
BRANCH 69 70
ATOM     70  CD  GLN B   5      35.333  60.984  11.394  1.00 63.27 LIG 0.21  C 
ATOM     71  NE2 GLN B   5      34.995  60.963  12.669  1.00 63.75 LIG-0.37  N 
ATOM     72 21HE GLN B   5      34.900  60.212  13.076  1.00 63.75 LIG 0.16  HD
ATOM     73 22HE GLN B   5      34.869  61.701  13.092  1.00 63.75 LIG 0.16  HD
ATOM     74 OE1  GLN B   5      35.479  62.021  10.777  1.00 68.43 LIG-0.27  OA
ENDBRANCH 69 70
ENDBRANCH 68 69
ENDBRANCH 50 68
ENDBRANCH 47 50
ENDBRANCH 1 46
TORSDOF 30
