USER: ADFR SOLUTION from run 0
USER: SCORE 16.885045 LL:  -7.644 LR:  -9.826 RR:   0.000 FEB:  -0.877
USER: RMSD 0.784673
USER: STATUS Locally minimized using BFGS
USER: GENES 32
USER: genes 0 Translation |==|  0.52146 0.43480 0.55683
USER: genes 1 Rotation |==|  0.48553 0.52250 0.52380 0.99872
USER: genes 2 Torsion [N]-CA--C-[N] |==|  0.88519
USER: genes 3 Torsion [C]-N--CA-[C] |==|  0.78342
USER: genes 4 Torsion [N]-CA--C-[N] |==|  0.92205
USER: genes 5 Torsion [C]-N--CA-[C] |==|  0.77389
USER: genes 6 Torsion [N]-CA--C-[N] |==|  0.90712
USER: genes 7 Torsion [C]-N--CA-[CB] |==|  0.88432
USER: genes 8 Torsion [N]-CA--CB-[CG] |==|  0.82791
USER: genes 9 Torsion [CA]-CB--CG-[CD] |==|  0.58019
USER: genes 10 Torsion [CB]-CG--CD-[NE2] |==|  0.52412
USER: genes 11 Torsion [N]-CA--C-[O] |==|  0.36609
USER: genes 12 Torsion [N]-CA--CB-[CG] |==|  0.76626
USER: genes 13 Torsion [CA]-CB--CG-[CD2] |==|  0.81594
USER: genes 14 Torsion [N]-CA--CB-[CG] |==|  0.85719
USER: genes 15 Torsion [CA]-CB--CG-[CD1] |==|  0.53830
USER: genes 16 Torsion [C]-CA--CB-[CG] |==|  0.14241
USER: genes 17 Torsion [CA]-CB--CG-[CD] |==|  0.60128
USER: genes 18 Torsion [CB]-CG--CD-[NE] |==|  0.88085
USER: genes 19 Torsion [CG]-CD--NE-[CZ] |==|  0.36100
USER: genes 20 Torsion [C]-CA--N-[C] |==|  0.84900
USER: genes 21 Torsion [N]-C--CA-[N] |==|  0.85025
USER: genes 22 Torsion [C]-CA--CB-[CG] |==|  0.38963
USER: genes 23 Torsion [CA]-CB--CG-[ND1] |==|  0.75641
USER: genes 24 Torsion [C]-CA--N-[C] |==|  0.84575
USER: genes 25 Torsion [N]-C--CA-[N] |==|  0.88525
USER: genes 26 Torsion [C]-CA--CB-[CG] |==|  0.15575
USER: genes 27 Torsion [CA]-CB--CG-[CD2] |==|  0.49828
USER: genes 28 Torsion [C]-CA--N-[C] |==|  0.85000
USER: genes 29 Torsion [N]-C--CA-[N] |==|  0.89031
USER: genes 30 Torsion [C]-CA--CB-[CG1] |==|  0.47865
USER: genes 31 Torsion [CA]-CB--CG1-[CD1] |==|  0.45399
ROOT
ATOM      1  CA  ARG D 692      10.086 -16.224  40.027  1.00 48.73 LIG 0.18  C 
ENDROOT
BRANCH 1 2
ATOM      2  C   ARG D 692       8.849 -15.408  40.365  1.00 46.10 LIG 0.24  C 
ATOM      3  N   LEU D 693       8.801 -14.149  39.938  1.00 50.64 LIG-0.35  N 
ATOM      4 H    LEU D 693       9.408 -13.761  39.468  1.00 50.64 LIG 0.16  HD
ATOM      5 O    ARG D 692       7.973 -15.880  41.088  1.00 52.04 LIG-0.27  OA
BRANCH 3 6
ATOM      6  CA  LEU D 693       7.637 -13.323  40.275  1.00 43.34 LIG 0.18  C 
BRANCH 6 7
ATOM      7  C   LEU D 693       6.434 -13.642  39.398  1.00 37.95 LIG 0.24  C 
ATOM      8  N   LEU D 694       6.697 -14.104  38.192  1.00 39.22 LIG-0.35  N 
ATOM      9 H    LEU D 694       7.492 -14.183  37.876  1.00 39.22 LIG 0.16  HD
ATOM     10 O    LEU D 693       5.287 -13.441  39.812  1.00 43.86 LIG-0.27  OA
BRANCH 8 11
ATOM     11  CA  LEU D 694       5.662 -14.521  37.283  1.00 38.59 LIG 0.18  C 
BRANCH 11 12
ATOM     12  C   LEU D 694       5.243 -15.911  37.637  1.00 46.22 LIG 0.24  C 
ATOM     13  N   GLN D 695       6.208 -16.681  38.106  1.00 66.87 LIG-0.35  N 
ATOM     14 H    GLN D 695       7.025 -16.413  38.116  1.00 66.87 LIG 0.16  HD
ATOM     15 O    LEU D 694       4.112 -16.265  37.432  1.00 54.70 LIG-0.27  OA
BRANCH 13 16
ATOM     16  CA  GLN D 695       6.072 -18.036  38.657  1.00 62.86 LIG 0.16  C 
BRANCH 16 17
ATOM     17  CB  GLN D 695       4.858 -18.135  39.540  1.00 63.26 LIG 0.04  C 
BRANCH 17 18
ATOM     18  CG  GLN D 695       4.961 -17.210  40.723  1.00 77.24 LIG 0.10  C 
BRANCH 18 19
ATOM     19  CD  GLN D 695       4.227 -17.708  41.900  1.00 84.08 LIG 0.21  C 
ATOM     20 OE1  GLN D 695       3.773 -18.836  41.909  1.00 83.40 LIG-0.27  OA
ATOM     21  NE2 GLN D 695       4.114 -16.882  42.923  1.00 79.17 LIG-0.37  N 
ATOM     22 22HE GLN D 695       3.705 -17.135  43.636  1.00 79.17 LIG 0.16  HD
ATOM     23 21HE GLN D 695       4.449 -16.092  42.877  1.00 79.17 LIG 0.16  HD
ENDBRANCH 18 19
ENDBRANCH 17 18
ENDBRANCH 16 17
BRANCH 16 24
ATOM     24  C   GLN D 695       6.128 -19.190  37.658  1.00 61.14 LIG 0.22  C 
ATOM     25 O    GLN D 695       6.848 -20.171  37.864  1.00 66.66 LIG-0.29  OA
ENDBRANCH 16 24
ENDBRANCH 13 16
ENDBRANCH 11 12
BRANCH 11 26
ATOM     26  CB  LEU D 694       6.156 -14.541  35.853  1.00 34.51 LIG 0.04  C 
BRANCH 26 27
ATOM     27  CG  LEU D 694       6.154 -13.276  35.030  1.00 27.71 LIG-0.02  C 
ATOM     28  CD2 LEU D 694       4.775 -12.763  34.739  1.00 26.48 LIG 0.01  C 
ATOM     29  CD1 LEU D 694       6.991 -13.373  33.787  1.00 27.00 LIG 0.01  C 
ENDBRANCH 26 27
ENDBRANCH 11 26
ENDBRANCH 8 11
ENDBRANCH 6 7
BRANCH 6 30
ATOM     30  CB  LEU D 693       7.959 -11.820  40.233  1.00 45.67 LIG 0.04  C 
BRANCH 30 31
ATOM     31  CG  LEU D 693       9.193 -11.374  41.034  1.00 55.29 LIG-0.02  C 
ATOM     32  CD1 LEU D 693       9.217  -9.860  41.197  1.00 47.80 LIG 0.01  C 
ATOM     33  CD2 LEU D 693       9.297 -12.089  42.388  1.00 51.02 LIG 0.01  C 
ENDBRANCH 30 31
ENDBRANCH 6 30
ENDBRANCH 3 6
ENDBRANCH 1 2
BRANCH 1 34
ATOM     34  CB  ARG D 692      11.155 -15.967  41.110  1.00 49.09 LIG 0.04  C 
BRANCH 34 35
ATOM     35  CG  ARG D 692      10.579 -16.170  42.526  1.00 50.62 LIG 0.02  C 
BRANCH 35 36
ATOM     36  CD  ARG D 692      11.115 -15.205  43.573  1.00 57.04 LIG 0.14  C 
BRANCH 36 37
ATOM     37  NE  ARG D 692      12.548 -15.054  43.406  1.00 60.90 LIG-0.23  N 
ATOM     38 HE   ARG D 692      13.019 -15.771  43.349  1.00 60.90 LIG 0.18  HD
ATOM     39  CZ  ARG D 692      13.183 -13.894  43.335  1.00 61.50 LIG 0.67  C 
ATOM     40  NH1 ARG D 692      12.522 -12.751  43.508  1.00 46.48 LIG-0.23  N 
ATOM     41  NH2 ARG D 692      14.495 -13.885  43.136  1.00 64.68 LIG-0.23  N 
ATOM     42 1HH1 ARG D 692      11.676 -12.764  43.667  1.00 46.48 LIG 0.17  HD
ATOM     43 2HH1 ARG D 692      12.940 -12.001  43.462  1.00 46.48 LIG 0.17  HD
ATOM     44 1HH2 ARG D 692      14.923 -14.626  43.054  1.00 64.68 LIG 0.17  HD
ATOM     45 2HH2 ARG D 692      14.917 -13.137  43.088  1.00 64.68 LIG 0.17  HD
ENDBRANCH 36 37
ENDBRANCH 35 36
ENDBRANCH 34 35
ENDBRANCH 1 34
BRANCH 1 46
ATOM     46  N   ARG D 692      10.616 -16.049  38.654  1.00 43.06 LIG-0.35  N 
ATOM     47  C   HIS D 691       9.858 -16.222  37.585  1.00 44.11 LIG 0.24  C 
ATOM     48 O    HIS D 691       8.687 -16.570  37.641  1.00 43.39 LIG-0.27  OA
ATOM     49 H    ARG D 692      11.447 -15.828  38.622  1.00 43.06 LIG 0.16  HD
BRANCH 47 50
ATOM     50  CA  HIS D 691      10.521 -15.957  36.288  1.00 41.80 LIG 0.18  C 
BRANCH 50 51
ATOM     51  CB  HIS D 691      11.596 -16.983  36.164  1.00 51.00 LIG 0.10  C 
BRANCH 51 52
ATOM     52  CG  HIS D 691      11.752 -17.538  34.809  1.00 57.86 LIG 0.06  A 
ATOM     53 ND1  HIS D 691      11.057 -18.579  34.385  1.00 60.60 LIG-0.24  NA
ATOM     54  CE1 HIS D 691      11.407 -18.859  33.133  1.00 72.50 LIG 0.23  A 
ATOM     55 NE2  HIS D 691      12.351 -17.999  32.762  1.00 67.35 LIG-0.25  NA
ATOM     56  CD2 HIS D 691      12.590 -17.175  33.773  1.00 66.29 LIG 0.14  A 
ENDBRANCH 51 52
ENDBRANCH 50 51
BRANCH 50 57
ATOM     57  N   HIS D 691      11.116 -14.640  36.266  1.00 39.94 LIG-0.35  N 
ATOM     58 H    HIS D 691      11.955 -14.640  36.078  1.00 39.94 LIG 0.16  HD
ATOM     59  C   LEU D 690      10.427 -13.537  36.513  1.00 35.88 LIG 0.24  C 
ATOM     60 O    LEU D 690       9.203 -13.537  36.764  1.00 34.66 LIG-0.27  OA
BRANCH 59 61
ATOM     61  CA  LEU D 690      11.209 -12.244  36.539  1.00 33.43 LIG 0.18  C 
BRANCH 61 62
ATOM     62  CB  LEU D 690      11.443 -11.753  35.110  1.00 31.34 LIG 0.04  C 
BRANCH 62 63
ATOM     63  CG  LEU D 690      10.203 -11.554  34.247  1.00 30.93 LIG-0.02  C 
ATOM     64  CD1 LEU D 690       9.270 -10.547  34.902  1.00 30.90 LIG 0.01  C 
ATOM     65  CD2 LEU D 690      10.610 -11.053  32.874  1.00 28.62 LIG 0.01  C 
ENDBRANCH 62 63
ENDBRANCH 61 62
BRANCH 61 66
ATOM     66  N   LEU D 690      12.491 -12.411  37.226  1.00 35.22 LIG-0.35  N 
ATOM     67 H    LEU D 690      13.174 -12.162  36.767  1.00 35.22 LIG 0.16  HD
ATOM     68  C   ILE D 689      12.566 -12.907  38.455  1.00 41.04 LIG 0.26  C 
ATOM     69 O    ILE D 689      11.562 -13.207  39.119  1.00 39.56 LIG-0.27  OA
BRANCH 68 70
ATOM     70  CA  ILE D 689      13.989 -13.041  39.039  1.00 40.35 LIG 0.40  C 
ATOM     71  N   ILE D 689      14.998 -13.511  38.010  1.00 40.45 LIG 0.61  N 
BRANCH 70 72
ATOM     72  CB  ILE D 689      14.372 -11.672  39.652  1.00 42.26 LIG 0.03  C 
ATOM     73  CG2 ILE D 689      13.231 -11.130  40.533  1.00 38.55 LIG 0.01  C 
BRANCH 72 74
ATOM     74  CG1 ILE D 689      15.691 -11.751  40.425  1.00 45.91 LIG 0.00  C 
ATOM     75  CD1 ILE D 689      16.336 -10.396  40.717  1.00 45.96 LIG 0.01  C 
ENDBRANCH 72 74
ENDBRANCH 70 72
ENDBRANCH 68 70
ENDBRANCH 61 66
ENDBRANCH 59 61
ENDBRANCH 50 57
ENDBRANCH 47 50
ENDBRANCH 1 46
TORSDOF 30
