USER: ADFR SOLUTION from run 0
USER: SCORE 17.601385 LL:  -2.599 LR: -17.463 RR:   0.000 FEB: -13.286
USER: RMSD 0.200394
USER: STATUS Locally minimized using BFGS
USER: GENES 16
USER: genes 0 Translation |==|  0.50085 0.54910 0.59119
USER: genes 1 Rotation |==|  0.49990 0.50682 0.50420 0.99994
USER: genes 2 Torsion [C]-CA--N-[C] |==|  0.68925
USER: genes 3 Torsion [N]-C--CA-[N] |==|  0.36399
USER: genes 4 Torsion [C]-CA--CB-[CG2] |==|  0.13837
USER: genes 5 Torsion [CA]-CB--OG1-[HG1] |==|  0.43053
USER: genes 6 Torsion [C]-CA--N-[C] |==|  0.54328
USER: genes 7 Torsion [N]-CA--C-[N] |==|  0.36570
USER: genes 8 Torsion [C]-N--CA-[CB] |==|  0.29421
USER: genes 9 Torsion [N]-CA--C-[N] |==|  0.35348
USER: genes 10 Torsion [C]-N--CA-[C] |==|  0.65778
USER: genes 11 Torsion [N]-CA--C-[N] |==|  0.36248
USER: genes 12 Torsion [N]-CA--CB-[CG2] |==|  0.52797
USER: genes 13 Torsion [CA]-CB--CG1-[CD1] |==|  0.86151
USER: genes 14 Torsion [N]-CA--CB-[OG1] |==|  0.84226
USER: genes 15 Torsion [CA]-CB--OG1-[HG1] |==|  0.49813
ROOT
ATOM      1  CA  THR B   3      26.516 -11.644  -9.820  1.00 36.32 LIG 0.20  C 
ENDROOT
BRANCH 1 2
ATOM      2  N   THR B   3      25.237 -11.427  -9.176  1.00 33.83 LIG-0.34  N 
ATOM      3 H    THR B   3      24.939 -12.106  -8.741  1.00 33.83 LIG 0.16  HD
ATOM      4  C   THR B   2      24.597 -10.259  -9.268  1.00 34.16 LIG 0.24  C 
ATOM      5 O    THR B   2      25.124  -9.214  -9.657  1.00 38.62 LIG-0.27  OA
BRANCH 4 6
ATOM      6  CA  THR B   2      23.115 -10.295  -8.873  1.00 35.31 LIG 0.20  C 
BRANCH 6 7
ATOM      7  CB  THR B   2      22.251 -10.257 -10.170  1.00 32.90 LIG 0.15  C 
ATOM      8  CG2 THR B   2      22.731 -11.272 -11.126  1.00 39.05 LIG 0.04  C 
BRANCH 7 9
ATOM      9 OG1  THR B   2      20.884 -10.543  -9.829  1.00 34.26 LIG-0.39  OA
ATOM     10 HG1  THR B   2      20.376 -10.204 -10.405  1.00 34.26 LIG 0.21  HD
ENDBRANCH 7 9
ENDBRANCH 6 7
BRANCH 6 11
ATOM     11  N   THR B   2      22.718  -9.231  -7.929  1.00 34.82 LIG-0.35  N 
ATOM     12 H    THR B   2      23.275  -8.580  -7.853  1.00 34.82 LIG 0.16  HD
ATOM     13  C   ACE B   1      21.524  -9.331  -7.249  1.00 34.45 LIG 0.21  C 
ATOM     14 O    ACE B   1      21.096 -10.464  -6.990  1.00 39.85 LIG-0.27  OA
ATOM     15  CH3 ACE B   1      21.505  -8.327  -6.146  1.00 40.13 LIG 0.12  C 
ENDBRANCH 6 11
ENDBRANCH 4 6
ENDBRANCH 1 2
BRANCH 1 16
ATOM     16  C   THR B   3      26.295 -12.652 -10.940  1.00 34.35 LIG 0.24  C 
ATOM     17  N   ALA B   4      26.820 -12.298 -12.101  1.00 33.34 LIG-0.35  N 
ATOM     18 H    ALA B   4      27.176 -11.530 -12.250  1.00 33.34 LIG 0.16  HD
ATOM     19 O    THR B   3      25.618 -13.690 -10.781  1.00 38.59 LIG-0.27  OA
BRANCH 17 20
ATOM     20  CA  ALA B   4      26.838 -13.186 -13.233  1.00 37.88 LIG 0.17  C 
ATOM     21  CB  ALA B   4      25.803 -12.760 -14.283  1.00 37.12 LIG 0.04  C 
BRANCH 20 22
ATOM     22  C   ALA B   4      28.250 -13.190 -13.822  1.00 28.06 LIG 0.24  C 
ATOM     23 O    ALA B   4      28.841 -12.142 -14.146  1.00 34.91 LIG-0.27  OA
ATOM     24  N   ILE B   5      28.762 -14.399 -13.962  1.00 35.61 LIG-0.35  N 
ATOM     25 H    ILE B   5      28.320 -15.119 -13.801  1.00 35.61 LIG 0.16  HD
BRANCH 24 26
ATOM     26  CA  ILE B   5      30.122 -14.636 -14.400  1.00 42.31 LIG 0.18  C 
BRANCH 26 27
ATOM     27  C   ILE B   5      30.060 -15.526 -15.644  1.00 33.28 LIG 0.25  C 
ATOM     28 N    NH2 B   6      30.872 -15.014 -16.777  1.00 40.53 LIG-0.06  NA
ATOM     29 O    ILE B   5      29.482 -16.629 -15.626  1.00 43.48 LIG-0.28  OA
ENDBRANCH 26 27
BRANCH 26 30
ATOM     30  CB  ILE B   5      30.934 -15.345 -13.302  1.00 45.91 LIG 0.01  C 
ATOM     31  CG2 ILE B   5      32.391 -15.359 -13.678  1.00 53.83 LIG 0.01  C 
BRANCH 30 32
ATOM     32  CG1 ILE B   5      30.755 -14.696 -11.922  1.00 44.58 LIG 0.00  C 
ATOM     33  CD1 ILE B   5      30.939 -13.204 -11.864  1.00 48.12 LIG 0.01  C 
ENDBRANCH 30 32
ENDBRANCH 26 30
ENDBRANCH 24 26
ENDBRANCH 20 22
ENDBRANCH 17 20
ENDBRANCH 1 16
BRANCH 1 34
ATOM     34  CB  THR B   3      27.554 -12.143  -8.803  1.00 43.32 LIG 0.15  C 
ATOM     35  CG2 THR B   3      28.890 -12.253  -9.432  1.00 50.01 LIG 0.04  C 
BRANCH 34 36
ATOM     36 OG1  THR B   3      27.643 -11.187  -7.737  1.00 43.78 LIG-0.39  OA
ATOM     37 HG1  THR B   3      28.201 -11.453  -7.168  1.00 43.78 LIG 0.21  HD
ENDBRANCH 34 36
ENDBRANCH 1 34
TORSDOF 14
