USER: ADFR SOLUTION from run 0
USER: SCORE 13.619969 LL:  -1.737 LR: -12.120 RR:   0.000 FEB:  -6.452
USER: RMSD 0.605293
USER: STATUS Locally minimized using BFGS
USER: GENES 21
USER: genes 0 Translation |==|  0.47646 0.39380 0.54842
USER: genes 1 Rotation |==|  0.47416 0.47197 0.50645 0.99850
USER: genes 2 Torsion [N]-C--CA-[N] |==|  0.46111
USER: genes 3 Torsion [C]-CA--CB-[CG] |==|  0.51909
USER: genes 4 Torsion [CA]-CB--CG-[CD] |==|  0.79553
USER: genes 5 Torsion [CB]-CG--CD-[NE] |==|  0.49257
USER: genes 6 Torsion [CG]-CD--NE-[CZ] |==|  0.46387
USER: genes 7 Torsion [C]-CA--N-[C] |==|  0.72437
USER: genes 8 Torsion [N]-C--CA-[N] |==|  0.45342
USER: genes 9 Torsion [C]-CA--N-[H2] |==|  0.91285
USER: genes 10 Torsion [C]-N--CA-[C] |==|  0.64792
USER: genes 11 Torsion [N]-CA--C-[N] |==|  0.44010
USER: genes 12 Torsion [C]-N--CA-[CB] |==|  0.51925
USER: genes 13 Torsion [N]-CA--C-[O] |==|  0.89277
USER: genes 14 Torsion [N]-CA--CB-[CG] |==|  0.52541
USER: genes 15 Torsion [CA]-CB--CG-[CD] |==|  0.46327
USER: genes 16 Torsion [CB]-CG--CD-[CE] |==|  0.45749
USER: genes 17 Torsion [CG]-CD--CE-[NZ] |==|  0.54532
USER: genes 18 Torsion [CD]-CE--NZ-[HZ1] |==|  0.39428
USER: genes 19 Torsion [N]-CA--CB-[OG1] |==|  0.14483
USER: genes 20 Torsion [CA]-CB--OG1-[HG1] |==|  0.49924
ROOT
ATOM      1  C   ARG H   2     -15.802   1.560 -51.807  1.00 59.87 LIG 0.24  C 
ATOM      2 O    ARG H   2     -15.507   1.862 -50.640  1.00 53.61 LIG-0.27  OA
ATOM      3  N   THR H   3     -14.916   1.514 -52.807  1.00 55.49 LIG-0.34  N 
ATOM      4 H    THR H   3     -15.107   1.214 -53.590  1.00 55.49 LIG 0.16  HD
ENDROOT
BRANCH 1 5
ATOM      5  CA  ARG H   2     -17.250   1.200 -52.183  1.00 59.74 LIG 0.18  C 
BRANCH 5 6
ATOM      6  CB  ARG H   2     -17.838   2.346 -53.022  1.00 62.34 LIG 0.04  C 
BRANCH 6 7
ATOM      7  CG  ARG H   2     -19.323   2.232 -53.346  1.00 66.72 LIG 0.02  C 
BRANCH 7 8
ATOM      8  CD  ARG H   2     -19.619   1.175 -54.400  1.00 71.24 LIG 0.14  C 
BRANCH 8 9
ATOM      9  NE  ARG H   2     -21.064   1.058 -54.631  1.00 73.29 LIG-0.23  N 
ATOM     10  CZ  ARG H   2     -21.638   0.413 -55.648  1.00 77.12 LIG 0.67  C 
ATOM     11  NH1 ARG H   2     -20.911  -0.197 -56.579  1.00 77.82 LIG-0.23  N 
ATOM     12  NH2 ARG H   2     -22.964   0.383 -55.741  1.00 76.44 LIG-0.23  N 
ATOM     13 1HH1 ARG H   2     -20.052  -0.180 -56.532  1.00 77.82 LIG 0.17  HD
ATOM     14 2HH1 ARG H   2     -21.300  -0.609 -57.227  1.00 77.82 LIG 0.17  HD
ATOM     15 2HH2 ARG H   2     -23.340  -0.032 -56.394  1.00 76.44 LIG 0.17  HD
ATOM     16 1HH2 ARG H   2     -23.445   0.777 -55.148  1.00 76.44 LIG 0.17  HD
ATOM     17 HE   ARG H   2     -21.585   1.439 -54.063  1.00 73.29 LIG 0.18  HD
ENDBRANCH 8 9
ENDBRANCH 7 8
ENDBRANCH 6 7
ENDBRANCH 5 6
BRANCH 5 18
ATOM     18  N   ARG H   2     -18.061   0.958 -50.980  1.00 53.58 LIG-0.35  N 
ATOM     19  C   ALA H   1     -18.325  -0.266 -50.529  1.00 57.33 LIG 0.25  C 
ATOM     20 O    ALA H   1     -17.969  -1.290 -51.117  1.00 53.10 LIG-0.27  OA
ATOM     21 H    ARG H   2     -18.346   1.675 -50.599  1.00 53.58 LIG 0.16  HD
BRANCH 19 22
ATOM     22  CA  ALA H   1     -19.135  -0.365 -49.230  1.00 57.31 LIG 0.27  C 
ATOM     23  CB  ALA H   1     -18.277   0.004 -48.019  1.00 59.00 LIG 0.05  C 
BRANCH 22 24
ATOM     24  N   ALA H   1     -19.694  -1.743 -49.067  1.00 52.22 LIG-0.07  N 
ATOM     25 H2   ALA H   1     -19.861  -2.093 -49.868  1.00 52.22 LIG 0.28  HD
ATOM     26 H3   ALA H   1     -19.104  -2.255 -48.639  1.00 52.22 LIG 0.28  HD
ATOM     27 H1   ALA H   1     -20.448  -1.704 -48.596  1.00 52.22 LIG 0.28  HD
ENDBRANCH 22 24
ENDBRANCH 19 22
ENDBRANCH 5 18
ENDBRANCH 1 5
BRANCH 3 28
ATOM     28  CA  THR H   3     -13.533   1.968 -52.677  1.00 54.46 LIG 0.20  C 
BRANCH 28 29
ATOM     29  C   THR H   3     -13.209   2.985 -53.789  1.00 57.92 LIG 0.24  C 
ATOM     30  N   LYS H   4     -12.184   3.802 -53.558  1.00 54.07 LIG-0.35  N 
ATOM     31 H    LYS H   4     -11.695   3.763 -52.851  1.00 54.07 LIG 0.16  HD
ATOM     32 O    THR H   3     -13.887   3.040 -54.816  1.00 54.85 LIG-0.27  OA
BRANCH 30 33
ATOM     33  CA  LYS H   4     -11.788   4.863 -54.503  1.00 57.41 LIG 0.16  C 
BRANCH 33 34
ATOM     34  C   LYS H   4     -11.608   4.376 -55.942  1.00 56.46 LIG 0.22  C 
ATOM     35 O    LYS H   4     -11.096   3.276 -56.167  1.00 60.38 LIG-0.29  OA
ENDBRANCH 33 34
BRANCH 33 36
ATOM     36  CB  LYS H   4     -10.487   5.492 -54.020  1.00 56.01 LIG 0.03  C 
BRANCH 36 37
ATOM     37  CG  LYS H   4     -10.062   6.740 -54.763  1.00 58.87 LIG 0.00  C 
BRANCH 37 38
ATOM     38  CD  LYS H   4      -8.954   7.451 -54.000  1.00 59.29 LIG 0.03  C 
BRANCH 38 39
ATOM     39  CE  LYS H   4      -8.263   8.473 -54.889  1.00 63.77 LIG 0.23  C 
BRANCH 39 40
ATOM     40  NZ  LYS H   4      -6.959   8.890 -54.315  1.00 66.19 LIG-0.08  N 
ATOM     41 HZ1  LYS H   4      -6.366   8.996 -54.969  1.00 66.19 LIG 0.27  HD
ATOM     42 HZ2  LYS H   4      -7.060   9.660 -53.879  1.00 66.19 LIG 0.27  HD
ATOM     43 HZ3  LYS H   4      -6.670   8.266 -53.751  1.00 66.19 LIG 0.27  HD
ENDBRANCH 39 40
ENDBRANCH 38 39
ENDBRANCH 37 38
ENDBRANCH 36 37
ENDBRANCH 33 36
ENDBRANCH 30 33
ENDBRANCH 28 29
BRANCH 28 44
ATOM     44  CB  THR H   3     -12.532   0.788 -52.691  1.00 52.58 LIG 0.15  C 
ATOM     45  CG2 THR H   3     -12.704  -0.040 -51.439  1.00 50.21 LIG 0.04  C 
BRANCH 44 46
ATOM     46 OG1  THR H   3     -12.759  -0.051 -53.833  1.00 49.67 LIG-0.39  OA
ATOM     47 HG1  THR H   3     -12.207  -0.684 -53.830  1.00 49.67 LIG 0.21  HD
ENDBRANCH 44 46
ENDBRANCH 28 44
ENDBRANCH 3 28
TORSDOF 19
