USER: ADFR SOLUTION from run 0
USER: SCORE 8.731270 LL:  -1.416 LR: -11.108 RR:   0.000 FEB:  -5.440
USER: RMSD 0.796055
USER: STATUS Locally minimized using BFGS
USER: GENES 21
USER: genes 0 Translation |==|  0.50428 0.49188 0.46744
USER: genes 1 Rotation |==|  0.48362 0.52430 0.50933 0.99905
USER: genes 2 Torsion [C]-CA--CB-[CG] |==|  0.27334
USER: genes 3 Torsion [CA]-CB--CG-[OD1] |==|  0.26385
USER: genes 4 Torsion [N]-CA--C-[N] |==|  0.29196
USER: genes 5 Torsion [C]-N--CA-[CB] |==|  0.30556
USER: genes 6 Torsion [N]-CA--C-[N] |==|  0.34755
USER: genes 7 Torsion [C]-N--CA-[CB] |==|  0.22537
USER: genes 8 Torsion [N]-CA--CB-[CG] |==|  0.14447
USER: genes 9 Torsion [CA]-CB--CG-[SD] |==|  0.47182
USER: genes 10 Torsion [CB]-CG--SD-[CE] |==|  0.52199
USER: genes 11 Torsion [N]-CA--C-[O] |==|  0.83122
USER: genes 12 Torsion [N]-CA--CB-[CG] |==|  0.88985
USER: genes 13 Torsion [CA]-CB--CG-[OD1] |==|  0.71878
USER: genes 14 Torsion [CB]-CA--N-[C] |==|  0.09666
USER: genes 15 Torsion [N]-C--CA-[N] |==|  0.60562
USER: genes 16 Torsion [C]-CA--N-[C] |==|  0.13594
USER: genes 17 Torsion [N]-C--CA-[N] |==|  0.39896
USER: genes 18 Torsion [C]-CA--CB-[CG2] |==|  0.90450
USER: genes 19 Torsion [C]-CA--CB-[CG] |==|  0.32303
USER: genes 20 Torsion [CA]-CB--CG-[OD2] |==|  0.78590
ROOT
ATOM      1  CA  ASP E 180       2.635 -27.670  25.872  1.00 46.29 LIG 0.19  C 
ENDROOT
BRANCH 1 2
ATOM      2  CB  ASP E 180       1.432 -28.564  25.589  1.00 53.57 LIG 0.15  C 
BRANCH 2 3
ATOM      3  CG  ASP E 180       0.382 -27.875  24.750  1.00 52.91 LIG 0.17  C 
ATOM      4 OD1  ASP E 180       0.401 -28.050  23.512  1.00 53.16 LIG-0.65  OA
ATOM      5 OD2  ASP E 180      -0.467 -27.165  25.328  1.00 39.91 LIG-0.65  OA
ENDBRANCH 2 3
ENDBRANCH 1 2
BRANCH 1 6
ATOM      6  C   ASP E 180       2.502 -27.042  27.266  1.00 46.16 LIG 0.24  C 
ATOM      7 O    ASP E 180       2.217 -27.739  28.242  1.00 47.92 LIG-0.27  OA
ATOM      8  N   ASP E 181       2.706 -25.733  27.368  1.00 48.75 LIG-0.34  N 
ATOM      9 H    ASP E 181       2.859 -25.208  26.705  1.00 48.75 LIG 0.16  HD
BRANCH 8 10
ATOM     10  CA  ASP E 181       2.681 -25.086  28.677  1.00 45.01 LIG 0.19  C 
BRANCH 10 11
ATOM     11  C   ASP E 181       1.721 -23.901  28.737  1.00 47.33 LIG 0.24  C 
ATOM     12 O    ASP E 181       1.811 -22.956  27.943  1.00 41.27 LIG-0.27  OA
ATOM     13  N   MET E 182       0.813 -23.963  29.707  1.00 63.00 LIG-0.35  N 
ATOM     14 H    MET E 182       0.793 -24.588  30.296  1.00 63.00 LIG 0.16  HD
BRANCH 13 15
ATOM     15  CA  MET E 182      -0.240 -22.970  29.864  1.00 43.88 LIG 0.16  C 
BRANCH 15 16
ATOM     16  CB  MET E 182      -1.389 -23.270  28.901  1.00 44.38 LIG 0.04  C 
BRANCH 16 17
ATOM     17  CG  MET E 182      -1.900 -24.695  28.984  1.00 63.17 LIG 0.08  C 
BRANCH 17 18
ATOM     18 SD   MET E 182      -3.428 -24.935  28.061  1.00101.17 LIG-0.17  SA
ATOM     19  CE  MET E 182      -3.862 -26.600  28.562  1.00 68.91 LIG 0.09  C 
ENDBRANCH 17 18
ENDBRANCH 16 17
ENDBRANCH 15 16
BRANCH 15 20
ATOM     20  C   MET E 182      -0.755 -22.924  31.303  1.00 60.82 LIG 0.22  C 
ATOM     21 O    MET E 182      -1.271 -23.915  31.831  1.00 58.83 LIG-0.29  OA
ENDBRANCH 15 20
ENDBRANCH 13 15
ENDBRANCH 10 11
BRANCH 10 22
ATOM     22  CB  ASP E 181       4.090 -24.639  29.065  1.00 40.72 LIG 0.15  C 
BRANCH 22 23
ATOM     23  CG  ASP E 181       5.143 -25.656  28.674  1.00 40.82 LIG 0.17  C 
ATOM     24 OD1  ASP E 181       5.606 -26.417  29.553  1.00 47.44 LIG-0.65  OA
ATOM     25 OD2  ASP E 181       5.495 -25.695  27.479  1.00 24.37 LIG-0.65  OA
ENDBRANCH 22 23
ENDBRANCH 10 22
ENDBRANCH 8 10
ENDBRANCH 1 6
BRANCH 1 26
ATOM     26  N   ASP E 180       3.896 -28.414  25.788  1.00 48.48 LIG-0.34  N 
ATOM     27  C   ASP E 179       4.153 -29.414  24.943  1.00 52.76 LIG 0.24  C 
ATOM     28 O    ASP E 179       3.347 -29.867  24.129  1.00 54.54 LIG-0.27  OA
ATOM     29 H    ASP E 180       4.480 -28.136  26.355  1.00 48.48 LIG 0.16  HD
BRANCH 27 30
ATOM     30  CA  ASP E 179       5.564 -29.989  25.048  1.00 62.98 LIG 0.19  C 
BRANCH 30 31
ATOM     31  N   ASP E 179       6.185 -30.369  23.775  1.00 68.60 LIG-0.34  N 
ATOM     32  C   VAL E 178       6.208 -29.565  22.713  1.00 59.78 LIG 0.26  C 
ATOM     33 O    VAL E 178       5.534 -28.536  22.630  1.00 49.42 LIG-0.27  OA
ATOM     34 H    ASP E 179       6.530 -31.156  23.778  1.00 68.60 LIG 0.16  HD
BRANCH 32 35
ATOM     35  CA  VAL E 178       7.112 -30.006  21.557  1.00 59.92 LIG 0.40  C 
ATOM     36  N   VAL E 178       6.530 -29.686  20.258  1.00 55.12 LIG 0.61  N 
BRANCH 35 37
ATOM     37  CB  VAL E 178       8.507 -29.350  21.728  1.00 50.97 LIG 0.03  C 
ATOM     38  CG2 VAL E 178       8.390 -27.960  22.336  1.00 47.22 LIG 0.01  C 
ATOM     39  CG1 VAL E 178       9.219 -29.286  20.394  1.00 50.59 LIG 0.01  C 
ENDBRANCH 35 37
ENDBRANCH 32 35
ENDBRANCH 30 31
BRANCH 30 40
ATOM     40  CB  ASP E 179       6.450 -28.969  25.762  1.00 47.75 LIG 0.15  C 
BRANCH 40 41
ATOM     41  CG  ASP E 179       6.973 -29.483  27.079  1.00 48.80 LIG 0.17  C 
ATOM     42 OD2  ASP E 179       6.201 -29.502  28.068  1.00 55.56 LIG-0.65  OA
ATOM     43 OD1  ASP E 179       8.158 -29.870  27.121  1.00 40.87 LIG-0.65  OA
ENDBRANCH 40 41
ENDBRANCH 30 40
ENDBRANCH 27 30
ENDBRANCH 1 26
TORSDOF 19
