USER: ADFR SOLUTION from run 0
USER: SCORE 18.471209 LL:  -4.459 LR: -15.972 RR:   0.000 FEB:  -8.216
USER: RMSD 0.862663
USER: STATUS Locally minimized using BFGS
USER: GENES 28
USER: genes 0 Translation |==|  0.45016 0.52832 0.35862
USER: genes 1 Rotation |==|  0.52519 0.53070 0.51002 0.99832
USER: genes 2 Torsion [C]-CA--N-[C] |==|  0.77222
USER: genes 3 Torsion [N]-C--CA-[N] |==|  0.41507
USER: genes 4 Torsion [C]-CA--CB-[CG] |==|  0.38075
USER: genes 5 Torsion [CA]-CB--CG-[CD] |==|  0.51888
USER: genes 6 Torsion [CB]-CG--CD-[NE] |==|  0.42814
USER: genes 7 Torsion [CG]-CD--NE-[HE] |==|  0.93473
USER: genes 8 Torsion [C]-CA--N-[C] |==|  0.78993
USER: genes 9 Torsion [N]-C--CA-[N] |==|  0.24385
USER: genes 10 Torsion [C]-CA--N-[H3] |==|  0.23312
USER: genes 11 Torsion [C]-CA--CB-[CG] |==|  0.59127
USER: genes 12 Torsion [CA]-CB--CG-[ND2] |==|  0.30923
USER: genes 13 Torsion [N]-CA--CB-[CG] |==|  0.80146
USER: genes 14 Torsion [CA]-CB--CG-[CD1] |==|  0.59051
USER: genes 15 Torsion [N]-CA--C-[N] |==|  0.36332
USER: genes 16 Torsion [C]-N--CA-[CB] |==|  0.34704
USER: genes 17 Torsion [N]-CA--C-[N] |==|  0.40849
USER: genes 18 Torsion [C]-N--CA-[C] |==|  0.68534
USER: genes 19 Torsion [N]-CA--C-[N] |==|  0.45369
USER: genes 20 Torsion [C]-N--CA-[C] |==|  0.85910
USER: genes 21 Torsion [N]-CA--CB-[CG2] |==|  0.83466
USER: genes 22 Torsion [CA]-CB--OG1-[HG1] |==|  0.13957
USER: genes 23 Torsion [N]-CA--C-[O] |==|  0.79003
USER: genes 24 Torsion [N]-CA--CB-[CG] |==|  0.78475
USER: genes 25 Torsion [CA]-CB--CG-[CD2] |==|  0.79640
USER: genes 26 Torsion [N]-CA--CB-[CG] |==|  0.75560
USER: genes 27 Torsion [CA]-CB--CG-[CD1] |==|  0.07770
ROOT
ATOM      1  CA  LEU B   3     -19.336 -22.170 -31.286  1.00 17.18 LIG 0.18  C 
ENDROOT
BRANCH 1 2
ATOM      2  N   LEU B   3     -20.220 -22.726 -30.332  1.00 21.09 LIG-0.35  N 
ATOM      3  C   ARG B   2     -19.934 -23.862 -29.702  1.00 20.79 LIG 0.24  C 
ATOM      4 O    ARG B   2     -18.852 -24.470 -29.835  1.00 18.81 LIG-0.27  OA
ATOM      5 H    LEU B   3     -20.940 -22.272 -30.204  1.00 21.09 LIG 0.16  HD
BRANCH 3 6
ATOM      6  CA  ARG B   2     -21.058 -24.435 -28.847  1.00 21.42 LIG 0.18  C 
BRANCH 6 7
ATOM      7  CB  ARG B   2     -21.075 -23.866 -27.424  1.00 36.36 LIG 0.04  C 
BRANCH 7 8
ATOM      8  CG  ARG B   2     -22.480 -23.532 -26.962  1.00 41.67 LIG 0.02  C 
BRANCH 8 9
ATOM      9  CD  ARG B   2     -22.517 -22.811 -25.613  1.00 51.14 LIG 0.14  C 
BRANCH 9 10
ATOM     10  NE  ARG B   2     -23.727 -21.980 -25.469  1.00 53.41 LIG-0.23  N 
ATOM     11 HE   ARG B   2     -24.114 -21.719 -26.191  1.00 53.41 LIG 0.18  HD
ATOM     12  CZ  ARG B   2     -24.273 -21.599 -24.308  1.00 50.83 LIG 0.67  C 
ATOM     13  NH1 ARG B   2     -23.729 -21.962 -23.153  1.00 40.00 LIG-0.23  N 
ATOM     14  NH2 ARG B   2     -25.369 -20.837 -24.307  1.00 54.23 LIG-0.23  N 
ATOM     15 1HH1 ARG B   2     -23.018 -22.446 -23.146  1.00 40.00 LIG 0.17  HD
ATOM     16 2HH1 ARG B   2     -24.086 -21.712 -22.412  1.00 40.00 LIG 0.17  HD
ATOM     17 1HH2 ARG B   2     -25.723 -20.592 -25.051  1.00 54.23 LIG 0.17  HD
ATOM     18 2HH2 ARG B   2     -25.720 -20.592 -23.562  1.00 54.23 LIG 0.17  HD
ENDBRANCH 9 10
ENDBRANCH 8 9
ENDBRANCH 7 8
ENDBRANCH 6 7
BRANCH 6 19
ATOM     19  N   ARG B   2     -20.922 -25.875 -28.842  1.00 29.89 LIG-0.35  N 
ATOM     20  C   ASN B   1     -21.278 -26.588 -29.901  1.00 39.87 LIG 0.25  C 
ATOM     21 O    ASN B   1     -22.022 -26.144 -30.786  1.00 37.46 LIG-0.27  OA
ATOM     22 H    ARG B   2     -20.601 -26.207 -28.116  1.00 29.89 LIG 0.16  HD
BRANCH 20 23
ATOM     23  CA  ASN B   1     -20.717 -28.021 -29.961  1.00 47.73 LIG 0.28  C 
BRANCH 23 24
ATOM     24  N   ASN B   1     -21.526 -29.009 -29.291  1.00 51.86 LIG-0.07  N 
ATOM     25 H3   ASN B   1     -22.172 -29.284 -29.839  1.00 51.86 LIG 0.28  HD
ATOM     26 H1   ASN B   1     -21.018 -29.702 -29.060  1.00 51.86 LIG 0.28  HD
ATOM     27 H2   ASN B   1     -21.889 -28.650 -28.562  1.00 51.86 LIG 0.28  HD
ENDBRANCH 23 24
BRANCH 23 28
ATOM     28  CB  ASN B   1     -20.487 -28.499 -31.380  1.00 49.79 LIG 0.14  C 
BRANCH 28 29
ATOM     29  CG  ASN B   1     -20.723 -29.986 -31.503  1.00 59.47 LIG 0.22  C 
ATOM     30  ND2 ASN B   1     -21.790 -30.371 -32.212  1.00 63.81 LIG-0.37  N 
ATOM     31 21HD ASN B   1     -21.976 -31.207 -32.290  1.00 63.81 LIG 0.16  HD
ATOM     32 22HD ASN B   1     -22.289 -29.783 -32.591  1.00 63.81 LIG 0.16  HD
ATOM     33 OD1  ASN B   1     -19.977 -30.784 -30.942  1.00 60.25 LIG-0.27  OA
ENDBRANCH 28 29
ENDBRANCH 23 28
ENDBRANCH 20 23
ENDBRANCH 6 19
ENDBRANCH 3 6
ENDBRANCH 1 2
BRANCH 1 34
ATOM     34  CB  LEU B   3     -20.132 -21.314 -32.310  1.00 28.79 LIG 0.04  C 
BRANCH 34 35
ATOM     35  CG  LEU B   3     -20.966 -22.194 -33.247  1.00 33.15 LIG-0.02  C 
ATOM     36  CD2 LEU B   3     -20.349 -23.586 -33.308  1.00 30.13 LIG 0.01  C 
ATOM     37  CD1 LEU B   3     -21.129 -21.620 -34.685  1.00 27.67 LIG 0.01  C 
ENDBRANCH 34 35
ENDBRANCH 1 34
BRANCH 1 38
ATOM     38  C   LEU B   3     -18.224 -21.377 -30.635  1.00 20.33 LIG 0.24  C 
ATOM     39  N   LEU B   4     -16.993 -21.655 -31.053  1.00 23.83 LIG-0.35  N 
ATOM     40 H    LEU B   4     -16.806 -22.242 -31.653  1.00 23.83 LIG 0.16  HD
ATOM     41 O    LEU B   3     -18.455 -20.525 -29.782  1.00 22.70 LIG-0.27  OA
BRANCH 39 42
ATOM     42  CA  LEU B   4     -15.838 -20.958 -30.500  1.00 22.91 LIG 0.18  C 
BRANCH 42 43
ATOM     43  C   LEU B   4     -15.144 -20.197 -31.635  1.00 30.74 LIG 0.24  C 
ATOM     44 O    LEU B   4     -15.106 -20.664 -32.808  1.00 30.11 LIG-0.27  OA
ATOM     45  N   LEU B   5     -14.560 -19.048 -31.322  1.00 32.41 LIG-0.35  N 
ATOM     46 H    LEU B   5     -14.608 -18.652 -30.560  1.00 32.41 LIG 0.16  HD
BRANCH 45 47
ATOM     47  CA  LEU B   5     -13.754 -18.374 -32.348  1.00 35.50 LIG 0.18  C 
BRANCH 47 48
ATOM     48  C   LEU B   5     -12.283 -18.365 -31.952  1.00 33.38 LIG 0.24  C 
ATOM     49 O    LEU B   5     -11.928 -18.588 -30.774  1.00 25.58 LIG-0.27  OA
ATOM     50  N   THR B   6     -11.444 -18.099 -32.949  1.00 32.99 LIG-0.34  N 
ATOM     51 H    THR B   6     -11.689 -18.088 -33.773  1.00 32.99 LIG 0.16  HD
BRANCH 50 52
ATOM     52  CA  THR B   6     -10.030 -17.801 -32.765  1.00 39.09 LIG 0.19  C 
BRANCH 52 53
ATOM     53  CB  THR B   6      -9.398 -17.296 -34.090  1.00 66.99 LIG 0.14  C 
ATOM     54  CG2 THR B   6      -9.530 -18.337 -35.185  1.00 64.52 LIG 0.04  C 
BRANCH 53 55
ATOM     55 OG1  THR B   6     -10.061 -16.091 -34.520  1.00 68.32 LIG-0.39  OA
ATOM     56 HG1  THR B   6     -10.094 -15.546 -33.882  1.00 68.32 LIG 0.21  HD
ENDBRANCH 53 55
ENDBRANCH 52 53
BRANCH 52 57
ATOM     57  C   THR B   6      -9.893 -16.698 -31.705  1.00 46.48 LIG 0.22  C 
ATOM     58 O    THR B   6     -10.156 -15.517 -31.979  1.00 50.47 LIG-0.29  OA
ENDBRANCH 52 57
ENDBRANCH 50 52
ENDBRANCH 47 48
BRANCH 47 59
ATOM     59  CB  LEU B   5     -14.208 -16.934 -32.547  1.00 41.25 LIG 0.04  C 
BRANCH 59 60
ATOM     60  CG  LEU B   5     -15.471 -16.689 -33.358  1.00 47.99 LIG-0.02  C 
ATOM     61  CD2 LEU B   5     -15.208 -16.926 -34.819  1.00 50.88 LIG 0.01  C 
ATOM     62  CD1 LEU B   5     -15.902 -15.254 -33.133  1.00 54.72 LIG 0.01  C 
ENDBRANCH 59 60
ENDBRANCH 47 59
ENDBRANCH 45 47
ENDBRANCH 42 43
BRANCH 42 63
ATOM     63  CB  LEU B   4     -14.876 -22.006 -29.978  1.00 23.96 LIG 0.04  C 
BRANCH 63 64
ATOM     64  CG  LEU B   4     -14.945 -22.568 -28.575  1.00 38.52 LIG-0.02  C 
ATOM     65  CD1 LEU B   4     -16.328 -22.528 -28.036  1.00 46.71 LIG 0.01  C 
ATOM     66  CD2 LEU B   4     -14.367 -23.992 -28.587  1.00 36.33 LIG 0.01  C 
ENDBRANCH 63 64
ENDBRANCH 42 63
ENDBRANCH 39 42
ENDBRANCH 1 38
TORSDOF 26
