USER: ADFR SOLUTION from run 0
USER: SCORE 14.073412 LL:  -2.543 LR: -11.744 RR:   0.000 FEB:  -9.358
USER: RMSD 0.552542
USER: STATUS Locally minimized using BFGS
USER: GENES 10
USER: genes 0 Translation |==|  0.57048 0.53837 0.52272
USER: genes 1 Rotation |==|  0.48820 0.50716 0.47957 0.99939
USER: genes 2 Torsion [N]-C--CA-[N] |==|  0.42077
USER: genes 3 Torsion [C]-CA--N-[C] |==|  0.61213
USER: genes 4 Torsion [N]-C--CA-[N] |==|  0.37234
USER: genes 5 Torsion [N]-CA--C-[N] |==|  0.38266
USER: genes 6 Torsion [C]-N--CA-[CB] |==|  0.41075
USER: genes 7 Torsion [N]-CA--CB-[CG] |==|  0.82383
USER: genes 8 Torsion [CA]-CB--CG-[CD1] |==|  0.86670
USER: genes 9 Torsion [N]-CA--C-[O] |==|  0.65071
ROOT
ATOM      1  C   ALA P   3     -17.005  25.010  22.985  1.00 17.83 LIG 0.24  C 
ATOM      2 O    ALA P   3     -17.420  23.919  22.561  1.00 14.64 LIG-0.27  OA
ATOM      3  N   PRO P   2     -15.845  25.216  23.558  1.00 16.26 LIG-0.34  N 
ATOM      4  CA  PRO P   2     -14.859  24.135  23.717  1.00 13.96 LIG 0.18  C 
ATOM      5  CB  PRO P   2     -13.582  24.824  24.187  1.00 15.54 LIG 0.04  C 
ATOM      6  CG  PRO P   2     -13.847  26.317  24.093  1.00 16.88 LIG 0.02  C 
ATOM      7  CD  PRO P   2     -15.340  26.500  24.096  1.00 18.82 LIG 0.13  C 
ENDROOT
BRANCH 1 8
ATOM      8  CA  ALA P   3     -17.904  26.250  22.930  1.00 20.57 LIG 0.17  C 
ATOM      9  CB  ALA P   3     -18.738  26.277  24.210  1.00 21.35 LIG 0.04  C 
BRANCH 8 10
ATOM     10  N   ALA P   3     -18.793  26.155  21.760  1.00 21.09 LIG-0.35  N 
ATOM     11  C   PRO P   4     -19.081  27.191  20.992  1.00 23.18 LIG 0.24  C 
ATOM     12 O    PRO P   4     -18.644  28.366  21.198  1.00 18.89 LIG-0.27  OA
ATOM     13 H    ALA P   3     -19.105  25.366  21.624  1.00 21.09 LIG 0.16  HD
BRANCH 11 14
ATOM     14  CA  PRO P   4     -20.004  26.858  19.851  1.00 25.16 LIG 0.18  C 
ATOM     15  CB  PRO P   4     -19.399  26.871  18.468  1.00 26.75 LIG 0.04  C 
ATOM     16  CG  PRO P   4     -19.399  28.342  18.115  1.00 27.39 LIG 0.02  C 
ATOM     17  CD  PRO P   4     -20.731  28.845  18.646  1.00 26.08 LIG 0.13  C 
ATOM     18  N   PRO P   4     -21.055  27.914  19.804  1.00 30.07 LIG-0.34  N 
ATOM     19  C   ACE P   5     -21.928  27.842  20.883  1.00 36.72 LIG 0.22  C 
ATOM     20  CH3 ACE P   5     -23.050  28.833  20.766  1.00 39.74 LIG 0.12  C 
ATOM     21 O    ACE P   5     -21.816  27.068  21.838  1.00 37.57 LIG-0.27  OA
ENDBRANCH 11 14
ENDBRANCH 8 10
ENDBRANCH 1 8
BRANCH 4 22
ATOM     22  C   PRO P   2     -15.372  23.163  24.757  1.00 16.32 LIG 0.24  C 
ATOM     23  N   PHE P   1     -15.237  21.874  24.525  1.00 10.52 LIG-0.34  N 
ATOM     24 H    PHE P   1     -14.899  21.543  23.807  1.00 10.52 LIG 0.16  HD
ATOM     25 O    PRO P   2     -15.946  23.649  25.776  1.00 16.09 LIG-0.27  OA
BRANCH 23 26
ATOM     26  CA  PHE P   1     -15.670  20.883  25.516  1.00 14.43 LIG 0.19  C 
BRANCH 26 27
ATOM     27  CB  PHE P   1     -16.165  19.605  24.851  1.00 14.76 LIG 0.07  C 
BRANCH 27 28
ATOM     28  CG  PHE P   1     -17.405  19.831  23.988  1.00 18.21 LIG-0.06  A 
ATOM     29  CD1 PHE P   1     -18.478  20.552  24.501  1.00 21.80 LIG 0.01  A 
ATOM     30  CE1 PHE P   1     -19.633  20.746  23.721  1.00 23.78 LIG 0.00  A 
ATOM     31  CZ  PHE P   1     -19.702  20.194  22.444  1.00 21.60 LIG 0.00  A 
ATOM     32  CE2 PHE P   1     -18.620  19.444  21.929  1.00 26.45 LIG 0.00  A 
ATOM     33  CD2 PHE P   1     -17.465  19.256  22.725  1.00 19.03 LIG 0.01  A 
ENDBRANCH 27 28
ENDBRANCH 26 27
BRANCH 26 34
ATOM     34  C   PHE P   1     -14.524  20.668  26.558  1.00 13.94 LIG 0.20  C 
ATOM     35 O    PHE P   1     -14.149  19.444  26.718  1.00 16.43 LIG-0.65  OA
ATOM     36 OXT  PHE P   1     -13.985  21.564  27.331  1.00 13.15 LIG-0.65  OA
ENDBRANCH 26 34
ENDBRANCH 23 26
ENDBRANCH 4 22
TORSDOF 8
