USER: ADFR SOLUTION from run 0
USER: SCORE 9.783953 LL:  -1.489 LR:  -9.025 RR:   0.000 FEB:  -5.743
USER: RMSD 0.420009
USER: STATUS Locally minimized using BFGS
USER: GENES 13
USER: genes 0 Translation |==|  0.46103 0.55137 0.43024
USER: genes 1 Rotation |==|  0.48470 0.50924 0.50586 0.99965
USER: genes 2 Torsion [C]-CA--CB-[CG] |==|  0.13314
USER: genes 3 Torsion [CA]-CB--CG-[CD2] |==|  0.60509
USER: genes 4 Torsion [N]-CA--C-[N] |==|  0.27222
USER: genes 5 Torsion [C]-N--CA-[CB] |==|  0.81805
USER: genes 6 Torsion [N]-CA--C-[O] |==|  0.05294
USER: genes 7 Torsion [N]-CA--CB-[CG] |==|  0.84919
USER: genes 8 Torsion [CA]-CB--CG-[ND2] |==|  0.53965
USER: genes 9 Torsion [CB]-CA--N-[C] |==|  0.83690
USER: genes 10 Torsion [N]-C--CA-[N] |==|  0.79513
USER: genes 11 Torsion [C]-CA--CB-[CG] |==|  0.19113
USER: genes 12 Torsion [CA]-CB--CG-[OD1] |==|  0.26154
ROOT
ATOM      1  CA  TRP J 605      -3.882  21.933  69.285  1.00 71.61 LIG 0.18  C 
ENDROOT
BRANCH 1 2
ATOM      2  CB  TRP J 605      -4.607  22.957  70.167  1.00 65.14 LIG 0.07  C 
BRANCH 2 3
ATOM      3  CG  TRP J 605      -3.770  23.499  71.288  1.00 62.37 LIG-0.03  A 
ATOM      4  CD2 TRP J 605      -4.211  23.805  72.616  1.00 57.80 LIG-0.00  A 
ATOM      5  CE3 TRP J 605      -5.445  23.730  73.270  1.00 58.94 LIG 0.01  A 
ATOM      6  CE2 TRP J 605      -3.091  24.276  73.330  1.00 56.30 LIG 0.04  A 
ATOM      7  CZ3 TRP J 605      -5.519  24.121  74.594  1.00 59.47 LIG 0.00  A 
ATOM      8  CH2 TRP J 605      -4.388  24.585  75.278  1.00 55.92 LIG 0.00  A 
ATOM      9  CZ2 TRP J 605      -3.169  24.669  74.665  1.00 56.02 LIG 0.03  A 
ATOM     10  NE1 TRP J 605      -2.020  24.253  72.476  1.00 57.88 LIG-0.36  N 
ATOM     11  CD1 TRP J 605      -2.435  23.784  71.255  1.00 63.10 LIG 0.10  A 
ATOM     12 HE1  TRP J 605      -1.218  24.494  72.673  1.00 57.88 LIG 0.17  HD
ENDBRANCH 2 3
ENDBRANCH 1 2
BRANCH 1 13
ATOM     13  C   TRP J 605      -3.185  20.891  70.162  1.00 60.32 LIG 0.24  C 
ATOM     14  N   ASN J 606      -1.961  20.536  69.778  1.00 74.38 LIG-0.34  N 
ATOM     15 H    ASN J 606      -1.600  20.811  69.047  1.00 74.38 LIG 0.16  HD
ATOM     16 O    TRP J 605      -3.743  20.431  71.158  1.00 56.87 LIG-0.27  OA
BRANCH 14 17
ATOM     17  CA  ASN J 606      -1.104  19.641  70.557  1.00 65.98 LIG 0.19  C 
BRANCH 17 18
ATOM     18  C   ASN J 606      -1.715  18.269  70.824  1.00 66.37 LIG 0.20  C 
ATOM     19 O    ASN J 606      -2.646  17.844  70.142  1.00 70.67 LIG-0.65  OA
ATOM     20 OXT  ASN J 606      -1.278  17.548  71.723  1.00 61.82 LIG-0.65  OA
ENDBRANCH 17 18
BRANCH 17 21
ATOM     21  CB  ASN J 606      -0.727  20.305  71.883  1.00 63.43 LIG 0.14  C 
BRANCH 21 22
ATOM     22  CG  ASN J 606      -0.099  21.674  71.689  1.00 67.06 LIG 0.22  C 
ATOM     23  ND2 ASN J 606       0.520  22.196  72.741  1.00 58.48 LIG-0.37  N 
ATOM     24 22HD ASN J 606       0.551  21.759  73.482  1.00 58.48 LIG 0.16  HD
ATOM     25 21HD ASN J 606       0.890  22.969  72.682  1.00 58.48 LIG 0.16  HD
ATOM     26 OD1  ASN J 606      -0.174  22.255  70.606  1.00 73.16 LIG-0.27  OA
ENDBRANCH 21 22
ENDBRANCH 17 21
ENDBRANCH 14 17
ENDBRANCH 1 13
BRANCH 1 27
ATOM     27  N   TRP J 605      -4.812  21.342  68.319  1.00 80.26 LIG-0.34  N 
ATOM     28  C   ASP J 604      -5.916  20.685  68.670  1.00 69.06 LIG 0.26  C 
ATOM     29 O    ASP J 604      -6.233  20.463  69.840  1.00 67.02 LIG-0.27  OA
ATOM     30 H    TRP J 605      -4.578  21.460  67.500  1.00 80.26 LIG 0.16  HD
BRANCH 28 31
ATOM     31  CA  ASP J 604      -6.800  20.200  67.523  1.00 80.57 LIG 0.41  C 
ATOM     32  N   ASP J 604      -7.517  21.316  66.916  1.00 92.85 LIG 0.61  N 
BRANCH 31 33
ATOM     33  CB  ASP J 604      -5.962  19.469  66.473  1.00 75.75 LIG 0.16  C 
BRANCH 33 34
ATOM     34  CG  ASP J 604      -5.420  18.144  66.974  1.00 69.63 LIG 0.17  C 
ATOM     35 OD1  ASP J 604      -6.070  17.104  66.735  1.00 75.49 LIG-0.65  OA
ATOM     36 OD2  ASP J 604      -4.342  18.142  67.604  1.00 69.41 LIG-0.65  OA
ENDBRANCH 33 34
ENDBRANCH 31 33
ENDBRANCH 28 31
ENDBRANCH 1 27
TORSDOF 11
