USER: ADFR SOLUTION from run 0
USER: SCORE 10.154625 LL:  -4.400 LR:  -6.008 RR:   0.000 FEB:  -0.639
USER: RMSD 0.432261
USER: STATUS Locally minimized using BFGS
USER: GENES 20
USER: genes 0 Translation |==|  0.63145 0.42261 0.58859
USER: genes 1 Rotation |==|  0.49380 0.51487 0.49923 0.99974
USER: genes 2 Torsion [N]-C--CA-[N] |==|  0.02613
USER: genes 3 Torsion [C]-CA--N-[C] |==|  0.70946
USER: genes 4 Torsion [N]-C--CA-[N] |==|  0.96204
USER: genes 5 Torsion [C]-CA--N-[C] |==|  0.77970
USER: genes 6 Torsion [N]-C--CA-[N] |==|  0.31275
USER: genes 7 Torsion [C]-CA--CB-[CG] |==|  0.19263
USER: genes 8 Torsion [CA]-CB--CG-[OD2] |==|  0.44982
USER: genes 9 Torsion [C]-CA--CB-[CG] |==|  0.47640
USER: genes 10 Torsion [CA]-CB--CG-[CD1] |==|  0.43132
USER: genes 11 Torsion [C]-CA--CB-[CG2] |==|  0.49993
USER: genes 12 Torsion [CA]-CB--OG1-[HG1] |==|  0.89153
USER: genes 13 Torsion [C]-N--CA-[C] |==|  0.82222
USER: genes 14 Torsion [N]-CA--CB-[CG] |==|  0.21968
USER: genes 15 Torsion [CA]-CB--CG-[CD] |==|  0.48642
USER: genes 16 Torsion [CB]-CG--CD-[NE] |==|  0.48318
USER: genes 17 Torsion [CG]-CD--NE-[CZ] |==|  0.76487
USER: genes 18 Torsion [N]-CA--C-[N] |==|  0.46363
USER: genes 19 Torsion [N]-CA--C-[O] |==|  0.46541
ROOT
ATOM      1  C   THR B 201      11.184  36.159  -9.973  1.00 36.45 LIG 0.24  C 
ATOM      2 O    THR B 201      12.078  36.200  -9.124  1.00 40.30 LIG-0.27  OA
ATOM      3  N   ARG B 202      11.095  37.026 -10.976  1.00 33.32 LIG-0.35  N 
ATOM      4 H    ARG B 202      10.505  36.968 -11.599  1.00 33.32 LIG 0.16  HD
ENDROOT
BRANCH 1 5
ATOM      5  CA  THR B 201      10.097  35.080  -9.920  1.00 30.51 LIG 0.20  C 
BRANCH 5 6
ATOM      6  N   THR B 201       9.256  35.054 -11.119  1.00 29.33 LIG-0.34  N 
ATOM      7  C   LEU B 200       8.018  35.543 -11.107  1.00 28.22 LIG 0.24  C 
ATOM      8 O    LEU B 200       7.550  36.142 -10.142  1.00 25.98 LIG-0.27  OA
ATOM      9 H    THR B 201       9.628  34.703 -11.810  1.00 29.33 LIG 0.16  HD
BRANCH 7 10
ATOM     10  CA  LEU B 200       7.182  35.341 -12.367  1.00 30.55 LIG 0.18  C 
BRANCH 10 11
ATOM     11  N   LEU B 200       7.992  34.919 -13.493  1.00 35.39 LIG-0.35  N 
ATOM     12 H    LEU B 200       7.960  34.076 -13.662  1.00 35.39 LIG 0.16  HD
ATOM     13  C   ASP B 199       8.712  35.792 -14.184  1.00 42.58 LIG 0.26  C 
ATOM     14 O    ASP B 199       8.766  36.988 -13.894  1.00 44.96 LIG-0.27  OA
BRANCH 13 15
ATOM     15  CA  ASP B 199       9.496  35.228 -15.363  1.00 43.98 LIG 0.41  C 
ATOM     16  N   ASP B 199       8.964  35.729 -16.628  1.00 41.74 LIG 0.61  N 
BRANCH 15 17
ATOM     17  CB  ASP B 199      10.976  35.581 -15.223  1.00 46.67 LIG 0.16  C 
BRANCH 17 18
ATOM     18  CG  ASP B 199      11.650  34.840 -14.078  1.00 50.58 LIG 0.17  C 
ATOM     19 OD2  ASP B 199      12.899  34.772 -14.070  1.00 55.98 LIG-0.65  OA
ATOM     20 OD1  ASP B 199      10.941  34.315 -13.194  1.00 45.33 LIG-0.65  OA
ENDBRANCH 17 18
ENDBRANCH 15 17
ENDBRANCH 13 15
ENDBRANCH 10 11
BRANCH 10 21
ATOM     21  CB  LEU B 200       6.078  34.320 -12.105  1.00 29.00 LIG 0.04  C 
BRANCH 21 22
ATOM     22  CG  LEU B 200       5.049  34.179 -13.224  1.00 29.82 LIG-0.02  C 
ATOM     23  CD1 LEU B 200       4.405  32.804 -13.169  1.00 24.53 LIG 0.01  C 
ATOM     24  CD2 LEU B 200       3.998  35.275 -13.094  1.00 31.40 LIG 0.01  C 
ENDBRANCH 21 22
ENDBRANCH 10 21
ENDBRANCH 7 10
ENDBRANCH 5 6
BRANCH 5 25
ATOM     25  CB  THR B 201      10.769  33.711  -9.676  1.00 29.82 LIG 0.15  C 
ATOM     26  CG2 THR B 201       9.734  32.606  -9.614  1.00 24.76 LIG 0.04  C 
BRANCH 25 27
ATOM     27 OG1  THR B 201      11.693  33.430 -10.734  1.00 30.74 LIG-0.39  OA
ATOM     28 HG1  THR B 201      11.369  33.687 -11.466  1.00 30.74 LIG 0.21  HD
ENDBRANCH 25 27
ENDBRANCH 5 25
ENDBRANCH 1 5
BRANCH 3 29
ATOM     29  CA  ARG B 202      11.995  38.170 -11.121  1.00 35.80 LIG 0.18  C 
BRANCH 29 30
ATOM     30  CB  ARG B 202      11.716  38.842 -12.464  1.00 39.99 LIG 0.04  C 
BRANCH 30 31
ATOM     31  CG  ARG B 202      10.494  39.721 -12.416  1.00 43.12 LIG 0.02  C 
BRANCH 31 32
ATOM     32  CD  ARG B 202      10.282  40.479 -13.704  1.00 49.76 LIG 0.14  C 
BRANCH 32 33
ATOM     33  NE  ARG B 202       9.018  41.205 -13.671  1.00 51.61 LIG-0.23  N 
ATOM     34  CZ  ARG B 202       7.847  40.666 -13.987  1.00 53.48 LIG 0.67  C 
ATOM     35  NH2 ARG B 202       6.743  41.397 -13.925  1.00 55.46 LIG-0.23  N 
ATOM     36  NH1 ARG B 202       7.780  39.395 -14.364  1.00 53.58 LIG-0.23  N 
ATOM     37 2HH2 ARG B 202       5.985  41.049 -14.130  1.00 55.46 LIG 0.17  HD
ATOM     38 1HH2 ARG B 202       6.787  42.220 -13.680  1.00 55.46 LIG 0.17  HD
ATOM     39 2HH1 ARG B 202       7.022  39.047 -14.569  1.00 53.58 LIG 0.17  HD
ATOM     40 1HH1 ARG B 202       8.497  38.921 -14.404  1.00 53.58 LIG 0.17  HD
ATOM     41 HE   ARG B 202       9.033  42.031 -13.433  1.00 51.61 LIG 0.18  HD
ENDBRANCH 32 33
ENDBRANCH 31 32
ENDBRANCH 30 31
ENDBRANCH 29 30
BRANCH 29 42
ATOM     42  C   ARG B 202      11.798  39.140  -9.926  1.00 54.52 LIG 0.24  C 
ATOM     43 O    ARG B 202      10.811  38.990  -9.213  1.00 52.27 LIG-0.27  OA
ATOM     44  N   PRO B 203      12.714  40.132  -9.711  1.00 63.22 LIG-0.34  N 
ATOM     45  CD  PRO B 203      13.401  40.888 -10.768  1.00 67.52 LIG 0.13  C 
ATOM     46  CA  PRO B 203      12.750  40.980  -8.510  1.00 66.04 LIG 0.17  C 
ATOM     47  CG  PRO B 203      12.774  42.262 -10.588  1.00 67.94 LIG 0.02  C 
ATOM     48  CB  PRO B 203      12.364  42.351  -9.087  1.00 64.70 LIG 0.04  C 
BRANCH 46 49
ATOM     49  C   PRO B 203      11.835  40.628  -7.336  1.00 68.17 LIG 0.22  C 
ATOM     50 O    PRO B 203      12.029  41.187  -6.255  1.00 70.96 LIG-0.29  OA
ENDBRANCH 46 49
ENDBRANCH 29 42
ENDBRANCH 3 29
TORSDOF 18
