USER: ADFR SOLUTION from run 0
USER: SCORE 15.732418 LL:  -3.267 LR: -15.914 RR:   0.000 FEB: -10.246
USER: RMSD 0.639521
USER: STATUS Locally minimized using BFGS
USER: GENES 21
USER: genes 0 Translation |==|  0.47764 0.56265 0.52146
USER: genes 1 Rotation |==|  0.49187 0.48559 0.50237 0.99972
USER: genes 2 Torsion [N]-CA--C-[N] |==|  0.39897
USER: genes 3 Torsion [C]-N--CA-[CB] |==|  0.30131
USER: genes 4 Torsion [N]-CA--C-[N] |==|  0.36062
USER: genes 5 Torsion [C]-N--CA-[CB] |==|  0.42156
USER: genes 6 Torsion [N]-CA--C-[N] |==|  0.33255
USER: genes 7 Torsion [C]-N--CA-[CB] |==|  0.46135
USER: genes 8 Torsion [N]-CA--C-[OXT] |==|  0.97394
USER: genes 9 Torsion [N]-CA--CB-[CG] |==|  0.82843
USER: genes 10 Torsion [CA]-CB--CG-[CD2] |==|  0.23527
USER: genes 11 Torsion [C]-CA--CB-[CG] |==|  0.45440
USER: genes 12 Torsion [CA]-CB--CG-[OD2] |==|  0.46631
USER: genes 13 Torsion [C]-CA--N-[C] |==|  0.68105
USER: genes 14 Torsion [N]-C--CA-[N] |==|  0.34444
USER: genes 15 Torsion [C]-CA--CB-[CG] |==|  0.54610
USER: genes 16 Torsion [CA]-CB--CG-[CD2] |==|  0.73863
USER: genes 17 Torsion [C]-CA--N-[C] |==|  0.76961
USER: genes 18 Torsion [N]-C--CA-[N] |==|  0.35038
USER: genes 19 Torsion [C]-CA--CB-[CG] |==|  0.35788
USER: genes 20 Torsion [CA]-CB--CG-[OD2] |==|  0.66906
ROOT
ATOM      1  CA  ASP C 155     -10.885  12.611 -24.016  1.00 34.31 LIG 0.19  C 
ENDROOT
BRANCH 1 2
ATOM      2  C   ASP C 155     -10.301  11.224 -23.807  1.00 33.42 LIG 0.24  C 
ATOM      3 O    ASP C 155      -9.094  11.012 -23.970  1.00 32.60 LIG-0.27  OA
ATOM      4  N   ALA C 156     -11.166  10.292 -23.416  1.00 30.74 LIG-0.35  N 
ATOM      5 H    ALA C 156     -11.989  10.456 -23.231  1.00 30.74 LIG 0.16  HD
BRANCH 4 6
ATOM      6  CA  ALA C 156     -10.791   8.897 -23.265  1.00 30.13 LIG 0.17  C 
ATOM      7  CB  ALA C 156     -10.742   8.520 -21.793  1.00 30.23 LIG 0.04  C 
BRANCH 6 8
ATOM      8  C   ALA C 156     -11.807   8.043 -24.004  1.00 29.70 LIG 0.24  C 
ATOM      9  N   HIS C 157     -11.296   7.142 -24.838  1.00 30.21 LIG-0.35  N 
ATOM     10 H    HIS C 157     -10.452   7.002 -24.928  1.00 30.21 LIG 0.16  HD
ATOM     11 O    ALA C 156     -13.023   8.206 -23.825  1.00 27.33 LIG-0.27  OA
BRANCH 9 12
ATOM     12  CA  HIS C 157     -12.132   6.299 -25.687  1.00 31.06 LIG 0.18  C 
BRANCH 12 13
ATOM     13  C   HIS C 157     -12.571   5.078 -24.900  1.00 30.33 LIG 0.24  C 
ATOM     14  N   ALA C 158     -13.882   4.918 -24.743  1.00 29.79 LIG-0.34  N 
ATOM     15 H    ALA C 158     -14.474   5.437 -25.091  1.00 29.79 LIG 0.16  HD
ATOM     16 O    HIS C 157     -11.733   4.306 -24.420  1.00 30.67 LIG-0.27  OA
BRANCH 14 17
ATOM     17  CA  ALA C 158     -14.436   3.821 -23.947  1.00 31.13 LIG 0.18  C 
ATOM     18  CB  ALA C 158     -15.911   4.060 -23.648  1.00 30.84 LIG 0.04  C 
BRANCH 17 19
ATOM     19  C   ALA C 158     -14.252   2.481 -24.642  1.00 31.87 LIG 0.20  C 
ATOM     20 OXT  ALA C 158     -13.853   2.424 -25.808  1.00 33.04 LIG-0.65  OA
ATOM     21 O    ALA C 158     -14.505   1.432 -24.043  1.00 31.17 LIG-0.65  OA
ENDBRANCH 17 19
ENDBRANCH 14 17
ENDBRANCH 12 13
BRANCH 12 22
ATOM     22  CB  HIS C 157     -11.374   5.909 -26.960  1.00 32.09 LIG 0.10  C 
BRANCH 22 23
ATOM     23  CG  HIS C 157     -10.995   7.087 -27.804  1.00 35.38 LIG 0.06  A 
ATOM     24 ND1  HIS C 157     -11.793   7.554 -28.829  1.00 36.48 LIG-0.24  NA
ATOM     25  CE1 HIS C 157     -11.225   8.617 -29.375  1.00 37.27 LIG 0.23  A 
ATOM     26 NE2  HIS C 157     -10.094   8.862 -28.734  1.00 37.33 LIG-0.25  NA
ATOM     27  CD2 HIS C 157      -9.928   7.923 -27.744  1.00 35.91 LIG 0.14  A 
ENDBRANCH 22 23
ENDBRANCH 12 22
ENDBRANCH 9 12
ENDBRANCH 6 8
ENDBRANCH 4 6
ENDBRANCH 1 2
BRANCH 1 28
ATOM     28  CB  ASP C 155     -11.241  12.795 -25.479  1.00 35.23 LIG 0.15  C 
BRANCH 28 29
ATOM     29  CG  ASP C 155     -12.177  13.965 -25.717  1.00 35.97 LIG 0.17  C 
ATOM     30 OD2  ASP C 155     -12.333  14.329 -26.894  1.00 39.40 LIG-0.65  OA
ATOM     31 OD1  ASP C 155     -12.757  14.529 -24.763  1.00 38.01 LIG-0.65  OA
ENDBRANCH 28 29
ENDBRANCH 1 28
BRANCH 1 32
ATOM     32  N   ASP C 155      -9.932  13.617 -23.597  1.00 36.13 LIG-0.34  N 
ATOM     33 H    ASP C 155      -9.213  13.641 -24.070  1.00 36.13 LIG 0.16  HD
ATOM     34  C   HIS C 154     -10.167  14.420 -22.571  1.00 38.66 LIG 0.24  C 
ATOM     35 O    HIS C 154     -11.216  14.400 -21.934  1.00 35.33 LIG-0.27  OA
BRANCH 34 36
ATOM     36  CA  HIS C 154      -9.072  15.416 -22.228  1.00 42.51 LIG 0.18  C 
BRANCH 36 37
ATOM     37  CB  HIS C 154      -8.495  15.125 -20.843  1.00 45.16 LIG 0.10  C 
BRANCH 37 38
ATOM     38  CG  HIS C 154      -7.710  16.264 -20.270  1.00 48.44 LIG 0.06  A 
ATOM     39 ND1  HIS C 154      -8.300  17.306 -19.585  1.00 50.51 LIG-0.24  NA
ATOM     40  CE1 HIS C 154      -7.371  18.168 -19.211  1.00 51.05 LIG 0.23  A 
ATOM     41 NE2  HIS C 154      -6.200  17.724 -19.631  1.00 50.26 LIG-0.25  NA
ATOM     42  CD2 HIS C 154      -6.384  16.537 -20.298  1.00 50.26 LIG 0.14  A 
ENDBRANCH 37 38
ENDBRANCH 36 37
BRANCH 36 43
ATOM     43  N   HIS C 154      -9.678  16.732 -22.261  1.00 45.99 LIG-0.34  N 
ATOM     44  C   ASP C 153      -9.841  17.412 -23.390  1.00 51.00 LIG 0.26  C 
ATOM     45 O    ASP C 153      -9.330  17.084 -24.463  1.00 50.83 LIG-0.27  OA
ATOM     46 H    HIS C 154      -9.919  17.027 -21.489  1.00 45.99 LIG 0.16  HD
BRANCH 44 47
ATOM     47  CA  ASP C 153     -10.715  18.657 -23.289  1.00 53.77 LIG 0.41  C 
ATOM     48  N   ASP C 153     -10.026  19.885 -23.808  1.00 52.50 LIG 0.61  N 
BRANCH 47 49
ATOM     49  CB  ASP C 153     -12.034  18.392 -24.026  1.00 54.86 LIG 0.16  C 
BRANCH 49 50
ATOM     50  CG  ASP C 153     -13.248  18.715 -23.183  1.00 56.45 LIG 0.17  C 
ATOM     51 OD2  ASP C 153     -14.055  17.791 -22.918  1.00 58.24 LIG-0.65  OA
ATOM     52 OD1  ASP C 153     -13.390  19.890 -22.788  1.00 54.42 LIG-0.65  OA
ENDBRANCH 49 50
ENDBRANCH 47 49
ENDBRANCH 44 47
ENDBRANCH 36 43
ENDBRANCH 34 36
ENDBRANCH 1 32
TORSDOF 19
