USER: ADFR SOLUTION from run 0
USER: SCORE 15.516829 LL:  -4.904 LR: -12.636 RR:   0.000 FEB:  -6.670
USER: RMSD 0.260296
USER: STATUS Locally minimized using BFGS
USER: GENES 22
USER: genes 0 Translation |==|  0.55560 0.42394 0.51230
USER: genes 1 Rotation |==|  0.50340 0.49714 0.49872 0.99998
USER: genes 2 Torsion [C]-N--CA-[CB] |==|  0.32162
USER: genes 3 Torsion [N]-CA--CB-[CG] |==|  0.52080
USER: genes 4 Torsion [CA]-CB--CG-[OD1] |==|  0.01506
USER: genes 5 Torsion [N]-CA--C-[N] |==|  0.28510
USER: genes 6 Torsion [N]-CA--C-[O] |==|  0.49805
USER: genes 7 Torsion [C]-N--CA-[CB] |==|  0.38002
USER: genes 8 Torsion [N]-CA--CB-[CG] |==|  0.85816
USER: genes 9 Torsion [CA]-CB--CG-[CD1] |==|  0.81620
USER: genes 10 Torsion [N]-CA--C-[O] |==|  0.44407
USER: genes 11 Torsion [N]-C--CA-[N] |==|  0.28246
USER: genes 12 Torsion [C]-CA--N-[C] |==|  0.78889
USER: genes 13 Torsion [N]-C--CA-[N] |==|  0.39253
USER: genes 14 Torsion [C]-CA--CB-[CG2] |==|  0.50394
USER: genes 15 Torsion [C]-CA--N-[C] |==|  0.81909
USER: genes 16 Torsion [N]-C--CA-[N] |==|  0.05736
USER: genes 17 Torsion [C]-CA--CB-[CG] |==|  0.21098
USER: genes 18 Torsion [CA]-CB--CG-[CD] |==|  0.67925
USER: genes 19 Torsion [CB]-CG--CD-[OE1] |==|  0.93517
USER: genes 20 Torsion [C]-CA--CB-[CG] |==|  0.18146
USER: genes 21 Torsion [CA]-CB--CG-[OD1] |==|  0.97041
ROOT
ATOM      1  C   ASN C  17     -76.920-210.662  83.122  1.00 20.61 LIG 0.24  C 
ATOM      2 O    ASN C  17     -76.474-211.671  82.578  1.00 16.51 LIG-0.27  OA
ATOM      3  N   ASN C  18     -77.150-209.521  82.476  1.00 22.51 LIG-0.35  N 
ATOM      4 H    ASN C  18     -77.426-208.803  82.861  1.00 22.51 LIG 0.16  HD
ENDROOT
BRANCH 3 5
ATOM      5  CA  ASN C  18     -76.951-209.389  81.037  1.00 19.22 LIG 0.18  C 
BRANCH 5 6
ATOM      6  CB  ASN C  18     -78.287-209.105  80.344  1.00 16.89 LIG 0.14  C 
BRANCH 6 7
ATOM      7  CG  ASN C  18     -78.178-209.137  78.832  1.00 20.14 LIG 0.22  C 
ATOM      8  ND2 ASN C  18     -79.272-208.809  78.153  1.00 20.12 LIG-0.37  N 
ATOM      9 22HD ASN C  18     -79.988-208.583  78.573  1.00 20.12 LIG 0.16  HD
ATOM     10 21HD ASN C  18     -79.264-208.823  77.293  1.00 20.12 LIG 0.16  HD
ATOM     11 OD1  ASN C  18     -77.128-209.469  78.281  1.00 18.28 LIG-0.27  OA
ENDBRANCH 6 7
ENDBRANCH 5 6
BRANCH 5 12
ATOM     12  C   ASN C  18     -75.947-208.284  80.697  1.00 21.33 LIG 0.24  C 
ATOM     13  N   PRO C  19     -74.705-208.664  80.355  1.00 20.66 LIG-0.34  N 
ATOM     14  CD  PRO C  19     -74.128-210.019  80.419  1.00 23.11 LIG 0.13  C 
ATOM     15  CA  PRO C  19     -73.693-207.665  80.000  1.00 23.26 LIG 0.18  C 
ATOM     16  CG  PRO C  19     -72.683-209.810  80.029  1.00 22.87 LIG 0.02  C 
ATOM     17  CB  PRO C  19     -72.385-208.381  80.328  1.00 23.39 LIG 0.04  C 
ATOM     18 O    ASN C  18     -76.288-207.102  80.738  1.00 23.13 LIG-0.27  OA
BRANCH 15 19
ATOM     19  C   PRO C  19     -73.724-207.265  78.525  1.00 24.54 LIG 0.24  C 
ATOM     20  N   PHE C  20     -74.629-207.860  77.753  1.00 23.51 LIG-0.34  N 
ATOM     21 H    PHE C  20     -75.260-208.362  78.053  1.00 23.51 LIG 0.16  HD
ATOM     22 O    PRO C  19     -72.928-206.420  78.104  1.00 27.52 LIG-0.27  OA
BRANCH 20 23
ATOM     23  CA  PHE C  20     -74.619-207.702  76.300  1.00 27.49 LIG 0.19  C 
BRANCH 23 24
ATOM     24  CB  PHE C  20     -74.871-209.059  75.643  1.00 22.62 LIG 0.07  C 
BRANCH 24 25
ATOM     25  CG  PHE C  20     -73.969-210.137  76.160  1.00 18.80 LIG-0.06  A 
ATOM     26  CD1 PHE C  20     -72.610-210.080  75.919  1.00 16.53 LIG 0.01  A 
ATOM     27  CE1 PHE C  20     -71.765-211.052  76.403  1.00 18.06 LIG 0.00  A 
ATOM     28  CZ  PHE C  20     -72.272-212.102  77.149  1.00 17.30 LIG 0.00  A 
ATOM     29  CE2 PHE C  20     -73.624-212.170  77.404  1.00 18.45 LIG 0.00  A 
ATOM     30  CD2 PHE C  20     -74.468-211.187  76.915  1.00 20.64 LIG 0.01  A 
ENDBRANCH 24 25
ENDBRANCH 23 24
BRANCH 23 31
ATOM     31  C   PHE C  20     -75.635-206.672  75.813  1.00 41.21 LIG 0.20  C 
ATOM     32 OXT  PHE C  20     -76.586-206.328  76.515  1.00 46.78 LIG-0.65  OA
ATOM     33 O    PHE C  20     -75.521-206.146  74.702  1.00 43.65 LIG-0.65  OA
ENDBRANCH 23 31
ENDBRANCH 20 23
ENDBRANCH 15 19
ENDBRANCH 5 12
ENDBRANCH 3 5
BRANCH 1 34
ATOM     34  CA  ASN C  17     -77.260-210.675  84.606  1.00 16.90 LIG 0.18  C 
BRANCH 34 35
ATOM     35  N   ASN C  17     -78.531-211.362  84.782  1.00 20.58 LIG-0.35  N 
ATOM     36  C   VAL C  16     -79.681-210.768  84.480  1.00 27.16 LIG 0.24  C 
ATOM     37 O    VAL C  16     -79.765-209.566  84.230  1.00 29.43 LIG-0.27  OA
ATOM     38 H    ASN C  17     -78.467-212.163  85.090  1.00 20.58 LIG 0.16  HD
BRANCH 36 39
ATOM     39  CA  VAL C  16     -80.924-211.656  84.468  1.00 33.54 LIG 0.18  C 
BRANCH 39 40
ATOM     40  CB  VAL C  16     -81.209-212.121  83.020  1.00 32.44 LIG 0.01  C 
ATOM     41  CG2 VAL C  16     -82.470-212.984  82.977  1.00 34.10 LIG 0.01  C 
ATOM     42  CG1 VAL C  16     -80.003-212.861  82.424  1.00 32.37 LIG 0.01  C 
ENDBRANCH 39 40
BRANCH 39 43
ATOM     43  N   VAL C  16     -82.077-210.956  85.021  1.00 45.58 LIG-0.34  N 
ATOM     44  C   GLN C  15     -82.137-210.576  86.291  1.00 57.61 LIG 0.26  C 
ATOM     45 O    GLN C  15     -81.217-210.758  87.090  1.00 61.53 LIG-0.27  OA
ATOM     46 H    VAL C  16     -82.708-210.815  84.452  1.00 45.58 LIG 0.16  HD
BRANCH 44 47
ATOM     47  CA  GLN C  15     -83.427-209.882  86.719  1.00 63.44 LIG 0.40  C 
ATOM     48  N   GLN C  15     -84.513-210.198  85.798  1.00 62.08 LIG 0.61  N 
BRANCH 47 49
ATOM     49  CB  GLN C  15     -83.800-210.293  88.142  1.00 68.54 LIG 0.06  C 
BRANCH 49 50
ATOM     50  CG  GLN C  15     -82.955-209.617  89.217  1.00 72.89 LIG 0.10  C 
BRANCH 50 51
ATOM     51  CD  GLN C  15     -82.094-210.579  90.017  1.00 75.77 LIG 0.21  C 
ATOM     52 OE1  GLN C  15     -82.383-211.772  90.110  1.00 77.61 LIG-0.27  OA
ATOM     53  NE2 GLN C  15     -81.026-210.056  90.608  1.00 76.03 LIG-0.37  N 
ATOM     54 22HE GLN C  15     -80.506-210.554  91.076  1.00 76.03 LIG 0.16  HD
ATOM     55 21HE GLN C  15     -80.855-209.217  90.521  1.00 76.03 LIG 0.16  HD
ENDBRANCH 50 51
ENDBRANCH 49 50
ENDBRANCH 47 49
ENDBRANCH 44 47
ENDBRANCH 39 43
ENDBRANCH 36 39
ENDBRANCH 34 35
BRANCH 34 56
ATOM     56  CB  ASN C  17     -76.150-211.354  85.414  1.00 15.63 LIG 0.14  C 
BRANCH 56 57
ATOM     57  CG  ASN C  17     -74.843-210.586  85.373  1.00 17.63 LIG 0.22  C 
ATOM     58 OD1  ASN C  17     -74.684-209.644  84.593  1.00 24.00 LIG-0.27  OA
ATOM     59  ND2 ASN C  17     -73.892-210.991  86.206  1.00 16.48 LIG-0.37  N 
ATOM     60 21HD ASN C  17     -73.130-210.594  86.214  1.00 16.48 LIG 0.16  HD
ATOM     61 22HD ASN C  17     -74.039-211.652  86.737  1.00 16.48 LIG 0.16  HD
ENDBRANCH 56 57
ENDBRANCH 34 56
ENDBRANCH 1 34
TORSDOF 20
