USER: ADFR SOLUTION from run 0
USER: SCORE 16.288494 LL:  -4.227 LR: -12.061 RR:   0.000 FEB:  -8.482
USER: RMSD 0.952128
USER: STATUS Locally minimized using BFGS
USER: GENES 14
USER: genes 0 Translation |==|  0.54804 0.48479 0.47144
USER: genes 1 Rotation |==|  0.50066 0.48557 0.50678 0.99975
USER: genes 2 Torsion [N]-CA--C-[O] |==|  0.59822
USER: genes 3 Torsion [C]-N--CA-[CB] |==|  0.23485
USER: genes 4 Torsion [N]-CA--CB-[CG] |==|  0.08201
USER: genes 5 Torsion [CA]-CB--CG-[CD2] |==|  0.75984
USER: genes 6 Torsion [N]-CA--C-[O] |==|  0.86973
USER: genes 7 Torsion [N]-C--CA-[N] |==|  0.38351
USER: genes 8 Torsion [C]-CA--CB-[CG2] |==|  0.94213
USER: genes 9 Torsion [CA]-CB--CG1-[CD1] |==|  0.42713
USER: genes 10 Torsion [C]-CA--N-[C] |==|  0.83123
USER: genes 11 Torsion [N]-C--CA-[N] |==|  0.86670
USER: genes 12 Torsion [C]-CA--CB-[CG] |==|  0.10956
USER: genes 13 Torsion [CA]-CB--CG-[OD2] |==|  0.63744
ROOT
ATOM      1  C   ILE D 175      86.464  44.090  30.462  1.00 46.12 LIG 0.24  C 
ATOM      2 O    ILE D 175      87.645  44.185  30.117  1.00 42.41 LIG-0.27  OA
ATOM      3  N   PRO D 176      85.866  42.898  30.656  1.00 41.83 LIG-0.34  N 
ATOM      4  CA  PRO D 176      86.644  41.657  30.637  1.00 39.90 LIG 0.18  C 
ATOM      5  CB  PRO D 176      85.784  40.732  31.494  1.00 38.91 LIG 0.04  C 
ATOM      6  CG  PRO D 176      84.392  41.134  31.131  1.00 40.22 LIG 0.02  C 
ATOM      7  CD  PRO D 176      84.431  42.620  30.861  1.00 41.02 LIG 0.13  C 
ENDROOT
BRANCH 4 8
ATOM      8  C   PRO D 176      86.851  41.070  29.228  1.00 41.09 LIG 0.24  C 
ATOM      9  N   PHE D 177      87.003  41.937  28.232  1.00 41.46 LIG-0.34  N 
ATOM     10 H    PHE D 177      86.906  42.788  28.320  1.00 41.46 LIG 0.16  HD
ATOM     11 O    PRO D 176      86.869  39.841  29.050  1.00 40.08 LIG-0.27  OA
BRANCH 9 12
ATOM     12  CA  PHE D 177      87.353  41.509  26.882  1.00 42.13 LIG 0.19  C 
BRANCH 12 13
ATOM     13  CB  PHE D 177      86.101  41.094  26.098  1.00 40.75 LIG 0.07  C 
BRANCH 13 14
ATOM     14  CG  PHE D 177      84.848  41.816  26.514  1.00 38.35 LIG-0.06  A 
ATOM     15  CD1 PHE D 177      84.425  42.957  25.837  1.00 38.94 LIG 0.01  A 
ATOM     16  CE1 PHE D 177      83.269  43.619  26.217  1.00 37.83 LIG 0.00  A 
ATOM     17  CZ  PHE D 177      82.514  43.139  27.270  1.00 37.53 LIG 0.00  A 
ATOM     18  CE2 PHE D 177      82.914  41.998  27.945  1.00 36.58 LIG 0.00  A 
ATOM     19  CD2 PHE D 177      84.075  41.342  27.565  1.00 37.89 LIG 0.01  A 
ENDBRANCH 13 14
ENDBRANCH 12 13
BRANCH 12 20
ATOM     20  C   PHE D 177      88.089  42.629  26.163  1.00 42.35 LIG 0.20  C 
ATOM     21 OXT  PHE D 177      89.118  42.404  25.537  1.00 44.55 LIG-0.65  OA
ATOM     22 O    PHE D 177      87.664  43.784  26.191  1.00 42.35 LIG-0.65  OA
ENDBRANCH 12 20
ENDBRANCH 9 12
ENDBRANCH 4 8
BRANCH 1 23
ATOM     23  CA  ILE D 175      85.619  45.360  30.710  1.00 50.15 LIG 0.18  C 
BRANCH 23 24
ATOM     24  CB  ILE D 175      85.027  45.946  29.401  1.00 52.56 LIG 0.01  C 
ATOM     25  CG2 ILE D 175      85.794  45.476  28.165  1.00 53.60 LIG 0.01  C 
BRANCH 24 26
ATOM     26  CG1 ILE D 175      83.534  45.603  29.281  1.00 53.43 LIG 0.00  C 
ATOM     27  CD1 ILE D 175      82.744  46.590  28.445  1.00 54.83 LIG 0.01  C 
ENDBRANCH 24 26
ENDBRANCH 23 24
BRANCH 23 28
ATOM     28  N   ILE D 175      86.460  46.327  31.416  1.00 52.48 LIG-0.34  N 
ATOM     29 H    ILE D 175      86.584  47.067  30.997  1.00 52.48 LIG 0.16  HD
ATOM     30  C   ASP D 174      86.974  46.046  32.612  1.00 53.52 LIG 0.26  C 
ATOM     31 O    ASP D 174      86.596  45.092  33.290  1.00 50.42 LIG-0.27  OA
BRANCH 30 32
ATOM     32  CA  ASP D 174      88.035  47.000  33.168  1.00 56.25 LIG 0.41  C 
ATOM     33  N   ASP D 174      89.125  47.349  32.200  1.00 55.41 LIG 0.61  N 
BRANCH 32 34
ATOM     34  CB  ASP D 174      87.332  48.251  33.684  1.00 59.33 LIG 0.16  C 
BRANCH 34 35
ATOM     35  CG  ASP D 174      86.027  47.924  34.390  1.00 62.66 LIG 0.17  C 
ATOM     36 OD2  ASP D 174      84.993  48.556  34.074  1.00 62.95 LIG-0.65  OA
ATOM     37 OD1  ASP D 174      86.040  47.015  35.251  1.00 63.24 LIG-0.65  OA
ENDBRANCH 34 35
ENDBRANCH 32 34
ENDBRANCH 30 32
ENDBRANCH 23 28
ENDBRANCH 1 23
TORSDOF 12
