USER: ADFR SOLUTION from run 0
USER: SCORE 6.214053 LL:  -3.258 LR:  -5.319 RR:   0.000 FEB:  -0.546
USER: RMSD 0.156078
USER: STATUS Locally minimized using BFGS
USER: GENES 18
USER: genes 0 Translation |==|  0.58409 0.48756 0.46658
USER: genes 1 Rotation |==|  0.49911 0.50419 0.49271 0.99993
USER: genes 2 Torsion [CB]-CA--N-[C] |==|  0.46111
USER: genes 3 Torsion [N]-C--CA-[N] |==|  0.34868
USER: genes 4 Torsion [C]-CA--N-[C] |==|  0.81952
USER: genes 5 Torsion [N]-C--CA-[N] |==|  0.48635
USER: genes 6 Torsion [C]-CA--CB-[CG2] |==|  0.18384
USER: genes 7 Torsion [C]-CA--N-[H2] |==|  0.93332
USER: genes 8 Torsion [C]-CA--CB-[CG] |==|  0.81546
USER: genes 9 Torsion [CA]-CB--CG-[OD2] |==|  0.33688
USER: genes 10 Torsion [N]-CA--C-[N] |==|  0.42165
USER: genes 11 Torsion [C]-N--CA-[CB] |==|  0.44900
USER: genes 12 Torsion [N]-CA--CB-[CG2] |==|  0.82686
USER: genes 13 Torsion [N]-CA--C-[N] |==|  0.34262
USER: genes 14 Torsion [C]-N--CA-[CB] |==|  0.33421
USER: genes 15 Torsion [N]-CA--CB-[CG] |==|  0.82463
USER: genes 16 Torsion [CA]-CB--CG-[OD1] |==|  0.25674
USER: genes 17 Torsion [N]-CA--C-[O] |==|  0.95272
ROOT
ATOM      1  CA  ALA B   3      12.366  -0.496  25.354  1.00 18.86 LIG 0.17  C 
ATOM      2  CB  ALA B   3      13.447   0.363  24.703  1.00 19.35 LIG 0.04  C 
ENDROOT
BRANCH 1 3
ATOM      3  N   ALA B   3      11.083  -0.216  24.723  1.00 16.29 LIG-0.35  N 
ATOM      4  C   ASP B   2      10.020  -0.990  24.884  1.00 15.20 LIG 0.24  C 
ATOM      5 O    ASP B   2      10.013  -1.973  25.643  1.00 18.35 LIG-0.27  OA
ATOM      6 H    ALA B   3      11.082   0.495  24.238  1.00 16.29 LIG 0.16  HD
BRANCH 4 7
ATOM      7  CA  ASP B   2       8.778  -0.611  24.063  1.00 15.30 LIG 0.19  C 
BRANCH 7 8
ATOM      8  N   ASP B   2       8.304  -1.725  23.272  1.00 15.19 LIG-0.34  N 
ATOM      9  C   VAL B   1       9.026  -2.239  22.292  1.00 14.82 LIG 0.25  C 
ATOM     10 O    VAL B   1      10.113  -1.769  21.952  1.00 14.79 LIG-0.27  OA
ATOM     11 H    ASP B   2       7.525  -2.014  23.495  1.00 15.19 LIG 0.16  HD
BRANCH 9 12
ATOM     12  CA  VAL B   1       8.405  -3.412  21.542  1.00 14.89 LIG 0.28  C 
BRANCH 12 13
ATOM     13  CB  VAL B   1       8.181  -4.644  22.432  1.00 17.39 LIG 0.02  C 
ATOM     14  CG2 VAL B   1       7.164  -4.419  23.491  1.00 22.29 LIG 0.01  C 
ATOM     15  CG1 VAL B   1       9.452  -5.083  23.099  1.00 17.29 LIG 0.01  C 
ENDBRANCH 12 13
BRANCH 12 16
ATOM     16  N   VAL B   1       9.298  -3.760  20.428  1.00 15.02 LIG-0.07  N 
ATOM     17 H2   VAL B   1       9.789  -3.052  20.209  1.00 15.02 LIG 0.28  HD
ATOM     18 H3   VAL B   1       9.833  -4.428  20.674  1.00 15.02 LIG 0.28  HD
ATOM     19 H1   VAL B   1       8.812  -4.013  19.726  1.00 15.02 LIG 0.28  HD
ENDBRANCH 12 16
ENDBRANCH 9 12
ENDBRANCH 7 8
BRANCH 7 20
ATOM     20  CB  ASP B   2       7.654  -0.055  24.941  1.00 16.98 LIG 0.15  C 
BRANCH 20 21
ATOM     21  CG  ASP B   2       7.077  -1.086  25.885  1.00 17.41 LIG 0.17  C 
ATOM     22 OD1  ASP B   2       6.560  -2.126  25.383  1.00 15.73 LIG-0.65  OA
ATOM     23 OD2  ASP B   2       7.120  -0.849  27.130  1.00 22.30 LIG-0.65  OA
ENDBRANCH 20 21
ENDBRANCH 7 20
ENDBRANCH 4 7
ENDBRANCH 1 3
BRANCH 1 24
ATOM     24  C   ALA B   3      12.306  -0.236  26.860  1.00 21.51 LIG 0.24  C 
ATOM     25  N   VAL B   4      13.132  -0.956  27.612  1.00 22.67 LIG-0.35  N 
ATOM     26 H    VAL B   4      13.587  -1.624  27.320  1.00 22.67 LIG 0.16  HD
ATOM     27 O    ALA B   3      11.529   0.601  27.325  1.00 22.81 LIG-0.27  OA
BRANCH 25 28
ATOM     28  CA  VAL B   4      13.335  -0.660  29.033  1.00 26.45 LIG 0.18  C 
BRANCH 28 29
ATOM     29  CB  VAL B   4      13.953  -1.862  29.783  1.00 30.01 LIG 0.01  C 
ATOM     30  CG2 VAL B   4      13.015  -3.066  29.737  1.00 31.20 LIG 0.01  C 
ATOM     31  CG1 VAL B   4      14.281  -1.490  31.227  1.00 33.02 LIG 0.01  C 
ENDBRANCH 28 29
BRANCH 28 32
ATOM     32  C   VAL B   4      14.275   0.548  29.098  1.00 25.61 LIG 0.24  C 
ATOM     33  N   ASN B   5      13.838   1.615  29.760  1.00 29.33 LIG-0.35  N 
ATOM     34 H    ASN B   5      13.078   1.648  30.161  1.00 29.33 LIG 0.16  HD
ATOM     35 O    VAL B   4      15.363   0.512  28.524  1.00 29.65 LIG-0.27  OA
BRANCH 33 36
ATOM     36  CA  ASN B   5      14.629   2.854  29.868  1.00 34.74 LIG 0.17  C 
BRANCH 36 37
ATOM     37  CB  ASN B   5      13.843   4.012  29.260  1.00 42.44 LIG 0.14  C 
BRANCH 37 38
ATOM     38  CG  ASN B   5      13.591   3.816  27.777  1.00 45.23 LIG 0.22  C 
ATOM     39 OD1  ASN B   5      12.566   3.279  27.390  1.00 53.97 LIG-0.27  OA
ATOM     40  ND2 ASN B   5      14.549   4.211  26.945  1.00 50.63 LIG-0.37  N 
ATOM     41 21HD ASN B   5      14.460   4.091  26.098  1.00 50.63 LIG 0.16  HD
ATOM     42 22HD ASN B   5      15.259   4.587  27.253  1.00 50.63 LIG 0.16  HD
ENDBRANCH 37 38
ENDBRANCH 36 37
BRANCH 36 43
ATOM     43  C   ASN B   5      15.021   3.173  31.301  1.00 38.04 LIG 0.22  C 
ATOM     44 O    ASN B   5      14.435   2.629  32.232  1.00 41.05 LIG-0.29  OA
ENDBRANCH 36 43
ENDBRANCH 33 36
ENDBRANCH 28 32
ENDBRANCH 25 28
ENDBRANCH 1 24
TORSDOF 16
