USER: ADFR SOLUTION from run 0
USER: SCORE 17.825394 LL:  -2.505 LR: -16.230 RR:   0.000 FEB: -10.861
USER: RMSD 0.512648
USER: STATUS Locally minimized using BFGS
USER: GENES 20
USER: genes 0 Translation |==|  0.56668 0.59843 0.50199
USER: genes 1 Rotation |==|  0.49818 0.51445 0.50091 0.99979
USER: genes 2 Torsion [C]-CA--N-[C] |==|  0.57369
USER: genes 3 Torsion [N]-C--CA-[N] |==|  0.37660
USER: genes 4 Torsion [C]-CA--N-[H2] |==|  0.77486
USER: genes 5 Torsion [C]-CA--CB-[CG] |==|  0.46807
USER: genes 6 Torsion [CA]-CB--CG-[CD2] |==|  0.76604
USER: genes 7 Torsion [N]-CA--C-[N] |==|  0.43354
USER: genes 8 Torsion [C]-N--CA-[CB] |==|  0.49701
USER: genes 9 Torsion [N]-CA--CB-[CG] |==|  0.54793
USER: genes 10 Torsion [CA]-CB--CG-[CD] |==|  0.19728
USER: genes 11 Torsion [CB]-CG--CD-[OE2] |==|  0.59994
USER: genes 12 Torsion [N]-CA--C-[N] |==|  0.38498
USER: genes 13 Torsion [C]-N--CA-[CB] |==|  0.51329
USER: genes 14 Torsion [N]-CA--CB-[CG] |==|  0.49841
USER: genes 15 Torsion [CA]-CB--CG-[CD2] |==|  0.54163
USER: genes 16 Torsion [N]-CA--C-[O] |==|  0.37175
USER: genes 17 Torsion [N]-CA--CB-[CG] |==|  0.18851
USER: genes 18 Torsion [CA]-CB--CG-[CD] |==|  0.47304
USER: genes 19 Torsion [CB]-CG--CD-[OE1] |==|  0.76674
ROOT
ATOM      1  CA  GLU C   2     -21.516  21.107  -2.732  1.00 17.05 LIG 0.18  C 
ENDROOT
BRANCH 1 2
ATOM      2  N   GLU C   2     -22.839  21.610  -3.066  1.00 17.18 LIG-0.35  N 
ATOM      3 H    GLU C   2     -23.420  21.001  -3.243  1.00 17.18 LIG 0.16  HD
ATOM      4  C   TRP C   1     -23.094  22.911  -3.086  1.00 16.43 LIG 0.25  C 
ATOM      5 O    TRP C   1     -22.259  23.762  -2.794  1.00 19.21 LIG-0.27  OA
BRANCH 4 6
ATOM      6  CA  TRP C   1     -24.497  23.307  -3.502  1.00 16.09 LIG 0.28  C 
BRANCH 6 7
ATOM      7  N   TRP C   1     -25.067  24.361  -2.620  1.00 14.00 LIG-0.07  N 
ATOM      8 H2   TRP C   1     -25.383  23.988  -1.877  1.00 14.00 LIG 0.28  HD
ATOM      9 H1   TRP C   1     -25.728  24.780  -3.046  1.00 14.00 LIG 0.28  HD
ATOM     10 H3   TRP C   1     -24.432  24.948  -2.410  1.00 14.00 LIG 0.28  HD
ENDBRANCH 6 7
BRANCH 6 11
ATOM     11  CB  TRP C   1     -24.448  23.783  -4.958  1.00 13.46 LIG 0.08  C 
BRANCH 11 12
ATOM     12  CG  TRP C   1     -25.783  23.948  -5.582  1.00 14.84 LIG-0.03  A 
ATOM     13  CD1 TRP C   1     -26.534  25.086  -5.635  1.00 13.19 LIG 0.10  A 
ATOM     14  NE1 TRP C   1     -27.739  24.830  -6.244  1.00 14.33 LIG-0.36  N 
ATOM     15 HE1  TRP C   1     -28.363  25.405  -6.380  1.00 14.33 LIG 0.17  HD
ATOM     16  CE2 TRP C   1     -27.782  23.506  -6.598  1.00 14.48 LIG 0.04  A 
ATOM     17  CZ2 TRP C   1     -28.791  22.773  -7.233  1.00 13.61 LIG 0.03  A 
ATOM     18  CD2 TRP C   1     -26.563  22.918  -6.194  1.00 13.42 LIG-0.00  A 
ATOM     19  CH2 TRP C   1     -28.558  21.439  -7.462  1.00 12.22 LIG 0.00  A 
ATOM     20  CZ3 TRP C   1     -27.352  20.826  -7.073  1.00 14.06 LIG 0.00  A 
ATOM     21  CE3 TRP C   1     -26.350  21.554  -6.442  1.00 13.53 LIG 0.01  A 
ENDBRANCH 11 12
ENDBRANCH 6 11
ENDBRANCH 4 6
ENDBRANCH 1 2
BRANCH 1 22
ATOM     22  C   GLU C   2     -21.303  19.758  -3.384  1.00 17.76 LIG 0.24  C 
ATOM     23 O    GLU C   2     -22.261  19.061  -3.715  1.00 15.11 LIG-0.27  OA
ATOM     24  N   GLU C   3     -20.040  19.406  -3.591  1.00 16.84 LIG-0.35  N 
ATOM     25 H    GLU C   3     -19.367  19.901  -3.389  1.00 16.84 LIG 0.16  HD
BRANCH 24 26
ATOM     26  CA  GLU C   3     -19.685  18.130  -4.189  1.00 19.32 LIG 0.18  C 
BRANCH 26 27
ATOM     27  CB  GLU C   3     -18.162  18.040  -4.316  1.00 21.63 LIG 0.04  C 
BRANCH 27 28
ATOM     28  CG  GLU C   3     -17.635  16.982  -5.270  1.00 28.11 LIG 0.12  C 
BRANCH 28 29
ATOM     29  CD  GLU C   3     -17.885  17.320  -6.726  1.00 31.25 LIG 0.17  C 
ATOM     30 OE2  GLU C   3     -18.153  16.387  -7.515  1.00 33.54 LIG-0.65  OA
ATOM     31 OE1  GLU C   3     -17.797  18.513  -7.088  1.00 33.71 LIG-0.65  OA
ENDBRANCH 28 29
ENDBRANCH 27 28
ENDBRANCH 26 27
BRANCH 26 32
ATOM     32  C   GLU C   3     -20.206  17.037  -3.257  1.00 20.73 LIG 0.24  C 
ATOM     33  N   LEU C   4     -20.772  15.976  -3.828  1.00 21.37 LIG-0.34  N 
ATOM     34 H    LEU C   4     -20.861  15.873  -4.677  1.00 21.37 LIG 0.16  HD
ATOM     35 O    GLU C   3     -20.111  17.162  -2.036  1.00 19.68 LIG-0.27  OA
BRANCH 33 36
ATOM     36  CA  LEU C   4     -21.297  14.880  -3.024  1.00 23.29 LIG 0.18  C 
BRANCH 36 37
ATOM     37  CB  LEU C   4     -21.786  13.735  -3.914  1.00 22.30 LIG 0.04  C 
BRANCH 37 38
ATOM     38  CG  LEU C   4     -22.339  12.539  -3.133  1.00 23.00 LIG-0.02  C 
ATOM     39  CD2 LEU C   4     -22.450  11.332  -4.048  1.00 24.82 LIG 0.01  C 
ATOM     40  CD1 LEU C   4     -23.701  12.892  -2.555  1.00 24.76 LIG 0.01  C 
ENDBRANCH 37 38
ENDBRANCH 36 37
BRANCH 36 41
ATOM     41  C   LEU C   4     -20.219  14.350  -2.088  1.00 23.96 LIG 0.20  C 
ATOM     42 O    LEU C   4     -20.523  14.149  -0.893  1.00 25.84 LIG-0.65  OA
ATOM     43 OXT  LEU C   4     -19.089  14.127  -2.574  1.00 25.23 LIG-0.65  OA
ENDBRANCH 36 41
ENDBRANCH 33 36
ENDBRANCH 26 32
ENDBRANCH 24 26
ENDBRANCH 1 22
BRANCH 1 44
ATOM     44  CB  GLU C   2     -21.324  20.985  -1.217  1.00 20.11 LIG 0.04  C 
BRANCH 44 45
ATOM     45  CG  GLU C   2     -22.163  19.923  -0.537  1.00 24.89 LIG 0.12  C 
BRANCH 45 46
ATOM     46  CD  GLU C   2     -21.747  19.706   0.910  1.00 27.65 LIG 0.17  C 
ATOM     47 OE1  GLU C   2     -20.792  18.937   1.161  1.00 28.60 LIG-0.65  OA
ATOM     48 OE2  GLU C   2     -22.372  20.317   1.801  1.00 30.33 LIG-0.65  OA
ENDBRANCH 45 46
ENDBRANCH 44 45
ENDBRANCH 1 44
TORSDOF 18
