USER: ADFR SOLUTION from run 0
USER: SCORE 15.158537 LL:  -3.162 LR: -12.309 RR:   0.000 FEB:  -7.238
USER: RMSD 0.627409
USER: STATUS Locally minimized using BFGS
USER: GENES 19
USER: genes 0 Translation |==|  0.53059 0.53771 0.56326
USER: genes 1 Rotation |==|  0.52458 0.49684 0.48924 0.99927
USER: genes 2 Torsion [C]-N--CA-[C] |==|  0.80832
USER: genes 3 Torsion [N]-CA--CB-[CG] |==|  0.17298
USER: genes 4 Torsion [CA]-CB--CG-[CD1] |==|  0.26174
USER: genes 5 Torsion [N]-CA--C-[N] |==|  0.39415
USER: genes 6 Torsion [C]-N--CA-[C] |==|  0.69354
USER: genes 7 Torsion [N]-CA--C-[O] |==|  0.94806
USER: genes 8 Torsion [N]-CA--CB-[CG] |==|  0.86402
USER: genes 9 Torsion [CA]-CB--CG-[CD] |==|  0.79524
USER: genes 10 Torsion [CB]-CG--CD-[OE1] |==|  0.82185
USER: genes 11 Torsion [N]-C--CA-[N] |==|  0.17567
USER: genes 12 Torsion [C]-CA--CB-[CG] |==|  0.49477
USER: genes 13 Torsion [CA]-CB--CG-[CD1] |==|  0.24578
USER: genes 14 Torsion [CE1]-CZ--OH-[HH] |==|  0.41863
USER: genes 15 Torsion [C]-CA--N-[C] |==|  0.77778
USER: genes 16 Torsion [N]-C--CA-[N] |==|  0.98162
USER: genes 17 Torsion [C]-CA--CB-[CG] |==|  0.48881
USER: genes 18 Torsion [CA]-CB--CG-[CD1] |==|  0.51491
ROOT
ATOM      1  C   TYR C  12     -37.157  69.741  15.026  1.00 66.29 LIG 0.24  C 
ATOM      2 O    TYR C  12     -36.737  70.153  16.108  1.00 72.73 LIG-0.27  OA
ATOM      3  N   PHE C  13     -36.363  69.222  14.093  1.00 62.12 LIG-0.35  N 
ATOM      4 H    PHE C  13     -36.635  68.954  13.322  1.00 62.12 LIG 0.16  HD
ENDROOT
BRANCH 3 5
ATOM      5  CA  PHE C  13     -34.930  69.066  14.319  1.00 61.15 LIG 0.18  C 
BRANCH 5 6
ATOM      6  CB  PHE C  13     -34.297  68.184  13.236  1.00 57.79 LIG 0.07  C 
BRANCH 6 7
ATOM      7  CG  PHE C  13     -34.400  68.748  11.845  1.00 55.93 LIG-0.06  A 
ATOM      8  CD1 PHE C  13     -33.369  69.504  11.308  1.00 55.40 LIG 0.01  A 
ATOM      9  CE1 PHE C  13     -33.459  70.017  10.025  1.00 55.08 LIG 0.00  A 
ATOM     10  CZ  PHE C  13     -34.583  69.773   9.262  1.00 53.84 LIG 0.00  A 
ATOM     11  CE2 PHE C  13     -35.611  69.013   9.782  1.00 62.38 LIG 0.00  A 
ATOM     12  CD2 PHE C  13     -35.519  68.505  11.066  1.00 55.52 LIG 0.01  A 
ENDBRANCH 6 7
ENDBRANCH 5 6
BRANCH 5 13
ATOM     13  C   PHE C  13     -34.234  70.421  14.374  1.00 64.85 LIG 0.24  C 
ATOM     14 O    PHE C  13     -34.579  71.337  13.629  1.00 62.65 LIG-0.27  OA
ATOM     15  N   GLN C  14     -33.255  70.539  15.266  1.00 69.96 LIG-0.34  N 
ATOM     16 H    GLN C  14     -32.987  69.896  15.769  1.00 69.96 LIG 0.16  HD
BRANCH 15 17
ATOM     17  CA  GLN C  14     -32.542  71.795  15.470  1.00 68.16 LIG 0.19  C 
BRANCH 17 18
ATOM     18  C   GLN C  14     -31.103  71.709  14.968  1.00 80.56 LIG 0.20  C 
ATOM     19 O    GLN C  14     -30.555  70.621  14.783  1.00 73.75 LIG-0.65  OA
ATOM     20 OXT  GLN C  14     -30.454  72.729  14.733  1.00 84.17 LIG-0.65  OA
ENDBRANCH 17 18
BRANCH 17 21
ATOM     21  CB  GLN C  14     -32.559  72.180  16.951  1.00 71.08 LIG 0.04  C 
BRANCH 21 22
ATOM     22  CG  GLN C  14     -33.935  72.115  17.595  1.00 84.90 LIG 0.10  C 
BRANCH 22 23
ATOM     23  CD  GLN C  14     -34.835  73.255  17.164  1.00 85.71 LIG 0.21  C 
ATOM     24  NE2 GLN C  14     -35.921  72.927  16.473  1.00 87.27 LIG-0.37  N 
ATOM     25 22HE GLN C  14     -36.461  73.540  16.206  1.00 87.27 LIG 0.16  HD
ATOM     26 21HE GLN C  14     -36.084  72.102  16.294  1.00 87.27 LIG 0.16  HD
ATOM     27 OE1  GLN C  14     -34.555  74.420  17.448  1.00 92.83 LIG-0.27  OA
ENDBRANCH 22 23
ENDBRANCH 21 22
ENDBRANCH 17 21
ENDBRANCH 15 17
ENDBRANCH 5 13
ENDBRANCH 3 5
BRANCH 1 28
ATOM     28  CA  TYR C  12     -38.644  69.816  14.697  1.00 72.08 LIG 0.18  C 
BRANCH 28 29
ATOM     29  CB  TYR C  12     -39.380  70.571  15.806  1.00 70.95 LIG 0.07  C 
BRANCH 29 30
ATOM     30  CG  TYR C  12     -40.860  70.744  15.559  1.00 83.06 LIG-0.06  A 
ATOM     31  CD1 TYR C  12     -41.771  69.780  15.975  1.00 86.94 LIG 0.01  A 
ATOM     32  CE1 TYR C  12     -43.127  69.936  15.753  1.00 80.65 LIG 0.04  A 
ATOM     33  CZ  TYR C  12     -43.587  71.067  15.113  1.00 81.62 LIG 0.07  A 
ATOM     34  CE2 TYR C  12     -42.702  72.039  14.694  1.00 86.89 LIG 0.04  A 
ATOM     35  CD2 TYR C  12     -41.349  71.875  14.918  1.00 81.98 LIG 0.01  A 
BRANCH 33 36
ATOM     36 OH   TYR C  12     -44.936  71.225  14.890  1.00 83.24 LIG-0.36  OA
ATOM     37 HH   TYR C  12     -45.124  72.043  14.882  1.00 83.24 LIG 0.22  HD
ENDBRANCH 33 36
ENDBRANCH 29 30
ENDBRANCH 28 29
BRANCH 28 38
ATOM     38  N   TYR C  12     -39.221  68.489  14.511  1.00 66.73 LIG-0.34  N 
ATOM     39  C   LEU C  11     -39.080  67.819  13.372  1.00 75.02 LIG 0.26  C 
ATOM     40 O    LEU C  11     -38.465  68.266  12.404  1.00 79.88 LIG-0.27  OA
ATOM     41 H    TYR C  12     -39.651  68.190  15.193  1.00 66.73 LIG 0.16  HD
BRANCH 39 42
ATOM     42  CA  LEU C  11     -39.727  66.440  13.312  1.00 79.60 LIG 0.40  C 
ATOM     43  N   LEU C  11     -40.265  66.050  14.611  1.00 85.33 LIG 0.61  N 
BRANCH 42 44
ATOM     44  CB  LEU C  11     -40.827  66.424  12.248  1.00 82.02 LIG 0.06  C 
BRANCH 44 45
ATOM     45  CG  LEU C  11     -41.519  65.083  11.989  1.00 84.03 LIG-0.02  C 
ATOM     46  CD1 LEU C  11     -42.487  65.195  10.823  1.00 79.83 LIG 0.01  C 
ATOM     47  CD2 LEU C  11     -40.493  63.990  11.732  1.00 84.62 LIG 0.01  C 
ENDBRANCH 44 45
ENDBRANCH 42 44
ENDBRANCH 39 42
ENDBRANCH 28 38
ENDBRANCH 1 28
TORSDOF 17
