USER: ADFR SOLUTION from run 0
USER: SCORE 17.621512 LL:  -4.411 LR: -17.242 RR:   0.000 FEB:  -9.188
USER: RMSD 0.543890
USER: STATUS Locally minimized using BFGS
USER: GENES 29
USER: genes 0 Translation |==|  0.48859 0.49171 0.53174
USER: genes 1 Rotation |==|  0.49757 0.49394 0.49251 0.99990
USER: genes 2 Torsion [C]-N--CA-[CB] |==|  0.29723
USER: genes 3 Torsion [N]-CA--CB-[CG] |==|  0.49930
USER: genes 4 Torsion [CA]-CB--CG-[CD] |==|  0.45836
USER: genes 5 Torsion [CB]-CG--CD-[OE1] |==|  0.97307
USER: genes 6 Torsion [N]-CA--C-[N] |==|  0.36781
USER: genes 7 Torsion [C]-N--CA-[CB] |==|  0.29194
USER: genes 8 Torsion [N]-CA--CB-[CG2] |==|  0.49354
USER: genes 9 Torsion [CA]-CB--OG1-[HG1] |==|  0.20829
USER: genes 10 Torsion [N]-CA--C-[N] |==|  0.36751
USER: genes 11 Torsion [C]-N--CA-[CB] |==|  0.43589
USER: genes 12 Torsion [N]-CA--C-[N] |==|  0.36667
USER: genes 13 Torsion [C]-N--CA-[CB] |==|  0.29871
USER: genes 14 Torsion [N]-CA--CB-[CG1] |==|  0.82259
USER: genes 15 Torsion [N]-CA--C-[OXT] |==|  0.96374
USER: genes 16 Torsion [N]-C--CA-[N] |==|  0.42096
USER: genes 17 Torsion [C]-CA--N-[C] |==|  0.59527
USER: genes 18 Torsion [N]-C--CA-[N] |==|  0.44208
USER: genes 19 Torsion [C]-CA--N-[C] |==|  0.68428
USER: genes 20 Torsion [N]-C--CA-[N] |==|  0.27202
USER: genes 21 Torsion [C]-CA--CB-[CG] |==|  0.48513
USER: genes 22 Torsion [CA]-CB--CG-[CD] |==|  0.50511
USER: genes 23 Torsion [CB]-CG--CD-[OE1] |==|  0.05260
USER: genes 24 Torsion [C]-CA--CB-[CG] |==|  0.44993
USER: genes 25 Torsion [CA]-CB--CG-[OD2] |==|  0.53592
USER: genes 26 Torsion [C]-CA--CB-[CG] |==|  0.16603
USER: genes 27 Torsion [CA]-CB--CG-[CD] |==|  0.47606
USER: genes 28 Torsion [CB]-CG--CD-[NE2] |==|  0.48831
ROOT
ATOM      1  C   GLN P 203      48.510  23.596  62.953  1.00  9.42 LIG 0.24  C 
ATOM      2 O    GLN P 203      48.739  22.610  63.649  1.00  9.14 LIG-0.27  OA
ATOM      3  N   GLU P 204      48.087  23.534  61.694  1.00  8.86 LIG-0.35  N 
ATOM      4 H    GLU P 204      47.913  24.233  61.223  1.00  8.86 LIG 0.16  HD
ENDROOT
BRANCH 3 5
ATOM      5  CA  GLU P 204      47.876  22.288  60.986  1.00  8.20 LIG 0.18  C 
BRANCH 5 6
ATOM      6  CB  GLU P 204      46.374  22.016  60.823  1.00  8.38 LIG 0.04  C 
BRANCH 6 7
ATOM      7  CG  GLU P 204      46.055  20.731  60.085  1.00  8.68 LIG 0.12  C 
BRANCH 7 8
ATOM      8  CD  GLU P 204      44.622  20.272  60.226  1.00  9.48 LIG 0.17  C 
ATOM      9 OE2  GLU P 204      44.248  19.324  59.498  1.00  9.77 LIG-0.65  OA
ATOM     10 OE1  GLU P 204      43.860  20.839  61.055  1.00 12.74 LIG-0.65  OA
ENDBRANCH 7 8
ENDBRANCH 6 7
ENDBRANCH 5 6
BRANCH 5 11
ATOM     11  C   GLU P 204      48.563  22.366  59.624  1.00  7.44 LIG 0.24  C 
ATOM     12  N   THR P 205      49.315  21.323  59.289  1.00  7.26 LIG-0.34  N 
ATOM     13 H    THR P 205      49.383  20.614  59.772  1.00  7.26 LIG 0.16  HD
ATOM     14 O    GLU P 204      48.396  23.342  58.889  1.00  9.81 LIG-0.27  OA
BRANCH 12 15
ATOM     15  CA  THR P 205      50.106  21.281  58.053  1.00  8.42 LIG 0.20  C 
BRANCH 15 16
ATOM     16  CB  THR P 205      51.607  21.485  58.350  1.00  8.21 LIG 0.15  C 
ATOM     17  CG2 THR P 205      52.447  21.386  57.080  1.00 10.35 LIG 0.04  C 
BRANCH 16 18
ATOM     18 OG1  THR P 205      51.791  22.766  58.943  1.00  9.36 LIG-0.39  OA
ATOM     19 HG1  THR P 205      51.530  22.746  59.741  1.00  9.36 LIG 0.21  HD
ENDBRANCH 16 18
ENDBRANCH 15 16
BRANCH 15 20
ATOM     20  C   THR P 205      49.912  19.928  57.383  1.00  8.16 LIG 0.24  C 
ATOM     21  N   ALA P 206      49.641  19.929  56.076  1.00  8.68 LIG-0.35  N 
ATOM     22 H    ALA P 206      49.487  20.645  55.625  1.00  8.68 LIG 0.16  HD
ATOM     23 O    THR P 205      50.027  18.898  58.040  1.00  8.51 LIG-0.27  OA
BRANCH 21 24
ATOM     24  CA  ALA P 206      49.581  18.700  55.282  1.00  9.43 LIG 0.17  C 
ATOM     25  CB  ALA P 206      48.737  18.913  54.045  1.00 10.70 LIG 0.04  C 
BRANCH 24 26
ATOM     26  C   ALA P 206      50.988  18.305  54.870  1.00  8.67 LIG 0.24  C 
ATOM     27  N   VAL P 207      51.340  17.042  55.059  1.00  8.87 LIG-0.34  N 
ATOM     28 H    VAL P 207      50.817  16.451  55.400  1.00  8.87 LIG 0.16  HD
ATOM     29 O    ALA P 206      51.741  19.136  54.359  1.00 12.25 LIG-0.27  OA
BRANCH 27 30
ATOM     30  CA  VAL P 207      52.664  16.526  54.700  1.00 10.42 LIG 0.19  C 
BRANCH 30 31
ATOM     31  CB  VAL P 207      53.516  16.252  55.955  1.00 10.06 LIG 0.01  C 
ATOM     32  CG2 VAL P 207      52.843  15.247  56.870  1.00  9.34 LIG 0.01  C 
ATOM     33  CG1 VAL P 207      53.787  17.544  56.701  1.00 12.13 LIG 0.01  C 
ENDBRANCH 30 31
BRANCH 30 34
ATOM     34  C   VAL P 207      52.557  15.251  53.868  1.00 10.78 LIG 0.20  C 
ATOM     35 OXT  VAL P 207      51.472  14.632  53.769  1.00 11.55 LIG-0.65  OA
ATOM     36 O    VAL P 207      53.566  14.813  53.312  1.00 12.79 LIG-0.65  OA
ENDBRANCH 30 34
ENDBRANCH 27 30
ENDBRANCH 24 26
ENDBRANCH 21 24
ENDBRANCH 15 20
ENDBRANCH 12 15
ENDBRANCH 5 11
ENDBRANCH 3 5
BRANCH 1 37
ATOM     37  CA  GLN P 203      48.673  24.984  63.534  1.00 11.41 LIG 0.18  C 
BRANCH 37 38
ATOM     38  N   GLN P 203      48.456  24.855  64.967  1.00 12.67 LIG-0.35  N 
ATOM     39 H    GLN P 203      48.736  24.111  65.294  1.00 12.67 LIG 0.16  HD
ATOM     40  C   ASP P 202      47.883  25.794  65.696  1.00 21.18 LIG 0.24  C 
ATOM     41 O    ASP P 202      47.541  26.886  65.247  1.00 33.25 LIG-0.27  OA
BRANCH 40 42
ATOM     42  CA  ASP P 202      47.684  25.438  67.160  1.00 16.67 LIG 0.19  C 
BRANCH 42 43
ATOM     43  N   ASP P 202      47.521  26.651  67.954  1.00 26.09 LIG-0.34  N 
ATOM     44 H    ASP P 202      46.802  27.088  67.779  1.00 26.09 LIG 0.16  HD
ATOM     45  C   GLU P 201      48.410  27.039  68.865  1.00 35.13 LIG 0.26  C 
ATOM     46 O    GLU P 201      49.465  26.436  69.110  1.00 29.54 LIG-0.27  OA
BRANCH 45 47
ATOM     47  CA  GLU P 201      48.053  28.303  69.625  1.00 34.09 LIG 0.40  C 
ATOM     48  N   GLU P 201      47.459  27.963  70.913  1.00 44.06 LIG 0.61  N 
BRANCH 47 49
ATOM     49  CB  GLU P 201      49.302  29.155  69.813  1.00 39.23 LIG 0.06  C 
BRANCH 49 50
ATOM     50  CG  GLU P 201      49.020  30.497  70.449  1.00 50.88 LIG 0.12  C 
BRANCH 50 51
ATOM     51  CD  GLU P 201      50.261  31.345  70.587  1.00 53.24 LIG 0.17  C 
ATOM     52 OE1  GLU P 201      51.261  31.070  69.888  1.00 48.77 LIG-0.65  OA
ATOM     53 OE2  GLU P 201      50.252  32.274  71.419  1.00 60.00 LIG-0.65  OA
ENDBRANCH 50 51
ENDBRANCH 49 50
ENDBRANCH 47 49
ENDBRANCH 45 47
ENDBRANCH 42 43
BRANCH 42 54
ATOM     54  CB  ASP P 202      46.464  24.521  67.294  1.00 19.05 LIG 0.15  C 
BRANCH 54 55
ATOM     55  CG  ASP P 202      46.427  23.756  68.628  1.00 27.39 LIG 0.17  C 
ATOM     56 OD2  ASP P 202      45.623  22.805  68.749  1.00 38.79 LIG-0.65  OA
ATOM     57 OD1  ASP P 202      47.192  24.097  69.554  1.00 28.21 LIG-0.65  OA
ENDBRANCH 54 55
ENDBRANCH 42 54
ENDBRANCH 40 42
ENDBRANCH 37 38
BRANCH 37 58
ATOM     58  CB  GLN P 203      50.079  25.538  63.257  1.00 11.55 LIG 0.04  C 
BRANCH 58 59
ATOM     59  CG  GLN P 203      50.431  25.652  61.787  1.00 10.86 LIG 0.10  C 
BRANCH 59 60
ATOM     60  CD  GLN P 203      51.732  26.391  61.546  1.00 14.61 LIG 0.21  C 
ATOM     61  NE2 GLN P 203      52.144  26.451  60.284  1.00 16.54 LIG-0.37  N 
ATOM     62 21HE GLN P 203      51.687  26.070  59.664  1.00 16.54 LIG 0.16  HD
ATOM     63 22HE GLN P 203      52.868  26.871  60.088  1.00 16.54 LIG 0.16  HD
ATOM     64 OE1  GLN P 203      52.348  26.918  62.472  1.00 19.59 LIG-0.27  OA
ENDBRANCH 59 60
ENDBRANCH 58 59
ENDBRANCH 37 58
ENDBRANCH 1 37
TORSDOF 27
