USER: ADFR SOLUTION from run 0
USER: SCORE 16.125492 LL:  -3.526 LR: -15.651 RR:   0.000 FEB:  -8.492
USER: RMSD 0.658497
USER: STATUS Locally minimized using BFGS
USER: GENES 26
USER: genes 0 Translation |==|  0.49504 0.51125 0.53180
USER: genes 1 Rotation |==|  0.50592 0.50148 0.50415 0.99995
USER: genes 2 Torsion [N]-C--CA-[N] |==|  0.34885
USER: genes 3 Torsion [C]-CA--CB-[CG] |==|  0.18023
USER: genes 4 Torsion [CA]-CB--CG-[CD] |==|  0.52062
USER: genes 5 Torsion [CB]-CG--CD-[OE1] |==|  0.11634
USER: genes 6 Torsion [C]-CA--N-[C] |==|  0.62696
USER: genes 7 Torsion [N]-C--CA-[N] |==|  0.36797
USER: genes 8 Torsion [C]-CA--CB-[CG] |==|  0.40441
USER: genes 9 Torsion [CA]-CB--CG-[CD] |==|  0.77473
USER: genes 10 Torsion [CB]-CG--CD-[NE] |==|  0.86275
USER: genes 11 Torsion [CG]-CD--NE-[CZ] |==|  0.74913
USER: genes 12 Torsion [C]-CA--N-[C] |==|  0.82499
USER: genes 13 Torsion [N]-C--CA-[N] |==|  0.17143
USER: genes 14 Torsion [C]-N--CA-[CB] |==|  0.30000
USER: genes 15 Torsion [N]-CA--CB-[CG2] |==|  0.52245
USER: genes 16 Torsion [CA]-CB--OG1-[HG1] |==|  0.26116
USER: genes 17 Torsion [N]-CA--C-[N] |==|  0.37274
USER: genes 18 Torsion [C]-N--CA-[CB] |==|  0.42326
USER: genes 19 Torsion [N]-CA--CB-[CG] |==|  0.81667
USER: genes 20 Torsion [CA]-CB--CG-[CD] |==|  0.51445
USER: genes 21 Torsion [CB]-CG--CD-[OE1] |==|  0.13739
USER: genes 22 Torsion [N]-CA--C-[N] |==|  0.33414
USER: genes 23 Torsion [C]-N--CA-[C] |==|  0.66560
USER: genes 24 Torsion [N]-CA--C-[O] |==|  0.44736
USER: genes 25 Torsion [N]-CA--CB-[CG2] |==|  0.15374
ROOT
ATOM      1  C   GLU E  10      35.103 -33.484  -8.282  1.00 63.15 LIG 0.24  C 
ATOM      2 O    GLU E  10      35.672 -34.553  -8.044  1.00 62.80 LIG-0.27  OA
ATOM      3  N   THR E  11      34.381 -33.266  -9.395  1.00 58.35 LIG-0.34  N 
ATOM      4 H    THR E  11      33.990 -32.519  -9.563  1.00 58.35 LIG 0.16  HD
ENDROOT
BRANCH 1 5
ATOM      5  CA  GLU E  10      35.195 -32.331  -7.278  1.00 61.04 LIG 0.18  C 
BRANCH 5 6
ATOM      6  CB  GLU E  10      36.622 -31.760  -7.214  1.00 62.44 LIG 0.04  C 
BRANCH 6 7
ATOM      7  CG  GLU E  10      37.089 -31.102  -8.505  1.00 71.88 LIG 0.12  C 
BRANCH 7 8
ATOM      8  CD  GLU E  10      38.546 -30.684  -8.541  1.00 89.61 LIG 0.17  C 
ATOM      9 OE1  GLU E  10      39.408 -31.459  -8.063  1.00 85.83 LIG-0.65  OA
ATOM     10 OE2  GLU E  10      38.833 -29.598  -9.093  1.00 80.51 LIG-0.65  OA
ENDBRANCH 7 8
ENDBRANCH 6 7
ENDBRANCH 5 6
BRANCH 5 11
ATOM     11  N   GLU E  10      34.765 -32.796  -5.959  1.00 62.09 LIG-0.35  N 
ATOM     12  C   ARG E   9      33.926 -32.129  -5.152  1.00 67.00 LIG 0.24  C 
ATOM     13 O    ARG E   9      33.437 -31.033  -5.435  1.00 66.41 LIG-0.27  OA
ATOM     14 H    GLU E  10      35.107 -33.555  -5.743  1.00 62.09 LIG 0.16  HD
BRANCH 12 15
ATOM     15  CA  ARG E   9      33.587 -32.801  -3.821  1.00 65.18 LIG 0.18  C 
BRANCH 15 16
ATOM     16  CB  ARG E   9      32.177 -33.416  -3.888  1.00 65.91 LIG 0.04  C 
BRANCH 16 17
ATOM     17  CG  ARG E   9      32.004 -34.716  -3.100  1.00 77.53 LIG 0.02  C 
BRANCH 17 18
ATOM     18  CD  ARG E   9      32.511 -35.957  -3.834  1.00 87.32 LIG 0.14  C 
BRANCH 18 19
ATOM     19  NE  ARG E   9      32.013 -36.056  -5.210  1.00 94.16 LIG-0.23  N 
ATOM     20  CZ  ARG E   9      30.892 -36.675  -5.570  1.00107.18 LIG 0.67  C 
ATOM     21  NH2 ARG E   9      30.528 -36.712  -6.843  1.00 92.81 LIG-0.23  N 
ATOM     22  NH1 ARG E   9      30.124 -37.258  -4.657  1.00 95.67 LIG-0.23  N 
ATOM     23 1HH2 ARG E   9      31.017 -36.333  -7.442  1.00 92.81 LIG 0.17  HD
ATOM     24 2HH2 ARG E   9      29.802 -37.113  -7.072  1.00 92.81 LIG 0.17  HD
ATOM     25 2HH1 ARG E   9      29.399 -37.657  -4.895  1.00 95.67 LIG 0.17  HD
ATOM     26 1HH1 ARG E   9      30.350 -37.237  -3.827  1.00 95.67 LIG 0.17  HD
ATOM     27 HE   ARG E   9      32.481 -35.687  -5.830  1.00 94.16 LIG 0.18  HD
ENDBRANCH 18 19
ENDBRANCH 17 18
ENDBRANCH 16 17
ENDBRANCH 15 16
BRANCH 15 28
ATOM     28  N   ARG E   9      33.701 -31.886  -2.681  1.00 66.15 LIG-0.35  N 
ATOM     29 H    ARG E   9      32.953 -31.759  -2.278  1.00 66.15 LIG 0.16  HD
ATOM     30  C   GLY E   8      34.846 -31.294  -2.284  1.00 70.79 LIG 0.25  C 
ATOM     31 O    GLY E   8      35.930 -31.465  -2.851  1.00 70.42 LIG-0.27  OA
BRANCH 30 32
ATOM     32  CA  GLY E   8      34.753 -30.384  -1.078  1.00 68.19 LIG 0.47  C 
ATOM     33  N   GLY E   8      34.325 -31.079   0.128  1.00 68.87 LIG 0.61  N 
ENDBRANCH 30 32
ENDBRANCH 15 28
ENDBRANCH 12 15
ENDBRANCH 5 11
ENDBRANCH 1 5
BRANCH 3 34
ATOM     34  CA  THR E  11      34.188 -34.280 -10.435  1.00 57.37 LIG 0.20  C 
BRANCH 34 35
ATOM     35  CB  THR E  11      32.740 -34.812 -10.409  1.00 62.59 LIG 0.15  C 
ATOM     36  CG2 THR E  11      32.529 -36.008 -11.336  1.00 60.54 LIG 0.04  C 
BRANCH 35 37
ATOM     37 OG1  THR E  11      32.392 -35.179  -9.075  1.00 61.42 LIG-0.39  OA
ATOM     38 HG1  THR E  11      32.007 -34.534  -8.698  1.00 61.42 LIG 0.21  HD
ENDBRANCH 35 37
ENDBRANCH 34 35
BRANCH 34 39
ATOM     39  C   THR E  11      34.593 -33.757 -11.817  1.00 59.93 LIG 0.24  C 
ATOM     40 O    THR E  11      34.211 -32.647 -12.192  1.00 59.05 LIG-0.27  OA
ATOM     41  N   GLU E  12      35.349 -34.574 -12.570  1.00 55.90 LIG-0.35  N 
ATOM     42 H    GLU E  12      35.624 -35.340 -12.292  1.00 55.90 LIG 0.16  HD
BRANCH 41 43
ATOM     43  CA  GLU E  12      35.785 -34.261 -13.931  1.00 55.43 LIG 0.18  C 
BRANCH 43 44
ATOM     44  CB  GLU E  12      37.111 -34.973 -14.271  1.00 56.88 LIG 0.04  C 
BRANCH 44 45
ATOM     45  CG  GLU E  12      38.312 -34.506 -13.465  1.00 68.03 LIG 0.12  C 
BRANCH 45 46
ATOM     46  CD  GLU E  12      39.645 -35.107 -13.871  1.00 88.63 LIG 0.17  C 
ATOM     47 OE1  GLU E  12      39.965 -35.097 -15.082  1.00 85.30 LIG-0.65  OA
ATOM     48 OE2  GLU E  12      40.391 -35.550 -12.968  1.00 81.03 LIG-0.65  OA
ENDBRANCH 45 46
ENDBRANCH 44 45
ENDBRANCH 43 44
BRANCH 43 49
ATOM     49  C   GLU E  12      34.685 -34.703 -14.898  1.00 58.58 LIG 0.24  C 
ATOM     50 O    GLU E  12      34.323 -35.883 -14.911  1.00 58.36 LIG-0.27  OA
ATOM     51  N   VAL E  13      34.134 -33.757 -15.680  1.00 54.46 LIG-0.34  N 
ATOM     52 H    VAL E  13      34.369 -32.930 -15.652  1.00 54.46 LIG 0.16  HD
BRANCH 51 53
ATOM     53  CA  VAL E  13      33.073 -34.034 -16.662  1.00 55.96 LIG 0.19  C 
BRANCH 53 54
ATOM     54  C   VAL E  13      33.482 -33.665 -18.102  1.00 65.43 LIG 0.20  C 
ATOM     55 O    VAL E  13      32.845 -34.166 -19.054  1.00 66.90 LIG-0.65  OA
ATOM     56 OXT  VAL E  13      34.450 -32.893 -18.275  1.00 83.99 LIG-0.65  OA
ENDBRANCH 53 54
BRANCH 53 57
ATOM     57  CB  VAL E  13      31.665 -33.486 -16.271  1.00 59.73 LIG 0.01  C 
ATOM     58  CG2 VAL E  13      31.689 -31.987 -15.987  1.00 59.40 LIG 0.01  C 
ATOM     59  CG1 VAL E  13      31.068 -34.260 -15.098  1.00 59.53 LIG 0.01  C 
ENDBRANCH 53 57
ENDBRANCH 51 53
ENDBRANCH 43 49
ENDBRANCH 41 43
ENDBRANCH 34 39
ENDBRANCH 3 34
TORSDOF 24
