USER: ADFR SOLUTION from run 0
USER: SCORE 9.694387 LL:  -2.138 LR:  -8.847 RR:   0.000 FEB:  -4.969
USER: RMSD 0.560560
USER: STATUS Locally minimized using BFGS
USER: GENES 15
USER: genes 0 Translation |==|  0.59302 0.49724 0.46058
USER: genes 1 Rotation |==|  0.49944 0.48105 0.51826 0.99931
USER: genes 2 Torsion [CB]-CA--N-[C] |==|  0.39452
USER: genes 3 Torsion [N]-C--CA-[N] |==|  0.40556
USER: genes 4 Torsion [C]-CA--CB-[OG] |==|  0.49051
USER: genes 5 Torsion [CA]-CB--OG-[HG] |==|  0.49967
USER: genes 6 Torsion [C]-CA--N-[C] |==|  0.80037
USER: genes 7 Torsion [N]-C--CA-[N] |==|  0.12265
USER: genes 8 Torsion [N]-CA--CB-[CG] |==|  0.47371
USER: genes 9 Torsion [CA]-CB--CG-[CD1] |==|  0.71887
USER: genes 10 Torsion [N]-CA--C-[N] |==|  0.86435
USER: genes 11 Torsion [C]-N--CA-[C] |==|  0.65143
USER: genes 12 Torsion [N]-CA--CB-[CG] |==|  0.69423
USER: genes 13 Torsion [CA]-CB--CG-[ND1] |==|  0.74407
USER: genes 14 Torsion [N]-CA--C-[O] |==|  0.38156
ROOT
ATOM      1  CA  TRP G 420     -37.465 -28.308  29.897  1.00 30.19 LIG 0.18  C 
ENDROOT
BRANCH 1 2
ATOM      2  N   TRP G 420     -37.302 -29.156  31.076  1.00 29.90 LIG-0.35  N 
ATOM      3 H    TRP G 420     -36.749 -29.806  30.966  1.00 29.90 LIG 0.16  HD
ATOM      4  C   SER G 419     -37.960 -28.932  32.221  1.00 34.18 LIG 0.24  C 
ATOM      5 O    SER G 419     -38.690 -27.958  32.397  1.00 34.33 LIG-0.27  OA
BRANCH 4 6
ATOM      6  CA  SER G 419     -37.781 -29.970  33.330  1.00 31.26 LIG 0.20  C 
BRANCH 6 7
ATOM      7  CB  SER G 419     -38.857 -31.047  33.199  1.00 37.91 LIG 0.20  C 
BRANCH 7 8
ATOM      8 OG   SER G 419     -38.663 -32.064  34.171  1.00 57.41 LIG-0.40  OA
ATOM      9 HG   SER G 419     -39.261 -32.648  34.089  1.00 57.41 LIG 0.21  HD
ENDBRANCH 7 8
ENDBRANCH 6 7
BRANCH 6 10
ATOM     10  N   SER G 419     -37.806 -29.360  34.660  1.00 31.62 LIG-0.34  N 
ATOM     11 H    SER G 419     -38.514 -29.523  35.118  1.00 31.62 LIG 0.16  HD
ATOM     12  C   GLY G 418     -36.777 -28.609  35.090  1.00 37.47 LIG 0.25  C 
ATOM     13 O    GLY G 418     -35.790 -28.388  34.390  1.00 34.17 LIG-0.27  OA
BRANCH 12 14
ATOM     14  CA  GLY G 418     -36.880 -27.986  36.466  1.00 40.24 LIG 0.47  C 
ATOM     15  N   GLY G 418     -37.388 -28.886  37.496  1.00 42.39 LIG 0.61  N 
ENDBRANCH 12 14
ENDBRANCH 6 10
ENDBRANCH 4 6
ENDBRANCH 1 2
BRANCH 1 16
ATOM     16  CB  TRP G 420     -36.131 -28.123  29.178  1.00 27.27 LIG 0.07  C 
BRANCH 16 17
ATOM     17  CG  TRP G 420     -36.226 -27.456  27.839  1.00 26.68 LIG-0.03  A 
ATOM     18  CD1 TRP G 420     -36.188 -28.053  26.617  1.00 29.02 LIG 0.10  A 
ATOM     19  NE1 TRP G 420     -36.190 -27.101  25.623  1.00 28.83 LIG-0.36  N 
ATOM     20 HE1  TRP G 420     -36.130 -27.258  24.779  1.00 28.83 LIG 0.17  HD
ATOM     21  CE2 TRP G 420     -36.301 -25.861  26.197  1.00 29.48 LIG 0.04  A 
ATOM     22  CD2 TRP G 420     -36.315 -26.047  27.597  1.00 26.13 LIG-0.00  A 
ATOM     23  CZ2 TRP G 420     -36.349 -24.589  25.611  1.00 28.18 LIG 0.03  A 
ATOM     24  CE3 TRP G 420     -36.385 -24.920  28.434  1.00 26.84 LIG 0.01  A 
ATOM     25  CZ3 TRP G 420     -36.451 -23.660  27.848  1.00 27.14 LIG 0.00  A 
ATOM     26  CH2 TRP G 420     -36.428 -23.508  26.459  1.00 27.58 LIG 0.00  A 
ENDBRANCH 16 17
ENDBRANCH 1 16
BRANCH 1 27
ATOM     27  C   TRP G 420     -38.480 -28.949  28.960  1.00 38.21 LIG 0.24  C 
ATOM     28 O    TRP G 420     -39.362 -28.255  28.465  1.00 38.32 LIG-0.27  OA
ATOM     29  N   HIS G 421     -38.320 -30.252  28.670  1.00 36.18 LIG-0.35  N 
ATOM     30 H    HIS G 421     -37.688 -30.731  29.002  1.00 36.18 LIG 0.16  HD
BRANCH 29 31
ATOM     31  CA  HIS G 421     -39.200 -30.991  27.763  1.00 85.07 LIG 0.17  C 
BRANCH 31 32
ATOM     32  CB  HIS G 421     -38.462 -31.354  26.466  1.00 86.25 LIG 0.09  C 
BRANCH 32 33
ATOM     33  CG  HIS G 421     -38.954 -30.594  25.273  1.00 90.14 LIG 0.06  A 
ATOM     34 ND1  HIS G 421     -39.956 -31.096  24.459  1.00 92.13 LIG-0.24  NA
ATOM     35  CE1 HIS G 421     -40.149 -30.178  23.523  1.00 91.61 LIG 0.23  A 
ATOM     36 NE2  HIS G 421     -39.346 -29.125  23.695  1.00 91.87 LIG-0.25  NA
ATOM     37  CD2 HIS G 421     -38.577 -29.380  24.806  1.00 92.02 LIG 0.14  A 
ENDBRANCH 32 33
ENDBRANCH 31 32
BRANCH 31 38
ATOM     38  C   HIS G 421     -39.775 -32.234  28.420  1.00112.71 LIG 0.22  C 
ATOM     39 O    HIS G 421     -40.960 -32.516  28.257  1.00 75.09 LIG-0.29  OA
ENDBRANCH 31 38
ENDBRANCH 29 31
ENDBRANCH 1 27
TORSDOF 13
