USER: ADFR SOLUTION from run 0
USER: SCORE 11.965517 LL:  -2.987 LR: -10.358 RR:   0.000 FEB:  -7.077
USER: RMSD 0.725749
USER: STATUS Locally minimized using BFGS
USER: GENES 13
USER: genes 0 Translation |==|  0.53527 0.46979 0.57966
USER: genes 1 Rotation |==|  0.50735 0.50612 0.49752 0.99990
USER: genes 2 Torsion [CB]-CA--N-[C] |==|  0.30000
USER: genes 3 Torsion [N]-C--CA-[N] |==|  0.36983
USER: genes 4 Torsion [C]-CA--CB-[CG] |==|  0.48242
USER: genes 5 Torsion [CA]-CB--CG-[CD1] |==|  0.24104
USER: genes 6 Torsion [C]-CA--N-[C] |==|  0.78617
USER: genes 7 Torsion [N]-CA--C-[N] |==|  0.40943
USER: genes 8 Torsion [N]-CA--C-[N] |==|  0.38925
USER: genes 9 Torsion [C]-N--CA-[C] |==|  0.77486
USER: genes 10 Torsion [N]-CA--C-[N] |==|  0.96356
USER: genes 11 Torsion [N]-CA--CB-[CG] |==|  0.87526
USER: genes 12 Torsion [CA]-CB--CG-[ND1] |==|  0.78248
ROOT
ATOM      1  CA  HIS C   2      25.216   2.489  44.355  1.00 12.40 LIG 0.18  C 
ENDROOT
BRANCH 1 2
ATOM      2  N   HIS C   2      25.137   2.171  42.922  1.00  9.19 LIG-0.35  N 
ATOM      3 H    HIS C   2      24.597   2.672  42.480  1.00  9.19 LIG 0.16  HD
ATOM      4  C   PHE C   1      25.847   1.189  42.370  1.00 11.27 LIG 0.24  C 
ATOM      5 O    PHE C   1      26.690   0.531  42.995  1.00 15.22 LIG-0.27  OA
BRANCH 4 6
ATOM      6  CA  PHE C   1      25.591   0.916  40.886  1.00  8.70 LIG 0.18  C 
BRANCH 6 7
ATOM      7  CB  PHE C   1      24.742  -0.345  40.724  1.00  9.29 LIG 0.07  C 
BRANCH 7 8
ATOM      8  CG  PHE C   1      24.312  -0.611  39.310  1.00  9.78 LIG-0.06  A 
ATOM      9  CD1 PHE C   1      25.127  -1.325  38.434  1.00  9.46 LIG 0.01  A 
ATOM     10  CE1 PHE C   1      24.730  -1.565  37.113  1.00  9.12 LIG 0.00  A 
ATOM     11  CZ  PHE C   1      23.504  -1.092  36.665  1.00  8.05 LIG 0.00  A 
ATOM     12  CE2 PHE C   1      22.686  -0.373  37.534  1.00  7.93 LIG 0.00  A 
ATOM     13  CD2 PHE C   1      23.091  -0.141  38.850  1.00  6.20 LIG 0.01  A 
ENDBRANCH 7 8
ENDBRANCH 6 7
BRANCH 6 14
ATOM     14  N   PHE C   1      26.842   0.788  40.150  1.00 10.26 LIG-0.35  N 
ATOM     15 H    PHE C   1      27.062  -0.021  39.958  1.00 10.26 LIG 0.16  HD
ATOM     16  C   ACE C   0      27.563   1.853  39.816  1.00 10.83 LIG 0.21  C 
ATOM     17  CH3 ACE C   0      28.854   1.542  39.111  1.00 14.43 LIG 0.12  C 
ATOM     18 O    ACE C   0      27.191   3.008  40.013  1.00 14.21 LIG-0.27  OA
ENDBRANCH 6 14
ENDBRANCH 4 6
ENDBRANCH 1 2
BRANCH 1 19
ATOM     19  C   HIS C   2      23.810   2.605  44.939  1.00 15.02 LIG 0.24  C 
ATOM     20  N   PRO C   3      23.611   2.233  46.223  1.00 12.04 LIG-0.34  N 
ATOM     21  CA  PRO C   3      22.281   2.417  46.833  1.00 11.10 LIG 0.18  C 
ATOM     22  CD  PRO C   3      24.576   1.631  47.165  1.00 17.75 LIG 0.13  C 
ATOM     23  CB  PRO C   3      22.492   1.985  48.289  1.00 15.56 LIG 0.04  C 
ATOM     24  CG  PRO C   3      23.688   1.095  48.261  1.00 20.46 LIG 0.02  C 
ATOM     25 O    HIS C   2      22.916   3.056  44.243  1.00  9.69 LIG-0.27  OA
BRANCH 21 26
ATOM     26  C   PRO C   3      21.802   3.871  46.770  1.00 13.73 LIG 0.24  C 
ATOM     27  N   ALA C   4      20.513   4.072  46.496  1.00 10.66 LIG-0.35  N 
ATOM     28 H    ALA C   4      19.933   3.438  46.463  1.00 10.66 LIG 0.16  HD
ATOM     29 O    PRO C   3      22.601   4.781  47.002  1.00 16.34 LIG-0.27  OA
BRANCH 27 30
ATOM     30  CA  ALA C   4      19.956   5.397  46.221  1.00 15.22 LIG 0.18  C 
ATOM     31  CB  ALA C   4      18.693   5.260  45.385  1.00 14.26 LIG 0.04  C 
BRANCH 30 32
ATOM     32  C   ALA C   4      19.647   6.236  47.455  1.00 20.48 LIG 0.28  C 
ATOM     33 O    ALA C   4      19.384   7.432  47.336  1.00 25.68 LIG-0.27  OA
ATOM     34  N   NH2 C   5      19.653   5.609  48.624  1.00 12.85 LIG-0.11  N 
ENDBRANCH 30 32
ENDBRANCH 27 30
ENDBRANCH 21 26
ENDBRANCH 1 19
BRANCH 1 35
ATOM     35  CB  HIS C   2      25.963   3.803  44.587  1.00 13.77 LIG 0.10  C 
BRANCH 35 36
ATOM     36  CG  HIS C   2      27.222   3.945  43.789  1.00 15.95 LIG 0.06  A 
ATOM     37  CD2 HIS C   2      27.492   4.659  42.671  1.00 16.64 LIG 0.14  A 
ATOM     38 NE2  HIS C   2      28.816   4.446  42.364  1.00 23.10 LIG-0.25  NA
ATOM     39  CE1 HIS C   2      29.339   3.634  43.266  1.00 23.56 LIG 0.23  A 
ATOM     40 ND1  HIS C   2      28.400   3.320  44.140  1.00 22.80 LIG-0.24  NA
ENDBRANCH 35 36
ENDBRANCH 1 35
TORSDOF 11
