USER: ADFR SOLUTION from run 0
USER: SCORE 11.064351 LL:  -2.846 LR: -10.077 RR:   0.000 FEB:  -6.497
USER: RMSD 0.591024
USER: STATUS Locally minimized using BFGS
USER: GENES 14
USER: genes 0 Translation |==|  0.46887 0.52650 0.54893
USER: genes 1 Rotation |==|  0.50072 0.52298 0.50436 0.99945
USER: genes 2 Torsion [CB]-CA--N-[C] |==|  0.29444
USER: genes 3 Torsion [N]-C--CA-[N] |==|  0.38137
USER: genes 4 Torsion [C]-CA--CB-[CG] |==|  0.45861
USER: genes 5 Torsion [CA]-CB--CG-[CD1] |==|  0.75649
USER: genes 6 Torsion [C]-CA--N-[C] |==|  0.79078
USER: genes 7 Torsion [N]-CA--C-[N] |==|  0.43845
USER: genes 8 Torsion [C]-N--CA-[CB] |==|  0.50589
USER: genes 9 Torsion [N]-CA--C-[N] |==|  0.38547
USER: genes 10 Torsion [C]-N--CA-[C] |==|  0.78394
USER: genes 11 Torsion [N]-CA--C-[N] |==|  0.93794
USER: genes 12 Torsion [N]-CA--CB-[CG] |==|  0.85265
USER: genes 13 Torsion [CA]-CB--CG-[CD2] |==|  0.26790
ROOT
ATOM      1  CA  HIS C   2      12.020  22.245  31.815  1.00 10.06 LIG 0.18  C 
ENDROOT
BRANCH 1 2
ATOM      2  N   HIS C   2      13.145  21.319  31.681  1.00  9.48 LIG-0.35  N 
ATOM      3 H    HIS C   2      13.692  21.522  31.049  1.00  9.48 LIG 0.16  HD
ATOM      4  C   PHE C   1      13.298  20.264  32.470  1.00  9.37 LIG 0.24  C 
ATOM      5 O    PHE C   1      12.563  20.021  33.422  1.00 11.27 LIG-0.27  OA
BRANCH 4 6
ATOM      6  CA  PHE C   1      14.439  19.335  32.116  1.00  8.68 LIG 0.18  C 
BRANCH 6 7
ATOM      7  CB  PHE C   1      13.867  18.126  31.377  1.00  8.30 LIG 0.07  C 
BRANCH 7 8
ATOM      8  CG  PHE C   1      14.904  17.308  30.665  1.00  6.80 LIG-0.06  A 
ATOM      9  CD1 PHE C   1      15.283  17.619  29.365  1.00  6.68 LIG 0.01  A 
ATOM     10  CE1 PHE C   1      16.247  16.869  28.719  1.00  6.85 LIG 0.00  A 
ATOM     11  CZ  PHE C   1      16.831  15.795  29.354  1.00  6.56 LIG 0.00  A 
ATOM     12  CE2 PHE C   1      16.463  15.470  30.647  1.00  6.82 LIG 0.00  A 
ATOM     13  CD2 PHE C   1      15.505  16.229  31.296  1.00  7.43 LIG 0.01  A 
ENDBRANCH 7 8
ENDBRANCH 6 7
BRANCH 6 14
ATOM     14  N   PHE C   1      15.168  18.910  33.314  1.00  9.64 LIG-0.35  N 
ATOM     15 H    PHE C   1      15.004  18.103  33.563  1.00  9.64 LIG 0.16  HD
ATOM     16  C   ACE C   0      16.007  19.727  33.942  1.00 12.10 LIG 0.21  C 
ATOM     17  CH3 ACE C   0      16.637  19.193  35.196  1.00 13.09 LIG 0.12  C 
ATOM     18 O    ACE C   0      16.241  20.864  33.533  1.00 13.69 LIG-0.27  OA
ENDBRANCH 6 14
ENDBRANCH 4 6
ENDBRANCH 1 2
BRANCH 1 19
ATOM     19  C   HIS C   2      11.460  22.549  30.442  1.00  9.05 LIG 0.24  C 
ATOM     20  N   ALA C   3      10.207  22.981  30.391  1.00  9.24 LIG-0.35  N 
ATOM     21 H    ALA C   3       9.678  23.029  31.067  1.00  9.24 LIG 0.16  HD
ATOM     22 O    HIS C   2      12.159  22.436  29.443  1.00  8.29 LIG-0.27  OA
BRANCH 20 23
ATOM     23  CA  ALA C   3       9.631  23.419  29.123  1.00  8.91 LIG 0.17  C 
ATOM     24  CB  ALA C   3       8.210  23.916  29.325  1.00  9.99 LIG 0.04  C 
BRANCH 23 25
ATOM     25  C   ALA C   3      10.492  24.524  28.506  1.00  9.36 LIG 0.24  C 
ATOM     26  N   ALA C   4      10.683  24.455  27.194  1.00  9.08 LIG-0.35  N 
ATOM     27 H    ALA C   4      10.278  23.897  26.679  1.00  9.08 LIG 0.16  HD
ATOM     28 O    ALA C   3      10.954  25.435  29.206  1.00  9.90 LIG-0.27  OA
BRANCH 26 29
ATOM     29  CA  ALA C   4      11.619  25.342  26.506  1.00  9.70 LIG 0.18  C 
ATOM     30  CB  ALA C   4      12.035  24.737  25.185  1.00  9.53 LIG 0.04  C 
BRANCH 29 31
ATOM     31  C   ALA C   4      11.084  26.744  26.280  1.00 11.00 LIG 0.28  C 
ATOM     32  N   NH2 C   5       9.766  26.894  26.284  1.00 10.22 LIG-0.11  N 
ATOM     33 O    ALA C   4      11.863  27.663  26.071  1.00 13.70 LIG-0.27  OA
ENDBRANCH 29 31
ENDBRANCH 26 29
ENDBRANCH 23 25
ENDBRANCH 20 23
ENDBRANCH 1 19
BRANCH 1 34
ATOM     34  CB  HIS C   2      12.463  23.572  32.443  1.00 12.23 LIG 0.10  C 
BRANCH 34 35
ATOM     35  CG  HIS C   2      13.196  23.423  33.733  1.00 15.24 LIG 0.06  A 
ATOM     36 ND1  HIS C   2      12.550  23.279  34.940  1.00 17.16 LIG-0.24  NA
ATOM     37  CE1 HIS C   2      13.446  23.170  35.905  1.00 17.55 LIG 0.23  A 
ATOM     38 NE2  HIS C   2      14.649  23.238  35.366  1.00 18.01 LIG-0.25  NA
ATOM     39  CD2 HIS C   2      14.520  23.395  34.008  1.00 16.53 LIG 0.14  A 
ENDBRANCH 34 35
ENDBRANCH 1 34
TORSDOF 12
