USER: ADFR SOLUTION from run 0
USER: SCORE 9.683898 LL:  -2.414 LR: -11.265 RR:   0.000 FEB:  -7.685
USER: RMSD 0.786954
USER: STATUS Locally minimized using BFGS
USER: GENES 14
USER: genes 0 Translation |==|  0.54763 0.49181 0.55797
USER: genes 1 Rotation |==|  0.51903 0.50025 0.48564 0.99943
USER: genes 2 Torsion [CB]-CA--N-[C] |==|  0.34997
USER: genes 3 Torsion [N]-C--CA-[N] |==|  0.41163
USER: genes 4 Torsion [C]-CA--N-[C] |==|  0.64418
USER: genes 5 Torsion [C]-CA--CB-[CG] |==|  0.50354
USER: genes 6 Torsion [CA]-CB--CG-[CD2] |==|  0.74599
USER: genes 7 Torsion [N]-CA--C-[N] |==|  0.39214
USER: genes 8 Torsion [C]-N--CA-[CB] |==|  0.51667
USER: genes 9 Torsion [N]-CA--C-[N] |==|  0.40901
USER: genes 10 Torsion [C]-N--CA-[CB] |==|  0.41464
USER: genes 11 Torsion [N]-CA--C-[N] |==|  0.99648
USER: genes 12 Torsion [N]-CA--CB-[OG1] |==|  0.50339
USER: genes 13 Torsion [CA]-CB--OG1-[HG1] |==|  0.29706
ROOT
ATOM      1  CA  ALA C   2      25.547   2.170  43.932  1.00 19.98 LIG 0.17  C 
ATOM      2  CB  ALA C   2      26.306   3.485  44.120  1.00 20.88 LIG 0.04  C 
ENDROOT
BRANCH 1 3
ATOM      3  N   ALA C   2      25.428   1.836  42.523  1.00 19.64 LIG-0.35  N 
ATOM      4 H    ALA C   2      25.084   2.448  42.026  1.00 19.64 LIG 0.16  HD
ATOM      5  C   PHE C   1      25.840   0.655  42.097  1.00 22.16 LIG 0.24  C 
ATOM      6 O    PHE C   1      26.405  -0.140  42.848  1.00 23.85 LIG-0.27  OA
BRANCH 5 7
ATOM      7  CA  PHE C   1      25.650   0.334  40.624  1.00 22.77 LIG 0.18  C 
BRANCH 7 8
ATOM      8  N   PHE C   1      26.735  -0.525  40.231  1.00 26.70 LIG-0.35  N 
ATOM      9 H    PHE C   1      26.841  -1.213  40.735  1.00 26.70 LIG 0.16  HD
ATOM     10  C   ACE C   0      27.486  -0.262  39.188  1.00 28.63 LIG 0.21  C 
ATOM     11  CH3 ACE C   0      28.543  -1.319  38.954  1.00 28.20 LIG 0.12  C 
ATOM     12 O    ACE C   0      27.289   0.762  38.526  1.00 29.97 LIG-0.27  OA
ENDBRANCH 7 8
BRANCH 7 13
ATOM     13  CB  PHE C   1      24.368  -0.420  40.334  1.00 20.34 LIG 0.07  C 
BRANCH 13 14
ATOM     14  CG  PHE C   1      24.203  -0.761  38.875  1.00 17.40 LIG-0.06  A 
ATOM     15  CD1 PHE C   1      24.721  -1.932  38.315  1.00 16.88 LIG 0.01  A 
ATOM     16  CE1 PHE C   1      24.558  -2.195  36.937  1.00 14.02 LIG 0.00  A 
ATOM     17  CZ  PHE C   1      23.905  -1.311  36.161  1.00 15.72 LIG 0.00  A 
ATOM     18  CE2 PHE C   1      23.391  -0.154  36.714  1.00 14.79 LIG 0.00  A 
ATOM     19  CD2 PHE C   1      23.535   0.104  38.053  1.00 15.53 LIG 0.01  A 
ENDBRANCH 13 14
ENDBRANCH 7 13
ENDBRANCH 5 7
ENDBRANCH 1 3
BRANCH 1 20
ATOM     20  C   ALA C   2      24.169   2.304  44.548  1.00 17.39 LIG 0.24  C 
ATOM     21  N   THR C   3      24.048   1.816  45.786  1.00 15.98 LIG-0.34  N 
ATOM     22 H    THR C   3      24.677   1.416  46.215  1.00 15.98 LIG 0.16  HD
ATOM     23 O    ALA C   2      23.258   2.865  43.932  1.00 16.73 LIG-0.27  OA
BRANCH 21 24
ATOM     24  CA  THR C   3      22.795   1.940  46.510  1.00 15.15 LIG 0.20  C 
BRANCH 24 25
ATOM     25  C   THR C   3      22.304   3.377  46.490  1.00 14.93 LIG 0.24  C 
ATOM     26  N   ALA C   4      20.990   3.523  46.478  1.00 13.95 LIG-0.35  N 
ATOM     27 H    ALA C   4      20.439   2.864  46.433  1.00 13.95 LIG 0.16  HD
ATOM     28 O    THR C   3      23.091   4.328  46.529  1.00 16.43 LIG-0.27  OA
BRANCH 26 29
ATOM     29  CA  ALA C   4      20.352   4.816  46.539  1.00 14.93 LIG 0.18  C 
ATOM     30  CB  ALA C   4      19.035   4.748  45.775  1.00 15.34 LIG 0.04  C 
BRANCH 29 31
ATOM     31  C   ALA C   4      20.144   5.250  47.994  1.00 16.13 LIG 0.28  C 
ATOM     32 O    ALA C   4      19.640   6.339  48.254  1.00 17.37 LIG-0.27  OA
ATOM     33  N   NH2 C   5      20.538   4.400  48.940  1.00 15.73 LIG-0.11  N 
ENDBRANCH 29 31
ENDBRANCH 26 29
ENDBRANCH 24 25
BRANCH 24 34
ATOM     34  CB  THR C   3      22.929   1.445  47.956  1.00 16.10 LIG 0.15  C 
ATOM     35  CG2 THR C   3      23.958   2.247  48.746  1.00 16.48 LIG 0.04  C 
BRANCH 34 36
ATOM     36 OG1  THR C   3      21.654   1.569  48.600  1.00 16.89 LIG-0.39  OA
ATOM     37 HG1  THR C   3      21.315   0.807  48.697  1.00 16.89 LIG 0.21  HD
ENDBRANCH 34 36
ENDBRANCH 24 34
ENDBRANCH 21 24
ENDBRANCH 1 20
TORSDOF 12
