USER: ADFR SOLUTION from run 0
USER: SCORE 15.678886 LL:  -5.014 LR: -10.949 RR:   0.000 FEB:  -5.282
USER: RMSD 0.658578
USER: STATUS Locally minimized using BFGS
USER: GENES 21
USER: genes 0 Translation |==|  0.53923 0.66879 0.54915
USER: genes 1 Rotation |==|  0.48692 0.49030 0.51510 0.99951
USER: genes 2 Torsion [C]-CA--N-[C] |==|  0.85000
USER: genes 3 Torsion [N]-C--CA-[N] |==|  0.90638
USER: genes 4 Torsion [C]-CA--N-[C] |==|  0.85147
USER: genes 5 Torsion [N]-C--CA-[N] |==|  0.98512
USER: genes 6 Torsion [C]-CA--CB-[CG] |==|  0.49093
USER: genes 7 Torsion [CA]-CB--CG-[CD1] |==|  0.47214
USER: genes 8 Torsion [C]-CA--N-[C] |==|  0.75228
USER: genes 9 Torsion [N]-C--CA-[N] |==|  0.01648
USER: genes 10 Torsion [N]-CA--C-[N] |==|  0.92234
USER: genes 11 Torsion [C]-N--CA-[C] |==|  0.73868
USER: genes 12 Torsion [N]-CA--C-[N] |==|  0.00235
USER: genes 13 Torsion [C]-N--CA-[C] |==|  0.76982
USER: genes 14 Torsion [N]-CA--C-[O] |==|  0.96223
USER: genes 15 Torsion [N]-CA--CB-[CG] |==|  0.83481
USER: genes 16 Torsion [CA]-CB--CG-[OD1] |==|  0.40352
USER: genes 17 Torsion [N]-CA--CB-[CG] |==|  0.84792
USER: genes 18 Torsion [CA]-CB--CG-[CD2] |==|  0.28309
USER: genes 19 Torsion [N]-CA--CB-[CG] |==|  0.19651
USER: genes 20 Torsion [CA]-CB--CG-[CD2] |==|  0.83211
ROOT
ATOM      1  CA  LEU C   5     -14.110  11.625  23.658  1.00 25.10 LIG 0.18  C 
ENDROOT
BRANCH 1 2
ATOM      2  N   LEU C   5     -15.200  10.634  24.019  1.00 25.35 LIG-0.35  N 
ATOM      3  C   GLY C   4     -16.410  10.687  23.392  1.00 24.95 LIG 0.24  C 
ATOM      4 O    GLY C   4     -16.640  11.556  22.543  1.00 25.89 LIG-0.27  OA
ATOM      5 H    LEU C   5     -14.989  10.064  24.628  1.00 25.35 LIG 0.16  HD
BRANCH 3 6
ATOM      6  CA  GLY C   4     -17.463   9.684  23.717  1.00 25.42 LIG 0.23  C 
BRANCH 6 7
ATOM      7  N   GLY C   4     -17.032   8.327  24.055  1.00 25.00 LIG-0.35  N 
ATOM      8  C   PHE C   3     -16.217   7.592  23.259  1.00 25.70 LIG 0.24  C 
ATOM      9 O    PHE C   3     -15.732   8.035  22.201  1.00 20.17 LIG-0.27  OA
ATOM     10 H    GLY C   4     -17.343   8.041  24.804  1.00 25.00 LIG 0.16  HD
BRANCH 8 11
ATOM     11  CA  PHE C   3     -15.783   6.231  23.801  1.00 26.56 LIG 0.18  C 
BRANCH 11 12
ATOM     12  CB  PHE C   3     -16.354   5.150  22.906  1.00 27.24 LIG 0.07  C 
BRANCH 12 13
ATOM     13  CG  PHE C   3     -15.941   3.794  23.284  1.00 26.12 LIG-0.06  A 
ATOM     14  CD1 PHE C   3     -16.553   2.705  22.685  1.00 28.42 LIG 0.01  A 
ATOM     15  CE1 PHE C   3     -16.161   1.395  22.993  1.00 27.55 LIG 0.00  A 
ATOM     16  CZ  PHE C   3     -15.194   1.169  24.025  1.00 28.40 LIG 0.00  A 
ATOM     17  CE2 PHE C   3     -14.568   2.271  24.636  1.00 22.84 LIG 0.00  A 
ATOM     18  CD2 PHE C   3     -14.980   3.584  24.299  1.00 25.80 LIG 0.01  A 
ENDBRANCH 12 13
ENDBRANCH 11 12
BRANCH 11 19
ATOM     19  N   PHE C   3     -16.259   6.048  25.179  1.00 29.45 LIG-0.35  N 
ATOM     20 H    PHE C   3     -17.031   5.675  25.252  1.00 29.45 LIG 0.16  HD
ATOM     21  C   GLY C   2     -15.510   6.448  26.206  1.00 31.80 LIG 0.25  C 
ATOM     22 O    GLY C   2     -14.461   7.127  26.056  1.00 33.21 LIG-0.27  OA
BRANCH 21 23
ATOM     23  CA  GLY C   2     -16.061   6.128  27.595  1.00 32.25 LIG 0.47  C 
ATOM     24  N   GLY C   2     -17.298   5.283  27.544  1.00 32.96 LIG 0.61  N 
ENDBRANCH 21 23
ENDBRANCH 11 19
ENDBRANCH 8 11
ENDBRANCH 6 7
ENDBRANCH 3 6
ENDBRANCH 1 2
BRANCH 1 25
ATOM     25  C   LEU C   5     -13.748  11.705  22.168  1.00 23.49 LIG 0.24  C 
ATOM     26  N   PHE C   6     -13.938  10.606  21.434  1.00 22.96 LIG-0.35  N 
ATOM     27 H    PHE C   6     -14.281   9.876  21.734  1.00 22.96 LIG 0.16  HD
ATOM     28 O    LEU C   5     -13.407  12.802  21.669  1.00 25.98 LIG-0.27  OA
BRANCH 26 29
ATOM     29  CA  PHE C   6     -13.557  10.571  20.000  1.00 22.19 LIG 0.18  C 
BRANCH 29 30
ATOM     30  C   PHE C   6     -14.665  10.907  19.006  1.00 17.26 LIG 0.24  C 
ATOM     31 O    PHE C   6     -14.488  10.920  17.824  1.00 22.18 LIG-0.27  OA
ATOM     32  N   ASP C   7     -15.855  11.214  19.535  1.00 22.18 LIG-0.35  N 
ATOM     33 H    ASP C   7     -16.021  11.215  20.379  1.00 22.18 LIG 0.16  HD
BRANCH 32 34
ATOM     34  CA  ASP C   7     -16.998  11.584  18.687  1.00 22.70 LIG 0.17  C 
BRANCH 34 35
ATOM     35  C   ASP C   7     -17.011  13.028  18.264  1.00 27.36 LIG 0.22  C 
ATOM     36 O    ASP C   7     -16.267  13.877  18.811  1.00 28.20 LIG-0.29  OA
ENDBRANCH 34 35
BRANCH 34 37
ATOM     37  CB  ASP C   7     -18.301  11.300  19.447  1.00 23.18 LIG 0.15  C 
BRANCH 37 38
ATOM     38  CG  ASP C   7     -18.459   9.849  19.843  1.00 26.80 LIG 0.17  C 
ATOM     39 OD2  ASP C   7     -18.043   8.972  19.023  1.00 27.82 LIG-0.65  OA
ATOM     40 OD1  ASP C   7     -19.042   9.604  20.957  1.00 32.15 LIG-0.65  OA
ENDBRANCH 37 38
ENDBRANCH 34 37
ENDBRANCH 32 34
ENDBRANCH 29 30
BRANCH 29 41
ATOM     41  CB  PHE C   6     -12.846   9.246  19.630  1.00 21.19 LIG 0.07  C 
BRANCH 41 42
ATOM     42  CG  PHE C   6     -11.664   8.950  20.482  1.00 25.43 LIG-0.06  A 
ATOM     43  CD2 PHE C   6     -11.724   8.017  21.529  1.00 26.31 LIG 0.01  A 
ATOM     44  CE2 PHE C   6     -10.575   7.722  22.259  1.00 29.51 LIG 0.00  A 
ATOM     45  CZ  PHE C   6      -9.377   8.410  22.027  1.00 25.82 LIG 0.00  A 
ATOM     46  CE1 PHE C   6      -9.320   9.343  21.028  1.00 26.71 LIG 0.00  A 
ATOM     47  CD1 PHE C   6     -10.481   9.628  20.264  1.00 21.41 LIG 0.01  A 
ENDBRANCH 41 42
ENDBRANCH 29 41
ENDBRANCH 26 29
ENDBRANCH 1 25
BRANCH 1 48
ATOM     48  CB  LEU C   5     -12.769  11.535  24.480  1.00 26.63 LIG 0.04  C 
BRANCH 48 49
ATOM     49  CG  LEU C   5     -11.889  10.355  24.235  1.00 31.82 LIG-0.02  C 
ATOM     50  CD2 LEU C   5     -12.732   9.079  24.604  1.00 33.90 LIG 0.01  C 
ATOM     51  CD1 LEU C   5     -10.573  10.425  25.019  1.00 30.04 LIG 0.01  C 
ENDBRANCH 48 49
ENDBRANCH 1 48
TORSDOF 19
