USER: ADFR SOLUTION from run 0
USER: SCORE 16.233221 LL:  -2.689 LR: -16.518 RR:   0.000 FEB:  -9.359
USER: RMSD 0.672403
USER: STATUS Locally minimized using BFGS
USER: GENES 26
USER: genes 0 Translation |==|  0.49646 0.42359 0.60879
USER: genes 1 Rotation |==|  0.50266 0.50398 0.49388 0.99994
USER: genes 2 Torsion [C]-CA--CB-[CG] |==|  0.64730
USER: genes 3 Torsion [CA]-CB--CG-[CD] |==|  0.48315
USER: genes 4 Torsion [CB]-CG--CD-[CE] |==|  0.82831
USER: genes 5 Torsion [CG]-CD--CE-[NZ] |==|  0.78895
USER: genes 6 Torsion [CD]-CE--NZ-[HZ1] |==|  0.55717
USER: genes 7 Torsion [N]-CA--C-[N] |==|  0.30266
USER: genes 8 Torsion [C]-N--CA-[CB] |==|  0.44253
USER: genes 9 Torsion [N]-CA--CB-[CG] |==|  0.87603
USER: genes 10 Torsion [CA]-CB--CG-[CD] |==|  0.48784
USER: genes 11 Torsion [CB]-CG--CD-[NE] |==|  0.43147
USER: genes 12 Torsion [CG]-CD--NE-[CZ] |==|  0.73068
USER: genes 13 Torsion [N]-CA--C-[N] |==|  0.47735
USER: genes 14 Torsion [C]-N--CA-[C] |==|  0.61247
USER: genes 15 Torsion [N]-CA--C-[O] |==|  0.77739
USER: genes 16 Torsion [CB]-CA--N-[C] |==|  0.36329
USER: genes 17 Torsion [N]-C--CA-[N] |==|  0.34780
USER: genes 18 Torsion [C]-CA--CB-[CG] |==|  0.43139
USER: genes 19 Torsion [CA]-CB--CG-[CD] |==|  0.48560
USER: genes 20 Torsion [CB]-CG--CD-[CE] |==|  0.53206
USER: genes 21 Torsion [CG]-CD--CE-[NZ] |==|  0.75973
USER: genes 22 Torsion [CD]-CE--NZ-[HZ3] |==|  0.30375
USER: genes 23 Torsion [C]-CA--N-[C] |==|  0.76140
USER: genes 24 Torsion [N]-C--CA-[N] |==|  0.38535
USER: genes 25 Torsion [N]-C--CA-[CB] |==|  0.60348
ROOT
ATOM      1  CA  LYS B 185       2.298  32.662   8.999  1.00 91.41 LIG 0.18  C 
ENDROOT
BRANCH 1 2
ATOM      2  CB  LYS B 185       1.535  32.224  10.255  1.00 90.53 LIG 0.04  C 
BRANCH 2 3
ATOM      3  CG  LYS B 185       0.648  33.280  10.909  1.00 86.81 LIG 0.00  C 
BRANCH 3 4
ATOM      4  CD  LYS B 185      -0.171  32.679  12.059  1.00 79.71 LIG 0.03  C 
BRANCH 4 5
ATOM      5  CE  LYS B 185      -1.124  31.576  11.592  1.00 72.24 LIG 0.23  C 
BRANCH 5 6
ATOM      6  NZ  LYS B 185      -2.337  32.098  10.897  1.00 67.20 LIG-0.08  N 
ATOM      7 HZ1  LYS B 185      -2.978  31.480  10.913  1.00 67.20 LIG 0.27  HD
ATOM      8 HZ3  LYS B 185      -2.135  32.292  10.052  1.00 67.20 LIG 0.27  HD
ATOM      9 HZ2  LYS B 185      -2.623  32.833  11.310  1.00 67.20 LIG 0.27  HD
ENDBRANCH 5 6
ENDBRANCH 4 5
ENDBRANCH 3 4
ENDBRANCH 2 3
ENDBRANCH 1 2
BRANCH 1 10
ATOM     10  C   LYS B 185       2.020  31.684   7.862  1.00 87.67 LIG 0.24  C 
ATOM     11 O    LYS B 185       0.859  31.387   7.561  1.00 75.85 LIG-0.27  OA
ATOM     12  N   ARG B 186       3.090  31.177   7.254  1.00 93.18 LIG-0.35  N 
ATOM     13 H    ARG B 186       3.891  31.433   7.434  1.00 93.18 LIG 0.16  HD
BRANCH 12 14
ATOM     14  CA  ARG B 186       3.033  30.143   6.224  1.00 93.88 LIG 0.18  C 
BRANCH 14 15
ATOM     15  CB  ARG B 186       4.338  30.182   5.412  1.00 94.11 LIG 0.04  C 
BRANCH 15 16
ATOM     16  CG  ARG B 186       4.765  31.595   5.037  1.00 91.13 LIG 0.02  C 
BRANCH 16 17
ATOM     17  CD  ARG B 186       6.108  31.635   4.327  1.00 90.43 LIG 0.14  C 
BRANCH 17 18
ATOM     18  NE  ARG B 186       6.228  32.828   3.491  1.00 88.65 LIG-0.23  N 
ATOM     19 HE   ARG B 186       6.473  33.562   3.867  1.00 88.65 LIG 0.18  HD
ATOM     20  CZ  ARG B 186       5.980  32.849   2.183  1.00 77.61 LIG 0.67  C 
ATOM     21  NH2 ARG B 186       6.107  33.975   1.494  1.00 64.46 LIG-0.23  N 
ATOM     22  NH1 ARG B 186       5.609  31.738   1.563  1.00 71.89 LIG-0.23  N 
ATOM     23 2HH2 ARG B 186       5.946  33.982   0.649  1.00 64.46 LIG 0.17  HD
ATOM     24 1HH2 ARG B 186       6.351  34.698   1.891  1.00 64.46 LIG 0.17  HD
ATOM     25 1HH1 ARG B 186       5.528  31.006   2.006  1.00 71.89 LIG 0.17  HD
ATOM     26 2HH1 ARG B 186       5.449  31.751   0.718  1.00 71.89 LIG 0.17  HD
ENDBRANCH 17 18
ENDBRANCH 16 17
ENDBRANCH 15 16
ENDBRANCH 14 15
BRANCH 14 27
ATOM     27  C   ARG B 186       2.797  28.787   6.923  1.00100.48 LIG 0.24  C 
ATOM     28  N   ALA B 187       2.541  27.682   6.206  1.00104.89 LIG-0.35  N 
ATOM     29 H    ALA B 187       2.403  26.924   6.587  1.00104.89 LIG 0.16  HD
ATOM     30 O    ARG B 186       2.831  28.748   8.155  1.00101.56 LIG-0.27  OA
BRANCH 28 31
ATOM     31  CA  ALA B 187       2.459  27.589   4.748  1.00100.92 LIG 0.16  C 
ATOM     32  CB  ALA B 187       3.785  27.072   4.170  1.00 98.55 LIG 0.04  C 
BRANCH 31 33
ATOM     33  C   ALA B 187       1.312  26.680   4.313  1.00 96.24 LIG 0.22  C 
ATOM     34 O    ALA B 187       1.442  25.455   4.325  1.00 95.92 LIG-0.29  OA
ENDBRANCH 31 33
ENDBRANCH 28 31
ENDBRANCH 14 27
ENDBRANCH 12 14
ENDBRANCH 1 10
BRANCH 1 35
ATOM     35  N   LYS B 185       1.937  34.018   8.588  1.00 94.70 LIG-0.35  N 
ATOM     36 H    LYS B 185       1.089  34.151   8.546  1.00 94.70 LIG 0.16  HD
ATOM     37  C   LYS B 184       2.840  34.964   8.305  1.00 95.69 LIG 0.24  C 
ATOM     38 O    LYS B 184       4.056  34.753   8.299  1.00 96.36 LIG-0.27  OA
BRANCH 37 39
ATOM     39  CA  LYS B 184       2.282  36.350   7.992  1.00 89.09 LIG 0.18  C 
BRANCH 39 40
ATOM     40  CB  LYS B 184       2.521  36.707   6.521  1.00 73.03 LIG 0.04  C 
BRANCH 40 41
ATOM     41  CG  LYS B 184       1.531  37.736   5.962  1.00 60.77 LIG 0.00  C 
BRANCH 41 42
ATOM     42  CD  LYS B 184       1.887  38.149   4.544  1.00 63.88 LIG 0.03  C 
BRANCH 42 43
ATOM     43  CE  LYS B 184       1.096  39.366   4.069  1.00 60.38 LIG 0.23  C 
BRANCH 43 44
ATOM     44  NZ  LYS B 184      -0.249  39.073   3.458  1.00 53.06 LIG-0.08  N 
ATOM     45 HZ3  LYS B 184      -0.891  39.347   4.010  1.00 53.06 LIG 0.27  HD
ATOM     46 HZ2  LYS B 184      -0.329  38.197   3.322  1.00 53.06 LIG 0.27  HD
ATOM     47 HZ1  LYS B 184      -0.322  39.502   2.682  1.00 53.06 LIG 0.27  HD
ENDBRANCH 43 44
ENDBRANCH 42 43
ENDBRANCH 41 42
ENDBRANCH 40 41
ENDBRANCH 39 40
BRANCH 39 48
ATOM     48  N   LYS B 184       2.882  37.355   8.859  1.00 95.16 LIG-0.35  N 
ATOM     49 H    LYS B 184       3.568  37.751   8.522  1.00 95.16 LIG 0.16  HD
ATOM     50  C   PRO B 183       2.391  37.621  10.069  1.00102.83 LIG 0.24  C 
ATOM     51 O    PRO B 183       1.404  37.037  10.527  1.00 96.65 LIG-0.27  OA
BRANCH 50 52
ATOM     52  CA  PRO B 183       3.124  38.687  10.879  1.00119.60 LIG 0.18  C 
ATOM     53  N   PRO B 183       2.233  39.604  11.605  1.00125.08 LIG-0.34  N 
ATOM     54  CD  PRO B 183       1.984  39.146  12.985  1.00128.64 LIG 0.13  C 
ATOM     55  C   PRO B 182       1.999  40.837  11.124  1.00122.07 LIG 0.26  C 
ATOM     56  CG  PRO B 183       2.984  38.011  13.171  1.00127.59 LIG 0.02  C 
ATOM     57  CB  PRO B 183       3.951  38.062  12.009  1.00124.68 LIG 0.04  C 
ATOM     58 O    PRO B 182       2.511  41.267  10.088  1.00123.88 LIG-0.27  OA
BRANCH 55 59
ATOM     59  CA  PRO B 182       1.063  41.742  11.929  1.00115.83 LIG 0.35  C 
ATOM     60  CB  PRO B 182       0.189  42.591  10.993  1.00111.53 LIG 0.05  C 
ATOM     61  CG  PRO B 182       0.110  43.940  11.642  1.00111.42 LIG 0.04  C 
ATOM     62  CD  PRO B 182       1.423  44.123  12.335  1.00113.66 LIG 0.32  C 
ATOM     63  N   PRO B 182       1.792  42.747  12.714  1.00115.25 LIG 0.32  N 
ENDBRANCH 55 59
ENDBRANCH 50 52
ENDBRANCH 39 48
ENDBRANCH 37 39
ENDBRANCH 1 35
TORSDOF 24
