USER: ADFR SOLUTION from run 0
USER: SCORE 18.741983 LL:  -3.676 LR: -16.699 RR:   0.000 FEB:  -7.452
USER: RMSD 1.439003
USER: STATUS Locally minimized using BFGS
USER: GENES 33
USER: genes 0 Translation |==|  0.48314 0.51541 0.48560
USER: genes 1 Rotation |==|  0.53168 0.48864 0.51273 0.99870
USER: genes 2 Torsion [N]-C--CA-[N] |==|  0.35998
USER: genes 3 Torsion [C]-CA--CB-[CG] |==|  0.49782
USER: genes 4 Torsion [CA]-CB--CG-[CD] |==|  0.81149
USER: genes 5 Torsion [CB]-CG--CD-[CE] |==|  0.55509
USER: genes 6 Torsion [CG]-CD--CE-[NZ] |==|  0.24449
USER: genes 7 Torsion [CD]-CE--NZ-[HZ3] |==|  0.35473
USER: genes 8 Torsion [C]-CA--N-[C] |==|  0.82076
USER: genes 9 Torsion [N]-C--CA-[N] |==|  0.98531
USER: genes 10 Torsion [C]-CA--N-[C] |==|  0.77502
USER: genes 11 Torsion [N]-C--CA-[N] |==|  0.43344
USER: genes 12 Torsion [C]-CA--CB-[CG2] |==|  0.85080
USER: genes 13 Torsion [CA]-CB--OG1-[HG1] |==|  0.49898
USER: genes 14 Torsion [C]-CA--N-[C] |==|  0.77643
USER: genes 15 Torsion [N]-C--CA-[N] |==|  0.17525
USER: genes 16 Torsion [C]-CA--CB-[CG] |==|  0.58960
USER: genes 17 Torsion [CA]-CB--CG-[CD] |==|  0.47858
USER: genes 18 Torsion [CB]-CG--CD-[NE] |==|  0.47189
USER: genes 19 Torsion [CG]-CD--NE-[CZ] |==|  0.25699
USER: genes 20 Torsion [C]-N--CA-[CB] |==|  0.30697
USER: genes 21 Torsion [N]-CA--CB-[CG] |==|  0.80929
USER: genes 22 Torsion [CA]-CB--CG-[CD] |==|  0.45948
USER: genes 23 Torsion [CB]-CG--CD-[NE] |==|  0.87003
USER: genes 24 Torsion [CG]-CD--NE-[HE] |==|  0.82984
USER: genes 25 Torsion [N]-CA--C-[N] |==|  0.32585
USER: genes 26 Torsion [N]-CA--C-[N] |==|  0.46724
USER: genes 27 Torsion [C]-N--CA-[C] |==|  0.79213
USER: genes 28 Torsion [N]-CA--CB-[CG] |==|  0.46589
USER: genes 29 Torsion [CA]-CB--CG-[CD] |==|  0.50059
USER: genes 30 Torsion [CB]-CG--CD-[NE] |==|  0.90745
USER: genes 31 Torsion [CG]-CD--NE-[HE] |==|  0.30538
USER: genes 32 Torsion [N]-CA--C-[O] |==|  0.24552
ROOT
ATOM      1  C   LYS B 823       3.718  35.693   8.190  1.00 58.46 LIG 0.24  C 
ATOM      2 O    LYS B 823       4.851  35.663   8.669  1.00 54.34 LIG-0.27  OA
ATOM      3  N   ARG B 824       2.955  34.607   8.093  1.00 54.22 LIG-0.35  N 
ATOM      4 H    ARG B 824       2.154  34.605   7.778  1.00 54.22 LIG 0.16  HD
ENDROOT
BRANCH 1 5
ATOM      5  CA  LYS B 823       3.104  37.004   7.723  1.00 55.50 LIG 0.18  C 
BRANCH 5 6
ATOM      6  CB  LYS B 823       3.774  37.440   6.414  1.00 54.97 LIG 0.04  C 
BRANCH 6 7
ATOM      7  CG  LYS B 823       3.262  38.738   5.790  1.00 56.27 LIG 0.00  C 
BRANCH 7 8
ATOM      8  CD  LYS B 823       1.858  38.592   5.289  1.00 52.63 LIG 0.03  C 
BRANCH 8 9
ATOM      9  CE  LYS B 823       1.480  39.661   4.254  1.00 52.00 LIG 0.23  C 
BRANCH 9 10
ATOM     10  NZ  LYS B 823       1.819  39.275   2.874  1.00 59.54 LIG-0.08  N 
ATOM     11 HZ3  LYS B 823       1.101  39.364   2.355  1.00 59.54 LIG 0.27  HD
ATOM     12 HZ2  LYS B 823       2.091  38.428   2.861  1.00 59.54 LIG 0.27  HD
ATOM     13 HZ1  LYS B 823       2.471  39.800   2.571  1.00 59.54 LIG 0.27  HD
ENDBRANCH 9 10
ENDBRANCH 8 9
ENDBRANCH 7 8
ENDBRANCH 6 7
ENDBRANCH 5 6
BRANCH 5 14
ATOM     14  N   LYS B 823       3.275  38.024   8.755  1.00 58.26 LIG-0.35  N 
ATOM     15 H    LYS B 823       3.776  38.684   8.526  1.00 58.26 LIG 0.16  HD
ATOM     16  C   ARG B 822       2.685  37.910   9.951  1.00 61.99 LIG 0.24  C 
ATOM     17 O    ARG B 822       1.812  37.065  10.185  1.00 62.30 LIG-0.27  OA
BRANCH 16 18
ATOM     18  CA  ARG B 822       3.091  38.881  11.055  1.00 69.11 LIG 0.18  C 
BRANCH 18 19
ATOM     19  N   ARG B 822       4.191  39.751  10.670  1.00 79.36 LIG-0.35  N 
ATOM     20 H    ARG B 822       3.946  40.535  10.416  1.00 79.36 LIG 0.16  HD
ATOM     21  C   THR B 821       5.459  39.354  10.711  1.00 84.58 LIG 0.24  C 
ATOM     22 O    THR B 821       5.824  38.322  11.283  1.00 84.15 LIG-0.27  OA
BRANCH 21 23
ATOM     23  CA  THR B 821       6.463  40.285  10.042  1.00 89.83 LIG 0.20  C 
BRANCH 23 24
ATOM     24  CB  THR B 821       6.448  40.054   8.527  1.00 88.11 LIG 0.15  C 
ATOM     25  CG2 THR B 821       6.667  38.583   8.191  1.00 89.90 LIG 0.04  C 
BRANCH 24 26
ATOM     26 OG1  THR B 821       5.185  40.465   7.989  1.00 82.62 LIG-0.39  OA
ATOM     27 HG1  THR B 821       5.181  40.342   7.158  1.00 82.62 LIG 0.21  HD
ENDBRANCH 24 26
ENDBRANCH 23 24
BRANCH 23 28
ATOM     28  N   THR B 821       7.799  40.100  10.593  1.00 98.89 LIG-0.34  N 
ATOM     29 H    THR B 821       8.313  39.605  10.112  1.00 98.89 LIG 0.16  HD
ATOM     30  C   ALA B 820       8.173  40.656  11.746  1.00104.93 LIG 0.26  C 
ATOM     31 O    ALA B 820       7.403  41.298  12.467  1.00110.84 LIG-0.27  OA
BRANCH 30 32
ATOM     32  CA  ALA B 820       9.631  40.454  12.149  1.00100.65 LIG 0.40  C 
ATOM     33  N   ALA B 820      10.520  41.079  11.178  1.00102.47 LIG 0.61  N 
ATOM     34  CB  ALA B 820       9.885  41.015  13.542  1.00 93.61 LIG 0.06  C 
ENDBRANCH 30 32
ENDBRANCH 23 28
ENDBRANCH 21 23
ENDBRANCH 18 19
BRANCH 18 35
ATOM     35  CB  ARG B 822       1.902  39.721  11.521  1.00 74.55 LIG 0.04  C 
BRANCH 35 36
ATOM     36  CG  ARG B 822       2.360  41.099  11.951  1.00 89.07 LIG 0.02  C 
BRANCH 36 37
ATOM     37  CD  ARG B 822       1.233  42.052  12.250  1.00 95.35 LIG 0.14  C 
BRANCH 37 38
ATOM     38  NE  ARG B 822       1.756  43.263  12.881  1.00111.05 LIG-0.23  N 
ATOM     39  CZ  ARG B 822       2.105  44.363  12.217  1.00116.06 LIG 0.67  C 
ATOM     40  NH1 ARG B 822       1.979  44.409  10.897  1.00115.06 LIG-0.23  N 
ATOM     41  NH2 ARG B 822       2.561  45.423  12.876  1.00119.10 LIG-0.23  N 
ATOM     42 2HH1 ARG B 822       2.205  45.119  10.468  1.00115.06 LIG 0.17  HD
ATOM     43 1HH1 ARG B 822       1.671  43.729  10.471  1.00115.06 LIG 0.17  HD
ATOM     44 1HH2 ARG B 822       2.630  45.400  13.732  1.00119.10 LIG 0.17  HD
ATOM     45 2HH2 ARG B 822       2.787  46.132  12.445  1.00119.10 LIG 0.17  HD
ATOM     46 HE   ARG B 822       1.842  43.264  13.737  1.00111.05 LIG 0.18  HD
ENDBRANCH 37 38
ENDBRANCH 36 37
ENDBRANCH 35 36
ENDBRANCH 18 35
ENDBRANCH 16 18
ENDBRANCH 5 14
ENDBRANCH 1 5
BRANCH 3 47
ATOM     47  CA  ARG B 824       3.439  33.300   8.531  1.00 54.21 LIG 0.18  C 
BRANCH 47 48
ATOM     48  CB  ARG B 824       2.707  32.826   9.787  1.00 52.82 LIG 0.04  C 
BRANCH 48 49
ATOM     49  CG  ARG B 824       3.054  33.660  11.012  1.00 57.86 LIG 0.02  C 
BRANCH 49 50
ATOM     50  CD  ARG B 824       2.094  33.436  12.151  1.00 56.10 LIG 0.14  C 
BRANCH 50 51
ATOM     51  NE  ARG B 824       0.715  33.481  11.696  1.00 65.02 LIG-0.23  N 
ATOM     52  CZ  ARG B 824      -0.136  32.473  11.785  1.00 62.89 LIG 0.67  C 
ATOM     53  NH1 ARG B 824       0.246  31.330  12.338  1.00 60.33 LIG-0.23  N 
ATOM     54  NH2 ARG B 824      -1.372  32.617  11.344  1.00 55.39 LIG-0.23  N 
ATOM     55 1HH1 ARG B 824       1.047  31.244  12.639  1.00 60.33 LIG 0.17  HD
ATOM     56 2HH1 ARG B 824      -0.308  30.675  12.396  1.00 60.33 LIG 0.17  HD
ATOM     57 2HH2 ARG B 824      -1.928  31.963  11.401  1.00 55.39 LIG 0.17  HD
ATOM     58 1HH2 ARG B 824      -1.622  33.365  11.000  1.00 55.39 LIG 0.17  HD
ATOM     59 HE   ARG B 824       0.433  34.214  11.344  1.00 65.02 LIG 0.18  HD
ENDBRANCH 50 51
ENDBRANCH 49 50
ENDBRANCH 48 49
ENDBRANCH 47 48
BRANCH 47 60
ATOM     60  C   ARG B 824       3.321  32.273   7.412  1.00 52.05 LIG 0.24  C 
ATOM     61  N   PRO B 825       4.430  31.715   6.941  1.00 68.51 LIG-0.34  N 
ATOM     62  CA  PRO B 825       4.383  30.815   5.788  1.00 67.77 LIG 0.18  C 
ATOM     63  CD  PRO B 825       5.727  31.634   7.642  1.00 70.13 LIG 0.13  C 
ATOM     64  CB  PRO B 825       5.861  30.581   5.481  1.00 68.40 LIG 0.04  C 
ATOM     65  CG  PRO B 825       6.493  30.593   6.838  1.00 73.68 LIG 0.02  C 
ATOM     66 O    ARG B 824       2.199  31.969   6.972  1.00 51.39 LIG-0.27  OA
BRANCH 62 67
ATOM     67  C   PRO B 825       3.676  29.516   6.133  1.00 71.49 LIG 0.24  C 
ATOM     68  N   ARG B 826       3.376  28.755   5.087  1.00 70.87 LIG-0.35  N 
ATOM     69 H    ARG B 826       3.466  29.003   4.269  1.00 70.87 LIG 0.16  HD
ATOM     70 O    PRO B 825       3.377  29.219   7.289  1.00 73.63 LIG-0.27  OA
BRANCH 68 71
ATOM     71  CA  ARG B 826       2.858  27.410   5.251  1.00 67.47 LIG 0.16  C 
BRANCH 71 72
ATOM     72  CB  ARG B 826       2.221  26.916   3.953  1.00 70.42 LIG 0.04  C 
BRANCH 72 73
ATOM     73  CG  ARG B 826       1.936  25.431   3.980  1.00 69.62 LIG 0.02  C 
BRANCH 73 74
ATOM     74  CD  ARG B 826       1.307  24.889   2.711  1.00 58.43 LIG 0.14  C 
BRANCH 74 75
ATOM     75  NE  ARG B 826       0.406  25.811   2.016  1.00 52.00 LIG-0.23  N 
ATOM     76 HE   ARG B 826       0.666  26.137   1.263  1.00 52.00 LIG 0.18  HD
ATOM     77  CZ  ARG B 826      -0.783  26.176   2.474  1.00 51.94 LIG 0.67  C 
ATOM     78  NH1 ARG B 826      -1.176  25.747   3.667  1.00 56.61 LIG-0.23  N 
ATOM     79  NH2 ARG B 826      -1.553  26.986   1.766  1.00 47.30 LIG-0.23  N 
ATOM     80 2HH1 ARG B 826      -1.946  25.978   3.975  1.00 56.61 LIG 0.17  HD
ATOM     81 1HH1 ARG B 826      -0.661  25.240   4.133  1.00 56.61 LIG 0.17  HD
ATOM     82 1HH2 ARG B 826      -1.283  27.279   1.003  1.00 47.30 LIG 0.17  HD
ATOM     83 2HH2 ARG B 826      -2.324  27.219   2.067  1.00 47.30 LIG 0.17  HD
ENDBRANCH 74 75
ENDBRANCH 73 74
ENDBRANCH 72 73
ENDBRANCH 71 72
BRANCH 71 84
ATOM     84  C   ARG B 826       3.974  26.463   5.673  1.00 71.98 LIG 0.22  C 
ATOM     85 O    ARG B 826       4.242  26.300   6.862  1.00 86.43 LIG-0.29  OA
ENDBRANCH 71 84
ENDBRANCH 68 71
ENDBRANCH 62 67
ENDBRANCH 47 60
ENDBRANCH 3 47
TORSDOF 31
