USER: ADFR SOLUTION from run 0
USER: SCORE 9.991089 LL:  -2.010 LR:  -9.602 RR:   0.000 FEB:  -4.531
USER: RMSD 0.479974
USER: STATUS Locally minimized using BFGS
USER: GENES 19
USER: genes 0 Translation |==|  0.41867 0.49308 0.47462
USER: genes 1 Rotation |==|  0.51552 0.49845 0.51586 0.99950
USER: genes 2 Torsion [N]-C--CA-[N] |==|  0.33999
USER: genes 3 Torsion [C]-CA--CB-[CG] |==|  0.26912
USER: genes 4 Torsion [CA]-CB--CG-[OD2] |==|  0.46472
USER: genes 5 Torsion [C]-CA--N-[C] |==|  0.64376
USER: genes 6 Torsion [N]-C--CA-[N] |==|  0.33465
USER: genes 7 Torsion [C]-CA--N-[H3] |==|  0.16953
USER: genes 8 Torsion [C]-CA--CB-[CG] |==|  0.16275
USER: genes 9 Torsion [CA]-CB--CG-[OD2] |==|  0.70709
USER: genes 10 Torsion [C]-N--CA-[CB] |==|  0.40442
USER: genes 11 Torsion [N]-CA--C-[N] |==|  0.97778
USER: genes 12 Torsion [C]-N--CA-[C] |==|  0.63162
USER: genes 13 Torsion [N]-CA--C-[O] |==|  0.32471
USER: genes 14 Torsion [N]-CA--CB-[CG] |==|  0.71246
USER: genes 15 Torsion [CA]-CB--CG-[SD] |==|  0.74559
USER: genes 16 Torsion [CB]-CG--SD-[CE] |==|  0.47209
USER: genes 17 Torsion [N]-CA--CB-[CG] |==|  0.82912
USER: genes 18 Torsion [CA]-CB--CG-[OD1] |==|  0.95593
ROOT
ATOM      1  C   ASP D   0     -20.283 -18.297 -23.810  1.00 50.85 LIG 0.24  C 
ATOM      2 O    ASP D   0     -21.065 -18.236 -24.763  1.00 49.73 LIG-0.27  OA
ATOM      3  N   ASP D   1     -19.131 -17.617 -23.766  1.00 47.66 LIG-0.34  N 
ATOM      4 H    ASP D   1     -18.616 -17.597 -23.077  1.00 47.66 LIG 0.16  HD
ENDROOT
BRANCH 1 5
ATOM      5  CA  ASP D   0     -20.611 -19.197 -22.614  1.00 50.32 LIG 0.19  C 
BRANCH 5 6
ATOM      6  CB  ASP D   0     -20.650 -20.659 -23.072  1.00 50.50 LIG 0.15  C 
BRANCH 6 7
ATOM      7  CG  ASP D   0     -19.351 -21.391 -22.815  1.00 42.38 LIG 0.17  C 
ATOM      8 OD2  ASP D   0     -19.339 -22.637 -22.920  1.00 47.85 LIG-0.65  OA
ATOM      9 OD1  ASP D   0     -18.344 -20.721 -22.512  1.00 32.99 LIG-0.65  OA
ENDBRANCH 6 7
ENDBRANCH 5 6
BRANCH 5 10
ATOM     10  N   ASP D   0     -21.883 -18.857 -21.979  1.00 53.06 LIG-0.34  N 
ATOM     11 H    ASP D   0     -22.545 -18.811 -22.526  1.00 53.06 LIG 0.16  HD
ATOM     12  C   ASP D  -1     -21.995 -18.640 -20.670  1.00 52.15 LIG 0.25  C 
ATOM     13 O    ASP D  -1     -21.026 -18.471 -19.919  1.00 47.49 LIG-0.27  OA
BRANCH 12 14
ATOM     14  CA  ASP D  -1     -23.422 -18.598 -20.127  1.00 59.57 LIG 0.28  C 
BRANCH 14 15
ATOM     15  N   ASP D  -1     -23.601 -19.634 -19.113  1.00 50.06 LIG-0.07  N 
ATOM     16 H3   ASP D  -1     -23.040 -19.488 -18.438  1.00 50.06 LIG 0.28  HD
ATOM     17 H2   ASP D  -1     -23.434 -20.432 -19.470  1.00 50.06 LIG 0.28  HD
ATOM     18 H1   ASP D  -1     -24.439 -19.613 -18.812  1.00 50.06 LIG 0.28  HD
ENDBRANCH 14 15
BRANCH 14 19
ATOM     19  CB  ASP D  -1     -23.749 -17.219 -19.553  1.00 60.46 LIG 0.15  C 
BRANCH 19 20
ATOM     20  CG  ASP D  -1     -23.600 -16.110 -20.572  1.00 56.39 LIG 0.17  C 
ATOM     21 OD1  ASP D  -1     -24.486 -15.987 -21.448  1.00 65.47 LIG-0.65  OA
ATOM     22 OD2  ASP D  -1     -22.606 -15.354 -20.490  1.00 48.71 LIG-0.65  OA
ENDBRANCH 19 20
ENDBRANCH 14 19
ENDBRANCH 12 14
ENDBRANCH 5 10
ENDBRANCH 1 5
BRANCH 3 23
ATOM     23  CA  ASP D   1     -18.637 -16.832 -24.912  1.00 46.44 LIG 0.19  C 
BRANCH 23 24
ATOM     24  C   ASP D   1     -17.688 -17.645 -25.777  1.00 38.24 LIG 0.24  C 
ATOM     25 O    ASP D   1     -17.265 -17.191 -26.835  1.00 48.73 LIG-0.27  OA
ATOM     26  N   MET D   2     -17.323 -18.832 -25.306  1.00 47.06 LIG-0.35  N 
ATOM     27 H    MET D   2     -17.686 -19.218 -24.630  1.00 47.06 LIG 0.16  HD
BRANCH 26 28
ATOM     28  CA  MET D   2     -16.238 -19.586 -25.934  1.00 48.57 LIG 0.16  C 
BRANCH 28 29
ATOM     29  C   MET D   2     -16.606 -21.045 -26.176  1.00 49.60 LIG 0.22  C 
ATOM     30 O    MET D   2     -16.661 -21.494 -27.322  1.00 49.04 LIG-0.29  OA
ENDBRANCH 28 29
BRANCH 28 31
ATOM     31  CB  MET D   2     -14.972 -19.499 -25.072  1.00 43.71 LIG 0.04  C 
BRANCH 31 32
ATOM     32  CG  MET D   2     -13.915 -18.550 -25.593  1.00 45.96 LIG 0.08  C 
BRANCH 32 33
ATOM     33 SD   MET D   2     -12.734 -19.390 -26.670  1.00 73.43 LIG-0.17  SA
ATOM     34  CE  MET D   2     -11.840 -17.987 -27.342  1.00 57.46 LIG 0.09  C 
ENDBRANCH 32 33
ENDBRANCH 31 32
ENDBRANCH 28 31
ENDBRANCH 26 28
ENDBRANCH 23 24
BRANCH 23 35
ATOM     35  CB  ASP D   1     -17.888 -15.564 -24.466  1.00 44.28 LIG 0.15  C 
BRANCH 35 36
ATOM     36  CG  ASP D   1     -18.752 -14.597 -23.678  1.00 47.95 LIG 0.17  C 
ATOM     37 OD1  ASP D   1     -19.997 -14.723 -23.707  1.00 49.71 LIG-0.65  OA
ATOM     38 OD2  ASP D   1     -18.165 -13.695 -23.032  1.00 42.29 LIG-0.65  OA
ENDBRANCH 35 36
ENDBRANCH 23 35
ENDBRANCH 3 23
TORSDOF 17
