USER: ADFR SOLUTION from run 0
USER: SCORE 19.141682 LL:  -3.338 LR: -19.177 RR:   0.000 FEB: -11.421
USER: RMSD 0.262168
USER: STATUS Locally minimized using BFGS
USER: GENES 28
USER: genes 0 Translation |==|  0.45181 0.43313 0.55699
USER: genes 1 Rotation |==|  0.50754 0.49980 0.50918 0.99986
USER: genes 2 Torsion [N]-C--CA-[N] |==|  0.38553
USER: genes 3 Torsion [C]-CA--N-[C] |==|  0.73124
USER: genes 4 Torsion [N]-C--CA-[N] |==|  0.36576
USER: genes 5 Torsion [C]-CA--N-[C] |==|  0.80969
USER: genes 6 Torsion [N]-C--CA-[N] |==|  0.38101
USER: genes 7 Torsion [C]-CA--N-[H2] |==|  0.80460
USER: genes 8 Torsion [C]-CA--CB-[OG] |==|  0.80022
USER: genes 9 Torsion [CA]-CB--OG-[HG] |==|  0.49917
USER: genes 10 Torsion [C]-CA--CB-[CG] |==|  0.43111
USER: genes 11 Torsion [CA]-CB--CG-[OD2] |==|  0.33016
USER: genes 12 Torsion [C]-CA--CB-[CG] |==|  0.49741
USER: genes 13 Torsion [CA]-CB--CG-[CD] |==|  0.81264
USER: genes 14 Torsion [CB]-CG--CD-[OE2] |==|  0.21879
USER: genes 15 Torsion [C]-N--CA-[CB] |==|  0.40191
USER: genes 16 Torsion [N]-CA--CB-[OG] |==|  0.13486
USER: genes 17 Torsion [CA]-CB--OG-[HG] |==|  0.49946
USER: genes 18 Torsion [N]-CA--C-[N] |==|  0.39923
USER: genes 19 Torsion [C]-N--CA-[CB] |==|  0.42245
USER: genes 20 Torsion [N]-CA--C-[N] |==|  0.30556
USER: genes 21 Torsion [C]-N--CA-[C] |==|  0.79854
USER: genes 22 Torsion [N]-CA--C-[O] |==|  0.55489
USER: genes 23 Torsion [N]-CA--CB-[CG] |==|  0.48994
USER: genes 24 Torsion [CA]-CB--CG-[CD] |==|  0.33207
USER: genes 25 Torsion [CB]-CG--CD-[CE] |==|  0.53800
USER: genes 26 Torsion [CG]-CD--CE-[NZ] |==|  0.43993
USER: genes 27 Torsion [CD]-CE--NZ-[HZ2] |==|  0.87579
ROOT
ATOM      1  C   GLU C   3      43.997  30.738  21.548  1.00 22.71 LIG 0.24  C 
ATOM      2 O    GLU C   3      43.504  31.671  22.183  1.00 20.88 LIG-0.27  OA
ATOM      3  N   SER C   4      45.256  30.334  21.700  1.00 24.79 LIG-0.34  N 
ATOM      4 H    SER C   4      45.583  29.636  21.318  1.00 24.79 LIG 0.16  HD
ENDROOT
BRANCH 1 5
ATOM      5  CA  GLU C   3      43.175  30.005  20.508  1.00 22.43 LIG 0.18  C 
BRANCH 5 6
ATOM      6  N   GLU C   3      41.821  29.754  20.988  1.00 20.46 LIG-0.35  N 
ATOM      7  C   ASP C   2      41.427  28.612  21.538  1.00 20.25 LIG 0.24  C 
ATOM      8 O    ASP C   2      42.188  27.682  21.806  1.00 19.04 LIG-0.27  OA
ATOM      9 H    GLU C   3      41.294  30.424  20.880  1.00 20.46 LIG 0.16  HD
BRANCH 7 10
ATOM     10  CA  ASP C   2      39.936  28.522  21.871  1.00 20.64 LIG 0.19  C 
BRANCH 10 11
ATOM     11  N   ASP C   2      39.346  27.271  21.386  1.00 19.34 LIG-0.34  N 
ATOM     12  C   SER C   1      39.196  27.014  20.087  1.00 18.84 LIG 0.25  C 
ATOM     13 O    SER C   1      39.406  27.839  19.207  1.00 16.35 LIG-0.27  OA
ATOM     14 H    ASP C   2      39.109  26.729  22.010  1.00 19.34 LIG 0.16  HD
BRANCH 12 15
ATOM     15  CA  SER C   1      38.738  25.600  19.721  1.00 19.55 LIG 0.30  C 
BRANCH 15 16
ATOM     16  N   SER C   1      37.704  25.626  18.657  1.00 19.33 LIG-0.06  N 
ATOM     17 H1   SER C   1      37.564  24.800  18.358  1.00 19.33 LIG 0.28  HD
ATOM     18 H2   SER C   1      36.945  25.954  18.988  1.00 19.33 LIG 0.28  HD
ATOM     19 H3   SER C   1      37.980  26.142  17.986  1.00 19.33 LIG 0.28  HD
ENDBRANCH 15 16
BRANCH 15 20
ATOM     20  CB  SER C   1      39.939  24.774  19.253  1.00 20.63 LIG 0.21  C 
BRANCH 20 21
ATOM     21 OG   SER C   1      40.376  25.199  17.974  1.00 22.73 LIG-0.40  OA
ATOM     22 HG   SER C   1      41.037  24.738  17.736  1.00 22.73 LIG 0.21  HD
ENDBRANCH 20 21
ENDBRANCH 15 20
ENDBRANCH 12 15
ENDBRANCH 10 11
BRANCH 10 23
ATOM     23  CB  ASP C   2      39.772  28.672  23.386  1.00 22.15 LIG 0.15  C 
BRANCH 23 24
ATOM     24  CG  ASP C   2      38.416  29.186  23.776  1.00 25.02 LIG 0.17  C 
ATOM     25 OD2  ASP C   2      37.695  28.455  24.499  1.00 28.35 LIG-0.65  OA
ATOM     26 OD1  ASP C   2      38.094  30.341  23.398  1.00 26.75 LIG-0.65  OA
ENDBRANCH 23 24
ENDBRANCH 10 23
ENDBRANCH 7 10
ENDBRANCH 5 6
BRANCH 5 27
ATOM     27  CB  GLU C   3      43.129  30.901  19.267  1.00 23.87 LIG 0.04  C 
BRANCH 27 28
ATOM     28  CG  GLU C   3      42.367  30.350  18.078  1.00 26.88 LIG 0.12  C 
BRANCH 28 29
ATOM     29  CD  GLU C   3      43.045  29.147  17.465  1.00 28.35 LIG 0.17  C 
ATOM     30 OE2  GLU C   3      42.906  28.050  18.030  1.00 30.85 LIG-0.65  OA
ATOM     31 OE1  GLU C   3      43.726  29.299  16.432  1.00 32.46 LIG-0.65  OA
ENDBRANCH 28 29
ENDBRANCH 27 28
ENDBRANCH 5 27
ENDBRANCH 1 5
BRANCH 3 32
ATOM     32  CA  SER C   4      46.200  31.054  22.538  1.00 26.83 LIG 0.20  C 
BRANCH 32 33
ATOM     33  CB  SER C   4      47.167  30.102  23.247  1.00 27.54 LIG 0.20  C 
BRANCH 33 34
ATOM     34 OG   SER C   4      47.729  29.167  22.343  1.00 29.42 LIG-0.40  OA
ATOM     35 HG   SER C   4      48.256  28.660  22.756  1.00 29.42 LIG 0.21  HD
ENDBRANCH 33 34
ENDBRANCH 32 33
BRANCH 32 36
ATOM     36  C   SER C   4      46.980  32.014  21.667  1.00 29.03 LIG 0.24  C 
ATOM     37 O    SER C   4      47.306  31.715  20.516  1.00 28.27 LIG-0.27  OA
ATOM     38  N   LYS C   5      47.280  33.172  22.229  1.00 32.23 LIG-0.35  N 
ATOM     39 H    LYS C   5      46.964  33.436  22.983  1.00 32.23 LIG 0.16  HD
BRANCH 38 40
ATOM     40  CA  LYS C   5      48.184  34.102  21.603  1.00 36.96 LIG 0.18  C 
BRANCH 40 41
ATOM     41  C   LYS C   5      49.592  33.709  22.029  1.00 40.14 LIG 0.24  C 
ATOM     42 O    LYS C   5      49.959  33.857  23.205  1.00 43.61 LIG-0.27  OA
ATOM     43  N   GLY C   6      50.363  33.188  21.077  1.00 41.15 LIG-0.35  N 
ATOM     44 H    GLY C   6      50.082  32.992  20.288  1.00 41.15 LIG 0.16  HD
BRANCH 43 45
ATOM     45  CA  GLY C   6      51.776  32.901  21.297  1.00 42.92 LIG 0.21  C 
BRANCH 45 46
ATOM     46  C   GLY C   6      52.582  34.183  21.355  1.00 41.89 LIG 0.21  C 
ATOM     47 O    GLY C   6      53.794  34.165  21.172  1.00 45.47 LIG-0.29  OA
ENDBRANCH 45 46
ENDBRANCH 43 45
ENDBRANCH 40 41
BRANCH 40 48
ATOM     48  CB  LYS C   5      47.862  35.538  22.016  1.00 37.76 LIG 0.04  C 
BRANCH 48 49
ATOM     49  CG  LYS C   5      48.843  36.546  21.450  1.00 39.35 LIG 0.00  C 
BRANCH 49 50
ATOM     50  CD  LYS C   5      48.186  37.573  20.556  1.00 40.12 LIG 0.03  C 
BRANCH 50 51
ATOM     51  CE  LYS C   5      49.259  38.313  19.779  1.00 40.78 LIG 0.23  C 
BRANCH 51 52
ATOM     52  NZ  LYS C   5      48.697  38.933  18.559  1.00 41.17 LIG-0.08  N 
ATOM     53 HZ3  LYS C   5      48.228  39.656  18.782  1.00 41.17 LIG 0.27  HD
ATOM     54 HZ2  LYS C   5      48.164  38.351  18.148  1.00 41.17 LIG 0.27  HD
ATOM     55 HZ1  LYS C   5      49.359  39.166  18.012  1.00 41.17 LIG 0.27  HD
ENDBRANCH 51 52
ENDBRANCH 50 51
ENDBRANCH 49 50
ENDBRANCH 48 49
ENDBRANCH 40 48
ENDBRANCH 38 40
ENDBRANCH 32 36
ENDBRANCH 3 32
TORSDOF 26
