USER: ADFR SOLUTION from run 0
USER: SCORE 5.574903 LL:  -1.956 LR:  -3.826 RR:   0.000 FEB:  -0.247
USER: RMSD 0.993954
USER: STATUS Locally minimized using BFGS
USER: GENES 14
USER: genes 0 Translation |==|  0.54637 0.55826 0.36200
USER: genes 1 Rotation |==|  0.47316 0.51933 0.53950 0.99734
USER: genes 2 Torsion [N]-CA--C-[N] |==|  0.02996
USER: genes 3 Torsion [C]-N--CA-[C] |==|  0.81462
USER: genes 4 Torsion [N]-CA--C-[O] |==|  0.84853
USER: genes 5 Torsion [N]-CA--CB-[CG] |==|  0.74970
USER: genes 6 Torsion [CA]-CB--CG-[CD2] |==|  0.79859
USER: genes 7 Torsion [C]-CA--CB-[CG] |==|  0.47054
USER: genes 8 Torsion [CA]-CB--CG-[CD1] |==|  0.23765
USER: genes 9 Torsion [C]-CA--N-[C] |==|  0.65000
USER: genes 10 Torsion [N]-C--CA-[N] |==|  0.92952
USER: genes 11 Torsion [C]-CA--N-[H2] |==|  0.82063
USER: genes 12 Torsion [C]-CA--CB-[OG] |==|  0.50735
USER: genes 13 Torsion [CA]-CB--OG-[HG] |==|  0.50407
ROOT
ATOM      1  CA  PHE C   1     110.207 174.566  57.332  1.00 43.43 LIG 0.18  C 
ENDROOT
BRANCH 1 2
ATOM      2  C   PHE C   1     108.977 173.888  56.748  1.00 43.95 LIG 0.24  C 
ATOM      3 O    PHE C   1     108.884 173.737  55.525  1.00 42.64 LIG-0.27  OA
ATOM      4  N   LEU C   2     108.034 173.480  57.589  1.00 45.78 LIG-0.35  N 
ATOM      5 H    LEU C   2     108.122 173.467  58.445  1.00 45.78 LIG 0.16  HD
BRANCH 4 6
ATOM      6  CA  LEU C   2     106.749 173.014  57.105  1.00 46.28 LIG 0.16  C 
BRANCH 6 7
ATOM      7  C   LEU C   2     106.017 174.193  56.475  1.00 47.91 LIG 0.22  C 
ATOM      8 O    LEU C   2     105.834 175.233  57.109  1.00 50.38 LIG-0.29  OA
ENDBRANCH 6 7
BRANCH 6 9
ATOM      9  CB  LEU C   2     105.932 172.415  58.250  1.00 44.46 LIG 0.04  C 
BRANCH 9 10
ATOM     10  CG  LEU C   2     106.125 170.916  58.484  1.00 41.86 LIG-0.02  C 
ATOM     11  CD2 LEU C   2     105.456 170.118  57.377  1.00 43.32 LIG 0.01  C 
ATOM     12  CD1 LEU C   2     105.578 170.516  59.843  1.00 39.91 LIG 0.01  C 
ENDBRANCH 9 10
ENDBRANCH 6 9
ENDBRANCH 4 6
ENDBRANCH 1 2
BRANCH 1 13
ATOM     13  CB  PHE C   1     111.497 174.065  56.681  1.00 40.74 LIG 0.07  C 
BRANCH 13 14
ATOM     14  CG  PHE C   1     112.692 174.885  57.049  1.00 40.58 LIG-0.06  A 
ATOM     15  CD1 PHE C   1     113.397 174.617  58.209  1.00 41.26 LIG 0.01  A 
ATOM     16  CE1 PHE C   1     114.484 175.380  58.565  1.00 41.59 LIG 0.00  A 
ATOM     17  CZ  PHE C   1     114.874 176.433  57.765  1.00 39.95 LIG 0.00  A 
ATOM     18  CE2 PHE C   1     114.170 176.723  56.611  1.00 40.65 LIG 0.00  A 
ATOM     19  CD2 PHE C   1     113.083 175.955  56.261  1.00 39.59 LIG 0.01  A 
ENDBRANCH 13 14
ENDBRANCH 1 13
BRANCH 1 20
ATOM     20  N   PHE C   1     110.288 174.450  58.782  1.00 44.33 LIG-0.35  N 
ATOM     21 H    PHE C   1     110.241 173.642  59.071  1.00 44.33 LIG 0.16  HD
ATOM     22  C   SER C   0     110.425 175.510  59.578  1.00 45.23 LIG 0.25  C 
ATOM     23 O    SER C   0     110.428 176.670  59.161  1.00 45.89 LIG-0.27  OA
BRANCH 22 24
ATOM     24  CA  SER C   0     110.577 175.215  61.065  1.00 46.83 LIG 0.30  C 
BRANCH 24 25
ATOM     25  N   SER C   0     109.971 173.934  61.414  1.00 48.27 LIG-0.06  N 
ATOM     26 H2   SER C   0     109.093 173.974  61.278  1.00 48.27 LIG 0.28  HD
ATOM     27 H1   SER C   0     110.130 173.754  62.271  1.00 48.27 LIG 0.28  HD
ATOM     28 H3   SER C   0     110.321 173.292  60.907  1.00 48.27 LIG 0.28  HD
ENDBRANCH 24 25
BRANCH 24 29
ATOM     29  CB  SER C   0     112.060 175.236  61.450  1.00 47.94 LIG 0.21  C 
BRANCH 29 30
ATOM     30 OG   SER C   0     112.240 174.906  62.815  1.00 49.79 LIG-0.40  OA
ATOM     31 HG   SER C   0     113.056 174.943  63.007  1.00 49.79 LIG 0.21  HD
ENDBRANCH 29 30
ENDBRANCH 24 29
ENDBRANCH 22 24
ENDBRANCH 1 20
TORSDOF 12
