USER: ADFR SOLUTION from run 0
USER: SCORE 13.245509 LL:  -5.323 LR:  -9.642 RR:   0.000 FEB:  -4.273
USER: RMSD 0.928634
USER: STATUS Locally minimized using BFGS
USER: GENES 20
USER: genes 0 Translation |==|  0.44608 0.49614 0.52593
USER: genes 1 Rotation |==|  0.52258 0.46763 0.49564 0.99842
USER: genes 2 Torsion [N]-C--CA-[N] |==|  0.43973
USER: genes 3 Torsion [C]-CA--CB-[CG] |==|  0.54283
USER: genes 4 Torsion [CA]-CB--CG-[CD1] |==|  0.50798
USER: genes 5 Torsion [C]-CA--N-[C] |==|  0.78280
USER: genes 6 Torsion [N]-C--CA-[N] |==|  0.38902
USER: genes 7 Torsion [C]-CA--CB-[CG1] |==|  0.17420
USER: genes 8 Torsion [CA]-CB--CG1-[CD1] |==|  0.38073
USER: genes 9 Torsion [C]-CA--N-[C] |==|  0.65764
USER: genes 10 Torsion [N]-C--CA-[N] |==|  0.68523
USER: genes 11 Torsion [C]-CA--CB-[CG] |==|  0.53334
USER: genes 12 Torsion [CA]-CB--CG-[OD1] |==|  0.98215
USER: genes 13 Torsion [C]-N--CA-[CB] |==|  0.31667
USER: genes 14 Torsion [N]-CA--CB-[CG] |==|  0.84631
USER: genes 15 Torsion [CA]-CB--CG-[CD1] |==|  0.83158
USER: genes 16 Torsion [N]-CA--C-[N] |==|  0.39239
USER: genes 17 Torsion [N]-CA--C-[O] |==|  0.91587
USER: genes 18 Torsion [C]-N--CA-[C] |==|  0.82749
USER: genes 19 Torsion [N]-CA--C-[O] |==|  0.89897
ROOT
ATOM      1  C   LEU G   4      39.069   6.074  23.114  1.00 61.38 LIG 0.24  C 
ATOM      2 O    LEU G   4      38.842   6.171  21.903  1.00 52.06 LIG-0.27  OA
ATOM      3  N   PHE G   5      39.857   5.168  23.665  1.00 60.80 LIG-0.35  N 
ATOM      4 H    PHE G   5      40.022   5.140  24.509  1.00 60.80 LIG 0.16  HD
ENDROOT
BRANCH 1 5
ATOM      5  CA  LEU G   4      38.416   6.989  24.107  1.00 58.56 LIG 0.18  C 
BRANCH 5 6
ATOM      6  CB  LEU G   4      37.228   6.245  24.710  1.00 61.47 LIG 0.04  C 
BRANCH 6 7
ATOM      7  CG  LEU G   4      36.250   7.134  25.447  1.00 62.80 LIG-0.02  C 
ATOM      8  CD1 LEU G   4      35.185   6.232  26.036  1.00 63.22 LIG 0.01  C 
ATOM      9  CD2 LEU G   4      37.012   7.916  26.516  1.00 64.86 LIG 0.01  C 
ENDBRANCH 6 7
ENDBRANCH 5 6
BRANCH 5 10
ATOM     10  N   LEU G   4      38.018   8.207  23.429  1.00 59.02 LIG-0.35  N 
ATOM     11 H    LEU G   4      37.181   8.259  23.236  1.00 59.02 LIG 0.16  HD
ATOM     12  C   ILE G   3      38.918   9.150  23.147  1.00 70.10 LIG 0.24  C 
ATOM     13 O    ILE G   3      40.070   9.140  23.635  1.00 64.55 LIG-0.27  OA
BRANCH 12 14
ATOM     14  CA  ILE G   3      38.459  10.270  22.176  1.00 67.83 LIG 0.18  C 
BRANCH 14 15
ATOM     15  CB  ILE G   3      38.918   9.968  20.714  1.00 66.94 LIG 0.01  C 
ATOM     16  CG2 ILE G   3      40.443   9.886  20.639  1.00 67.41 LIG 0.01  C 
BRANCH 15 17
ATOM     17  CG1 ILE G   3      38.284   8.664  20.157  1.00 59.79 LIG 0.00  C 
ATOM     18  CD1 ILE G   3      37.798   8.781  18.736  1.00 60.74 LIG 0.01  C 
ENDBRANCH 15 17
ENDBRANCH 14 15
BRANCH 14 19
ATOM     19  N   ILE G   3      38.972  11.555  22.626  1.00 79.60 LIG-0.34  N 
ATOM     20 H    ILE G   3      39.828  11.575  22.706  1.00 79.60 LIG 0.16  HD
ATOM     21  C   ASP G   2      38.190  12.606  22.889  1.00 93.07 LIG 0.26  C 
ATOM     22 O    ASP G   2      36.975  12.612  22.686  1.00 81.24 LIG-0.27  OA
BRANCH 21 23
ATOM     23  CA  ASP G   2      38.864  13.846  23.490  1.00 93.30 LIG 0.41  C 
ATOM     24  N   ASP G   2      38.360  14.029  24.881  1.00 94.60 LIG 0.61  N 
BRANCH 23 25
ATOM     25  CB  ASP G   2      40.395  13.730  23.493  1.00 96.36 LIG 0.16  C 
BRANCH 25 26
ATOM     26  CG  ASP G   2      41.058  14.800  24.335  1.00103.24 LIG 0.17  C 
ATOM     27 OD1  ASP G   2      40.356  15.708  24.823  1.00112.85 LIG-0.65  OA
ATOM     28 OD2  ASP G   2      42.283  14.734  24.518  1.00105.87 LIG-0.65  OA
ENDBRANCH 25 26
ENDBRANCH 23 25
ENDBRANCH 21 23
ENDBRANCH 14 19
ENDBRANCH 12 14
ENDBRANCH 5 10
ENDBRANCH 1 5
BRANCH 3 29
ATOM     29  CA  PHE G   5      40.520   4.138  22.917  1.00 70.05 LIG 0.18  C 
BRANCH 29 30
ATOM     30  CB  PHE G   5      42.049   4.338  22.952  1.00 73.20 LIG 0.07  C 
BRANCH 30 31
ATOM     31  CG  PHE G   5      42.477   5.715  22.468  1.00 79.36 LIG-0.06  A 
ATOM     32  CD1 PHE G   5      42.174   6.130  21.147  1.00 85.64 LIG 0.01  A 
ATOM     33  CE1 PHE G   5      42.541   7.388  20.685  1.00 88.71 LIG 0.00  A 
ATOM     34  CZ  PHE G   5      43.214   8.259  21.546  1.00 96.11 LIG 0.00  A 
ATOM     35  CE2 PHE G   5      43.508   7.871  22.863  1.00 91.53 LIG 0.00  A 
ATOM     36  CD2 PHE G   5      43.141   6.609  23.320  1.00 81.01 LIG 0.01  A 
ENDBRANCH 30 31
ENDBRANCH 29 30
BRANCH 29 37
ATOM     37  C   PHE G   5      40.050   2.818  23.517  1.00 74.26 LIG 0.24  C 
ATOM     38  N   PRO G   6      39.820   1.803  22.655  1.00 79.01 LIG-0.34  N 
ATOM     39  CD  PRO G   6      39.851   1.935  21.173  1.00 76.17 LIG 0.13  C 
ATOM     40  CA  PRO G   6      39.200   0.539  23.084  1.00 78.34 LIG 0.18  C 
ATOM     41  CG  PRO G   6      39.602   0.547  20.695  1.00 78.03 LIG 0.02  C 
ATOM     42  CB  PRO G   6      38.715  -0.057  21.751  1.00 82.73 LIG 0.04  C 
ATOM     43 O    PHE G   5      39.808   2.747  24.728  1.00 61.78 LIG-0.27  OA
BRANCH 40 44
ATOM     44  C   PRO G   6      40.122  -0.467  23.810  1.00 77.34 LIG 0.24  C 
ATOM     45 O    PRO G   6      41.308  -0.490  23.531  1.00 92.50 LIG-0.27  OA
ATOM     46  N   ALA G   7      39.576  -1.282  24.724  1.00 74.20 LIG-0.35  N 
ATOM     47 H    ALA G   7      38.834  -1.113  25.126  1.00 74.20 LIG 0.16  HD
BRANCH 46 48
ATOM     48  CA  ALA G   7      40.203  -2.566  25.136  1.00 71.75 LIG 0.16  C 
ATOM     49  CB  ALA G   7      39.399  -3.218  26.260  1.00 70.01 LIG 0.04  C 
BRANCH 48 50
ATOM     50  C   ALA G   7      40.299  -3.521  23.924  1.00 69.94 LIG 0.22  C 
ATOM     51 O    ALA G   7      39.385  -3.546  23.061  1.00 56.97 LIG-0.29  OA
ENDBRANCH 48 50
ENDBRANCH 46 48
ENDBRANCH 40 44
ENDBRANCH 29 37
ENDBRANCH 3 29
TORSDOF 18
