USER: ADFR SOLUTION from run 0
USER: SCORE 10.523080 LL:  -2.520 LR:  -8.281 RR:   0.000 FEB:  -2.912
USER: RMSD 1.741602
USER: STATUS Locally minimized using BFGS
USER: GENES 20
USER: genes 0 Translation |==|  0.40208 0.59611 0.52379
USER: genes 1 Rotation |==|  0.52211 0.51205 0.48860 0.99924
USER: genes 2 Torsion [C]-CA--N-[C] |==|  0.57700
USER: genes 3 Torsion [N]-C--CA-[N] |==|  0.41654
USER: genes 4 Torsion [C]-CA--CB-[CG] |==|  0.64065
USER: genes 5 Torsion [CA]-CB--CG-[CD1] |==|  0.37368
USER: genes 6 Torsion [C]-CA--N-[C] |==|  0.75857
USER: genes 7 Torsion [N]-C--CA-[N] |==|  0.57864
USER: genes 8 Torsion [C]-CA--CB-[CG] |==|  0.27095
USER: genes 9 Torsion [CA]-CB--CG-[CD] |==|  0.56686
USER: genes 10 Torsion [CB]-CG--CD-[OE1] |==|  0.11820
USER: genes 11 Torsion [N]-CA--C-[N] |==|  0.42282
USER: genes 12 Torsion [C]-N--CA-[CB] |==|  0.39051
USER: genes 13 Torsion [N]-CA--CB-[CG] |==|  0.44579
USER: genes 14 Torsion [CA]-CB--CG-[CD2] |==|  0.48065
USER: genes 15 Torsion [N]-CA--C-[O] |==|  0.34085
USER: genes 16 Torsion [N]-CA--CB-[CG] |==|  0.58556
USER: genes 17 Torsion [CA]-CB--CG-[CD] |==|  0.47818
USER: genes 18 Torsion [CB]-CG--CD-[NE] |==|  0.48180
USER: genes 19 Torsion [CG]-CD--NE-[HE] |==|  0.21640
ROOT
ATOM      1  CA  ARG G  10      26.019 -44.391  58.299  1.00109.03 LIG 0.18  C 
ENDROOT
BRANCH 1 2
ATOM      2  N   ARG G  10      25.634 -44.413  56.879  1.00109.38 LIG-0.35  N 
ATOM      3 H    ARG G  10      24.975 -43.893  56.694  1.00109.38 LIG 0.16  HD
ATOM      4  C   LEU G   9      26.257 -45.181  55.946  1.00112.90 LIG 0.24  C 
ATOM      5 O    LEU G   9      27.195 -45.940  56.215  1.00112.50 LIG-0.27  OA
BRANCH 4 6
ATOM      6  CA  LEU G   9      25.764 -45.069  54.492  1.00108.81 LIG 0.18  C 
BRANCH 6 7
ATOM      7  CB  LEU G   9      24.554 -46.002  54.240  1.00108.47 LIG 0.04  C 
BRANCH 7 8
ATOM      8  CG  LEU G   9      24.608 -46.943  53.019  1.00112.27 LIG-0.02  C 
ATOM      9  CD1 LEU G   9      24.166 -48.337  53.382  1.00111.85 LIG 0.01  C 
ATOM     10  CD2 LEU G   9      23.804 -46.404  51.857  1.00114.30 LIG 0.01  C 
ENDBRANCH 7 8
ENDBRANCH 6 7
BRANCH 6 11
ATOM     11  N   LEU G   9      26.829 -45.319  53.509  1.00109.55 LIG-0.35  N 
ATOM     12 H    LEU G   9      26.861 -46.142  53.258  1.00109.55 LIG 0.16  HD
ATOM     13  C   GLU G   8      27.685 -44.392  53.027  1.00113.88 LIG 0.26  C 
ATOM     14 O    GLU G   8      27.680 -43.212  53.392  1.00113.76 LIG-0.27  OA
BRANCH 13 15
ATOM     15  CA  GLU G   8      28.682 -44.864  51.957  1.00110.25 LIG 0.40  C 
ATOM     16  N   GLU G   8      29.927 -44.097  51.955  1.00110.33 LIG 0.61  N 
BRANCH 15 17
ATOM     17  CB  GLU G   8      28.956 -46.375  52.057  1.00111.70 LIG 0.06  C 
BRANCH 17 18
ATOM     18  CG  GLU G   8      28.123 -47.194  51.081  1.00121.64 LIG 0.12  C 
BRANCH 18 19
ATOM     19  CD  GLU G   8      27.869 -48.651  51.436  1.00138.36 LIG 0.17  C 
ATOM     20 OE1  GLU G   8      27.577 -48.946  52.618  1.00130.99 LIG-0.65  OA
ATOM     21 OE2  GLU G   8      27.927 -49.495  50.513  1.00129.20 LIG-0.65  OA
ENDBRANCH 18 19
ENDBRANCH 17 18
ENDBRANCH 15 17
ENDBRANCH 13 15
ENDBRANCH 6 11
ENDBRANCH 4 6
ENDBRANCH 1 2
BRANCH 1 22
ATOM     22  C   ARG G  10      24.875 -44.040  59.276  1.00112.09 LIG 0.24  C 
ATOM     23 O    ARG G  10      23.946 -43.318  58.908  1.00111.78 LIG-0.27  OA
ATOM     24  N   LEU G  11      24.969 -44.544  60.532  1.00107.87 LIG-0.35  N 
ATOM     25 H    LEU G  11      25.619 -45.054  60.772  1.00107.87 LIG 0.16  HD
BRANCH 24 26
ATOM     26  CA  LEU G  11      24.009 -44.300  61.619  1.00123.94 LIG 0.16  C 
BRANCH 26 27
ATOM     27  CB  LEU G  11      23.783 -45.594  62.448  1.00123.74 LIG 0.04  C 
BRANCH 27 28
ATOM     28  CG  LEU G  11      23.194 -45.494  63.876  1.00127.90 LIG-0.02  C 
ATOM     29  CD2 LEU G  11      22.900 -46.870  64.432  1.00129.89 LIG 0.01  C 
ATOM     30  CD1 LEU G  11      21.927 -44.664  63.914  1.00127.81 LIG 0.01  C 
ENDBRANCH 27 28
ENDBRANCH 26 27
BRANCH 26 31
ATOM     31  C   LEU G  11      24.506 -43.148  62.505  1.00152.65 LIG 0.22  C 
ATOM     32 O    LEU G  11      23.803 -42.152  62.677  1.00110.84 LIG-0.29  OA
ENDBRANCH 26 31
ENDBRANCH 24 26
ENDBRANCH 1 22
BRANCH 1 33
ATOM     33  CB  ARG G  10      27.212 -43.442  58.510  1.00110.06 LIG 0.04  C 
BRANCH 33 34
ATOM     34  CG  ARG G  10      28.127 -43.863  59.652  1.00122.67 LIG 0.02  C 
BRANCH 34 35
ATOM     35  CD  ARG G  10      29.389 -43.020  59.712  1.00133.32 LIG 0.14  C 
BRANCH 35 36
ATOM     36  NE  ARG G  10      30.194 -43.322  60.898  1.00140.65 LIG-0.23  N 
ATOM     37 HE   ARG G  10      30.674 -44.036  60.885  1.00140.65 LIG 0.18  HD
ATOM     38  CZ  ARG G  10      30.236 -42.568  61.993  1.00153.40 LIG 0.67  C 
ATOM     39  NH2 ARG G  10      30.995 -42.923  63.022  1.00139.74 LIG-0.23  N 
ATOM     40  NH1 ARG G  10      29.518 -41.453  62.069  1.00139.37 LIG-0.23  N 
ATOM     41 2HH2 ARG G  10      31.019 -42.433  63.728  1.00139.74 LIG 0.17  HD
ATOM     42 1HH2 ARG G  10      31.463 -43.644  62.982  1.00139.74 LIG 0.17  HD
ATOM     43 1HH1 ARG G  10      29.022 -41.216  61.408  1.00139.37 LIG 0.17  HD
ATOM     44 2HH1 ARG G  10      29.548 -40.969  62.779  1.00139.37 LIG 0.17  HD
ENDBRANCH 35 36
ENDBRANCH 34 35
ENDBRANCH 33 34
ENDBRANCH 1 33
TORSDOF 18
