USER: ADFR SOLUTION from run 0
USER: SCORE 16.462699 LL:  -4.603 LR: -11.910 RR:   0.000 FEB:  -7.138
USER: RMSD 0.411299
USER: STATUS Locally minimized using BFGS
USER: GENES 18
USER: genes 0 Translation |==|  0.50071 0.43249 0.44106
USER: genes 1 Rotation |==|  0.49910 0.50174 0.49883 0.99999
USER: genes 2 Torsion [N]-C--CA-[N] |==|  0.36156
USER: genes 3 Torsion [C]-CA--N-[C] |==|  0.81238
USER: genes 4 Torsion [N]-C--CA-[N] |==|  0.38220
USER: genes 5 Torsion [N]-C--CA-[N] |==|  0.44041
USER: genes 6 Torsion [N]-C--CA-[N] |==|  0.42672
USER: genes 7 Torsion [C]-CA--N-[C] |==|  0.80451
USER: genes 8 Torsion [C]-CA--CB-[CG] |==|  0.46163
USER: genes 9 Torsion [CA]-CB--CG-[CD1] |==|  0.48144
USER: genes 10 Torsion [N]-CA--C-[N] |==|  0.45560
USER: genes 11 Torsion [N]-CA--C-[N] |==|  0.40521
USER: genes 12 Torsion [C]-N--CA-[C] |==|  0.77835
USER: genes 13 Torsion [N]-CA--C-[O] |==|  0.95143
USER: genes 14 Torsion [N]-CA--CB-[CG] |==|  0.80554
USER: genes 15 Torsion [CA]-CB--CG-[CD] |==|  0.51597
USER: genes 16 Torsion [CB]-CG--CD-[NE] |==|  0.50697
USER: genes 17 Torsion [CG]-CD--NE-[HE] |==|  0.21880
ROOT
ATOM      1  C   LEU B   4      78.581 -20.876  48.713  1.00 11.33 LIG 0.24  C 
ATOM      2 O    LEU B   4      79.498 -21.235  47.961  1.00 12.90 LIG-0.27  OA
ATOM      3  N   PRO B   5      77.338 -20.769  48.281  1.00 11.12 LIG-0.34  N 
ATOM      4  CA  PRO B   5      77.014 -21.109  46.919  1.00 12.55 LIG 0.18  C 
ATOM      5  CB  PRO B   5      75.494 -21.309  46.974  1.00 13.89 LIG 0.04  C 
ATOM      6  CG  PRO B   5      75.048 -20.383  48.037  1.00 12.43 LIG 0.02  C 
ATOM      7  CD  PRO B   5      76.158 -20.330  49.040  1.00 11.21 LIG 0.13  C 
ENDROOT
BRANCH 1 8
ATOM      8  CA  LEU B   4      78.854 -20.565  50.179  1.00 11.65 LIG 0.18  C 
BRANCH 8 9
ATOM      9  N   LEU B   4      79.622 -21.646  50.754  1.00 12.22 LIG-0.35  N 
ATOM     10  C   PRO B   3      79.066 -22.837  50.900  1.00 12.52 LIG 0.24  C 
ATOM     11 O    PRO B   3      77.874 -23.054  50.668  1.00 13.02 LIG-0.27  OA
ATOM     12 H    LEU B   4      80.428 -21.447  50.978  1.00 12.22 LIG 0.16  HD
BRANCH 10 13
ATOM     13  CA  PRO B   3      79.991 -23.942  51.387  1.00 15.46 LIG 0.18  C 
ATOM     14  N   PRO B   3      79.313 -24.760  52.395  1.00 15.16 LIG-0.34  N 
ATOM     15  CD  PRO B   3      79.108 -26.143  51.937  1.00 18.06 LIG 0.13  C 
ATOM     16  C   PRO B   2      78.885 -24.194  53.518  1.00 13.99 LIG 0.24  C 
ATOM     17  CG  PRO B   3      79.327 -26.042  50.467  1.00 19.92 LIG 0.02  C 
ATOM     18  CB  PRO B   3      80.311 -24.943  50.272  1.00 18.17 LIG 0.04  C 
ATOM     19 O    PRO B   2      79.125 -23.006  53.766  1.00 12.71 LIG-0.27  OA
BRANCH 16 20
ATOM     20  CA  PRO B   2      78.042 -25.029  54.462  1.00 15.85 LIG 0.18  C 
ATOM     21  CB  PRO B   2      76.556 -24.930  54.080  1.00 19.12 LIG 0.04  C 
ATOM     22  CG  PRO B   2      75.814 -24.640  55.318  1.00 19.63 LIG 0.02  C 
ATOM     23  CD  PRO B   2      76.767 -23.959  56.224  1.00 18.19 LIG 0.13  C 
ATOM     24  N   PRO B   2      78.079 -24.484  55.807  1.00 15.71 LIG-0.34  N 
ATOM     25  C   ALA B   1      79.217 -24.470  56.491  1.00 13.25 LIG 0.24  C 
ATOM     26 O    ALA B   1      80.280 -24.862  56.012  1.00 13.75 LIG-0.27  OA
BRANCH 25 27
ATOM     27  CA  ALA B   1      79.157 -23.905  57.900  1.00 12.47 LIG 0.17  C 
ATOM     28  CB  ALA B   1      79.292 -22.406  57.860  1.00 12.30 LIG 0.04  C 
BRANCH 27 29
ATOM     29  N   ALA B   1      80.208 -24.484  58.717  1.00 12.31 LIG-0.35  N 
ATOM     30 H    ALA B   1      80.841 -23.940  58.925  1.00 12.31 LIG 0.16  HD
ATOM     31  C   ACE B   0      80.160 -25.750  59.093  1.00 14.04 LIG 0.21  C 
ATOM     32  CH3 ACE B   0      81.294 -26.240  59.941  1.00 14.78 LIG 0.12  C 
ATOM     33 O    ACE B   0      79.230 -26.477  58.745  1.00 15.52 LIG-0.27  OA
ENDBRANCH 27 29
ENDBRANCH 25 27
ENDBRANCH 16 20
ENDBRANCH 10 13
ENDBRANCH 8 9
BRANCH 8 34
ATOM     34  CB  LEU B   4      79.587 -19.231  50.297  1.00 12.59 LIG 0.04  C 
BRANCH 34 35
ATOM     35  CG  LEU B   4      79.630 -18.645  51.706  1.00 12.74 LIG-0.02  C 
ATOM     36  CD1 LEU B   4      80.518 -17.415  51.722  1.00 14.33 LIG 0.01  C 
ATOM     37  CD2 LEU B   4      78.242 -18.296  52.230  1.00 11.50 LIG 0.01  C 
ENDBRANCH 34 35
ENDBRANCH 8 34
ENDBRANCH 1 8
BRANCH 4 38
ATOM     38  C   PRO B   5      77.395 -19.977  45.985  1.00 12.26 LIG 0.24  C 
ATOM     39  N   PRO B   6      77.466 -20.248  44.686  1.00 14.33 LIG-0.34  N 
ATOM     40  CD  PRO B   6      77.250 -21.539  44.017  1.00 16.43 LIG 0.13  C 
ATOM     41  CA  PRO B   6      77.771 -19.178  43.734  1.00 15.63 LIG 0.18  C 
ATOM     42  CG  PRO B   6      77.906 -21.346  42.691  1.00 18.90 LIG 0.02  C 
ATOM     43  CB  PRO B   6      77.832 -19.902  42.383  1.00 17.20 LIG 0.04  C 
ATOM     44 O    PRO B   5      77.603 -18.832  46.415  1.00 12.24 LIG-0.27  OA
BRANCH 41 45
ATOM     45  C   PRO B   6      76.683 -18.116  43.719  1.00 14.54 LIG 0.24  C 
ATOM     46 O    PRO B   6      75.494 -18.403  43.878  1.00 15.72 LIG-0.27  OA
ATOM     47  N   ARG B   7      77.105 -16.878  43.506  1.00 15.59 LIG-0.35  N 
ATOM     48 H    ARG B   7      77.932 -16.662  43.409  1.00 15.59 LIG 0.16  HD
BRANCH 47 49
ATOM     49  CA  ARG B   7      76.174 -15.755  43.419  1.00 17.66 LIG 0.16  C 
BRANCH 49 50
ATOM     50  C   ARG B   7      75.500 -15.656  42.054  1.00 19.45 LIG 0.22  C 
ATOM     51 O    ARG B   7      75.968 -16.241  41.084  1.00 22.19 LIG-0.29  OA
ENDBRANCH 49 50
BRANCH 49 52
ATOM     52  CB  ARG B   7      76.901 -14.458  43.760  1.00 18.48 LIG 0.04  C 
BRANCH 52 53
ATOM     53  CG  ARG B   7      77.266 -14.379  45.226  1.00 19.62 LIG 0.02  C 
BRANCH 53 54
ATOM     54  CD  ARG B   7      77.860 -13.042  45.599  1.00 19.05 LIG 0.14  C 
BRANCH 54 55
ATOM     55  NE  ARG B   7      78.250 -13.032  47.003  1.00 16.94 LIG-0.23  N 
ATOM     56  CZ  ARG B   7      77.552 -12.471  47.987  1.00 14.04 LIG 0.67  C 
ATOM     57  NH1 ARG B   7      76.413 -11.840  47.746  1.00 13.87 LIG-0.23  N 
ATOM     58  NH2 ARG B   7      78.011 -12.531  49.224  1.00 14.07 LIG-0.23  N 
ATOM     59 2HH1 ARG B   7      75.974 -11.482  48.394  1.00 13.87 LIG 0.17  HD
ATOM     60 1HH1 ARG B   7      76.112 -11.789  46.943  1.00 13.87 LIG 0.17  HD
ATOM     61 1HH2 ARG B   7      78.755 -12.930  49.388  1.00 14.07 LIG 0.17  HD
ATOM     62 2HH2 ARG B   7      77.567 -12.171  49.865  1.00 14.07 LIG 0.17  HD
ATOM     63 HE   ARG B   7      78.989 -13.420  47.212  1.00 16.94 LIG 0.18  HD
ENDBRANCH 54 55
ENDBRANCH 53 54
ENDBRANCH 52 53
ENDBRANCH 49 52
ENDBRANCH 47 49
ENDBRANCH 41 45
ENDBRANCH 4 38
TORSDOF 16
