USER: ADFR SOLUTION from run 0
USER: SCORE 12.947695 LL:  -4.181 LR: -10.026 RR:   0.000 FEB:  -4.656
USER: RMSD 2.543770
USER: STATUS Locally minimized using BFGS
USER: GENES 20
USER: genes 0 Translation |==|  0.46639 0.54944 0.58391
USER: genes 1 Rotation |==|  0.48900 0.47520 0.47238 0.99850
USER: genes 2 Torsion [N]-C--CA-[N] |==|  0.43790
USER: genes 3 Torsion [C]-CA--CB-[CG] |==|  0.57353
USER: genes 4 Torsion [CA]-CB--CG-[CD1] |==|  0.40467
USER: genes 5 Torsion [C]-CA--N-[C] |==|  0.72359
USER: genes 6 Torsion [N]-C--CA-[CB] |==|  0.69101
USER: genes 7 Torsion [N]-C--CA-[N] |==|  0.37941
USER: genes 8 Torsion [C]-CA--CB-[CG] |==|  0.13700
USER: genes 9 Torsion [CA]-CB--CG-[CD1] |==|  0.21169
USER: genes 10 Torsion [C]-N--CA-[CB] |==|  0.46880
USER: genes 11 Torsion [N]-CA--CB-[CG] |==|  0.79732
USER: genes 12 Torsion [CA]-CB--CG-[OD1] |==|  0.96047
USER: genes 13 Torsion [N]-CA--C-[N] |==|  0.40000
USER: genes 14 Torsion [C]-N--CA-[C] |==|  0.70918
USER: genes 15 Torsion [N]-CA--CB-[CG] |==|  0.76122
USER: genes 16 Torsion [CA]-CB--CG-[CD1] |==|  0.46410
USER: genes 17 Torsion [N]-CA--C-[N] |==|  0.33759
USER: genes 18 Torsion [C]-N--CA-[CB] |==|  0.39657
USER: genes 19 Torsion [N]-CA--C-[OXT] |==|  0.39744
ROOT
ATOM      1  C   LEU B 341      28.135   5.300 -42.872  1.00 14.43 LIG 0.24  C 
ATOM      2 O    LEU B 341      27.076   4.699 -42.694  1.00 17.21 LIG-0.27  OA
ATOM      3  N   ASP B 342      29.308   4.690 -42.941  1.00 15.70 LIG-0.35  N 
ATOM      4 H    ASP B 342      30.044   5.075 -43.162  1.00 15.70 LIG 0.16  HD
ENDROOT
BRANCH 1 5
ATOM      5  CA  LEU B 341      28.189   6.820 -43.017  1.00 14.64 LIG 0.18  C 
BRANCH 5 6
ATOM      6  CB  LEU B 341      28.527   7.434 -41.656  1.00 15.72 LIG 0.04  C 
BRANCH 6 7
ATOM      7  CG  LEU B 341      28.012   8.851 -41.479  1.00 16.60 LIG-0.02  C 
ATOM      8  CD1 LEU B 341      27.615   9.059 -40.035  1.00 17.44 LIG 0.01  C 
ATOM      9  CD2 LEU B 341      29.033   9.888 -41.946  1.00 18.85 LIG 0.01  C 
ENDBRANCH 6 7
ENDBRANCH 5 6
BRANCH 5 10
ATOM     10  N   LEU B 341      26.918   7.394 -43.451  1.00 16.77 LIG-0.35  N 
ATOM     11  C   PRO B 340      26.718   7.720 -44.723  1.00 19.25 LIG 0.24  C 
ATOM     12 O    PRO B 340      27.519   7.487 -45.635  1.00 21.28 LIG-0.27  OA
ATOM     13 H    LEU B 341      26.336   7.495 -42.826  1.00 16.77 LIG 0.16  HD
BRANCH 11 14
ATOM     14  CA  PRO B 340      25.376   8.354 -45.007  1.00 21.04 LIG 0.18  C 
ATOM     15  N   PRO B 340      25.442   9.552 -45.879  1.00 20.95 LIG-0.34  N 
ATOM     16  CD  PRO B 340      24.555   9.430 -47.049  1.00 22.76 LIG 0.13  C 
ATOM     17  C   PHE B 339      26.105  10.629 -45.464  1.00 19.72 LIG 0.26  C 
ATOM     18  CG  PRO B 340      23.702   8.242 -46.655  1.00 24.91 LIG 0.02  C 
ATOM     19  CB  PRO B 340      24.559   7.377 -45.829  1.00 23.27 LIG 0.04  C 
ATOM     20 O    PHE B 339      26.756  10.612 -44.410  1.00 19.38 LIG-0.27  OA
BRANCH 17 21
ATOM     21  CA  PHE B 339      26.022  11.886 -46.329  1.00 21.94 LIG 0.40  C 
ATOM     22  N   PHE B 339      25.824  13.078 -45.518  1.00 23.90 LIG 0.61  N 
BRANCH 21 23
ATOM     23  CB  PHE B 339      27.294  12.040 -47.153  1.00 24.29 LIG 0.09  C 
BRANCH 23 24
ATOM     24  CG  PHE B 339      27.699  10.796 -47.890  1.00 28.97 LIG-0.06  A 
ATOM     25  CD1 PHE B 339      27.030  10.405 -49.048  1.00 31.92 LIG 0.01  A 
ATOM     26  CE1 PHE B 339      27.403   9.256 -49.734  1.00 33.96 LIG 0.00  A 
ATOM     27  CZ  PHE B 339      28.470   8.493 -49.269  1.00 35.90 LIG 0.00  A 
ATOM     28  CE2 PHE B 339      29.154   8.879 -48.114  1.00 35.56 LIG 0.00  A 
ATOM     29  CD2 PHE B 339      28.763  10.029 -47.434  1.00 33.37 LIG 0.01  A 
ENDBRANCH 23 24
ENDBRANCH 21 23
ENDBRANCH 17 21
ENDBRANCH 11 14
ENDBRANCH 5 10
ENDBRANCH 1 5
BRANCH 3 30
ATOM     30  CA  ASP B 342      29.429   3.268 -42.633  1.00 16.21 LIG 0.19  C 
BRANCH 30 31
ATOM     31  CB  ASP B 342      30.799   2.773 -43.055  1.00 18.68 LIG 0.15  C 
BRANCH 31 32
ATOM     32  CG  ASP B 342      30.969   2.646 -44.524  1.00 22.92 LIG 0.17  C 
ATOM     33 OD1  ASP B 342      29.970   2.676 -45.291  1.00 25.81 LIG-0.65  OA
ATOM     34 OD2  ASP B 342      32.150   2.514 -44.899  1.00 25.94 LIG-0.65  OA
ENDBRANCH 31 32
ENDBRANCH 30 31
BRANCH 30 35
ATOM     35  C   ASP B 342      29.330   3.006 -41.125  1.00 16.03 LIG 0.24  C 
ATOM     36  N   LEU B 343      28.702   1.877 -40.773  1.00 16.72 LIG-0.35  N 
ATOM     37 H    LEU B 343      28.192   1.436 -41.306  1.00 16.72 LIG 0.16  HD
ATOM     38 O    ASP B 342      29.893   3.746 -40.324  1.00 14.87 LIG-0.27  OA
BRANCH 36 39
ATOM     39  CA  LEU B 343      28.823   1.280 -39.437  1.00 16.14 LIG 0.18  C 
BRANCH 39 40
ATOM     40  CB  LEU B 343      27.468   0.860 -38.880  1.00 19.18 LIG 0.04  C 
BRANCH 40 41
ATOM     41  CG  LEU B 343      26.703   1.981 -38.151  1.00 20.67 LIG-0.02  C 
ATOM     42  CD1 LEU B 343      25.247   1.532 -37.929  1.00 23.87 LIG 0.01  C 
ATOM     43  CD2 LEU B 343      27.370   2.311 -36.826  1.00 22.92 LIG 0.01  C 
ENDBRANCH 40 41
ENDBRANCH 39 40
BRANCH 39 44
ATOM     44  C   LEU B 343      29.738   0.052 -39.494  1.00 14.33 LIG 0.24  C 
ATOM     45 O    LEU B 343      29.473  -0.919 -40.225  1.00 16.10 LIG-0.27  OA
ATOM     46  N   ALA B 344      30.800   0.086 -38.721  1.00 14.89 LIG-0.34  N 
ATOM     47 H    ALA B 344      31.043   0.767 -38.258  1.00 14.89 LIG 0.16  HD
BRANCH 46 48
ATOM     48  CA  ALA B 344      31.674  -1.094 -38.598  1.00 15.57 LIG 0.18  C 
ATOM     49  CB  ALA B 344      33.111  -0.678 -38.499  1.00 18.12 LIG 0.04  C 
BRANCH 48 50
ATOM     50  C   ALA B 344      31.298  -1.883 -37.349  1.00 15.03 LIG 0.20  C 
ATOM     51 OXT  ALA B 344      31.335  -3.122 -37.342  1.00 16.10 LIG-0.65  OA
ATOM     52 O    ALA B 344      31.026  -1.212 -36.317  1.00 15.80 LIG-0.65  OA
ENDBRANCH 48 50
ENDBRANCH 46 48
ENDBRANCH 39 44
ENDBRANCH 36 39
ENDBRANCH 30 35
ENDBRANCH 3 30
TORSDOF 18
