USER: ADFR SOLUTION from run 0
USER: SCORE 19.605404 LL:  -4.081 LR: -16.301 RR:   0.000 FEB:  -8.545
USER: RMSD 0.227771
USER: STATUS Locally minimized using BFGS
USER: GENES 28
USER: genes 0 Translation |==|  0.44770 0.51960 0.47262
USER: genes 1 Rotation |==|  0.49432 0.50095 0.49633 0.99995
USER: genes 2 Torsion [N]-C--CA-[N] |==|  0.39130
USER: genes 3 Torsion [C]-CA--N-[C] |==|  0.61125
USER: genes 4 Torsion [N]-C--CA-[N] |==|  0.45183
USER: genes 5 Torsion [C]-CA--CB-[CG] |==|  0.47702
USER: genes 6 Torsion [CA]-CB--CG-[CD] |==|  0.50627
USER: genes 7 Torsion [CB]-CG--CD-[OE1] |==|  0.00069
USER: genes 8 Torsion [C]-CA--N-[C] |==|  0.68859
USER: genes 9 Torsion [N]-C--CA-[N] |==|  0.34525
USER: genes 10 Torsion [C]-CA--CB-[CG2] |==|  0.17132
USER: genes 11 Torsion [CA]-CB--CG1-[CD1] |==|  0.82581
USER: genes 12 Torsion [C]-CA--N-[C] |==|  0.74864
USER: genes 13 Torsion [C]-CA--CB-[OG] |==|  0.87838
USER: genes 14 Torsion [CA]-CB--OG-[HG] |==|  0.55619
USER: genes 15 Torsion [C]-N--CA-[C] |==|  0.60556
USER: genes 16 Torsion [N]-CA--CB-[CG2] |==|  0.50709
USER: genes 17 Torsion [CA]-CB--OG1-[HG1] |==|  0.26817
USER: genes 18 Torsion [N]-CA--C-[N] |==|  0.36819
USER: genes 19 Torsion [C]-N--CA-[C] |==|  0.78189
USER: genes 20 Torsion [N]-CA--CB-[CG] |==|  0.52328
USER: genes 21 Torsion [CA]-CB--CG-[CD] |==|  0.50478
USER: genes 22 Torsion [CB]-CG--CD-[OE1] |==|  0.92545
USER: genes 23 Torsion [N]-CA--C-[N] |==|  0.36261
USER: genes 24 Torsion [C]-N--CA-[CB] |==|  0.33605
USER: genes 25 Torsion [N]-CA--CB-[CG2] |==|  0.49628
USER: genes 26 Torsion [CA]-CB--CG1-[CD1] |==|  0.79946
USER: genes 27 Torsion [N]-CA--C-[OXT] |==|  0.91085
ROOT
ATOM      1  C   SER B 700     -21.868 -15.949   0.447  1.00 12.42 LIG 0.24  C 
ATOM      2 O    SER B 700     -22.922 -15.348   0.662  1.00 14.21 LIG-0.27  OA
ATOM      3  N   THR B 701     -20.679 -15.526   0.879  1.00 11.45 LIG-0.34  N 
ATOM      4 H    THR B 701     -19.934 -15.918   0.699  1.00 11.45 LIG 0.16  HD
ENDROOT
BRANCH 1 5
ATOM      5  CA  SER B 700     -21.870 -17.277  -0.294  1.00 12.28 LIG 0.20  C 
BRANCH 5 6
ATOM      6  N   SER B 700     -23.048 -18.043   0.087  1.00 11.50 LIG-0.34  N 
ATOM      7 H    SER B 700     -23.769 -17.583   0.170  1.00 11.50 LIG 0.16  HD
ATOM      8  C   GLU B 699     -22.966 -19.357   0.281  1.00 10.99 LIG 0.24  C 
ATOM      9 O    GLU B 699     -21.932 -19.994   0.092  1.00 12.44 LIG-0.27  OA
BRANCH 8 10
ATOM     10  CA  GLU B 699     -24.228 -20.042   0.772  1.00 11.42 LIG 0.18  C 
BRANCH 10 11
ATOM     11  CB  GLU B 699     -24.395 -19.731   2.264  1.00 13.76 LIG 0.04  C 
BRANCH 11 12
ATOM     12  CG  GLU B 699     -25.730 -20.195   2.835  1.00 17.93 LIG 0.12  C 
BRANCH 12 13
ATOM     13  CD  GLU B 699     -25.937 -19.845   4.308  1.00 21.63 LIG 0.17  C 
ATOM     14 OE2  GLU B 699     -26.989 -20.205   4.841  1.00 23.04 LIG-0.65  OA
ATOM     15 OE1  GLU B 699     -25.070 -19.232   4.949  1.00 23.73 LIG-0.65  OA
ENDBRANCH 12 13
ENDBRANCH 11 12
ENDBRANCH 10 11
BRANCH 10 16
ATOM     16  N   GLU B 699     -24.120 -21.478   0.546  1.00 10.55 LIG-0.35  N 
ATOM     17  C   ILE B 698     -24.870 -22.149  -0.335  1.00 10.83 LIG 0.24  C 
ATOM     18 O    ILE B 698     -25.683 -21.608  -1.084  1.00 12.04 LIG-0.27  OA
ATOM     19 H    GLU B 699     -23.524 -21.857   1.036  1.00 10.55 LIG 0.16  HD
BRANCH 17 20
ATOM     20  CA  ILE B 698     -24.662 -23.639  -0.411  1.00 12.48 LIG 0.18  C 
BRANCH 20 21
ATOM     21  CB  ILE B 698     -24.094 -24.026  -1.791  1.00 12.07 LIG 0.01  C 
ATOM     22  CG2 ILE B 698     -22.739 -23.372  -2.021  1.00 12.44 LIG 0.01  C 
BRANCH 21 23
ATOM     23  CG1 ILE B 698     -23.990 -25.550  -1.941  1.00 16.16 LIG 0.00  C 
ATOM     24  CD1 ILE B 698     -23.065 -26.236  -0.987  1.00 20.65 LIG 0.01  C 
ENDBRANCH 21 23
ENDBRANCH 20 21
BRANCH 20 25
ATOM     25  N   ILE B 698     -25.945 -24.297  -0.190  1.00 11.32 LIG-0.35  N 
ATOM     26 H    ILE B 698     -26.395 -24.428  -0.911  1.00 11.32 LIG 0.16  HD
ATOM     27  C   ACE B 697     -26.377 -24.661   1.015  1.00 12.73 LIG 0.21  C 
ATOM     28  CH3 ACE B 697     -27.728 -25.341   1.080  1.00 14.28 LIG 0.12  C 
ATOM     29 O    ACE B 697     -25.712 -24.436   2.028  1.00 13.22 LIG-0.27  OA
ENDBRANCH 20 25
ENDBRANCH 17 20
ENDBRANCH 10 16
ENDBRANCH 8 10
ENDBRANCH 5 6
BRANCH 5 30
ATOM     30  CB  SER B 700     -21.753 -17.089  -1.810  1.00 19.95 LIG 0.20  C 
BRANCH 30 31
ATOM     31 OG   SER B 700     -22.574 -16.064  -2.274  1.00 23.61 LIG-0.40  OA
ATOM     32 HG   SER B 700     -22.704 -16.160  -3.098  1.00 23.61 LIG 0.21  HD
ENDBRANCH 30 31
ENDBRANCH 5 30
ENDBRANCH 1 5
BRANCH 3 33
ATOM     33  CA  THR B 701     -20.550 -14.343   1.708  1.00 11.25 LIG 0.20  C 
BRANCH 33 34
ATOM     34  CB  THR B 701     -20.420 -14.754   3.180  1.00 12.39 LIG 0.15  C 
ATOM     35  CG2 THR B 701     -20.349 -13.519   4.059  1.00 12.07 LIG 0.04  C 
BRANCH 34 36
ATOM     36 OG1  THR B 701     -21.539 -15.555   3.590  1.00 13.39 LIG-0.39  OA
ATOM     37 HG1  THR B 701     -21.337 -16.368   3.538  1.00 13.39 LIG 0.21  HD
ENDBRANCH 34 36
ENDBRANCH 33 34
BRANCH 33 38
ATOM     38  C   THR B 701     -19.299 -13.566   1.315  1.00 11.24 LIG 0.24  C 
ATOM     39 O    THR B 701     -18.229 -14.156   1.190  1.00 11.69 LIG-0.27  OA
ATOM     40  N   GLU B 702     -19.419 -12.249   1.138  1.00 12.56 LIG-0.35  N 
ATOM     41 H    GLU B 702     -20.166 -11.825   1.169  1.00 12.56 LIG 0.16  HD
BRANCH 40 42
ATOM     42  CA  GLU B 702     -18.257 -11.410   0.872  1.00 14.77 LIG 0.18  C 
BRANCH 42 43
ATOM     43  CB  GLU B 702     -18.687 -10.087   0.244  1.00 19.79 LIG 0.04  C 
BRANCH 43 44
ATOM     44  CG  GLU B 702     -17.505  -9.233  -0.253  1.00 26.45 LIG 0.12  C 
BRANCH 44 45
ATOM     45  CD  GLU B 702     -17.934  -7.901  -0.839  1.00 32.08 LIG 0.17  C 
ATOM     46 OE1  GLU B 702     -19.087  -7.805  -1.342  1.00 34.05 LIG-0.65  OA
ATOM     47 OE2  GLU B 702     -17.124  -6.940  -0.792  1.00 34.63 LIG-0.65  OA
ENDBRANCH 44 45
ENDBRANCH 43 44
ENDBRANCH 42 43
BRANCH 42 48
ATOM     48  C   GLU B 702     -17.503 -11.138   2.166  1.00 15.13 LIG 0.24  C 
ATOM     49 O    GLU B 702     -18.098 -10.744   3.173  1.00 15.63 LIG-0.27  OA
ATOM     50  N   ILE B 703     -16.201 -11.354   2.119  1.00 14.66 LIG-0.34  N 
ATOM     51 H    ILE B 703     -15.798 -11.566   1.389  1.00 14.66 LIG 0.16  HD
BRANCH 50 52
ATOM     52  CA  ILE B 703     -15.295 -11.264   3.257  1.00 17.51 LIG 0.19  C 
BRANCH 52 53
ATOM     53  CB  ILE B 703     -14.587 -12.634   3.461  1.00 19.83 LIG 0.01  C 
ATOM     54  CG2 ILE B 703     -13.610 -12.564   4.621  1.00 22.74 LIG 0.01  C 
BRANCH 53 55
ATOM     55  CG1 ILE B 703     -15.596 -13.782   3.603  1.00 21.87 LIG 0.00  C 
ATOM     56  CD1 ILE B 703     -16.341 -13.816   4.875  1.00 23.51 LIG 0.01  C 
ENDBRANCH 53 55
ENDBRANCH 52 53
BRANCH 52 57
ATOM     57  C   ILE B 703     -14.224 -10.205   2.993  1.00 19.18 LIG 0.20  C 
ATOM     58 OXT  ILE B 703     -13.824 -10.005   1.818  1.00 18.49 LIG-0.65  OA
ATOM     59 O    ILE B 703     -13.695  -9.578   3.932  1.00 21.53 LIG-0.65  OA
ENDBRANCH 52 57
ENDBRANCH 50 52
ENDBRANCH 42 48
ENDBRANCH 40 42
ENDBRANCH 33 38
ENDBRANCH 3 33
TORSDOF 26
