USER: ADFR SOLUTION from run 0
USER: SCORE 15.274986 LL:  -5.608 LR: -13.069 RR:   0.000 FEB:  -5.611
USER: RMSD 0.206746
USER: STATUS Locally minimized using BFGS
USER: GENES 27
USER: genes 0 Translation |==|  0.50812 0.35458 0.73369
USER: genes 1 Rotation |==|  0.50540 0.49891 0.50433 0.99995
USER: genes 2 Torsion [N]-C--CA-[N] |==|  0.00654
USER: genes 3 Torsion [C]-CA--N-[C] |==|  0.77391
USER: genes 4 Torsion [N]-C--CA-[N] |==|  0.92013
USER: genes 5 Torsion [C]-CA--CB-[CG] |==|  0.18209
USER: genes 6 Torsion [CA]-CB--CG-[CD] |==|  0.50481
USER: genes 7 Torsion [CB]-CG--CD-[NE] |==|  0.82879
USER: genes 8 Torsion [CG]-CD--NE-[HE] |==|  0.24293
USER: genes 9 Torsion [C]-CA--N-[C] |==|  0.82825
USER: genes 10 Torsion [N]-C--CA-[N] |==|  0.91594
USER: genes 11 Torsion [C]-CA--N-[C] |==|  0.83371
USER: genes 12 Torsion [C]-CA--CB-[CG2] |==|  0.49969
USER: genes 13 Torsion [CA]-CB--OG1-[HG1] |==|  0.83863
USER: genes 14 Torsion [C]-N--CA-[CB] |==|  0.33008
USER: genes 15 Torsion [N]-CA--CB-[CG] |==|  0.81554
USER: genes 16 Torsion [CA]-CB--CG-[CD] |==|  0.80463
USER: genes 17 Torsion [CB]-CG--CD-[OE2] |==|  0.41130
USER: genes 18 Torsion [N]-CA--C-[N] |==|  0.44420
USER: genes 19 Torsion [C]-N--CA-[CB] |==|  0.41954
USER: genes 20 Torsion [N]-CA--C-[N] |==|  0.33333
USER: genes 21 Torsion [C]-N--CA-[C] |==|  0.80399
USER: genes 22 Torsion [N]-CA--C-[N] |==|  0.34731
USER: genes 23 Torsion [N]-CA--CB-[CG] |==|  0.48716
USER: genes 24 Torsion [CA]-CB--CG-[CD1] |==|  0.15585
USER: genes 25 Torsion [CE1]-CZ--OH-[HH] |==|  0.45577
USER: genes 26 Torsion [N]-CA--CB-[CG1] |==|  0.49885
ROOT
ATOM      1  C   THR D   3       4.417   0.516   0.378  1.00 23.43 LIG 0.24  C 
ATOM      2 O    THR D   3       4.777  -0.504   0.965  1.00 24.39 LIG-0.27  OA
ATOM      3  N   GLU D   4       4.363   0.608  -0.948  1.00 25.01 LIG-0.35  N 
ATOM      4 H    GLU D   4       4.088   1.307  -1.366  1.00 25.01 LIG 0.16  HD
ENDROOT
BRANCH 1 5
ATOM      5  CA  THR D   3       4.006   1.763   1.164  1.00 20.85 LIG 0.20  C 
BRANCH 5 6
ATOM      6  N   THR D   3       3.563   2.849   0.298  1.00 20.16 LIG-0.34  N 
ATOM      7 H    THR D   3       2.708   2.915   0.223  1.00 20.16 LIG 0.16  HD
ATOM      8  C   ARG D   2       4.423   3.657  -0.312  1.00 20.73 LIG 0.24  C 
ATOM      9 O    ARG D   2       5.646   3.519  -0.238  1.00 19.88 LIG-0.27  OA
BRANCH 8 10
ATOM     10  CA  ARG D   2       3.813   4.774  -1.151  1.00 21.07 LIG 0.18  C 
BRANCH 10 11
ATOM     11  CB  ARG D   2       3.727   6.073  -0.338  1.00 18.72 LIG 0.04  C 
BRANCH 11 12
ATOM     12  CG  ARG D   2       5.090   6.660   0.043  1.00 17.25 LIG 0.02  C 
BRANCH 12 13
ATOM     13  CD  ARG D   2       4.948   7.926   0.886  1.00 15.57 LIG 0.14  C 
BRANCH 13 14
ATOM     14  NE  ARG D   2       4.251   8.991   0.173  1.00 16.78 LIG-0.23  N 
ATOM     15 HE   ARG D   2       3.392   9.011   0.219  1.00 16.78 LIG 0.18  HD
ATOM     16  CZ  ARG D   2       4.858   9.934  -0.543  1.00 18.57 LIG 0.67  C 
ATOM     17  NH2 ARG D   2       4.142  10.865  -1.161  1.00 17.94 LIG-0.23  N 
ATOM     18  NH1 ARG D   2       6.181   9.950  -0.638  1.00 16.85 LIG-0.23  N 
ATOM     19 1HH2 ARG D   2       3.284  10.860  -1.098  1.00 17.94 LIG 0.17  HD
ATOM     20 2HH2 ARG D   2       4.535  11.474  -1.623  1.00 17.94 LIG 0.17  HD
ATOM     21 2HH1 ARG D   2       6.572  10.561  -1.101  1.00 16.85 LIG 0.17  HD
ATOM     22 1HH1 ARG D   2       6.648   9.351  -0.237  1.00 16.85 LIG 0.17  HD
ENDBRANCH 13 14
ENDBRANCH 12 13
ENDBRANCH 11 12
ENDBRANCH 10 11
BRANCH 10 23
ATOM     23  N   ARG D   2       2.503   4.400  -1.684  1.00 21.51 LIG-0.35  N 
ATOM     24  C   ALA D   1       2.366   3.370  -2.513  1.00 21.30 LIG 0.24  C 
ATOM     25 O    ALA D   1       3.306   2.643  -2.826  1.00 21.16 LIG-0.27  OA
ATOM     26 H    ARG D   2       1.853   4.895  -1.416  1.00 21.51 LIG 0.16  HD
BRANCH 24 27
ATOM     27  CA  ALA D   1       0.966   3.107  -3.067  1.00 21.78 LIG 0.17  C 
ATOM     28  CB  ALA D   1       0.789   3.798  -4.410  1.00 21.47 LIG 0.04  C 
BRANCH 27 29
ATOM     29  N   ALA D   1      -0.090   3.514  -2.143  1.00 22.15 LIG-0.35  N 
ATOM     30 H    ALA D   1      -0.619   4.112  -2.464  1.00 22.15 LIG 0.16  HD
ATOM     31  C   ACE D   0      -0.224   3.009  -0.919  1.00 22.99 LIG 0.21  C 
ATOM     32 O    ACE D   0       0.684   2.469  -0.283  1.00 24.10 LIG-0.27  OA
ATOM     33  CH3 ACE D   0      -1.471   3.519  -0.260  1.00 21.14 LIG 0.12  C 
ENDBRANCH 27 29
ENDBRANCH 24 27
ENDBRANCH 10 23
ENDBRANCH 8 10
ENDBRANCH 5 6
BRANCH 5 34
ATOM     34  CB  THR D   3       2.919   1.399   2.193  1.00 19.16 LIG 0.15  C 
ATOM     35  CG2 THR D   3       2.509   2.633   2.979  1.00 17.08 LIG 0.04  C 
BRANCH 34 36
ATOM     36 OG1  THR D   3       1.771   0.870   1.515  1.00 20.38 LIG-0.39  OA
ATOM     37 HG1  THR D   3       1.485   1.437   0.965  1.00 20.38 LIG 0.21  HD
ENDBRANCH 34 36
ENDBRANCH 5 34
ENDBRANCH 1 5
BRANCH 3 38
ATOM     38  CA  GLU D   4       4.772  -0.488  -1.823  1.00 28.82 LIG 0.18  C 
BRANCH 38 39
ATOM     39  CB  GLU D   4       3.594  -0.959  -2.682  1.00 31.32 LIG 0.04  C 
BRANCH 39 40
ATOM     40  CG  GLU D   4       2.464  -1.609  -1.900  1.00 34.96 LIG 0.12  C 
BRANCH 40 41
ATOM     41  CD  GLU D   4       2.847  -2.967  -1.346  1.00 38.68 LIG 0.17  C 
ATOM     42 OE2  GLU D   4       2.342  -3.335  -0.265  1.00 39.24 LIG-0.65  OA
ATOM     43 OE1  GLU D   4       3.657  -3.666  -1.990  1.00 40.65 LIG-0.65  OA
ENDBRANCH 40 41
ENDBRANCH 39 40
ENDBRANCH 38 39
BRANCH 38 44
ATOM     44  C   GLU D   4       5.915  -0.043  -2.731  1.00 29.37 LIG 0.24  C 
ATOM     45  N   VAL D   5       6.654  -1.008  -3.271  1.00 31.15 LIG-0.35  N 
ATOM     46 H    VAL D   5       6.538  -1.846  -3.116  1.00 31.15 LIG 0.16  HD
ATOM     47 O    GLU D   4       6.116   1.153  -2.943  1.00 28.00 LIG-0.27  OA
BRANCH 45 48
ATOM     48  CA  VAL D   5       7.747  -0.712  -4.194  1.00 31.02 LIG 0.18  C 
BRANCH 48 49
ATOM     49  C   VAL D   5       7.267  -0.622  -5.640  1.00 31.80 LIG 0.24  C 
ATOM     50  N   TYR D   6       7.466   0.539  -6.257  1.00 29.63 LIG-0.35  N 
ATOM     51 H    TYR D   6       7.792   1.236  -5.870  1.00 29.63 LIG 0.16  HD
ATOM     52 O    VAL D   5       6.735  -1.590  -6.185  1.00 32.83 LIG-0.27  OA
BRANCH 50 53
ATOM     53  CA  TYR D   6       7.143   0.733  -7.664  1.00 30.54 LIG 0.18  C 
BRANCH 53 54
ATOM     54  C   TYR D   6       8.126  -0.045  -8.532  1.00 31.23 LIG 0.28  C 
ATOM     55  N   NH2 D   7       7.594  -0.899  -9.400  1.00 33.55 LIG-0.11  N 
ATOM     56 O    TYR D   6       9.340   0.118  -8.408  1.00 28.81 LIG-0.27  OA
ENDBRANCH 53 54
BRANCH 53 57
ATOM     57  CB  TYR D   6       7.175   2.224  -8.016  1.00 30.33 LIG 0.07  C 
BRANCH 57 58
ATOM     58  CG  TYR D   6       6.962   2.540  -9.485  1.00 31.81 LIG-0.06  A 
ATOM     59  CD1 TYR D   6       5.827   2.100 -10.155  1.00 31.47 LIG 0.01  A 
ATOM     60  CE1 TYR D   6       5.627   2.396 -11.490  1.00 32.87 LIG 0.04  A 
ATOM     61  CZ  TYR D   6       6.559   3.150 -12.169  1.00 33.71 LIG 0.07  A 
ATOM     62  CE2 TYR D   6       7.689   3.607 -11.525  1.00 32.90 LIG 0.04  A 
ATOM     63  CD2 TYR D   6       7.882   3.307 -10.188  1.00 31.58 LIG 0.01  A 
BRANCH 61 64
ATOM     64 OH   TYR D   6       6.362   3.446 -13.499  1.00 34.88 LIG-0.36  OA
ATOM     65 HH   TYR D   6       6.873   4.074 -13.725  1.00 34.88 LIG 0.22  HD
ENDBRANCH 61 64
ENDBRANCH 57 58
ENDBRANCH 53 57
ENDBRANCH 50 53
ENDBRANCH 48 49
BRANCH 48 66
ATOM     66  CB  VAL D   5       8.855  -1.781  -4.132  1.00 31.19 LIG 0.01  C 
ATOM     67  CG1 VAL D   5       9.970  -1.440  -5.116  1.00 32.10 LIG 0.01  C 
ATOM     68  CG2 VAL D   5       9.401  -1.906  -2.726  1.00 30.34 LIG 0.01  C 
ENDBRANCH 48 66
ENDBRANCH 45 48
ENDBRANCH 38 44
ENDBRANCH 3 38
TORSDOF 25
