USER: ADFR SOLUTION from run 0
USER: SCORE 16.785052 LL:  -3.750 LR: -14.144 RR:   0.000 FEB:  -9.073
USER: RMSD 0.628552
USER: STATUS Locally minimized using BFGS
USER: GENES 19
USER: genes 0 Translation |==|  0.49035 0.50418 0.53105
USER: genes 1 Rotation |==|  0.49911 0.48555 0.51284 0.99963
USER: genes 2 Torsion [C]-CA--CB-[CG] |==|  0.21262
USER: genes 3 Torsion [CA]-CB--CG-[CD] |==|  0.56618
USER: genes 4 Torsion [CB]-CG--CD-[NE] |==|  0.81728
USER: genes 5 Torsion [CG]-CD--NE-[CZ] |==|  0.41026
USER: genes 6 Torsion [N]-CA--C-[N] |==|  0.38947
USER: genes 7 Torsion [N]-CA--C-[O] |==|  0.92152
USER: genes 8 Torsion [C]-N--CA-[C] |==|  0.79665
USER: genes 9 Torsion [N]-CA--C-[N] |==|  0.42181
USER: genes 10 Torsion [N]-CA--C-[O] |==|  0.93423
USER: genes 11 Torsion [CB]-CA--N-[C] |==|  0.46111
USER: genes 12 Torsion [N]-C--CA-[N] |==|  0.43056
USER: genes 13 Torsion [C]-CA--CB-[OG1] |==|  0.81120
USER: genes 14 Torsion [CA]-CB--OG1-[HG1] |==|  0.49912
USER: genes 15 Torsion [C]-CA--N-[C] |==|  0.81954
USER: genes 16 Torsion [N]-C--CA-[N] |==|  0.18908
USER: genes 17 Torsion [C]-CA--CB-[CG] |==|  0.74360
USER: genes 18 Torsion [CA]-CB--CG-[OD1] |==|  0.04310
ROOT
ATOM      1  CA  ARG E   5     102.145 125.492   7.895  1.00 34.60 LIG 0.18  C 
ENDROOT
BRANCH 1 2
ATOM      2  CB  ARG E   5     101.226 124.281   7.947  1.00 32.17 LIG 0.04  C 
BRANCH 2 3
ATOM      3  CG  ARG E   5     100.966 123.722   6.574  1.00 30.87 LIG 0.02  C 
BRANCH 3 4
ATOM      4  CD  ARG E   5      99.683 122.955   6.542  1.00 28.77 LIG 0.14  C 
BRANCH 4 5
ATOM      5  NE  ARG E   5      99.771 121.765   7.379  1.00 27.14 LIG-0.23  N 
ATOM      6  CZ  ARG E   5      98.746 121.247   8.041  1.00 27.11 LIG 0.67  C 
ATOM      7  NH2 ARG E   5      98.915 120.160   8.786  1.00 28.81 LIG-0.23  N 
ATOM      8  NH1 ARG E   5      97.553 121.821   7.959  1.00 26.86 LIG-0.23  N 
ATOM      9 2HH2 ARG E   5      98.250 119.824   9.215  1.00 28.81 LIG 0.17  HD
ATOM     10 1HH2 ARG E   5      99.690 119.792   8.839  1.00 28.81 LIG 0.17  HD
ATOM     11 2HH1 ARG E   5      96.885 121.488   8.386  1.00 26.86 LIG 0.17  HD
ATOM     12 1HH1 ARG E   5      97.447 122.526   7.479  1.00 26.86 LIG 0.17  HD
ATOM     13 HE   ARG E   5     100.534 121.375   7.448  1.00 27.14 LIG 0.18  HD
ENDBRANCH 4 5
ENDBRANCH 3 4
ENDBRANCH 2 3
ENDBRANCH 1 2
BRANCH 1 14
ATOM     14  C   ARG E   5     101.370 126.716   7.415  1.00 36.20 LIG 0.24  C 
ATOM     15 O    ARG E   5     100.685 127.363   8.220  1.00 36.29 LIG-0.27  OA
ATOM     16  N   PRO E   6     101.440 127.065   6.132  1.00 37.19 LIG-0.34  N 
ATOM     17  CA  PRO E   6     100.709 128.242   5.659  1.00 38.47 LIG 0.18  C 
ATOM     18  CD  PRO E   6     102.208 126.448   5.040  1.00 36.10 LIG 0.13  C 
ATOM     19  CB  PRO E   6     101.189 128.400   4.211  1.00 37.25 LIG 0.04  C 
ATOM     20  CG  PRO E   6     102.446 127.603   4.128  1.00 36.76 LIG 0.02  C 
BRANCH 17 21
ATOM     21  C   PRO E   6      99.207 128.036   5.707  1.00 38.85 LIG 0.24  C 
ATOM     22 O    PRO E   6      98.699 126.916   5.598  1.00 38.06 LIG-0.27  OA
ATOM     23  N   ALA E   7      98.497 129.140   5.879  1.00 39.96 LIG-0.35  N 
ATOM     24 H    ALA E   7      98.830 129.920   6.023  1.00 39.96 LIG 0.16  HD
BRANCH 23 25
ATOM     25  CA  ALA E   7      97.053 129.087   5.830  1.00 39.26 LIG 0.17  C 
ATOM     26  CB  ALA E   7      96.451 130.365   6.405  1.00 41.08 LIG 0.04  C 
BRANCH 25 27
ATOM     27  C   ALA E   7      96.615 128.894   4.379  1.00 37.69 LIG 0.24  C 
ATOM     28 O    ALA E   7      97.322 129.296   3.453  1.00 38.21 LIG-0.27  OA
ATOM     29  N   PRO E   8      95.453 128.264   4.150  1.00 36.84 LIG-0.34  N 
ATOM     30  CD  PRO E   8      94.536 127.661   5.129  1.00 36.57 LIG 0.13  C 
ATOM     31  CA  PRO E   8      94.979 128.054   2.779  1.00 36.95 LIG 0.17  C 
ATOM     32  CG  PRO E   8      93.294 127.424   4.323  1.00 36.01 LIG 0.02  C 
ATOM     33  CB  PRO E   8      93.822 127.075   2.973  1.00 35.51 LIG 0.04  C 
BRANCH 31 34
ATOM     34  C   PRO E   8      94.511 129.333   2.098  1.00 39.03 LIG 0.22  C 
ATOM     35 O    PRO E   8      94.141 130.288   2.781  1.00 41.16 LIG-0.29  OA
ENDBRANCH 31 34
ENDBRANCH 25 27
ENDBRANCH 23 25
ENDBRANCH 17 21
ENDBRANCH 1 14
BRANCH 1 36
ATOM     36  N   ARG E   5     102.716 125.773   9.195  1.00 35.03 LIG-0.35  N 
ATOM     37 H    ARG E   5     102.340 125.368   9.854  1.00 35.03 LIG 0.16  HD
ATOM     38  C   THR E   4     103.740 126.600   9.305  1.00 36.29 LIG 0.24  C 
ATOM     39 O    THR E   4     104.238 127.184   8.338  1.00 35.32 LIG-0.27  OA
BRANCH 38 40
ATOM     40  CA  THR E   4     104.276 126.785  10.717  1.00 38.81 LIG 0.20  C 
BRANCH 40 41
ATOM     41  CB  THR E   4     103.439 127.819  11.459  1.00 37.77 LIG 0.15  C 
ATOM     42  CG2 THR E   4     103.836 127.845  12.912  1.00 32.08 LIG 0.04  C 
BRANCH 41 43
ATOM     43 OG1  THR E   4     103.645 129.110  10.875  1.00 38.27 LIG-0.39  OA
ATOM     44 HG1  THR E   4     103.181 129.680  11.282  1.00 38.27 LIG 0.21  HD
ENDBRANCH 41 43
ENDBRANCH 40 41
BRANCH 40 45
ATOM     45  N   THR E   4     105.669 127.191  10.677  1.00 43.44 LIG-0.34  N 
ATOM     46  C   ASP E   3     106.619 126.395  10.201  1.00 43.86 LIG 0.26  C 
ATOM     47 O    ASP E   3     106.431 125.204   9.934  1.00 40.64 LIG-0.27  OA
ATOM     48 H    THR E   4     105.816 127.981  10.985  1.00 43.44 LIG 0.16  HD
BRANCH 46 49
ATOM     49  CA  ASP E   3     107.991 127.041  10.034  1.00 46.95 LIG 0.41  C 
ATOM     50  N   ASP E   3     108.600 127.371  11.319  1.00 48.81 LIG 0.61  N 
BRANCH 49 51
ATOM     51  CB  ASP E   3     108.905 126.131   9.219  1.00 49.65 LIG 0.16  C 
BRANCH 51 52
ATOM     52  CG  ASP E   3     109.734 125.199  10.079  1.00 52.58 LIG 0.17  C 
ATOM     53 OD1  ASP E   3     109.407 125.037  11.276  1.00 53.20 LIG-0.65  OA
ATOM     54 OD2  ASP E   3     110.709 124.621   9.540  1.00 53.89 LIG-0.65  OA
ENDBRANCH 51 52
ENDBRANCH 49 51
ENDBRANCH 46 49
ENDBRANCH 40 45
ENDBRANCH 38 40
ENDBRANCH 1 36
TORSDOF 17
