USER: ADFR SOLUTION from run 0
USER: SCORE 11.336146 LL:  -2.135 LR: -10.481 RR:   0.000 FEB:  -6.006
USER: RMSD 0.846821
USER: STATUS Locally minimized using BFGS
USER: GENES 17
USER: genes 0 Translation |==|  0.43908 0.38670 0.48958
USER: genes 1 Rotation |==|  0.46644 0.50687 0.51490 0.99860
USER: genes 2 Torsion [C]-CA--CB-[CG] |==|  0.19548
USER: genes 3 Torsion [CA]-CB--CG-[CD2] |==|  0.21099
USER: genes 4 Torsion [CE2]-CZ--OH-[HH] |==|  0.99810
USER: genes 5 Torsion [N]-CA--C-[N] |==|  0.41111
USER: genes 6 Torsion [C]-N--CA-[C] |==|  0.60797
USER: genes 7 Torsion [N]-CA--C-[O] |==|  0.87594
USER: genes 8 Torsion [N]-CA--CB-[CG] |==|  0.58772
USER: genes 9 Torsion [CA]-CB--CG-[CD2] |==|  0.68739
USER: genes 10 Torsion [CE2]-CZ--OH-[HH] |==|  0.96848
USER: genes 11 Torsion [CB]-CA--N-[C] |==|  0.29674
USER: genes 12 Torsion [N]-C--CA-[N] |==|  0.98078
USER: genes 13 Torsion [C]-CA--CB-[CG] |==|  0.50933
USER: genes 14 Torsion [CA]-CB--CG-[CD1] |==|  0.30837
USER: genes 15 Torsion [CE1]-CZ--OH-[HH] |==|  0.87639
USER: genes 16 Torsion [C]-CA--N-[H1] |==|  0.47725
ROOT
ATOM      1  CA  TYR B   2      58.812 147.101   2.355  1.00 28.44 LIG 0.18  C 
ENDROOT
BRANCH 1 2
ATOM      2  CB  TYR B   2      59.061 146.316   3.649  1.00 30.17 LIG 0.07  C 
BRANCH 2 3
ATOM      3  CG  TYR B   2      57.838 145.640   4.249  1.00 31.12 LIG-0.06  A 
ATOM      4  CD2 TYR B   2      57.318 144.463   3.690  1.00 31.81 LIG 0.01  A 
ATOM      5  CE2 TYR B   2      56.202 143.837   4.241  1.00 33.15 LIG 0.04  A 
ATOM      6  CZ  TYR B   2      55.592 144.385   5.363  1.00 33.29 LIG 0.07  A 
ATOM      7  CE1 TYR B   2      56.089 145.553   5.945  1.00 33.06 LIG 0.04  A 
ATOM      8  CD1 TYR B   2      57.207 146.171   5.387  1.00 32.67 LIG 0.01  A 
BRANCH 6 9
ATOM      9 OH   TYR B   2      54.490 143.769   5.899  1.00 34.60 LIG-0.36  OA
ATOM     10 HH   TYR B   2      54.300 143.089   5.444  1.00 34.60 LIG 0.22  HD
ENDBRANCH 6 9
ENDBRANCH 2 3
ENDBRANCH 1 2
BRANCH 1 11
ATOM     11  C   TYR B   2      58.009 148.351   2.646  1.00 30.52 LIG 0.24  C 
ATOM     12  N   TYR B   3      56.689 148.215   2.554  1.00 32.89 LIG-0.35  N 
ATOM     13 H    TYR B   3      56.304 147.486   2.309  1.00 32.89 LIG 0.16  HD
ATOM     14 O    TYR B   2      58.573 149.410   2.941  1.00 30.24 LIG-0.27  OA
BRANCH 12 15
ATOM     15  CA  TYR B   3      55.763 149.297   2.861  1.00 36.06 LIG 0.17  C 
BRANCH 15 16
ATOM     16  C   TYR B   3      54.525 148.773   3.588  1.00 37.31 LIG 0.22  C 
ATOM     17 O    TYR B   3      53.953 147.751   3.199  1.00 39.71 LIG-0.29  OA
ENDBRANCH 15 16
BRANCH 15 18
ATOM     18  CB  TYR B   3      55.367 150.035   1.578  1.00 37.43 LIG 0.07  C 
BRANCH 18 19
ATOM     19  CG  TYR B   3      55.083 151.503   1.787  1.00 38.24 LIG-0.06  A 
ATOM     20  CD2 TYR B   3      53.788 152.015   1.632  1.00 38.70 LIG 0.01  A 
ATOM     21  CE2 TYR B   3      53.526 153.368   1.830  1.00 39.79 LIG 0.04  A 
ATOM     22  CZ  TYR B   3      54.566 154.222   2.182  1.00 40.15 LIG 0.07  A 
ATOM     23  CE1 TYR B   3      55.861 153.738   2.341  1.00 39.97 LIG 0.04  A 
ATOM     24  CD1 TYR B   3      56.112 152.388   2.144  1.00 39.23 LIG 0.01  A 
BRANCH 22 25
ATOM     25 OH   TYR B   3      54.330 155.563   2.380  1.00 40.04 LIG-0.36  OA
ATOM     26 HH   TYR B   3      53.559 155.755   2.107  1.00 40.04 LIG 0.22  HD
ENDBRANCH 22 25
ENDBRANCH 18 19
ENDBRANCH 15 18
ENDBRANCH 12 15
ENDBRANCH 1 11
BRANCH 1 27
ATOM     27  N   TYR B   2      60.081 147.479   1.756  1.00 25.33 LIG-0.35  N 
ATOM     28  C   TYR B   1      60.568 146.902   0.660  1.00 22.87 LIG 0.25  C 
ATOM     29 O    TYR B   1      59.949 146.065  -0.003  1.00 21.86 LIG-0.27  OA
ATOM     30 H    TYR B   2      60.487 148.110   2.175  1.00 25.33 LIG 0.16  HD
BRANCH 28 31
ATOM     31  CA  TYR B   1      61.969 147.347   0.247  1.00 21.88 LIG 0.28  C 
BRANCH 31 32
ATOM     32  CB  TYR B   1      62.931 146.161   0.343  1.00 21.24 LIG 0.08  C 
BRANCH 32 33
ATOM     33  CG  TYR B   1      64.371 146.491   0.035  1.00 20.81 LIG-0.06  A 
ATOM     34  CD1 TYR B   1      65.345 146.468   1.044  1.00 20.37 LIG 0.01  A 
ATOM     35  CE1 TYR B   1      66.673 146.770   0.762  1.00 19.95 LIG 0.04  A 
ATOM     36  CZ  TYR B   1      67.035 147.101  -0.545  1.00 20.32 LIG 0.07  A 
ATOM     37  CE2 TYR B   1      66.087 147.129  -1.559  1.00 20.63 LIG 0.04  A 
ATOM     38  CD2 TYR B   1      64.765 146.827  -1.267  1.00 20.57 LIG 0.01  A 
BRANCH 36 39
ATOM     39 OH   TYR B   1      68.339 147.400  -0.856  1.00 20.56 LIG-0.36  OA
ATOM     40 HH   TYR B   1      68.656 147.914  -0.272  1.00 20.56 LIG 0.22  HD
ENDBRANCH 36 39
ENDBRANCH 32 33
ENDBRANCH 31 32
BRANCH 31 41
ATOM     41  N   TYR B   1      62.464 148.486   1.080  1.00 21.11 LIG-0.07  N 
ATOM     42 H2   TYR B   1      61.986 149.215   0.901  1.00 21.11 LIG 0.28  HD
ATOM     43 H1   TYR B   1      63.321 148.640   0.894  1.00 21.11 LIG 0.28  HD
ATOM     44 H3   TYR B   1      62.380 148.282   1.943  1.00 21.11 LIG 0.28  HD
ENDBRANCH 31 41
ENDBRANCH 28 31
ENDBRANCH 1 27
TORSDOF 15
