USER: ADFR SOLUTION from run 0
USER: SCORE 12.753014 LL:  -2.829 LR: -11.121 RR:   0.000 FEB:  -6.647
USER: RMSD 0.192427
USER: STATUS Locally minimized using BFGS
USER: GENES 17
USER: genes 0 Translation |==|  0.45204 0.38827 0.42898
USER: genes 1 Rotation |==|  0.49426 0.50199 0.50189 0.99996
USER: genes 2 Torsion [N]-C--CA-[N] |==|  0.93334
USER: genes 3 Torsion [C]-CA--CB-[OG] |==|  0.84938
USER: genes 4 Torsion [CA]-CB--OG-[HG] |==|  0.33060
USER: genes 5 Torsion [C]-CA--N-[C] |==|  0.79333
USER: genes 6 Torsion [N]-C--CA-[N] |==|  0.39212
USER: genes 7 Torsion [C]-CA--N-[C] |==|  0.81405
USER: genes 8 Torsion [N]-C--CA-[N] |==|  0.15961
USER: genes 9 Torsion [C]-CA--CB-[CG] |==|  0.15794
USER: genes 10 Torsion [CA]-CB--CG-[ND2] |==|  0.59259
USER: genes 11 Torsion [C]-N--CA-[CB] |==|  0.21447
USER: genes 12 Torsion [N]-CA--C-[N] |==|  0.41111
USER: genes 13 Torsion [N]-CA--C-[N] |==|  0.21016
USER: genes 14 Torsion [C]-N--CA-[C] |==|  0.78645
USER: genes 15 Torsion [N]-CA--C-[O] |==|  0.38355
USER: genes 16 Torsion [N]-CA--CB-[CG2] |==|  0.82175
ROOT
ATOM      1  C   SER E1029      80.782  -5.412 162.231  1.00 13.48 LIG 0.24  C 
ATOM      2 O    SER E1029      79.967  -6.014 161.553  1.00 12.15 LIG-0.27  OA
ATOM      3  N   ALA E1030      80.425  -4.550 163.201  1.00 12.52 LIG-0.35  N 
ATOM      4 H    ALA E1030      80.980  -4.065 163.643  1.00 12.52 LIG 0.16  HD
ENDROOT
BRANCH 1 5
ATOM      5  CA  SER E1029      82.264  -5.584 161.997  1.00 13.36 LIG 0.20  C 
BRANCH 5 6
ATOM      6  CB  SER E1029      82.766  -6.802 162.762  1.00 14.53 LIG 0.20  C 
BRANCH 6 7
ATOM      7 OG   SER E1029      82.403  -6.678 164.143  1.00 16.05 LIG-0.40  OA
ATOM      8 HG   SER E1029      81.903  -7.317 164.360  1.00 16.05 LIG 0.21  HD
ENDBRANCH 6 7
ENDBRANCH 5 6
BRANCH 5 9
ATOM      9  N   SER E1029      83.001  -4.406 162.453  1.00 13.57 LIG-0.34  N 
ATOM     10 H    SER E1029      83.434  -4.518 163.188  1.00 13.57 LIG 0.16  HD
ATOM     11  C   ALA E1028      82.982  -3.266 161.761  1.00 13.26 LIG 0.24  C 
ATOM     12 O    ALA E1028      82.244  -3.073 160.818  1.00 11.29 LIG-0.27  OA
BRANCH 11 13
ATOM     13  CA  ALA E1028      83.962  -2.178 162.210  1.00 14.25 LIG 0.17  C 
ATOM     14  CB  ALA E1028      83.256  -1.199 163.147  1.00 14.71 LIG 0.04  C 
BRANCH 13 15
ATOM     15  N   ALA E1028      84.527  -1.486 161.049  1.00 14.53 LIG-0.35  N 
ATOM     16 H    ALA E1028      84.290  -0.663 160.975  1.00 14.53 LIG 0.16  HD
ATOM     17  C   ASN E1027      85.332  -2.101 160.201  1.00 16.30 LIG 0.26  C 
ATOM     18 O    ASN E1027      85.611  -3.326 160.314  1.00 15.77 LIG-0.27  OA
BRANCH 17 19
ATOM     19  CA  ASN E1027      85.880  -1.232 159.055  1.00 16.82 LIG 0.41  C 
ATOM     20  N   ASN E1027      86.626  -0.028 159.532  1.00 18.81 LIG 0.61  N 
BRANCH 19 21
ATOM     21  CB  ASN E1027      86.853  -2.019 158.126  1.00 15.29 LIG 0.15  C 
BRANCH 21 22
ATOM     22  CG  ASN E1027      86.221  -3.273 157.522  1.00 13.40 LIG 0.22  C 
ATOM     23 OD1  ASN E1027      85.036  -3.300 157.170  1.00 12.35 LIG-0.27  OA
ATOM     24  ND2 ASN E1027      87.049  -4.295 157.332  1.00 11.10 LIG-0.37  N 
ATOM     25 22HD ASN E1027      87.867  -4.239 157.591  1.00 11.10 LIG 0.16  HD
ATOM     26 21HD ASN E1027      86.766  -5.012 156.950  1.00 11.10 LIG 0.16  HD
ENDBRANCH 21 22
ENDBRANCH 19 21
ENDBRANCH 17 19
ENDBRANCH 13 15
ENDBRANCH 11 13
ENDBRANCH 5 9
ENDBRANCH 1 5
BRANCH 3 27
ATOM     27  CA  ALA E1030      79.033  -4.376 163.578  1.00 12.56 LIG 0.17  C 
ATOM     28  CB  ALA E1030      78.622  -5.572 164.449  1.00 12.51 LIG 0.04  C 
BRANCH 27 29
ATOM     29  C   ALA E1030      78.862  -3.038 164.383  1.00 13.31 LIG 0.24  C 
ATOM     30  N   PRO E1031      77.735  -2.376 164.275  1.00 14.65 LIG-0.34  N 
ATOM     31  CD  PRO E1031      76.615  -2.697 163.375  1.00 15.56 LIG 0.13  C 
ATOM     32  CA  PRO E1031      77.439  -1.178 165.123  1.00 16.02 LIG 0.18  C 
ATOM     33  CG  PRO E1031      75.623  -1.625 163.667  1.00 15.81 LIG 0.02  C 
ATOM     34  CB  PRO E1031      76.378  -0.488 164.325  1.00 15.56 LIG 0.04  C 
ATOM     35 O    ALA E1030      79.719  -2.722 165.169  1.00 13.62 LIG-0.27  OA
BRANCH 32 36
ATOM     36  C   PRO E1031      76.926  -1.571 166.551  1.00 15.62 LIG 0.24  C 
ATOM     37  N   VAL E1032      77.860  -2.004 167.373  1.00 15.06 LIG-0.35  N 
ATOM     38 H    VAL E1032      78.704  -1.977 167.209  1.00 15.06 LIG 0.16  HD
ATOM     39 O    PRO E1031      75.732  -1.500 166.855  1.00 15.42 LIG-0.27  OA
BRANCH 37 40
ATOM     40  CA  VAL E1032      77.511  -2.565 168.640  1.00 17.90 LIG 0.17  C 
BRANCH 40 41
ATOM     41  C   VAL E1032      77.137  -1.412 169.627  1.00 17.55 LIG 0.22  C 
ATOM     42 O    VAL E1032      76.146  -1.603 170.359  1.00 19.34 LIG-0.29  OA
ENDBRANCH 40 41
BRANCH 40 43
ATOM     43  CB  VAL E1032      78.638  -3.471 169.161  1.00 18.34 LIG 0.01  C 
ATOM     44  CG2 VAL E1032      78.835  -4.672 168.241  1.00 18.91 LIG 0.01  C 
ATOM     45  CG1 VAL E1032      78.341  -3.986 170.546  1.00 20.19 LIG 0.01  C 
ENDBRANCH 40 43
ENDBRANCH 37 40
ENDBRANCH 32 36
ENDBRANCH 27 29
ENDBRANCH 3 27
TORSDOF 15
