USER: ADFR SOLUTION from run 0
USER: SCORE 19.141908 LL:  -5.454 LR: -15.818 RR:   0.000 FEB:  -7.465
USER: RMSD 0.906350
USER: STATUS Locally minimized using BFGS
USER: GENES 30
USER: genes 0 Translation |==|  0.48713 0.54458 0.57333
USER: genes 1 Rotation |==|  0.49176 0.48431 0.51825 0.99935
USER: genes 2 Torsion [N]-CA--C-[N] |==|  0.42209
USER: genes 3 Torsion [C]-N--CA-[CB] |==|  0.47973
USER: genes 4 Torsion [N]-CA--C-[N] |==|  0.43853
USER: genes 5 Torsion [C]-N--CA-[CB] |==|  0.31390
USER: genes 6 Torsion [N]-CA--C-[O] |==|  0.25965
USER: genes 7 Torsion [N]-CA--CB-[CG] |==|  0.83646
USER: genes 8 Torsion [CA]-CB--CG-[CD] |==|  0.94218
USER: genes 9 Torsion [CB]-CG--CD-[NE] |==|  0.79572
USER: genes 10 Torsion [CG]-CD--NE-[HE] |==|  0.28237
USER: genes 11 Torsion [N]-CA--CB-[CG] |==|  0.80151
USER: genes 12 Torsion [CA]-CB--CG-[CD] |==|  0.44073
USER: genes 13 Torsion [CB]-CG--CD-[NE] |==|  0.14965
USER: genes 14 Torsion [CG]-CD--NE-[CZ] |==|  0.48972
USER: genes 15 Torsion [N]-C--CA-[N] |==|  0.34880
USER: genes 16 Torsion [C]-CA--CB-[CG2] |==|  0.22531
USER: genes 17 Torsion [CA]-CB--OG1-[HG1] |==|  0.19742
USER: genes 18 Torsion [C]-CA--N-[C] |==|  0.71124
USER: genes 19 Torsion [N]-C--CA-[N] |==|  0.92222
USER: genes 20 Torsion [C]-CA--CB-[CG] |==|  0.51167
USER: genes 21 Torsion [CA]-CB--CG-[CD1] |==|  0.53964
USER: genes 22 Torsion [C]-CA--N-[C] |==|  0.68508
USER: genes 23 Torsion [N]-C--CA-[N] |==|  0.76005
USER: genes 24 Torsion [C]-CA--N-[C] |==|  0.77773
USER: genes 25 Torsion [N]-C--CA-[N] |==|  0.33561
USER: genes 26 Torsion [C]-CA--CB-[CG2] |==|  0.14148
USER: genes 27 Torsion [CA]-CB--CG1-[CD1] |==|  0.51803
USER: genes 28 Torsion [C]-CA--CB-[CG] |==|  0.45001
USER: genes 29 Torsion [CA]-CB--CG-[CD1] |==|  0.43681
ROOT
ATOM      1  C   THR D 648     -63.313   9.547  -5.120  1.00 57.47 LIG 0.24  C 
ATOM      2 O    THR D 648     -62.239   9.743  -5.692  1.00 58.33 LIG-0.27  OA
ATOM      3  N   PRO D 649     -64.207   8.638  -5.545  1.00 55.77 LIG-0.34  N 
ATOM      4  CA  PRO D 649     -63.921   7.713  -6.652  1.00 54.43 LIG 0.18  C 
ATOM      5  CB  PRO D 649     -64.988   6.627  -6.466  1.00 56.30 LIG 0.04  C 
ATOM      6  CG  PRO D 649     -66.128   7.332  -5.805  1.00 52.90 LIG 0.02  C 
ATOM      7  CD  PRO D 649     -65.473   8.305  -4.862  1.00 52.65 LIG 0.13  C 
ENDROOT
BRANCH 4 8
ATOM      8  C   PRO D 649     -64.025   8.294  -8.067  1.00 62.44 LIG 0.24  C 
ATOM      9  N   ARG D 650     -63.256   7.721  -8.992  1.00 65.13 LIG-0.35  N 
ATOM     10 H    ARG D 650     -62.590   7.210  -8.804  1.00 65.13 LIG 0.16  HD
ATOM     11 O    PRO D 649     -64.785   9.233  -8.301  1.00 64.48 LIG-0.27  OA
BRANCH 9 12
ATOM     12  CA  ARG D 650     -63.474   7.907 -10.429  1.00 68.90 LIG 0.18  C 
BRANCH 12 13
ATOM     13  C   ARG D 650     -64.816   7.282 -10.814  1.00 70.53 LIG 0.24  C 
ATOM     14  N   ARG D 651     -65.396   7.721 -11.927  1.00 72.55 LIG-0.35  N 
ATOM     15 H    ARG D 651     -65.043   8.283 -12.474  1.00 72.55 LIG 0.16  HD
ATOM     16 O    ARG D 650     -65.329   6.416 -10.101  1.00 68.24 LIG-0.27  OA
BRANCH 14 17
ATOM     17  CA  ARG D 651     -66.728   7.249 -12.297  1.00 72.50 LIG 0.16  C 
BRANCH 17 18
ATOM     18  C   ARG D 651     -66.722   6.639 -13.700  1.00 69.52 LIG 0.22  C 
ATOM     19 O    ARG D 651     -66.562   5.425 -13.867  1.00 68.10 LIG-0.29  OA
ENDBRANCH 17 18
BRANCH 17 20
ATOM     20  CB  ARG D 651     -67.772   8.384 -12.225  1.00 76.74 LIG 0.04  C 
BRANCH 20 21
ATOM     21  CG  ARG D 651     -68.002   9.131 -10.863  1.00 75.60 LIG 0.02  C 
BRANCH 21 22
ATOM     22  CD  ARG D 651     -67.555   8.394  -9.572  1.00 74.66 LIG 0.14  C 
BRANCH 22 23
ATOM     23  NE  ARG D 651     -68.414   7.275  -9.164  1.00 75.25 LIG-0.23  N 
ATOM     24 HE   ARG D 651     -68.135   6.482  -9.345  1.00 75.25 LIG 0.18  HD
ATOM     25  CZ  ARG D 651     -69.585   7.380  -8.539  1.00 78.75 LIG 0.67  C 
ATOM     26  NH2 ARG D 651     -70.269   6.285  -8.225  1.00 79.25 LIG-0.23  N 
ATOM     27  NH1 ARG D 651     -70.064   8.565  -8.210  1.00 78.43 LIG-0.23  N 
ATOM     28 2HH2 ARG D 651     -71.025   6.351  -7.821  1.00 79.25 LIG 0.17  HD
ATOM     29 1HH2 ARG D 651     -69.955   5.510  -8.426  1.00 79.25 LIG 0.17  HD
ATOM     30 2HH1 ARG D 651     -70.821   8.626  -7.806  1.00 78.43 LIG 0.17  HD
ATOM     31 1HH1 ARG D 651     -69.620   9.276  -8.400  1.00 78.43 LIG 0.17  HD
ENDBRANCH 22 23
ENDBRANCH 21 22
ENDBRANCH 20 21
ENDBRANCH 17 20
ENDBRANCH 14 17
ENDBRANCH 12 13
BRANCH 12 32
ATOM     32  CB  ARG D 650     -62.335   7.279 -11.248  1.00 66.96 LIG 0.04  C 
BRANCH 32 33
ATOM     33  CG  ARG D 650     -61.001   8.017 -11.175  1.00 73.73 LIG 0.02  C 
BRANCH 33 34
ATOM     34  CD  ARG D 650     -59.830   7.098 -11.551  1.00 75.05 LIG 0.14  C 
BRANCH 34 35
ATOM     35  NE  ARG D 650     -59.982   6.441 -12.839  1.00 81.10 LIG-0.23  N 
ATOM     36 HE   ARG D 650     -60.715   6.565 -13.271  1.00 81.10 LIG 0.18  HD
ATOM     37  CZ  ARG D 650     -59.056   5.659 -13.390  1.00 84.47 LIG 0.67  C 
ATOM     38  NH1 ARG D 650     -57.914   5.432 -12.754  1.00 76.84 LIG-0.23  N 
ATOM     39  NH2 ARG D 650     -59.268   5.095 -14.580  1.00 84.76 LIG-0.23  N 
ATOM     40 1HH1 ARG D 650     -57.771   5.790 -11.986  1.00 76.84 LIG 0.17  HD
ATOM     41 2HH1 ARG D 650     -57.316   4.927 -13.111  1.00 76.84 LIG 0.17  HD
ATOM     42 1HH2 ARG D 650     -60.008   5.236 -14.997  1.00 84.76 LIG 0.17  HD
ATOM     43 2HH2 ARG D 650     -58.666   4.592 -14.930  1.00 84.76 LIG 0.17  HD
ENDBRANCH 34 35
ENDBRANCH 33 34
ENDBRANCH 32 33
ENDBRANCH 12 32
ENDBRANCH 9 12
ENDBRANCH 4 8
BRANCH 1 44
ATOM     44  CA  THR D 648     -63.668  10.321  -3.849  1.00 55.33 LIG 0.20  C 
BRANCH 44 45
ATOM     45  CB  THR D 648     -63.955  11.817  -4.172  1.00 57.91 LIG 0.15  C 
ATOM     46  CG2 THR D 648     -65.384  12.006  -4.697  1.00 54.65 LIG 0.04  C 
BRANCH 45 47
ATOM     47 OG1  THR D 648     -63.777  12.608  -2.986  1.00 51.58 LIG-0.39  OA
ATOM     48 HG1  THR D 648     -62.960  12.652  -2.797  1.00 51.58 LIG 0.21  HD
ENDBRANCH 45 47
ENDBRANCH 44 45
BRANCH 44 49
ATOM     49  N   THR D 648     -62.583  10.179  -2.885  1.00 49.85 LIG-0.34  N 
ATOM     50 H    THR D 648     -61.889  10.657  -3.057  1.00 49.85 LIG 0.16  HD
ATOM     51  C   LEU D 647     -62.688   9.369  -1.838  1.00 48.49 LIG 0.24  C 
ATOM     52 O    LEU D 647     -63.665   8.641  -1.648  1.00 50.57 LIG-0.27  OA
BRANCH 51 53
ATOM     53  CA  LEU D 647     -61.534   9.394  -0.849  1.00 48.52 LIG 0.18  C 
BRANCH 53 54
ATOM     54  CB  LEU D 647     -61.871  10.363   0.285  1.00 42.08 LIG 0.04  C 
BRANCH 54 55
ATOM     55  CG  LEU D 647     -60.809  10.626   1.352  1.00 43.63 LIG-0.02  C 
ATOM     56  CD1 LEU D 647     -61.442  11.321   2.564  1.00 34.09 LIG 0.01  C 
ATOM     57  CD2 LEU D 647     -60.145   9.333   1.755  1.00 37.87 LIG 0.01  C 
ENDBRANCH 54 55
ENDBRANCH 53 54
BRANCH 53 58
ATOM     58  N   LEU D 647     -60.269   9.765  -1.480  1.00 49.21 LIG-0.35  N 
ATOM     59  C   LEU D 646     -59.257   8.904  -1.588  1.00 51.75 LIG 0.24  C 
ATOM     60 O    LEU D 646     -59.339   7.721  -1.255  1.00 46.22 LIG-0.27  OA
ATOM     61 H    LEU D 647     -60.241  10.575  -1.768  1.00 49.21 LIG 0.16  HD
BRANCH 59 62
ATOM     62  CA  LEU D 646     -57.964   9.453  -2.175  1.00 53.11 LIG 0.18  C 
BRANCH 62 63
ATOM     63  N   LEU D 646     -57.970   9.384  -3.631  1.00 56.32 LIG-0.35  N 
ATOM     64  C   ILE D 645     -57.698   8.249  -4.268  1.00 63.27 LIG 0.26  C 
ATOM     65 O    ILE D 645     -57.398   7.203  -3.678  1.00 63.46 LIG-0.27  OA
ATOM     66 H    LEU D 646     -58.161  10.124  -4.024  1.00 56.32 LIG 0.16  HD
BRANCH 64 67
ATOM     67  CA  ILE D 645     -57.798   8.283  -5.795  1.00 63.54 LIG 0.40  C 
ATOM     68  N   ILE D 645     -56.534   7.932  -6.443  1.00 63.63 LIG 0.61  N 
BRANCH 67 69
ATOM     69  CB  ILE D 645     -58.943   7.337  -6.203  1.00 61.73 LIG 0.03  C 
ATOM     70  CG2 ILE D 645     -60.205   7.671  -5.400  1.00 57.36 LIG 0.01  C 
BRANCH 69 71
ATOM     71  CG1 ILE D 645     -59.203   7.394  -7.712  1.00 65.03 LIG 0.00  C 
ATOM     72  CD1 ILE D 645     -60.426   6.597  -8.147  1.00 60.49 LIG 0.01  C 
ENDBRANCH 69 71
ENDBRANCH 67 69
ENDBRANCH 64 67
ENDBRANCH 62 63
BRANCH 62 73
ATOM     73  CB  LEU D 646     -57.741  10.890  -1.711  1.00 52.76 LIG 0.04  C 
BRANCH 73 74
ATOM     74  CG  LEU D 646     -56.310  11.398  -1.864  1.00 58.95 LIG-0.02  C 
ATOM     75  CD1 LEU D 646     -56.290  12.928  -1.923  1.00 55.02 LIG 0.01  C 
ATOM     76  CD2 LEU D 646     -55.449  10.876  -0.718  1.00 54.54 LIG 0.01  C 
ENDBRANCH 73 74
ENDBRANCH 62 73
ENDBRANCH 59 62
ENDBRANCH 53 58
ENDBRANCH 51 53
ENDBRANCH 44 49
ENDBRANCH 1 44
TORSDOF 28
