USER: ADFR SOLUTION from run 0
USER: SCORE 20.208917 LL:  -4.762 LR: -17.507 RR:   0.000 FEB:  -9.155
USER: RMSD 0.547145
USER: STATUS Locally minimized using BFGS
USER: GENES 30
USER: genes 0 Translation |==|  0.53162 0.48704 0.62918
USER: genes 1 Rotation |==|  0.49429 0.49547 0.50033 0.99995
USER: genes 2 Torsion [N]-CA--C-[N] |==|  0.34124
USER: genes 3 Torsion [N]-CA--C-[O] |==|  0.93711
USER: genes 4 Torsion [C]-N--CA-[CB] |==|  0.38980
USER: genes 5 Torsion [N]-CA--C-[N] |==|  0.33219
USER: genes 6 Torsion [C]-N--CA-[C] |==|  0.75484
USER: genes 7 Torsion [N]-CA--C-[O] |==|  0.90836
USER: genes 8 Torsion [N]-CA--CB-[OG] |==|  0.14354
USER: genes 9 Torsion [CA]-CB--OG-[HG] |==|  0.49963
USER: genes 10 Torsion [N]-CA--CB-[CG] |==|  0.50968
USER: genes 11 Torsion [CA]-CB--CG-[CD] |==|  0.52492
USER: genes 12 Torsion [CB]-CG--CD-[NE] |==|  0.47116
USER: genes 13 Torsion [CG]-CD--NE-[CZ] |==|  0.43001
USER: genes 14 Torsion [C]-CA--CB-[CG] |==|  0.50077
USER: genes 15 Torsion [CA]-CB--CG-[CD] |==|  0.47700
USER: genes 16 Torsion [CB]-CG--CD-[NE] |==|  0.48587
USER: genes 17 Torsion [CG]-CD--NE-[CZ] |==|  0.51208
USER: genes 18 Torsion [C]-CA--N-[C] |==|  0.63325
USER: genes 19 Torsion [N]-C--CA-[N] |==|  0.40070
USER: genes 20 Torsion [C]-CA--N-[C] |==|  0.67000
USER: genes 21 Torsion [N]-C--CA-[N] |==|  0.36758
USER: genes 22 Torsion [C]-CA--CB-[CG] |==|  0.16613
USER: genes 23 Torsion [CA]-CB--CG-[CD] |==|  0.56247
USER: genes 24 Torsion [CB]-CG--CD-[OE2] |==|  0.45456
USER: genes 25 Torsion [C]-CA--CB-[CG] |==|  0.50995
USER: genes 26 Torsion [CA]-CB--CG-[CD] |==|  0.48486
USER: genes 27 Torsion [CB]-CG--CD-[CE] |==|  0.51117
USER: genes 28 Torsion [CG]-CD--CE-[NZ] |==|  0.48462
USER: genes 29 Torsion [CD]-CE--NZ-[HZ2] |==|  0.89653
ROOT
ATOM      1  CA  ARG C 380       1.132  -5.671  -8.439  1.00 55.03 LIG 0.18  C 
ENDROOT
BRANCH 1 2
ATOM      2  C   ARG C 380       0.822  -4.404  -9.223  1.00 47.07 LIG 0.24  C 
ATOM      3 O    ARG C 380       0.077  -4.464 -10.224  1.00 43.27 LIG-0.27  OA
ATOM      4  N   PRO C 381       1.342  -3.249  -8.816  1.00 52.47 LIG-0.34  N 
ATOM      5  CA  PRO C 381       1.307  -2.077  -9.692  1.00 50.57 LIG 0.18  C 
ATOM      6  CD  PRO C 381       1.972  -2.956  -7.517  1.00 58.50 LIG 0.13  C 
ATOM      7  CB  PRO C 381       1.496  -0.906  -8.720  1.00 39.15 LIG 0.04  C 
ATOM      8  CG  PRO C 381       2.342  -1.485  -7.628  1.00 58.11 LIG 0.02  C 
BRANCH 5 9
ATOM      9  C   PRO C 381       2.442  -2.145 -10.698  1.00 50.29 LIG 0.24  C 
ATOM     10 O    PRO C 381       3.453  -2.817 -10.484  1.00 49.31 LIG-0.27  OA
ATOM     11  N   ARG C 382       2.258  -1.455 -11.820  1.00 50.68 LIG-0.35  N 
ATOM     12 H    ARG C 382       1.519  -1.064 -12.023  1.00 50.68 LIG 0.16  HD
BRANCH 11 13
ATOM     13  CA  ARG C 382       3.311  -1.302 -12.817  1.00 50.76 LIG 0.18  C 
BRANCH 13 14
ATOM     14  C   ARG C 382       3.994   0.044 -12.584  1.00 59.22 LIG 0.24  C 
ATOM     15 O    ARG C 382       3.349   1.095 -12.658  1.00 50.32 LIG-0.27  OA
ATOM     16  N   SER C 383       5.295   0.010 -12.303  1.00 56.43 LIG-0.34  N 
ATOM     17 H    SER C 383       5.761  -0.712 -12.277  1.00 56.43 LIG 0.16  HD
BRANCH 16 18
ATOM     18  CA  SER C 383       6.052   1.227 -12.010  1.00 74.33 LIG 0.19  C 
BRANCH 18 19
ATOM     19  C   SER C 383       6.618   1.880 -13.269  1.00 76.08 LIG 0.22  C 
ATOM     20 O    SER C 383       6.972   1.198 -14.231  1.00 76.81 LIG-0.29  OA
ENDBRANCH 18 19
BRANCH 18 21
ATOM     21  CB  SER C 383       7.187   0.918 -11.039  1.00 65.18 LIG 0.20  C 
BRANCH 21 22
ATOM     22 OG   SER C 383       7.954  -0.172 -11.515  1.00 68.82 LIG-0.40  OA
ATOM     23 HG   SER C 383       8.578  -0.333 -10.975  1.00 68.82 LIG 0.21  HD
ENDBRANCH 21 22
ENDBRANCH 18 21
ENDBRANCH 16 18
ENDBRANCH 13 14
BRANCH 13 24
ATOM     24  CB  ARG C 382       2.757  -1.399 -14.236  1.00 44.34 LIG 0.04  C 
BRANCH 24 25
ATOM     25  CG  ARG C 382       3.850  -1.327 -15.288  1.00 56.39 LIG 0.02  C 
BRANCH 25 26
ATOM     26  CD  ARG C 382       3.317  -1.203 -16.705  1.00 41.52 LIG 0.14  C 
BRANCH 26 27
ATOM     27  NE  ARG C 382       4.404  -0.894 -17.630  1.00 49.53 LIG-0.23  N 
ATOM     28  CZ  ARG C 382       4.396  -1.181 -18.927  1.00 47.90 LIG 0.67  C 
ATOM     29  NH1 ARG C 382       3.349  -1.788 -19.467  1.00 52.31 LIG-0.23  N 
ATOM     30  NH2 ARG C 382       5.436  -0.863 -19.685  1.00 55.66 LIG-0.23  N 
ATOM     31 1HH1 ARG C 382       2.673  -1.997 -18.978  1.00 52.31 LIG 0.17  HD
ATOM     32 2HH1 ARG C 382       3.346  -1.973 -20.307  1.00 52.31 LIG 0.17  HD
ATOM     33 2HH2 ARG C 382       5.429  -1.049 -20.525  1.00 55.66 LIG 0.17  HD
ATOM     34 1HH2 ARG C 382       6.118  -0.471 -19.338  1.00 55.66 LIG 0.17  HD
ATOM     35 HE   ARG C 382       5.099  -0.498 -17.313  1.00 49.53 LIG 0.18  HD
ENDBRANCH 26 27
ENDBRANCH 25 26
ENDBRANCH 24 25
ENDBRANCH 13 24
ENDBRANCH 11 13
ENDBRANCH 5 9
ENDBRANCH 1 2
BRANCH 1 36
ATOM     36  CB  ARG C 380       1.957  -6.641  -9.294  1.00 43.48 LIG 0.04  C 
BRANCH 36 37
ATOM     37  CG  ARG C 380       2.349  -7.976  -8.650  1.00 54.19 LIG 0.02  C 
BRANCH 37 38
ATOM     38  CD  ARG C 380       2.978  -8.874  -9.718  1.00 65.92 LIG 0.14  C 
BRANCH 38 39
ATOM     39  NE  ARG C 380       3.510 -10.146  -9.221  1.00 79.60 LIG-0.23  N 
ATOM     40  CZ  ARG C 380       4.167 -11.011  -9.994  1.00 87.95 LIG 0.67  C 
ATOM     41  NH1 ARG C 380       4.361 -10.718 -11.277  1.00 74.29 LIG-0.23  N 
ATOM     42  NH2 ARG C 380       4.637 -12.160  -9.502  1.00 56.55 LIG-0.23  N 
ATOM     43 2HH1 ARG C 380       4.784 -11.270 -11.784  1.00 74.29 LIG 0.17  HD
ATOM     44 1HH1 ARG C 380       4.065  -9.977 -11.598  1.00 74.29 LIG 0.17  HD
ATOM     45 2HH2 ARG C 380       5.058 -12.707 -10.016  1.00 56.55 LIG 0.17  HD
ATOM     46 1HH2 ARG C 380       4.519 -12.352  -8.672  1.00 56.55 LIG 0.17  HD
ATOM     47 HE   ARG C 380       3.394 -10.343  -8.392  1.00 79.60 LIG 0.18  HD
ENDBRANCH 38 39
ENDBRANCH 37 38
ENDBRANCH 36 37
ENDBRANCH 1 36
BRANCH 1 48
ATOM     48  N   ARG C 380      -0.127  -6.270  -8.010  1.00 47.32 LIG-0.35  N 
ATOM     49  C   LYS C 379      -0.319  -6.671  -6.756  1.00 45.76 LIG 0.24  C 
ATOM     50 O    LYS C 379       0.522  -6.513  -5.867  1.00 54.38 LIG-0.27  OA
ATOM     51 H    ARG C 380      -0.719  -6.337  -8.630  1.00 47.32 LIG 0.16  HD
BRANCH 49 52
ATOM     52  CA  LYS C 379      -1.644  -7.364  -6.471  1.00 43.75 LIG 0.18  C 
BRANCH 52 53
ATOM     53  N   LYS C 379      -1.420  -8.411  -5.491  1.00 44.28 LIG-0.35  N 
ATOM     54 H    LYS C 379      -1.124  -8.122  -4.738  1.00 44.28 LIG 0.16  HD
ATOM     55  C   GLU C 378      -1.651  -9.694  -5.736  1.00 60.53 LIG 0.26  C 
ATOM     56 O    GLU C 378      -2.189 -10.094  -6.766  1.00 56.79 LIG-0.27  OA
BRANCH 55 57
ATOM     57  CA  GLU C 378      -1.222 -10.664  -4.640  1.00 69.99 LIG 0.40  C 
ATOM     58  N   GLU C 378      -2.286 -11.616  -4.346  1.00 74.89 LIG 0.61  N 
BRANCH 57 59
ATOM     59  CB  GLU C 378       0.060 -11.396  -5.054  1.00 53.06 LIG 0.06  C 
BRANCH 59 60
ATOM     60  CG  GLU C 378       1.254 -10.487  -5.320  1.00 67.66 LIG 0.12  C 
BRANCH 60 61
ATOM     61  CD  GLU C 378       2.293 -11.139  -6.219  1.00 85.24 LIG 0.17  C 
ATOM     62 OE2  GLU C 378       3.155 -10.417  -6.765  1.00 90.60 LIG-0.65  OA
ATOM     63 OE1  GLU C 378       2.239 -12.376  -6.386  1.00103.34 LIG-0.65  OA
ENDBRANCH 60 61
ENDBRANCH 59 60
ENDBRANCH 57 59
ENDBRANCH 55 57
ENDBRANCH 52 53
BRANCH 52 64
ATOM     64  CB  LYS C 379      -2.685  -6.351  -5.980  1.00 37.46 LIG 0.04  C 
BRANCH 64 65
ATOM     65  CG  LYS C 379      -4.022  -6.976  -5.586  1.00 41.02 LIG 0.00  C 
BRANCH 65 66
ATOM     66  CD  LYS C 379      -4.961  -5.940  -4.984  1.00 41.74 LIG 0.03  C 
BRANCH 66 67
ATOM     67  CE  LYS C 379      -6.253  -6.585  -4.504  1.00 41.21 LIG 0.23  C 
BRANCH 67 68
ATOM     68  NZ  LYS C 379      -7.145  -5.628  -3.789  1.00 39.67 LIG-0.08  N 
ATOM     69 HZ1  LYS C 379      -7.699  -6.078  -3.257  1.00 39.67 LIG 0.27  HD
ATOM     70 HZ2  LYS C 379      -6.653  -5.070  -3.301  1.00 39.67 LIG 0.27  HD
ATOM     71 HZ3  LYS C 379      -7.619  -5.163  -4.383  1.00 39.67 LIG 0.27  HD
ENDBRANCH 67 68
ENDBRANCH 66 67
ENDBRANCH 65 66
ENDBRANCH 64 65
ENDBRANCH 52 64
ENDBRANCH 49 52
ENDBRANCH 1 48
TORSDOF 28
