USER: ADFR SOLUTION from run 0
USER: SCORE 16.715614 LL:  -4.374 LR: -12.686 RR:   0.000 FEB:  -7.615
USER: RMSD 0.435000
USER: STATUS Locally minimized using BFGS
USER: GENES 19
USER: genes 0 Translation |==|  0.51495 0.59594 0.66664
USER: genes 1 Rotation |==|  0.50159 0.50156 0.49950 0.99999
USER: genes 2 Torsion [C]-N--CA-[C] |==|  0.79911
USER: genes 3 Torsion [N]-CA--C-[N] |==|  0.45251
USER: genes 4 Torsion [C]-N--CA-[C] |==|  0.76647
USER: genes 5 Torsion [N]-CA--C-[N] |==|  0.27222
USER: genes 6 Torsion [C]-N--CA-[C] |==|  0.64231
USER: genes 7 Torsion [N]-CA--C-[O] |==|  0.88042
USER: genes 8 Torsion [N]-CA--CB-[CG1] |==|  0.49626
USER: genes 9 Torsion [N]-CA--CB-[CG] |==|  0.50052
USER: genes 10 Torsion [CA]-CB--CG-[CD] |==|  0.57045
USER: genes 11 Torsion [CB]-CG--CD-[NE2] |==|  0.49806
USER: genes 12 Torsion [O]-C--CA-[CB] |==|  0.81745
USER: genes 13 Torsion [N]-C--CA-[N] |==|  0.36885
USER: genes 14 Torsion [C]-CA--N-[C] |==|  0.80116
USER: genes 15 Torsion [N]-C--CA-[N] |==|  0.57895
USER: genes 16 Torsion [C]-CA--CB-[CG] |==|  0.14651
USER: genes 17 Torsion [CA]-CB--CG-[CD2] |==|  0.69004
USER: genes 18 Torsion [CE2]-CZ--OH-[HH] |==|  0.11144
ROOT
ATOM      1  C   PRO F   5      26.734 -24.908  33.158  1.00 22.19 LIG 0.24  C 
ATOM      2 O    PRO F   5      26.525 -25.620  34.131  1.00 23.65 LIG-0.27  OA
ATOM      3  N   GLY F   6      25.770 -24.470  32.356  1.00 19.88 LIG-0.35  N 
ATOM      4 H    GLY F   6      25.905 -23.922  31.707  1.00 19.88 LIG 0.16  HD
ENDROOT
BRANCH 3 5
ATOM      5  CA  GLY F   6      24.376 -24.882  32.504  1.00 18.82 LIG 0.23  C 
BRANCH 5 6
ATOM      6  C   GLY F   6      24.075 -26.301  32.093  1.00 19.38 LIG 0.24  C 
ATOM      7  N   GLN F   7      22.929 -26.783  32.546  1.00 19.21 LIG-0.35  N 
ATOM      8 H    GLN F   7      22.348 -26.320  32.977  1.00 19.21 LIG 0.16  HD
ATOM      9 O    GLY F   6      24.869 -26.992  31.412  1.00 20.81 LIG-0.27  OA
BRANCH 7 10
ATOM     10  CA  GLN F   7      22.562 -28.169  32.339  1.00 20.89 LIG 0.18  C 
BRANCH 10 11
ATOM     11  C   GLN F   7      21.937 -28.268  30.959  1.00 21.73 LIG 0.24  C 
ATOM     12  N   VAL F   8      22.741 -28.682  29.979  1.00 23.67 LIG-0.34  N 
ATOM     13 H    VAL F   8      23.562 -28.901  30.108  1.00 23.67 LIG 0.16  HD
ATOM     14 O    GLN F   7      20.767 -27.979  30.783  1.00 20.56 LIG-0.27  OA
BRANCH 12 15
ATOM     15  CA  VAL F   8      22.316 -28.809  28.586  1.00 26.59 LIG 0.19  C 
BRANCH 15 16
ATOM     16  C   VAL F   8      22.683 -30.192  28.082  1.00 31.87 LIG 0.20  C 
ATOM     17 O    VAL F   8      23.780 -30.690  28.345  1.00 34.57 LIG-0.65  OA
ATOM     18 OXT  VAL F   8      21.917 -30.830  27.361  1.00 35.27 LIG-0.65  OA
ENDBRANCH 15 16
BRANCH 15 19
ATOM     19  CB  VAL F   8      23.036 -27.773  27.679  1.00 27.17 LIG 0.01  C 
ATOM     20  CG1 VAL F   8      22.626 -27.916  26.211  1.00 30.44 LIG 0.01  C 
ATOM     21  CG2 VAL F   8      22.760 -26.364  28.127  1.00 24.96 LIG 0.01  C 
ENDBRANCH 15 19
ENDBRANCH 12 15
ENDBRANCH 10 11
BRANCH 10 22
ATOM     22  CB  GLN F   7      21.589 -28.611  33.432  1.00 21.57 LIG 0.04  C 
BRANCH 22 23
ATOM     23  CG  GLN F   7      21.122 -30.059  33.338  1.00 23.35 LIG 0.10  C 
BRANCH 23 24
ATOM     24  CD  GLN F   7      19.776 -30.273  33.997  1.00 24.40 LIG 0.21  C 
ATOM     25  NE2 GLN F   7      19.292 -31.500  33.947  1.00 26.54 LIG-0.37  N 
ATOM     26 22HE GLN F   7      18.527 -31.676  34.300  1.00 26.54 LIG 0.16  HD
ATOM     27 21HE GLN F   7      19.741 -32.125  33.563  1.00 26.54 LIG 0.16  HD
ATOM     28 OE1  GLN F   7      19.182 -29.341  34.533  1.00 22.98 LIG-0.27  OA
ENDBRANCH 23 24
ENDBRANCH 22 23
ENDBRANCH 10 22
ENDBRANCH 7 10
ENDBRANCH 5 6
ENDBRANCH 3 5
BRANCH 1 29
ATOM     29  CA  PRO F   5      28.167 -24.499  32.855  1.00 24.01 LIG 0.18  C 
ATOM     30  CB  PRO F   5      28.703 -23.598  33.966  1.00 26.63 LIG 0.04  C 
ATOM     31  CG  PRO F   5      28.669 -22.231  33.427  1.00 25.90 LIG 0.02  C 
ATOM     32  CD  PRO F   5      28.614 -22.289  31.929  1.00 24.07 LIG 0.13  C 
ATOM     33  N   PRO F   5      28.367 -23.709  31.630  1.00 22.96 LIG-0.34  N 
ATOM     34  C   TYR F   4      28.538 -24.314  30.429  1.00 22.64 LIG 0.24  C 
ATOM     35 O    TYR F   4      28.407 -25.515  30.257  1.00 22.73 LIG-0.27  OA
BRANCH 34 36
ATOM     36  CA  TYR F   4      28.921 -23.452  29.234  1.00 23.00 LIG 0.18  C 
BRANCH 36 37
ATOM     37  N   TYR F   4      30.038 -24.105  28.530  1.00 26.39 LIG-0.35  N 
ATOM     38 H    TYR F   4      29.831 -24.452  27.772  1.00 26.39 LIG 0.16  HD
ATOM     39  C   GLY F   3      31.249 -24.136  29.055  1.00 29.77 LIG 0.25  C 
ATOM     40 O    GLY F   3      31.477 -23.703  30.177  1.00 31.07 LIG-0.27  OA
BRANCH 39 41
ATOM     41  CA  GLY F   3      32.365 -24.780  28.228  1.00 33.82 LIG 0.47  C 
ATOM     42  N   GLY F   3      33.409 -25.348  29.121  1.00 37.49 LIG 0.61  N 
ENDBRANCH 39 41
ENDBRANCH 36 37
BRANCH 36 43
ATOM     43  CB  TYR F   4      27.748 -23.320  28.309  1.00 21.26 LIG 0.07  C 
BRANCH 43 44
ATOM     44  CG  TYR F   4      26.508 -22.856  28.959  1.00 18.65 LIG-0.06  A 
ATOM     45  CD2 TYR F   4      25.416 -23.704  29.097  1.00 17.47 LIG 0.01  A 
ATOM     46  CE2 TYR F   4      24.242 -23.276  29.708  1.00 16.54 LIG 0.04  A 
ATOM     47  CZ  TYR F   4      24.155 -21.980  30.190  1.00 17.16 LIG 0.07  A 
ATOM     48  CE1 TYR F   4      25.236 -21.127  30.069  1.00 18.26 LIG 0.04  A 
ATOM     49  CD1 TYR F   4      26.402 -21.554  29.437  1.00 19.09 LIG 0.01  A 
BRANCH 47 50
ATOM     50 OH   TYR F   4      22.975 -21.488  30.783  1.00 17.27 LIG-0.36  OA
ATOM     51 HH   TYR F   4      22.636 -22.084  31.268  1.00 17.27 LIG 0.22  HD
ENDBRANCH 47 50
ENDBRANCH 43 44
ENDBRANCH 36 43
ENDBRANCH 34 36
ENDBRANCH 1 29
TORSDOF 17
