USER: ADFR SOLUTION from run 0
USER: SCORE 18.919891 LL:  -4.911 LR: -14.861 RR:   0.000 FEB:  -6.807
USER: RMSD 1.325533
USER: STATUS Locally minimized using BFGS
USER: GENES 29
USER: genes 0 Translation |==|  0.54308 0.44532 0.54718
USER: genes 1 Rotation |==|  0.49125 0.49320 0.48332 0.99960
USER: genes 2 Torsion [C]-N--CA-[C] |==|  0.72041
USER: genes 3 Torsion [N]-CA--C-[N] |==|  0.41853
USER: genes 4 Torsion [C]-N--CA-[C] |==|  0.57873
USER: genes 5 Torsion [N]-CA--C-[N] |==|  0.25229
USER: genes 6 Torsion [C]-N--CA-[CB] |==|  0.80488
USER: genes 7 Torsion [N]-CA--CB-[CG] |==|  0.96460
USER: genes 8 Torsion [CA]-CB--CG-[CD2] |==|  0.30847
USER: genes 9 Torsion [N]-CA--C-[O] |==|  0.15588
USER: genes 10 Torsion [N]-CA--CB-[CG] |==|  0.56140
USER: genes 11 Torsion [CA]-CB--CG-[CD] |==|  0.37678
USER: genes 12 Torsion [CB]-CG--CD-[CE] |==|  0.39913
USER: genes 13 Torsion [CG]-CD--CE-[NZ] |==|  0.56611
USER: genes 14 Torsion [CD]-CE--NZ-[HZ2] |==|  0.81976
USER: genes 15 Torsion [N]-CA--CB-[CG2] |==|  0.70882
USER: genes 16 Torsion [CA]-CB--OG1-[HG1] |==|  0.49795
USER: genes 17 Torsion [N]-C--CA-[N] |==|  0.46413
USER: genes 18 Torsion [C]-CA--N-[C] |==|  0.55000
USER: genes 19 Torsion [N]-C--CA-[N] |==|  0.35424
USER: genes 20 Torsion [C]-CA--CB-[CG] |==|  0.47283
USER: genes 21 Torsion [CA]-CB--CG-[CD] |==|  0.65469
USER: genes 22 Torsion [CB]-CG--CD-[OE2] |==|  0.61465
USER: genes 23 Torsion [C]-CA--N-[C] |==|  0.78983
USER: genes 24 Torsion [N]-C--CA-[N] |==|  0.32178
USER: genes 25 Torsion [C]-CA--CB-[CG2] |==|  0.37948
USER: genes 26 Torsion [C]-CA--CB-[CG] |==|  0.84396
USER: genes 27 Torsion [CA]-CB--CG-[CD1] |==|  0.24137
USER: genes 28 Torsion [CE1]-CZ--OH-[HH] |==|  0.03066
ROOT
ATOM      1  C   TYR F 311      37.204  51.046  -2.390  1.00 39.57 LIG 0.24  C 
ATOM      2 O    TYR F 311      37.206  49.967  -2.989  1.00 35.87 LIG-0.27  OA
ATOM      3  N   THR F 312      36.378  51.332  -1.386  1.00 39.28 LIG-0.34  N 
ATOM      4 H    THR F 312      36.411  52.072  -0.949  1.00 39.28 LIG 0.16  HD
ENDROOT
BRANCH 3 5
ATOM      5  CA  THR F 312      35.334  50.427  -0.921  1.00 41.67 LIG 0.20  C 
BRANCH 5 6
ATOM      6  C   THR F 312      33.976  50.840  -1.469  1.00 45.40 LIG 0.24  C 
ATOM      7  N   LYS F 313      33.102  49.863  -1.648  1.00 48.10 LIG-0.35  N 
ATOM      8 H    LYS F 313      33.289  49.030  -1.547  1.00 48.10 LIG 0.16  HD
ATOM      9 O    THR F 312      33.712  52.019  -1.693  1.00 48.99 LIG-0.27  OA
BRANCH 7 10
ATOM     10  CA  LYS F 313      31.725  50.124  -2.038  1.00 51.61 LIG 0.18  C 
BRANCH 10 11
ATOM     11  C   LYS F 313      30.820  49.007  -1.505  1.00 54.92 LIG 0.24  C 
ATOM     12 O    LYS F 313      30.620  47.987  -2.173  1.00 54.36 LIG-0.27  OA
ATOM     13  N   HIS F 314      30.295  49.216  -0.293  1.00 57.06 LIG-0.35  N 
ATOM     14 H    HIS F 314      30.433  49.937   0.155  1.00 57.06 LIG 0.16  HD
BRANCH 13 15
ATOM     15  CA  HIS F 314      29.431  48.254   0.410  1.00 57.78 LIG 0.17  C 
BRANCH 15 16
ATOM     16  CB  HIS F 314      28.055  48.145  -0.266  1.00 57.79 LIG 0.09  C 
BRANCH 16 17
ATOM     17  CG  HIS F 314      27.784  49.224  -1.269  1.00 61.61 LIG 0.06  A 
ATOM     18  CD2 HIS F 314      27.673  49.182  -2.619  1.00 62.97 LIG 0.14  A 
ATOM     19 NE2  HIS F 314      27.417  50.464  -3.047  1.00 63.36 LIG-0.25  NA
ATOM     20  CE1 HIS F 314      27.371  51.266  -1.999  1.00 61.50 LIG 0.23  A 
ATOM     21 ND1  HIS F 314      27.590  50.545  -0.912  1.00 63.00 LIG-0.24  NA
ENDBRANCH 16 17
ENDBRANCH 15 16
BRANCH 15 22
ATOM     22  C   HIS F 314      30.077  46.869   0.530  1.00 59.91 LIG 0.22  C 
ATOM     23 O    HIS F 314      31.184  46.727   1.061  1.00 59.00 LIG-0.29  OA
ENDBRANCH 15 22
ENDBRANCH 13 15
ENDBRANCH 10 11
BRANCH 10 24
ATOM     24  CB  LYS F 313      31.609  50.258  -3.561  1.00 49.70 LIG 0.04  C 
BRANCH 24 25
ATOM     25  CG  LYS F 313      30.377  51.033  -4.003  1.00 49.89 LIG 0.00  C 
BRANCH 25 26
ATOM     26  CD  LYS F 313      30.689  52.041  -5.098  1.00 49.58 LIG 0.03  C 
BRANCH 26 27
ATOM     27  CE  LYS F 313      29.542  52.135  -6.095  1.00 48.23 LIG 0.23  C 
BRANCH 27 28
ATOM     28  NZ  LYS F 313      30.008  52.631  -7.413  1.00 47.83 LIG-0.08  N 
ATOM     29 HZ2  LYS F 313      30.300  53.467  -7.329  1.00 47.83 LIG 0.27  HD
ATOM     30 HZ1  LYS F 313      29.334  52.608  -7.994  1.00 47.83 LIG 0.27  HD
ATOM     31 HZ3  LYS F 313      30.670  52.114  -7.708  1.00 47.83 LIG 0.27  HD
ENDBRANCH 27 28
ENDBRANCH 26 27
ENDBRANCH 25 26
ENDBRANCH 24 25
ENDBRANCH 10 24
ENDBRANCH 7 10
ENDBRANCH 5 6
BRANCH 5 32
ATOM     32  CB  THR F 312      35.215  50.459   0.613  1.00 41.09 LIG 0.15  C 
ATOM     33  CG2 THR F 312      35.823  49.215   1.237  1.00 40.88 LIG 0.04  C 
BRANCH 32 34
ATOM     34 OG1  THR F 312      35.892  51.619   1.107  1.00 43.07 LIG-0.39  OA
ATOM     35 HG1  THR F 312      35.823  51.649   1.944  1.00 43.07 LIG 0.21  HD
ENDBRANCH 32 34
ENDBRANCH 5 32
ENDBRANCH 3 5
BRANCH 1 36
ATOM     36  CA  TYR F 311      38.157  52.174  -2.789  1.00 39.31 LIG 0.18  C 
BRANCH 36 37
ATOM     37  N   TYR F 311      39.232  51.728  -3.674  1.00 40.62 LIG-0.35  N 
ATOM     38 H    TYR F 311      39.085  50.975  -4.063  1.00 40.62 LIG 0.16  HD
ATOM     39  C   GLU F 310      40.335  52.452  -3.841  1.00 41.86 LIG 0.24  C 
ATOM     40 O    GLU F 310      40.552  53.468  -3.197  1.00 41.90 LIG-0.27  OA
BRANCH 39 41
ATOM     41  CA  GLU F 310      41.359  51.953  -4.858  1.00 43.14 LIG 0.18  C 
BRANCH 41 42
ATOM     42  CB  GLU F 310      42.609  51.478  -4.113  1.00 44.06 LIG 0.04  C 
BRANCH 42 43
ATOM     43  CG  GLU F 310      43.606  50.742  -4.993  1.00 45.60 LIG 0.12  C 
BRANCH 43 44
ATOM     44  CD  GLU F 310      43.953  49.351  -4.480  1.00 46.85 LIG 0.17  C 
ATOM     45 OE2  GLU F 310      45.150  48.992  -4.542  1.00 47.09 LIG-0.65  OA
ATOM     46 OE1  GLU F 310      43.041  48.613  -4.036  1.00 45.53 LIG-0.65  OA
ENDBRANCH 43 44
ENDBRANCH 42 43
ENDBRANCH 41 42
BRANCH 41 47
ATOM     47  N   GLU F 310      41.702  53.015  -5.817  1.00 43.23 LIG-0.35  N 
ATOM     48  C   VAL F 309      40.897  53.393  -6.816  1.00 44.16 LIG 0.26  C 
ATOM     49 O    VAL F 309      39.810  52.862  -7.054  1.00 43.83 LIG-0.27  OA
ATOM     50 H    GLU F 310      42.472  53.372  -5.674  1.00 43.23 LIG 0.16  HD
BRANCH 48 51
ATOM     51  CA  VAL F 309      41.389  54.555  -7.689  1.00 44.86 LIG 0.40  C 
ATOM     52  N   VAL F 309      41.612  54.075  -9.085  1.00 44.58 LIG 0.61  N 
BRANCH 51 53
ATOM     53  CB  VAL F 309      40.388  55.746  -7.669  1.00 44.54 LIG 0.03  C 
ATOM     54  CG2 VAL F 309      41.139  57.065  -7.531  1.00 44.44 LIG 0.01  C 
ATOM     55  CG1 VAL F 309      39.343  55.610  -6.564  1.00 43.50 LIG 0.01  C 
ENDBRANCH 51 53
ENDBRANCH 48 51
ENDBRANCH 41 47
ENDBRANCH 39 41
ENDBRANCH 36 37
BRANCH 36 56
ATOM     56  CB  TYR F 311      37.352  53.283  -3.475  1.00 38.48 LIG 0.07  C 
BRANCH 56 57
ATOM     57  CG  TYR F 311      36.565  52.791  -4.669  1.00 36.48 LIG-0.06  A 
ATOM     58  CD1 TYR F 311      35.287  52.264  -4.513  1.00 35.51 LIG 0.01  A 
ATOM     59  CE1 TYR F 311      34.560  51.810  -5.602  1.00 35.35 LIG 0.04  A 
ATOM     60  CZ  TYR F 311      35.114  51.866  -6.860  1.00 34.90 LIG 0.07  A 
ATOM     61  CE2 TYR F 311      36.382  52.379  -7.048  1.00 36.46 LIG 0.04  A 
ATOM     62  CD2 TYR F 311      37.106  52.834  -5.956  1.00 36.25 LIG 0.01  A 
BRANCH 60 63
ATOM     63 OH   TYR F 311      34.399  51.410  -7.932  1.00 38.07 LIG-0.36  OA
ATOM     64 HH   TYR F 311      33.604  51.271  -7.701  1.00 38.07 LIG 0.22  HD
ENDBRANCH 60 63
ENDBRANCH 56 57
ENDBRANCH 36 56
ENDBRANCH 1 36
TORSDOF 27
