USER: ADFR SOLUTION from run 0
USER: SCORE 9.338538 LL:  -5.122 LR: -10.575 RR:   0.000 FEB:  -4.013
USER: RMSD 0.681699
USER: STATUS Locally minimized using BFGS
USER: GENES 24
USER: genes 0 Translation |==|  0.32812 0.48562 0.45888
USER: genes 1 Rotation |==|  0.48920 0.50585 0.53087 0.99890
USER: genes 2 Torsion [CB]-CA--N-[C] |==|  0.30000
USER: genes 3 Torsion [N]-C--CA-[N] |==|  0.46299
USER: genes 4 Torsion [C]-CA--N-[C] |==|  0.76381
USER: genes 5 Torsion [N]-C--CA-[N] |==|  0.39044
USER: genes 6 Torsion [C]-CA--N-[H1] |==|  0.58939
USER: genes 7 Torsion [C]-CA--CB-[CG] |==|  0.47485
USER: genes 8 Torsion [CA]-CB--CG-[CD] |==|  0.44694
USER: genes 9 Torsion [CB]-CG--CD-[NE] |==|  0.51570
USER: genes 10 Torsion [CG]-CD--NE-[CZ] |==|  0.21425
USER: genes 11 Torsion [N]-CA--CB-[OG1] |==|  0.18271
USER: genes 12 Torsion [CA]-CB--OG1-[HG1] |==|  0.49923
USER: genes 13 Torsion [N]-CA--C-[N] |==|  0.46417
USER: genes 14 Torsion [C]-N--CA-[CB] |==|  0.48346
USER: genes 15 Torsion [N]-CA--C-[N] |==|  0.90817
USER: genes 16 Torsion [C]-N--CA-[CB] |==|  0.46163
USER: genes 17 Torsion [N]-CA--C-[N] |==|  0.87627
USER: genes 18 Torsion [C]-N--CA-[CB] |==|  0.46181
USER: genes 19 Torsion [N]-CA--CB-[CG2] |==|  0.83436
USER: genes 20 Torsion [CA]-CB--OG1-[HG1] |==|  0.41059
USER: genes 21 Torsion [N]-CA--C-[N] |==|  0.91664
USER: genes 22 Torsion [C]-N--CA-[C] |==|  0.75534
USER: genes 23 Torsion [N]-CA--C-[O] |==|  0.34374
ROOT
ATOM      1  CA  THR G   3      14.271  37.895  42.330  1.00 68.23 LIG 0.20  C 
ENDROOT
BRANCH 1 2
ATOM      2  N   THR G   3      15.716  37.721  42.221  1.00 68.42 LIG-0.34  N 
ATOM      3  C   ARG G   2      16.350  37.604  41.057  1.00 70.38 LIG 0.24  C 
ATOM      4 O    ARG G   2      15.773  37.521  39.967  1.00 69.46 LIG-0.27  OA
ATOM      5 H    THR G   3      16.119  37.701  42.980  1.00 68.42 LIG 0.16  HD
BRANCH 3 6
ATOM      6  CA  ARG G   2      17.871  37.544  41.139  1.00 72.62 LIG 0.18  C 
BRANCH 6 7
ATOM      7  N   ARG G   2      18.403  37.102  39.852  1.00 74.86 LIG-0.35  N 
ATOM      8  C   ALA G   1      18.510  35.814  39.534  1.00 76.29 LIG 0.25  C 
ATOM      9 O    ALA G   1      18.342  34.895  40.342  1.00 75.70 LIG-0.27  OA
ATOM     10 H    ARG G   2      18.637  37.744  39.329  1.00 74.86 LIG 0.16  HD
BRANCH 8 11
ATOM     11  CA  ALA G   1      18.870  35.513  38.088  1.00 78.97 LIG 0.27  C 
ATOM     12  CB  ALA G   1      17.605  35.209  37.292  1.00 79.33 LIG 0.05  C 
BRANCH 11 13
ATOM     13  N   ALA G   1      19.826  34.374  38.013  1.00 81.42 LIG-0.07  N 
ATOM     14 H3   ALA G   1      19.374  33.612  37.918  1.00 81.42 LIG 0.28  HD
ATOM     15 H2   ALA G   1      20.308  34.341  38.760  1.00 81.42 LIG 0.28  HD
ATOM     16 H1   ALA G   1      20.368  34.486  37.316  1.00 81.42 LIG 0.28  HD
ENDBRANCH 11 13
ENDBRANCH 8 11
ENDBRANCH 6 7
BRANCH 6 17
ATOM     17  CB  ARG G   2      18.451  38.907  41.531  1.00 73.45 LIG 0.04  C 
BRANCH 17 18
ATOM     18  CG  ARG G   2      19.937  38.857  41.841  1.00 75.79 LIG 0.02  C 
BRANCH 18 19
ATOM     19  CD  ARG G   2      20.589  40.230  41.772  1.00 77.52 LIG 0.14  C 
BRANCH 19 20
ATOM     20  NE  ARG G   2      22.041  40.139  41.942  1.00 80.25 LIG-0.23  N 
ATOM     21  CZ  ARG G   2      22.911  39.743  41.008  1.00 82.01 LIG 0.67  C 
ATOM     22  NH1 ARG G   2      22.511  39.378  39.788  1.00 81.47 LIG-0.23  N 
ATOM     23  NH2 ARG G   2      24.209  39.704  41.300  1.00 84.93 LIG-0.23  N 
ATOM     24 1HH1 ARG G   2      21.674  39.394  39.587  1.00 81.47 LIG 0.17  HD
ATOM     25 2HH1 ARG G   2      23.089  39.126  39.203  1.00 81.47 LIG 0.17  HD
ATOM     26 2HH2 ARG G   2      24.777  39.450  40.706  1.00 84.93 LIG 0.17  HD
ATOM     27 1HH2 ARG G   2      24.481  39.933  42.083  1.00 84.93 LIG 0.17  HD
ATOM     28 HE   ARG G   2      22.361  40.361  42.709  1.00 80.25 LIG 0.18  HD
ENDBRANCH 19 20
ENDBRANCH 18 19
ENDBRANCH 17 18
ENDBRANCH 6 17
ENDBRANCH 3 6
ENDBRANCH 1 2
BRANCH 1 29
ATOM     29  CB  THR G   3      13.574  36.621  42.865  1.00 68.23 LIG 0.15  C 
ATOM     30  CG2 THR G   3      13.914  35.420  42.003  1.00 68.63 LIG 0.04  C 
BRANCH 29 31
ATOM     31 OG1  THR G   3      13.978  36.369  44.217  1.00 67.51 LIG-0.39  OA
ATOM     32 HG1  THR G   3      13.592  35.679  44.500  1.00 67.51 LIG 0.21  HD
ENDBRANCH 29 31
ENDBRANCH 1 29
BRANCH 1 33
ATOM     33  C   THR G   3      13.947  39.068  43.249  1.00 68.02 LIG 0.24  C 
ATOM     34  N   ALA G   4      12.686  39.496  43.220  1.00 68.86 LIG-0.35  N 
ATOM     35 H    ALA G   4      12.090  39.177  42.688  1.00 68.86 LIG 0.16  HD
ATOM     36 O    THR G   3      14.818  39.573  43.960  1.00 67.54 LIG-0.27  OA
BRANCH 34 37
ATOM     37  CA  ALA G   4      12.190  40.559  44.099  1.00 69.75 LIG 0.17  C 
ATOM     38  CB  ALA G   4      10.761  40.918  43.727  1.00 70.86 LIG 0.04  C 
BRANCH 37 39
ATOM     39  C   ALA G   4      12.277  40.190  45.585  1.00 71.43 LIG 0.24  C 
ATOM     40  N   ALA G   5      12.103  38.903  45.896  1.00 71.85 LIG-0.35  N 
ATOM     41 H    ALA G   5      11.892  38.301  45.320  1.00 71.85 LIG 0.16  HD
ATOM     42 O    ALA G   4      12.499  41.064  46.429  1.00 72.80 LIG-0.27  OA
BRANCH 40 43
ATOM     43  CA  ALA G   5      12.258  38.394  47.263  1.00 72.89 LIG 0.17  C 
ATOM     44  CB  ALA G   5      11.678  36.991  47.378  1.00 72.65 LIG 0.04  C 
BRANCH 43 45
ATOM     45  C   ALA G   5      13.721  38.404  47.719  1.00 72.87 LIG 0.24  C 
ATOM     46  N   THR G   6      14.628  37.953  46.847  1.00 71.86 LIG-0.34  N 
ATOM     47 H    THR G   6      14.430  37.653  46.066  1.00 71.86 LIG 0.16  HD
ATOM     48 O    ALA G   5      14.016  38.814  48.843  1.00 74.40 LIG-0.27  OA
BRANCH 46 49
ATOM     49  CA  THR G   6      16.069  37.933  47.152  1.00 72.17 LIG 0.20  C 
BRANCH 49 50
ATOM     50  CB  THR G   6      16.871  37.071  46.149  1.00 71.29 LIG 0.15  C 
ATOM     51  CG2 THR G   6      16.378  35.626  46.160  1.00 70.64 LIG 0.04  C 
BRANCH 50 52
ATOM     52 OG1  THR G   6      16.745  37.611  44.828  1.00 70.47 LIG-0.39  OA
ATOM     53 HG1  THR G   6      17.452  37.467  44.398  1.00 70.47 LIG 0.21  HD
ENDBRANCH 50 52
ENDBRANCH 49 50
BRANCH 49 54
ATOM     54  C   THR G   6      16.679  39.342  47.201  1.00 73.53 LIG 0.24  C 
ATOM     55  N   ALA G   7      16.119  40.271  46.420  1.00 73.25 LIG-0.35  N 
ATOM     56 H    ALA G   7      15.504  40.095  45.845  1.00 73.25 LIG 0.16  HD
ATOM     57 O    THR G   6      17.650  39.565  47.928  1.00 75.15 LIG-0.27  OA
BRANCH 55 58
ATOM     58  CA  ALA G   7      16.498  41.690  46.464  1.00 74.45 LIG 0.16  C 
ATOM     59  CB  ALA G   7      16.317  42.333  45.096  1.00 73.04 LIG 0.04  C 
BRANCH 58 60
ATOM     60  C   ALA G   7      15.672  42.437  47.511  1.00 76.13 LIG 0.22  C 
ATOM     61 O    ALA G   7      16.216  43.064  48.421  1.00 77.97 LIG-0.29  OA
ENDBRANCH 58 60
ENDBRANCH 55 58
ENDBRANCH 49 54
ENDBRANCH 46 49
ENDBRANCH 43 45
ENDBRANCH 40 43
ENDBRANCH 37 39
ENDBRANCH 34 37
ENDBRANCH 1 33
TORSDOF 22
