USER: ADFR SOLUTION from run 0
USER: SCORE 7.557394 LL:  -2.362 LR:  -6.610 RR:   0.000 FEB:  -2.732
USER: RMSD 0.577520
USER: STATUS Locally minimized using BFGS
USER: GENES 15
USER: genes 0 Translation |==|  0.52566 0.52278 0.57349
USER: genes 1 Rotation |==|  0.47696 0.48206 0.46534 0.99794
USER: genes 2 Torsion [CB]-CA--N-[C] |==|  0.29444
USER: genes 3 Torsion [N]-C--CA-[N] |==|  0.38028
USER: genes 4 Torsion [C]-CA--CB-[CG] |==|  0.80607
USER: genes 5 Torsion [CA]-CB--CG-[CD] |==|  0.51670
USER: genes 6 Torsion [CB]-CG--CD-[OE1] |==|  0.11814
USER: genes 7 Torsion [C]-CA--N-[H3] |==|  0.07985
USER: genes 8 Torsion [N]-CA--C-[N] |==|  0.26272
USER: genes 9 Torsion [C]-N--CA-[CB] |==|  0.37023
USER: genes 10 Torsion [N]-CA--CB-[CG] |==|  0.82473
USER: genes 11 Torsion [CA]-CB--CG-[CD1] |==|  0.37403
USER: genes 12 Torsion [N]-CA--C-[O] |==|  0.42892
USER: genes 13 Torsion [N]-CA--CB-[CG] |==|  0.82855
USER: genes 14 Torsion [CA]-CB--CG-[OD2] |==|  0.27480
ROOT
ATOM      1  CA  ASP C 507       9.220  26.053   6.595  1.00 33.68 LIG 0.19  C 
ENDROOT
BRANCH 1 2
ATOM      2  N   ASP C 507       7.847  25.989   6.111  1.00 35.05 LIG-0.34  N 
ATOM      3  C   GLU C 506       7.297  26.970   5.407  1.00 36.98 LIG 0.25  C 
ATOM      4 O    GLU C 506       7.885  28.026   5.148  1.00 35.33 LIG-0.27  OA
ATOM      5 H    ASP C 507       7.434  25.265   6.323  1.00 35.05 LIG 0.16  HD
BRANCH 3 6
ATOM      6  CA  GLU C 506       5.847  26.751   4.979  1.00 38.62 LIG 0.28  C 
BRANCH 6 7
ATOM      7  CB  GLU C 506       5.772  26.293   3.520  1.00 41.41 LIG 0.05  C 
BRANCH 7 8
ATOM      8  CG  GLU C 506       6.145  27.367   2.517  1.00 54.63 LIG 0.12  C 
BRANCH 8 9
ATOM      9  CD  GLU C 506       5.925  26.939   1.079  1.00 71.07 LIG 0.17  C 
ATOM     10 OE1  GLU C 506       4.879  26.314   0.790  1.00 74.77 LIG-0.65  OA
ATOM     11 OE2  GLU C 506       6.799  27.243   0.235  1.00 73.38 LIG-0.65  OA
ENDBRANCH 8 9
ENDBRANCH 7 8
ENDBRANCH 6 7
BRANCH 6 12
ATOM     12  N   GLU C 506       5.056  27.995   5.178  1.00 38.98 LIG-0.07  N 
ATOM     13 H3   GLU C 506       5.590  28.703   5.100  1.00 38.98 LIG 0.28  HD
ATOM     14 H2   GLU C 506       4.691  27.988   5.990  1.00 38.98 LIG 0.28  HD
ATOM     15 H1   GLU C 506       4.413  28.040   4.564  1.00 38.98 LIG 0.28  HD
ENDBRANCH 6 12
ENDBRANCH 3 6
ENDBRANCH 1 2
BRANCH 1 16
ATOM     16  C   ASP C 507       9.923  24.752   6.251  1.00 33.47 LIG 0.24  C 
ATOM     17 O    ASP C 507       9.804  23.760   6.974  1.00 34.83 LIG-0.27  OA
ATOM     18  N   LEU C 508      10.615  24.757   5.116  1.00 31.65 LIG-0.34  N 
ATOM     19 H    LEU C 508      10.691  25.447   4.606  1.00 31.65 LIG 0.16  HD
BRANCH 18 20
ATOM     20  CA  LEU C 508      11.316  23.578   4.629  1.00 32.20 LIG 0.18  C 
BRANCH 20 21
ATOM     21  CB  LEU C 508      11.007  23.387   3.151  1.00 32.28 LIG 0.04  C 
BRANCH 21 22
ATOM     22  CG  LEU C 508       9.515  23.126   2.977  1.00 33.09 LIG-0.02  C 
ATOM     23  CD1 LEU C 508       8.971  23.946   1.847  1.00 32.61 LIG 0.01  C 
ATOM     24  CD2 LEU C 508       9.274  21.635   2.788  1.00 34.13 LIG 0.01  C 
ENDBRANCH 21 22
ENDBRANCH 20 21
BRANCH 20 25
ATOM     25  C   LEU C 508      12.817  23.646   4.846  1.00 33.63 LIG 0.20  C 
ATOM     26 O    LEU C 508      13.448  22.571   4.934  0.50 32.81 LIG-0.65  OA
ATOM     27 OXT  LEU C 508      13.347  24.773   4.927  0.50 35.17 LIG-0.65  OA
ENDBRANCH 20 25
ENDBRANCH 18 20
ENDBRANCH 1 16
BRANCH 1 28
ATOM     28  CB  ASP C 507       9.225  26.311   8.100  1.00 31.02 LIG 0.15  C 
BRANCH 28 29
ATOM     29  CG  ASP C 507       8.578  27.634   8.451  1.00 34.22 LIG 0.17  C 
ATOM     30 OD2  ASP C 507       7.390  27.651   8.845  1.00 32.29 LIG-0.65  OA
ATOM     31 OD1  ASP C 507       9.253  28.668   8.289  1.00 33.73 LIG-0.65  OA
ENDBRANCH 28 29
ENDBRANCH 1 28
TORSDOF 13
