USER: ADFR SOLUTION from run 0
USER: SCORE 9.170001 LL:  -1.433 LR:  -8.634 RR:   0.000 FEB:  -5.950
USER: RMSD 0.522759
USER: STATUS Locally minimized using BFGS
USER: GENES 11
USER: genes 0 Translation |==|  0.45766 0.46317 0.43236
USER: genes 1 Rotation |==|  0.49367 0.49268 0.49130 0.99983
USER: genes 2 Torsion [C]-N--CA-[CB] |==|  0.47778
USER: genes 3 Torsion [N]-CA--C-[N] |==|  0.44415
USER: genes 4 Torsion [C]-N--CA-[C] |==|  0.42791
USER: genes 5 Torsion [N]-CA--C-[N] |==|  0.45003
USER: genes 6 Torsion [N]-CA--C-[O] |==|  0.90197
USER: genes 7 Torsion [N]-C--CA-[N] |==|  0.33868
USER: genes 8 Torsion [C]-CA--CB-[CG] |==|  0.48238
USER: genes 9 Torsion [CA]-CB--CG-[CD2] |==|  0.21619
USER: genes 10 Torsion [C]-CA--N-[H3] |==|  0.20007
ROOT
ATOM      1  C   HIS D 487      25.400  48.445  41.071  1.00 20.76 LIG 0.25  C 
ATOM      2 O    HIS D 487      26.602  48.695  41.110  1.00 23.11 LIG-0.27  OA
ATOM      3  N   ALA D 488      24.464  49.334  41.387  1.00 15.78 LIG-0.35  N 
ATOM      4 H    ALA D 488      23.620  49.184  41.328  1.00 15.78 LIG 0.16  HD
ENDROOT
BRANCH 3 5
ATOM      5  CA  ALA D 488      24.807  50.663  41.871  1.00 17.18 LIG 0.17  C 
ATOM      6  CB  ALA D 488      23.561  51.525  41.965  1.00 18.90 LIG 0.04  C 
BRANCH 5 7
ATOM      7  C   ALA D 488      25.487  50.585  43.227  1.00 23.02 LIG 0.24  C 
ATOM      8 O    ALA D 488      25.318  49.608  43.963  1.00 24.91 LIG-0.27  OA
ATOM      9  N   GLY D 489      26.204  51.647  43.577  1.00 25.69 LIG-0.35  N 
ATOM     10 H    GLY D 489      26.278  52.359  43.100  1.00 25.69 LIG 0.16  HD
BRANCH 9 11
ATOM     11  CA  GLY D 489      26.934  51.678  44.830  1.00 31.31 LIG 0.23  C 
BRANCH 11 12
ATOM     12  C   GLY D 489      28.125  52.615  44.767  1.00 31.81 LIG 0.24  C 
ATOM     13 O    GLY D 489      28.506  53.056  43.683  1.00 37.54 LIG-0.27  OA
ATOM     14  N   PRO D 490      28.669  53.030  45.921  1.00 32.04 LIG-0.34  N 
ATOM     15  CD  PRO D 490      27.984  53.214  47.211  1.00 30.24 LIG 0.13  C 
ATOM     16  CA  PRO D 490      30.020  53.600  45.937  1.00 28.96 LIG 0.17  C 
ATOM     17  CG  PRO D 490      29.100  53.642  48.125  1.00 27.78 LIG 0.02  C 
ATOM     18  CB  PRO D 490      30.063  54.364  47.260  1.00 26.97 LIG 0.04  C 
BRANCH 16 19
ATOM     19  C   PRO D 490      31.113  52.536  45.853  1.00 23.69 LIG 0.22  C 
ATOM     20 O    PRO D 490      30.978  51.443  46.393  1.00 20.56 LIG-0.29  OA
ENDBRANCH 16 19
ENDBRANCH 11 12
ENDBRANCH 9 11
ENDBRANCH 5 7
ENDBRANCH 3 5
BRANCH 1 21
ATOM     21  CA  HIS D 487      24.910  47.086  40.584  1.00 19.79 LIG 0.28  C 
BRANCH 21 22
ATOM     22  CB  HIS D 487      25.355  46.010  41.566  1.00 13.21 LIG 0.10  C 
BRANCH 22 23
ATOM     23  CG  HIS D 487      24.801  44.656  41.265  1.00  6.04 LIG 0.03  A 
ATOM     24  CD2 HIS D 487      25.157  43.733  40.342  1.00  9.79 LIG 0.14  A 
ATOM     25 NE2  HIS D 487      24.325  42.653  40.507  1.00 21.50 LIG-0.25  NA
ATOM     26  CE1 HIS D 487      23.488  42.902  41.497  1.00 16.19 LIG 0.21  A 
ATOM     27  ND1 HIS D 487      23.756  44.104  41.974  1.00 14.18 LIG-0.35  N 
ATOM     28 HD1  HIS D 487      23.342  44.484  42.625  1.00 14.18 LIG 0.17  HD
ENDBRANCH 22 23
ENDBRANCH 21 22
BRANCH 21 29
ATOM     29  N   HIS D 487      25.430  46.801  39.253  1.00 20.90 LIG-0.07  N 
ATOM     30 H1   HIS D 487      25.005  46.098  38.912  1.00 20.90 LIG 0.28  HD
ATOM     31 H3   HIS D 487      26.301  46.623  39.307  1.00 20.90 LIG 0.28  HD
ATOM     32 H2   HIS D 487      25.304  47.508  38.727  1.00 20.90 LIG 0.28  HD
ENDBRANCH 21 29
ENDBRANCH 1 21
TORSDOF 9
