USER: ADFR SOLUTION from run 0
USER: SCORE 19.918426 LL:  -1.385 LR: -18.566 RR:   0.000 FEB: -13.197
USER: RMSD 0.575441
USER: STATUS Locally minimized using BFGS
USER: GENES 20
USER: genes 0 Translation |==|  0.54161 0.56830 0.56408
USER: genes 1 Rotation |==|  0.49598 0.53317 0.48992 0.99878
USER: genes 2 Torsion [N]-CA--C-[N] |==|  0.37876
USER: genes 3 Torsion [C]-N--CA-[CB] |==|  0.29773
USER: genes 4 Torsion [N]-CA--CB-[CG] |==|  0.58573
USER: genes 5 Torsion [CA]-CB--CG-[CD] |==|  0.49778
USER: genes 6 Torsion [CB]-CG--CD-[CE] |==|  0.55402
USER: genes 7 Torsion [CG]-CD--CE-[NZ] |==|  0.86135
USER: genes 8 Torsion [CD]-CE--NZ-[HZ2] |==|  0.94471
USER: genes 9 Torsion [N]-CA--C-[OXT] |==|  0.96134
USER: genes 10 Torsion [C]-CA--CB-[SG] |==|  0.47377
USER: genes 11 Torsion [CA]-CB--SG-[HG] |==|  0.49376
USER: genes 12 Torsion [C]-CA--N-[C] |==|  0.79445
USER: genes 13 Torsion [N]-C--CA-[N] |==|  0.38749
USER: genes 14 Torsion [C]-CA--N-[H2] |==|  0.76732
USER: genes 15 Torsion [C]-CA--CB-[CG] |==|  0.80612
USER: genes 16 Torsion [CA]-CB--CG-[CD] |==|  0.54318
USER: genes 17 Torsion [CB]-CG--CD-[CE] |==|  0.15739
USER: genes 18 Torsion [CG]-CD--CE-[NZ] |==|  0.16733
USER: genes 19 Torsion [CD]-CE--NZ-[HZ3] |==|  0.10392
ROOT
ATOM      1  CA  CYS B   2       3.998  20.439  15.962  1.00 13.05 LIG 0.18  C 
ENDROOT
BRANCH 1 2
ATOM      2  C   CYS B   2       2.592  20.367  15.393  1.00 11.99 LIG 0.24  C 
ATOM      3  N   LYS B   3       1.614  20.129  16.273  1.00 12.79 LIG-0.34  N 
ATOM      4 H    LYS B   3       1.735  20.000  17.115  1.00 12.79 LIG 0.16  HD
ATOM      5 O    CYS B   2       2.392  20.657  14.209  1.00 13.18 LIG-0.27  OA
BRANCH 3 6
ATOM      6  CA  LYS B   3       0.236  20.072  15.835  1.00 17.07 LIG 0.18  C 
BRANCH 6 7
ATOM      7  CB  LYS B   3      -0.464  18.717  15.774  1.00 17.68 LIG 0.04  C 
BRANCH 7 8
ATOM      8  CG  LYS B   3      -1.500  18.796  14.627  1.00 18.86 LIG 0.00  C 
BRANCH 8 9
ATOM      9  CD  LYS B   3      -2.263  17.521  14.427  1.00 20.79 LIG 0.03  C 
BRANCH 9 10
ATOM     10  CE  LYS B   3      -2.936  17.388  13.054  1.00 22.05 LIG 0.23  C 
BRANCH 10 11
ATOM     11  NZ  LYS B   3      -3.716  18.618  12.753  1.00 26.11 LIG-0.08  N 
ATOM     12 HZ2  LYS B   3      -3.883  19.057  13.509  1.00 26.11 LIG 0.27  HD
ATOM     13 HZ1  LYS B   3      -4.485  18.395  12.363  1.00 26.11 LIG 0.27  HD
ATOM     14 HZ3  LYS B   3      -3.248  19.140  12.205  1.00 26.11 LIG 0.27  HD
ENDBRANCH 10 11
ENDBRANCH 9 10
ENDBRANCH 8 9
ENDBRANCH 7 8
ENDBRANCH 6 7
BRANCH 6 15
ATOM     15  C   LYS B   3      -0.648  20.995  16.710  1.00 17.69 LIG 0.20  C 
ATOM     16 OXT  LYS B   3      -0.250  21.451  17.758  1.00 15.19 LIG-0.65  OA
ATOM     17 O    LYS B   3      -1.714  21.386  16.213  1.00 19.25 LIG-0.65  OA
ENDBRANCH 6 15
ENDBRANCH 3 6
ENDBRANCH 1 2
BRANCH 1 18
ATOM     18  CB  CYS B   2       4.351  21.925  16.151  1.00 11.90 LIG 0.10  C 
BRANCH 18 19
ATOM     19 SG   CYS B   2       5.947  22.080  17.110  1.00 13.34 LIG-0.18  SA
ATOM     20 HG   CYS B   2       6.240  23.239  17.216  1.00 13.34 LIG 0.10  HD
ENDBRANCH 18 19
ENDBRANCH 1 18
BRANCH 1 21
ATOM     21  N   CYS B   2       4.997  19.734  15.172  1.00 10.67 LIG-0.34  N 
ATOM     22 H    CYS B   2       5.510  20.265  14.732  1.00 10.67 LIG 0.16  HD
ATOM     23  C   LYS B   1       5.122  18.441  15.118  1.00  9.81 LIG 0.25  C 
ATOM     24 O    LYS B   1       4.446  17.687  15.818  1.00 12.59 LIG-0.27  OA
BRANCH 23 25
ATOM     25  CA  LYS B   1       6.256  17.850  14.285  1.00 10.58 LIG 0.27  C 
BRANCH 25 26
ATOM     26  N   LYS B   1       6.874  16.678  15.009  1.00  8.28 LIG-0.07  N 
ATOM     27 H1   LYS B   1       7.269  16.140  14.420  1.00  8.28 LIG 0.28  HD
ATOM     28 H3   LYS B   1       6.239  16.229  15.442  1.00  8.28 LIG 0.28  HD
ATOM     29 H2   LYS B   1       7.478  16.974  15.591  1.00  8.28 LIG 0.28  HD
ENDBRANCH 25 26
BRANCH 25 30
ATOM     30  CB  LYS B   1       5.696  17.440  12.912  1.00 12.65 LIG 0.04  C 
BRANCH 30 31
ATOM     31  CG  LYS B   1       4.746  16.238  12.894  1.00 13.69 LIG 0.00  C 
BRANCH 31 32
ATOM     32  CD  LYS B   1       4.564  15.691  11.454  1.00 12.46 LIG 0.03  C 
BRANCH 32 33
ATOM     33  CE  LYS B   1       5.955  15.321  10.859  1.00 14.43 LIG 0.23  C 
BRANCH 33 34
ATOM     34  NZ  LYS B   1       6.501  14.265  11.790  1.00 15.78 LIG-0.08  N 
ATOM     35 HZ1  LYS B   1       7.112  13.780  11.362  1.00 15.78 LIG 0.27  HD
ATOM     36 HZ3  LYS B   1       5.839  13.736  12.059  1.00 15.78 LIG 0.27  HD
ATOM     37 HZ2  LYS B   1       6.875  14.656  12.497  1.00 15.78 LIG 0.27  HD
ENDBRANCH 33 34
ENDBRANCH 32 33
ENDBRANCH 31 32
ENDBRANCH 30 31
ENDBRANCH 25 30
ENDBRANCH 23 25
ENDBRANCH 1 21
TORSDOF 18
