USER: ADFR SOLUTION from run 0
USER: SCORE 16.813371 LL:  -3.699 LR: -14.943 RR:   0.000 FEB:  -8.679
USER: RMSD 0.524118
USER: STATUS Locally minimized using BFGS
USER: GENES 23
USER: genes 0 Translation |==|  0.56267 0.47583 0.51575
USER: genes 1 Rotation |==|  0.50178 0.49771 0.49804 0.99999
USER: genes 2 Torsion [C]-N--CA-[CB] |==|  0.25237
USER: genes 3 Torsion [N]-CA--CB-[CG] |==|  0.17621
USER: genes 4 Torsion [CA]-CB--CG-[CD] |==|  0.49668
USER: genes 5 Torsion [CB]-CG--CD-[OE2] |==|  0.59324
USER: genes 6 Torsion [N]-CA--C-[N] |==|  0.49444
USER: genes 7 Torsion [C]-N--CA-[C] |==|  0.79543
USER: genes 8 Torsion [N]-CA--C-[N] |==|  0.43623
USER: genes 9 Torsion [C]-N--CA-[C] |==|  0.74111
USER: genes 10 Torsion [N]-CA--C-[O] |==|  0.51790
USER: genes 11 Torsion [N]-CA--CB-[CG] |==|  0.74959
USER: genes 12 Torsion [CA]-CB--CG-[CD1] |==|  0.76147
USER: genes 13 Torsion [N]-CA--CB-[CG2] |==|  0.37232
USER: genes 14 Torsion [CA]-CB--OG1-[HG1] |==|  0.49917
USER: genes 15 Torsion [N]-C--CA-[N] |==|  0.39602
USER: genes 16 Torsion [C]-CA--CB-[CG] |==|  0.45571
USER: genes 17 Torsion [CA]-CB--CG-[CD2] |==|  0.76046
USER: genes 18 Torsion [C]-CA--N-[C] |==|  0.64878
USER: genes 19 Torsion [N]-C--CA-[N] |==|  0.53882
USER: genes 20 Torsion [C]-CA--N-[C] |==|  0.54720
USER: genes 21 Torsion [C]-CA--CB-[CG] |==|  0.76353
USER: genes 22 Torsion [CA]-CB--CG-[OD1] |==|  0.15915
ROOT
ATOM      1  C   TRP T   2      72.490  44.005   5.372  1.00 22.72 LIG 0.24  C 
ATOM      2 O    TRP T   2      73.689  44.315   5.460  1.00 25.73 LIG-0.27  OA
ATOM      3  N   GLU T   3      71.547  44.875   5.037  1.00 22.46 LIG-0.35  N 
ATOM      4 H    GLU T   3      70.705  44.705   5.005  1.00 22.46 LIG 0.16  HD
ENDROOT
BRANCH 3 5
ATOM      5  CA  GLU T   3      71.925  46.225   4.690  1.00 22.12 LIG 0.18  C 
BRANCH 5 6
ATOM      6  CB  GLU T   3      72.173  46.337   3.188  1.00 23.21 LIG 0.04  C 
BRANCH 6 7
ATOM      7  CG  GLU T   3      70.928  46.064   2.381  1.00 26.62 LIG 0.12  C 
BRANCH 7 8
ATOM      8  CD  GLU T   3      71.151  46.199   0.911  1.00 29.06 LIG 0.17  C 
ATOM      9 OE2  GLU T   3      70.210  46.628   0.204  1.00 35.17 LIG-0.65  OA
ATOM     10 OE1  GLU T   3      72.265  45.875   0.455  1.00 32.66 LIG-0.65  OA
ENDBRANCH 7 8
ENDBRANCH 6 7
ENDBRANCH 5 6
BRANCH 5 11
ATOM     11  C   GLU T   3      70.884  47.231   5.107  1.00 21.48 LIG 0.24  C 
ATOM     12  N   THR T   4      71.209  48.483   4.846  1.00 23.46 LIG-0.34  N 
ATOM     13 H    THR T   4      71.950  48.694   4.464  1.00 23.46 LIG 0.16  HD
ATOM     14 O    GLU T   3      69.860  46.892   5.663  1.00 21.28 LIG-0.27  OA
BRANCH 12 15
ATOM     15  CA  THR T   4      70.391  49.631   5.155  1.00 25.11 LIG 0.20  C 
BRANCH 15 16
ATOM     16  C   THR T   4      69.213  49.690   4.184  1.00 26.24 LIG 0.24  C 
ATOM     17 O    THR T   4      69.226  49.036   3.147  1.00 26.41 LIG-0.27  OA
ATOM     18  N   PHE T   5      68.150  50.365   4.601  1.00 29.12 LIG-0.34  N 
ATOM     19 H    PHE T   5      68.093  50.720   5.382  1.00 29.12 LIG 0.16  HD
BRANCH 18 20
ATOM     20  CA  PHE T   5      66.974  50.568   3.772  1.00 29.36 LIG 0.19  C 
BRANCH 20 21
ATOM     21  C   PHE T   5      67.102  51.918   3.019  1.00 32.56 LIG 0.20  C 
ATOM     22 O    PHE T   5      66.112  52.304   2.353  1.00 36.67 LIG-0.65  OA
ATOM     23 OXT  PHE T   5      68.159  52.604   3.100  1.00 34.39 LIG-0.65  OA
ENDBRANCH 20 21
BRANCH 20 24
ATOM     24  CB  PHE T   5      65.718  50.621   4.632  1.00 26.24 LIG 0.07  C 
BRANCH 24 25
ATOM     25  CG  PHE T   5      65.062  49.298   4.852  1.00 22.58 LIG-0.06  A 
ATOM     26  CD1 PHE T   5      64.155  48.809   3.931  1.00 21.65 LIG 0.01  A 
ATOM     27  CE1 PHE T   5      63.454  47.658   4.182  1.00 20.51 LIG 0.00  A 
ATOM     28  CZ  PHE T   5      63.658  46.980   5.357  1.00 20.87 LIG 0.00  A 
ATOM     29  CE2 PHE T   5      64.574  47.460   6.280  1.00 20.50 LIG 0.00  A 
ATOM     30  CD2 PHE T   5      65.265  48.600   6.025  1.00 18.29 LIG 0.01  A 
ENDBRANCH 24 25
ENDBRANCH 20 24
ENDBRANCH 18 20
ENDBRANCH 15 16
BRANCH 15 31
ATOM     31  CB  THR T   4      71.313  50.897   5.051  1.00 25.29 LIG 0.15  C 
ATOM     32  CG2 THR T   4      70.688  52.036   4.283  1.00 28.15 LIG 0.04  C 
BRANCH 31 33
ATOM     33 OG1  THR T   4      71.715  51.318   6.364  1.00 26.44 LIG-0.39  OA
ATOM     34 HG1  THR T   4      72.212  51.993   6.303  1.00 26.44 LIG 0.21  HD
ENDBRANCH 31 33
ENDBRANCH 15 31
ENDBRANCH 12 15
ENDBRANCH 5 11
ENDBRANCH 3 5
BRANCH 1 35
ATOM     35  CA  TRP T   2      72.019  42.596   5.706  1.00 22.55 LIG 0.18  C 
BRANCH 35 36
ATOM     36  CB  TRP T   2      71.865  42.453   7.226  1.00 18.37 LIG 0.07  C 
BRANCH 36 37
ATOM     37  CG  TRP T   2      71.050  41.242   7.606  1.00 15.70 LIG-0.03  A 
ATOM     38  CD2 TRP T   2      69.627  41.175   7.709  1.00  9.74 LIG-0.00  A 
ATOM     39  CE2 TRP T   2      69.295  39.859   8.080  1.00 12.08 LIG 0.04  A 
ATOM     40  CE3 TRP T   2      68.601  42.099   7.539  1.00  8.42 LIG 0.01  A 
ATOM     41  CZ2 TRP T   2      67.978  39.456   8.276  1.00 12.57 LIG 0.03  A 
ATOM     42  NE1 TRP T   2      70.466  39.151   8.193  1.00 15.46 LIG-0.36  N 
ATOM     43  CH2 TRP T   2      67.008  40.394   8.098  1.00  9.29 LIG 0.00  A 
ATOM     44  CZ3 TRP T   2      67.318  41.702   7.731  1.00  5.55 LIG 0.00  A 
ATOM     45 HE1  TRP T   2      70.530  38.321   8.410  1.00 15.46 LIG 0.17  HD
ATOM     46  CD1 TRP T   2      71.518  39.984   7.902  1.00 15.83 LIG 0.10  A 
ENDBRANCH 36 37
ENDBRANCH 35 36
BRANCH 35 47
ATOM     47  N   TRP T   2      72.925  41.555   5.238  1.00 22.15 LIG-0.35  N 
ATOM     48  C   ASN T   1      72.537  40.540   4.480  1.00 24.32 LIG 0.24  C 
ATOM     49 O    ASN T   1      71.360  40.355   4.155  1.00 24.18 LIG-0.27  OA
ATOM     50 H    TRP T   2      73.736  41.661   5.501  1.00 22.15 LIG 0.16  HD
BRANCH 48 51
ATOM     51  CA  ASN T   1      73.610  39.501   4.177  1.00 25.81 LIG 0.18  C 
BRANCH 51 52
ATOM     52  N   ASN T   1      73.345  38.554   3.124  1.00 28.18 LIG-0.35  N 
ATOM     53  C   ACE T   0      74.064  37.441   3.036  1.00 27.70 LIG 0.21  C 
ATOM     54 O    ACE T   0      74.561  37.065   1.999  1.00 31.05 LIG-0.27  OA
ATOM     55  CH3 ACE T   0      74.321  36.666   4.307  1.00 28.48 LIG 0.12  C 
ATOM     56 H    ASN T   1      72.709  38.772   2.588  1.00 28.18 LIG 0.16  HD
ENDBRANCH 51 52
BRANCH 51 57
ATOM     57  CB  ASN T   1      75.050  40.080   4.107  1.00 27.81 LIG 0.14  C 
BRANCH 57 58
ATOM     58  CG  ASN T   1      75.429  40.657   2.736  1.00 34.08 LIG 0.22  C 
ATOM     59 OD1  ASN T   1      74.769  41.553   2.208  1.00 41.34 LIG-0.27  OA
ATOM     60  ND2 ASN T   1      76.549  40.197   2.196  1.00 39.83 LIG-0.37  N 
ATOM     61 22HD ASN T   1      76.989  39.570   2.588  1.00 39.83 LIG 0.16  HD
ATOM     62 21HD ASN T   1      76.835  40.526   1.455  1.00 39.83 LIG 0.16  HD
ENDBRANCH 57 58
ENDBRANCH 51 57
ENDBRANCH 48 51
ENDBRANCH 35 47
ENDBRANCH 1 35
TORSDOF 21
