USER: ADFR SOLUTION from run 0
USER: SCORE 13.577489 LL:  -3.128 LR: -11.965 RR:   0.000 FEB:  -6.596
USER: RMSD 0.548901
USER: STATUS Locally minimized using BFGS
USER: GENES 20
USER: genes 0 Translation |==|  0.48195 0.49564 0.47733
USER: genes 1 Rotation |==|  0.51238 0.48786 0.52459 0.99909
USER: genes 2 Torsion [C]-CA--CB-[CG2] |==|  0.13590
USER: genes 3 Torsion [CA]-CB--OG1-[HG1] |==|  0.18592
USER: genes 4 Torsion [N]-CA--C-[N] |==|  0.37222
USER: genes 5 Torsion [C]-N--CA-[C] |==|  0.74901
USER: genes 6 Torsion [N]-CA--CB-[OG] |==|  0.10956
USER: genes 7 Torsion [CA]-CB--OG-[HG] |==|  0.18591
USER: genes 8 Torsion [N]-CA--C-[N] |==|  0.39074
USER: genes 9 Torsion [C]-N--CA-[CB] |==|  0.31980
USER: genes 10 Torsion [N]-CA--CB-[CG1] |==|  0.84150
USER: genes 11 Torsion [N]-CA--C-[OXT] |==|  0.98769
USER: genes 12 Torsion [CB]-CA--N-[C] |==|  0.28275
USER: genes 13 Torsion [N]-C--CA-[N] |==|  0.34774
USER: genes 14 Torsion [C]-CA--N-[C] |==|  0.62093
USER: genes 15 Torsion [N]-C--CA-[N] |==|  0.42294
USER: genes 16 Torsion [C]-CA--N-[H1] |==|  0.39958
USER: genes 17 Torsion [C]-CA--CB-[CG] |==|  0.43694
USER: genes 18 Torsion [CA]-CB--CG-[CD] |==|  0.63680
USER: genes 19 Torsion [CB]-CG--CD-[NE2] |==|  0.57975
ROOT
ATOM      1  CA  THR B   7      38.458  56.599  21.590  1.00 17.88 LIG 0.20  C 
ENDROOT
BRANCH 1 2
ATOM      2  CB  THR B   7      36.911  56.500  21.612  1.00 14.05 LIG 0.15  C 
ATOM      3  CG2 THR B   7      36.278  57.749  21.034  1.00 13.72 LIG 0.04  C 
BRANCH 2 4
ATOM      4 OG1  THR B   7      36.496  55.368  20.839  1.00 17.31 LIG-0.39  OA
ATOM      5 HG1  THR B   7      36.747  54.662  21.219  1.00 17.31 LIG 0.21  HD
ENDBRANCH 2 4
ENDBRANCH 1 2
BRANCH 1 6
ATOM      6  C   THR B   7      38.879  57.940  22.178  1.00 17.05 LIG 0.24  C 
ATOM      7 O    THR B   7      38.882  58.122  23.392  1.00 16.06 LIG-0.27  OA
ATOM      8  N   SER B   8      39.255  58.870  21.307  1.00 14.96 LIG-0.34  N 
ATOM      9 H    SER B   8      39.292  58.752  20.456  1.00 14.96 LIG 0.16  HD
BRANCH 8 10
ATOM     10  CA  SER B   8      39.643  60.194  21.755  1.00 16.48 LIG 0.20  C 
BRANCH 10 11
ATOM     11  CB  SER B   8      40.707  60.784  20.819  1.00 16.65 LIG 0.20  C 
BRANCH 11 12
ATOM     12 OG   SER B   8      40.437  60.474  19.466  1.00 27.09 LIG-0.40  OA
ATOM     13 HG   SER B   8      39.737  60.869  19.223  1.00 27.09 LIG 0.21  HD
ENDBRANCH 11 12
ENDBRANCH 10 11
BRANCH 10 14
ATOM     14  C   SER B   8      38.376  61.057  21.764  1.00 17.61 LIG 0.24  C 
ATOM     15 O    SER B   8      37.522  60.946  20.876  1.00 19.05 LIG-0.27  OA
ATOM     16  N   VAL B   9      38.249  61.904  22.776  1.00 16.11 LIG-0.34  N 
ATOM     17 H    VAL B   9      38.832  61.998  23.401  1.00 16.11 LIG 0.16  HD
BRANCH 16 18
ATOM     18  CA  VAL B   9      37.079  62.764  22.910  1.00 15.65 LIG 0.19  C 
BRANCH 18 19
ATOM     19  CB  VAL B   9      36.270  62.397  24.179  1.00 11.15 LIG 0.01  C 
ATOM     20  CG1 VAL B   9      35.859  60.929  24.136  1.00 14.96 LIG 0.01  C 
ATOM     21  CG2 VAL B   9      37.102  62.665  25.415  1.00  9.83 LIG 0.01  C 
ENDBRANCH 18 19
BRANCH 18 22
ATOM     22  C   VAL B   9      37.468  64.239  22.991  1.00 14.44 LIG 0.20  C 
ATOM     23 O    VAL B   9      36.557  65.092  23.035  1.00 16.00 LIG-0.65  OA
ATOM     24 OXT  VAL B   9      38.678  64.530  23.022  1.00 15.84 LIG-0.65  OA
ENDBRANCH 18 22
ENDBRANCH 16 18
ENDBRANCH 10 14
ENDBRANCH 8 10
ENDBRANCH 1 6
BRANCH 1 25
ATOM     25  N   THR B   7      39.060  55.487  22.309  1.00 17.70 LIG-0.34  N 
ATOM     26 H    THR B   7      39.047  55.562  23.165  1.00 17.70 LIG 0.16  HD
ATOM     27  C   GLN B   6      39.578  54.454  21.658  1.00 20.89 LIG 0.24  C 
ATOM     28 O    GLN B   6      39.602  54.380  20.430  1.00 21.39 LIG-0.27  OA
BRANCH 27 29
ATOM     29  CA  GLN B   6      40.167  53.347  22.508  1.00 22.72 LIG 0.18  C 
BRANCH 29 30
ATOM     30  N   GLN B   6      39.539  52.084  22.134  1.00 25.12 LIG-0.35  N 
ATOM     31  C   LYS B   5      39.137  51.197  23.040  1.00 28.85 LIG 0.25  C 
ATOM     32 O    LYS B   5      39.282  51.361  24.253  1.00 29.08 LIG-0.27  OA
ATOM     33 H    GLN B   6      39.455  51.969  21.286  1.00 25.12 LIG 0.16  HD
BRANCH 31 34
ATOM     34  CA  LYS B   5      38.483  49.933  22.496  1.00 31.70 LIG 0.28  C 
ATOM     35  CB  LYS B   5      36.986  50.173  22.262  1.00 33.53 LIG 0.03  C 
BRANCH 34 36
ATOM     36  N   LYS B   5      38.674  48.781  23.427  1.00 35.61 LIG-0.07  N 
ATOM     37 H1   LYS B   5      37.945  48.270  23.421  1.00 35.61 LIG 0.28  HD
ATOM     38 H3   LYS B   5      38.816  49.085  24.251  1.00 35.61 LIG 0.28  HD
ATOM     39 H2   LYS B   5      39.376  48.300  23.164  1.00 35.61 LIG 0.28  HD
ENDBRANCH 34 36
ENDBRANCH 31 34
ENDBRANCH 29 30
BRANCH 29 40
ATOM     40  CB  GLN B   6      41.673  53.292  22.278  1.00 21.86 LIG 0.04  C 
BRANCH 40 41
ATOM     41  CG  GLN B   6      42.430  52.653  23.397  1.00 24.26 LIG 0.10  C 
BRANCH 41 42
ATOM     42  CD  GLN B   6      43.617  53.477  23.858  1.00 23.46 LIG 0.21  C 
ATOM     43  NE2 GLN B   6      44.626  52.792  24.368  1.00 26.30 LIG-0.37  N 
ATOM     44 22HE GLN B   6      45.324  53.205  24.654  1.00 26.30 LIG 0.16  HD
ATOM     45 21HE GLN B   6      44.585  51.935  24.415  1.00 26.30 LIG 0.16  HD
ATOM     46 OE1  GLN B   6      43.626  54.713  23.768  1.00 21.71 LIG-0.27  OA
ENDBRANCH 41 42
ENDBRANCH 40 41
ENDBRANCH 29 40
ENDBRANCH 27 29
ENDBRANCH 1 25
TORSDOF 18
