USER: ADFR SOLUTION from run 0
USER: SCORE 11.612939 LL:  -3.954 LR:  -9.701 RR:   0.000 FEB:  -3.138
USER: RMSD 0.462678
USER: STATUS Locally minimized using BFGS
USER: GENES 24
USER: genes 0 Translation |==|  0.43260 0.50892 0.47000
USER: genes 1 Rotation |==|  0.50051 0.48853 0.48840 0.99973
USER: genes 2 Torsion [C]-CA--CB-[CG] |==|  0.14179
USER: genes 3 Torsion [CA]-CB--CG-[CD] |==|  0.50870
USER: genes 4 Torsion [CB]-CG--CD-[OE1] |==|  0.98069
USER: genes 5 Torsion [N]-CA--C-[N] |==|  0.39275
USER: genes 6 Torsion [C]-N--CA-[CB] |==|  0.48560
USER: genes 7 Torsion [N]-CA--CB-[CG] |==|  0.11703
USER: genes 8 Torsion [CA]-CB--CG-[CD] |==|  0.81296
USER: genes 9 Torsion [CB]-CG--CD-[OE1] |==|  0.89027
USER: genes 10 Torsion [N]-CA--C-[N] |==|  0.36355
USER: genes 11 Torsion [C]-N--CA-[C] |==|  0.71223
USER: genes 12 Torsion [N]-CA--C-[OXT] |==|  0.44633
USER: genes 13 Torsion [N]-CA--CB-[CG2] |==|  0.83661
USER: genes 14 Torsion [CA]-CB--CG1-[CD1] |==|  0.49478
USER: genes 15 Torsion [CB]-CA--N-[C] |==|  0.45929
USER: genes 16 Torsion [N]-C--CA-[N] |==|  0.40142
USER: genes 17 Torsion [C]-CA--N-[C] |==|  0.78333
USER: genes 18 Torsion [N]-C--CA-[N] |==|  0.87365
USER: genes 19 Torsion [C]-CA--CB-[CG] |==|  0.18331
USER: genes 20 Torsion [CA]-CB--CG-[OD1] |==|  0.06565
USER: genes 21 Torsion [C]-CA--N-[H3] |==|  0.21146
USER: genes 22 Torsion [C]-CA--CB-[CG] |==|  0.46888
USER: genes 23 Torsion [CA]-CB--CG-[CD1] |==|  0.20120
ROOT
ATOM      1  CA  GLU E  57       5.928  -6.382  -1.710  1.00 37.57 LIG 0.18  C 
ENDROOT
BRANCH 1 2
ATOM      2  CB  GLU E  57       4.873  -5.300  -1.616  1.00 31.17 LIG 0.04  C 
BRANCH 2 3
ATOM      3  CG  GLU E  57       4.838  -4.371  -2.789  1.00 31.87 LIG 0.12  C 
BRANCH 3 4
ATOM      4  CD  GLU E  57       3.827  -3.270  -2.618  1.00 37.45 LIG 0.17  C 
ATOM      5 OE1  GLU E  57       3.058  -3.303  -1.641  1.00 40.31 LIG-0.65  OA
ATOM      6 OE2  GLU E  57       3.786  -2.365  -3.473  1.00 37.89 LIG-0.65  OA
ENDBRANCH 3 4
ENDBRANCH 2 3
ENDBRANCH 1 2
BRANCH 1 7
ATOM      7  C   GLU E  57       7.297  -5.786  -2.034  1.00 41.20 LIG 0.24  C 
ATOM      8  N   GLU E  58       7.629  -5.881  -3.298  1.00 46.60 LIG-0.35  N 
ATOM      9 H    GLU E  58       7.113  -6.245  -3.880  1.00 46.60 LIG 0.16  HD
ATOM     10 O    GLU E  57       8.036  -5.281  -1.192  1.00 39.74 LIG-0.27  OA
BRANCH 8 11
ATOM     11  CA  GLU E  58       8.870  -5.401  -3.872  1.00 48.53 LIG 0.18  C 
BRANCH 11 12
ATOM     12  CB  GLU E  58       8.905  -5.832  -5.357  1.00 56.76 LIG 0.04  C 
BRANCH 12 13
ATOM     13  CG  GLU E  58       7.600  -5.711  -6.244  1.00 68.50 LIG 0.12  C 
BRANCH 13 14
ATOM     14  CD  GLU E  58       6.381  -6.639  -5.913  1.00 69.79 LIG 0.17  C 
ATOM     15 OE2  GLU E  58       5.226  -6.153  -5.966  1.00 69.71 LIG-0.65  OA
ATOM     16 OE1  GLU E  58       6.551  -7.836  -5.577  1.00 71.02 LIG-0.65  OA
ENDBRANCH 13 14
ENDBRANCH 12 13
ENDBRANCH 11 12
BRANCH 11 17
ATOM     17  C   GLU E  58       9.034  -3.904  -3.655  1.00 48.41 LIG 0.24  C 
ATOM     18  N   ILE E  59      10.215  -3.561  -3.168  1.00 45.67 LIG-0.34  N 
ATOM     19 H    ILE E  59      10.841  -4.122  -2.984  1.00 45.67 LIG 0.16  HD
ATOM     20 O    GLU E  58       8.090  -3.111  -3.821  1.00 49.96 LIG-0.27  OA
BRANCH 18 21
ATOM     21  CA  ILE E  59      10.551  -2.179  -2.901  1.00 48.61 LIG 0.19  C 
BRANCH 21 22
ATOM     22  C   ILE E  59      11.479  -1.647  -4.002  1.00 51.92 LIG 0.20  C 
ATOM     23 OXT  ILE E  59      11.598  -0.403  -4.172  1.00 54.21 LIG-0.65  OA
ATOM     24 O    ILE E  59      12.069  -2.506  -4.702  1.00 54.03 LIG-0.65  OA
ENDBRANCH 21 22
BRANCH 21 25
ATOM     25  CB  ILE E  59      11.160  -2.029  -1.466  1.00 45.36 LIG 0.01  C 
ATOM     26  CG2 ILE E  59      10.149  -2.531  -0.435  1.00 47.34 LIG 0.01  C 
BRANCH 25 27
ATOM     27  CG1 ILE E  59      12.443  -2.832  -1.309  1.00 43.95 LIG 0.00  C 
ATOM     28  CD1 ILE E  59      13.071  -2.668   0.047  1.00 41.62 LIG 0.01  C 
ENDBRANCH 25 27
ENDBRANCH 21 25
ENDBRANCH 18 21
ENDBRANCH 11 17
ENDBRANCH 8 11
ENDBRANCH 1 7
BRANCH 1 29
ATOM     29  N   GLU E  57       6.083  -7.027  -0.432  1.00 40.65 LIG-0.35  N 
ATOM     30  C   PHE E  56       6.718  -8.181  -0.278  1.00 43.72 LIG 0.24  C 
ATOM     31 O    PHE E  56       7.169  -8.871  -1.210  1.00 43.94 LIG-0.27  OA
ATOM     32 H    GLU E  57       5.725  -6.594   0.219  1.00 40.65 LIG 0.16  HD
BRANCH 30 33
ATOM     33  CA  PHE E  56       6.785  -8.674   1.167  1.00 42.97 LIG 0.18  C 
BRANCH 33 34
ATOM     34  N   PHE E  56       6.692 -10.122   1.284  1.00 46.55 LIG-0.35  N 
ATOM     35 H    PHE E  56       7.446 -10.511   1.421  1.00 46.55 LIG 0.16  HD
ATOM     36  C   ASP E  55       5.539 -10.775   1.186  1.00 50.93 LIG 0.25  C 
ATOM     37 O    ASP E  55       4.464 -10.226   0.942  1.00 52.54 LIG-0.27  OA
BRANCH 36 38
ATOM     38  CA  ASP E  55       5.651 -12.297   1.342  1.00 54.04 LIG 0.28  C 
BRANCH 38 39
ATOM     39  CB  ASP E  55       5.906 -12.701   2.813  1.00 59.52 LIG 0.15  C 
BRANCH 39 40
ATOM     40  CG  ASP E  55       4.735 -12.388   3.770  1.00 62.29 LIG 0.17  C 
ATOM     41 OD2  ASP E  55       5.014 -12.275   4.979  1.00 64.60 LIG-0.65  OA
ATOM     42 OD1  ASP E  55       3.554 -12.270   3.364  1.00 62.89 LIG-0.65  OA
ENDBRANCH 39 40
ENDBRANCH 38 39
BRANCH 38 43
ATOM     43  N   ASP E  55       6.819 -12.745   0.505  1.00 53.57 LIG-0.07  N 
ATOM     44 H3   ASP E  55       7.579 -12.541   0.921  1.00 53.57 LIG 0.28  HD
ATOM     45 H2   ASP E  55       6.793 -12.335  -0.284  1.00 53.57 LIG 0.28  HD
ATOM     46 H1   ASP E  55       6.776 -13.626   0.382  1.00 53.57 LIG 0.28  HD
ENDBRANCH 38 43
ENDBRANCH 36 38
ENDBRANCH 33 34
BRANCH 33 47
ATOM     47  CB  PHE E  56       8.077  -8.174   1.845  1.00 40.20 LIG 0.07  C 
BRANCH 47 48
ATOM     48  CG  PHE E  56       8.105  -8.383   3.347  1.00 37.86 LIG-0.06  A 
ATOM     49  CD1 PHE E  56       8.266  -9.660   3.899  1.00 37.96 LIG 0.01  A 
ATOM     50  CE1 PHE E  56       8.296  -9.869   5.288  1.00 36.63 LIG 0.00  A 
ATOM     51  CZ  PHE E  56       8.153  -8.782   6.138  1.00 33.67 LIG 0.00  A 
ATOM     52  CE2 PHE E  56       7.989  -7.501   5.602  1.00 33.57 LIG 0.00  A 
ATOM     53  CD2 PHE E  56       7.969  -7.308   4.214  1.00 33.78 LIG 0.01  A 
ENDBRANCH 47 48
ENDBRANCH 33 47
ENDBRANCH 30 33
ENDBRANCH 1 29
TORSDOF 22
