USER: ADFR SOLUTION from run 0
USER: SCORE 13.225668 LL:  -3.317 LR: -10.047 RR:   0.000 FEB:  -7.661
USER: RMSD 0.548797
USER: STATUS Locally minimized using BFGS
USER: GENES 10
USER: genes 0 Translation |==|  0.49107 0.52186 0.54096
USER: genes 1 Rotation |==|  0.50374 0.48253 0.50632 0.99964
USER: genes 2 Torsion [O]-C--CA-[N] |==|  0.94415
USER: genes 3 Torsion [N]-C--CA-[N] |==|  0.46667
USER: genes 4 Torsion [C]-CA--N-[C] |==|  0.64759
USER: genes 5 Torsion [C]-CA--CB-[CG] |==|  0.46086
USER: genes 6 Torsion [CA]-CB--CG-[CD1] |==|  0.24213
USER: genes 7 Torsion [N]-CA--C-[O] |==|  0.89349
USER: genes 8 Torsion [N]-CA--C-[N] |==|  0.46592
USER: genes 9 Torsion [N]-CA--C-[O] |==|  0.35849
ROOT
ATOM      1  C   PRO B1002      19.572  21.656  19.399  1.00 33.09 LIG 0.24  C 
ATOM      2 O    PRO B1002      19.462  21.058  18.324  1.00 32.82 LIG-0.27  OA
ATOM      3  N   PRO B1003      19.903  22.952  19.457  1.00 33.61 LIG-0.34  N 
ATOM      4  CA  PRO B1003      20.154  23.703  18.226  1.00 34.05 LIG 0.18  C 
ATOM      5  CB  PRO B1003      20.293  25.137  18.727  1.00 34.65 LIG 0.04  C 
ATOM      6  CG  PRO B1003      20.902  24.954  20.078  1.00 34.15 LIG 0.02  C 
ATOM      7  CD  PRO B1003      20.095  23.805  20.642  1.00 34.31 LIG 0.13  C 
ENDROOT
BRANCH 1 8
ATOM      8  CA  PRO B1002      19.328  20.937  20.720  1.00 32.09 LIG 0.18  C 
ATOM      9  N   PRO B1002      18.533  19.738  20.460  1.00 31.87 LIG-0.34  N 
ATOM     10  C   PHE B1001      17.210  19.846  20.271  1.00 31.39 LIG 0.24  C 
ATOM     11  CD  PRO B1002      19.362  18.525  20.585  1.00 31.65 LIG 0.13  C 
ATOM     12 O    PHE B1001      16.628  20.933  20.320  1.00 31.36 LIG-0.27  OA
ATOM     13  CG  PRO B1002      20.774  19.092  20.567  1.00 31.59 LIG 0.02  C 
ATOM     14  CB  PRO B1002      20.612  20.372  21.321  1.00 32.35 LIG 0.04  C 
BRANCH 10 15
ATOM     15  CA  PHE B1001      16.442  18.564  19.995  1.00 30.70 LIG 0.18  C 
BRANCH 15 16
ATOM     16  N   PHE B1001      15.001  18.784  20.090  1.00 31.26 LIG-0.35  N 
ATOM     17  C   ACE B1000      14.223  18.032  20.867  1.00 32.54 LIG 0.21  C 
ATOM     18  CH3 ACE B1000      12.733  18.166  20.549  1.00 32.86 LIG 0.12  C 
ATOM     19 O    ACE B1000      14.647  17.070  21.517  1.00 32.71 LIG-0.27  OA
ATOM     20 H    PHE B1001      14.709  19.432  19.606  1.00 31.26 LIG 0.16  HD
ENDBRANCH 15 16
BRANCH 15 21
ATOM     21  CB  PHE B1001      16.840  18.082  18.595  1.00 29.45 LIG 0.07  C 
BRANCH 21 22
ATOM     22  CG  PHE B1001      16.438  16.673  18.294  1.00 29.10 LIG-0.06  A 
ATOM     23  CD2 PHE B1001      17.321  15.624  18.527  1.00 29.14 LIG 0.01  A 
ATOM     24  CE2 PHE B1001      16.955  14.312  18.244  1.00 28.22 LIG 0.00  A 
ATOM     25  CZ  PHE B1001      15.700  14.043  17.724  1.00 28.72 LIG 0.00  A 
ATOM     26  CE1 PHE B1001      14.810  15.085  17.490  1.00 29.15 LIG 0.00  A 
ATOM     27  CD1 PHE B1001      15.182  16.391  17.776  1.00 28.88 LIG 0.01  A 
ENDBRANCH 21 22
ENDBRANCH 15 21
ENDBRANCH 10 15
ENDBRANCH 1 8
BRANCH 4 28
ATOM     28  C   PRO B1003      21.413  23.209  17.514  1.00 33.85 LIG 0.24  C 
ATOM     29 O    PRO B1003      22.408  22.873  18.157  1.00 33.94 LIG-0.27  OA
ATOM     30  N   PRO B1004      21.375  23.137  16.175  1.00 34.14 LIG-0.34  N 
ATOM     31  CA  PRO B1004      22.540  22.680  15.417  1.00 34.66 LIG 0.18  C 
ATOM     32  CD  PRO B1004      20.232  23.392  15.279  1.00 34.36 LIG 0.13  C 
ATOM     33  CB  PRO B1004      21.982  22.503  14.005  1.00 34.44 LIG 0.04  C 
ATOM     34  CG  PRO B1004      20.906  23.538  13.938  1.00 34.41 LIG 0.02  C 
BRANCH 31 35
ATOM     35  C   PRO B1004      23.674  23.705  15.490  1.00 35.04 LIG 0.24  C 
ATOM     36  N   PRO B1005      24.885  23.320  15.061  1.00 35.67 LIG-0.34  N 
ATOM     37  CD  PRO B1005      25.246  21.977  14.578  1.00 35.53 LIG 0.13  C 
ATOM     38  CA  PRO B1005      26.065  24.194  15.074  1.00 36.27 LIG 0.17  C 
ATOM     39  CG  PRO B1005      26.741  21.960  14.777  1.00 36.24 LIG 0.02  C 
ATOM     40  CB  PRO B1005      27.129  23.341  14.390  1.00 36.11 LIG 0.04  C 
ATOM     41 O    PRO B1004      23.471  24.834  15.940  1.00 35.22 LIG-0.27  OA
BRANCH 38 42
ATOM     42  C   PRO B1005      25.837  25.521  14.353  1.00 36.62 LIG 0.22  C 
ATOM     43 O    PRO B1005      26.134  26.573  14.958  1.00 36.45 LIG-0.29  OA
ENDBRANCH 38 42
ENDBRANCH 31 35
ENDBRANCH 4 28
TORSDOF 8
