USER: ADFR SOLUTION from run 0
USER: SCORE 10.464701 LL:  -3.235 LR:  -9.579 RR:   0.000 FEB:  -4.806
USER: RMSD 0.955898
USER: STATUS Locally minimized using BFGS
USER: GENES 18
USER: genes 0 Translation |==|  0.53672 0.50083 0.49377
USER: genes 1 Rotation |==|  0.47847 0.49923 0.51706 0.99924
USER: genes 2 Torsion [C]-CA--CB-[OG] |==|  0.79897
USER: genes 3 Torsion [CA]-CB--OG-[HG] |==|  0.49874
USER: genes 4 Torsion [N]-CA--C-[N] |==|  0.44933
USER: genes 5 Torsion [C]-N--CA-[C] |==|  0.63262
USER: genes 6 Torsion [N]-CA--C-[N] |==|  0.45940
USER: genes 7 Torsion [C]-N--CA-[C] |==|  0.65929
USER: genes 8 Torsion [N]-CA--C-[O] |==|  0.80420
USER: genes 9 Torsion [N]-CA--CB-[CG] |==|  0.90127
USER: genes 10 Torsion [CA]-CB--CG-[CD1] |==|  0.28613
USER: genes 11 Torsion [CB]-CA--N-[C] |==|  0.33569
USER: genes 12 Torsion [N]-C--CA-[N] |==|  0.28333
USER: genes 13 Torsion [C]-CA--N-[C] |==|  0.55506
USER: genes 14 Torsion [N]-C--CA-[N] |==|  0.16734
USER: genes 15 Torsion [C]-CA--N-[H2] |==|  0.83253
USER: genes 16 Torsion [C]-CA--CB-[CG] |==|  0.48058
USER: genes 17 Torsion [CA]-CB--CG-[CD1] |==|  0.40395
ROOT
ATOM      1  CA  SER E  44      27.312  -7.405  18.283  1.00 44.79 LIG 0.20  C 
ENDROOT
BRANCH 1 2
ATOM      2  CB  SER E  44      28.394  -8.425  17.933  1.00 46.10 LIG 0.20  C 
BRANCH 2 3
ATOM      3 OG   SER E  44      28.254  -8.847  16.592  1.00 47.85 LIG-0.40  OA
ATOM      4 HG   SER E  44      28.856  -9.402  16.408  1.00 47.85 LIG 0.21  HD
ENDBRANCH 2 3
ENDBRANCH 1 2
BRANCH 1 5
ATOM      5  C   SER E  44      27.607  -6.089  17.599  1.00 42.78 LIG 0.24  C 
ATOM      6  N   PHE E  45      28.587  -5.383  18.141  1.00 43.36 LIG-0.35  N 
ATOM      7 H    PHE E  45      29.028  -5.627  18.839  1.00 43.36 LIG 0.16  HD
ATOM      8 O    SER E  44      26.952  -5.705  16.629  1.00 37.54 LIG-0.27  OA
BRANCH 6 9
ATOM      9  CA  PHE E  45      29.003  -4.108  17.581  1.00 46.68 LIG 0.18  C 
BRANCH 9 10
ATOM     10  C   PHE E  45      30.520  -4.106  17.468  1.00 48.11 LIG 0.24  C 
ATOM     11 O    PHE E  45      31.195  -4.952  18.057  1.00 49.85 LIG-0.27  OA
ATOM     12  N   GLY E  46      31.065  -3.162  16.711  1.00 50.71 LIG-0.35  N 
ATOM     13 H    GLY E  46      30.629  -2.553  16.287  1.00 50.71 LIG 0.16  HD
BRANCH 12 14
ATOM     14  CA  GLY E  46      32.506  -3.118  16.562  1.00 54.23 LIG 0.21  C 
BRANCH 14 15
ATOM     15  C   GLY E  46      33.097  -1.793  16.989  1.00 55.55 LIG 0.21  C 
ATOM     16 O    GLY E  46      32.872  -0.804  16.266  1.00 59.11 LIG-0.29  OA
ENDBRANCH 14 15
ENDBRANCH 12 14
ENDBRANCH 9 10
BRANCH 9 17
ATOM     17  CB  PHE E  45      28.535  -2.949  18.469  1.00 43.03 LIG 0.07  C 
BRANCH 17 18
ATOM     18  CG  PHE E  45      27.193  -3.181  19.114  1.00 41.93 LIG-0.06  A 
ATOM     19  CD2 PHE E  45      26.016  -3.070  18.377  1.00 42.38 LIG 0.01  A 
ATOM     20  CE2 PHE E  45      24.773  -3.313  18.969  1.00 42.73 LIG 0.00  A 
ATOM     21  CZ  PHE E  45      24.703  -3.670  20.312  1.00 42.74 LIG 0.00  A 
ATOM     22  CE1 PHE E  45      25.872  -3.786  21.059  1.00 41.89 LIG 0.00  A 
ATOM     23  CD1 PHE E  45      27.109  -3.541  20.458  1.00 42.01 LIG 0.01  A 
ENDBRANCH 17 18
ENDBRANCH 9 17
ENDBRANCH 6 9
ENDBRANCH 1 5
BRANCH 1 24
ATOM     24  N   SER E  44      26.005  -7.927  17.942  1.00 46.50 LIG-0.34  N 
ATOM     25  C   PHE E  43      25.115  -8.046  18.902  1.00 47.40 LIG 0.24  C 
ATOM     26 O    PHE E  43      25.376  -7.761  20.068  1.00 45.80 LIG-0.27  OA
ATOM     27 H    SER E  44      25.885  -8.134  17.116  1.00 46.50 LIG 0.16  HD
BRANCH 25 28
ATOM     28  CA  PHE E  43      23.761  -8.601  18.519  1.00 47.87 LIG 0.18  C 
BRANCH 28 29
ATOM     29  N   PHE E  43      23.948  -9.935  19.011  1.00 51.92 LIG-0.35  N 
ATOM     30  C   GLY E  42      23.268 -11.012  18.664  1.00 55.92 LIG 0.24  C 
ATOM     31 O    GLY E  42      22.331 -11.052  17.853  1.00 57.26 LIG-0.27  OA
ATOM     32 H    PHE E  43      24.584  -9.977  19.589  1.00 51.92 LIG 0.16  HD
BRANCH 30 33
ATOM     33  CA  GLY E  42      23.778 -12.235  19.384  1.00 58.33 LIG 0.33  C 
BRANCH 33 34
ATOM     34  N   GLY E  42      23.694 -12.172  20.816  1.00 60.94 LIG-0.07  N 
ATOM     35 H3   GLY E  42      22.845 -12.064  21.059  1.00 60.94 LIG 0.27  HD
ATOM     36 H1   GLY E  42      24.009 -12.928  21.165  1.00 60.94 LIG 0.27  HD
ATOM     37 H2   GLY E  42      24.176 -11.485  21.111  1.00 60.94 LIG 0.27  HD
ENDBRANCH 33 34
ENDBRANCH 30 33
ENDBRANCH 28 29
BRANCH 28 38
ATOM     38  CB  PHE E  43      22.685  -7.857  19.304  1.00 42.32 LIG 0.07  C 
BRANCH 38 39
ATOM     39  CG  PHE E  43      21.254  -8.180  18.913  1.00 35.12 LIG-0.06  A 
ATOM     40  CD1 PHE E  43      20.286  -8.188  19.905  1.00 34.02 LIG 0.01  A 
ATOM     41  CE1 PHE E  43      18.942  -8.444  19.623  1.00 29.46 LIG 0.00  A 
ATOM     42  CZ  PHE E  43      18.541  -8.700  18.316  1.00 28.92 LIG 0.00  A 
ATOM     43  CE2 PHE E  43      19.496  -8.695  17.291  1.00 30.40 LIG 0.00  A 
ATOM     44  CD2 PHE E  43      20.861  -8.436  17.593  1.00 32.72 LIG 0.01  A 
ENDBRANCH 38 39
ENDBRANCH 28 38
ENDBRANCH 25 28
ENDBRANCH 1 24
TORSDOF 16
