USER: ADFR SOLUTION from run 0
USER: SCORE 7.440890 LL:  -1.889 LR:  -5.552 RR:   0.000 FEB:  -2.270
USER: RMSD 3.989491
USER: STATUS Locally minimized using BFGS
USER: GENES 13
USER: genes 0 Translation |==|  0.53945 0.49240 0.48211
USER: genes 1 Rotation |==|  0.65008 0.56135 0.48939 0.97286
USER: genes 2 Torsion [N]-CA--C-[O] |==|  0.83218
USER: genes 3 Torsion [C]-N--CA-[C] |==|  0.15075
USER: genes 4 Torsion [N]-CA--C-[OXT] |==|  0.61479
USER: genes 5 Torsion [N]-CA--CB-[CG] |==|  0.82881
USER: genes 6 Torsion [CA]-CB--CG-[CD2] |==|  0.27181
USER: genes 7 Torsion [CE2]-CZ--OH-[HH] |==|  0.05431
USER: genes 8 Torsion [N]-C--CA-[N] |==|  0.15528
USER: genes 9 Torsion [C]-CA--CB-[CG] |==|  0.77877
USER: genes 10 Torsion [CA]-CB--CG-[CD1] |==|  0.24246
USER: genes 11 Torsion [CE1]-CZ--OH-[HH] |==|  0.47250
USER: genes 12 Torsion [C]-CA--N-[H2] |==|  0.83908
ROOT
ATOM      1  C   TYR B3001      15.243  33.282  27.433  0.70 44.28 LIG 0.25  C 
ATOM      2 O    TYR B3001      14.060  33.457  27.140  0.70 44.11 LIG-0.27  OA
ATOM      3  N   PRO B3002      15.712  32.097  27.884  0.70 46.07 LIG-0.34  N 
ATOM      4  CA  PRO B3002      14.990  30.829  28.063  0.70 46.91 LIG 0.18  C 
ATOM      5  CB  PRO B3002      16.035  29.928  28.722  0.70 46.92 LIG 0.04  C 
ATOM      6  CG  PRO B3002      16.825  30.885  29.524  0.70 47.16 LIG 0.02  C 
ATOM      7  CD  PRO B3002      17.035  32.006  28.531  0.70 47.04 LIG 0.13  C 
ENDROOT
BRANCH 4 8
ATOM      8  C   PRO B3002      13.683  30.794  28.840  0.70 47.26 LIG 0.24  C 
ATOM      9  N   TYR B3003      12.644  30.303  28.162  0.70 47.47 LIG-0.34  N 
ATOM     10 H    TYR B3003      12.703  30.058  27.339  0.70 47.47 LIG 0.16  HD
ATOM     11 O    PRO B3002      13.646  31.141  30.031  0.70 46.37 LIG-0.27  OA
BRANCH 9 12
ATOM     12  CA  TYR B3003      11.307  30.125  28.720  0.70 47.51 LIG 0.19  C 
BRANCH 12 13
ATOM     13  C   TYR B3003      10.708  31.378  29.341  0.70 47.80 LIG 0.20  C 
ATOM     14 OXT  TYR B3003      10.087  31.252  30.415  0.70 46.55 LIG-0.65  OA
ATOM     15 O    TYR B3003      10.835  32.465  28.737  0.70 50.35 LIG-0.65  OA
ENDBRANCH 12 13
BRANCH 12 16
ATOM     16  CB  TYR B3003      11.316  28.973  29.731  0.70 48.13 LIG 0.07  C 
BRANCH 16 17
ATOM     17  CG  TYR B3003      11.690  27.627  29.153  0.70 49.00 LIG-0.06  A 
ATOM     18  CD2 TYR B3003      12.996  27.132  29.261  0.70 49.34 LIG 0.01  A 
ATOM     19  CE2 TYR B3003      13.340  25.893  28.720  0.70 49.34 LIG 0.04  A 
ATOM     20  CZ  TYR B3003      12.370  25.137  28.069  0.70 49.55 LIG 0.07  A 
ATOM     21  CE1 TYR B3003      11.074  25.608  27.950  0.70 48.63 LIG 0.04  A 
ATOM     22  CD1 TYR B3003      10.741  26.846  28.491  0.70 49.33 LIG 0.01  A 
BRANCH 20 23
ATOM     23 OH   TYR B3003      12.689  23.897  27.554  0.70 50.92 LIG-0.36  OA
ATOM     24 HH   TYR B3003      13.389  23.612  27.921  0.70 50.92 LIG 0.22  HD
ENDBRANCH 20 23
ENDBRANCH 16 17
ENDBRANCH 12 16
ENDBRANCH 9 12
ENDBRANCH 4 8
BRANCH 1 25
ATOM     25  CA  TYR B3001      16.253  34.427  27.339  0.70 43.08 LIG 0.28  C 
BRANCH 25 26
ATOM     26  CB  TYR B3001      15.628  35.673  26.679  0.70 40.59 LIG 0.08  C 
BRANCH 26 27
ATOM     27  CG  TYR B3001      15.559  35.593  25.160  0.70 39.24 LIG-0.06  A 
ATOM     28  CD1 TYR B3001      14.468  35.000  24.520  0.70 40.30 LIG 0.01  A 
ATOM     29  CE1 TYR B3001      14.434  34.853  23.114  0.70 38.36 LIG 0.04  A 
ATOM     30  CZ  TYR B3001      15.501  35.309  22.345  0.70 37.05 LIG 0.07  A 
ATOM     31  CE2 TYR B3001      16.591  35.911  22.964  0.70 37.49 LIG 0.04  A 
ATOM     32  CD2 TYR B3001      16.614  36.050  24.364  0.70 38.19 LIG 0.01  A 
BRANCH 30 33
ATOM     33 OH   TYR B3001      15.495  35.146  20.975  0.70 32.30 LIG-0.36  OA
ATOM     34 HH   TYR B3001      16.127  35.583  20.637  0.70 32.30 LIG 0.22  HD
ENDBRANCH 30 33
ENDBRANCH 26 27
ENDBRANCH 25 26
BRANCH 25 35
ATOM     35  N   TYR B3001      17.340  33.885  26.470  0.70 42.81 LIG-0.07  N 
ATOM     36 H3   TYR B3001      17.012  33.698  25.665  0.70 42.81 LIG 0.28  HD
ATOM     37 H2   TYR B3001      17.671  33.144  26.835  0.70 42.81 LIG 0.28  HD
ATOM     38 H1   TYR B3001      17.987  34.491  26.392  0.70 42.81 LIG 0.28  HD
ENDBRANCH 25 35
ENDBRANCH 1 25
TORSDOF 11
