USER: ADFR SOLUTION from run 0
USER: SCORE 13.133373 LL:  -3.086 LR: -11.925 RR:   0.000 FEB:  -6.258
USER: RMSD 0.418587
USER: STATUS Locally minimized using BFGS
USER: GENES 21
USER: genes 0 Translation |==|  0.50572 0.54570 0.51619
USER: genes 1 Rotation |==|  0.49451 0.47061 0.51155 0.99897
USER: genes 2 Torsion [N]-C--CA-[N] |==|  0.47092
USER: genes 3 Torsion [C]-CA--N-[C] |==|  0.64590
USER: genes 4 Torsion [N]-C--CA-[N] |==|  0.40481
USER: genes 5 Torsion [C]-CA--N-[C] |==|  0.84444
USER: genes 6 Torsion [N]-C--CA-[N] |==|  0.44344
USER: genes 7 Torsion [C]-CA--N-[H2] |==|  0.87313
USER: genes 8 Torsion [C]-CA--CB-[CG] |==|  0.26734
USER: genes 9 Torsion [CA]-CB--CG-[CD2] |==|  0.30140
USER: genes 10 Torsion [C]-CA--CB-[CG2] |==|  0.87425
USER: genes 11 Torsion [CA]-CB--CG1-[CD1] |==|  0.58769
USER: genes 12 Torsion [C]-N--CA-[CB] |==|  0.42992
USER: genes 13 Torsion [N]-CA--C-[N] |==|  0.28063
USER: genes 14 Torsion [C]-N--CA-[CB] |==|  0.47754
USER: genes 15 Torsion [N]-CA--CB-[OG] |==|  0.44180
USER: genes 16 Torsion [CA]-CB--OG-[HG] |==|  0.29390
USER: genes 17 Torsion [N]-CA--C-[OXT] |==|  0.44558
USER: genes 18 Torsion [N]-CA--CB-[CG] |==|  0.29097
USER: genes 19 Torsion [CA]-CB--CG-[CD2] |==|  0.69212
USER: genes 20 Torsion [CE2]-CZ--OH-[HH] |==|  0.46123
ROOT
ATOM      1  C   ILE P   3      12.672  22.321  41.666  1.00 41.75 LIG 0.24  C 
ATOM      2 O    ILE P   3      12.668  23.276  40.892  1.00 43.02 LIG-0.27  OA
ATOM      3  N   TYR P   4      12.950  22.451  42.952  1.00 40.49 LIG-0.35  N 
ATOM      4 H    TYR P   4      12.890  21.820  43.532  1.00 40.49 LIG 0.16  HD
ENDROOT
BRANCH 1 5
ATOM      5  CA  ILE P   3      12.319  20.916  41.158  1.00 41.79 LIG 0.18  C 
BRANCH 5 6
ATOM      6  N   ILE P   3      11.796  20.973  39.782  1.00 42.70 LIG-0.35  N 
ATOM      7 H    ILE P   3      12.304  21.396  39.232  1.00 42.70 LIG 0.16  HD
ATOM      8  C   ALA P   2      10.637  20.413  39.435  1.00 42.25 LIG 0.24  C 
ATOM      9 O    ALA P   2       9.926  19.825  40.233  1.00 43.48 LIG-0.27  OA
BRANCH 8 10
ATOM     10  CA  ALA P   2      10.193  20.525  37.980  1.00 41.32 LIG 0.17  C 
ATOM     11  CB  ALA P   2       9.262  21.702  37.805  1.00 39.54 LIG 0.04  C 
BRANCH 10 12
ATOM     12  N   ALA P   2       9.485  19.295  37.648  1.00 41.39 LIG-0.35  N 
ATOM     13 H    ALA P   2       8.687  19.415  37.352  1.00 41.39 LIG 0.16  HD
ATOM     14  C   LEU P   1      10.045  18.100  37.799  1.00 41.33 LIG 0.25  C 
ATOM     15 O    LEU P   1      11.201  17.946  38.205  1.00 41.61 LIG-0.27  OA
BRANCH 14 16
ATOM     16  CA  LEU P   1       9.175  16.899  37.426  1.00 40.25 LIG 0.28  C 
BRANCH 16 17
ATOM     17  N   LEU P   1      10.040  15.720  37.170  1.00 40.65 LIG-0.07  N 
ATOM     18 H2   LEU P   1      10.725  15.960  36.655  1.00 40.65 LIG 0.28  HD
ATOM     19 H1   LEU P   1       9.568  15.088  36.758  1.00 40.65 LIG 0.28  HD
ATOM     20 H3   LEU P   1      10.348  15.403  37.942  1.00 40.65 LIG 0.28  HD
ENDBRANCH 16 17
BRANCH 16 21
ATOM     21  CB  LEU P   1       8.207  16.590  38.573  1.00 38.59 LIG 0.05  C 
BRANCH 21 22
ATOM     22  CG  LEU P   1       6.766  17.117  38.579  1.00 36.61 LIG-0.02  C 
ATOM     23  CD2 LEU P   1       5.825  15.952  38.329  1.00 36.34 LIG 0.01  C 
ATOM     24  CD1 LEU P   1       6.566  18.195  37.526  1.00 35.12 LIG 0.01  C 
ENDBRANCH 21 22
ENDBRANCH 16 21
ENDBRANCH 14 16
ENDBRANCH 10 12
ENDBRANCH 8 10
ENDBRANCH 5 6
BRANCH 5 25
ATOM     25  CB  ILE P   3      13.628  20.121  41.227  1.00 41.77 LIG 0.01  C 
ATOM     26  CG2 ILE P   3      14.753  20.977  40.651  1.00 41.93 LIG 0.01  C 
BRANCH 25 27
ATOM     27  CG1 ILE P   3      13.943  19.747  42.680  1.00 42.12 LIG 0.00  C 
ATOM     28  CD1 ILE P   3      15.408  19.660  43.023  1.00 41.36 LIG 0.01  C 
ENDBRANCH 25 27
ENDBRANCH 5 25
ENDBRANCH 1 5
BRANCH 3 29
ATOM     29  CA  TYR P   4      13.392  23.723  43.474  1.00 39.63 LIG 0.18  C 
BRANCH 29 30
ATOM     30  C   TYR P   4      14.876  23.804  43.106  1.00 40.27 LIG 0.24  C 
ATOM     31  N   SER P   5      15.130  24.553  42.058  1.00 40.75 LIG-0.34  N 
ATOM     32 H    SER P   5      14.518  24.983  41.632  1.00 40.75 LIG 0.16  HD
ATOM     33 O    TYR P   4      15.719  23.180  43.739  1.00 40.83 LIG-0.27  OA
BRANCH 31 34
ATOM     34  CA  SER P   5      16.468  24.742  41.499  1.00 41.35 LIG 0.21  C 
BRANCH 34 35
ATOM     35  CB  SER P   5      16.051  25.502  40.234  1.00 41.35 LIG 0.20  C 
BRANCH 35 36
ATOM     36 OG   SER P   5      17.339  26.061  40.059  1.00 42.37 LIG-0.40  OA
ATOM     37 HG   SER P   5      17.727  25.677  39.421  1.00 42.37 LIG 0.21  HD
ENDBRANCH 35 36
ENDBRANCH 34 35
BRANCH 34 38
ATOM     38  C   SER P   5      17.529  25.062  42.537  1.00 41.28 LIG 0.20  C 
ATOM     39 OXT  SER P   5      18.804  24.807  42.063  1.00 41.68 LIG-0.65  OA
ATOM     40 O    SER P   5      17.256  25.075  43.735  1.00 42.12 LIG-0.65  OA
ENDBRANCH 34 38
ENDBRANCH 31 34
ENDBRANCH 29 30
BRANCH 29 41
ATOM     41  CB  TYR P   4      13.076  23.878  44.980  1.00 37.99 LIG 0.07  C 
BRANCH 41 42
ATOM     42  CG  TYR P   4      14.230  23.740  45.984  1.00 35.75 LIG-0.06  A 
ATOM     43  CD2 TYR P   4      14.267  22.630  46.830  1.00 34.88 LIG 0.01  A 
ATOM     44  CE2 TYR P   4      15.298  22.449  47.735  1.00 35.19 LIG 0.04  A 
ATOM     45  CZ  TYR P   4      16.312  23.377  47.808  1.00 34.95 LIG 0.07  A 
ATOM     46  CE1 TYR P   4      16.305  24.497  46.992  1.00 35.39 LIG 0.04  A 
ATOM     47  CD1 TYR P   4      15.260  24.675  46.083  1.00 35.59 LIG 0.01  A 
BRANCH 45 48
ATOM     48 OH   TYR P   4      17.342  23.193  48.706  1.00 35.19 LIG-0.36  OA
ATOM     49 HH   TYR P   4      17.974  23.714  48.518  1.00 35.19 LIG 0.22  HD
ENDBRANCH 45 48
ENDBRANCH 41 42
ENDBRANCH 29 41
ENDBRANCH 3 29
TORSDOF 19
