USER: ADFR SOLUTION from run 0
USER: SCORE 15.235642 LL:  -2.987 LR: -14.120 RR:   0.000 FEB:  -6.961
USER: RMSD 0.327187
USER: STATUS Locally minimized using BFGS
USER: GENES 26
USER: genes 0 Translation |==|  0.52205 0.51099 0.52144
USER: genes 1 Rotation |==|  0.49983 0.49540 0.49658 0.99997
USER: genes 2 Torsion [N]-C--CA-[N] |==|  0.39898
USER: genes 3 Torsion [C]-CA--N-[C] |==|  0.64808
USER: genes 4 Torsion [N]-C--CA-[N] |==|  0.09541
USER: genes 5 Torsion [C]-CA--N-[C] |==|  0.51947
USER: genes 6 Torsion [N]-C--CA-[N] |==|  0.14455
USER: genes 7 Torsion [C]-CA--CB-[CG] |==|  0.60148
USER: genes 8 Torsion [CA]-CB--CG-[CD2] |==|  0.31120
USER: genes 9 Torsion [C]-CA--N-[H1] |==|  0.59706
USER: genes 10 Torsion [C]-CA--CB-[CG] |==|  0.77151
USER: genes 11 Torsion [CA]-CB--CG-[CD2] |==|  0.14432
USER: genes 12 Torsion [C]-CA--CB-[OG] |==|  0.15256
USER: genes 13 Torsion [CA]-CB--OG-[HG] |==|  0.59464
USER: genes 14 Torsion [C]-N--CA-[C] |==|  0.73036
USER: genes 15 Torsion [N]-CA--C-[N] |==|  0.56096
USER: genes 16 Torsion [C]-N--CA-[C] |==|  0.19511
USER: genes 17 Torsion [N]-CA--C-[OXT] |==|  0.14658
USER: genes 18 Torsion [N]-CA--CB-[CG] |==|  0.65579
USER: genes 19 Torsion [CA]-CB--CG-[CD] |==|  0.90115
USER: genes 20 Torsion [CB]-CG--CD-[CE] |==|  0.26962
USER: genes 21 Torsion [CG]-CD--CE-[NZ] |==|  0.39209
USER: genes 22 Torsion [CD]-CE--NZ-[HZ1] |==|  0.63502
USER: genes 23 Torsion [N]-CA--CB-[CG] |==|  0.58947
USER: genes 24 Torsion [CA]-CB--CG-[CD2] |==|  0.24196
USER: genes 25 Torsion [CE2]-CZ--OH-[HH] |==|  0.99711
ROOT
ATOM      1  C   SER P   3      13.692  20.610  41.573  1.00 32.74 LIG 0.24  C 
ATOM      2 O    SER P   3      14.460  19.693  41.305  1.00 33.45 LIG-0.27  OA
ATOM      3  N   TYR P   4      14.102  21.820  41.941  1.00 32.75 LIG-0.35  N 
ATOM      4 H    TYR P   4      13.569  22.465  42.141  1.00 32.75 LIG 0.16  HD
ENDROOT
BRANCH 1 5
ATOM      5  CA  SER P   3      12.184  20.403  41.509  1.00 31.85 LIG 0.20  C 
BRANCH 5 6
ATOM      6  N   SER P   3      11.736  19.535  40.420  1.00 31.96 LIG-0.34  N 
ATOM      7 H    SER P   3      12.113  18.763  40.382  1.00 31.96 LIG 0.16  HD
ATOM      8  C   LEU P   2      10.803  19.973  39.582  1.00 31.93 LIG 0.24  C 
ATOM      9 O    LEU P   2      10.317  21.097  39.687  1.00 32.53 LIG-0.27  OA
BRANCH 8 10
ATOM     10  CA  LEU P   2      10.343  19.063  38.442  1.00 41.07 LIG 0.18  C 
BRANCH 10 11
ATOM     11  N   LEU P   2      10.265  17.612  38.597  1.00 42.45 LIG-0.35  N 
ATOM     12  C   PHE P   1       9.921  17.146  37.065  1.00 42.69 LIG 0.25  C 
ATOM     13 O    PHE P   1       9.789  17.550  35.910  1.00 43.50 LIG-0.27  OA
ATOM     14 H    LEU P   2      10.384  17.198  39.341  1.00 42.45 LIG 0.16  HD
BRANCH 12 15
ATOM     15  CA  PHE P   1       9.831  15.653  37.353  1.00 41.57 LIG 0.28  C 
BRANCH 15 16
ATOM     16  CB  PHE P   1       9.314  14.949  36.094  1.00 35.06 LIG 0.08  C 
BRANCH 16 17
ATOM     17  CG  PHE P   1       8.394  13.794  36.372  1.00 31.19 LIG-0.06  A 
ATOM     18  CD1 PHE P   1       8.866  12.639  36.985  1.00 39.51 LIG 0.01  A 
ATOM     19  CE1 PHE P   1       8.009  11.574  37.259  1.00 39.01 LIG 0.00  A 
ATOM     20  CZ  PHE P   1       6.662  11.660  36.918  1.00 38.87 LIG 0.00  A 
ATOM     21  CE2 PHE P   1       6.180  12.810  36.305  1.00 39.01 LIG 0.00  A 
ATOM     22  CD2 PHE P   1       7.045  13.868  36.034  1.00 39.51 LIG 0.01  A 
ENDBRANCH 16 17
ENDBRANCH 15 16
BRANCH 15 23
ATOM     23  N   PHE P   1       8.892  15.437  38.493  1.00 43.28 LIG-0.07  N 
ATOM     24 H1   PHE P   1       9.177  14.753  38.986  1.00 43.28 LIG 0.28  HD
ATOM     25 H2   PHE P   1       8.861  16.171  38.995  1.00 43.28 LIG 0.28  HD
ATOM     26 H3   PHE P   1       8.079  15.259  38.178  1.00 43.28 LIG 0.28  HD
ENDBRANCH 15 23
ENDBRANCH 12 15
ENDBRANCH 10 11
BRANCH 10 27
ATOM     27  CB  LEU P   2       8.986  19.584  37.960  1.00 36.43 LIG 0.04  C 
BRANCH 27 28
ATOM     28  CG  LEU P   2       7.663  19.234  38.665  1.00 34.11 LIG-0.02  C 
ATOM     29  CD1 LEU P   2       7.301  17.774  38.441  1.00 33.27 LIG 0.01  C 
ATOM     30  CD2 LEU P   2       7.767  19.530  40.132  1.00 26.81 LIG 0.01  C 
ENDBRANCH 27 28
ENDBRANCH 10 27
ENDBRANCH 8 10
ENDBRANCH 5 6
BRANCH 5 31
ATOM     31  CB  SER P   3      11.690  19.872  42.851  1.00 31.53 LIG 0.20  C 
BRANCH 31 32
ATOM     32 OG   SER P   3      12.094  20.740  43.894  1.00 31.05 LIG-0.40  OA
ATOM     33 HG   SER P   3      12.256  20.292  44.586  1.00 31.05 LIG 0.21  HD
ENDBRANCH 31 32
ENDBRANCH 5 31
ENDBRANCH 1 5
BRANCH 3 34
ATOM     34  CA  TYR P   4      15.519  22.163  42.039  1.00 31.95 LIG 0.18  C 
BRANCH 34 35
ATOM     35  C   TYR P   4      15.954  22.023  43.494  1.00 31.84 LIG 0.24  C 
ATOM     36 O    TYR P   4      15.321  21.305  44.269  1.00 32.23 LIG-0.27  OA
ATOM     37  N   LYS P   5      17.038  22.701  43.858  1.00 32.16 LIG-0.34  N 
ATOM     38 H    LYS P   5      17.520  23.177  43.327  1.00 32.16 LIG 0.16  HD
BRANCH 37 39
ATOM     39  CA  LYS P   5      17.483  22.668  45.227  1.00 31.76 LIG 0.18  C 
BRANCH 39 40
ATOM     40  C   LYS P   5      18.050  21.305  45.615  1.00 32.94 LIG 0.20  C 
ATOM     41 OXT  LYS P   5      18.949  20.762  44.934  1.00 33.46 LIG-0.65  OA
ATOM     42 O    LYS P   5      17.943  20.890  46.765  1.00 33.40 LIG-0.65  OA
ENDBRANCH 39 40
BRANCH 39 43
ATOM     43  CB  LYS P   5      16.327  23.018  46.160  1.00 39.97 LIG 0.04  C 
BRANCH 43 44
ATOM     44  CG  LYS P   5      16.663  24.179  47.045  1.00 38.10 LIG 0.00  C 
BRANCH 44 45
ATOM     45  CD  LYS P   5      18.051  24.139  47.414  1.00 35.88 LIG 0.03  C 
BRANCH 45 46
ATOM     46  CE  LYS P   5      18.870  24.793  46.810  1.00 33.52 LIG 0.23  C 
BRANCH 46 47
ATOM     47  NZ  LYS P   5      19.974  25.451  47.557  1.00 33.07 LIG-0.08  N 
ATOM     48 HZ1  LYS P   5      20.037  26.302  47.304  1.00 33.07 LIG 0.27  HD
ATOM     49 HZ2  LYS P   5      19.806  25.411  48.430  1.00 33.07 LIG 0.27  HD
ATOM     50 HZ3  LYS P   5      20.740  25.033  47.383  1.00 33.07 LIG 0.27  HD
ENDBRANCH 46 47
ENDBRANCH 45 46
ENDBRANCH 44 45
ENDBRANCH 43 44
ENDBRANCH 39 43
ENDBRANCH 37 39
ENDBRANCH 34 35
BRANCH 34 51
ATOM     51  CB  TYR P   4      15.729  23.605  41.561  1.00 30.77 LIG 0.07  C 
BRANCH 51 52
ATOM     52  CG  TYR P   4      17.059  23.887  40.885  1.00 30.74 LIG-0.06  A 
ATOM     53  CD2 TYR P   4      17.217  23.680  39.514  1.00 30.34 LIG 0.01  A 
ATOM     54  CE2 TYR P   4      18.417  23.974  38.873  1.00 30.16 LIG 0.04  A 
ATOM     55  CZ  TYR P   4      19.478  24.485  39.601  1.00 30.33 LIG 0.07  A 
ATOM     56  CE1 TYR P   4      19.352  24.696  40.966  1.00 30.37 LIG 0.04  A 
ATOM     57  CD1 TYR P   4      18.143  24.395  41.602  1.00 30.89 LIG 0.01  A 
BRANCH 55 58
ATOM     58 OH   TYR P   4      20.653  24.801  38.960  1.00 30.16 LIG-0.36  OA
ATOM     59 HH   TYR P   4      20.584  24.620  38.142  1.00 30.16 LIG 0.22  HD
ENDBRANCH 55 58
ENDBRANCH 51 52
ENDBRANCH 34 51
ENDBRANCH 3 34
TORSDOF 24
