USER: ADFR SOLUTION from run 0
USER: SCORE 13.494024 LL:  -4.242 LR: -10.787 RR:   0.000 FEB:  -4.821
USER: RMSD 0.935985
USER: STATUS Locally minimized using BFGS
USER: GENES 22
USER: genes 0 Translation |==|  0.56453 0.48625 0.52917
USER: genes 1 Rotation |==|  0.50540 0.47404 0.50981 0.99920
USER: genes 2 Torsion [N]-CA--C-[N] |==|  0.39054
USER: genes 3 Torsion [C]-N--CA-[CB] |==|  0.42361
USER: genes 4 Torsion [N]-CA--C-[N] |==|  0.32708
USER: genes 5 Torsion [C]-N--CA-[C] |==|  0.15710
USER: genes 6 Torsion [N]-CA--CB-[CG1] |==|  0.49651
USER: genes 7 Torsion [CA]-CB--CG1-[CD1] |==|  0.53350
USER: genes 8 Torsion [N]-CA--C-[OXT] |==|  0.28617
USER: genes 9 Torsion [N]-CA--CB-[CG] |==|  0.49203
USER: genes 10 Torsion [CA]-CB--CG-[ND1] |==|  0.05660
USER: genes 11 Torsion [C]-CA--CB-[CG] |==|  0.26677
USER: genes 12 Torsion [CA]-CB--CG-[CD2] |==|  0.94481
USER: genes 13 Torsion [C]-CA--N-[C] |==|  0.80556
USER: genes 14 Torsion [N]-C--CA-[N] |==|  0.40238
USER: genes 15 Torsion [C]-CA--CB-[CG] |==|  0.17109
USER: genes 16 Torsion [CA]-CB--CG-[CD2] |==|  0.47753
USER: genes 17 Torsion [C]-CA--N-[C] |==|  0.81159
USER: genes 18 Torsion [N]-C--CA-[N] |==|  0.83268
USER: genes 19 Torsion [C]-CA--N-[H2] |==|  0.83632
USER: genes 20 Torsion [C]-CA--CB-[CG] |==|  0.26783
USER: genes 21 Torsion [CA]-CB--CG-[OD1] |==|  0.99652
ROOT
ATOM      1  CA  LEU D  11      20.366   6.528  63.385  1.00 47.89 LIG 0.18  C 
ENDROOT
BRANCH 1 2
ATOM      2  C   LEU D  11      19.000   6.363  62.732  1.00 48.14 LIG 0.24  C 
ATOM      3 O    LEU D  11      18.168   5.596  63.199  1.00 47.13 LIG-0.27  OA
ATOM      4  N   HIS D  12      18.791   7.063  61.623  1.00 49.28 LIG-0.35  N 
ATOM      5 H    HIS D  12      19.357   7.614  61.282  1.00 49.28 LIG 0.16  HD
BRANCH 4 6
ATOM      6  CA  HIS D  12      17.539   6.933  60.885  1.00 50.49 LIG 0.18  C 
BRANCH 6 7
ATOM      7  C   HIS D  12      17.562   5.737  59.935  1.00 51.38 LIG 0.24  C 
ATOM      8  N   ILE D  13      16.658   4.808  60.200  1.00 53.16 LIG-0.34  N 
ATOM      9 H    ILE D  13      16.130   4.878  60.876  1.00 53.16 LIG 0.16  HD
ATOM     10 O    HIS D  12      18.357   5.677  59.009  1.00 51.57 LIG-0.27  OA
BRANCH 8 11
ATOM     11  CA  ILE D  13      16.413   3.575  59.434  1.00 55.12 LIG 0.19  C 
BRANCH 11 12
ATOM     12  CB  ILE D  13      15.553   3.796  58.137  1.00 55.01 LIG 0.01  C 
ATOM     13  CG2 ILE D  13      16.143   4.871  57.206  1.00 56.15 LIG 0.01  C 
BRANCH 12 14
ATOM     14  CG1 ILE D  13      15.378   2.469  57.391  1.00 55.50 LIG 0.00  C 
ATOM     15  CD1 ILE D  13      14.803   2.614  55.956  1.00 55.45 LIG 0.01  C 
ENDBRANCH 12 14
ENDBRANCH 11 12
BRANCH 11 16
ATOM     16  C   ILE D  13      17.573   2.599  59.214  1.00 55.63 LIG 0.20  C 
ATOM     17 OXT  ILE D  13      17.602   1.573  59.907  1.00 55.86 LIG-0.65  OA
ATOM     18 O    ILE D  13      18.435   2.814  58.359  1.00 56.94 LIG-0.65  OA
ENDBRANCH 11 16
ENDBRANCH 8 11
ENDBRANCH 6 7
BRANCH 6 19
ATOM     19  CB  HIS D  12      17.216   8.213  60.112  1.00 50.55 LIG 0.10  C 
BRANCH 19 20
ATOM     20  CG  HIS D  12      15.976   8.119  59.280  1.00 49.61 LIG 0.05  A 
ATOM     21 ND1  HIS D  12      14.915   7.281  59.349  1.00 49.92 LIG-0.25  NA
ATOM     22  CE1 HIS D  12      14.053   7.637  58.343  1.00 49.12 LIG 0.21  A 
ATOM     23  NE2 HIS D  12      14.553   8.672  57.694  1.00 48.62 LIG-0.36  N 
ATOM     24 HE2  HIS D  12      14.183   9.077  57.031  1.00 48.62 LIG 0.17  HD
ATOM     25  CD2 HIS D  12      15.716   8.981  58.236  1.00 48.49 LIG 0.12  A 
ENDBRANCH 19 20
ENDBRANCH 6 19
ENDBRANCH 4 6
ENDBRANCH 1 2
BRANCH 1 26
ATOM     26  CB  LEU D  11      21.236   5.355  62.946  1.00 47.69 LIG 0.04  C 
BRANCH 26 27
ATOM     27  CG  LEU D  11      22.187   5.532  61.756  1.00 48.05 LIG-0.02  C 
ATOM     28  CD1 LEU D  11      22.266   4.242  60.952  1.00 46.53 LIG 0.01  C 
ATOM     29  CD2 LEU D  11      21.806   6.696  60.872  1.00 50.43 LIG 0.01  C 
ENDBRANCH 26 27
ENDBRANCH 1 26
BRANCH 1 30
ATOM     30  N   LEU D  11      20.312   6.574  64.839  1.00 47.51 LIG-0.35  N 
ATOM     31  C   LEU D  10      19.796   7.604  65.511  1.00 47.80 LIG 0.24  C 
ATOM     32 O    LEU D  10      19.248   8.575  64.970  1.00 47.07 LIG-0.27  OA
ATOM     33 H    LEU D  11      20.642   5.878  65.222  1.00 47.51 LIG 0.16  HD
BRANCH 31 34
ATOM     34  CA  LEU D  10      19.923   7.528  67.027  1.00 47.63 LIG 0.18  C 
BRANCH 34 35
ATOM     35  CB  LEU D  10      18.711   6.841  67.649  1.00 47.29 LIG 0.04  C 
BRANCH 35 36
ATOM     36  CG  LEU D  10      18.518   5.390  67.194  1.00 46.92 LIG-0.02  C 
ATOM     37  CD2 LEU D  10      17.441   4.716  67.976  1.00 45.50 LIG 0.01  C 
ATOM     38  CD1 LEU D  10      19.807   4.580  67.304  1.00 46.83 LIG 0.01  C 
ENDBRANCH 35 36
ENDBRANCH 34 35
BRANCH 34 39
ATOM     39  N   LEU D  10      20.132   8.858  67.574  1.00 47.82 LIG-0.35  N 
ATOM     40 H    LEU D  10      19.482   9.162  68.047  1.00 47.82 LIG 0.16  HD
ATOM     41  C   ASP D   9      21.260   9.516  67.336  1.00 48.63 LIG 0.25  C 
ATOM     42 O    ASP D   9      22.171   9.065  66.644  1.00 48.10 LIG-0.27  OA
BRANCH 41 43
ATOM     43  CA  ASP D   9      21.372  10.882  67.958  1.00 49.27 LIG 0.28  C 
BRANCH 43 44
ATOM     44  N   ASP D   9      20.263  11.713  67.422  1.00 49.86 LIG-0.07  N 
ATOM     45 H2   ASP D   9      20.326  11.756  66.535  1.00 49.86 LIG 0.28  HD
ATOM     46 H3   ASP D   9      19.483  11.347  67.646  1.00 49.86 LIG 0.28  HD
ATOM     47 H1   ASP D   9      20.314  12.533  67.762  1.00 49.86 LIG 0.28  HD
ENDBRANCH 43 44
BRANCH 43 48
ATOM     48  CB  ASP D   9      21.256  10.745  69.470  1.00 50.02 LIG 0.15  C 
BRANCH 48 49
ATOM     49  CG  ASP D   9      22.593  10.694  70.150  1.00 50.84 LIG 0.17  C 
ATOM     50 OD1  ASP D   9      23.616  10.741  69.446  1.00 53.44 LIG-0.65  OA
ATOM     51 OD2  ASP D   9      22.722  10.632  71.393  1.00 53.75 LIG-0.65  OA
ENDBRANCH 48 49
ENDBRANCH 43 48
ENDBRANCH 41 43
ENDBRANCH 34 39
ENDBRANCH 31 34
ENDBRANCH 1 30
TORSDOF 20
