USER: ADFR SOLUTION from run 0
USER: SCORE 10.083246 LL:  -1.492 LR:  -8.592 RR:   0.000 FEB:  -5.609
USER: RMSD 0.767923
USER: STATUS Locally minimized using BFGS
USER: GENES 12
USER: genes 0 Translation |==|  0.49208 0.57626 0.47031
USER: genes 1 Rotation |==|  0.49634 0.57287 0.52354 0.99409
USER: genes 2 Torsion [C]-N--CA-[C] |==|  0.59709
USER: genes 3 Torsion [N]-CA--C-[O] |==|  0.03925
USER: genes 4 Torsion [N]-CA--CB-[CG] |==|  0.15443
USER: genes 5 Torsion [CA]-CB--CG-[CD] |==|  0.35854
USER: genes 6 Torsion [CB]-CG--CD-[CE] |==|  0.65726
USER: genes 7 Torsion [CG]-CD--CE-[NZ] |==|  0.84855
USER: genes 8 Torsion [CD]-CE--NZ-[HZ2] |==|  0.94433
USER: genes 9 Torsion [N]-C--CA-[N] |==|  0.97504
USER: genes 10 Torsion [C]-CA--N-[H1] |==|  0.44887
USER: genes 11 Torsion [C]-CA--CB-[CG1] |==|  0.86176
ROOT
ATOM      1  C   VAL E1321      37.292  41.908  -3.471  1.00100.00 LIG 0.25  C 
ATOM      2 O    VAL E1321      38.337  42.486  -3.648  1.00 26.63 LIG-0.27  OA
ATOM      3  N   LYS E1322      37.146  40.597  -3.680  1.00 27.49 LIG-0.34  N 
ATOM      4 H    LYS E1322      36.420  40.161  -3.529  1.00 27.49 LIG 0.16  HD
ENDROOT
BRANCH 3 5
ATOM      5  CA  LYS E1322      38.252  39.784  -4.196  1.00 83.53 LIG 0.18  C 
BRANCH 5 6
ATOM      6  C   LYS E1322      37.849  38.626  -5.149  1.00 46.63 LIG 0.20  C 
ATOM      7 O    LYS E1322      36.678  38.602  -5.641  1.00 43.95 LIG-0.65  OA
ATOM      8 OXT  LYS E1322      38.755  37.800  -5.500  1.00100.00 LIG-0.65  OA
ENDBRANCH 5 6
BRANCH 5 9
ATOM      9  CB  LYS E1322      39.172  39.353  -3.085  1.00 27.11 LIG 0.04  C 
BRANCH 9 10
ATOM     10  CG  LYS E1322      38.501  38.610  -1.954  1.00 36.61 LIG 0.00  C 
BRANCH 10 11
ATOM     11  CD  LYS E1322      39.244  37.313  -1.665  1.00 49.53 LIG 0.03  C 
BRANCH 11 12
ATOM     12  CE  LYS E1322      38.351  36.088  -1.762  1.00100.00 LIG 0.23  C 
BRANCH 12 13
ATOM     13  NZ  LYS E1322      37.155  36.188  -0.907  1.00 46.56 LIG-0.08  N 
ATOM     14 HZ1  LYS E1322      36.992  35.399  -0.529  1.00 46.56 LIG 0.27  HD
ATOM     15 HZ2  LYS E1322      37.294  36.797  -0.273  1.00 46.56 LIG 0.27  HD
ATOM     16 HZ3  LYS E1322      36.456  36.430  -1.402  1.00 46.56 LIG 0.27  HD
ENDBRANCH 12 13
ENDBRANCH 11 12
ENDBRANCH 10 11
ENDBRANCH 9 10
ENDBRANCH 5 9
ENDBRANCH 3 5
BRANCH 1 17
ATOM     17  CA  VAL E1321      36.118  42.655  -2.886  1.00 34.64 LIG 0.28  C 
BRANCH 17 18
ATOM     18  N   VAL E1321      34.896  41.852  -2.823  1.00 23.60 LIG-0.07  N 
ATOM     19 H1   VAL E1321      34.326  42.222  -2.248  1.00 23.60 LIG 0.28  HD
ATOM     20 H2   VAL E1321      34.520  41.817  -3.630  1.00 23.60 LIG 0.28  HD
ATOM     21 H3   VAL E1321      35.095  41.027  -2.554  1.00 23.60 LIG 0.28  HD
ENDBRANCH 17 18
BRANCH 17 22
ATOM     22  CB  VAL E1321      36.551  43.253  -1.569  1.00 31.80 LIG 0.02  C 
ATOM     23  CG1 VAL E1321      37.236  42.191  -0.683  1.00 29.70 LIG 0.01  C 
ATOM     24  CG2 VAL E1321      37.458  44.474  -1.807  1.00 23.28 LIG 0.01  C 
ENDBRANCH 17 22
ENDBRANCH 1 17
TORSDOF 10
