USER: ADFR SOLUTION from run 0
USER: SCORE 11.072762 LL:  -3.019 LR: -10.447 RR:   0.000 FEB:  -4.779
USER: RMSD 1.976787
USER: STATUS Locally minimized using BFGS
USER: GENES 21
USER: genes 0 Translation |==|  0.50514 0.52429 0.51043
USER: genes 1 Rotation |==|  0.50626 0.47074 0.55353 0.99623
USER: genes 2 Torsion [N]-C--CA-[N] |==|  0.45800
USER: genes 3 Torsion [C]-CA--CB-[CG] |==|  0.26627
USER: genes 4 Torsion [CA]-CB--CG-[CD1] |==|  0.11196
USER: genes 5 Torsion [C]-CA--N-[C] |==|  0.60050
USER: genes 6 Torsion [N]-C--CA-[N] |==|  0.84761
USER: genes 7 Torsion [C]-CA--N-[C] |==|  0.66106
USER: genes 8 Torsion [N]-C--CA-[N] |==|  0.33445
USER: genes 9 Torsion [C]-CA--CB-[CG1] |==|  0.49520
USER: genes 10 Torsion [C]-CA--N-[H3] |==|  0.23162
USER: genes 11 Torsion [C]-N--CA-[CB] |==|  0.33625
USER: genes 12 Torsion [N]-CA--CB-[CG] |==|  0.59061
USER: genes 13 Torsion [CA]-CB--CG-[CD] |==|  0.23293
USER: genes 14 Torsion [CB]-CG--CD-[NE] |==|  0.58545
USER: genes 15 Torsion [CG]-CD--NE-[HE] |==|  0.04916
USER: genes 16 Torsion [N]-CA--C-[N] |==|  0.47618
USER: genes 17 Torsion [C]-N--CA-[CB] |==|  0.75895
USER: genes 18 Torsion [N]-CA--CB-[OG] |==|  0.49665
USER: genes 19 Torsion [CA]-CB--OG-[HG] |==|  0.47983
USER: genes 20 Torsion [N]-CA--C-[O] |==|  0.02517
ROOT
ATOM      1  C   PHE B   3      12.734  14.169   4.553  0.50 54.14 LIG 0.24  C 
ATOM      2 O    PHE B   3      13.073  15.358   4.598  0.50 54.24 LIG-0.27  OA
ATOM      3  N   ARG B   4      11.693  13.695   3.847  0.50 53.92 LIG-0.35  N 
ATOM      4 H    ARG B   4      11.484  12.861   3.871  0.50 53.92 LIG 0.16  HD
ENDROOT
BRANCH 1 5
ATOM      5  CA  PHE B   3      13.340  13.087   5.470  0.50 54.27 LIG 0.18  C 
BRANCH 5 6
ATOM      6  CB  PHE B   3      12.205  13.184   6.495  0.50 54.22 LIG 0.07  C 
BRANCH 6 7
ATOM      7  CG  PHE B   3      11.069  12.208   6.393  0.50 54.33 LIG-0.06  A 
ATOM      8  CD1 PHE B   3      11.212  10.865   6.092  0.50 54.51 LIG 0.01  A 
ATOM      9  CE1 PHE B   3      10.081  10.029   6.103  0.50 54.50 LIG 0.00  A 
ATOM     10  CZ  PHE B   3       8.833  10.543   6.444  0.50 54.39 LIG 0.00  A 
ATOM     11  CE2 PHE B   3       8.710  11.869   6.770  0.50 54.37 LIG 0.00  A 
ATOM     12  CD2 PHE B   3       9.813  12.678   6.753  0.50 54.38 LIG 0.01  A 
ENDBRANCH 6 7
ENDBRANCH 5 6
BRANCH 5 13
ATOM     13  N   PHE B   3      14.701  13.366   6.043  0.50 54.44 LIG-0.35  N 
ATOM     14  C   ALA B   2      15.624  12.400   6.221  0.50 54.50 LIG 0.24  C 
ATOM     15 O    ALA B   2      15.580  11.307   5.736  0.50 54.60 LIG-0.27  OA
ATOM     16 H    PHE B   3      14.833  14.191   6.245  0.50 54.44 LIG 0.16  HD
BRANCH 14 17
ATOM     17  CA  ALA B   2      17.040  12.731   6.841  0.50 54.51 LIG 0.17  C 
ATOM     18  CB  ALA B   2      16.964  12.877   8.370  0.50 54.51 LIG 0.04  C 
BRANCH 17 19
ATOM     19  N   ALA B   2      17.894  13.788   6.224  0.50 54.51 LIG-0.35  N 
ATOM     20  C   VAL B   1      19.136  13.552   5.766  0.50 54.58 LIG 0.25  C 
ATOM     21 O    VAL B   1      19.740  12.499   5.993  0.50 54.60 LIG-0.27  OA
ATOM     22 H    ALA B   2      17.517  14.561   6.190  0.50 54.51 LIG 0.16  HD
BRANCH 20 23
ATOM     23  CA  VAL B   1      19.833  14.714   4.997  0.50 54.68 LIG 0.28  C 
BRANCH 23 24
ATOM     24  CB  VAL B   1      20.069  14.465   3.450  0.50 54.64 LIG 0.02  C 
ATOM     25  CG1 VAL B   1      20.714  15.675   2.794  0.50 54.60 LIG 0.01  C 
ATOM     26  CG2 VAL B   1      20.916  13.259   3.183  0.50 55.61 LIG 0.01  C 
ENDBRANCH 23 24
BRANCH 23 27
ATOM     27  N   VAL B   1      21.098  15.115   5.673  0.50 54.62 LIG-0.07  N 
ATOM     28 H1   VAL B   1      21.301  15.952   5.450  0.50 54.62 LIG 0.28  HD
ATOM     29 H2   VAL B   1      20.994  15.061   6.555  0.50 54.62 LIG 0.28  HD
ATOM     30 H3   VAL B   1      21.756  14.573   5.418  0.50 54.62 LIG 0.28  HD
ENDBRANCH 23 27
ENDBRANCH 20 23
ENDBRANCH 17 19
ENDBRANCH 14 17
ENDBRANCH 5 13
ENDBRANCH 1 5
BRANCH 3 31
ATOM     31  CA  ARG B   4      10.793  14.457   2.973  0.50 53.70 LIG 0.18  C 
BRANCH 31 32
ATOM     32  CB  ARG B   4      10.833  13.909   1.564  0.50 53.42 LIG 0.04  C 
BRANCH 32 33
ATOM     33  CG  ARG B   4      10.638  14.926   0.525  0.50 52.08 LIG 0.02  C 
BRANCH 33 34
ATOM     34  CD  ARG B   4      11.943  15.522   0.305  0.50 49.49 LIG 0.14  C 
BRANCH 34 35
ATOM     35  NE  ARG B   4      11.953  16.902  -0.094  0.50 47.76 LIG-0.23  N 
ATOM     36 HE   ARG B   4      11.254  17.388   0.027  0.50 47.76 LIG 0.18  HD
ATOM     37  CZ  ARG B   4      13.022  17.424  -0.643  0.50 46.12 LIG 0.67  C 
ATOM     38  NH1 ARG B   4      14.080  16.640  -0.816  0.50 45.18 LIG-0.23  N 
ATOM     39  NH2 ARG B   4      13.051  18.690  -1.012  0.50 44.70 LIG-0.23  N 
ATOM     40 11HH ARG B   4      14.050  15.816  -0.569  0.50 45.18 LIG 0.17  HD
ATOM     41 12HH ARG B   4      14.796  16.955  -1.174  0.50 45.18 LIG 0.17  HD
ATOM     42 21HH ARG B   4      12.360  19.189  -0.893  0.50 44.70 LIG 0.17  HD
ATOM     43 22HH ARG B   4      13.762  19.018  -1.371  0.50 44.70 LIG 0.17  HD
ENDBRANCH 34 35
ENDBRANCH 33 34
ENDBRANCH 32 33
ENDBRANCH 31 32
BRANCH 31 44
ATOM     44  C   ARG B   4       9.324  14.265   3.322  0.50 54.09 LIG 0.24  C 
ATOM     45 O    ARG B   4       8.934  13.372   4.067  0.50 54.04 LIG-0.27  OA
ATOM     46  N   SER B   5       8.531  15.093   2.650  0.50 54.63 LIG-0.35  N 
ATOM     47 H    SER B   5       8.862  15.704   2.143  0.50 54.63 LIG 0.16  HD
BRANCH 46 48
ATOM     48  CA  SER B   5       7.062  15.127   2.638  0.50 55.09 LIG 0.18  C 
BRANCH 48 49
ATOM     49  CB  SER B   5       6.535  14.165   1.577  0.50 55.14 LIG 0.20  C 
BRANCH 49 50
ATOM     50 OG   SER B   5       5.116  14.168   1.574  0.50 55.40 LIG-0.40  OA
ATOM     51 HG   SER B   5       4.836  13.714   0.925  0.50 55.40 LIG 0.21  HD
ENDBRANCH 49 50
ENDBRANCH 48 49
BRANCH 48 52
ATOM     52  C   SER B   5       6.224  14.936   3.897  0.50 55.23 LIG 0.31  A 
ATOM     53 OXT  SER B   5       6.533  14.904   5.086  0.50 55.49 LIG-0.19  OA
ATOM     54 O    SER B   5       6.880  14.928   4.938  0.50 55.48 LIG-0.19  OA
ENDBRANCH 48 52
ENDBRANCH 46 48
ENDBRANCH 31 44
ENDBRANCH 3 31
TORSDOF 19
