USER: ADFR SOLUTION from run 0
USER: SCORE 15.927211 LL:  -2.564 LR: -13.677 RR:   0.000 FEB:  -9.202
USER: RMSD 0.788027
USER: STATUS Locally minimized using BFGS
USER: GENES 17
USER: genes 0 Translation |==|  0.51841 0.47604 0.48804
USER: genes 1 Rotation |==|  0.49518 0.49592 0.51571 0.99971
USER: genes 2 Torsion [N]-C--CA-[N] |==|  0.29163
USER: genes 3 Torsion [C]-CA--CB-[CG] |==|  0.53634
USER: genes 4 Torsion [CA]-CB--CG-[OD2] |==|  0.39588
USER: genes 5 Torsion [C]-CA--N-[C] |==|  0.63920
USER: genes 6 Torsion [N]-C--CA-[N] |==|  0.34496
USER: genes 7 Torsion [C]-CA--N-[H2] |==|  0.91106
USER: genes 8 Torsion [C]-CA--CB-[CG] |==|  0.16972
USER: genes 9 Torsion [CA]-CB--CG-[CD2] |==|  0.80690
USER: genes 10 Torsion [N]-CA--C-[O] |==|  0.83008
USER: genes 11 Torsion [C]-N--CA-[CB] |==|  0.43242
USER: genes 12 Torsion [N]-CA--C-[O] |==|  0.11715
USER: genes 13 Torsion [N]-CA--CB-[CG] |==|  0.76319
USER: genes 14 Torsion [CA]-CB--CG-[CD] |==|  0.50026
USER: genes 15 Torsion [CB]-CG--CD-[NE] |==|  0.50573
USER: genes 16 Torsion [CG]-CD--NE-[HE] |==|  0.94445
ROOT
ATOM      1  C   ASP R  39      16.902 -14.929  22.671  1.00 39.81 LIG 0.24  C 
ATOM      2 O    ASP R  39      15.867 -14.212  22.944  1.00 39.68 LIG-0.27  OA
ATOM      3  N   PRO R  40      17.936 -14.627  21.943  1.00 39.27 LIG-0.34  N 
ATOM      4  CA  PRO R  40      18.012 -13.208  21.373  1.00 39.34 LIG 0.18  A 
ATOM      5  CB  PRO R  40      19.396 -13.099  20.794  1.00 38.99 LIG 0.04  A 
ATOM      6  CG  PRO R  40      20.087 -14.425  20.979  1.00 38.95 LIG 0.02  A 
ATOM      7  CD  PRO R  40      19.130 -15.416  21.646  1.00 38.89 LIG 0.13  A 
ENDROOT
BRANCH 1 8
ATOM      8  CA  ASP R  39      16.858 -16.360  23.210  1.00 40.71 LIG 0.19  C 
BRANCH 8 9
ATOM      9  CB  ASP R  39      15.460 -17.030  23.039  1.00 43.11 LIG 0.15  C 
BRANCH 9 10
ATOM     10  CG  ASP R  39      15.304 -18.319  23.844  1.00 44.48 LIG 0.17  C 
ATOM     11 OD2  ASP R  39      14.269 -18.700  24.430  1.00 43.91 LIG-0.65  OA
ATOM     12 OD1  ASP R  39      16.439 -18.934  23.880  1.00 46.24 LIG-0.65  OA
ENDBRANCH 9 10
ENDBRANCH 8 9
BRANCH 8 13
ATOM     13  N   ASP R  39      17.195 -16.251  24.608  1.00 41.53 LIG-0.34  N 
ATOM     14 H    ASP R  39      16.725 -15.649  25.006  1.00 41.53 LIG 0.16  HD
ATOM     15  C   LEU R  38      18.076 -16.936  25.242  1.00 42.61 LIG 0.25  C 
ATOM     16 O    LEU R  38      18.811 -17.763  24.648  1.00 42.97 LIG-0.27  OA
BRANCH 15 17
ATOM     17  CA  LEU R  38      18.244 -16.522  26.724  1.00 43.36 LIG 0.28  C 
BRANCH 17 18
ATOM     18  N   LEU R  38      18.036 -17.696  27.575  1.00 44.18 LIG-0.07  N 
ATOM     19 H1   LEU R  38      17.731 -17.437  28.370  1.00 44.18 LIG 0.28  HD
ATOM     20 H2   LEU R  38      17.444 -18.239  27.193  1.00 44.18 LIG 0.28  HD
ATOM     21 H3   LEU R  38      18.808 -18.127  27.679  1.00 44.18 LIG 0.28  HD
ENDBRANCH 17 18
BRANCH 17 22
ATOM     22  CB  LEU R  38      19.605 -15.874  27.153  1.00 42.68 LIG 0.05  C 
BRANCH 22 23
ATOM     23  CG  LEU R  38      20.031 -14.563  26.499  1.00 43.59 LIG-0.02  C 
ATOM     24  CD2 LEU R  38      20.388 -14.841  25.014  1.00 43.82 LIG 0.01  C 
ATOM     25  CD1 LEU R  38      21.186 -13.835  27.217  1.00 42.78 LIG 0.01  C 
ENDBRANCH 22 23
ENDBRANCH 17 22
ENDBRANCH 15 17
ENDBRANCH 8 13
ENDBRANCH 1 8
BRANCH 4 26
ATOM     26  C   PRO R  40      16.756 -13.052  20.533  1.00 39.48 LIG 0.24  C 
ATOM     27 O    PRO R  40      16.558 -13.828  19.522  1.00 40.12 LIG-0.27  OA
ATOM     28  N   ARG R  41      15.801 -12.181  20.868  1.00 39.52 LIG-0.35  N 
ATOM     29 H    ARG R  41      15.888 -11.663  21.549  1.00 39.52 LIG 0.16  HD
BRANCH 28 30
ATOM     30  CA  ARG R  41      14.502 -11.970  20.166  1.00 39.38 LIG 0.13  C 
BRANCH 30 31
ATOM     31  C   ARG R  41      14.506 -11.089  18.887  1.00 39.99 LIG 0.20  C 
ATOM     32 O    ARG R  41      15.464 -11.210  17.993  1.00 39.75 LIG-0.22  OA
ENDBRANCH 30 31
BRANCH 30 33
ATOM     33  CB  ARG R  41      13.451 -11.367  21.152  1.00 38.11 LIG 0.03  C 
BRANCH 33 34
ATOM     34  CG  ARG R  41      12.792 -12.560  21.919  1.00 35.63 LIG 0.02  C 
BRANCH 34 35
ATOM     35  CD  ARG R  41      11.802 -12.044  22.848  1.00 36.53 LIG 0.14  C 
BRANCH 35 36
ATOM     36  NE  ARG R  41      11.047 -13.002  23.755  1.00 36.92 LIG-0.23  N 
ATOM     37 HE   ARG R  41      11.010 -13.835  23.545  1.00 36.92 LIG 0.18  HD
ATOM     38  CZ  ARG R  41      10.415 -12.572  24.910  1.00 37.60 LIG 0.67  C 
ATOM     39  NH2 ARG R  41       9.976 -13.540  25.803  1.00 37.55 LIG-0.23  N 
ATOM     40  NH1 ARG R  41      10.350 -11.259  25.311  1.00 34.72 LIG-0.23  N 
ATOM     41 21HH ARG R  41      10.100 -14.373  25.628  1.00 37.55 LIG 0.17  HD
ATOM     42 22HH ARG R  41       9.580 -13.307  26.530  1.00 37.55 LIG 0.17  HD
ATOM     43 11HH ARG R  41      10.716 -10.644  24.832  1.00 34.72 LIG 0.17  HD
ATOM     44 12HH ARG R  41       9.943 -11.051  26.040  1.00 34.72 LIG 0.17  HD
ENDBRANCH 35 36
ENDBRANCH 34 35
ENDBRANCH 33 34
ENDBRANCH 30 33
ENDBRANCH 28 30
ENDBRANCH 4 26
TORSDOF 15
