USER: ADFR SOLUTION from run 0
USER: SCORE 10.621656 LL:  -2.225 LR:  -8.932 RR:   0.000 FEB:  -4.457
USER: RMSD 0.858988
USER: STATUS Locally minimized using BFGS
USER: GENES 17
USER: genes 0 Translation |==|  0.50358 0.50347 0.46218
USER: genes 1 Rotation |==|  0.55925 0.53005 0.48947 0.99545
USER: genes 2 Torsion [C]-CA--N-[C] |==|  0.58613
USER: genes 3 Torsion [N]-C--CA-[N] |==|  0.48544
USER: genes 4 Torsion [C]-CA--N-[C] |==|  0.56620
USER: genes 5 Torsion [N]-C--CA-[N] |==|  0.40914
USER: genes 6 Torsion [C]-CA--N-[H1] |==|  0.49829
USER: genes 7 Torsion [C]-CA--CB-[OG] |==|  0.80506
USER: genes 8 Torsion [CA]-CB--OG-[HG] |==|  0.49597
USER: genes 9 Torsion [N]-CA--CB-[CG1] |==|  0.76793
USER: genes 10 Torsion [N]-CA--C-[N] |==|  0.46667
USER: genes 11 Torsion [C]-N--CA-[C] |==|  0.63323
USER: genes 12 Torsion [N]-CA--C-[N] |==|  0.40107
USER: genes 13 Torsion [C]-N--CA-[CB] |==|  0.44645
USER: genes 14 Torsion [N]-CA--C-[O] |==|  0.48611
USER: genes 15 Torsion [N]-CA--CB-[OG] |==|  0.13155
USER: genes 16 Torsion [CA]-CB--OG-[HG] |==|  0.51629
ROOT
ATOM      1  CA  VAL B 303      13.237   3.884  31.615  1.00 28.18 LIG 0.18  C 
ENDROOT
BRANCH 1 2
ATOM      2  N   VAL B 303      12.037   3.540  32.367  1.00 29.68 LIG-0.35  N 
ATOM      3  C   SER B 302      11.479   2.334  32.294  1.00 31.00 LIG 0.24  C 
ATOM      4 O    SER B 302      11.924   1.438  31.564  1.00 32.88 LIG-0.27  OA
ATOM      5 H    VAL B 303      11.730   4.180  32.854  1.00 29.68 LIG 0.16  HD
BRANCH 3 6
ATOM      6  CA  SER B 302      10.218   2.112  33.154  1.00 30.54 LIG 0.20  C 
BRANCH 6 7
ATOM      7  N   SER B 302       9.613   0.801  32.909  1.00 26.47 LIG-0.34  N 
ATOM      8  C   ALA B 301       8.325   0.555  33.149  1.00 26.40 LIG 0.25  C 
ATOM      9 O    ALA B 301       7.551   1.386  33.626  1.00 23.28 LIG-0.27  OA
ATOM     10 H    SER B 302      10.160   0.213  32.601  1.00 26.47 LIG 0.16  HD
BRANCH 8 11
ATOM     11  CA  ALA B 301       7.834  -0.857  32.830  1.00 27.42 LIG 0.27  C 
ATOM     12  CB  ALA B 301       7.289  -0.934  31.372  1.00 28.79 LIG 0.05  C 
BRANCH 11 13
ATOM     13  N   ALA B 301       6.755  -1.250  33.791  1.00 29.28 LIG-0.07  N 
ATOM     14 H1   ALA B 301       6.466  -2.069  33.596  1.00 29.28 LIG 0.28  HD
ATOM     15 H2   ALA B 301       7.078  -1.240  34.620  1.00 29.28 LIG 0.28  HD
ATOM     16 H3   ALA B 301       6.078  -0.676  33.730  1.00 29.28 LIG 0.28  HD
ENDBRANCH 11 13
ENDBRANCH 8 11
ENDBRANCH 6 7
BRANCH 6 17
ATOM     17  CB  SER B 302      10.586   2.280  34.632  1.00 31.87 LIG 0.20  C 
BRANCH 17 18
ATOM     18 OG   SER B 302      11.392   1.204  35.061  1.00 37.10 LIG-0.40  OA
ATOM     19 HG   SER B 302      11.603   1.317  35.866  1.00 37.10 LIG 0.21  HD
ENDBRANCH 17 18
ENDBRANCH 6 17
ENDBRANCH 3 6
ENDBRANCH 1 2
BRANCH 1 20
ATOM     20  CB  VAL B 303      12.877   4.485  30.202  1.00 29.00 LIG 0.01  C 
ATOM     21  CG1 VAL B 303      12.627   3.362  29.217  1.00 28.23 LIG 0.01  C 
ATOM     22  CG2 VAL B 303      11.621   5.362  30.290  1.00 26.76 LIG 0.01  C 
ENDBRANCH 1 20
BRANCH 1 23
ATOM     23  C   VAL B 303      14.014   4.906  32.429  1.00 28.25 LIG 0.24  C 
ATOM     24 O    VAL B 303      13.505   5.433  33.425  1.00 25.63 LIG-0.27  OA
ATOM     25  N   SER B 304      15.255   5.174  32.046  1.00 28.07 LIG-0.34  N 
ATOM     26 H    SER B 304      15.658   4.798  31.386  1.00 28.07 LIG 0.16  HD
BRANCH 25 27
ATOM     27  CA  SER B 304      16.038   6.171  32.765  1.00 30.78 LIG 0.20  C 
BRANCH 27 28
ATOM     28  C   SER B 304      16.674   7.109  31.730  1.00 31.57 LIG 0.24  C 
ATOM     29 O    SER B 304      17.078   6.663  30.651  1.00 32.88 LIG-0.27  OA
ATOM     30  N   ALA B 305      16.784   8.392  32.068  1.00 33.00 LIG-0.35  N 
ATOM     31 H    ALA B 305      16.536   8.698  32.833  1.00 33.00 LIG 0.16  HD
BRANCH 30 32
ATOM     32  CA  ALA B 305      17.339   9.420  31.176  1.00 34.21 LIG 0.16  C 
ATOM     33  CB  ALA B 305      16.880  10.839  31.665  1.00 33.59 LIG 0.04  C 
BRANCH 32 34
ATOM     34  C   ALA B 305      18.860   9.370  31.158  1.00 34.64 LIG 0.22  C 
ATOM     35 O    ALA B 305      19.462  10.132  30.362  1.00 35.93 LIG-0.29  OA
ENDBRANCH 32 34
ENDBRANCH 30 32
ENDBRANCH 27 28
BRANCH 27 36
ATOM     36  CB  SER B 304      17.115   5.492  33.610  1.00 32.96 LIG 0.20  C 
BRANCH 36 37
ATOM     37 OG   SER B 304      17.794   4.524  32.826  1.00 37.22 LIG-0.40  OA
ATOM     38 HG   SER B 304      18.330   4.096  33.310  1.00 37.22 LIG 0.21  HD
ENDBRANCH 36 37
ENDBRANCH 27 36
ENDBRANCH 25 27
ENDBRANCH 1 23
TORSDOF 15
