USER: ADFR SOLUTION from run 0
USER: SCORE 5.337066 LL:  -2.102 LR:  -4.964 RR:   0.000 FEB:   0.107
USER: RMSD 0.477088
USER: STATUS Locally minimized using BFGS
USER: GENES 19
USER: genes 0 Translation |==|  0.52566 0.54350 0.50774
USER: genes 1 Rotation |==|  0.50466 0.48783 0.51007 0.99973
USER: genes 2 Torsion [N]-C--CA-[N] |==|  0.36111
USER: genes 3 Torsion [C]-CA--CB-[CG] |==|  0.26531
USER: genes 4 Torsion [CA]-CB--CG-[CD] |==|  0.49563
USER: genes 5 Torsion [CB]-CG--CD-[CE] |==|  0.48613
USER: genes 6 Torsion [CG]-CD--CE-[NZ] |==|  0.17482
USER: genes 7 Torsion [CD]-CE--NZ-[HZ2] |==|  0.06694
USER: genes 8 Torsion [C]-CA--N-[C] |==|  0.50652
USER: genes 9 Torsion [N]-C--CA-[N] |==|  0.14354
USER: genes 10 Torsion [C]-CA--N-[H1] |==|  0.57500
USER: genes 11 Torsion [C]-N--CA-[CB] |==|  0.84195
USER: genes 12 Torsion [N]-CA--C-[N] |==|  0.39729
USER: genes 13 Torsion [C]-N--CA-[CB] |==|  0.23384
USER: genes 14 Torsion [N]-CA--CB-[CG1] |==|  0.80004
USER: genes 15 Torsion [CA]-CB--CG1-[CD1] |==|  0.81206
USER: genes 16 Torsion [N]-CA--C-[N] |==|  0.38070
USER: genes 17 Torsion [C]-N--CA-[CB] |==|  0.16923
USER: genes 18 Torsion [N]-CA--C-[O] |==|  0.53094
ROOT
ATOM      1  C   LYS E 802     -12.070  22.865  34.712  1.00 51.37 LIG 0.24  C 
ATOM      2 O    LYS E 802     -12.531  23.449  33.736  1.00 54.76 LIG-0.27  OA
ATOM      3  N   ALA E 803     -12.452  21.642  35.074  1.00 53.01 LIG-0.35  N 
ATOM      4 H    ALA E 803     -12.080  21.208  35.717  1.00 53.01 LIG 0.16  HD
ENDROOT
BRANCH 1 5
ATOM      5  CA  LYS E 802     -11.009  23.532  35.595  1.00 50.80 LIG 0.18  C 
BRANCH 5 6
ATOM      6  CB  LYS E 802     -11.720  24.609  36.416  1.00 49.65 LIG 0.04  C 
BRANCH 6 7
ATOM      7  CG  LYS E 802     -12.145  24.184  37.790  1.00 48.72 LIG 0.00  C 
BRANCH 7 8
ATOM      8  CD  LYS E 802     -12.797  25.343  38.509  1.00 52.85 LIG 0.03  C 
BRANCH 8 9
ATOM      9  CE  LYS E 802     -13.344  24.909  39.848  1.00 52.25 LIG 0.23  C 
BRANCH 9 10
ATOM     10  NZ  LYS E 802     -12.259  24.446  40.748  1.00 53.26 LIG-0.08  N 
ATOM     11 HZ1  LYS E 802     -12.190  23.560  40.700  1.00 53.26 LIG 0.27  HD
ATOM     12 HZ2  LYS E 802     -11.488  24.816  40.499  1.00 53.26 LIG 0.27  HD
ATOM     13 HZ3  LYS E 802     -12.445  24.684  41.585  1.00 53.26 LIG 0.27  HD
ENDBRANCH 9 10
ENDBRANCH 8 9
ENDBRANCH 7 8
ENDBRANCH 6 7
ENDBRANCH 5 6
BRANCH 5 14
ATOM     14  N   LYS E 802      -9.816  24.131  34.995  1.00 51.06 LIG-0.35  N 
ATOM     15 H    LYS E 802      -9.779  24.105  34.137  1.00 51.06 LIG 0.16  HD
ATOM     16  C   ALA E 801      -8.883  24.665  35.792  1.00 50.59 LIG 0.25  C 
ATOM     17 O    ALA E 801      -8.956  24.621  37.021  1.00 51.18 LIG-0.27  OA
BRANCH 16 18
ATOM     18  CA  ALA E 801      -7.671  25.319  35.140  1.00 50.00 LIG 0.27  C 
ATOM     19  CB  ALA E 801      -6.814  26.014  36.211  1.00 45.45 LIG 0.05  C 
BRANCH 18 20
ATOM     20  N   ALA E 801      -8.094  26.305  34.115  1.00 50.21 LIG-0.07  N 
ATOM     21 H3   ALA E 801      -8.231  27.094  34.502  1.00 50.21 LIG 0.28  HD
ATOM     22 H2   ALA E 801      -8.848  26.029  33.730  1.00 50.21 LIG 0.28  HD
ATOM     23 H1   ALA E 801      -7.457  26.384  33.498  1.00 50.21 LIG 0.28  HD
ENDBRANCH 18 20
ENDBRANCH 16 18
ENDBRANCH 5 14
ENDBRANCH 1 5
BRANCH 3 24
ATOM     24  CA  ALA E 803     -13.543  20.899  34.424  1.00 57.29 LIG 0.17  C 
ATOM     25  CB  ALA E 803     -14.819  21.742  34.500  1.00 55.60 LIG 0.04  C 
BRANCH 24 26
ATOM     26  C   ALA E 803     -13.485  20.258  33.038  1.00 59.81 LIG 0.24  C 
ATOM     27 O    ALA E 803     -12.930  20.796  32.083  1.00 62.26 LIG-0.27  OA
ATOM     28  N   ILE E 804     -14.139  19.100  32.971  1.00 62.20 LIG-0.35  N 
ATOM     29 H    ILE E 804     -14.517  18.759  33.664  1.00 62.20 LIG 0.16  HD
BRANCH 28 30
ATOM     30  CA  ILE E 804     -14.313  18.264  31.783  1.00 63.57 LIG 0.18  C 
BRANCH 30 31
ATOM     31  CB  ILE E 804     -13.114  17.322  31.528  1.00 63.71 LIG 0.01  C 
ATOM     32  CG2 ILE E 804     -13.489  16.270  30.493  1.00 63.48 LIG 0.01  C 
BRANCH 31 33
ATOM     33  CG1 ILE E 804     -11.906  18.116  31.037  1.00 63.94 LIG 0.00  C 
ATOM     34  CD1 ILE E 804     -12.088  18.707  29.676  1.00 63.94 LIG 0.01  C 
ENDBRANCH 31 33
ENDBRANCH 30 31
BRANCH 30 35
ATOM     35  C   ILE E 804     -15.525  17.398  32.137  1.00 65.71 LIG 0.24  C 
ATOM     36  N   ALA E 805     -16.440  17.217  31.188  1.00 67.46 LIG-0.35  N 
ATOM     37 H    ALA E 805     -16.389  17.552  30.398  1.00 67.46 LIG 0.16  HD
ATOM     38 O    ILE E 804     -15.631  16.910  33.268  1.00 65.35 LIG-0.27  OA
BRANCH 36 39
ATOM     39  CA  ALA E 805     -17.634  16.410  31.431  1.00 69.21 LIG 0.16  C 
ATOM     40  CB  ALA E 805     -18.459  17.022  32.566  1.00 68.65 LIG 0.04  C 
BRANCH 39 41
ATOM     41  C   ALA E 805     -18.490  16.283  30.172  1.00 70.07 LIG 0.22  C 
ATOM     42 O    ALA E 805     -19.638  15.800  30.301  1.00 70.08 LIG-0.29  OA
ENDBRANCH 39 41
ENDBRANCH 36 39
ENDBRANCH 30 35
ENDBRANCH 28 30
ENDBRANCH 24 26
ENDBRANCH 3 24
TORSDOF 17
