USER: ADFR SOLUTION from run 0
USER: SCORE 24.664783 LL:  -3.069 LR: -24.469 RR:   0.000 FEB: -17.608
USER: RMSD 0.521711
USER: STATUS Locally minimized using BFGS
USER: GENES 25
USER: genes 0 Translation |==|  0.54751 0.52931 0.54413
USER: genes 1 Rotation |==|  0.51384 0.51306 0.49133 0.99956
USER: genes 2 Torsion [C]-CA--CB-[CG] |==|  0.49683
USER: genes 3 Torsion [CA]-CB--CG-[CD] |==|  0.57204
USER: genes 4 Torsion [CB]-CG--CD-[CE] |==|  0.40760
USER: genes 5 Torsion [CG]-CD--CE-[NZ] |==|  0.26429
USER: genes 6 Torsion [CD]-CE--NZ-[HZ2] |==|  0.77753
USER: genes 7 Torsion [N]-CA--C-[N] |==|  0.33158
USER: genes 8 Torsion [C]-N--CA-[CB] |==|  0.43974
USER: genes 9 Torsion [N]-CA--CB-[CG] |==|  0.56830
USER: genes 10 Torsion [CA]-CB--CG-[CD] |==|  0.57905
USER: genes 11 Torsion [CB]-CG--CD-[CE] |==|  0.48205
USER: genes 12 Torsion [CG]-CD--CE-[NZ] |==|  0.77726
USER: genes 13 Torsion [CD]-CE--NZ-[HZ1] |==|  0.43346
USER: genes 14 Torsion [N]-CA--C-[N] |==|  0.36832
USER: genes 15 Torsion [C]-N--CA-[CB] |==|  0.43170
USER: genes 16 Torsion [N]-CA--C-[OXT] |==|  0.92251
USER: genes 17 Torsion [CB]-CA--N-[C] |==|  0.42794
USER: genes 18 Torsion [N]-C--CA-[N] |==|  0.37435
USER: genes 19 Torsion [C]-CA--CB-[CG] |==|  0.78723
USER: genes 20 Torsion [CA]-CB--CG-[CD] |==|  0.51355
USER: genes 21 Torsion [CB]-CG--CD-[CE] |==|  0.21824
USER: genes 22 Torsion [CG]-CD--CE-[NZ] |==|  0.12448
USER: genes 23 Torsion [CD]-CE--NZ-[HZ3] |==|  0.17614
USER: genes 24 Torsion [C]-CA--N-[H2] |==|  0.75380
ROOT
ATOM      1  CA  LYS B   2       4.015  20.659  16.224  1.00  9.55 LIG 0.18  C 
ENDROOT
BRANCH 1 2
ATOM      2  CB  LYS B   2       4.501  22.072  16.724  1.00  7.13 LIG 0.04  C 
BRANCH 2 3
ATOM      3  CG  LYS B   2       5.770  21.881  17.568  1.00  9.06 LIG 0.00  C 
BRANCH 3 4
ATOM      4  CD  LYS B   2       6.149  22.838  18.604  1.00 20.34 LIG 0.03  C 
BRANCH 4 5
ATOM      5  CE  LYS B   2       6.868  22.317  19.867  1.00 19.41 LIG 0.23  C 
BRANCH 5 6
ATOM      6  NZ  LYS B   2       8.341  22.418  19.775  1.00 27.89 LIG-0.08  N 
ATOM      7 HZ2  LYS B   2       8.656  21.738  19.294  1.00 27.89 LIG 0.27  HD
ATOM      8 HZ3  LYS B   2       8.562  23.186  19.383  1.00 27.89 LIG 0.27  HD
ATOM      9 HZ1  LYS B   2       8.692  22.391  20.593  1.00 27.89 LIG 0.27  HD
ENDBRANCH 5 6
ENDBRANCH 4 5
ENDBRANCH 3 4
ENDBRANCH 2 3
ENDBRANCH 1 2
BRANCH 1 10
ATOM     10  C   LYS B   2       2.751  20.736  15.402  1.00  8.95 LIG 0.24  C 
ATOM     11 O    LYS B   2       2.678  21.290  14.290  1.00  5.49 LIG-0.27  OA
ATOM     12  N   LYS B   3       1.647  20.087  15.886  1.00  9.84 LIG-0.35  N 
ATOM     13 H    LYS B   3       1.620  19.689  16.648  1.00  9.84 LIG 0.16  HD
BRANCH 12 14
ATOM     14  CA  LYS B   3       0.437  20.022  15.147  1.00  6.67 LIG 0.18  C 
BRANCH 14 15
ATOM     15  CB  LYS B   3      -0.491  18.811  15.601  1.00  5.08 LIG 0.04  C 
BRANCH 15 16
ATOM     16  CG  LYS B   3      -1.339  18.574  14.297  1.00 11.87 LIG 0.00  C 
BRANCH 16 17
ATOM     17  CD  LYS B   3      -2.669  18.016  14.629  1.00 16.50 LIG 0.03  C 
BRANCH 17 18
ATOM     18  CE  LYS B   3      -3.561  17.928  13.397  1.00 11.29 LIG 0.23  C 
BRANCH 18 19
ATOM     19  NZ  LYS B   3      -4.174  19.234  13.067  1.00 14.74 LIG-0.08  N 
ATOM     20 HZ1  LYS B   3      -4.387  19.253  12.203  1.00 14.74 LIG 0.27  HD
ATOM     21 HZ2  LYS B   3      -4.909  19.350  13.557  1.00 14.74 LIG 0.27  HD
ATOM     22 HZ3  LYS B   3      -3.596  19.887  13.244  1.00 14.74 LIG 0.27  HD
ENDBRANCH 18 19
ENDBRANCH 17 18
ENDBRANCH 16 17
ENDBRANCH 15 16
ENDBRANCH 14 15
BRANCH 14 23
ATOM     23  C   LYS B   3      -0.430  21.268  15.363  1.00 11.62 LIG 0.24  C 
ATOM     24  N   ALA B   4      -0.911  21.811  14.255  1.00 11.21 LIG-0.34  N 
ATOM     25 H    ALA B   4      -0.730  21.543  13.458  1.00 11.21 LIG 0.16  HD
ATOM     26 O    LYS B   3      -0.668  21.676  16.516  1.00  6.98 LIG-0.27  OA
BRANCH 24 27
ATOM     27  CA  ALA B   4      -1.834  22.967  14.337  1.00 15.60 LIG 0.18  C 
ATOM     28  CB  ALA B   4      -1.787  23.795  13.048  1.00  9.87 LIG 0.04  C 
BRANCH 27 29
ATOM     29  C   ALA B   4      -3.282  22.443  14.541  1.00 11.70 LIG 0.20  C 
ATOM     30 OXT  ALA B   4      -3.472  21.313  14.064  1.00 11.31 LIG-0.65  OA
ATOM     31 O    ALA B   4      -4.160  23.155  15.072  1.00 13.41 LIG-0.65  OA
ENDBRANCH 27 29
ENDBRANCH 24 27
ENDBRANCH 14 23
ENDBRANCH 12 14
ENDBRANCH 1 10
BRANCH 1 32
ATOM     32  N   LYS B   2       5.096  20.020  15.458  1.00  9.26 LIG-0.35  N 
ATOM     33 H    LYS B   2       5.633  20.591  15.106  1.00  9.26 LIG 0.16  HD
ATOM     34  C   LYS B   1       5.261  18.724  15.304  1.00  9.39 LIG 0.25  C 
ATOM     35 O    LYS B   1       4.552  17.878  15.894  1.00 10.41 LIG-0.27  OA
BRANCH 34 36
ATOM     36  CA  LYS B   1       6.398  18.211  14.425  1.00 10.02 LIG 0.27  C 
BRANCH 36 37
ATOM     37  CB  LYS B   1       5.894  17.759  13.030  1.00  9.48 LIG 0.04  C 
BRANCH 37 38
ATOM     38  CG  LYS B   1       5.194  16.423  12.983  1.00 17.99 LIG 0.00  C 
BRANCH 38 39
ATOM     39  CD  LYS B   1       4.818  15.962  11.567  1.00 11.58 LIG 0.03  C 
BRANCH 39 40
ATOM     40  CE  LYS B   1       6.009  15.381  10.796  1.00 12.42 LIG 0.23  C 
BRANCH 40 41
ATOM     41  NZ  LYS B   1       6.753  14.466  11.695  1.00 15.26 LIG-0.08  N 
ATOM     42 HZ3  LYS B   1       6.231  13.782  11.921  1.00 15.26 LIG 0.27  HD
ATOM     43 HZ2  LYS B   1       7.001  14.905  12.429  1.00 15.26 LIG 0.27  HD
ATOM     44 HZ1  LYS B   1       7.476  14.160  11.275  1.00 15.26 LIG 0.27  HD
ENDBRANCH 40 41
ENDBRANCH 39 40
ENDBRANCH 38 39
ENDBRANCH 37 38
ENDBRANCH 36 37
BRANCH 36 45
ATOM     45  N   LYS B   1       7.086  17.099  15.133  1.00  7.61 LIG-0.07  N 
ATOM     46 H1   LYS B   1       7.436  16.538  14.536  1.00  7.61 LIG 0.28  HD
ATOM     47 H2   LYS B   1       7.734  17.429  15.645  1.00  7.61 LIG 0.28  HD
ATOM     48 H3   LYS B   1       6.500  16.663  15.641  1.00  7.61 LIG 0.28  HD
ENDBRANCH 36 45
ENDBRANCH 34 36
ENDBRANCH 1 32
TORSDOF 23
