USER: ADFR SOLUTION from run 0
USER: SCORE 15.222246 LL:  -1.673 LR: -13.857 RR:   0.000 FEB:  -8.786
USER: RMSD 0.656602
USER: STATUS Locally minimized using BFGS
USER: GENES 19
USER: genes 0 Translation |==|  0.51362 0.49427 0.52863
USER: genes 1 Rotation |==|  0.50783 0.51801 0.49835 0.99961
USER: genes 2 Torsion [N]-CA--C-[N] |==|  0.46288
USER: genes 3 Torsion [C]-N--CA-[C] |==|  0.71351
USER: genes 4 Torsion [N]-CA--C-[N] |==|  0.42794
USER: genes 5 Torsion [C]-N--CA-[CB] |==|  0.34758
USER: genes 6 Torsion [N]-CA--C-[O] |==|  0.25246
USER: genes 7 Torsion [CA]-C--O-[HO] |==|  0.09926
USER: genes 8 Torsion [N]-CA--CB-[CG] |==|  0.75728
USER: genes 9 Torsion [CA]-CB--CG-[OD1] |==|  0.95285
USER: genes 10 Torsion [N]-CA--CB-[CG1] |==|  0.80747
USER: genes 11 Torsion [C]-CA--CB-[CG] |==|  0.48612
USER: genes 12 Torsion [CA]-CB--CG-[CD] |==|  0.50194
USER: genes 13 Torsion [CB]-CG--CD-[OE1] |==|  0.09548
USER: genes 14 Torsion [C]-CA--N-[C] |==|  0.59604
USER: genes 15 Torsion [N]-C--CA-[N] |==|  0.36610
USER: genes 16 Torsion [C]-CA--N-[C] |==|  0.79078
USER: genes 17 Torsion [C]-CA--CB-[CG] |==|  0.46538
USER: genes 18 Torsion [CA]-CB--CG-[OD1] |==|  0.92449
ROOT
ATOM      1  CA  GLU C 503      40.019  95.278  22.749  1.00 22.23 LIG 0.18  C 
ENDROOT
BRANCH 1 2
ATOM      2  C   GLU C 503      39.490  95.448  21.328  1.00 22.23 LIG 0.24  C 
ATOM      3 O    GLU C 503      39.428  96.567  20.828  1.00 30.39 LIG-0.27  OA
ATOM      4  N   VAL C 504      39.108  94.347  20.683  1.00 14.81 LIG-0.35  N 
ATOM      5 H    VAL C 504      39.135  93.559  21.025  1.00 14.81 LIG 0.16  HD
BRANCH 4 6
ATOM      6  CA  VAL C 504      38.599  94.389  19.310  1.00 14.81 LIG 0.18  C 
BRANCH 6 7
ATOM      7  C   VAL C 504      37.077  94.253  19.209  1.00 14.81 LIG 0.26  C 
ATOM      8 O    VAL C 504      36.448  93.668  20.086  1.00 11.58 LIG-0.27  OA
ATOM      9 N    ASJ C 505      36.502  94.796  18.135  1.00  2.62 LIG-0.25  NA
BRANCH 9 10
ATOM     10  CA  ASJ C 505      35.054  94.771  17.876  1.00  2.62 LIG 0.15  C 
BRANCH 10 11
ATOM     11  C   ASJ C 505      34.708  93.959  16.640  1.00  2.62 LIG 0.17  C 
BRANCH 11 12
ATOM     12 O    ASJ C 505      34.462  92.597  17.020  1.00 19.56 LIG-0.39  OA
ATOM     13 HO   ASJ C 505      34.082  92.579  17.769  1.00 19.56 LIG 0.21  HD
ENDBRANCH 11 12
ENDBRANCH 10 11
BRANCH 10 14
ATOM     14  CB  ASJ C 505      34.526  96.183  17.655  1.00 12.55 LIG 0.14  C 
BRANCH 14 15
ATOM     15  CG  ASJ C 505      34.141  96.861  18.925  1.00 14.75 LIG 0.17  C 
ATOM     16 OD1  ASJ C 505      33.968  96.171  19.950  1.00 17.98 LIG-0.65  OA
ATOM     17 OD2  ASJ C 505      33.985  98.093  18.890  1.00 18.38 LIG-0.65  OA
ENDBRANCH 14 15
ENDBRANCH 10 14
ENDBRANCH 9 10
ENDBRANCH 6 7
BRANCH 6 18
ATOM     18  CB  VAL C 504      39.260  93.305  18.446  1.00 11.58 LIG 0.01  C 
ATOM     19  CG2 VAL C 504      39.118  91.945  19.115  1.00 11.58 LIG 0.01  C 
ATOM     20  CG1 VAL C 504      40.728  93.633  18.212  1.00 11.58 LIG 0.01  C 
ENDBRANCH 6 18
ENDBRANCH 4 6
ENDBRANCH 1 2
BRANCH 1 21
ATOM     21  CB  GLU C 503      38.869  94.954  23.703  1.00 30.39 LIG 0.04  C 
BRANCH 21 22
ATOM     22  CG  GLU C 503      39.320  94.650  25.124  1.00 30.39 LIG 0.12  C 
BRANCH 22 23
ATOM     23  CD  GLU C 503      38.177  94.313  26.061  1.00 30.39 LIG 0.17  C 
ATOM     24 OE1  GLU C 503      37.185  93.692  25.624  1.00 30.39 LIG-0.65  OA
ATOM     25 OE2  GLU C 503      38.278  94.658  27.253  1.00 30.39 LIG-0.65  OA
ENDBRANCH 22 23
ENDBRANCH 21 22
ENDBRANCH 1 21
BRANCH 1 26
ATOM     26  N   GLU C 503      40.668  96.524  23.145  1.00 22.23 LIG-0.35  N 
ATOM     27 H    GLU C 503      40.289  97.225  22.821  1.00 22.23 LIG 0.16  HD
ATOM     28  C   ASP C 502      41.742  96.579  23.930  1.00 15.66 LIG 0.24  C 
ATOM     29 O    ASP C 502      42.307  95.580  24.394  1.00 17.69 LIG-0.27  OA
BRANCH 28 30
ATOM     30  CA  ASP C 502      42.274  97.982  24.221  1.00 16.73 LIG 0.19  C 
BRANCH 30 31
ATOM     31  N   ASP C 502      42.532  98.211  25.634  1.00 28.47 LIG-0.35  N 
ATOM     32 H    ASP C 502      43.365  98.200  25.847  1.00 28.47 LIG 0.16  HD
ATOM     33  C   ACE C 501      41.552  98.417  26.505  1.00  7.47 LIG 0.21  C 
ATOM     34 O    ACE C 501      40.360  98.410  26.194  1.00 12.06 LIG-0.27  OA
ATOM     35  CH3 ACE C 501      41.965  98.657  27.944  1.00  7.47 LIG 0.12  C 
ENDBRANCH 30 31
BRANCH 30 36
ATOM     36  CB  ASP C 502      43.543  98.249  23.405  1.00 14.36 LIG 0.15  C 
BRANCH 36 37
ATOM     37  CG  ASP C 502      43.953  99.716  23.414  1.00 17.50 LIG 0.17  C 
ATOM     38 OD1  ASP C 502      43.083 100.598  23.573  1.00 20.94 LIG-0.65  OA
ATOM     39 OD2  ASP C 502      45.154  99.993  23.243  1.00 19.93 LIG-0.65  OA
ENDBRANCH 36 37
ENDBRANCH 30 36
ENDBRANCH 28 30
ENDBRANCH 1 26
TORSDOF 17
