USER: ADFR SOLUTION from run 0
USER: SCORE 11.027386 LL:  -2.195 LR:  -9.021 RR:   0.000 FEB:  -6.038
USER: RMSD 1.244039
USER: STATUS Locally minimized using BFGS
USER: GENES 12
USER: genes 0 Translation |==|  0.48735 0.50029 0.51779
USER: genes 1 Rotation |==|  0.43466 0.45828 0.55212 0.99120
USER: genes 2 Torsion [C]-CA--N-[C] |==|  0.72569
USER: genes 3 Torsion [N]-C--CA-[N] |==|  0.21869
USER: genes 4 Torsion [C]-CA--N-[H1] |==|  0.52191
USER: genes 5 Torsion [N]-CA--C-[N] |==|  0.29457
USER: genes 6 Torsion [C]-N--CA-[CB] |==|  0.33786
USER: genes 7 Torsion [N]-CA--CB-[CG] |==|  0.90735
USER: genes 8 Torsion [CA]-CB--CG-[CD2] |==|  0.72407
USER: genes 9 Torsion [N]-CA--C-[OXT] |==|  0.52607
USER: genes 10 Torsion [N]-CA--CB-[CG2] |==|  0.45415
USER: genes 11 Torsion [CA]-CB--CG1-[CD1] |==|  0.60666
ROOT
ATOM      1  CA  ILE B   2      75.691  46.839  17.394  1.00 64.17 LIG 0.18  C 
ENDROOT
BRANCH 1 2
ATOM      2  N   ILE B   2      74.939  47.386  16.271  1.00 64.56 LIG-0.35  N 
ATOM      3  C   ALA B   1      75.434  47.401  15.037  1.00 64.53 LIG 0.25  C 
ATOM      4 O    ALA B   1      76.547  46.950  14.756  1.00 64.21 LIG-0.27  OA
ATOM      5 H    ILE B   2      74.163  47.691  16.479  1.00 64.56 LIG 0.16  HD
BRANCH 3 6
ATOM      6  CA  ALA B   1      74.536  48.010  13.960  1.00 64.34 LIG 0.27  C 
ATOM      7  CB  ALA B   1      74.958  47.512  12.582  1.00 65.15 LIG 0.05  C 
BRANCH 6 8
ATOM      8  N   ALA B   1      74.570  49.501  13.993  1.00 63.44 LIG-0.07  N 
ATOM      9 H1   ALA B   1      73.955  49.824  13.436  1.00 63.44 LIG 0.28  HD
ATOM     10 H2   ALA B   1      74.400  49.783  14.819  1.00 63.44 LIG 0.28  HD
ATOM     11 H3   ALA B   1      75.375  49.785  13.742  1.00 63.44 LIG 0.28  HD
ENDBRANCH 6 8
ENDBRANCH 3 6
ENDBRANCH 1 2
BRANCH 1 12
ATOM     12  C   ILE B   2      75.253  45.413  17.716  1.00 63.93 LIG 0.24  C 
ATOM     13  N   HIS B   3      76.093  44.448  17.359  1.00 63.34 LIG-0.34  N 
ATOM     14 H    HIS B   3      76.846  44.584  16.967  1.00 63.34 LIG 0.16  HD
ATOM     15 O    ILE B   2      74.178  45.194  18.277  1.00 63.64 LIG-0.27  OA
BRANCH 13 16
ATOM     16  CA  HIS B   3      75.786  43.047  17.616  1.00 63.18 LIG 0.19  C 
BRANCH 16 17
ATOM     17  CB  HIS B   3      75.774  42.256  16.306  1.00 62.24 LIG 0.10  C 
BRANCH 17 18
ATOM     18  CG  HIS B   3      75.289  43.042  15.127  1.00 63.21 LIG 0.05  A 
ATOM     19  CD2 HIS B   3      74.081  43.080  14.515  1.00 62.69 LIG 0.12  A 
ATOM     20  NE2 HIS B   3      74.180  43.974  13.477  1.00 63.05 LIG-0.36  N 
ATOM     21 HE2  HIS B   3      73.547  44.179  12.932  1.00 63.05 LIG 0.17  HD
ATOM     22  CE1 HIS B   3      75.405  44.469  13.452  1.00 63.79 LIG 0.21  A 
ATOM     23 ND1  HIS B   3      76.095  43.923  14.437  1.00 63.44 LIG-0.25  NA
ENDBRANCH 17 18
ENDBRANCH 16 17
BRANCH 16 24
ATOM     24  C   HIS B   3      76.820  42.454  18.565  1.00 63.55 LIG 0.20  C 
ATOM     25 OXT  HIS B   3      76.811  41.221  18.751  1.00 62.89 LIG-0.65  OA
ATOM     26 O    HIS B   3      77.633  43.233  19.110  1.00 64.85 LIG-0.65  OA
ENDBRANCH 16 24
ENDBRANCH 13 16
ENDBRANCH 1 12
BRANCH 1 27
ATOM     27  CB  ILE B   2      75.511  47.706  18.655  1.00 64.73 LIG 0.01  C 
ATOM     28  CG2 ILE B   2      75.948  46.927  19.893  1.00 64.62 LIG 0.01  C 
BRANCH 27 29
ATOM     29  CG1 ILE B   2      76.320  48.997  18.512  1.00 64.82 LIG 0.00  C 
ATOM     30  CD1 ILE B   2      76.984  49.453  19.792  1.00 66.82 LIG 0.01  C 
ENDBRANCH 27 29
ENDBRANCH 1 27
TORSDOF 10
