USER: ADFR SOLUTION from run 0
USER: SCORE 14.013323 LL:  -5.401 LR:  -9.396 RR:   0.000 FEB:  -2.833
USER: RMSD 0.363238
USER: STATUS Locally minimized using BFGS
USER: GENES 24
USER: genes 0 Translation |==|  0.52100 0.49372 0.49012
USER: genes 1 Rotation |==|  0.49178 0.51062 0.48547 0.99961
USER: genes 2 Torsion [N]-CA--C-[N] |==|  0.31744
USER: genes 3 Torsion [C]-N--CA-[C] |==|  0.65617
USER: genes 4 Torsion [N]-CA--C-[N] |==|  0.26112
USER: genes 5 Torsion [C]-N--CA-[CB] |==|  0.35186
USER: genes 6 Torsion [N]-CA--C-[OXT] |==|  0.96967
USER: genes 7 Torsion [N]-CA--CB-[CG] |==|  0.82272
USER: genes 8 Torsion [CA]-CB--CG-[CD2] |==|  0.78113
USER: genes 9 Torsion [N]-CA--CB-[CG2] |==|  0.52566
USER: genes 10 Torsion [CA]-CB--CG1-[CD1] |==|  0.84045
USER: genes 11 Torsion [C]-CA--CB-[CG] |==|  0.12707
USER: genes 12 Torsion [CA]-CB--CG-[CD] |==|  0.46695
USER: genes 13 Torsion [CB]-CG--CD-[OE1] |==|  0.76433
USER: genes 14 Torsion [C]-CA--N-[C] |==|  0.72229
USER: genes 15 Torsion [N]-C--CA-[N] |==|  0.30563
USER: genes 16 Torsion [C]-CA--CB-[CG] |==|  0.21363
USER: genes 17 Torsion [CA]-CB--CG-[OD2] |==|  0.42427
USER: genes 18 Torsion [C]-CA--N-[C] |==|  0.79444
USER: genes 19 Torsion [N]-C--CA-[N] |==|  0.46656
USER: genes 20 Torsion [C]-CA--CB-[CG] |==|  0.85297
USER: genes 21 Torsion [CA]-CB--CG-[CD1] |==|  0.22348
USER: genes 22 Torsion [CE1]-CZ--OH-[HH] |==|  0.82707
USER: genes 23 Torsion [C]-CA--N-[H2] |==|  0.96958
ROOT
ATOM      1  CA  GLN I  61      18.750  17.852   6.684  1.00 12.54 LIG 0.18  C 
ENDROOT
BRANCH 1 2
ATOM      2  C   GLN I  61      18.111  18.788   5.624  1.00 13.13 LIG 0.24  C 
ATOM      3  N   ILE I  62      16.798  18.696   5.469  1.00 10.34 LIG-0.35  N 
ATOM      4 H    ILE I  62      16.290  18.169   5.920  1.00 10.34 LIG 0.16  HD
ATOM      5 O    GLN I  61      18.796  19.584   4.964  1.00 13.36 LIG-0.27  OA
BRANCH 3 6
ATOM      6  CA  ILE I  62      16.115  19.510   4.491  1.00 10.31 LIG 0.18  C 
BRANCH 6 7
ATOM      7  C   ILE I  62      15.030  20.307   5.203  1.00 12.98 LIG 0.24  C 
ATOM      8 O    ILE I  62      13.890  19.826   5.393  1.00 12.64 LIG-0.27  OA
ATOM      9  N   LEU I  63      15.386  21.533   5.592  1.00 10.93 LIG-0.34  N 
ATOM     10 H    LEU I  63      16.170  21.860   5.461  1.00 10.93 LIG 0.16  HD
BRANCH 9 11
ATOM     11  CA  LEU I  63      14.463  22.457   6.288  1.00 11.08 LIG 0.18  C 
BRANCH 11 12
ATOM     12  C   LEU I  63      14.094  23.666   5.418  1.00 13.00 LIG 0.20  C 
ATOM     13 O    LEU I  63      13.167  24.411   5.807  1.00 13.41 LIG-0.65  OA
ATOM     14 OXT  LEU I  63      14.734  23.860   4.357  1.00 16.16 LIG-0.65  OA
ENDBRANCH 11 12
BRANCH 11 15
ATOM     15  CB  LEU I  63      15.101  22.957   7.591  1.00 10.85 LIG 0.04  C 
BRANCH 15 16
ATOM     16  CG  LEU I  63      15.347  21.857   8.589  1.00 12.24 LIG-0.02  C 
ATOM     17  CD2 LEU I  63      14.013  21.534   9.278  1.00 14.99 LIG 0.01  C 
ATOM     18  CD1 LEU I  63      16.409  22.283   9.565  1.00 14.56 LIG 0.01  C 
ENDBRANCH 15 16
ENDBRANCH 11 15
ENDBRANCH 9 11
ENDBRANCH 6 7
BRANCH 6 19
ATOM     19  CB  ILE I  62      15.474  18.631   3.378  1.00 10.03 LIG 0.01  C 
ATOM     20  CG2 ILE I  62      14.962  19.509   2.248  1.00 11.01 LIG 0.01  C 
BRANCH 19 21
ATOM     21  CG1 ILE I  62      16.496  17.625   2.829  1.00 11.14 LIG 0.00  C 
ATOM     22  CD1 ILE I  62      17.747  18.236   2.275  1.00 11.65 LIG 0.01  C 
ENDBRANCH 19 21
ENDBRANCH 6 19
ENDBRANCH 3 6
ENDBRANCH 1 2
BRANCH 1 23
ATOM     23  CB  GLN I  61      19.552  18.633   7.733  1.00 14.90 LIG 0.04  C 
BRANCH 23 24
ATOM     24  CG  GLN I  61      18.911  19.856   8.315  1.00 19.56 LIG 0.10  C 
BRANCH 24 25
ATOM     25  CD  GLN I  61      19.699  20.331   9.527  1.00 24.89 LIG 0.21  C 
ATOM     26 OE1  GLN I  61      19.489  19.842  10.647  1.00 26.12 LIG-0.27  OA
ATOM     27  NE2 GLN I  61      20.635  21.266   9.306  1.00 17.87 LIG-0.37  N 
ATOM     28 22HE GLN I  61      21.121  21.551   9.956  1.00 17.87 LIG 0.16  HD
ATOM     29 21HE GLN I  61      20.751  21.581   8.514  1.00 17.87 LIG 0.16  HD
ENDBRANCH 24 25
ENDBRANCH 23 24
ENDBRANCH 1 23
BRANCH 1 30
ATOM     30  N   GLN I  61      19.651  16.844   6.135  1.00 13.65 LIG-0.35  N 
ATOM     31  C   ASP I  60      19.281  15.587   5.938  1.00 18.68 LIG 0.24  C 
ATOM     32 O    ASP I  60      18.131  15.187   6.164  1.00 17.48 LIG-0.27  OA
ATOM     33 H    GLN I  61      20.438  17.140   5.952  1.00 13.65 LIG 0.16  HD
BRANCH 31 34
ATOM     34  CA  ASP I  60      20.380  14.639   5.416  1.00 21.07 LIG 0.19  C 
BRANCH 34 35
ATOM     35  CB  ASP I  60      19.885  13.800   4.222  1.00 25.87 LIG 0.15  C 
BRANCH 35 36
ATOM     36  CG  ASP I  60      19.828  14.581   2.881  1.00 31.63 LIG 0.17  C 
ATOM     37 OD2  ASP I  60      19.955  13.920   1.823  1.00 32.10 LIG-0.65  OA
ATOM     38 OD1  ASP I  60      19.616  15.820   2.863  1.00 34.51 LIG-0.65  OA
ENDBRANCH 35 36
ENDBRANCH 34 35
BRANCH 34 39
ATOM     39  N   ASP I  60      20.659  13.747   6.560  1.00 22.02 LIG-0.34  N 
ATOM     40  C   TYR I  59      21.342  14.143   7.643  1.00 29.44 LIG 0.25  C 
ATOM     41 O    TYR I  59      21.823  15.278   7.776  1.00 29.64 LIG-0.27  OA
ATOM     42 H    ASP I  60      20.343  12.952   6.466  1.00 22.02 LIG 0.16  HD
BRANCH 40 43
ATOM     43  CA  TYR I  59      21.548  13.106   8.753  1.00 32.26 LIG 0.28  C 
BRANCH 43 44
ATOM     44  CB  TYR I  59      20.215  12.829   9.472  1.00 35.10 LIG 0.08  C 
BRANCH 44 45
ATOM     45  CG  TYR I  59      19.531  14.092   9.970  1.00 39.87 LIG-0.06  A 
ATOM     46  CD1 TYR I  59      18.781  14.891   9.099  1.00 40.08 LIG 0.01  A 
ATOM     47  CE1 TYR I  59      18.228  16.100   9.516  1.00 40.68 LIG 0.04  A 
ATOM     48  CZ  TYR I  59      18.411  16.534  10.815  1.00 42.21 LIG 0.07  A 
ATOM     49  CE2 TYR I  59      19.145  15.760  11.716  1.00 42.84 LIG 0.04  A 
ATOM     50  CD2 TYR I  59      19.702  14.534  11.287  1.00 40.94 LIG 0.01  A 
BRANCH 48 51
ATOM     51 OH   TYR I  59      17.866  17.742  11.196  1.00 42.12 LIG-0.36  OA
ATOM     52 HH   TYR I  59      18.209  18.360  10.741  1.00 42.12 LIG 0.22  HD
ENDBRANCH 48 51
ENDBRANCH 44 45
ENDBRANCH 43 44
BRANCH 43 53
ATOM     53  N   TYR I  59      22.572  13.637   9.727  1.00 33.30 LIG-0.07  N 
ATOM     54 H1   TYR I  59      23.188  13.013   9.880  1.00 33.30 LIG 0.28  HD
ATOM     55 H2   TYR I  59      22.962  14.360   9.384  1.00 33.30 LIG 0.28  HD
ATOM     56 H3   TYR I  59      22.171  13.852  10.493  1.00 33.30 LIG 0.28  HD
ENDBRANCH 43 53
ENDBRANCH 40 43
ENDBRANCH 34 39
ENDBRANCH 31 34
ENDBRANCH 1 30
TORSDOF 22
