USER: ADFR SOLUTION from run 0
USER: SCORE 11.917767 LL:  -2.444 LR: -10.545 RR:   0.000 FEB:  -6.965
USER: RMSD 0.261611
USER: STATUS Locally minimized using BFGS
USER: GENES 14
USER: genes 0 Translation |==|  0.47870 0.52856 0.48376
USER: genes 1 Rotation |==|  0.50831 0.51298 0.48754 0.99961
USER: genes 2 Torsion [N]-C--CA-[N] |==|  0.42854
USER: genes 3 Torsion [C]-CA--CB-[CG] |==|  0.21590
USER: genes 4 Torsion [CA]-CB--CG-[CD1] |==|  0.22504
USER: genes 5 Torsion [C]-CA--N-[C] |==|  0.67022
USER: genes 6 Torsion [N]-C--CA-[N] |==|  0.39002
USER: genes 7 Torsion [C]-CA--N-[H3] |==|  0.12111
USER: genes 8 Torsion [C]-N--CA-[CB] |==|  0.45556
USER: genes 9 Torsion [N]-CA--C-[N] |==|  0.37740
USER: genes 10 Torsion [C]-N--CA-[C] |==|  0.77815
USER: genes 11 Torsion [N]-CA--C-[O] |==|  0.54742
USER: genes 12 Torsion [N]-CA--CB-[CG] |==|  0.79987
USER: genes 13 Torsion [CA]-CB--CG-[CD2] |==|  0.83096
ROOT
ATOM      1  C   LEU C 675      25.981   3.547  19.583  1.00 14.56 LIG 0.24  C 
ATOM      2 O    LEU C 675      26.667   3.788  20.595  0.66 14.97 LIG-0.27  OA
ATOM      3  N   ALA C 676      24.684   3.257  19.679  0.83 13.84 LIG-0.35  N 
ATOM      4 H    ALA C 676      24.199   3.088  18.990  0.83 13.84 LIG 0.16  HD
ENDROOT
BRANCH 1 5
ATOM      5  CA  LEU C 675      26.528   3.532  18.177  0.78 15.17 LIG 0.18  C 
BRANCH 5 6
ATOM      6  CB  LEU C 675      26.943   2.146  17.635  0.53 15.14 LIG 0.04  C 
BRANCH 6 7
ATOM      7  CG  LEU C 675      25.975   1.133  17.142  0.32 15.05 LIG-0.02  C 
ATOM      8  CD1 LEU C 675      25.494   1.360  15.708  0.18 15.17 LIG 0.01  C 
ATOM      9  CD2 LEU C 675      26.693  -0.241  17.193  0.37 15.02 LIG 0.01  C 
ENDBRANCH 6 7
ENDBRANCH 5 6
BRANCH 5 10
ATOM     10  N   LEU C 675      27.690   4.374  17.991  0.88 15.36 LIG-0.35  N 
ATOM     11 H    LEU C 675      28.344   4.122  18.488  0.88 15.36 LIG 0.16  HD
ATOM     12  C   ALA C 674      27.816   5.418  17.181  0.61 16.05 LIG 0.25  C 
ATOM     13 O    ALA C 674      26.865   5.857  16.524  0.70 15.91 LIG-0.27  OA
BRANCH 12 14
ATOM     14  CA  ALA C 674      29.206   6.013  17.184  0.67 16.10 LIG 0.27  C 
ATOM     15  CB  ALA C 674      29.448   7.018  18.262  0.67 16.22 LIG 0.05  C 
BRANCH 14 16
ATOM     16  N   ALA C 674      29.687   6.437  15.872  0.74 16.71 LIG-0.07  N 
ATOM     17 H1   ALA C 674      30.385   6.980  15.972  0.74 16.71 LIG 0.28  HD
ATOM     18 H2   ALA C 674      29.932   5.723  15.400  0.74 16.71 LIG 0.28  HD
ATOM     19 H3   ALA C 674      29.037   6.867  15.442  0.74 16.71 LIG 0.28  HD
ENDBRANCH 14 16
ENDBRANCH 12 14
ENDBRANCH 5 10
ENDBRANCH 1 5
BRANCH 3 20
ATOM     20  CA  ALA C 676      23.929   3.189  20.939  1.00 13.04 LIG 0.17  C 
ATOM     21  CB  ALA C 676      22.440   3.227  20.670  0.89 13.68 LIG 0.04  C 
BRANCH 20 22
ATOM     22  C   ALA C 676      24.389   2.033  21.798  0.69 12.60 LIG 0.24  C 
ATOM     23 O    ALA C 676      24.672   0.913  21.324  0.52 12.22 LIG-0.27  OA
ATOM     24  N   LEU C 677      24.545   2.328  23.094  0.89 12.12 LIG-0.34  N 
ATOM     25 H    LEU C 677      24.358   3.098  23.430  0.89 12.12 LIG 0.16  HD
BRANCH 24 26
ATOM     26  CA  LEU C 677      25.047   1.372  24.064  0.93 11.78 LIG 0.18  C 
BRANCH 26 27
ATOM     27  C   LEU C 677      24.150   0.350  24.623  0.42 11.73 LIG 0.20  C 
ATOM     28 O    LEU C 677      24.443  -0.290  25.688  0.84 11.50 LIG-0.65  OA
ATOM     29 OXT  LEU C 677      23.070   0.060  24.033  0.55 11.71 LIG-0.65  OA
ENDBRANCH 26 27
BRANCH 26 30
ATOM     30  CB  LEU C 677      26.253   1.926  24.770  1.00 11.60 LIG 0.04  C 
BRANCH 30 31
ATOM     31  CG  LEU C 677      27.605   2.090  24.143  0.82 11.89 LIG-0.02  C 
ATOM     32  CD2 LEU C 677      28.209   0.761  23.667  0.78 11.63 LIG 0.01  C 
ATOM     33  CD1 LEU C 677      28.589   2.691  25.184  1.00 11.42 LIG 0.01  C 
ENDBRANCH 30 31
ENDBRANCH 26 30
ENDBRANCH 24 26
ENDBRANCH 20 22
ENDBRANCH 3 20
TORSDOF 12
