USER: ADFR SOLUTION from run 0
USER: SCORE 13.354091 LL:  -3.433 LR: -10.726 RR:   0.000 FEB:  -4.164
USER: RMSD 1.376344
USER: STATUS Locally minimized using BFGS
USER: GENES 24
USER: genes 0 Translation |==|  0.50763 0.50143 0.54175
USER: genes 1 Rotation |==|  0.56216 0.48483 0.50274 0.99588
USER: genes 2 Torsion [N]-C--CA-[N] |==|  0.39723
USER: genes 3 Torsion [C]-CA--N-[C] |==|  0.51252
USER: genes 4 Torsion [N]-C--CA-[N] |==|  0.24330
USER: genes 5 Torsion [C]-CA--N-[C] |==|  0.78820
USER: genes 6 Torsion [N]-C--CA-[N] |==|  0.16569
USER: genes 7 Torsion [C]-CA--N-[H1] |==|  0.57856
USER: genes 8 Torsion [C]-CA--CB-[CG] |==|  0.76031
USER: genes 9 Torsion [CA]-CB--CG-[CD1] |==|  0.67225
USER: genes 10 Torsion [C]-CA--CB-[CG] |==|  0.80973
USER: genes 11 Torsion [CA]-CB--CG-[CD2] |==|  0.25593
USER: genes 12 Torsion [C]-N--CA-[CB] |==|  0.81063
USER: genes 13 Torsion [N]-CA--CB-[CG] |==|  0.81401
USER: genes 14 Torsion [CA]-CB--CG-[CD2] |==|  0.50235
USER: genes 15 Torsion [CE2]-CZ--OH-[HH] |==|  0.53602
USER: genes 16 Torsion [N]-CA--C-[N] |==|  0.34646
USER: genes 17 Torsion [C]-N--CA-[CB] |==|  0.48350
USER: genes 18 Torsion [N]-CA--CB-[CG] |==|  0.45478
USER: genes 19 Torsion [CA]-CB--CG-[CD] |==|  0.51609
USER: genes 20 Torsion [CB]-CG--CD-[CE] |==|  0.51962
USER: genes 21 Torsion [CG]-CD--CE-[NZ] |==|  0.39866
USER: genes 22 Torsion [CD]-CE--NZ-[HZ1] |==|  0.41282
USER: genes 23 Torsion [N]-CA--C-[OXT] |==|  0.25606
ROOT
ATOM      1  C   ALA I   3      45.289  30.233   9.553  0.30 45.63 LIG 0.24  C 
ATOM      2 O    ALA I   3      44.785  29.335   8.889  0.30 45.40 LIG-0.27  OA
ATOM      3  N   TYR I   4      46.506  30.725   9.293  0.30 45.44 LIG-0.35  N 
ATOM      4 H    TYR I   4      46.834  31.370   9.758  0.30 45.44 LIG 0.16  HD
ENDROOT
BRANCH 1 5
ATOM      5  CA  ALA I   3      44.488  30.849  10.747  0.30 46.01 LIG 0.17  C 
ATOM      6  CB  ALA I   3      44.659  30.064  11.992  0.30 45.75 LIG 0.04  C 
BRANCH 5 7
ATOM      7  N   ALA I   3      43.109  30.853  10.276  0.30 46.50 LIG-0.35  N 
ATOM      8 H    ALA I   3      43.046  30.471   9.508  0.30 46.50 LIG 0.16  HD
ATOM      9  C   LEU I   2      42.017  31.350  10.871  0.30 47.15 LIG 0.24  C 
ATOM     10 O    LEU I   2      41.980  31.907  11.973  0.30 46.92 LIG-0.27  OA
BRANCH 9 11
ATOM     11  CA  LEU I   2      40.824  31.276   9.909  0.30 47.70 LIG 0.18  C 
BRANCH 11 12
ATOM     12  N   LEU I   2      39.922  30.142   9.748  0.30 48.04 LIG-0.35  N 
ATOM     13  C   PHE I   1      40.490  29.179   9.049  0.30 48.35 LIG 0.25  C 
ATOM     14 O    PHE I   1      41.633  29.333   8.653  0.30 48.51 LIG-0.27  OA
ATOM     15 H    LEU I   2      39.135  30.174  10.094  0.30 48.04 LIG 0.16  HD
BRANCH 13 16
ATOM     16  CA  PHE I   1      39.726  27.949   8.625  0.30 48.56 LIG 0.28  C 
BRANCH 16 17
ATOM     17  N   PHE I   1      38.558  28.315   7.771  0.30 48.56 LIG-0.07  N 
ATOM     18 H3   PHE I   1      38.813  28.350   6.919  0.30 48.56 LIG 0.28  HD
ATOM     19 H1   PHE I   1      37.919  27.703   7.864  0.30 48.56 LIG 0.28  HD
ATOM     20 H2   PHE I   1      38.246  29.110   8.020  0.30 48.56 LIG 0.28  HD
ENDBRANCH 16 17
BRANCH 16 21
ATOM     21  CB  PHE I   1      40.703  27.051   7.837  0.30 48.65 LIG 0.08  C 
BRANCH 21 22
ATOM     22  CG  PHE I   1      40.807  27.373   6.341  0.30 49.18 LIG-0.06  A 
ATOM     23  CD1 PHE I   1      40.444  26.431   5.398  0.30 49.79 LIG 0.01  A 
ATOM     24  CE1 PHE I   1      40.549  26.704   4.042  0.30 50.05 LIG 0.00  A 
ATOM     25  CZ  PHE I   1      41.037  27.913   3.615  0.30 49.90 LIG 0.00  A 
ATOM     26  CE2 PHE I   1      41.421  28.850   4.532  0.30 49.43 LIG 0.00  A 
ATOM     27  CD2 PHE I   1      41.312  28.588   5.882  0.30 49.27 LIG 0.01  A 
ENDBRANCH 21 22
ENDBRANCH 16 21
ENDBRANCH 13 16
ENDBRANCH 11 12
BRANCH 11 28
ATOM     28  CB  LEU I   2      40.161  32.583   9.451  0.30 47.77 LIG 0.04  C 
BRANCH 28 29
ATOM     29  CG  LEU I   2      39.342  33.645  10.108  0.30 48.15 LIG-0.02  C 
ATOM     30  CD1 LEU I   2      38.450  33.144  11.191  0.30 48.48 LIG 0.01  C 
ATOM     31  CD2 LEU I   2      40.350  34.669  10.556  0.30 48.19 LIG 0.01  C 
ENDBRANCH 28 29
ENDBRANCH 11 28
ENDBRANCH 9 11
ENDBRANCH 5 7
ENDBRANCH 1 5
BRANCH 3 32
ATOM     32  CA  TYR I   4      47.449  30.272   8.220  0.30 45.17 LIG 0.18  C 
BRANCH 32 33
ATOM     33  CB  TYR I   4      48.024  28.891   8.416  0.30 45.37 LIG 0.07  C 
BRANCH 33 34
ATOM     34  CG  TYR I   4      48.940  28.896   9.634  0.30 45.37 LIG-0.06  A 
ATOM     35  CD2 TYR I   4      49.623  27.760  10.045  0.30 45.58 LIG 0.01  A 
ATOM     36  CE2 TYR I   4      50.430  27.777  11.169  0.30 45.96 LIG 0.04  A 
ATOM     37  CZ  TYR I   4      50.551  28.941  11.891  0.30 45.81 LIG 0.07  A 
ATOM     38  CE1 TYR I   4      49.880  30.081  11.503  0.30 45.70 LIG 0.04  A 
ATOM     39  CD1 TYR I   4      49.092  30.057  10.387  0.30 45.43 LIG 0.01  A 
BRANCH 37 40
ATOM     40 OH   TYR I   4      51.342  28.957  13.014  0.30 46.58 LIG-0.36  OA
ATOM     41 HH   TYR I   4      51.192  29.657  13.453  0.30 46.58 LIG 0.22  HD
ENDBRANCH 37 40
ENDBRANCH 33 34
ENDBRANCH 32 33
BRANCH 32 42
ATOM     42  C   TYR I   4      47.211  30.600   6.751  0.30 45.00 LIG 0.24  C 
ATOM     43  N   LYS I   5      48.275  31.215   6.256  0.30 44.74 LIG-0.34  N 
ATOM     44 H    LYS I   5      48.973  31.338   6.744  0.30 44.74 LIG 0.16  HD
ATOM     45 O    TYR I   4      46.216  30.238   6.114  0.30 44.60 LIG-0.27  OA
BRANCH 43 46
ATOM     46  CA  LYS I   5      48.465  31.751   4.933  0.30 44.60 LIG 0.18  C 
BRANCH 46 47
ATOM     47  CB  LYS I   5      49.818  32.469   4.995  0.30 43.50 LIG 0.04  C 
BRANCH 47 48
ATOM     48  CG  LYS I   5      50.500  32.823   3.699  0.30 39.10 LIG 0.00  C 
BRANCH 48 49
ATOM     49  CD  LYS I   5      51.872  33.388   4.014  0.30 31.49 LIG 0.03  C 
BRANCH 49 50
ATOM     50  CE  LYS I   5      52.551  33.926   2.775  0.30 26.75 LIG 0.23  C 
BRANCH 50 51
ATOM     51  NZ  LYS I   5      53.308  35.087   3.050  0.30 17.53 LIG-0.08  N 
ATOM     52 HZ1  LYS I   5      54.009  35.121   2.503  0.30 17.53 LIG 0.27  HD
ATOM     53 HZ2  LYS I   5      52.801  35.808   2.926  0.30 17.53 LIG 0.27  HD
ATOM     54 HZ3  LYS I   5      53.591  35.065   3.894  0.30 17.53 LIG 0.27  HD
ENDBRANCH 50 51
ENDBRANCH 49 50
ENDBRANCH 48 49
ENDBRANCH 47 48
ENDBRANCH 46 47
BRANCH 46 55
ATOM     55  C   LYS I   5      48.472  30.711   3.845  0.30 45.89 LIG 0.20  C 
ATOM     56 OXT  LYS I   5      47.403  30.462   3.301  1.00 48.13 LIG-0.65  OA
ATOM     57 O    LYS I   5      49.543  30.189   3.545  1.00 47.49 LIG-0.65  OA
ENDBRANCH 46 55
ENDBRANCH 43 46
ENDBRANCH 32 42
ENDBRANCH 3 32
TORSDOF 22
