USER: ADFR SOLUTION from run 0
USER: SCORE 7.683791 LL:  -2.302 LR:  -7.194 RR:   0.000 FEB:  -2.719
USER: RMSD 1.034057
USER: STATUS Locally minimized using BFGS
USER: GENES 17
USER: genes 0 Translation |==|  0.53684 0.48801 0.46332
USER: genes 1 Rotation |==|  0.52691 0.53055 0.47252 0.99758
USER: genes 2 Torsion [C]-CA--CB-[CG] |==|  0.29121
USER: genes 3 Torsion [CA]-CB--CG-[CD] |==|  0.34803
USER: genes 4 Torsion [CB]-CG--CD-[NE] |==|  0.23966
USER: genes 5 Torsion [CG]-CD--NE-[CZ] |==|  0.28790
USER: genes 6 Torsion [N]-CA--C-[N] |==|  0.38505
USER: genes 7 Torsion [C]-N--CA-[CB] |==|  0.22887
USER: genes 8 Torsion [N]-CA--C-[OXT] |==|  0.05179
USER: genes 9 Torsion [N]-CA--CB-[OG] |==|  0.04652
USER: genes 10 Torsion [CA]-CB--OG-[HG] |==|  0.49349
USER: genes 11 Torsion [CB]-CA--N-[C] |==|  0.31660
USER: genes 12 Torsion [N]-C--CA-[N] |==|  0.47019
USER: genes 13 Torsion [C]-CA--N-[C] |==|  0.62491
USER: genes 14 Torsion [N]-C--CA-[N] |==|  0.42804
USER: genes 15 Torsion [C]-CA--CB-[CG2] |==|  0.01369
USER: genes 16 Torsion [C]-CA--N-[H1] |==|  0.54240
ROOT
ATOM      1  CA  ARG B   3      54.335  41.030   7.480  0.50 45.43 LIG 0.18  C 
ENDROOT
BRANCH 1 2
ATOM      2  CB  ARG B   3      53.888  40.031   6.447  0.50 45.40 LIG 0.04  C 
BRANCH 2 3
ATOM      3  CG  ARG B   3      53.494  38.750   7.100  0.50 45.00 LIG 0.02  C 
BRANCH 3 4
ATOM      4  CD  ARG B   3      52.116  38.345   6.722  0.50 44.41 LIG 0.14  C 
BRANCH 4 5
ATOM      5  NE  ARG B   3      52.162  37.591   5.482  0.50 44.18 LIG-0.23  N 
ATOM      6  CZ  ARG B   3      52.042  36.279   5.414  0.50 43.75 LIG 0.67  C 
ATOM      7  NH1 ARG B   3      52.109  35.674   4.244  0.50 44.03 LIG-0.23  N 
ATOM      8  NH2 ARG B   3      51.853  35.569   6.516  0.50 43.85 LIG-0.23  N 
ATOM      9 12HH ARG B   3      52.031  34.819   4.197  0.50 44.03 LIG 0.17  HD
ATOM     10 11HH ARG B   3      52.231  36.134   3.528  0.50 44.03 LIG 0.17  HD
ATOM     11 22HH ARG B   3      51.775  34.714   6.468  0.50 43.85 LIG 0.17  HD
ATOM     12 21HH ARG B   3      51.808  35.963   7.279  0.50 43.85 LIG 0.17  HD
ATOM     13 HE   ARG B   3      52.275  38.025   4.748  0.50 44.18 LIG 0.18  HD
ENDBRANCH 4 5
ENDBRANCH 3 4
ENDBRANCH 2 3
ENDBRANCH 1 2
BRANCH 1 14
ATOM     14  C   ARG B   3      55.846  41.169   7.461  0.50 45.62 LIG 0.24  C 
ATOM     15  N   SER B   4      56.482  40.364   8.305  0.50 45.72 LIG-0.34  N 
ATOM     16 H    SER B   4      56.089  39.769   8.786  0.50 45.72 LIG 0.16  HD
ATOM     17 O    ARG B   3      56.416  41.956   6.705  0.50 45.72 LIG-0.27  OA
BRANCH 15 18
ATOM     18  CA  SER B   4      57.922  40.425   8.489  0.50 45.84 LIG 0.21  C 
BRANCH 18 19
ATOM     19  C   SER B   4      58.501  39.109   8.993  0.50 45.90 LIG 0.20  C 
ATOM     20 O    SER B   4      59.616  39.067   9.515  0.50 45.95 LIG-0.65  OA
ATOM     21 OXT  SER B   4      57.875  38.056   8.886  0.50 46.05 LIG-0.65  OA
ENDBRANCH 18 19
BRANCH 18 22
ATOM     22  CB  SER B   4      58.249  41.548   9.470  0.50 45.85 LIG 0.20  C 
BRANCH 22 23
ATOM     23 OG   SER B   4      57.096  41.939  10.197  0.50 45.98 LIG-0.40  OA
ATOM     24 HG   SER B   4      57.304  42.534  10.752  0.50 45.98 LIG 0.21  HD
ENDBRANCH 22 23
ENDBRANCH 18 22
ENDBRANCH 15 18
ENDBRANCH 1 14
BRANCH 1 25
ATOM     25  N   ARG B   3      53.608  42.294   7.410  0.50 45.48 LIG-0.35  N 
ATOM     26 H    ARG B   3      53.729  42.766   6.701  0.50 45.48 LIG 0.16  HD
ATOM     27  C   ALA B   2      52.828  42.607   8.437  0.50 45.44 LIG 0.24  C 
ATOM     28 O    ALA B   2      52.637  41.817   9.356  0.50 45.54 LIG-0.27  OA
BRANCH 27 29
ATOM     29  CA  ALA B   2      52.149  43.965   8.472  0.50 45.45 LIG 0.17  C 
ATOM     30  CB  ALA B   2      53.124  45.030   8.808  0.50 45.48 LIG 0.04  C 
BRANCH 29 31
ATOM     31  N   ALA B   2      51.206  43.865   9.554  0.50 45.47 LIG-0.35  N 
ATOM     32 H    ALA B   2      51.533  43.501  10.261  0.50 45.47 LIG 0.16  HD
ATOM     33  C   VAL B   1      49.957  44.289   9.476  0.50 45.44 LIG 0.25  C 
ATOM     34 O    VAL B   1      49.546  45.035   8.589  0.50 45.56 LIG-0.27  OA
BRANCH 33 35
ATOM     35  CA  VAL B   1      49.097  43.910  10.671  0.50 45.37 LIG 0.28  C 
BRANCH 35 36
ATOM     36  CB  VAL B   1      48.574  42.463  10.546  0.50 45.32 LIG 0.02  C 
ATOM     37  CG2 VAL B   1      49.158  41.752   9.314  0.50 45.23 LIG 0.01  C 
ATOM     38  CG1 VAL B   1      47.067  42.466  10.542  0.50 45.24 LIG 0.01  C 
ENDBRANCH 35 36
BRANCH 35 39
ATOM     39  N   VAL B   1      47.981  44.884  10.830  0.50 45.40 LIG-0.07  N 
ATOM     40 H3   VAL B   1      47.361  44.730  10.210  0.50 45.40 LIG 0.28  HD
ATOM     41 H1   VAL B   1      47.621  44.793  11.639  0.50 45.40 LIG 0.28  HD
ATOM     42 H2   VAL B   1      48.294  45.712  10.737  0.50 45.40 LIG 0.28  HD
ENDBRANCH 35 39
ENDBRANCH 33 35
ENDBRANCH 29 31
ENDBRANCH 27 29
ENDBRANCH 1 25
TORSDOF 15
