USER: ADFR SOLUTION from run 0
USER: SCORE 6.845413 LL:  -2.735 LR:  -6.456 RR:   0.000 FEB:   0.405
USER: RMSD 0.822634
USER: STATUS Locally minimized using BFGS
USER: GENES 25
USER: genes 0 Translation |==|  0.52619 0.43332 0.47115
USER: genes 1 Rotation |==|  0.53274 0.47570 0.49135 0.99826
USER: genes 2 Torsion [C]-CA--N-[C] |==|  0.52796
USER: genes 3 Torsion [N]-C--CA-[N] |==|  0.45382
USER: genes 4 Torsion [C]-CA--CB-[CG] |==|  0.26901
USER: genes 5 Torsion [CA]-CB--CG-[CD1] |==|  0.02034
USER: genes 6 Torsion [C]-CA--N-[C] |==|  0.65457
USER: genes 7 Torsion [N]-C--CA-[N] |==|  0.01601
USER: genes 8 Torsion [C]-CA--CB-[CG] |==|  0.28013
USER: genes 9 Torsion [CA]-CB--CG-[CD2] |==|  0.64268
USER: genes 10 Torsion [C]-CA--N-[H2] |==|  0.82022
USER: genes 11 Torsion [N]-CA--CB-[OG] |==|  0.35922
USER: genes 12 Torsion [CA]-CB--OG-[HG] |==|  0.65742
USER: genes 13 Torsion [N]-CA--C-[N] |==|  0.94112
USER: genes 14 Torsion [C]-N--CA-[CB] |==|  0.25066
USER: genes 15 Torsion [N]-CA--CB-[CG2] |==|  0.50668
USER: genes 16 Torsion [CA]-CB--OG1-[HG1] |==|  0.64487
USER: genes 17 Torsion [N]-CA--C-[N] |==|  0.34469
USER: genes 18 Torsion [C]-N--CA-[C] |==|  0.79793
USER: genes 19 Torsion [N]-CA--C-[O] |==|  0.95149
USER: genes 20 Torsion [N]-CA--CB-[CG] |==|  0.46150
USER: genes 21 Torsion [CA]-CB--CG-[CD] |==|  0.36525
USER: genes 22 Torsion [CB]-CG--CD-[CE] |==|  0.35881
USER: genes 23 Torsion [CG]-CD--CE-[NZ] |==|  0.83982
USER: genes 24 Torsion [CD]-CE--NZ-[HZ2] |==|  0.87007
ROOT
ATOM      1  CA  SER I   3      46.816  29.820   8.904  0.30 32.02 LIG 0.20  C 
ENDROOT
BRANCH 1 2
ATOM      2  N   SER I   3      45.888  30.594   9.723  0.30 32.24 LIG-0.34  N 
ATOM      3 H    SER I   3      46.053  31.432   9.823  0.30 32.24 LIG 0.16  HD
ATOM      4  C   LEU I   2      44.881  29.915  10.229  0.30 32.50 LIG 0.24  C 
ATOM      5 O    LEU I   2      44.753  28.708  10.031  0.30 32.61 LIG-0.27  OA
BRANCH 4 6
ATOM      6  CA  LEU I   2      43.861  30.633  11.056  0.30 32.74 LIG 0.18  C 
BRANCH 6 7
ATOM      7  CB  LEU I   2      44.400  30.991  12.445  0.30 32.79 LIG 0.04  C 
BRANCH 7 8
ATOM      8  CG  LEU I   2      44.942  32.434  12.583  0.30 32.97 LIG-0.02  C 
ATOM      9  CD1 LEU I   2      44.643  33.230  11.325  0.30 33.23 LIG 0.01  C 
ATOM     10  CD2 LEU I   2      44.358  33.130  13.803  0.30 33.13 LIG 0.01  C 
ENDBRANCH 7 8
ENDBRANCH 6 7
BRANCH 6 11
ATOM     11  N   LEU I   2      42.870  29.599  10.976  0.30 32.86 LIG-0.35  N 
ATOM     12  C   PHE I   1      41.658  29.826  10.531  0.30 33.00 LIG 0.25  C 
ATOM     13 O    PHE I   1      41.211  30.959  10.364  0.30 33.06 LIG-0.27  OA
ATOM     14 H    LEU I   2      43.142  28.829  11.243  0.30 32.86 LIG 0.16  HD
BRANCH 12 15
ATOM     15  CA  PHE I   1      40.804  28.599  10.234  0.30 33.09 LIG 0.28  C 
BRANCH 15 16
ATOM     16  CB  PHE I   1      39.450  28.682  10.900  0.30 33.12 LIG 0.08  C 
BRANCH 16 17
ATOM     17  CG  PHE I   1      38.275  29.094  10.042  0.30 33.22 LIG-0.06  A 
ATOM     18  CD1 PHE I   1      37.952  28.501   8.812  0.30 33.33 LIG 0.01  A 
ATOM     19  CE1 PHE I   1      36.820  28.929   8.113  0.30 33.39 LIG 0.00  A 
ATOM     20  CZ  PHE I   1      36.031  29.937   8.627  0.30 33.40 LIG 0.00  A 
ATOM     21  CE2 PHE I   1      36.360  30.546   9.816  0.30 33.33 LIG 0.00  A 
ATOM     22  CD2 PHE I   1      37.471  30.129  10.500  0.30 33.29 LIG 0.01  A 
ENDBRANCH 16 17
ENDBRANCH 15 16
BRANCH 15 23
ATOM     23  N   PHE I   1      41.485  27.375  10.644  0.30 33.12 LIG-0.07  N 
ATOM     24 H2   PHE I   1      42.219  27.264  10.153  0.30 33.12 LIG 0.28  HD
ATOM     25 H1   PHE I   1      40.942  26.679  10.525  0.30 33.12 LIG 0.28  HD
ATOM     26 H3   PHE I   1      41.709  27.432  11.503  0.30 33.12 LIG 0.28  HD
ENDBRANCH 15 23
ENDBRANCH 12 15
ENDBRANCH 6 11
ENDBRANCH 4 6
ENDBRANCH 1 2
BRANCH 1 27
ATOM     27  CB  SER I   3      46.112  29.360   7.625  0.30 32.04 LIG 0.20  C 
BRANCH 27 28
ATOM     28 OG   SER I   3      46.880  29.683   6.480  0.30 32.08 LIG-0.40  OA
ATOM     29 HG   SER I   3      46.420  30.153   5.958  0.30 32.08 LIG 0.21  HD
ENDBRANCH 27 28
ENDBRANCH 1 27
BRANCH 1 30
ATOM     30  C   SER I   3      48.085  30.543   8.528  0.30 31.77 LIG 0.24  C 
ATOM     31  N   THR I   4      48.126  31.861   8.558  0.30 31.46 LIG-0.34  N 
ATOM     32 H    THR I   4      47.514  32.397   8.835  0.30 31.46 LIG 0.16  HD
ATOM     33 O    SER I   3      49.062  29.879   8.204  0.30 31.84 LIG-0.27  OA
BRANCH 31 34
ATOM     34  CA  THR I   4      49.346  32.443   8.063  0.30 31.16 LIG 0.20  C 
BRANCH 34 35
ATOM     35  CB  THR I   4      49.216  32.700   6.568  0.30 31.16 LIG 0.15  C 
ATOM     36  CG2 THR I   4      50.508  33.261   6.000  0.30 31.01 LIG 0.04  C 
BRANCH 35 37
ATOM     37 OG1  THR I   4      48.882  31.477   5.902  0.30 31.22 LIG-0.39  OA
ATOM     38 HG1  THR I   4      49.421  31.346   5.271  0.30 31.22 LIG 0.21  HD
ENDBRANCH 35 37
ENDBRANCH 34 35
BRANCH 34 39
ATOM     39  C   THR I   4      49.772  33.719   8.769  0.30 30.90 LIG 0.24  C 
ATOM     40  N   LYS I   5      50.979  33.698   9.284  0.30 30.59 LIG-0.35  N 
ATOM     41 H    LYS I   5      51.490  33.011   9.358  0.30 30.59 LIG 0.16  HD
ATOM     42 O    THR I   4      49.026  34.692   8.835  0.30 30.97 LIG-0.27  OA
BRANCH 40 43
ATOM     43  CA  LYS I   5      51.498  34.935   9.767  0.30 30.26 LIG 0.16  C 
BRANCH 43 44
ATOM     44  C   LYS I   5      51.816  35.745   8.523  0.30 30.28 LIG 0.22  C 
ATOM     45 O    LYS I   5      51.920  35.209   7.424  0.30 30.24 LIG-0.29  OA
ENDBRANCH 43 44
BRANCH 43 46
ATOM     46  CB  LYS I   5      52.769  34.781  10.573  0.30 30.11 LIG 0.03  C 
BRANCH 46 47
ATOM     47  CG  LYS I   5      53.502  36.087  10.805  0.30 29.43 LIG 0.00  C 
BRANCH 47 48
ATOM     48  CD  LYS I   5      53.876  36.247  12.258  0.30 28.58 LIG 0.03  C 
BRANCH 48 49
ATOM     49  CE  LYS I   5      55.352  36.592  12.389  0.30 28.11 LIG 0.23  C 
BRANCH 49 50
ATOM     50  NZ  LYS I   5      56.228  35.570  11.766  0.30 27.97 LIG-0.08  N 
ATOM     51 HZ1  LYS I   5      57.069  35.702  12.025  0.30 27.97 LIG 0.27  HD
ATOM     52 HZ2  LYS I   5      55.964  34.759  12.019  0.30 27.97 LIG 0.27  HD
ATOM     53 HZ3  LYS I   5      56.177  35.636  10.880  0.30 27.97 LIG 0.27  HD
ENDBRANCH 49 50
ENDBRANCH 48 49
ENDBRANCH 47 48
ENDBRANCH 46 47
ENDBRANCH 43 46
ENDBRANCH 40 43
ENDBRANCH 34 39
ENDBRANCH 31 34
ENDBRANCH 1 30
TORSDOF 23
