USER: ADFR SOLUTION from run 0
USER: SCORE 7.478381 LL:  -2.219 LR:  -6.027 RR:   0.000 FEB:  -1.255
USER: RMSD 0.648645
USER: STATUS Locally minimized using BFGS
USER: GENES 18
USER: genes 0 Translation |==|  0.49329 0.56319 0.53130
USER: genes 1 Rotation |==|  0.52607 0.52069 0.54007 0.99728
USER: genes 2 Torsion [N]-CA--C-[N] |==|  0.58889
USER: genes 3 Torsion [C]-N--CA-[C] |==|  0.66230
USER: genes 4 Torsion [N]-CA--C-[O] |==|  0.00266
USER: genes 5 Torsion [N]-CA--CB-[OG] |==|  0.61168
USER: genes 6 Torsion [CA]-CB--OG-[HG] |==|  0.34146
USER: genes 7 Torsion [C]-CA--CB-[CG] |==|  0.78405
USER: genes 8 Torsion [CA]-CB--CG-[CD] |==|  0.60749
USER: genes 9 Torsion [CB]-CG--CD-[NE] |==|  0.88752
USER: genes 10 Torsion [CG]-CD--NE-[CZ] |==|  0.62819
USER: genes 11 Torsion [C]-CA--N-[C] |==|  0.67844
USER: genes 12 Torsion [N]-C--CA-[N] |==|  0.34155
USER: genes 13 Torsion [C]-CA--N-[C] |==|  0.75483
USER: genes 14 Torsion [N]-C--CA-[N] |==|  0.87522
USER: genes 15 Torsion [C]-CA--N-[H1] |==|  0.42292
USER: genes 16 Torsion [C]-CA--CB-[CG2] |==|  0.10641
USER: genes 17 Torsion [CA]-CB--CG1-[CD1] |==|  0.86088
ROOT
ATOM      1  CA  ARG B   3       3.569  19.916  -6.431  0.50 56.69 LIG 0.18  C 
ENDROOT
BRANCH 1 2
ATOM      2  C   ARG B   3       4.291  21.037  -5.727  0.50 56.65 LIG 0.24  C 
ATOM      3 O    ARG B   3       4.888  21.928  -6.333  0.50 56.65 LIG-0.27  OA
ATOM      4  N   SER B   4       4.149  20.985  -4.410  0.50 56.58 LIG-0.34  N 
ATOM      5 H    SER B   4       3.548  20.507  -4.023  0.50 56.58 LIG 0.16  HD
BRANCH 4 6
ATOM      6  CA  SER B   4       4.982  21.720  -3.487  0.50 56.54 LIG 0.19  C 
BRANCH 6 7
ATOM      7  C   SER B   4       5.640  20.699  -2.570  0.50 56.54 LIG 0.22  C 
ATOM      8 O    SER B   4       5.430  19.492  -2.709  0.50 56.51 LIG-0.29  OA
ENDBRANCH 6 7
BRANCH 6 9
ATOM      9  CB  SER B   4       4.145  22.714  -2.682  0.50 56.54 LIG 0.20  C 
BRANCH 9 10
ATOM     10 OG   SER B   4       4.827  23.946  -2.517  0.50 56.48 LIG-0.40  OA
ATOM     11 HG   SER B   4       4.356  24.570  -2.823  0.50 56.48 LIG 0.21  HD
ENDBRANCH 9 10
ENDBRANCH 6 9
ENDBRANCH 4 6
ENDBRANCH 1 2
BRANCH 1 12
ATOM     12  CB  ARG B   3       3.456  18.766  -5.431  0.50 56.69 LIG 0.04  C 
BRANCH 12 13
ATOM     13  CG  ARG B   3       4.702  17.930  -5.209  0.50 56.67 LIG 0.02  C 
BRANCH 13 14
ATOM     14  CD  ARG B   3       4.403  16.441  -5.047  0.50 56.64 LIG 0.14  C 
BRANCH 14 15
ATOM     15  NE  ARG B   3       3.206  16.198  -4.234  0.50 56.60 LIG-0.23  N 
ATOM     16  CZ  ARG B   3       3.111  15.311  -3.245  0.50 56.66 LIG 0.67  C 
ATOM     17  NH2 ARG B   3       1.963  15.189  -2.587  0.50 56.73 LIG-0.23  N 
ATOM     18  NH1 ARG B   3       4.145  14.548  -2.903  0.50 56.69 LIG-0.23  N 
ATOM     19 22HH ARG B   3       1.892  14.618  -1.947  0.50 56.73 LIG 0.17  HD
ATOM     20 21HH ARG B   3       1.290  15.680  -2.800  0.50 56.73 LIG 0.17  HD
ATOM     21 12HH ARG B   3       4.067  13.980  -2.263  0.50 56.69 LIG 0.17  HD
ATOM     22 11HH ARG B   3       4.892  14.624  -3.323  0.50 56.69 LIG 0.17  HD
ATOM     23 HE   ARG B   3       2.507  16.668  -4.411  0.50 56.60 LIG 0.18  HD
ENDBRANCH 14 15
ENDBRANCH 13 14
ENDBRANCH 12 13
ENDBRANCH 1 12
BRANCH 1 24
ATOM     24  N   ARG B   3       4.149  19.408  -7.667  0.50 56.75 LIG-0.35  N 
ATOM     25  C   ILE B   2       3.498  19.536  -8.815  0.50 56.81 LIG 0.24  C 
ATOM     26 O    ILE B   2       2.537  20.283  -8.939  0.50 56.81 LIG-0.27  OA
ATOM     27 H    ARG B   3       4.919  19.034  -7.580  0.50 56.75 LIG 0.16  HD
BRANCH 25 28
ATOM     28  CA  ILE B   2       3.997  18.700  -9.993  0.50 56.86 LIG 0.18  C 
BRANCH 28 29
ATOM     29  N   ILE B   2       2.898  17.875 -10.481  0.50 56.91 LIG-0.35  N 
ATOM     30 H    ILE B   2       2.438  18.239 -11.110  0.50 56.91 LIG 0.16  HD
ATOM     31  C   ALA B   1       2.641  16.669  -9.988  0.50 56.95 LIG 0.25  C 
ATOM     32 O    ALA B   1       3.295  16.161  -9.076  0.50 56.96 LIG-0.27  OA
BRANCH 31 33
ATOM     33  CA  ALA B   1       1.464  15.925 -10.616  0.50 56.96 LIG 0.27  C 
ATOM     34  CB  ALA B   1       1.863  15.345 -11.964  0.50 56.98 LIG 0.05  C 
BRANCH 33 35
ATOM     35  N   ALA B   1       0.293  16.832 -10.774  0.50 56.97 LIG-0.07  N 
ATOM     36 H1   ALA B   1      -0.206  16.556 -11.458  0.50 56.97 LIG 0.28  HD
ATOM     37 H3   ALA B   1       0.578  17.660 -10.930  0.50 56.97 LIG 0.28  HD
ATOM     38 H2   ALA B   1      -0.194  16.822 -10.029  0.50 56.97 LIG 0.28  HD
ENDBRANCH 33 35
ENDBRANCH 31 33
ENDBRANCH 28 29
BRANCH 28 39
ATOM     39  CB  ILE B   2       4.522  19.596 -11.140  0.50 56.87 LIG 0.01  C 
ATOM     40  CG2 ILE B   2       5.280  20.819 -10.605  1.00 56.86 LIG 0.01  C 
BRANCH 39 41
ATOM     41  CG1 ILE B   2       5.379  18.771 -12.117  1.00 56.91 LIG 0.00  C 
ATOM     42  CD1 ILE B   2       6.471  17.919 -11.468  0.50 56.92 LIG 0.01  C 
ENDBRANCH 39 41
ENDBRANCH 28 39
ENDBRANCH 25 28
ENDBRANCH 1 24
TORSDOF 16
