USER: ADFR SOLUTION from run 0
USER: SCORE 16.372780 LL:  -4.638 LR: -13.818 RR:   0.000 FEB:  -7.255
USER: RMSD 0.798249
USER: STATUS Locally minimized using BFGS
USER: GENES 24
USER: genes 0 Translation |==|  0.51560 0.49216 0.50184
USER: genes 1 Rotation |==|  0.52070 0.51967 0.53721 0.99780
USER: genes 2 Torsion [CB]-CA--N-[C] |==|  0.39289
USER: genes 3 Torsion [N]-C--CA-[N] |==|  0.36640
USER: genes 4 Torsion [C]-CA--CB-[CG] |==|  0.51265
USER: genes 5 Torsion [CA]-CB--CG-[CD] |==|  0.53033
USER: genes 6 Torsion [CB]-CG--CD-[OE1] |==|  0.87007
USER: genes 7 Torsion [C]-CA--N-[C] |==|  0.71097
USER: genes 8 Torsion [N]-C--CA-[N] |==|  0.04259
USER: genes 9 Torsion [C]-CA--N-[H2] |==|  0.81916
USER: genes 10 Torsion [C]-CA--CB-[CG] |==|  0.45300
USER: genes 11 Torsion [CA]-CB--CG-[OD1] |==|  0.01468
USER: genes 12 Torsion [N]-CA--C-[N] |==|  0.45856
USER: genes 13 Torsion [C]-N--CA-[C] |==|  0.66828
USER: genes 14 Torsion [N]-CA--C-[N] |==|  0.32804
USER: genes 15 Torsion [C]-N--CA-[C] |==|  0.71251
USER: genes 16 Torsion [N]-CA--C-[O] |==|  0.93357
USER: genes 17 Torsion [N]-CA--CB-[CG] |==|  0.83022
USER: genes 18 Torsion [CA]-CB--CG-[CD2] |==|  0.46185
USER: genes 19 Torsion [N]-CA--CB-[CG] |==|  0.47590
USER: genes 20 Torsion [CA]-CB--CG-[CD2] |==|  0.57174
USER: genes 21 Torsion [CE1]-CZ--OH-[HH] |==|  0.00568
USER: genes 22 Torsion [N]-CA--CB-[CG] |==|  0.82469
USER: genes 23 Torsion [CA]-CB--CG-[CD1] |==|  0.66760
ROOT
ATOM      1  CA  PHE S   4      44.698  54.145  53.225  1.00 21.41 LIG 0.18  C 
ENDROOT
BRANCH 1 2
ATOM      2  N   PHE S   4      44.453  53.654  54.575  1.00 22.57 LIG-0.35  N 
ATOM      3 H    PHE S   4      44.656  52.826  54.688  1.00 22.57 LIG 0.16  HD
ATOM      4  C   GLU S   3      43.959  54.428  55.541  1.00 26.46 LIG 0.24  C 
ATOM      5 O    GLU S   3      43.664  55.616  55.372  1.00 26.71 LIG-0.27  OA
BRANCH 4 6
ATOM      6  CA  GLU S   3      43.699  53.748  56.875  1.00 28.27 LIG 0.18  C 
BRANCH 6 7
ATOM      7  CB  GLU S   3      42.184  53.692  56.989  1.00 28.84 LIG 0.04  C 
BRANCH 7 8
ATOM      8  CG  GLU S   3      41.607  53.164  58.258  1.00 31.31 LIG 0.12  C 
BRANCH 8 9
ATOM      9  CD  GLU S   3      40.125  52.938  58.081  1.00 32.39 LIG 0.17  C 
ATOM     10 OE2  GLU S   3      39.664  51.858  58.452  1.00 38.97 LIG-0.65  OA
ATOM     11 OE1  GLU S   3      39.429  53.841  57.542  1.00 34.38 LIG-0.65  OA
ENDBRANCH 8 9
ENDBRANCH 7 8
ENDBRANCH 6 7
BRANCH 6 12
ATOM     12  N   GLU S   3      44.277  54.580  57.949  1.00 29.65 LIG-0.35  N 
ATOM     13 H    GLU S   3      43.811  55.278  58.133  1.00 29.65 LIG 0.16  HD
ATOM     14  C   ASN S   2      45.406  54.280  58.571  1.00 31.60 LIG 0.25  C 
ATOM     15 O    ASN S   2      45.960  53.193  58.483  1.00 31.89 LIG-0.27  OA
BRANCH 14 16
ATOM     16  CA  ASN S   2      46.008  55.417  59.415  1.00 33.47 LIG 0.28  C 
BRANCH 16 17
ATOM     17  N   ASN S   2      45.063  56.532  59.689  1.00 34.35 LIG-0.07  N 
ATOM     18 H2   ASN S   2      44.853  56.938  58.925  1.00 34.35 LIG 0.28  HD
ATOM     19 H3   ASN S   2      44.325  56.210  60.066  1.00 34.35 LIG 0.28  HD
ATOM     20 H1   ASN S   2      45.446  57.117  60.239  1.00 34.35 LIG 0.28  HD
ENDBRANCH 16 17
BRANCH 16 21
ATOM     21  CB  ASN S   2      46.587  54.925  60.728  1.00 34.36 LIG 0.14  C 
BRANCH 21 22
ATOM     22  CG  ASN S   2      47.527  55.952  61.351  1.00 36.60 LIG 0.22  C 
ATOM     23 OD1  ASN S   2      47.680  57.097  60.847  1.00 40.55 LIG-0.27  OA
ATOM     24  ND2 ASN S   2      48.162  55.560  62.446  1.00 40.03 LIG-0.37  N 
ATOM     25 22HD ASN S   2      48.031  54.769  62.760  1.00 40.03 LIG 0.16  HD
ATOM     26 21HD ASN S   2      48.706  56.095  62.843  1.00 40.03 LIG 0.16  HD
ENDBRANCH 21 22
ENDBRANCH 16 21
ENDBRANCH 14 16
ENDBRANCH 6 12
ENDBRANCH 4 6
ENDBRANCH 1 2
BRANCH 1 27
ATOM     27  C   PHE S   4      43.549  53.761  52.296  1.00 20.14 LIG 0.24  C 
ATOM     28 O    PHE S   4      42.752  52.880  52.598  1.00 18.43 LIG-0.27  OA
ATOM     29  N   TYR S   5      43.514  54.409  51.138  1.00 19.70 LIG-0.35  N 
ATOM     30 H    TYR S   5      44.057  55.045  50.935  1.00 19.70 LIG 0.16  HD
BRANCH 29 31
ATOM     31  CA  TYR S   5      42.541  54.103  50.091  1.00 19.15 LIG 0.18  C 
BRANCH 31 32
ATOM     32  C   TYR S   5      43.342  53.677  48.871  1.00 19.17 LIG 0.24  C 
ATOM     33  N   PHE S   6      43.134  52.435  48.445  1.00 19.00 LIG-0.34  N 
ATOM     34 H    PHE S   6      42.596  51.888  48.834  1.00 19.00 LIG 0.16  HD
ATOM     35 O    TYR S   5      44.164  54.436  48.350  1.00 19.39 LIG-0.27  OA
BRANCH 33 36
ATOM     36  CA  PHE S   6      43.793  51.871  47.273  1.00 19.20 LIG 0.19  C 
BRANCH 36 37
ATOM     37  C   PHE S   6      42.893  51.795  46.047  1.00 19.81 LIG 0.20  C 
ATOM     38 O    PHE S   6      41.657  51.758  46.183  1.00 18.53 LIG-0.65  OA
ATOM     39 OXT  PHE S   6      43.480  51.755  44.933  1.00 20.48 LIG-0.65  OA
ENDBRANCH 36 37
BRANCH 36 40
ATOM     40  CB  PHE S   6      44.328  50.477  47.615  1.00 19.81 LIG 0.07  C 
BRANCH 40 41
ATOM     41  CG  PHE S   6      45.366  50.469  48.743  1.00 21.45 LIG-0.06  A 
ATOM     42  CD2 PHE S   6      45.730  49.286  49.355  1.00 24.56 LIG 0.01  A 
ATOM     43  CE2 PHE S   6      46.676  49.274  50.390  1.00 25.95 LIG 0.00  A 
ATOM     44  CZ  PHE S   6      47.277  50.444  50.767  1.00 23.46 LIG 0.00  A 
ATOM     45  CE1 PHE S   6      46.947  51.624  50.150  1.00 24.74 LIG 0.00  A 
ATOM     46  CD1 PHE S   6      46.010  51.645  49.152  1.00 22.31 LIG 0.01  A 
ENDBRANCH 40 41
ENDBRANCH 36 40
ENDBRANCH 33 36
ENDBRANCH 31 32
BRANCH 31 47
ATOM     47  CB  TYR S   5      41.682  55.349  49.809  1.00 19.45 LIG 0.07  C 
BRANCH 47 48
ATOM     48  CG  TYR S   5      40.759  55.285  48.622  1.00 19.88 LIG-0.06  A 
ATOM     49  CD1 TYR S   5      40.272  54.080  48.126  1.00 18.15 LIG 0.01  A 
ATOM     50  CE1 TYR S   5      39.453  54.040  47.028  1.00 18.26 LIG 0.04  A 
ATOM     51  CZ  TYR S   5      39.080  55.224  46.411  1.00 18.69 LIG 0.07  A 
ATOM     52  CE2 TYR S   5      39.530  56.420  46.887  1.00 19.96 LIG 0.04  A 
ATOM     53  CD2 TYR S   5      40.376  56.452  47.985  1.00 21.89 LIG 0.01  A 
BRANCH 51 54
ATOM     54 OH   TYR S   5      38.261  55.207  45.316  1.00 21.24 LIG-0.36  OA
ATOM     55 HH   TYR S   5      38.038  54.416  45.144  1.00 21.24 LIG 0.22  HD
ENDBRANCH 51 54
ENDBRANCH 47 48
ENDBRANCH 31 47
ENDBRANCH 29 31
ENDBRANCH 1 27
BRANCH 1 56
ATOM     56  CB  PHE S   4      45.983  53.528  52.714  1.00 21.76 LIG 0.07  C 
BRANCH 56 57
ATOM     57  CG  PHE S   4      47.185  53.921  53.504  1.00 21.60 LIG-0.06  A 
ATOM     58  CD2 PHE S   4      47.269  53.619  54.845  1.00 23.13 LIG 0.01  A 
ATOM     59  CE2 PHE S   4      48.348  54.005  55.582  1.00 23.23 LIG 0.00  A 
ATOM     60  CZ  PHE S   4      49.396  54.628  54.975  1.00 22.51 LIG 0.00  A 
ATOM     61  CE1 PHE S   4      49.334  54.942  53.635  1.00 22.53 LIG 0.00  A 
ATOM     62  CD1 PHE S   4      48.232  54.591  52.896  1.00 22.71 LIG 0.01  A 
ENDBRANCH 56 57
ENDBRANCH 1 56
TORSDOF 22
