USER: ADFR SOLUTION from run 0
USER: SCORE 9.902762 LL:  -3.764 LR:  -6.139 RR:   0.000 FEB:  -3.455
USER: RMSD 4.634568
USER: STATUS Locally minimized using BFGS
USER: GENES 11
USER: genes 0 Translation |==|  0.51242 0.49216 0.55568
USER: genes 1 Rotation |==|  0.60127 0.36749 0.60749 0.95895
USER: genes 2 Torsion [N]-CA--C-[O] |==|  0.33919
USER: genes 3 Torsion [C]-N--CA-[CB] |==|  0.56151
USER: genes 4 Torsion [N]-CA--C-[OXT] |==|  0.88159
USER: genes 5 Torsion [N]-CA--CB-[CG] |==|  0.82192
USER: genes 6 Torsion [CA]-CB--CG-[CD1] |==|  0.97306
USER: genes 7 Torsion [N]-C--CA-[N] |==|  0.36962
USER: genes 8 Torsion [C]-CA--CB-[CG] |==|  0.32773
USER: genes 9 Torsion [CA]-CB--CG-[CD1] |==|  0.32849
USER: genes 10 Torsion [C]-CA--N-[H2] |==|  0.84111
ROOT
ATOM      1  C   TRP D   1      13.273 -11.055  36.510  1.00 35.88 LIG 0.25  C 
ATOM      2 O    TRP D   1      12.243 -11.705  36.104  1.00 38.57 LIG-0.27  OA
ATOM      3  N   PRO D   2      13.340  -9.908  37.062  1.00 34.89 LIG-0.34  N 
ATOM      4  CA  PRO D   2      12.173  -9.075  37.502  1.00 35.03 LIG 0.18  C 
ATOM      5  CB  PRO D   2      12.883  -7.892  38.096  1.00 35.34 LIG 0.04  C 
ATOM      6  CG  PRO D   2      14.093  -8.567  38.747  1.00 35.42 LIG 0.02  C 
ATOM      7  CD  PRO D   2      14.429  -9.828  38.023  1.00 35.14 LIG 0.13  C 
ENDROOT
BRANCH 4 8
ATOM      8  C   PRO D   2      11.062  -8.677  36.537  1.00 35.70 LIG 0.24  C 
ATOM      9 O    PRO D   2       9.881  -8.944  36.699  1.00 34.88 LIG-0.27  OA
ATOM     10  N   TRP D   3      11.613  -7.995  35.510  1.00 36.87 LIG-0.34  N 
ATOM     11 H    TRP D   3      12.409  -7.672  35.549  1.00 36.87 LIG 0.16  HD
BRANCH 10 12
ATOM     12  CA  TRP D   3      10.934  -7.714  34.196  1.00 37.56 LIG 0.19  C 
BRANCH 12 13
ATOM     13  C   TRP D   3       9.806  -8.614  33.568  1.00 38.92 LIG 0.20  C 
ATOM     14 OXT  TRP D   3       9.872  -9.888  33.574  1.00 41.38 LIG-0.65  OA
ATOM     15 O    TRP D   3       8.794  -7.972  33.001  1.00 40.06 LIG-0.65  OA
ENDBRANCH 12 13
BRANCH 12 16
ATOM     16  CB  TRP D   3      12.020  -7.425  33.094  1.00 36.55 LIG 0.08  C 
BRANCH 16 17
ATOM     17  CG  TRP D   3      12.824  -6.152  33.407  1.00 35.48 LIG-0.03  A 
ATOM     18  CD1 TRP D   3      12.545  -5.210  34.404  1.00 37.13 LIG 0.10  A 
ATOM     19  NE1 TRP D   3      13.485  -4.198  34.368  1.00 40.71 LIG-0.36  N 
ATOM     20 HE1  TRP D   3      13.497  -3.515  34.890  1.00 40.71 LIG 0.17  HD
ATOM     21  CE2 TRP D   3      14.402  -4.447  33.369  1.00 36.12 LIG 0.04  A 
ATOM     22  CD2 TRP D   3      14.014  -5.687  32.729  1.00 33.28 LIG-0.00  A 
ATOM     23  CZ2 TRP D   3      15.522  -3.676  32.965  1.00 34.49 LIG 0.03  A 
ATOM     24  CE3 TRP D   3      14.769  -6.171  31.630  1.00 31.46 LIG 0.01  A 
ATOM     25  CZ3 TRP D   3      15.899  -5.438  31.218  1.00 32.66 LIG 0.00  A 
ATOM     26  CH2 TRP D   3      16.268  -4.174  31.892  1.00 36.62 LIG 0.00  A 
ENDBRANCH 16 17
ENDBRANCH 12 16
ENDBRANCH 10 12
ENDBRANCH 4 8
BRANCH 1 27
ATOM     27  CA  TRP D   1      14.703 -11.551  36.133  1.00 34.78 LIG 0.28  C 
BRANCH 27 28
ATOM     28  CB  TRP D   1      14.964 -11.441  34.624  1.00 34.63 LIG 0.08  C 
BRANCH 28 29
ATOM     29  CG  TRP D   1      16.140 -10.470  34.305  1.00 37.87 LIG-0.03  A 
ATOM     30  CD1 TRP D   1      17.344 -10.778  33.674  1.00 40.68 LIG 0.10  A 
ATOM     31  NE1 TRP D   1      18.105  -9.634  33.532  1.00 42.18 LIG-0.36  N 
ATOM     32 HE1  TRP D   1      18.884  -9.596  33.171  1.00 42.18 LIG 0.17  HD
ATOM     33  CE2 TRP D   1      17.409  -8.560  34.064  1.00 41.11 LIG 0.04  A 
ATOM     34  CD2 TRP D   1      16.178  -9.048  34.562  1.00 38.74 LIG-0.00  A 
ATOM     35  CZ2 TRP D   1      17.773  -7.181  34.146  1.00 41.13 LIG 0.03  A 
ATOM     36  CE3 TRP D   1      15.268  -8.130  35.128  1.00 40.52 LIG 0.01  A 
ATOM     37  CZ3 TRP D   1      15.633  -6.763  35.215  1.00 41.02 LIG 0.00  A 
ATOM     38  CH2 TRP D   1      16.873  -6.309  34.715  1.00 39.74 LIG 0.00  A 
ENDBRANCH 28 29
ENDBRANCH 27 28
BRANCH 27 39
ATOM     39  N   TRP D   1      14.927 -12.981  36.559  1.00 33.45 LIG-0.07  N 
ATOM     40 H3   TRP D   1      14.359 -13.513  36.126  1.00 33.45 LIG 0.28  HD
ATOM     41 H2   TRP D   1      14.791 -13.055  37.436  1.00 33.45 LIG 0.28  HD
ATOM     42 H1   TRP D   1      15.762 -13.222  36.367  1.00 33.45 LIG 0.28  HD
ENDBRANCH 27 39
ENDBRANCH 1 27
TORSDOF 9
