USER: ADFR SOLUTION from run 0
USER: SCORE 7.805060 LL:  -1.466 LR:  -6.339 RR:   0.000 FEB:  -5.444
USER: RMSD 0.491142
USER: STATUS Locally minimized using BFGS
USER: GENES 5
USER: genes 0 Translation |==|  0.47190 0.48642 0.51715
USER: genes 1 Rotation |==|  0.54831 0.49914 0.49628 0.99765
USER: genes 2 Torsion [N]-C--CA-[N] |==|  0.43767
USER: genes 3 Torsion [C]-CA--N-[H1] |==|  0.49139
USER: genes 4 Torsion [N]-CA--C-[O] |==|  0.00440
ROOT
ATOM      1  C   ALA A 201      18.747  11.562   4.475  1.00 26.07 LIG 0.25  C 
ATOM      2 O    ALA A 201      17.696  11.277   5.085  1.00 22.86 LIG-0.27  OA
ATOM      3  N   PRO A 202      19.368  12.744   4.651  1.00 25.00 LIG-0.34  N 
ATOM      4  CA  PRO A 202      20.616  13.135   3.990  1.00 23.99 LIG 0.19  C 
ATOM      5  CB  PRO A 202      20.578  14.636   4.115  1.00 24.00 LIG 0.04  C 
ATOM      6  CG  PRO A 202      19.943  14.849   5.460  1.00 23.51 LIG 0.02  C 
ATOM      7  CD  PRO A 202      18.840  13.815   5.477  1.00 22.64 LIG 0.13  C 
ENDROOT
BRANCH 1 8
ATOM      8  CA  ALA A 201      19.284  10.555   3.462  1.00 25.54 LIG 0.27  C 
ATOM      9  CB  ALA A 201      18.729  10.912   2.102  1.00 24.99 LIG 0.05  C 
BRANCH 8 10
ATOM     10  N   ALA A 201      18.756   9.296   3.917  1.00 26.99 LIG-0.07  N 
ATOM     11 H1   ALA A 201      18.989   8.653   3.348  1.00 26.99 LIG 0.28  HD
ATOM     12 H2   ALA A 201      19.083   9.111   4.724  1.00 26.99 LIG 0.28  HD
ATOM     13 H3   ALA A 201      17.868   9.345   3.962  1.00 26.99 LIG 0.28  HD
ENDBRANCH 8 10
ENDBRANCH 1 8
BRANCH 4 14
ATOM     14  C   PRO A 202      21.900  12.481   4.510  1.00 25.43 LIG 0.20  C 
ATOM     15 O    PRO A 202      21.840  11.655   5.414  1.00 26.00 LIG-0.65  OA
ATOM     16 OXT  PRO A 202      22.965  12.720   3.959  1.00 26.17 LIG-0.65  OA
ENDBRANCH 4 14
TORSDOF 3
