USER: ADFR SOLUTION from run 0
USER: SCORE 17.888593 LL:  -3.028 LR: -18.371 RR:   0.000 FEB: -11.212
USER: RMSD 0.313838
USER: STATUS Locally minimized using BFGS
USER: GENES 26
USER: genes 0 Translation |==|  0.45864 0.50655 0.49325
USER: genes 1 Rotation |==|  0.49414 0.49852 0.49954 0.99996
USER: genes 2 Torsion [C]-CA--CB-[CG] |==|  0.49222
USER: genes 3 Torsion [CA]-CB--CG-[CD] |==|  0.51334
USER: genes 4 Torsion [CB]-CG--CD-[CE] |==|  0.85748
USER: genes 5 Torsion [CG]-CD--CE-[NZ] |==|  0.40645
USER: genes 6 Torsion [CD]-CE--NZ-[HZ3] |==|  0.27151
USER: genes 7 Torsion [N]-CA--C-[N] |==|  0.43921
USER: genes 8 Torsion [C]-N--CA-[CB] |==|  0.38330
USER: genes 9 Torsion [N]-CA--CB-[CG2] |==|  0.80619
USER: genes 10 Torsion [CA]-CB--OG1-[HG1] |==|  0.33375
USER: genes 11 Torsion [N]-CA--C-[N] |==|  0.40802
USER: genes 12 Torsion [C]-N--CA-[CB] |==|  0.23701
USER: genes 13 Torsion [N]-CA--C-[O] |==|  0.44085
USER: genes 14 Torsion [N]-CA--CB-[CG] |==|  0.20997
USER: genes 15 Torsion [CA]-CB--CG-[CD] |==|  0.49148
USER: genes 16 Torsion [CB]-CG--CD-[CE] |==|  0.83283
USER: genes 17 Torsion [CG]-CD--CE-[NZ] |==|  0.51716
USER: genes 18 Torsion [CD]-CE--NZ-[HZ1] |==|  0.50390
USER: genes 19 Torsion [CB]-CA--N-[C] |==|  0.36290
USER: genes 20 Torsion [N]-C--CA-[N] |==|  0.40993
USER: genes 21 Torsion [C]-CA--N-[C] |==|  0.84749
USER: genes 22 Torsion [N]-C--CA-[N] |==|  0.33892
USER: genes 23 Torsion [C]-CA--N-[H2] |==|  0.83246
USER: genes 24 Torsion [C]-CA--CB-[OG] |==|  0.50743
USER: genes 25 Torsion [CA]-CB--OG-[HG] |==|  0.71601
ROOT
ATOM      1  CA  LYS D   3     -23.331  21.197  19.168  1.00 12.74 LIG 0.18  C 
ENDROOT
BRANCH 1 2
ATOM      2  CB  LYS D   3     -23.314  20.455  20.497  1.00 13.63 LIG 0.04  C 
BRANCH 2 3
ATOM      3  CG  LYS D   3     -24.632  19.789  20.859  1.00 18.86 LIG 0.00  C 
BRANCH 3 4
ATOM      4  CD  LYS D   3     -24.530  19.190  22.243  1.00 22.56 LIG 0.03  C 
BRANCH 4 5
ATOM      5  CE  LYS D   3     -23.294  18.315  22.355  1.00 24.97 LIG 0.23  C 
BRANCH 5 6
ATOM      6  NZ  LYS D   3     -22.718  18.375  23.721  1.00 28.16 LIG-0.08  N 
ATOM      7 HZ3  LYS D   3     -22.996  17.673  24.192  1.00 28.16 LIG 0.27  HD
ATOM      8 HZ2  LYS D   3     -22.983  19.124  24.122  1.00 28.16 LIG 0.27  HD
ATOM      9 HZ1  LYS D   3     -21.829  18.365  23.669  1.00 28.16 LIG 0.27  HD
ENDBRANCH 5 6
ENDBRANCH 4 5
ENDBRANCH 3 4
ENDBRANCH 2 3
ENDBRANCH 1 2
BRANCH 1 10
ATOM     10  C   LYS D   3     -21.993  21.882  18.934  1.00 12.20 LIG 0.24  C 
ATOM     11 O    LYS D   3     -21.144  21.375  18.211  1.00 13.71 LIG-0.27  OA
ATOM     12  N   THR D   4     -21.806  23.031  19.567  1.00 12.61 LIG-0.34  N 
ATOM     13 H    THR D   4     -22.379  23.380  20.106  1.00 12.61 LIG 0.16  HD
BRANCH 12 14
ATOM     14  CA  THR D   4     -20.589  23.810  19.399  1.00 12.32 LIG 0.20  C 
BRANCH 14 15
ATOM     15  CB  THR D   4     -20.935  25.301  19.279  1.00 14.29 LIG 0.15  C 
ATOM     16  CG2 THR D   4     -21.630  25.584  17.968  1.00 19.77 LIG 0.04  C 
BRANCH 15 17
ATOM     17 OG1  THR D   4     -21.802  25.670  20.360  1.00 20.60 LIG-0.39  OA
ATOM     18 HG1  THR D   4     -21.438  26.273  20.818  1.00 20.60 LIG 0.21  HD
ENDBRANCH 15 17
ENDBRANCH 14 15
BRANCH 14 19
ATOM     19  C   THR D   4     -19.557  23.662  20.510  1.00 10.70 LIG 0.24  C 
ATOM     20  N   LYS D   5     -18.287  23.749  20.125  1.00 11.43 LIG-0.34  N 
ATOM     21 H    LYS D   5     -18.046  23.850  19.306  1.00 11.43 LIG 0.16  HD
ATOM     22 O    THR D   4     -19.900  23.486  21.677  1.00 10.42 LIG-0.27  OA
BRANCH 20 23
ATOM     23  CA  LYS D   5     -17.173  23.682  21.066  1.00 11.71 LIG 0.18  C 
BRANCH 23 24
ATOM     24  C   LYS D   5     -15.986  24.436  20.470  1.00 11.58 LIG 0.20  C 
ATOM     25 OXT  LYS D   5     -15.952  24.601  19.229  1.00 10.04 LIG-0.65  OA
ATOM     26 O    LYS D   5     -15.097  24.843  21.245  1.00 12.40 LIG-0.65  OA
ENDBRANCH 23 24
BRANCH 23 27
ATOM     27  CB  LYS D   5     -16.777  22.230  21.351  1.00 15.42 LIG 0.04  C 
BRANCH 27 28
ATOM     28  CG  LYS D   5     -15.998  21.568  20.228  1.00 18.22 LIG 0.00  C 
BRANCH 28 29
ATOM     29  CD  LYS D   5     -15.562  20.156  20.583  1.00 24.34 LIG 0.03  C 
BRANCH 29 30
ATOM     30  CE  LYS D   5     -14.666  20.111  21.802  1.00 24.78 LIG 0.23  C 
BRANCH 30 31
ATOM     31  NZ  LYS D   5     -14.151  18.730  22.015  1.00 27.37 LIG-0.08  N 
ATOM     32 HZ1  LYS D   5     -13.642  18.712  22.745  1.00 27.37 LIG 0.27  HD
ATOM     33 HZ2  LYS D   5     -14.836  18.170  22.117  1.00 27.37 LIG 0.27  HD
ATOM     34 HZ3  LYS D   5     -13.667  18.481  21.310  1.00 27.37 LIG 0.27  HD
ENDBRANCH 30 31
ENDBRANCH 29 30
ENDBRANCH 28 29
ENDBRANCH 27 28
ENDBRANCH 23 27
ENDBRANCH 20 23
ENDBRANCH 14 19
ENDBRANCH 12 14
ENDBRANCH 1 10
BRANCH 1 35
ATOM     35  N   LYS D   3     -23.622  20.276  18.077  1.00 13.26 LIG-0.35  N 
ATOM     36  C   SER D   2     -24.557  20.552  17.173  1.00 15.91 LIG 0.24  C 
ATOM     37 O    SER D   2     -25.226  21.585  17.201  1.00 16.67 LIG-0.27  OA
ATOM     38 H    LYS D   3     -23.145  19.560  18.076  1.00 13.26 LIG 0.16  HD
BRANCH 36 39
ATOM     39  CA  SER D   2     -24.773  19.512  16.077  1.00 18.03 LIG 0.20  C 
BRANCH 39 40
ATOM     40  N   SER D   2     -26.174  19.497  15.671  1.00 20.90 LIG-0.34  N 
ATOM     41  C   ALA D   1     -27.157  19.319  16.547  0.60 22.25 LIG 0.25  C 
ATOM     42 O    ALA D   1     -26.960  19.146  17.750  0.60 23.13 LIG-0.27  OA
ATOM     43 H    SER D   2     -26.299  19.611  14.827  1.00 20.90 LIG 0.16  HD
BRANCH 41 44
ATOM     44  CA  ALA D   1     -28.574  19.334  15.984  0.60 22.82 LIG 0.27  C 
ATOM     45  CB  ALA D   1     -29.351  20.509  16.562  0.60 23.19 LIG 0.05  C 
BRANCH 44 46
ATOM     46  N   ALA D   1     -29.282  18.060  16.290  0.60 23.87 LIG-0.07  N 
ATOM     47 H2   ALA D   1     -28.841  17.379  15.925  0.60 23.87 LIG 0.28  HD
ATOM     48 H1   ALA D   1     -30.107  18.091  15.957  0.60 23.87 LIG 0.28  HD
ATOM     49 H3   ALA D   1     -29.323  17.946  17.172  0.60 23.87 LIG 0.28  HD
ENDBRANCH 44 46
ENDBRANCH 41 44
ENDBRANCH 39 40
BRANCH 39 50
ATOM     50  CB  SER D   2     -23.884  19.839  14.875  1.00 19.56 LIG 0.20  C 
BRANCH 50 51
ATOM     51 OG   SER D   2     -24.107  18.925  13.815  1.00 25.44 LIG-0.40  OA
ATOM     52 HG   SER D   2     -23.483  18.362  13.795  1.00 25.44 LIG 0.21  HD
ENDBRANCH 50 51
ENDBRANCH 39 50
ENDBRANCH 36 39
ENDBRANCH 1 35
TORSDOF 24
