USER: ADFR SOLUTION from run 0
USER: SCORE 8.578957 LL:  -2.813 LR:  -7.528 RR:   0.000 FEB:  -3.053
USER: RMSD 0.872421
USER: STATUS Locally minimized using BFGS
USER: GENES 17
USER: genes 0 Translation |==|  0.48833 0.48283 0.44305
USER: genes 1 Rotation |==|  0.52414 0.36328 0.46672 0.97918
USER: genes 2 Torsion [C]-N--CA-[CB] |==|  0.84443
USER: genes 3 Torsion [N]-CA--CB-[CG] |==|  0.56095
USER: genes 4 Torsion [CA]-CB--CG-[CD1] |==|  0.33355
USER: genes 5 Torsion [N]-CA--C-[N] |==|  0.16008
USER: genes 6 Torsion [C]-N--CA-[CB] |==|  0.46342
USER: genes 7 Torsion [N]-CA--CB-[CG] |==|  0.53630
USER: genes 8 Torsion [CA]-CB--CG-[ND1] |==|  0.89362
USER: genes 9 Torsion [N]-CA--C-[O] |==|  0.73443
USER: genes 10 Torsion [N]-C--CA-[N] |==|  0.77778
USER: genes 11 Torsion [C]-CA--N-[C] |==|  0.70106
USER: genes 12 Torsion [N]-C--CA-[N] |==|  0.19069
USER: genes 13 Torsion [C]-CA--CB-[CG2] |==|  0.16276
USER: genes 14 Torsion [C]-CA--N-[H3] |==|  0.17926
USER: genes 15 Torsion [C]-CA--CB-[CG] |==|  0.63798
USER: genes 16 Torsion [CA]-CB--CG-[CD1] |==|  0.47363
ROOT
ATOM      1  C   LEU P   2     -20.380  21.805 -16.468  0.50 57.15 LIG 0.24  C 
ATOM      2 O    LEU P   2     -19.581  21.838 -17.411  0.50 57.16 LIG-0.27  OA
ATOM      3  N   LEU P   3     -20.812  20.749 -15.801  0.50 57.16 LIG-0.35  N 
ATOM      4 H    LEU P   3     -21.530  20.800 -15.329  0.50 57.16 LIG 0.16  HD
ENDROOT
BRANCH 3 5
ATOM      5  CA  LEU P   3     -20.245  19.444 -15.726  0.50 57.19 LIG 0.18  C 
BRANCH 5 6
ATOM      6  CB  LEU P   3     -20.041  18.766 -17.065  0.50 57.26 LIG 0.04  C 
BRANCH 6 7
ATOM      7  CG  LEU P   3     -19.985  17.279 -16.693  0.50 57.44 LIG-0.02  C 
ATOM      8  CD1 LEU P   3     -21.080  16.481 -17.378  0.50 57.60 LIG 0.01  C 
ATOM      9  CD2 LEU P   3     -18.604  16.677 -16.933  0.50 57.51 LIG 0.01  C 
ENDBRANCH 6 7
ENDBRANCH 5 6
BRANCH 5 10
ATOM     10  C   LEU P   3     -18.932  19.817 -15.052  0.50 57.14 LIG 0.24  C 
ATOM     11  N   HIS P   4     -19.053  20.442 -13.880  0.50 57.08 LIG-0.35  N 
ATOM     12 H    HIS P   4     -19.812  20.617 -13.518  0.50 57.08 LIG 0.16  HD
ATOM     13 O    LEU P   3     -17.852  19.609 -15.600  0.50 57.14 LIG-0.27  OA
BRANCH 11 14
ATOM     14  CA  HIS P   4     -17.909  20.895 -13.089  0.50 57.02 LIG 0.17  C 
BRANCH 14 15
ATOM     15  CB  HIS P   4     -18.377  21.854 -11.977  0.50 56.94 LIG 0.09  C 
BRANCH 15 16
ATOM     16  CG  HIS P   4     -17.273  22.617 -11.304  0.50 56.80 LIG 0.05  A 
ATOM     17 ND1  HIS P   4     -16.042  22.066 -11.019  0.50 56.77 LIG-0.25  NA
ATOM     18  CE1 HIS P   4     -15.284  22.968 -10.420  0.50 56.50 LIG 0.21  A 
ATOM     19  NE2 HIS P   4     -15.980  24.083 -10.299  0.50 56.43 LIG-0.36  N 
ATOM     20 HE2  HIS P   4     -15.698  24.812  -9.941  0.50 56.43 LIG 0.17  HD
ATOM     21  CD2 HIS P   4     -17.228  23.889 -10.840  0.50 56.57 LIG 0.12  A 
ENDBRANCH 15 16
ENDBRANCH 14 15
BRANCH 14 22
ATOM     22  C   HIS P   4     -17.171  19.694 -12.506  0.50 57.04 LIG 0.22  C 
ATOM     23 O    HIS P   4     -17.405  19.301 -11.364  0.50 57.12 LIG-0.29  OA
ENDBRANCH 14 22
ENDBRANCH 11 14
ENDBRANCH 5 10
ENDBRANCH 3 5
BRANCH 1 24
ATOM     24  CA  LEU P   2     -21.063  22.981 -15.860  0.50 57.16 LIG 0.18  C 
BRANCH 24 25
ATOM     25  N   LEU P   2     -22.420  23.340 -16.186  0.50 57.19 LIG-0.35  N 
ATOM     26  C   VAL P   1     -22.628  24.412 -16.933  0.50 57.27 LIG 0.25  C 
ATOM     27 O    VAL P   1     -21.727  24.970 -17.568  0.50 57.24 LIG-0.27  OA
ATOM     28 H    LEU P   2     -23.031  22.826 -15.869  0.50 57.19 LIG 0.16  HD
BRANCH 26 29
ATOM     29  CA  VAL P   1     -24.066  24.886 -16.998  0.50 57.27 LIG 0.28  C 
BRANCH 29 30
ATOM     30  CB  VAL P   1     -24.218  25.979 -18.072  0.50 57.30 LIG 0.02  C 
ATOM     31  CG2 VAL P   1     -23.791  25.458 -19.436  0.50 57.34 LIG 0.01  C 
ATOM     32  CG1 VAL P   1     -23.431  27.225 -17.687  0.50 57.33 LIG 0.01  C 
ENDBRANCH 29 30
BRANCH 29 33
ATOM     33  N   VAL P   1     -24.419  25.412 -15.650  0.50 57.23 LIG-0.07  N 
ATOM     34 H3   VAL P   1     -23.922  26.127 -15.470  0.50 57.23 LIG 0.28  HD
ATOM     35 H2   VAL P   1     -24.268  24.784 -15.037  0.50 57.23 LIG 0.28  HD
ATOM     36 H1   VAL P   1     -25.280  25.638 -15.636  0.50 57.23 LIG 0.28  HD
ENDBRANCH 29 33
ENDBRANCH 26 29
ENDBRANCH 24 25
BRANCH 24 37
ATOM     37  CB  LEU P   2     -20.943  22.653 -14.367  0.50 57.14 LIG 0.04  C 
BRANCH 37 38
ATOM     38  CG  LEU P   2     -22.053  22.672 -13.339  0.50 56.96 LIG-0.02  C 
ATOM     39  CD1 LEU P   2     -21.509  22.051 -12.055  0.50 57.03 LIG 0.01  C 
ATOM     40  CD2 LEU P   2     -22.518  24.087 -13.121  0.50 56.70 LIG 0.01  C 
ENDBRANCH 37 38
ENDBRANCH 24 37
ENDBRANCH 1 24
TORSDOF 15
