USER: ADFR SOLUTION from run 0
USER: SCORE 6.243367 LL:  -3.378 LR:  -4.413 RR:   0.000 FEB:   1.553
USER: RMSD 0.018735
USER: STATUS Locally minimized using BFGS
USER: GENES 22
USER: genes 0 Translation |==|  0.44758 0.46136 0.56967
USER: genes 1 Rotation |==|  0.49988 0.49993 0.50076 1.00000
USER: genes 2 Torsion [CB]-CA--N-[C] |==|  0.10818
USER: genes 3 Torsion [N]-C--CA-[N] |==|  0.42715
USER: genes 4 Torsion [C]-CA--CB-[CG] |==|  0.49858
USER: genes 5 Torsion [CA]-CB--CG-[CD1] |==|  0.36239
USER: genes 6 Torsion [C]-CA--N-[C] |==|  0.64230
USER: genes 7 Torsion [N]-C--CA-[N] |==|  0.27377
USER: genes 8 Torsion [C]-CA--N-[H3] |==|  0.16669
USER: genes 9 Torsion [C]-CA--CB-[CG] |==|  0.22134
USER: genes 10 Torsion [CA]-CB--CG-[CD1] |==|  0.46618
USER: genes 11 Torsion [N]-CA--CB-[CG] |==|  0.71911
USER: genes 12 Torsion [CA]-CB--CG-[CD1] |==|  0.84917
USER: genes 13 Torsion [N]-CA--C-[N] |==|  0.18603
USER: genes 14 Torsion [C]-N--CA-[C] |==|  0.86357
USER: genes 15 Torsion [N]-CA--CB-[CG] |==|  0.03810
USER: genes 16 Torsion [CA]-CB--CG-[OD1] |==|  0.19184
USER: genes 17 Torsion [N]-CA--C-[N] |==|  0.47059
USER: genes 18 Torsion [C]-N--CA-[C] |==|  0.83160
USER: genes 19 Torsion [N]-CA--C-[O] |==|  0.64961
USER: genes 20 Torsion [N]-CA--CB-[CG] |==|  0.05447
USER: genes 21 Torsion [CA]-CB--CG-[OD1] |==|  0.12913
ROOT
ATOM      1  CA  PHE P   3      18.667 -16.019 -12.200  1.00 45.52 LIG 0.18  C 
ENDROOT
BRANCH 1 2
ATOM      2  N   PHE P   3      19.545 -15.412 -13.278  1.00 45.79 LIG-0.35  N 
ATOM      3 H    PHE P   3      19.689 -14.579 -13.119  1.00 45.79 LIG 0.16  HD
ATOM      4  C   LEU P   2      20.076 -15.987 -14.363  1.00 46.01 LIG 0.24  C 
ATOM      5 O    LEU P   2      19.957 -17.186 -14.576  1.00 46.46 LIG-0.27  OA
BRANCH 4 6
ATOM      6  CA  LEU P   2      20.928 -15.083 -15.356  1.00 45.94 LIG 0.18  C 
BRANCH 6 7
ATOM      7  CB  LEU P   2      20.051 -14.310 -16.377  1.00 45.93 LIG 0.04  C 
BRANCH 7 8
ATOM      8  CG  LEU P   2      20.673 -13.355 -17.438  1.00 45.11 LIG-0.02  C 
ATOM      9  CD1 LEU P   2      20.167 -13.603 -18.877  1.00 44.79 LIG 0.01  C 
ATOM     10  CD2 LEU P   2      20.465 -11.888 -17.067  1.00 44.35 LIG 0.01  C 
ENDBRANCH 7 8
ENDBRANCH 6 7
BRANCH 6 11
ATOM     11  N   LEU P   2      21.904 -15.932 -16.074  1.00 46.17 LIG-0.35  N 
ATOM     12 H    LEU P   2      21.546 -16.622 -16.440  1.00 46.17 LIG 0.16  HD
ATOM     13  C   LEU P   1      23.217 -15.670 -16.156  1.00 46.12 LIG 0.25  C 
ATOM     14 O    LEU P   1      23.737 -14.647 -15.685  1.00 46.29 LIG-0.27  OA
BRANCH 13 15
ATOM     15  CA  LEU P   1      24.081 -16.731 -16.887  1.00 45.93 LIG 0.28  C 
BRANCH 15 16
ATOM     16  N   LEU P   1      24.389 -16.397 -18.315  1.00 46.34 LIG-0.07  N 
ATOM     17 H3   LEU P   1      24.835 -15.628 -18.352  1.00 46.34 LIG 0.28  HD
ATOM     18 H2   LEU P   1      23.629 -16.321 -18.773  1.00 46.34 LIG 0.28  HD
ATOM     19 H1   LEU P   1      24.885 -17.045 -18.671  1.00 46.34 LIG 0.28  HD
ENDBRANCH 15 16
BRANCH 15 20
ATOM     20  CB  LEU P   1      25.385 -16.988 -16.114  1.00 45.65 LIG 0.05  C 
BRANCH 20 21
ATOM     21  CG  LEU P   1      25.233 -17.924 -14.909  1.00 44.28 LIG-0.02  C 
ATOM     22  CD1 LEU P   1      26.583 -18.367 -14.378  1.00 42.49 LIG 0.01  C 
ATOM     23  CD2 LEU P   1      24.413 -17.272 -13.811  1.00 44.08 LIG 0.01  C 
ENDBRANCH 20 21
ENDBRANCH 15 20
ENDBRANCH 13 15
ENDBRANCH 6 11
ENDBRANCH 4 6
ENDBRANCH 1 2
BRANCH 1 24
ATOM     24  CB  PHE P   3      18.964 -17.461 -11.703  1.00 45.09 LIG 0.07  C 
BRANCH 24 25
ATOM     25  CG  PHE P   3      18.034 -18.607 -12.287  1.00 44.37 LIG-0.06  A 
ATOM     26  CD1 PHE P   3      16.618 -18.600 -12.228  1.00 43.10 LIG 0.01  A 
ATOM     27  CE1 PHE P   3      15.841 -19.732 -12.742  1.00 41.01 LIG 0.00  A 
ATOM     28  CZ  PHE P   3      16.495 -20.857 -13.278  1.00 41.66 LIG 0.00  A 
ATOM     29  CE2 PHE P   3      17.879 -20.863 -13.318  1.00 43.89 LIG 0.00  A 
ATOM     30  CD2 PHE P   3      18.635 -19.756 -12.813  1.00 44.25 LIG 0.01  A 
ENDBRANCH 24 25
ENDBRANCH 1 24
BRANCH 1 31
ATOM     31  C   PHE P   3      18.914 -14.850 -11.223  1.00 45.74 LIG 0.26  C 
ATOM     32 N    ASN P   4      18.328 -13.884 -11.828  1.00 46.65 LIG-0.24  NA
ATOM     33 O    PHE P   3      19.609 -14.825 -10.211  1.00 45.60 LIG-0.27  OA
BRANCH 32 34
ATOM     34  CA  ASN P   4      18.229 -12.454 -11.816  1.00 47.05 LIG 0.21  C 
BRANCH 34 35
ATOM     35  CB  ASN P   4      17.191 -12.251 -12.853  1.00 46.83 LIG 0.14  C 
BRANCH 35 36
ATOM     36  CG  ASN P   4      16.529 -13.568 -13.146  1.00 47.32 LIG 0.22  C 
ATOM     37  ND2 ASN P   4      16.793 -14.096 -14.342  1.00 46.99 LIG-0.37  N 
ATOM     38 22HD ASN P   4      17.306 -13.679 -14.892  1.00 46.99 LIG 0.16  HD
ATOM     39 21HD ASN P   4      16.451 -14.854 -14.562  1.00 46.99 LIG 0.16  HD
ATOM     40 OD1  ASN P   4      15.805 -14.132 -12.338  1.00 48.95 LIG-0.27  OA
ENDBRANCH 35 36
ENDBRANCH 34 35
BRANCH 34 41
ATOM     41  C   ASN P   4      18.003 -11.368 -10.842  1.00 47.23 LIG 0.24  C 
ATOM     42  N   ASP P   5      18.310 -10.314 -11.652  1.00 48.41 LIG-0.35  N 
ATOM     43 H    ASP P   5      18.553 -10.516 -12.451  1.00 48.41 LIG 0.16  HD
ATOM     44 O    ASN P   4      17.646 -11.409  -9.674  1.00 47.17 LIG-0.27  OA
BRANCH 42 45
ATOM     45  CA  ASP P   5      18.347  -8.865 -11.551  1.00 49.16 LIG 0.17  C 
BRANCH 45 46
ATOM     46  C   ASP P   5      16.976  -8.271 -11.223  1.00 49.66 LIG 0.22  C 
ATOM     47 O    ASP P   5      16.490  -7.388 -11.938  1.00 50.85 LIG-0.29  OA
ENDBRANCH 45 46
BRANCH 45 48
ATOM     48  CB  ASP P   5      18.890  -8.265 -12.898  1.00 49.44 LIG 0.15  C 
BRANCH 48 49
ATOM     49  CG  ASP P   5      18.865  -9.089 -14.193  1.00 49.12 LIG 0.17  C 
ATOM     50 OD1  ASP P   5      17.819  -9.705 -14.492  1.00 51.19 LIG-0.65  OA
ATOM     51 OD2  ASP P   5      19.886  -9.118 -14.902  1.00 49.06 LIG-0.65  OA
ENDBRANCH 48 49
ENDBRANCH 45 48
ENDBRANCH 42 45
ENDBRANCH 34 41
ENDBRANCH 32 34
ENDBRANCH 1 31
TORSDOF 20
