USER: ADFR SOLUTION from run 0
USER: SCORE 15.440886 LL:  -2.154 LR: -13.429 RR:   0.000 FEB: -10.446
USER: RMSD 0.949737
USER: STATUS Locally minimized using BFGS
USER: GENES 12
USER: genes 0 Translation |==|  0.51418 0.53710 0.47428
USER: genes 1 Rotation |==|  0.52679 0.46704 0.52938 0.99733
USER: genes 2 Torsion [C]-CA--N-[C] |==|  0.59444
USER: genes 3 Torsion [N]-C--CA-[N] |==|  0.51389
USER: genes 4 Torsion [N]-C--CA-[N] |==|  0.55860
USER: genes 5 Torsion [C]-CA--N-[H3] |==|  0.14013
USER: genes 6 Torsion [N]-CA--C-[N] |==|  0.41875
USER: genes 7 Torsion [N]-CA--C-[O] |==|  0.38330
USER: genes 8 Torsion [N]-CA--CB-[CG] |==|  0.76398
USER: genes 9 Torsion [CA]-CB--CG-[CD] |==|  0.91430
USER: genes 10 Torsion [CB]-CG--CD-[NE] |==|  0.55592
USER: genes 11 Torsion [CG]-CD--NE-[CZ] |==|  0.75715
ROOT
ATOM      1  CA  ARG B   4      -2.245  14.603  12.219  0.80 38.14 LIG 0.18  C 
ENDROOT
BRANCH 1 2
ATOM      2  N   ARG B   4      -1.275  13.814  12.982  0.80 37.32 LIG-0.35  N 
ATOM      3 H    ARG B   4      -0.481  13.841  12.654  0.80 37.32 LIG 0.16  HD
ATOM      4  C   PRO B   3      -1.580  13.119  14.079  0.80 36.53 LIG 0.24  C 
ATOM      5 O    PRO B   3      -2.724  13.061  14.550  0.80 36.51 LIG-0.27  OA
BRANCH 4 6
ATOM      6  CA  PRO B   3      -0.421  12.354  14.730  0.80 35.73 LIG 0.18  C 
ATOM      7  N   PRO B   3      -0.852  11.522  15.859  0.80 35.22 LIG-0.34  N 
ATOM      8  CD  PRO B   3      -0.925  10.110  15.450  0.80 35.29 LIG 0.13  C 
ATOM      9  C   GLY B   2      -1.107  11.930  17.120  0.80 34.72 LIG 0.25  C 
ATOM     10  CG  PRO B   3      -0.782  10.186  13.939  0.80 35.32 LIG 0.02  C 
ATOM     11  CB  PRO B   3       0.149  11.316  13.772  0.80 35.57 LIG 0.04  C 
ATOM     12 O    GLY B   2      -0.980  13.112  17.488  0.80 34.22 LIG-0.27  OA
BRANCH 9 13
ATOM     13  CA  GLY B   2      -1.546  10.879  18.114  0.80 34.38 LIG 0.33  C 
BRANCH 13 14
ATOM     14  N   GLY B   2      -2.244  11.502  19.236  0.80 34.02 LIG-0.07  N 
ATOM     15 H3   GLY B   2      -2.876  12.047  18.928  0.80 34.02 LIG 0.27  HD
ATOM     16 H1   GLY B   2      -2.616  10.872  19.742  0.80 34.02 LIG 0.27  HD
ATOM     17 H2   GLY B   2      -1.664  11.969  19.725  0.80 34.02 LIG 0.27  HD
ENDBRANCH 13 14
ENDBRANCH 9 13
ENDBRANCH 4 6
ENDBRANCH 1 2
BRANCH 1 18
ATOM     18  C   ARG B   4      -1.833  14.513  10.733  0.80 39.25 LIG 0.24  C 
ATOM     19 O    ARG B   4      -0.653  14.255  10.441  0.80 39.33 LIG-0.27  OA
ATOM     20  N   PRO B   5      -2.806  14.608   9.788  0.80 40.23 LIG-0.34  N 
ATOM     21  CA  PRO B   5      -2.476  14.536   8.355  0.80 40.82 LIG 0.19  C 
ATOM     22  CD  PRO B   5      -4.272  14.630   9.969  0.80 40.52 LIG 0.13  C 
ATOM     23  CB  PRO B   5      -3.858  14.458   7.680  0.80 40.82 LIG 0.04  C 
ATOM     24  CG  PRO B   5      -4.750  13.893   8.745  0.80 40.73 LIG 0.02  C 
BRANCH 21 25
ATOM     25  C   PRO B   5      -1.721  15.797   7.904  0.80 41.28 LIG 0.20  C 
ATOM     26 O    PRO B   5      -0.738  15.668   7.129  0.80 41.33 LIG-0.65  OA
ATOM     27 OXT  PRO B   5      -2.136  16.903   8.337  0.80 41.80 LIG-0.65  OA
ENDBRANCH 21 25
ENDBRANCH 1 18
BRANCH 1 28
ATOM     28  CB  ARG B   4      -2.245  16.068  12.700  0.80 37.56 LIG 0.04  C 
BRANCH 28 29
ATOM     29  CG  ARG B   4      -3.132  16.375  13.913  0.80 36.72 LIG 0.02  C 
BRANCH 29 30
ATOM     30  CD  ARG B   4      -4.352  15.473  13.962  0.80 36.17 LIG 0.14  C 
BRANCH 30 31
ATOM     31  NE  ARG B   4      -5.433  16.011  14.788  0.80 35.68 LIG-0.23  N 
ATOM     32  CZ  ARG B   4      -5.548  15.815  16.101  0.80 35.42 LIG 0.67  C 
ATOM     33  NH2 ARG B   4      -6.588  16.313  16.757  0.80 34.99 LIG-0.23  N 
ATOM     34  NH1 ARG B   4      -4.646  15.098  16.758  0.80 35.13 LIG-0.23  N 
ATOM     35 22HH ARG B   4      -6.662  16.186  17.605  0.80 34.99 LIG 0.17  HD
ATOM     36 21HH ARG B   4      -7.188  16.762  16.336  0.80 34.99 LIG 0.17  HD
ATOM     37 12HH ARG B   4      -4.728  14.977  17.605  0.80 35.13 LIG 0.17  HD
ATOM     38 11HH ARG B   4      -3.980  14.755  16.336  0.80 35.13 LIG 0.17  HD
ATOM     39 HE   ARG B   4      -6.035  16.486  14.400  0.80 35.68 LIG 0.18  HD
ENDBRANCH 30 31
ENDBRANCH 29 30
ENDBRANCH 28 29
ENDBRANCH 1 28
TORSDOF 10
