USER: ADFR SOLUTION from run 0
USER: SCORE 10.815027 LL:  -1.708 LR:  -9.850 RR:   0.000 FEB:  -5.078
USER: RMSD 0.376935
USER: STATUS Locally minimized using BFGS
USER: GENES 18
USER: genes 0 Translation |==|  0.48981 0.48382 0.49439
USER: genes 1 Rotation |==|  0.51420 0.51442 0.50820 0.99952
USER: genes 2 Torsion [N]-C--CA-[N] |==|  0.39831
USER: genes 3 Torsion [C]-CA--CB-[CG2] |==|  0.72820
USER: genes 4 Torsion [CA]-CB--CG1-[CD1] |==|  0.37373
USER: genes 5 Torsion [C]-CA--N-[C] |==|  0.56129
USER: genes 6 Torsion [N]-C--CA-[N] |==|  0.13617
USER: genes 7 Torsion [C]-CA--CB-[CG1] |==|  0.18862
USER: genes 8 Torsion [C]-CA--N-[H2] |==|  0.93086
USER: genes 9 Torsion [C]-N--CA-[CB] |==|  0.77072
USER: genes 10 Torsion [N]-CA--C-[N] |==|  0.51845
USER: genes 11 Torsion [C]-N--CA-[CB] |==|  0.68555
USER: genes 12 Torsion [N]-CA--CB-[CG] |==|  0.02493
USER: genes 13 Torsion [CA]-CB--CG-[CD] |==|  0.59202
USER: genes 14 Torsion [CB]-CG--CD-[CE] |==|  0.33099
USER: genes 15 Torsion [CG]-CD--CE-[NZ] |==|  0.52490
USER: genes 16 Torsion [CD]-CE--NZ-[HZ3] |==|  0.07800
USER: genes 17 Torsion [N]-CA--C-[O] |==|  0.29793
ROOT
ATOM      1  C   ILE P   2       5.444  20.325  -5.848  1.00 41.40 LIG 0.24  C 
ATOM      2 O    ILE P   2       6.618  20.181  -6.222  1.00 41.61 LIG-0.27  OA
ATOM      3  N   ALA P   3       4.651  21.347  -6.167  1.00 41.46 LIG-0.35  N 
ATOM      4 H    ALA P   3       3.829  21.358  -5.912  1.00 41.46 LIG 0.16  HD
ENDROOT
BRANCH 1 5
ATOM      5  CA  ILE P   2       4.746  19.328  -4.930  1.00 41.22 LIG 0.18  C 
BRANCH 5 6
ATOM      6  CB  ILE P   2       5.181  19.756  -3.539  1.00 41.07 LIG 0.01  C 
ATOM      7  CG2 ILE P   2       6.345  18.905  -3.054  1.00 40.92 LIG 0.01  C 
BRANCH 6 8
ATOM      8  CG1 ILE P   2       5.561  21.229  -3.559  1.00 41.09 LIG 0.00  C 
ATOM      9  CD1 ILE P   2       4.991  22.018  -2.404  1.00 41.85 LIG 0.01  C 
ENDBRANCH 6 8
ENDBRANCH 5 6
BRANCH 5 10
ATOM     10  N   ILE P   2       4.994  17.907  -5.069  1.00 40.98 LIG-0.35  N 
ATOM     11  C   VAL P   1       4.032  17.144  -4.569  1.00 40.89 LIG 0.25  C 
ATOM     12 O    VAL P   1       2.972  17.606  -4.152  1.00 40.76 LIG-0.27  OA
ATOM     13 H    ILE P   2       5.722  17.657  -5.452  1.00 40.98 LIG 0.16  HD
BRANCH 11 14
ATOM     14  CA  VAL P   1       4.242  15.630  -4.529  1.00 40.81 LIG 0.28  C 
BRANCH 14 15
ATOM     15  CB  VAL P   1       3.104  14.969  -3.739  1.00 40.75 LIG 0.02  C 
ATOM     16  CG1 VAL P   1       1.790  15.093  -4.492  1.00 40.27 LIG 0.01  C 
ATOM     17  CG2 VAL P   1       3.412  13.503  -3.471  1.00 40.35 LIG 0.01  C 
ENDBRANCH 14 15
BRANCH 14 18
ATOM     18  N   VAL P   1       5.528  15.288  -3.957  1.00 41.10 LIG-0.07  N 
ATOM     19 H1   VAL P   1       5.852  14.568  -4.366  1.00 41.10 LIG 0.28  HD
ATOM     20 H3   VAL P   1       5.431  15.117  -3.089  1.00 41.10 LIG 0.28  HD
ATOM     21 H2   VAL P   1       6.091  15.969  -4.065  1.00 41.10 LIG 0.28  HD
ENDBRANCH 14 18
ENDBRANCH 11 14
ENDBRANCH 5 10
ENDBRANCH 1 5
BRANCH 3 22
ATOM     22  CA  ALA P   3       4.981  22.535  -6.936  1.00 41.49 LIG 0.17  C 
ATOM     23  CB  ALA P   3       5.649  23.538  -6.006  1.00 41.44 LIG 0.04  C 
BRANCH 22 24
ATOM     24  C   ALA P   3       5.824  22.348  -8.179  1.00 41.37 LIG 0.24  C 
ATOM     25 O    ALA P   3       6.116  21.243  -8.637  1.00 41.45 LIG-0.27  OA
ATOM     26  N   LYS P   4       6.191  23.526  -8.735  1.00 41.15 LIG-0.35  N 
ATOM     27 H    LYS P   4       5.883  24.268  -8.429  1.00 41.15 LIG 0.16  HD
BRANCH 26 28
ATOM     28  CA  LYS P   4       7.084  23.751  -9.845  1.00 40.89 LIG 0.16  C 
BRANCH 28 29
ATOM     29  CB  LYS P   4       8.320  24.470  -9.291  1.00 40.64 LIG 0.03  C 
BRANCH 29 30
ATOM     30  CG  LYS P   4       8.355  24.537  -7.771  1.00 49.46 LIG 0.00  C 
BRANCH 30 31
ATOM     31  CD  LYS P   4       9.014  25.812  -7.272  1.00 47.65 LIG 0.03  C 
BRANCH 31 32
ATOM     32  CE  LYS P   4       8.088  26.679  -6.430  1.00 46.32 LIG 0.23  C 
BRANCH 32 33
ATOM     33  NZ  LYS P   4       8.683  28.007  -6.137  1.00 44.97 LIG-0.08  N 
ATOM     34 HZ3  LYS P   4       9.245  28.231  -6.790  1.00 44.97 LIG 0.27  HD
ATOM     35 HZ1  LYS P   4       8.037  28.616  -6.081  1.00 44.97 LIG 0.27  HD
ATOM     36 HZ2  LYS P   4       9.125  27.971  -5.365  1.00 44.97 LIG 0.27  HD
ENDBRANCH 32 33
ENDBRANCH 31 32
ENDBRANCH 30 31
ENDBRANCH 29 30
ENDBRANCH 28 29
BRANCH 28 37
ATOM     37  C   LYS P   4       7.487  22.463 -10.556  1.00 40.96 LIG 0.22  C 
ATOM     38 O    LYS P   4       7.034  22.197 -11.667  1.00 40.89 LIG-0.29  OA
ENDBRANCH 28 37
ENDBRANCH 26 28
ENDBRANCH 22 24
ENDBRANCH 3 22
TORSDOF 16
