USER: ADFR SOLUTION from run 0
USER: SCORE 13.962702 LL:  -2.993 LR: -11.584 RR:   0.000 FEB:  -4.425
USER: RMSD 0.228921
USER: STATUS Locally minimized using BFGS
USER: GENES 26
USER: genes 0 Translation |==|  0.43848 0.47433 0.54973
USER: genes 1 Rotation |==|  0.49346 0.49954 0.50016 0.99996
USER: genes 2 Torsion [N]-CA--C-[N] |==|  0.99385
USER: genes 3 Torsion [C]-N--CA-[C] |==|  0.67018
USER: genes 4 Torsion [N]-CA--C-[N] |==|  0.39795
USER: genes 5 Torsion [C]-N--CA-[C] |==|  0.75135
USER: genes 6 Torsion [N]-CA--C-[O] |==|  0.98750
USER: genes 7 Torsion [N]-CA--CB-[CG] |==|  0.12175
USER: genes 8 Torsion [CA]-CB--CG-[CD] |==|  0.48651
USER: genes 9 Torsion [CB]-CG--CD-[OE1] |==|  0.85277
USER: genes 10 Torsion [N]-CA--CB-[CG] |==|  0.78659
USER: genes 11 Torsion [CA]-CB--CG-[CD] |==|  0.49686
USER: genes 12 Torsion [CB]-CG--CD-[CE] |==|  0.50005
USER: genes 13 Torsion [CG]-CD--CE-[NZ] |==|  0.45872
USER: genes 14 Torsion [CD]-CE--NZ-[HZ3] |==|  0.21120
USER: genes 15 Torsion [C]-CA--CB-[CG2] |==|  0.47088
USER: genes 16 Torsion [CA]-CB--OG1-[HG1] |==|  0.38808
USER: genes 17 Torsion [C]-CA--N-[C] |==|  0.79440
USER: genes 18 Torsion [N]-C--CA-[N] |==|  0.93333
USER: genes 19 Torsion [C]-CA--N-[C] |==|  0.86575
USER: genes 20 Torsion [N]-C--CA-[N] |==|  0.47028
USER: genes 21 Torsion [C]-CA--N-[H1] |==|  0.59437
USER: genes 22 Torsion [C]-CA--CB-[CG] |==|  0.17005
USER: genes 23 Torsion [CA]-CB--CG-[CD] |==|  0.50587
USER: genes 24 Torsion [CB]-CG--CD-[NE] |==|  0.82799
USER: genes 25 Torsion [CG]-CD--NE-[HE] |==|  0.23905
ROOT
ATOM      1  CA  THR D   3      16.154 -17.610  18.002  1.00 16.13 LIG 0.20  C 
ENDROOT
BRANCH 1 2
ATOM      2  C   THR D   3      15.920 -17.623  16.483  1.00 16.95 LIG 0.24  C 
ATOM      3 O    THR D   3      14.885 -18.112  16.020  1.00 16.12 LIG-0.27  OA
ATOM      4  N   LYS D   4      16.885 -17.085  15.731  1.00 18.15 LIG-0.35  N 
ATOM      5 H    LYS D   4      17.581 -16.711  16.069  1.00 18.15 LIG 0.16  HD
BRANCH 4 6
ATOM      6  CA  LYS D   4      16.873 -17.068  14.260  1.00 19.65 LIG 0.18  C 
BRANCH 6 7
ATOM      7  C   LYS D   4      18.069 -17.832  13.733  1.00 20.62 LIG 0.24  C 
ATOM      8  N   GLN D   5      17.879 -18.549  12.629  1.00 21.55 LIG-0.35  N 
ATOM      9 H    GLN D   5      17.131 -18.597  12.209  1.00 21.55 LIG 0.16  HD
ATOM     10 O    LYS D   4      19.156 -17.762  14.315  1.00 20.86 LIG-0.27  OA
BRANCH 8 11
ATOM     11  CA  GLN D   5      18.967 -19.332  12.029  1.00 22.83 LIG 0.16  C 
BRANCH 11 12
ATOM     12  C   GLN D   5      19.772 -18.523  11.014  1.00 22.91 LIG 0.22  C 
ATOM     13 O    GLN D   5      19.442 -17.375  10.710  1.00 23.29 LIG-0.29  OA
ENDBRANCH 11 12
BRANCH 11 14
ATOM     14  CB  GLN D   5      18.431 -20.614  11.385  1.00 22.86 LIG 0.04  C 
BRANCH 14 15
ATOM     15  CG  GLN D   5      17.165 -20.429  10.568  1.00 24.40 LIG 0.10  C 
BRANCH 15 16
ATOM     16  CD  GLN D   5      16.728 -21.693   9.850  1.00 24.21 LIG 0.21  C 
ATOM     17  NE2 GLN D   5      15.466 -22.079  10.047  1.00 25.13 LIG-0.37  N 
ATOM     18 22HE GLN D   5      15.168 -22.786   9.659  1.00 25.13 LIG 0.16  HD
ATOM     19 21HE GLN D   5      14.951 -21.620  10.561  1.00 25.13 LIG 0.16  HD
ATOM     20 OE1  GLN D   5      17.511 -22.314   9.121  1.00 25.71 LIG-0.27  OA
ENDBRANCH 15 16
ENDBRANCH 14 15
ENDBRANCH 11 14
ENDBRANCH 8 11
ENDBRANCH 6 7
BRANCH 6 21
ATOM     21  CB  LYS D   4      16.976 -15.637  13.726  1.00 19.73 LIG 0.04  C 
BRANCH 21 22
ATOM     22  CG  LYS D   4      15.718 -14.815  13.798  1.00 20.49 LIG 0.00  C 
BRANCH 22 23
ATOM     23  CD  LYS D   4      15.990 -13.419  13.259  1.00 20.73 LIG 0.03  C 
BRANCH 23 24
ATOM     24  CE  LYS D   4      14.742 -12.572  13.319  1.00 20.46 LIG 0.23  C 
BRANCH 24 25
ATOM     25  NZ  LYS D   4      15.058 -11.135  13.140  1.00 20.02 LIG-0.08  N 
ATOM     26 HZ3  LYS D   4      15.225 -10.971  12.282  1.00 20.02 LIG 0.27  HD
ATOM     27 HZ1  LYS D   4      14.366 -10.643  13.406  1.00 20.02 LIG 0.27  HD
ATOM     28 HZ2  LYS D   4      15.774 -10.925  13.626  1.00 20.02 LIG 0.27  HD
ENDBRANCH 24 25
ENDBRANCH 23 24
ENDBRANCH 22 23
ENDBRANCH 21 22
ENDBRANCH 6 21
ENDBRANCH 4 6
ENDBRANCH 1 2
BRANCH 1 29
ATOM     29  CB  THR D   3      14.985 -16.898  18.708  1.00 15.86 LIG 0.15  C 
ATOM     30  CG2 THR D   3      15.065 -17.099  20.219  1.00 16.15 LIG 0.04  C 
BRANCH 29 31
ATOM     31 OG1  THR D   3      15.033 -15.495  18.422  1.00 16.19 LIG-0.39  OA
ATOM     32 HG1  THR D   3      14.254 -15.209  18.290  1.00 16.19 LIG 0.21  HD
ENDBRANCH 29 31
ENDBRANCH 1 29
BRANCH 1 33
ATOM     33  N   THR D   3      17.450 -17.044  18.407  1.00 15.75 LIG-0.34  N 
ATOM     34  C   ARG D   2      18.595 -17.707  18.241  1.00 15.31 LIG 0.24  C 
ATOM     35 O    ARG D   2      18.662 -18.804  17.691  1.00 15.17 LIG-0.27  OA
ATOM     36 H    THR D   3      17.399 -16.258  18.754  1.00 15.75 LIG 0.16  HD
BRANCH 34 37
ATOM     37  CA  ARG D   2      19.858 -17.041  18.791  1.00 15.15 LIG 0.18  C 
BRANCH 37 38
ATOM     38  N   ARG D   2      19.720 -15.585  18.903  1.00 15.89 LIG-0.35  N 
ATOM     39  C   ALA D   1      19.255 -14.795  17.934  1.00 16.91 LIG 0.25  C 
ATOM     40 O    ALA D   1      19.006 -15.192  16.788  1.00 17.32 LIG-0.27  OA
ATOM     41 H    ARG D   2      19.972 -15.281  19.668  1.00 15.89 LIG 0.16  HD
BRANCH 39 42
ATOM     42  CA  ALA D   1      19.051 -13.326  18.308  1.00 17.08 LIG 0.27  C 
ATOM     43  CB  ALA D   1      17.902 -13.174  19.330  1.00 17.48 LIG 0.05  C 
BRANCH 42 44
ATOM     44  N   ALA D   1      18.780 -12.498  17.096  1.00 17.36 LIG-0.07  N 
ATOM     45 H3   ALA D   1      17.901 -12.422  16.978  1.00 17.36 LIG 0.28  HD
ATOM     46 H2   ALA D   1      19.143 -12.887  16.383  1.00 17.36 LIG 0.28  HD
ATOM     47 H1   ALA D   1      19.135 -11.688  17.204  1.00 17.36 LIG 0.28  HD
ENDBRANCH 42 44
ENDBRANCH 39 42
ENDBRANCH 37 38
BRANCH 37 48
ATOM     48  CB  ARG D   2      20.175 -17.610  20.182  1.00 15.08 LIG 0.04  C 
BRANCH 48 49
ATOM     49  CG  ARG D   2      20.460 -19.103  20.274  1.00 14.63 LIG 0.02  C 
BRANCH 49 50
ATOM     50  CD  ARG D   2      20.706 -19.517  21.731  1.00 13.91 LIG 0.14  C 
BRANCH 50 51
ATOM     51  NE  ARG D   2      21.873 -18.850  22.307  1.00 10.79 LIG-0.23  N 
ATOM     52 HE   ARG D   2      21.759 -18.072  22.657  1.00 10.79 LIG 0.18  HD
ATOM     53  CZ  ARG D   2      23.102 -19.365  22.326  1.00 10.30 LIG 0.67  C 
ATOM     54  NH2 ARG D   2      23.338 -20.572  21.811  1.00  9.50 LIG-0.23  N 
ATOM     55  NH1 ARG D   2      24.097 -18.671  22.859  1.00  9.44 LIG-0.23  N 
ATOM     56 22HH ARG D   2      24.133 -20.898  21.827  1.00  9.50 LIG 0.17  HD
ATOM     57 21HH ARG D   2      22.694 -21.025  21.463  1.00  9.50 LIG 0.17  HD
ATOM     58 11HH ARG D   2      23.949 -17.892  23.191  1.00  9.44 LIG 0.17  HD
ATOM     59 12HH ARG D   2      24.891 -19.001  22.874  1.00  9.44 LIG 0.17  HD
ENDBRANCH 50 51
ENDBRANCH 49 50
ENDBRANCH 48 49
ENDBRANCH 37 48
ENDBRANCH 34 37
ENDBRANCH 1 33
TORSDOF 24
