USER: ADFR SOLUTION from run 0
USER: SCORE 12.672928 LL:  -4.251 LR: -11.705 RR:   0.000 FEB:  -6.038
USER: RMSD 0.138217
USER: STATUS Locally minimized using BFGS
USER: GENES 21
USER: genes 0 Translation |==|  0.47588 0.52060 0.46220
USER: genes 1 Rotation |==|  0.49454 0.49531 0.49637 0.99994
USER: genes 2 Torsion [CB]-CA--N-[C] |==|  0.38299
USER: genes 3 Torsion [N]-C--CA-[N] |==|  0.36411
USER: genes 4 Torsion [C]-CA--CB-[CG] |==|  0.16008
USER: genes 5 Torsion [CA]-CB--CG-[OD1] |==|  0.15866
USER: genes 6 Torsion [C]-CA--N-[C] |==|  0.77239
USER: genes 7 Torsion [N]-C--CA-[N] |==|  0.28207
USER: genes 8 Torsion [C]-CA--CB-[CG] |==|  0.20000
USER: genes 9 Torsion [CA]-CB--CG-[OD1] |==|  0.95917
USER: genes 10 Torsion [C]-CA--N-[H3] |==|  0.16664
USER: genes 11 Torsion [N]-CA--C-[N] |==|  0.98990
USER: genes 12 Torsion [C]-N--CA-[CB] |==|  0.33412
USER: genes 13 Torsion [N]-CA--CB-[CG] |==|  0.79760
USER: genes 14 Torsion [CA]-CB--CG-[CD2] |==|  0.78702
USER: genes 15 Torsion [CE1]-CZ--OH-[HH] |==|  0.49980
USER: genes 16 Torsion [N]-CA--C-[N] |==|  0.85627
USER: genes 17 Torsion [C]-N--CA-[C] |==|  0.76024
USER: genes 18 Torsion [N]-CA--C-[OXT] |==|  0.49799
USER: genes 19 Torsion [N]-CA--CB-[CG] |==|  0.85196
USER: genes 20 Torsion [CA]-CB--CG-[CD1] |==|  0.51616
ROOT
ATOM      1  CA  LEU B 804      49.216  52.888  20.716  1.00 31.72 LIG 0.18  C 
ENDROOT
BRANCH 1 2
ATOM      2  N   LEU B 804      50.288  52.358  21.569  1.00 32.47 LIG-0.35  N 
ATOM      3 H    LEU B 804      50.106  51.592  21.913  1.00 32.47 LIG 0.16  HD
ATOM      4  C   ASP B 803      51.434  52.998  21.792  1.00 36.20 LIG 0.24  C 
ATOM      5 O    ASP B 803      51.700  54.137  21.367  1.00 34.88 LIG-0.27  OA
BRANCH 4 6
ATOM      6  CA  ASP B 803      52.451  52.210  22.631  1.00 38.58 LIG 0.19  C 
BRANCH 6 7
ATOM      7  CB  ASP B 803      52.470  52.711  24.068  1.00 39.00 LIG 0.15  C 
BRANCH 7 8
ATOM      8  CG  ASP B 803      51.086  52.616  24.718  1.00 41.67 LIG 0.17  C 
ATOM      9 OD1  ASP B 803      50.525  51.481  24.755  1.00 44.54 LIG-0.65  OA
ATOM     10 OD2  ASP B 803      50.551  53.673  25.143  1.00 44.60 LIG-0.65  OA
ENDBRANCH 7 8
ENDBRANCH 6 7
BRANCH 6 11
ATOM     11  N   ASP B 803      53.760  52.223  21.995  1.00 40.89 LIG-0.34  N 
ATOM     12 H    ASP B 803      54.314  52.807  22.298  1.00 40.89 LIG 0.16  HD
ATOM     13  C   ASP B 802      54.014  51.357  21.013  1.00 43.36 LIG 0.25  C 
ATOM     14 O    ASP B 802      53.165  50.547  20.609  1.00 44.71 LIG-0.27  OA
BRANCH 13 15
ATOM     15  CA  ASP B 802      55.419  51.364  20.406  1.00 44.06 LIG 0.28  C 
BRANCH 15 16
ATOM     16  CB  ASP B 802      55.352  51.245  18.880  1.00 45.52 LIG 0.15  C 
BRANCH 16 17
ATOM     17  CG  ASP B 802      54.842  52.517  18.209  1.00 48.04 LIG 0.17  C 
ATOM     18 OD1  ASP B 802      54.271  53.412  18.891  1.00 55.65 LIG-0.65  OA
ATOM     19 OD2  ASP B 802      55.023  52.619  16.978  1.00 54.24 LIG-0.65  OA
ENDBRANCH 16 17
ENDBRANCH 15 16
BRANCH 15 20
ATOM     20  N   ASP B 802      56.201  50.231  20.960  1.00 45.51 LIG-0.07  N 
ATOM     21 H3   ASP B 802      55.796  49.465  20.761  1.00 45.51 LIG 0.28  HD
ATOM     22 H1   ASP B 802      57.019  50.234  20.608  1.00 45.51 LIG 0.28  HD
ATOM     23 H2   ASP B 802      56.259  50.314  21.844  1.00 45.51 LIG 0.28  HD
ENDBRANCH 15 20
ENDBRANCH 13 15
ENDBRANCH 6 11
ENDBRANCH 4 6
ENDBRANCH 1 2
BRANCH 1 24
ATOM     24  C   LEU B 804      48.060  53.541  21.488  1.00 30.12 LIG 0.24  C 
ATOM     25  N   TYR B 805      48.107  53.495  22.816  1.00 29.37 LIG-0.35  N 
ATOM     26 H    TYR B 805      48.808  53.278  23.263  1.00 29.37 LIG 0.16  HD
ATOM     27 O    LEU B 804      47.164  54.092  20.885  1.00 28.94 LIG-0.27  OA
BRANCH 25 28
ATOM     28  CA  TYR B 805      46.941  53.818  23.645  1.00 29.00 LIG 0.18  C 
BRANCH 28 29
ATOM     29  CB  TYR B 805      46.571  52.600  24.510  1.00 27.91 LIG 0.07  C 
BRANCH 29 30
ATOM     30  CG  TYR B 805      45.947  51.556  23.611  1.00 26.10 LIG-0.06  A 
ATOM     31  CD1 TYR B 805      46.697  50.514  23.096  1.00 25.09 LIG 0.01  A 
ATOM     32  CE1 TYR B 805      46.159  49.600  22.210  1.00 24.79 LIG 0.04  A 
ATOM     33  CZ  TYR B 805      44.876  49.760  21.778  1.00 22.85 LIG 0.07  A 
ATOM     34  CE2 TYR B 805      44.097  50.793  22.276  1.00 24.72 LIG 0.04  A 
ATOM     35  CD2 TYR B 805      44.648  51.696  23.177  1.00 24.65 LIG 0.01  A 
BRANCH 33 36
ATOM     36 OH   TYR B 805      44.314  48.824  20.939  1.00 25.16 LIG-0.36  OA
ATOM     37 HH   TYR B 805      43.525  49.050  20.756  1.00 25.16 LIG 0.22  HD
ENDBRANCH 33 36
ENDBRANCH 29 30
ENDBRANCH 28 29
BRANCH 28 38
ATOM     38  C   TYR B 805      47.091  55.074  24.504  1.00 29.85 LIG 0.24  C 
ATOM     39 O    TYR B 805      46.215  55.983  24.473  1.00 30.08 LIG-0.27  OA
ATOM     40  N   GLY B 806      48.184  55.114  25.249  1.00 28.51 LIG-0.35  N 
ATOM     41 H    GLY B 806      48.845  54.572  25.159  1.00 28.51 LIG 0.16  HD
BRANCH 40 42
ATOM     42  CA  GLY B 806      48.356  56.094  26.293  1.00 29.14 LIG 0.23  C 
BRANCH 42 43
ATOM     43  C   GLY B 806      48.929  57.380  25.784  1.00 28.84 LIG 0.19  C 
ATOM     44 OXT  GLY B 806      49.095  58.270  26.603  1.00 29.15 LIG-0.65  OA
ATOM     45 O    GLY B 806      49.254  57.542  24.598  1.00 28.96 LIG-0.65  OA
ENDBRANCH 42 43
ENDBRANCH 40 42
ENDBRANCH 28 38
ENDBRANCH 25 28
ENDBRANCH 1 24
BRANCH 1 46
ATOM     46  CB  LEU B 804      48.661  51.745  19.856  1.00 30.53 LIG 0.04  C 
BRANCH 46 47
ATOM     47  CG  LEU B 804      49.720  50.972  19.051  1.00 30.66 LIG-0.02  C 
ATOM     48  CD1 LEU B 804      49.049  49.964  18.131  1.00 31.81 LIG 0.01  C 
ATOM     49  CD2 LEU B 804      50.600  51.916  18.259  1.00 30.59 LIG 0.01  C 
ENDBRANCH 46 47
ENDBRANCH 1 46
TORSDOF 19
