USER: ADFR SOLUTION from run 0
USER: SCORE 10.133934 LL:  -3.216 LR:  -8.950 RR:   0.000 FEB:  -4.476
USER: RMSD 0.201982
USER: STATUS Locally minimized using BFGS
USER: GENES 17
USER: genes 0 Translation |==|  0.51049 0.52034 0.51876
USER: genes 1 Rotation |==|  0.49221 0.50726 0.50217 0.99988
USER: genes 2 Torsion [C]-N--CA-[CB] |==|  0.38518
USER: genes 3 Torsion [N]-CA--C-[N] |==|  0.19768
USER: genes 4 Torsion [C]-N--CA-[C] |==|  0.77364
USER: genes 5 Torsion [N]-CA--CB-[CG] |==|  0.82686
USER: genes 6 Torsion [CA]-CB--CG-[CD2] |==|  0.85058
USER: genes 7 Torsion [N]-CA--C-[OXT] |==|  0.44229
USER: genes 8 Torsion [N]-CA--CB-[CG2] |==|  0.52621
USER: genes 9 Torsion [CA]-CB--OG1-[HG1] |==|  0.49971
USER: genes 10 Torsion [N]-C--CA-[N] |==|  0.34022
USER: genes 11 Torsion [C]-CA--CB-[CG] |==|  0.49955
USER: genes 12 Torsion [CA]-CB--CG-[CD] |==|  0.39051
USER: genes 13 Torsion [CB]-CG--CD-[OE1] |==|  0.20248
USER: genes 14 Torsion [C]-CA--N-[C] |==|  0.59473
USER: genes 15 Torsion [N]-C--CA-[N] |==|  0.69943
USER: genes 16 Torsion [C]-CA--N-[H1] |==|  0.51374
ROOT
ATOM      1  C   GLU S   2     -11.745  13.810  33.363  1.00 67.93 LIG 0.24  C 
ATOM      2 O    GLU S   2     -12.580  14.723  33.288  1.00 66.60 LIG-0.27  OA
ATOM      3  N   THR S   3     -10.565  13.854  32.759  1.00 66.34 LIG-0.34  N 
ATOM      4 H    THR S   3      -9.986  13.220  32.800  1.00 66.34 LIG 0.16  HD
ENDROOT
BRANCH 3 5
ATOM      5  CA  THR S   3     -10.136  14.996  31.962  1.00 65.04 LIG 0.20  C 
BRANCH 5 6
ATOM      6  C   THR S   3     -10.334  14.724  30.479  1.00 64.78 LIG 0.24  C 
ATOM      7 O    THR S   3      -9.379  14.530  29.717  1.00 64.25 LIG-0.27  OA
ATOM      8  N   PHE S   4     -11.599  14.709  30.083  1.00 64.25 LIG-0.34  N 
ATOM      9 H    PHE S   4     -12.263  14.855  30.610  1.00 64.25 LIG 0.16  HD
BRANCH 8 10
ATOM     10  CA  PHE S   4     -11.986  14.440  28.707  1.00 63.65 LIG 0.19  C 
BRANCH 10 11
ATOM     11  CB  PHE S   4     -13.424  13.972  28.677  1.00 60.49 LIG 0.07  C 
BRANCH 11 12
ATOM     12  CG  PHE S   4     -13.651  12.708  29.410  1.00 55.48 LIG-0.06  A 
ATOM     13  CD2 PHE S   4     -12.895  11.582  29.121  1.00 51.26 LIG 0.01  A 
ATOM     14  CE2 PHE S   4     -13.152  10.377  29.757  1.00 48.18 LIG 0.00  A 
ATOM     15  CZ  PHE S   4     -14.150  10.290  30.696  1.00 46.44 LIG 0.00  A 
ATOM     16  CE1 PHE S   4     -14.907  11.408  31.003  1.00 48.00 LIG 0.00  A 
ATOM     17  CD1 PHE S   4     -14.646  12.619  30.366  1.00 50.38 LIG 0.01  A 
ENDBRANCH 11 12
ENDBRANCH 10 11
BRANCH 10 18
ATOM     18  C   PHE S   4     -11.868  15.657  27.827  1.00 64.82 LIG 0.20  C 
ATOM     19 O    PHE S   4     -11.894  16.790  28.358  1.00 66.03 LIG-0.65  OA
ATOM     20 OXT  PHE S   4     -11.785  15.448  26.602  1.00 65.83 LIG-0.65  OA
ENDBRANCH 10 18
ENDBRANCH 8 10
ENDBRANCH 5 6
BRANCH 5 21
ATOM     21  CB  THR S   3      -8.670  15.298  32.249  1.00 64.83 LIG 0.15  C 
ATOM     22  CG2 THR S   3      -8.250  16.611  31.620  1.00 63.45 LIG 0.04  C 
BRANCH 21 23
ATOM     23 OG1  THR S   3      -8.496  15.382  33.665  1.00 64.80 LIG-0.39  OA
ATOM     24 HG1  THR S   3      -7.691  15.547  33.839  1.00 64.80 LIG 0.21  HD
ENDBRANCH 21 23
ENDBRANCH 5 21
ENDBRANCH 3 5
BRANCH 1 25
ATOM     25  CA  GLU S   2     -12.012  12.538  34.183  1.00 70.09 LIG 0.18  C 
BRANCH 25 26
ATOM     26  CB  GLU S   2     -13.167  11.734  33.578  1.00 72.94 LIG 0.04  C 
BRANCH 26 27
ATOM     27  CG  GLU S   2     -13.472  10.454  34.354  1.00 78.29 LIG 0.12  C 
BRANCH 27 28
ATOM     28  CD  GLU S   2     -14.954  10.160  34.474  1.00 81.85 LIG 0.17  C 
ATOM     29 OE1  GLU S   2     -15.571   9.762  33.463  1.00 85.61 LIG-0.65  OA
ATOM     30 OE2  GLU S   2     -15.507  10.330  35.584  1.00 84.00 LIG-0.65  OA
ENDBRANCH 27 28
ENDBRANCH 26 27
ENDBRANCH 25 26
BRANCH 25 31
ATOM     31  N   GLU S   2     -12.313  12.812  35.589  1.00 70.96 LIG-0.35  N 
ATOM     32  C   ALA S   1     -11.932  11.983  36.559  1.00 72.19 LIG 0.25  C 
ATOM     33 O    ALA S   1     -11.287  10.954  36.340  1.00 72.37 LIG-0.27  OA
ATOM     34 H    GLU S   2     -12.748  13.541  35.724  1.00 70.96 LIG 0.16  HD
BRANCH 32 35
ATOM     35  CA  ALA S   1     -12.328  12.364  37.993  1.00 72.54 LIG 0.27  C 
ATOM     36  CB  ALA S   1     -13.407  13.449  37.976  1.00 73.45 LIG 0.05  C 
BRANCH 35 37
ATOM     37  N   ALA S   1     -11.159  12.819  38.807  1.00 73.25 LIG-0.07  N 
ATOM     38 H2   ALA S   1     -10.526  12.194  38.794  1.00 73.25 LIG 0.28  HD
ATOM     39 H1   ALA S   1     -11.419  12.960  39.646  1.00 73.25 LIG 0.28  HD
ATOM     40 H3   ALA S   1     -10.835  13.575  38.466  1.00 73.25 LIG 0.28  HD
ENDBRANCH 35 37
ENDBRANCH 32 35
ENDBRANCH 25 31
ENDBRANCH 1 25
TORSDOF 15
