USER: ADFR SOLUTION from run 0
USER: SCORE 7.102045 LL:  -2.481 LR:  -7.907 RR:   0.000 FEB:  -4.327
USER: RMSD 0.326890
USER: STATUS Locally minimized using BFGS
USER: GENES 14
USER: genes 0 Translation |==|  0.50362 0.49801 0.56276
USER: genes 1 Rotation |==|  0.50336 0.50198 0.47837 0.99952
USER: genes 2 Torsion [C]-CA--CB-[CG] |==|  0.23120
USER: genes 3 Torsion [CA]-CB--CG-[CD1] |==|  0.45617
USER: genes 4 Torsion [N]-CA--C-[N] |==|  0.88156
USER: genes 5 Torsion [C]-N--CA-[CB] |==|  0.79278
USER: genes 6 Torsion [N]-CA--C-[N] |==|  0.26808
USER: genes 7 Torsion [C]-N--CA-[C] |==|  0.13037
USER: genes 8 Torsion [N]-CA--C-[O] |==|  0.47508
USER: genes 9 Torsion [CB]-CA--N-[C] |==|  0.42032
USER: genes 10 Torsion [N]-C--CA-[N] |==|  0.77107
USER: genes 11 Torsion [C]-CA--N-[C] |==|  0.51336
USER: genes 12 Torsion [N]-C--CA-[N] |==|  0.58994
USER: genes 13 Torsion [C]-CA--N-[H2] |==|  0.02727
ROOT
ATOM      1  CA  LEU B   3     -15.461 -24.440  41.923  1.00 80.55 LIG 0.18  C 
ENDROOT
BRANCH 1 2
ATOM      2  CB  LEU B   3     -14.170 -23.759  42.402  1.00 80.55 LIG 0.04  C 
BRANCH 2 3
ATOM      3  CG  LEU B   3     -14.217 -22.501  43.305  1.00 80.55 LIG-0.02  C 
ATOM      4  CD1 LEU B   3     -12.821 -22.243  43.971  1.00 80.53 LIG 0.01  C 
ATOM      5  CD2 LEU B   3     -14.670 -21.229  42.544  1.00 80.44 LIG 0.01  C 
ENDBRANCH 2 3
ENDBRANCH 1 2
BRANCH 1 6
ATOM      6  C   LEU B   3     -16.019 -23.741  40.685  1.00 80.58 LIG 0.24  C 
ATOM      7  N   ALA B   4     -15.372 -24.016  39.546  1.00 80.60 LIG-0.35  N 
ATOM      8 H    ALA B   4     -14.676 -24.521  39.525  1.00 80.60 LIG 0.16  HD
ATOM      9 O    LEU B   3     -17.009 -23.003  40.763  1.00 80.60 LIG-0.27  OA
BRANCH 7 10
ATOM     10  CA  ALA B   4     -15.749 -23.512  38.215  1.00 80.57 LIG 0.17  C 
ATOM     11  CB  ALA B   4     -16.981 -24.242  37.696  1.00 80.56 LIG 0.04  C 
BRANCH 10 12
ATOM     12  C   ALA B   4     -15.945 -21.995  38.197  1.00 80.56 LIG 0.24  C 
ATOM     13  N   GLY B   5     -14.888 -21.295  37.783  1.00 80.55 LIG-0.35  N 
ATOM     14 H    GLY B   5     -14.173 -21.667  37.484  1.00 80.55 LIG 0.16  HD
ATOM     15 O    ALA B   4     -17.016 -21.482  38.547  1.00 80.59 LIG-0.27  OA
BRANCH 13 16
ATOM     16  CA  GLY B   5     -14.820 -19.829  37.790  1.00 80.50 LIG 0.21  C 
BRANCH 16 17
ATOM     17  C   GLY B   5     -15.272 -19.130  39.061  1.00 80.51 LIG 0.21  C 
ATOM     18 O    GLY B   5     -15.079 -17.888  39.192  1.00 80.50 LIG-0.29  OA
ENDBRANCH 16 17
ENDBRANCH 13 16
ENDBRANCH 10 12
ENDBRANCH 7 10
ENDBRANCH 1 6
BRANCH 1 19
ATOM     19  N   LEU B   3     -15.197 -25.791  41.456  1.00 80.50 LIG-0.35  N 
ATOM     20  C   ALA B   2     -16.125 -26.769  41.520  1.00 80.42 LIG 0.24  C 
ATOM     21 O    ALA B   2     -16.990 -26.840  42.434  1.00 80.43 LIG-0.27  OA
ATOM     22 H    LEU B   3     -14.405 -25.905  41.140  1.00 80.50 LIG 0.16  HD
BRANCH 20 23
ATOM     23  CA  ALA B   2     -15.918 -27.930  40.544  1.00 80.35 LIG 0.17  C 
ATOM     24  CB  ALA B   2     -14.449 -28.262  40.414  1.00 80.34 LIG 0.04  C 
BRANCH 23 25
ATOM     25  N   ALA B   2     -16.463 -27.544  39.238  1.00 80.28 LIG-0.35  N 
ATOM     26 H    ALA B   2     -16.741 -26.731  39.211  1.00 80.28 LIG 0.16  HD
ATOM     27  C   GLY B   1     -16.525 -28.366  38.193  1.00 80.20 LIG 0.24  C 
ATOM     28 O    GLY B   1     -16.171 -29.545  38.226  1.00 80.22 LIG-0.27  OA
BRANCH 27 29
ATOM     29  CA  GLY B   1     -17.070 -27.765  36.914  1.00 80.17 LIG 0.33  C 
BRANCH 29 30
ATOM     30  N   GLY B   1     -17.820 -28.744  36.074  1.00 80.00 LIG-0.07  N 
ATOM     31 H3   GLY B   1     -18.609 -28.400  35.849  1.00 80.00 LIG 0.27  HD
ATOM     32 H2   GLY B   1     -17.945 -29.496  36.534  1.00 80.00 LIG 0.27  HD
ATOM     33 H1   GLY B   1     -17.353 -28.922  35.336  1.00 80.00 LIG 0.27  HD
ENDBRANCH 29 30
ENDBRANCH 27 29
ENDBRANCH 23 25
ENDBRANCH 20 23
ENDBRANCH 1 19
TORSDOF 12
