USER: ADFR SOLUTION from run 0
USER: SCORE 9.660225 LL:  -1.336 LR:  -8.324 RR:   0.000 FEB:  -6.236
USER: RMSD 1.251961
USER: STATUS Locally minimized using BFGS
USER: GENES 9
USER: genes 0 Translation |==|  0.47894 0.49377 0.53237
USER: genes 1 Rotation |==|  0.45471 0.56244 0.40870 0.98550
USER: genes 2 Torsion [C]-CA--N-[C] |==|  0.77962
USER: genes 3 Torsion [N]-C--CA-[N] |==|  0.43900
USER: genes 4 Torsion [C]-CA--N-[H1] |==|  0.63952
USER: genes 5 Torsion [N]-CA--C-[O] |==|  0.35481
USER: genes 6 Torsion [N]-CA--CB-[CG] |==|  0.50839
USER: genes 7 Torsion [CA]-CB--CG-[CD1] |==|  0.68099
USER: genes 8 Torsion [CE1]-CZ--OH-[HH] |==|  0.49892
ROOT
ATOM      1  CA  TYR A 502      -2.832  29.513  -8.699  1.00 10.00 LIG 0.19  C 
ENDROOT
BRANCH 1 2
ATOM      2  N   TYR A 502      -3.230  30.244  -7.491  1.00 10.00 LIG-0.34  N 
ATOM      3  C   GLY A 501      -3.418  29.610  -6.347  1.00 10.00 LIG 0.24  C 
ATOM      4 O    GLY A 501      -3.325  28.380  -6.214  1.00 10.00 LIG-0.27  OA
ATOM      5 H    TYR A 502      -3.325  31.091  -7.597  1.00 10.00 LIG 0.16  HD
BRANCH 3 6
ATOM      6  CA  GLY A 501      -3.770  30.500  -5.158  1.00 10.00 LIG 0.33  C 
BRANCH 6 7
ATOM      7  N   GLY A 501      -4.450  29.701  -4.127  1.00 10.00 LIG-0.07  N 
ATOM      8 H1   GLY A 501      -5.200  30.112  -3.879  1.00 10.00 LIG 0.27  HD
ATOM      9 H2   GLY A 501      -4.647  28.897  -4.455  1.00 10.00 LIG 0.27  HD
ATOM     10 H3   GLY A 501      -3.915  29.609  -3.421  1.00 10.00 LIG 0.27  HD
ENDBRANCH 6 7
ENDBRANCH 3 6
ENDBRANCH 1 2
BRANCH 1 11
ATOM     11  C   TYR A 502      -1.329  29.323  -8.465  1.00 10.00 LIG 0.20  C 
ATOM     12 O    TYR A 502      -0.808  28.200  -8.545  1.00 10.00 LIG-0.65  OA
ATOM     13 OXT  TYR A 502      -0.656  30.423  -8.180  1.00 10.00 LIG-0.65  OA
ENDBRANCH 1 11
BRANCH 1 14
ATOM     14  CB  TYR A 502      -3.218  30.345  -9.938  1.00 10.00 LIG 0.07  C 
BRANCH 14 15
ATOM     15  CG  TYR A 502      -2.908  29.630 -11.258  1.00 10.00 LIG-0.06  A 
ATOM     16  CD1 TYR A 502      -1.934  30.197 -12.098  1.00 10.00 LIG 0.01  A 
ATOM     17  CE1 TYR A 502      -1.639  29.533 -13.359  1.00 10.00 LIG 0.04  A 
ATOM     18  CZ  TYR A 502      -2.354  28.441 -13.716  1.00 10.00 LIG 0.07  A 
ATOM     19  CE2 TYR A 502      -3.325  27.859 -12.891  1.00 10.00 LIG 0.04  A 
ATOM     20  CD2 TYR A 502      -3.604  28.516 -11.657  1.00 10.00 LIG 0.01  A 
BRANCH 18 21
ATOM     21 OH   TYR A 502      -2.094  27.825 -14.920  1.00 10.00 LIG-0.36  OA
ATOM     22 HH   TYR A 502      -2.602  27.163 -15.012  1.00 10.00 LIG 0.22  HD
ENDBRANCH 18 21
ENDBRANCH 14 15
ENDBRANCH 1 14
TORSDOF 7
