USER: ADFR SOLUTION from run 0
USER: SCORE 6.231651 LL:  -1.216 LR:  -6.169 RR:   0.000 FEB:  -2.887
USER: RMSD 1.424481
USER: STATUS Locally minimized using BFGS
USER: GENES 13
USER: genes 0 Translation |==|  0.53529 0.45996 0.54626
USER: genes 1 Rotation |==|  0.46731 0.49897 0.42291 0.99294
USER: genes 2 Torsion [C]-N--CA-[CB] |==|  0.25423
USER: genes 3 Torsion [N]-CA--C-[N] |==|  0.42368
USER: genes 4 Torsion [C]-N--CA-[C] |==|  0.20189
USER: genes 5 Torsion [N]-CA--C-[OXT] |==|  0.80250
USER: genes 6 Torsion [N]-CA--CB-[OG] |==|  0.87123
USER: genes 7 Torsion [CA]-CB--OG-[HG] |==|  0.49863
USER: genes 8 Torsion [N]-C--CA-[N] |==|  0.70253
USER: genes 9 Torsion [C]-CA--N-[H1] |==|  0.50365
USER: genes 10 Torsion [C]-CA--CB-[CG] |==|  0.43969
USER: genes 11 Torsion [CA]-CB--CG-[SD] |==|  0.54700
USER: genes 12 Torsion [CB]-CG--SD-[CE] |==|  0.21563
ROOT
ATOM      1  C   MET F   1       3.209  59.959  80.608  1.00 63.86 LIG 0.25  C 
ATOM      2 O    MET F   1       3.236  58.835  80.095  1.00 63.40 LIG-0.27  OA
ATOM      3  N   ALA F   2       2.979  61.062  79.897  1.00107.99 LIG-0.35  N 
ATOM      4 H    ALA F   2       2.942  61.854  80.231  1.00107.99 LIG 0.16  HD
ENDROOT
BRANCH 3 5
ATOM      5  CA  ALA F   2       2.768  61.000  78.453  1.00108.71 LIG 0.17  C 
ATOM      6  CB  ALA F   2       1.279  60.858  78.136  1.00102.49 LIG 0.04  C 
BRANCH 5 7
ATOM      7  C   ALA F   2       3.330  62.209  77.720  1.00108.72 LIG 0.24  C 
ATOM      8  N   SER F   3       3.688  61.975  76.460  1.00165.57 LIG-0.34  N 
ATOM      9 H    SER F   3       3.613  61.203  76.089  1.00165.57 LIG 0.16  HD
ATOM     10 O    ALA F   2       3.428  63.307  78.272  1.00108.45 LIG-0.27  OA
BRANCH 8 11
ATOM     11  CA  SER F   3       4.240  62.992  75.575  1.00165.78 LIG 0.21  C 
BRANCH 11 12
ATOM     12  C   SER F   3       5.676  63.372  75.933  1.00165.56 LIG 0.20  C 
ATOM     13 O    SER F   3       6.608  63.098  75.176  1.00164.94 LIG-0.65  OA
ATOM     14 OXT  SER F   3       5.899  64.028  76.966  1.00118.74 LIG-0.65  OA
ENDBRANCH 11 12
BRANCH 11 15
ATOM     15  CB  SER F   3       3.343  64.231  75.606  1.00113.97 LIG 0.20  C 
BRANCH 15 16
ATOM     16 OG   SER F   3       1.970  63.877  75.484  1.00114.22 LIG-0.40  OA
ATOM     17 HG   SER F   3       1.498  64.571  75.511  1.00114.22 LIG 0.21  HD
ENDBRANCH 15 16
ENDBRANCH 11 15
ENDBRANCH 8 11
ENDBRANCH 5 7
ENDBRANCH 3 5
BRANCH 1 18
ATOM     18  CA  MET F   1       3.407  60.145  82.123  1.00 62.90 LIG 0.28  C 
BRANCH 18 19
ATOM     19  N   MET F   1       4.775  59.981  82.596  1.00 61.98 LIG-0.07  N 
ATOM     20 H1   MET F   1       4.799  60.085  83.479  1.00 61.98 LIG 0.28  HD
ATOM     21 H2   MET F   1       5.066  59.166  82.385  1.00 61.98 LIG 0.28  HD
ATOM     22 H3   MET F   1       5.297  60.590  82.211  1.00 61.98 LIG 0.28  HD
ENDBRANCH 18 19
BRANCH 18 23
ATOM     23  CB  MET F   1       2.865  61.514  82.553  1.00 75.38 LIG 0.05  C 
BRANCH 23 24
ATOM     24  CG  MET F   1       2.522  61.615  84.042  1.00 74.73 LIG 0.08  C 
BRANCH 24 25
ATOM     25 SD   MET F   1       1.443  63.035  84.453  1.00 74.60 LIG-0.17  SA
ATOM     26  CE  MET F   1      -0.127  62.453  83.931  1.00 70.92 LIG 0.09  C 
ENDBRANCH 24 25
ENDBRANCH 23 24
ENDBRANCH 18 23
ENDBRANCH 1 18
TORSDOF 11
