USER: ADFR SOLUTION from run 0
USER: SCORE 12.151829 LL:  -1.363 LR: -10.789 RR:   0.000 FEB:  -8.701
USER: RMSD 0.590958
USER: STATUS Locally minimized using BFGS
USER: GENES 9
USER: genes 0 Translation |==|  0.47654 0.50275 0.46504
USER: genes 1 Rotation |==|  0.51752 0.48280 0.50715 0.99935
USER: genes 2 Torsion [N]-C--CA-[N] |==|  0.32274
USER: genes 3 Torsion [C]-CA--N-[H1] |==|  0.55793
USER: genes 4 Torsion [C]-CA--CB-[CG2] |==|  0.14175
USER: genes 5 Torsion [CA]-CB--CG1-[CD1] |==|  0.79082
USER: genes 6 Torsion [C]-N--CA-[C] |==|  0.74867
USER: genes 7 Torsion [N]-CA--C-[O] |==|  0.84713
USER: genes 8 Torsion [N]-CA--CB-[CG1] |==|  0.52304
ROOT
ATOM      1  C   ILE Z1016      20.656  65.072  12.701  1.00 25.98 LIG 0.25  C 
ATOM      2 O    ILE Z1016      20.813  64.793  11.476  1.00 25.98 LIG-0.27  OA
ATOM      3  N   VAL Z1017      21.602  65.530  13.557  1.00 26.46 LIG-0.34  N 
ATOM      4 H    VAL Z1017      21.407  65.823  14.342  1.00 26.46 LIG 0.16  HD
ENDROOT
BRANCH 1 5
ATOM      5  CA  ILE Z1016      19.227  64.987  13.266  1.00 25.98 LIG 0.28  C 
BRANCH 5 6
ATOM      6  N   ILE Z1016      18.367  65.922  12.511  1.00 25.98 LIG-0.07  N 
ATOM      7 H1   ILE Z1016      17.643  66.115  12.992  1.00 25.98 LIG 0.28  HD
ATOM      8 H2   ILE Z1016      18.818  66.671  12.342  1.00 25.98 LIG 0.28  HD
ATOM      9 H3   ILE Z1016      18.120  65.546  11.744  1.00 25.98 LIG 0.28  HD
ENDBRANCH 5 6
BRANCH 5 10
ATOM     10  CB  ILE Z1016      18.732  63.500  13.186  1.00 25.98 LIG 0.02  C 
ATOM     11  CG2 ILE Z1016      19.763  62.531  13.813  1.00 20.29 LIG 0.01  C 
BRANCH 10 12
ATOM     12  CG1 ILE Z1016      17.299  63.218  13.766  1.00 20.29 LIG 0.00  C 
ATOM     13  CD1 ILE Z1016      17.323  63.221  15.312  1.00 20.29 LIG 0.01  C 
ENDBRANCH 10 12
ENDBRANCH 5 10
ENDBRANCH 1 5
BRANCH 3 14
ATOM     14  CA  VAL Z1017      23.078  65.588  13.261  1.00 26.46 LIG 0.19  C 
BRANCH 14 15
ATOM     15  C   VAL Z1017      23.824  64.313  13.677  1.00 26.46 LIG 0.20  C 
ATOM     16 O    VAL Z1017      23.725  63.914  14.875  1.00 26.46 LIG-0.65  OA
ATOM     17 OXT  VAL Z1017      24.210  63.490  12.800  1.00 31.30 LIG-0.65  OA
ENDBRANCH 14 15
BRANCH 14 18
ATOM     18  CB  VAL Z1017      23.747  66.672  14.057  1.00 26.46 LIG 0.01  C 
ATOM     19  CG1 VAL Z1017      25.179  66.789  13.538  1.00 20.78 LIG 0.01  C 
ATOM     20  CG2 VAL Z1017      23.008  68.014  13.964  1.00 20.78 LIG 0.01  C 
ENDBRANCH 14 18
ENDBRANCH 3 14
TORSDOF 7
