USER: ADFR SOLUTION from run 0
USER: SCORE 14.524071 LL:  -2.646 LR: -12.092 RR:   0.000 FEB:  -9.407
USER: RMSD 0.554357
USER: STATUS Locally minimized using BFGS
USER: GENES 11
USER: genes 0 Translation |==|  0.57052 0.51864 0.52187
USER: genes 1 Rotation |==|  0.47710 0.49192 0.49297 0.99936
USER: genes 2 Torsion [N]-CA--C-[O] |==|  0.90039
USER: genes 3 Torsion [C]-N--CA-[CB] |==|  0.35731
USER: genes 4 Torsion [N]-CA--CB-[CG] |==|  0.80139
USER: genes 5 Torsion [CA]-CB--CG-[CD1] |==|  0.90170
USER: genes 6 Torsion [CE1]-CZ--OH-[HH] |==|  0.83867
USER: genes 7 Torsion [N]-CA--C-[O] |==|  0.59761
USER: genes 8 Torsion [N]-C--CA-[N] |==|  0.41846
USER: genes 9 Torsion [C]-CA--N-[C] |==|  0.61667
USER: genes 10 Torsion [N]-C--CA-[N] |==|  0.36995
ROOT
ATOM      1  N   PRO P   2     -15.934  25.219  23.536  1.00 14.82 LIG-0.34  N 
ATOM      2  CA  PRO P   2     -14.906  24.204  23.751  1.00 14.93 LIG 0.18  C 
ATOM      3  CB  PRO P   2     -13.658  24.955  24.174  1.00 16.92 LIG 0.04  C 
ATOM      4  CG  PRO P   2     -13.998  26.425  24.128  1.00 18.84 LIG 0.02  C 
ATOM      5  CD  PRO P   2     -15.514  26.554  24.008  1.00 20.22 LIG 0.13  C 
ATOM      6  C   ALA P   3     -17.080  24.896  22.933  1.00 17.18 LIG 0.24  C 
ATOM      7 O    ALA P   3     -17.388  23.741  22.546  1.00 13.58 LIG-0.27  OA
ENDROOT
BRANCH 2 8
ATOM      8  C   PRO P   2     -15.409  23.250  24.816  1.00 18.07 LIG 0.24  C 
ATOM      9  N   TYR P   1     -15.107  21.978  24.668  1.00 10.00 LIG-0.34  N 
ATOM     10 H    TYR P   1     -14.677  21.635  24.006  1.00 10.00 LIG 0.16  HD
ATOM     11 O    PRO P   2     -16.103  23.720  25.767  1.00 18.25 LIG-0.27  OA
BRANCH 9 12
ATOM     12  CA  TYR P   1     -15.537  21.035  25.726  1.00 13.52 LIG 0.19  C 
BRANCH 12 13
ATOM     13  CB  TYR P   1     -16.272  19.884  25.085  1.00 19.13 LIG 0.07  C 
BRANCH 13 14
ATOM     14  CG  TYR P   1     -17.638  20.214  24.544  1.00 19.60 LIG-0.06  A 
ATOM     15  CD1 TYR P   1     -18.495  21.127  25.157  1.00 21.46 LIG 0.01  A 
ATOM     16  CE1 TYR P   1     -19.777  21.389  24.622  1.00 23.96 LIG 0.04  A 
ATOM     17  CZ  TYR P   1     -20.186  20.706  23.491  1.00 27.70 LIG 0.07  A 
ATOM     18  CE2 TYR P   1     -19.340  19.788  22.863  1.00 27.12 LIG 0.04  A 
ATOM     19  CD2 TYR P   1     -18.073  19.537  23.403  1.00 19.18 LIG 0.01  A 
BRANCH 17 20
ATOM     20 OH   TYR P   1     -21.416  20.894  22.905  1.00 32.50 LIG-0.36  OA
ATOM     21 HH   TYR P   1     -22.020  20.731  23.465  1.00 32.50 LIG 0.22  HD
ENDBRANCH 17 20
ENDBRANCH 13 14
ENDBRANCH 12 13
BRANCH 12 22
ATOM     22  C   TYR P   1     -14.300  20.621  26.575  1.00 14.95 LIG 0.20  C 
ATOM     23 O    TYR P   1     -14.296  19.411  27.005  1.00 13.05 LIG-0.65  OA
ATOM     24 OXT  TYR P   1     -13.421  21.440  27.079  1.00 12.36 LIG-0.65  OA
ENDBRANCH 12 22
ENDBRANCH 9 12
ENDBRANCH 2 8
BRANCH 6 25
ATOM     25  CA  ALA P   3     -18.047  26.055  22.772  1.00 19.37 LIG 0.17  C 
ATOM     26  CB  ALA P   3     -18.946  26.110  24.009  1.00 20.42 LIG 0.04  C 
BRANCH 25 27
ATOM     27  N   ALA P   3     -18.882  25.847  21.571  1.00 19.05 LIG-0.35  N 
ATOM     28 H    ALA P   3     -19.156  25.037  21.476  1.00 19.05 LIG 0.16  HD
ATOM     29  C   PRO P   4     -19.178  26.813  20.724  1.00 21.72 LIG 0.24  C 
ATOM     30 O    PRO P   4     -18.793  28.020  20.871  1.00 18.44 LIG-0.27  OA
BRANCH 29 31
ATOM     31  CA  PRO P   4     -20.046  26.375  19.571  1.00 25.21 LIG 0.18  C 
ATOM     32  N   PRO P   4     -21.139  27.346  19.405  1.00 32.27 LIG-0.34  N 
ATOM     33  CD  PRO P   4     -20.969  28.178  18.190  1.00 30.21 LIG 0.13  C 
ATOM     34  C   ACE P   5     -22.068  27.436  20.377  1.00 41.02 LIG 0.22  C 
ATOM     35  CG  PRO P   4     -19.589  27.750  17.663  1.00 29.86 LIG 0.02  C 
ATOM     36  CB  PRO P   4     -19.386  26.355  18.201  1.00 29.41 LIG 0.04  C 
ATOM     37 O    ACE P   5     -22.004  26.792  21.440  1.00 36.79 LIG-0.27  OA
ATOM     38  CH3 ACE P   5     -23.206  28.371  20.080  1.00 44.01 LIG 0.12  C 
ENDBRANCH 29 31
ENDBRANCH 25 27
ENDBRANCH 6 25
TORSDOF 9
