USER: ADFR SOLUTION from run 0
USER: SCORE 11.929645 LL:  -1.781 LR: -10.160 RR:   0.000 FEB:  -7.774
USER: RMSD 0.531723
USER: STATUS Locally minimized using BFGS
USER: GENES 10
USER: genes 0 Translation |==|  0.53215 0.46277 0.44784
USER: genes 1 Rotation |==|  0.47218 0.52049 0.54143 0.99708
USER: genes 2 Torsion [C]-N--CA-[C] |==|  0.75442
USER: genes 3 Torsion [N]-CA--C-[O] |==|  0.61318
USER: genes 4 Torsion [N]-CA--CB-[CG] |==|  0.76042
USER: genes 5 Torsion [CA]-CB--CG-[CD2] |==|  0.44348
USER: genes 6 Torsion [N]-C--CA-[N] |==|  0.37778
USER: genes 7 Torsion [C]-CA--N-[C] |==|  0.83538
USER: genes 8 Torsion [N]-C--CA-[N] |==|  0.43970
USER: genes 9 Torsion [C]-CA--N-[H2] |==|  0.73416
ROOT
ATOM      1  C   ALA C 251      29.785   1.383  38.615  1.00 17.89 LIG 0.24  C 
ATOM      2 O    ALA C 251      29.759   0.241  39.094  1.00 18.07 LIG-0.27  OA
ATOM      3  N   TRP C 252      28.718   2.059  38.223  1.00 16.45 LIG-0.34  N 
ATOM      4 H    TRP C 252      28.728   2.847  37.877  1.00 16.45 LIG 0.16  HD
ENDROOT
BRANCH 3 5
ATOM      5  CA  TRP C 252      27.365   1.433  38.380  1.00 14.97 LIG 0.19  C 
BRANCH 5 6
ATOM      6  C   TRP C 252      27.070   0.628  37.140  1.00 14.13 LIG 0.20  C 
ATOM      7 O    TRP C 252      25.906   0.661  36.654  1.00 13.79 LIG-0.65  OA
ATOM      8 OXT  TRP C 252      28.029  -0.043  36.681  0.30 14.18 LIG-0.65  OA
ENDBRANCH 5 6
BRANCH 5 9
ATOM      9  CB  TRP C 252      26.390   2.503  38.826  1.00 15.10 LIG 0.08  C 
BRANCH 9 10
ATOM     10  CG  TRP C 252      26.398   2.657  40.318  1.00 15.42 LIG-0.03  A 
ATOM     11  CD1 TRP C 252      26.805   1.690  41.207  1.00 15.27 LIG 0.10  A 
ATOM     12  NE1 TRP C 252      26.658   2.150  42.497  1.00 15.23 LIG-0.36  N 
ATOM     13 HE1  TRP C 252      26.865   1.717  43.210  1.00 15.23 LIG 0.17  HD
ATOM     14  CE2 TRP C 252      26.128   3.415  42.454  1.00 15.53 LIG 0.04  A 
ATOM     15  CZ2 TRP C 252      25.806   4.252  43.525  1.00 15.28 LIG 0.03  A 
ATOM     16  CD2 TRP C 252      25.957   3.770  41.099  1.00 15.41 LIG-0.00  A 
ATOM     17  CH2 TRP C 252      25.286   5.506  43.188  1.00 15.35 LIG 0.00  A 
ATOM     18  CZ3 TRP C 252      25.113   5.867  41.842  1.00 15.31 LIG 0.00  A 
ATOM     19  CE3 TRP C 252      25.437   5.021  40.797  1.00 15.90 LIG 0.01  A 
ENDBRANCH 9 10
ENDBRANCH 5 9
ENDBRANCH 3 5
BRANCH 1 20
ATOM     20  CA  ALA C 251      31.103   2.134  38.419  1.00 18.99 LIG 0.17  C 
ATOM     21  CB  ALA C 251      31.859   1.615  37.208  1.00 19.07 LIG 0.04  C 
BRANCH 20 22
ATOM     22  N   ALA C 251      31.904   1.953  39.631  1.00 20.05 LIG-0.35  N 
ATOM     23 H    ALA C 251      32.661   1.577  39.481  1.00 20.05 LIG 0.16  HD
ATOM     24  C   GLY C 250      31.526   2.319  40.833  1.00 20.79 LIG 0.24  C 
ATOM     25 O    GLY C 250      30.445   2.872  41.109  1.00 21.58 LIG-0.27  OA
BRANCH 24 26
ATOM     26  CA  GLY C 250      32.529   2.003  41.937  1.00 21.39 LIG 0.33  C 
BRANCH 26 27
ATOM     27  N   GLY C 250      32.295   2.867  43.107  1.00 22.00 LIG-0.07  N 
ATOM     28 H1   GLY C 250      32.459   2.409  43.853  1.00 22.00 LIG 0.27  HD
ATOM     29 H2   GLY C 250      32.837   3.572  43.069  1.00 22.00 LIG 0.27  HD
ATOM     30 H3   GLY C 250      31.449   3.143  43.109  1.00 22.00 LIG 0.27  HD
ENDBRANCH 26 27
ENDBRANCH 24 26
ENDBRANCH 20 22
ENDBRANCH 1 20
TORSDOF 8
