USER: ADFR SOLUTION from run 0
USER: SCORE 10.446556 LL:  -1.581 LR:  -8.865 RR:   0.000 FEB:  -5.882
USER: RMSD 0.877109
USER: STATUS Locally minimized using BFGS
USER: GENES 12
USER: genes 0 Translation |==|  0.49074 0.57827 0.47361
USER: genes 1 Rotation |==|  0.52154 0.52341 0.50541 0.99896
USER: genes 2 Torsion [C]-N--CA-[C] |==|  0.58300
USER: genes 3 Torsion [N]-CA--C-[O] |==|  0.04817
USER: genes 4 Torsion [N]-CA--CB-[CG] |==|  0.12166
USER: genes 5 Torsion [CA]-CB--CG-[CD] |==|  0.40343
USER: genes 6 Torsion [CB]-CG--CD-[CE] |==|  0.73051
USER: genes 7 Torsion [CG]-CD--CE-[NZ] |==|  0.82278
USER: genes 8 Torsion [CD]-CE--NZ-[HZ2] |==|  0.02180
USER: genes 9 Torsion [N]-C--CA-[N] |==|  0.97841
USER: genes 10 Torsion [C]-CA--N-[H1] |==|  0.47476
USER: genes 11 Torsion [C]-CA--CB-[CG1] |==|  0.86139
ROOT
ATOM      1  C   VAL E1322      37.432  41.958  -3.282  1.00 68.39 LIG 0.25  C 
ATOM      2 O    VAL E1322      38.480  42.536  -3.400  1.00 21.34 LIG-0.27  OA
ATOM      3  N   LYS E1323      37.328  40.641  -3.550  1.00 24.29 LIG-0.34  N 
ATOM      4 H    LYS E1323      36.578  40.224  -3.490  1.00 24.29 LIG 0.16  HD
ENDROOT
BRANCH 3 5
ATOM      5  CA  LYS E1323      38.481  39.718  -3.986  1.00 35.31 LIG 0.18  C 
BRANCH 5 6
ATOM      6  C   LYS E1323      38.130  38.499  -4.904  1.00 31.13 LIG 0.20  C 
ATOM      7 O    LYS E1323      36.967  38.593  -5.489  1.00 27.62 LIG-0.65  OA
ATOM      8 OXT  LYS E1323      39.022  37.579  -5.045  1.00100.00 LIG-0.65  OA
ENDBRANCH 5 6
BRANCH 5 9
ATOM      9  CB  LYS E1323      39.322  39.271  -2.820  1.00 34.48 LIG 0.04  C 
BRANCH 9 10
ATOM     10  CG  LYS E1323      38.521  38.860  -1.635  1.00 39.74 LIG 0.00  C 
BRANCH 10 11
ATOM     11  CD  LYS E1323      39.268  37.734  -0.992  1.00 52.87 LIG 0.03  C 
BRANCH 11 12
ATOM     12  CE  LYS E1323      38.721  36.404  -1.426  1.00 74.69 LIG 0.23  C 
BRANCH 12 13
ATOM     13  NZ  LYS E1323      37.335  36.227  -0.985  1.00 65.28 LIG-0.08  N 
ATOM     14 HZ1  LYS E1323      37.299  35.585  -0.370  1.00 65.28 LIG 0.27  HD
ATOM     15 HZ2  LYS E1323      37.035  36.990  -0.638  1.00 65.28 LIG 0.27  HD
ATOM     16 HZ3  LYS E1323      36.829  35.999  -1.681  1.00 65.28 LIG 0.27  HD
ENDBRANCH 12 13
ENDBRANCH 11 12
ENDBRANCH 10 11
ENDBRANCH 9 10
ENDBRANCH 5 9
ENDBRANCH 3 5
BRANCH 1 17
ATOM     17  CA  VAL E1322      36.203  42.720  -2.801  1.00 27.04 LIG 0.28  C 
BRANCH 17 18
ATOM     18  N   VAL E1322      34.994  41.881  -2.880  1.00 24.29 LIG-0.07  N 
ATOM     19 H1   VAL E1322      34.318  42.295  -2.475  1.00 24.29 LIG 0.28  HD
ATOM     20 H2   VAL E1322      34.786  41.739  -3.734  1.00 24.29 LIG 0.28  HD
ATOM     21 H3   VAL E1322      35.146  41.102  -2.479  1.00 24.29 LIG 0.28  HD
ENDBRANCH 17 18
BRANCH 17 22
ATOM     22  CB  VAL E1322      36.518  43.440  -1.480  1.00 26.94 LIG 0.02  C 
ATOM     23  CG1 VAL E1322      37.167  42.488  -0.455  1.00 31.09 LIG 0.01  C 
ATOM     24  CG2 VAL E1322      37.339  44.775  -1.743  1.00 18.44 LIG 0.01  C 
ENDBRANCH 17 22
ENDBRANCH 1 17
TORSDOF 10
