REMARK  18 active torsions:
REMARK  status: ('A' for Active; 'I' for Inactive)
REMARK    1  A    between atoms: N_1  and  CA_2 
REMARK    2  A    between atoms: CA_2  and  CB_5 
REMARK    3  A    between atoms: CA_2  and  C_3 
REMARK       I    between atoms: C_3  and  N_16 
REMARK    4  A    between atoms: CB_5  and  CG_6 
REMARK    5  A    between atoms: CG_6  and  CD_7 
REMARK    6  A    between atoms: CD_7  and  CE_8 
REMARK    7  A    between atoms: CE_8  and  NZ_9 
REMARK    8  A    between atoms: N_16  and  CA_17 
REMARK    9  A    between atoms: CA_17  and  C_18 
REMARK   10  A    between atoms: CA_17  and  CB_20 
REMARK       I    between atoms: C_18  and  N_24 
REMARK   11  A    between atoms: CB_20  and  OG_21 
REMARK   12  A    between atoms: N_24  and  CA_25 
REMARK   13  A    between atoms: CA_25  and  CB_28 
REMARK   14  A    between atoms: CA_25  and  C_26 
REMARK   15  A    between atoms: CB_28  and  CG_29 
REMARK   16  A    between atoms: CG_29  and  CD_30 
REMARK   17  A    between atoms: CD_30  and  CE_31 
REMARK   18  A    between atoms: CE_31  and  NZ_32 
ROOT
ATOM      1  CA  SER B   2       3.949  20.209  16.190  1.00 10.18     0.200 C 
ENDROOT
BRANCH   1   2
ATOM      2  C   SER B   2       2.602  20.231  15.505  1.00  8.90     0.243 C 
ATOM      3  N   LYS B   3       1.495  19.933  16.236  1.00  6.95    -0.345 N 
ATOM      4  H   LYS B   3       1.465  19.779  17.082  1.00  6.95     0.163 HD
ATOM      5  O   SER B   2       2.543  20.558  14.323  1.00  8.68    -0.271 OA
BRANCH   3   6
ATOM      6  CA  LYS B   3       0.236  19.869  15.511  1.00 11.00     0.185 C 
BRANCH   6   7
ATOM      7  CB  LYS B   3      -0.300  18.442  15.317  1.00 14.39     0.036 C 
BRANCH   7   8
ATOM      8  CG  LYS B   3      -1.369  18.467  14.182  1.00 14.11     0.004 C 
BRANCH   8   9
ATOM      9  CD  LYS B   3      -1.981  17.115  13.943  1.00 17.93     0.027 C 
BRANCH   9  10
ATOM     10  CE  LYS B   3      -2.939  17.047  12.750  1.00 22.23     0.229 C 
BRANCH  10  11
ATOM     11  NZ  LYS B   3      -3.703  18.315  12.629  1.00 28.78    -0.079 N 
ATOM     12  HZ1 LYS B   3      -4.471  18.160  12.207  1.00 28.78     0.274 HD
ATOM     13  HZ2 LYS B   3      -3.871  18.639  13.441  1.00 28.78     0.274 HD
ATOM     14  HZ3 LYS B   3      -3.225  18.907  12.167  1.00 28.78     0.274 HD
ENDBRANCH  10  11
ENDBRANCH   9  10
ENDBRANCH   8   9
ENDBRANCH   7   8
ENDBRANCH   6   7
BRANCH   6  15
ATOM     15  C   LYS B   3      -0.868  20.660  16.244  1.00 14.57     0.196 C 
ATOM     16  OXT LYS B   3      -1.802  21.020  15.508  1.00 12.12    -0.646 OA
ATOM     17  O   LYS B   3      -0.750  20.924  17.439  1.00  9.76    -0.646 OA
ENDBRANCH   6  15
ENDBRANCH   3   6
ENDBRANCH   1   2
BRANCH   1  18
ATOM     18  CB  SER B   2       4.421  21.654  16.412  1.00 16.17     0.199 C 
BRANCH  18  19
ATOM     19  OG  SER B   2       3.830  22.184  17.595  1.00 18.91    -0.398 OA
ATOM     20  HG  SER B   2       4.420  22.563  18.058  1.00 18.91     0.209 HD
ENDBRANCH  18  19
ENDBRANCH   1  18
BRANCH   1  21
ATOM     21  N   SER B   2       5.003  19.578  15.400  1.00 10.11    -0.344 N 
ATOM     22  H   SER B   2       5.501  20.137  14.977  1.00 10.11     0.163 HD
ATOM     23  C   LYS B   1       5.174  18.268  15.343  1.00  8.46     0.249 C 
ATOM     24  O   LYS B   1       4.415  17.475  15.888  1.00  8.56    -0.271 OA
BRANCH  23  25
ATOM     25  CA  LYS B   1       6.390  17.790  14.577  1.00  4.26     0.274 C 
BRANCH  25  26
ATOM     26  N   LYS B   1       6.891  16.479  15.095  1.00  4.35    -0.067 N 
ATOM     27  H1  LYS B   1       7.431  16.108  14.492  1.00  4.35     0.275 HD
ATOM     28  H3  LYS B   1       6.202  15.937  15.248  1.00  4.35     0.275 HD
ATOM     29  H2  LYS B   1       7.339  16.611  15.853  1.00  4.35     0.275 HD
ENDBRANCH  25  26
BRANCH  25  30
ATOM     30  CB  LYS B   1       6.112  17.726  13.064  1.00  8.53     0.042 C 
BRANCH  30  31
ATOM     31  CG  LYS B   1       5.232  16.544  12.686  1.00  9.48     0.004 C 
BRANCH  31  32
ATOM     32  CD  LYS B   1       5.121  16.458  11.148  1.00 13.21     0.027 C 
BRANCH  32  33
ATOM     33  CE  LYS B   1       6.395  15.878  10.546  1.00 18.73     0.229 C 
BRANCH  33  34
ATOM     34  NZ  LYS B   1       6.549  14.423  10.882  1.00 15.92    -0.079 N 
ATOM     35  HZ3 LYS B   1       5.815  13.983  10.639  1.00 15.92     0.274 HD
ATOM     36  HZ1 LYS B   1       7.251  14.091  10.448  1.00 15.92     0.274 HD
ATOM     37  HZ2 LYS B   1       6.672  14.332  11.759  1.00 15.92     0.274 HD
ENDBRANCH  33  34
ENDBRANCH  32  33
ENDBRANCH  31  32
ENDBRANCH  30  31
ENDBRANCH  25  30
ENDBRANCH  23  25
ENDBRANCH   1  21
TORSDOF 18
