REMARK  19 active torsions:
REMARK  status: ('A' for Active; 'I' for Inactive)
REMARK    1  A    between atoms: N_1  and  CA_2 
REMARK    2  A    between atoms: CA_2  and  CB_5 
REMARK    3  A    between atoms: CA_2  and  C_3 
REMARK       I    between atoms: C_3  and  N_16 
REMARK    4  A    between atoms: CB_5  and  CG_6 
REMARK    5  A    between atoms: CG_6  and  CD_7 
REMARK    6  A    between atoms: CD_7  and  CE_8 
REMARK    7  A    between atoms: CE_8  and  NZ_9 
REMARK    8  A    between atoms: N_16  and  CA_17 
REMARK    9  A    between atoms: CA_17  and  C_18 
REMARK   10  A    between atoms: CA_17  and  CB_20 
REMARK       I    between atoms: C_18  and  N_28 
REMARK   11  A    between atoms: CB_20  and  CG_21 
REMARK   12  A    between atoms: CG_21  and  CD_22 
REMARK       I    between atoms: CD_22  and  NE2_24 
REMARK   13  A    between atoms: N_28  and  CA_29 
REMARK   14  A    between atoms: CA_29  and  CB_32 
REMARK   15  A    between atoms: CA_29  and  C_30 
REMARK   16  A    between atoms: CB_32  and  CG_33 
REMARK   17  A    between atoms: CG_33  and  CD_34 
REMARK   18  A    between atoms: CD_34  and  CE_35 
REMARK   19  A    between atoms: CE_35  and  NZ_36 
ROOT
ATOM      1  CA  GLN B   2       3.871  20.200  15.942  1.00 17.90     0.177 C 
ENDROOT
BRANCH   1   2
ATOM      2  C   GLN B   2       2.581  20.054  15.167  1.00 16.31     0.241 C 
ATOM      3  O   GLN B   2       2.467  20.287  13.964  1.00 17.68    -0.271 OA
ATOM      4  N   LYS B   3       1.528  19.659  15.901  1.00 17.96    -0.345 N 
ATOM      5  H   LYS B   3       1.578  19.484  16.742  1.00 17.96     0.163 HD
BRANCH   4   6
ATOM      6  CA  LYS B   3       0.211  19.490  15.351  1.00 18.66     0.185 C 
BRANCH   6   7
ATOM      7  CB  LYS B   3      -0.197  18.015  15.578  1.00 21.21     0.036 C 
BRANCH   7   8
ATOM      8  CG  LYS B   3      -1.601  17.720  15.113  1.00 28.49     0.004 C 
BRANCH   8   9
ATOM      9  CD  LYS B   3      -1.607  17.316  13.649  1.00 23.11     0.027 C 
BRANCH   9  10
ATOM     10  CE  LYS B   3      -3.061  16.925  13.289  1.00 24.47     0.229 C 
BRANCH  10  11
ATOM     11  NZ  LYS B   3      -3.106  16.929  11.796  1.00 24.59    -0.079 N 
ATOM     12  HZ3 LYS B   3      -2.552  16.308  11.480  1.00 24.59     0.274 HD
ATOM     13  HZ1 LYS B   3      -3.935  16.753  11.523  1.00 24.59     0.274 HD
ATOM     14  HZ2 LYS B   3      -2.858  17.729  11.493  1.00 24.59     0.274 HD
ENDBRANCH  10  11
ENDBRANCH   9  10
ENDBRANCH   8   9
ENDBRANCH   7   8
ENDBRANCH   6   7
BRANCH   6  15
ATOM     15  C   LYS B   3      -0.806  20.395  16.069  1.00 20.09     0.196 C 
ATOM     16  O   LYS B   3      -1.800  20.688  15.375  1.00 20.27    -0.646 OA
ATOM     17  OXT LYS B   3      -0.616  20.786  17.243  1.00 17.88    -0.646 OA
ENDBRANCH   6  15
ENDBRANCH   4   6
ENDBRANCH   1   2
BRANCH   1  18
ATOM     18  CB  GLN B   2       4.116  21.731  16.043  1.00 14.78     0.044 C 
BRANCH  18  19
ATOM     19  CG  GLN B   2       5.334  22.010  16.926  1.00 19.11     0.105 C 
BRANCH  19  20
ATOM     20  CD  GLN B   2       5.301  21.716  18.380  1.00 21.74     0.215 C 
ATOM     21  OE1 GLN B   2       4.394  21.162  18.982  1.00 22.50    -0.274 OA
ATOM     22  NE2 GLN B   2       6.390  22.072  19.074  1.00 26.70    -0.370 N 
ATOM     23 1HE2 GLN B   2       7.044  22.464  18.676  1.00 26.70     0.159 HD
ATOM     24 2HE2 GLN B   2       6.435  21.909  19.917  1.00 26.70     0.159 HD
ENDBRANCH  19  20
ENDBRANCH  18  19
ENDBRANCH   1  18
BRANCH   1  25
ATOM     25  N   GLN B   2       5.024  19.586  15.276  1.00 16.65    -0.346 N 
ATOM     26  C   LYS B   1       5.181  18.263  15.242  1.00 15.97     0.248 C 
ATOM     27  O   LYS B   1       4.425  17.465  15.802  1.00 15.49    -0.271 OA
ATOM     28  H   GLN B   2       5.572  20.146  14.921  1.00 16.65     0.163 HD
BRANCH  26  29
ATOM     29  CA  LYS B   1       6.425  17.769  14.533  1.00 14.04     0.274 C 
BRANCH  29  30
ATOM     30  N   LYS B   1       6.914  16.494  15.120  1.00 15.17    -0.067 N 
ATOM     31  H3  LYS B   1       6.219  15.989  15.354  1.00 15.17     0.275 HD
ATOM     32  H2  LYS B   1       7.409  16.668  15.839  1.00 15.17     0.275 HD
ATOM     33  H1  LYS B   1       7.407  16.060  14.519  1.00 15.17     0.275 HD
ENDBRANCH  29  30
BRANCH  29  34
ATOM     34  CB  LYS B   1       6.221  17.686  13.008  1.00 17.90     0.042 C 
BRANCH  34  35
ATOM     35  CG  LYS B   1       5.276  16.563  12.573  1.00 15.85     0.004 C 
BRANCH  35  36
ATOM     36  CD  LYS B   1       5.185  16.461  11.051  1.00 19.36     0.027 C 
BRANCH  36  37
ATOM     37  CE  LYS B   1       6.431  15.859  10.401  1.00 24.06     0.229 C 
BRANCH  37  38
ATOM     38  NZ  LYS B   1       6.688  14.460  10.854  1.00 18.61    -0.079 N 
ATOM     39  HZ1 LYS B   1       7.327  14.098  10.352  1.00 18.61     0.274 HD
ATOM     40  HZ2 LYS B   1       6.948  14.466  11.705  1.00 18.61     0.274 HD
ATOM     41  HZ3 LYS B   1       5.942  13.981  10.776  1.00 18.61     0.274 HD
ENDBRANCH  37  38
ENDBRANCH  36  37
ENDBRANCH  35  36
ENDBRANCH  34  35
ENDBRANCH  29  34
ENDBRANCH  26  29
ENDBRANCH   1  25
TORSDOF 19
