REMARK  12 active torsions:
REMARK  status: ('A' for Active; 'I' for Inactive)
REMARK    1  A    between atoms: N_1  and  CA_2 
REMARK    2  A    between atoms: CA_2  and  C_3 
REMARK       I    between atoms: C_3  and  N_9 
REMARK    3  A    between atoms: N_9  and  CA_10 
REMARK    4  A    between atoms: CA_10  and  C_11 
REMARK    5  A    between atoms: CA_10  and  CB_13 
REMARK       I    between atoms: C_11  and  N_19 
REMARK    6  A    between atoms: CB_13  and  CG_14 
REMARK    7  A    between atoms: CG_14  and  CD_15 
REMARK    8  A    between atoms: N_19  and  CA_20 
REMARK    9  A    between atoms: CA_20  and  C_21 
REMARK       I    between atoms: C_21  and  N_25 
REMARK   10  A    between atoms: N_25  and  CA_26 
REMARK   11  A    between atoms: CA_26  and  C_27 
REMARK   12  A    between atoms: CA_26  and  CB_29 
ROOT
ATOM      1  CA  GLU F   2      22.122  44.623  -4.461  1.00 52.54     0.177 C 
ENDROOT
BRANCH   1   2
ATOM      2  N   GLU F   2      22.668  45.869  -4.984  1.00 44.23    -0.346 N 
ATOM      3  H   GLU F   2      23.392  46.126  -4.597  1.00 44.23     0.163 HD
ATOM      4  C   ALA F   1      22.084  46.538  -5.975  1.00 45.21     0.248 C 
ATOM      5  O   ALA F   1      21.133  46.102  -6.626  1.00 45.22    -0.271 OA
BRANCH   4   6
ATOM      6  CA  ALA F   1      22.661  47.903  -6.286  1.00 42.24     0.270 C 
ATOM      7  CB  ALA F   1      22.071  48.941  -5.352  1.00 40.09     0.050 C 
BRANCH   6   8
ATOM      8  N   ALA F   1      22.380  48.256  -7.698  1.00 42.78    -0.067 N 
ATOM      9  H3  ALA F   1      21.517  48.456  -7.788  1.00 42.78     0.275 HD
ATOM     10  H1  ALA F   1      22.873  48.959  -7.932  1.00 42.78     0.275 HD
ATOM     11  H2  ALA F   1      22.581  47.566  -8.222  1.00 42.78     0.275 HD
ENDBRANCH   6   8
ENDBRANCH   4   6
ENDBRANCH   1   2
BRANCH   1  12
ATOM     12  C   GLU F   2      22.170  44.598  -2.932  1.00 53.63     0.241 C 
ATOM     13  N   ALA F   3      21.212  43.893  -2.332  1.00 57.59    -0.346 N 
ATOM     14  H   ALA F   3      20.583  43.488  -2.756  1.00 57.59     0.163 HD
ATOM     15  O   GLU F   2      23.052  45.213  -2.317  1.00 45.91    -0.271 OA
BRANCH  13  16
ATOM     16  CA  ALA F   3      21.144  43.744  -0.880  1.00 61.34     0.172 C 
ATOM     17  CB  ALA F   3      19.855  43.048  -0.481  1.00 61.11     0.042 C 
BRANCH  16  18
ATOM     18  C   ALA F   3      22.351  42.970  -0.371  1.00 63.72     0.240 C 
ATOM     19  O   ALA F   3      22.946  42.185  -1.109  1.00 65.69    -0.271 OA
ATOM     20  N   VAL F   4      22.731  43.213   0.878  1.00 69.00    -0.347 N 
ATOM     21  H   VAL F   4      22.368  43.802   1.388  1.00 69.00     0.163 HD
BRANCH  20  22
ATOM     22  CA  VAL F   4      23.830  42.470   1.491  1.00 74.07     0.166 C 
BRANCH  22  23
ATOM     23  C   VAL F   4      23.301  41.202   2.174  1.00 77.88     0.219 C 
ATOM     24  O   VAL F   4      22.217  41.193   2.764  1.00 81.03    -0.287 OA
ENDBRANCH  22  23
BRANCH  22  25
ATOM     25  CB  VAL F   4      24.681  43.354   2.459  1.00 74.22     0.008 C 
ATOM     26  CG2 VAL F   4      25.952  42.623   2.907  1.00 73.71     0.012 C 
ATOM     27  CG1 VAL F   4      23.866  43.823   3.658  1.00 74.72     0.012 C 
ENDBRANCH  22  25
ENDBRANCH  20  22
ENDBRANCH  16  18
ENDBRANCH  13  16
ENDBRANCH   1  12
BRANCH   1  28
ATOM     28  CB  GLU F   2      22.848  43.407  -5.043  1.00 59.29     0.045 C 
BRANCH  28  29
ATOM     29  CG  GLU F   2      24.352  43.560  -5.166  1.00 68.31     0.116 C 
BRANCH  29  30
ATOM     30  CD  GLU F   2      25.105  42.388  -4.570  1.00 74.94     0.172 C 
ATOM     31  OE1 GLU F   2      25.269  42.355  -3.327  1.00 77.70    -0.648 OA
ATOM     32  OE2 GLU F   2      25.529  41.501  -5.349  1.00 77.31    -0.648 OA
ENDBRANCH  29  30
ENDBRANCH  28  29
ENDBRANCH   1  28
TORSDOF 12
