REMARK  20 active torsions:
REMARK  status: ('A' for Active; 'I' for Inactive)
REMARK    1  A    between atoms: N_1  and  CA_2 
REMARK    2  A    between atoms: CA_2  and  CB_5 
REMARK    3  A    between atoms: CA_2  and  C_3 
REMARK       I    between atoms: C_3  and  N_16 
REMARK    4  A    between atoms: CB_5  and  CG_6 
REMARK    5  A    between atoms: CG_6  and  CD_7 
REMARK    6  A    between atoms: CD_7  and  CE_8 
REMARK    7  A    between atoms: CE_8  and  NZ_9 
REMARK    8  A    between atoms: N_16  and  CA_17 
REMARK    9  A    between atoms: CA_17  and  C_18 
REMARK   10  A    between atoms: CA_17  and  CB_20 
REMARK       I    between atoms: C_18  and  N_33 
REMARK   11  A    between atoms: CB_20  and  CG_21 
REMARK   12  A    between atoms: CG_21  and  CD_22 
REMARK   13  A    between atoms: CD_22  and  NE_23 
REMARK       I    between atoms: NE_23  and  CZ_24 
REMARK       I    between atoms: CZ_24  and  NH1_25 
REMARK   14  A    between atoms: N_33  and  CA_34 
REMARK   15  A    between atoms: CA_34  and  CB_37 
REMARK   16  A    between atoms: CA_34  and  C_35 
REMARK   17  A    between atoms: CB_37  and  CG_38 
REMARK   18  A    between atoms: CG_38  and  CD_39 
REMARK   19  A    between atoms: CD_39  and  CE_40 
REMARK   20  A    between atoms: CE_40  and  NZ_41 
ROOT
ATOM      1  CA  ARG B   2       3.939  20.466  16.115  1.00 11.61     0.176 C 
ENDROOT
BRANCH   1   2
ATOM      2  C   ARG B   2       2.592  20.295  15.394  1.00 11.69     0.241 C 
ATOM      3  O   ARG B   2       2.503  20.564  14.182  1.00 13.49    -0.271 OA
ATOM      4  N   LYS B   3       1.585  20.024  16.215  1.00 11.79    -0.345 N 
ATOM      5  H   LYS B   3       1.676  19.880  17.058  1.00 11.79     0.163 HD
BRANCH   4   6
ATOM      6  CA  LYS B   3       0.213  19.948  15.733  1.00 12.23     0.185 C 
BRANCH   6   7
ATOM      7  CB  LYS B   3      -0.289  18.567  15.335  1.00 16.61     0.036 C 
BRANCH   7   8
ATOM      8  CG  LYS B   3      -1.371  18.778  14.231  1.00 15.25     0.004 C 
BRANCH   8   9
ATOM      9  CD  LYS B   3      -1.980  17.451  13.870  1.00 19.49     0.027 C 
BRANCH   9  10
ATOM     10  CE  LYS B   3      -3.085  17.494  12.850  1.00 20.50     0.229 C 
BRANCH  10  11
ATOM     11  NZ  LYS B   3      -3.927  18.703  12.775  1.00 17.12    -0.079 N 
ATOM     12  HZ3 LYS B   3      -3.538  19.304  12.246  1.00 17.12     0.274 HD
ATOM     13  HZ2 LYS B   3      -4.027  19.047  13.590  1.00 17.12     0.274 HD
ATOM     14  HZ1 LYS B   3      -4.725  18.489  12.444  1.00 17.12     0.274 HD
ENDBRANCH  10  11
ENDBRANCH   9  10
ENDBRANCH   8   9
ENDBRANCH   7   8
ENDBRANCH   6   7
BRANCH   6  15
ATOM     15  C   LYS B   3      -0.776  20.546  16.750  1.00 15.15     0.196 C 
ATOM     16  OXT LYS B   3      -0.409  21.394  17.591  1.00 13.10    -0.646 OA
ATOM     17  O   LYS B   3      -1.993  20.305  16.611  1.00 18.27    -0.646 OA
ENDBRANCH   6  15
ENDBRANCH   4   6
ENDBRANCH   1   2
BRANCH   1  18
ATOM     18  CB  ARG B   2       4.116  22.007  16.197  1.00  9.62     0.036 C 
BRANCH  18  19
ATOM     19  CG  ARG B   2       5.382  22.417  16.986  1.00 12.84     0.023 C 
BRANCH  19  20
ATOM     20  CD  ARG B   2       5.256  22.233  18.507  1.00 14.09     0.138 C 
BRANCH  20  21
ATOM     21  NE  ARG B   2       6.581  22.455  19.093  1.00 12.97    -0.227 N 
ATOM     22  CZ  ARG B   2       7.136  21.931  20.180  1.00 16.36     0.665 C 
ATOM     23  NH1 ARG B   2       6.464  21.097  20.956  1.00 13.20    -0.235 N 
ATOM     24  NH2 ARG B   2       8.412  22.223  20.485  1.00 14.54    -0.235 N 
ATOM     25 HH12 ARG B   2       6.837  20.766  21.656  1.00 13.20     0.174 HD
ATOM     26 HH11 ARG B   2       5.654  20.886  20.760  1.00 13.20     0.174 HD
ATOM     27 HH22 ARG B   2       8.774  21.885  21.188  1.00 14.54     0.174 HD
ATOM     28 HH21 ARG B   2       8.866  22.748  19.977  1.00 14.54     0.174 HD
ATOM     29  HE  ARG B   2       7.077  23.012  18.666  1.00 12.97     0.177 HD
ENDBRANCH  20  21
ENDBRANCH  19  20
ENDBRANCH  18  19
ENDBRANCH   1  18
BRANCH   1  30
ATOM     30  N   ARG B   2       5.026  19.801  15.463  1.00 10.63    -0.346 N 
ATOM     31  H   ARG B   2       5.582  20.346  15.097  1.00 10.63     0.163 HD
ATOM     32  C   LYS B   1       5.183  18.493  15.413  1.00 11.74     0.248 C 
ATOM     33  O   LYS B   1       4.446  17.690  16.010  1.00 12.52    -0.271 OA
BRANCH  32  34
ATOM     34  CA  LYS B   1       6.406  17.962  14.668  1.00  9.37     0.274 C 
BRANCH  34  35
ATOM     35  CB  LYS B   1       6.075  17.859  13.166  1.00 13.51     0.042 C 
BRANCH  35  36
ATOM     36  CG  LYS B   1       5.249  16.622  12.787  1.00 12.33     0.004 C 
BRANCH  36  37
ATOM     37  CD  LYS B   1       5.203  16.552  11.242  1.00 17.49     0.027 C 
BRANCH  37  38
ATOM     38  CE  LYS B   1       6.491  15.884  10.743  1.00 17.87     0.229 C 
BRANCH  38  39
ATOM     39  NZ  LYS B   1       6.439  14.420  11.012  1.00 17.55    -0.079 N 
ATOM     40  HZ1 LYS B   1       7.154  14.027  10.657  1.00 17.55     0.274 HD
ATOM     41  HZ2 LYS B   1       6.430  14.280  11.891  1.00 17.55     0.274 HD
ATOM     42  HZ3 LYS B   1       5.702  14.077  10.649  1.00 17.55     0.274 HD
ENDBRANCH  38  39
ENDBRANCH  37  38
ENDBRANCH  36  37
ENDBRANCH  35  36
ENDBRANCH  34  35
BRANCH  34  43
ATOM     43  N   LYS B   1       6.833  16.654  15.260  1.00  9.31    -0.067 N 
ATOM     44  H1  LYS B   1       7.405  16.252  14.710  1.00  9.31     0.275 HD
ATOM     45  H3  LYS B   1       6.120  16.134  15.378  1.00  9.31     0.275 HD
ATOM     46  H2  LYS B   1       7.227  16.798  16.045  1.00  9.31     0.275 HD
ENDBRANCH  34  43
ENDBRANCH  32  34
ENDBRANCH   1  30
TORSDOF 20
