REMARK  21 active torsions:
REMARK  status: ('A' for Active; 'I' for Inactive)
REMARK    1  A    between atoms: N_1  and  CA_2 
REMARK    2  A    between atoms: CA_2  and  C_3 
REMARK       I    between atoms: C_3  and  N_9 
REMARK    3  A    between atoms: N_9  and  CA_10 
REMARK    4  A    between atoms: CA_10  and  C_11 
REMARK    5  A    between atoms: CA_10  and  CB_13 
REMARK       I    between atoms: C_11  and  N_17 
REMARK    6  A    between atoms: N_17  and  CA_18 
REMARK    7  A    between atoms: CA_18  and  C_19 
REMARK       I    between atoms: C_19  and  N_23 
REMARK    8  A    between atoms: N_23  and  CA_24 
REMARK    9  A    between atoms: CA_24  and  CB_27 
REMARK   10  A    between atoms: CA_24  and  C_25 
REMARK       I    between atoms: C_25  and  N_35 
REMARK   11  A    between atoms: CB_27  and  CG_28 
REMARK   12  A    between atoms: N_35  and  CA_36 
REMARK   13  A    between atoms: CA_36  and  CB_39 
REMARK   14  A    between atoms: CA_36  and  C_37 
REMARK       I    between atoms: C_37  and  N_49 
REMARK   15  A    between atoms: CB_39  and  CG_40 
REMARK   16  A    between atoms: CZ_45  and  OH_46 
REMARK   17  A    between atoms: N_49  and  CA_50 
REMARK   18  A    between atoms: CA_50  and  CB_53 
REMARK   19  A    between atoms: CA_50  and  C_51 
REMARK       I    between atoms: C_51  and  N_58 
REMARK   20  A    between atoms: CB_53  and  CG1_54 
REMARK   21  A    between atoms: CA_59  and  C_60 
ROOT
ATOM      1  CA  PHE B   4      51.730  23.679  -1.321  1.00 44.68     0.180 C 
ENDROOT
BRANCH   1   2
ATOM      2  CB  PHE B   4      50.685  23.741  -0.203  1.00 43.52     0.073 C 
BRANCH   2   3
ATOM      3  CG  PHE B   4      51.273  23.589   1.169  1.00 43.42    -0.056 A 
ATOM      4  CD2 PHE B   4      51.191  22.375   1.843  1.00 43.71     0.007 A 
ATOM      5  CE2 PHE B   4      51.784  22.211   3.097  1.00 44.42     0.001 A 
ATOM      6  CZ  PHE B   4      52.465  23.277   3.685  1.00 44.23     0.000 A 
ATOM      7  CE1 PHE B   4      52.549  24.494   3.019  1.00 42.62     0.001 A 
ATOM      8  CD1 PHE B   4      51.954  24.644   1.768  1.00 43.35     0.007 A 
ENDBRANCH   2   3
ENDBRANCH   1   2
BRANCH   1   9
ATOM      9  C   PHE B   4      51.071  23.749  -2.692  1.00 47.70     0.241 C 
ATOM     10  O   PHE B   4      50.574  22.746  -3.203  1.00 47.98    -0.271 OA
ATOM     11  N   TYR B   5      51.086  24.939  -3.282  1.00 50.93    -0.346 N 
ATOM     12  H   TYR B   5      51.425  25.642  -2.921  1.00 50.93     0.163 HD
BRANCH  11  13
ATOM     13  CA  TYR B   5      50.523  25.167  -4.610  1.00 53.91     0.180 C 
BRANCH  13  14
ATOM     14  CB  TYR B   5      49.161  25.861  -4.519  1.00 56.99     0.073 C 
BRANCH  14  15
ATOM     15  CG  TYR B   5      48.550  26.196  -5.869  1.00 60.80    -0.056 A 
ATOM     16  CD2 TYR B   5      47.342  25.627  -6.270  1.00 62.97     0.010 A 
ATOM     17  CE2 TYR B   5      46.788  25.917  -7.519  1.00 63.70     0.037 A 
ATOM     18  CZ  TYR B   5      47.449  26.786  -8.376  1.00 64.21     0.065 A 
ATOM     19  CE1 TYR B   5      48.647  27.366  -7.998  1.00 63.24     0.037 A 
ATOM     20  CD1 TYR B   5      49.188  27.071  -6.753  1.00 61.93     0.010 A 
BRANCH  18  21
ATOM     21  OH  TYR B   5      46.921  27.064  -9.616  1.00 64.43    -0.361 OA
ATOM     22  HH  TYR B   5      46.198  26.647  -9.713  1.00 64.43     0.217 HD
ENDBRANCH  18  21
ENDBRANCH  14  15
ENDBRANCH  13  14
BRANCH  13  23
ATOM     23  C   TYR B   5      51.481  26.048  -5.398  1.00 54.78     0.241 C 
ATOM     24  N   ILE B   6      51.849  25.596  -6.593  1.00 56.06    -0.346 N 
ATOM     25  H   ILE B   6      51.581  24.850  -6.927  1.00 56.06     0.163 HD
ATOM     26  O   TYR B   5      51.873  27.118  -4.934  1.00 54.12    -0.271 OA
BRANCH  24  27
ATOM     27  CA  ILE B   6      52.758  26.347  -7.452  1.00 57.79     0.180 C 
BRANCH  27  28
ATOM     28  CB  ILE B   6      54.058  25.549  -7.719  1.00 57.25     0.013 C 
ATOM     29  CG2 ILE B   6      54.893  26.237  -8.783  1.00 56.12     0.012 C 
BRANCH  28  30
ATOM     30  CG1 ILE B   6      54.866  25.436  -6.425  1.00 57.80     0.002 C 
ATOM     31  CD1 ILE B   6      55.260  26.777  -5.851  1.00 58.80     0.005 C 
ENDBRANCH  28  30
ENDBRANCH  27  28
BRANCH  27  32
ATOM     32  C   ILE B   6      52.091  26.687  -8.783  1.00 59.33     0.243 C 
ATOM     33  O   ILE B   6      51.615  25.801  -9.500  1.00 59.66    -0.271 OA
ATOM     34  N   PRO B   7      52.043  27.984  -9.127  1.00 60.44    -0.338 N 
ATOM     35  CA  PRO B   7      51.436  28.462 -10.372  1.00 61.29     0.165 C 
ATOM     36  CD  PRO B   7      52.547  29.116  -8.329  1.00 60.37     0.127 C 
ATOM     37  CB  PRO B   7      51.843  29.930 -10.403  1.00 61.79     0.035 C 
ATOM     38  CG  PRO B   7      51.834  30.293  -8.956  1.00 60.72     0.022 C 
BRANCH  35  39
ATOM     39  C   PRO B   7      51.918  27.701 -11.607  1.00 62.02     0.219 C 
ATOM     40  O   PRO B   7      53.028  27.919 -12.086  1.00 61.64    -0.287 OA
ENDBRANCH  35  39
ENDBRANCH  27  32
ENDBRANCH  24  27
ENDBRANCH  13  23
ENDBRANCH  11  13
ENDBRANCH   1   9
BRANCH   1  41
ATOM     41  N   PHE B   4      52.691  24.757  -1.160  1.00 40.22    -0.346 N 
ATOM     42  H   PHE B   4      52.386  25.452  -0.756  1.00 40.22     0.163 HD
ATOM     43  C   ALA B   3      53.933  24.644  -1.613  1.00 36.80     0.240 C 
ATOM     44  O   ALA B   3      54.347  23.634  -2.177  1.00 35.05    -0.271 OA
BRANCH  43  45
ATOM     45  CA  ALA B   3      54.848  25.841  -1.389  1.00 35.42     0.172 C 
ATOM     46  CB  ALA B   3      55.440  26.297  -2.710  1.00 34.55     0.042 C 
BRANCH  45  47
ATOM     47  N   ALA B   3      55.905  25.432  -0.475  1.00 34.22    -0.346 N 
ATOM     48  C   VAL B   2      55.791  25.630   0.833  1.00 33.55     0.241 C 
ATOM     49  O   VAL B   2      54.815  26.182   1.340  1.00 34.35    -0.271 OA
ATOM     50  H   ALA B   3      56.584  25.064  -0.852  1.00 34.22     0.163 HD
BRANCH  48  51
ATOM     51  CA  VAL B   2      56.949  25.136   1.696  1.00 33.22     0.180 C 
BRANCH  51  52
ATOM     52  CB  VAL B   2      56.509  23.840   2.419  1.00 32.52     0.009 C 
ATOM     53  CG1 VAL B   2      55.912  22.851   1.426  1.00 33.02     0.012 C 
ATOM     54  CG2 VAL B   2      57.702  23.217   3.131  1.00 33.85     0.012 C 
ENDBRANCH  51  52
BRANCH  51  55
ATOM     55  N   VAL B   2      57.375  26.144   2.660  1.00 33.13    -0.346 N 
ATOM     56  H   VAL B   2      56.797  26.311   3.275  1.00 33.13     0.163 HD
ATOM     57  C   ALA B   1      58.558  26.741   2.577  1.00 33.26     0.248 C 
ATOM     58  O   ALA B   1      59.369  26.507   1.685  1.00 33.25    -0.271 OA
BRANCH  57  59
ATOM     59  CA  ALA B   1      58.878  27.765   3.658  1.00 31.51     0.270 C 
ATOM     60  CB  ALA B   1      57.986  28.995   3.504  1.00 29.23     0.050 C 
BRANCH  59  61
ATOM     61  N   ALA B   1      60.277  28.140   3.521  1.00 32.32    -0.067 N 
ATOM     62  H3  ALA B   1      60.390  28.595   2.765  1.00 32.32     0.275 HD
ATOM     63  H2  ALA B   1      60.781  27.407   3.503  1.00 32.32     0.275 HD
ATOM     64  H1  ALA B   1      60.517  28.648   4.211  1.00 32.32     0.275 HD
ENDBRANCH  59  61
ENDBRANCH  57  59
ENDBRANCH  51  55
ENDBRANCH  48  51
ENDBRANCH  45  47
ENDBRANCH  43  45
ENDBRANCH   1  41
TORSDOF 21
