REMARK  22 active torsions:
REMARK  status: ('A' for Active; 'I' for Inactive)
REMARK    1  A    between atoms: N_1  and  CA_2 
REMARK    2  A    between atoms: CA_2  and  C_3 
REMARK       I    between atoms: C_3  and  N_9 
REMARK    3  A    between atoms: N_9  and  CA_10 
REMARK    4  A    between atoms: CA_10  and  CB_13 
REMARK    5  A    between atoms: CA_10  and  C_11 
REMARK       I    between atoms: C_11  and  N_18 
REMARK    6  A    between atoms: CB_13  and  CG1_14 
REMARK    7  A    between atoms: N_18  and  CA_19 
REMARK    8  A    between atoms: CA_19  and  C_20 
REMARK       I    between atoms: C_20  and  N_24 
REMARK    9  A    between atoms: N_24  and  CA_25 
REMARK   10  A    between atoms: CA_25  and  CB_28 
REMARK   11  A    between atoms: CA_25  and  C_26 
REMARK       I    between atoms: C_26  and  N_38 
REMARK   12  A    between atoms: CB_28  and  CG_29 
REMARK   13  A    between atoms: CZ_34  and  OH_35 
REMARK   14  A    between atoms: N_38  and  CA_39 
REMARK   15  A    between atoms: CA_39  and  C_40 
REMARK   16  A    between atoms: CA_39  and  CB_42 
REMARK       I    between atoms: C_40  and  N_50 
REMARK   17  A    between atoms: CB_42  and  CG_43 
REMARK   18  A    between atoms: N_50  and  CA_51 
REMARK   19  A    between atoms: CA_51  and  CB_54 
REMARK   20  A    between atoms: CA_51  and  C_52 
REMARK       I    between atoms: C_52  and  N_59 
REMARK   21  A    between atoms: CB_54  and  CG1_55 
REMARK   22  A    between atoms: CA_60  and  C_61 
ROOT
ATOM      1  CA  TYR B   4      51.808  23.810  -0.238  1.00 23.69     0.180 C 
ENDROOT
BRANCH   1   2
ATOM      2  CB  TYR B   4      50.740  24.006   0.837  1.00 21.78     0.073 C 
BRANCH   2   3
ATOM      3  CG  TYR B   4      51.221  23.596   2.213  1.00 24.88    -0.056 A 
ATOM      4  CD2 TYR B   4      50.828  22.379   2.768  1.00 24.05     0.010 A 
ATOM      5  CE2 TYR B   4      51.295  21.967   4.013  1.00 20.83     0.037 A 
ATOM      6  CZ  TYR B   4      52.165  22.776   4.720  1.00 22.15     0.065 A 
ATOM      7  CE1 TYR B   4      52.573  23.999   4.196  1.00 19.14     0.037 A 
ATOM      8  CD1 TYR B   4      52.100  24.403   2.946  1.00 18.71     0.010 A 
BRANCH   6   9
ATOM      9  OH  TYR B   4      52.631  22.348   5.942  1.00 23.41    -0.361 OA
ATOM     10  HH  TYR B   4      53.165  22.917   6.253  1.00 23.41     0.217 HD
ENDBRANCH   6   9
ENDBRANCH   2   3
ENDBRANCH   1   2
BRANCH   1  11
ATOM     11  C   TYR B   4      51.198  23.798  -1.638  1.00 26.86     0.241 C 
ATOM     12  O   TYR B   4      50.533  22.840  -2.031  1.00 26.35    -0.271 OA
ATOM     13  N   PHE B   5      51.442  24.869  -2.387  1.00 27.52    -0.346 N 
ATOM     14  H   PHE B   5      51.890  25.550  -2.113  1.00 27.52     0.163 HD
BRANCH  13  15
ATOM     15  CA  PHE B   5      50.963  24.983  -3.762  1.00 31.98     0.180 C 
BRANCH  15  16
ATOM     16  C   PHE B   5      51.774  26.004  -4.548  1.00 33.78     0.241 C 
ATOM     17  N   ILE B   6      52.310  25.572  -5.684  1.00 31.71    -0.346 N 
ATOM     18  H   ILE B   6      52.223  24.770  -5.981  1.00 31.71     0.163 HD
ATOM     19  O   PHE B   5      51.915  27.157  -4.134  1.00 29.51    -0.271 OA
BRANCH  17  20
ATOM     20  CA  ILE B   6      53.105  26.445  -6.535  1.00 36.87     0.180 C 
BRANCH  20  21
ATOM     21  CB  ILE B   6      54.488  25.827  -6.821  1.00 37.14     0.013 C 
ATOM     22  CG2 ILE B   6      55.347  26.811  -7.596  1.00 36.45     0.012 C 
BRANCH  21  23
ATOM     23  CG1 ILE B   6      55.174  25.460  -5.502  1.00 37.87     0.002 C 
ATOM     24  CD1 ILE B   6      56.509  24.771  -5.670  1.00 36.09     0.005 C 
ENDBRANCH  21  23
ENDBRANCH  20  21
BRANCH  20  25
ATOM     25  C   ILE B   6      52.368  26.667  -7.856  1.00 41.32     0.243 C 
ATOM     26  O   ILE B   6      51.976  25.709  -8.525  1.00 41.04    -0.271 OA
ATOM     27  N   PRO B   7      52.165  27.939  -8.243  1.00 42.91    -0.338 N 
ATOM     28  CA  PRO B   7      51.470  28.280  -9.488  1.00 43.88     0.165 C 
ATOM     29  CD  PRO B   7      52.627  29.158  -7.553  1.00 40.67     0.127 C 
ATOM     30  CB  PRO B   7      51.805  29.757  -9.669  1.00 44.00     0.035 C 
ATOM     31  CG  PRO B   7      51.843  30.249  -8.258  1.00 40.06     0.022 C 
BRANCH  28  32
ATOM     32  C   PRO B   7      51.915  27.431 -10.677  1.00 46.53     0.219 C 
ATOM     33  O   PRO B   7      52.723  27.866 -11.498  1.00 48.18    -0.287 OA
ENDBRANCH  28  32
ENDBRANCH  20  25
ENDBRANCH  17  20
ENDBRANCH  15  16
BRANCH  15  34
ATOM     34  CB  PHE B   5      49.483  25.367  -3.807  1.00 34.18     0.073 C 
BRANCH  34  35
ATOM     35  CG  PHE B   5      48.971  25.622  -5.199  1.00 39.37    -0.056 A 
ATOM     36  CD2 PHE B   5      48.392  24.596  -5.942  1.00 41.89     0.007 A 
ATOM     37  CE2 PHE B   5      47.948  24.821  -7.248  1.00 44.83     0.001 A 
ATOM     38  CZ  PHE B   5      48.081  26.083  -7.821  1.00 42.42     0.000 A 
ATOM     39  CE1 PHE B   5      48.657  27.116  -7.087  1.00 44.61     0.001 A 
ATOM     40  CD1 PHE B   5      49.098  26.882  -5.782  1.00 43.39     0.007 A 
ENDBRANCH  34  35
ENDBRANCH  15  34
ENDBRANCH  13  15
ENDBRANCH   1  11
BRANCH   1  41
ATOM     41  N   TYR B   4      52.819  24.848  -0.139  1.00 19.41    -0.346 N 
ATOM     42  H   TYR B   4      52.582  25.546   0.304  1.00 19.41     0.163 HD
ATOM     43  C   ALA B   3      54.005  24.683  -0.707  1.00 19.00     0.240 C 
ATOM     44  O   ALA B   3      54.315  23.653  -1.306  1.00 18.56    -0.271 OA
BRANCH  43  45
ATOM     45  CA  ALA B   3      54.998  25.832  -0.561  1.00 21.06     0.172 C 
ATOM     46  CB  ALA B   3      55.584  26.193  -1.913  1.00 20.02     0.042 C 
BRANCH  45  47
ATOM     47  N   ALA B   3      56.055  25.421   0.349  1.00 19.71    -0.346 N 
ATOM     48  H   ALA B   3      56.732  25.052  -0.032  1.00 19.71     0.163 HD
ATOM     49  C   ILE B   2      55.951  25.615   1.657  1.00 19.11     0.241 C 
ATOM     50  O   ILE B   2      54.996  26.186   2.176  1.00 19.33    -0.271 OA
BRANCH  49  51
ATOM     51  CA  ILE B   2      57.109  25.110   2.503  1.00 18.55     0.180 C 
BRANCH  51  52
ATOM     52  CB  ILE B   2      56.701  23.784   3.179  1.00 21.29     0.013 C 
ATOM     53  CG2 ILE B   2      55.883  22.927   2.215  1.00 18.18     0.012 C 
BRANCH  52  54
ATOM     54  CG1 ILE B   2      57.952  23.035   3.646  1.00 26.11     0.002 C 
ATOM     55  CD1 ILE B   2      58.791  23.788   4.663  1.00 36.60     0.005 C 
ENDBRANCH  52  54
ENDBRANCH  51  52
BRANCH  51  56
ATOM     56  N   ILE B   2      57.475  26.105   3.497  1.00 18.11    -0.346 N 
ATOM     57  H   ILE B   2      56.856  26.280   4.067  1.00 18.11     0.163 HD
ATOM     58  C   ALA B   1      58.670  26.680   3.503  1.00 22.52     0.248 C 
ATOM     59  O   ALA B   1      59.550  26.411   2.687  1.00 25.87    -0.271 OA
BRANCH  58  60
ATOM     60  CA  ALA B   1      58.908  27.709   4.598  1.00 19.14     0.270 C 
ATOM     61  CB  ALA B   1      58.013  28.923   4.369  1.00 16.49     0.050 C 
BRANCH  60  62
ATOM     62  N   ALA B   1      60.307  28.109   4.601  1.00 20.16    -0.067 N 
ATOM     63  H3  ALA B   1      60.476  28.604   3.881  1.00 20.16     0.275 HD
ATOM     64  H2  ALA B   1      60.823  27.384   4.590  1.00 20.16     0.275 HD
ATOM     65  H1  ALA B   1      60.479  28.584   5.334  1.00 20.16     0.275 HD
ENDBRANCH  60  62
ENDBRANCH  58  60
ENDBRANCH  51  56
ENDBRANCH  49  51
ENDBRANCH  45  47
ENDBRANCH  43  45
ENDBRANCH   1  41
TORSDOF 22
