REMARK  22 active torsions:
REMARK  status: ('A' for Active; 'I' for Inactive)
REMARK    1  A    between atoms: CA_2  and  C_3 
REMARK       I    between atoms: C_3  and  N_10 
REMARK    2  A    between atoms: N_10  and  CA_11 
REMARK    3  A    between atoms: CA_11  and  C_12 
REMARK    4  A    between atoms: CA_11  and  CB_14 
REMARK       I    between atoms: C_12  and  N_22 
REMARK    5  A    between atoms: CB_14  and  CG_15 
REMARK    6  A    between atoms: CG_15  and  CD_16 
REMARK       I    between atoms: CD_16  and  NE2_18 
REMARK    7  A    between atoms: N_22  and  CA_23 
REMARK    8  A    between atoms: CA_23  and  C_24 
REMARK    9  A    between atoms: CA_23  and  CB_26 
REMARK       I    between atoms: C_24  and  N_34 
REMARK   10  A    between atoms: CB_26  and  CG_27 
REMARK   11  A    between atoms: N_34  and  CA_35 
REMARK   12  A    between atoms: CA_35  and  C_36 
REMARK   13  A    between atoms: CA_35  and  CB_38 
REMARK       I    between atoms: C_36  and  N_42 
REMARK   14  A    between atoms: CB_38  and  OG_39 
REMARK   15  A    between atoms: N_42  and  CA_43 
REMARK   16  A    between atoms: CA_43  and  CB_46 
REMARK   17  A    between atoms: CA_43  and  C_44 
REMARK       I    between atoms: C_44  and  N_51 
REMARK   18  A    between atoms: CB_46  and  CG_47 
REMARK   19  A    between atoms: N_51  and  CA_52 
REMARK   20  A    between atoms: CA_52  and  C_53 
REMARK   21  A    between atoms: CA_52  and  CB_55 
REMARK   22  A    between atoms: CB_55  and  CG_56 
ROOT
ATOM      1  C   PHE C   3      -0.407  14.667  33.527  1.00 30.25     0.241 C 
ATOM      2  O   PHE C   3      -0.695  15.514  32.669  1.00 30.55    -0.271 OA
ATOM      3  N   SER C   4       0.817  14.524  34.024  1.00 32.44    -0.344 N 
ATOM      4  H   SER C   4       1.044  13.902  34.573  1.00 32.44     0.163 HD
ENDROOT
BRANCH   1   5
ATOM      5  CA  PHE C   3      -1.440  13.703  34.086  1.00 26.21     0.180 C 
BRANCH   5   6
ATOM      6  N   PHE C   3      -2.539  14.360  34.766  1.00 23.98    -0.346 N 
ATOM      7  C   GLN C   2      -2.337  15.150  35.824  1.00 28.84     0.241 C 
ATOM      8  O   GLN C   2      -1.212  15.412  36.265  1.00 27.39    -0.271 OA
ATOM      9  H   PHE C   3      -3.314  14.196  34.430  1.00 23.98     0.163 HD
BRANCH   7  10
ATOM     10  CA  GLN C   2      -3.570  15.711  36.510  1.00 27.21     0.177 C 
BRANCH  10  11
ATOM     11  N   GLN C   2      -3.262  15.815  37.924  1.00 25.94    -0.346 N 
ATOM     12  C   PRO C   1      -3.155  14.717  38.673  1.00 31.50     0.249 C 
ATOM     13  O   PRO C   1      -3.317  13.558  38.224  1.00 24.91    -0.271 OA
ATOM     14  H   GLN C   2      -3.160  16.617  38.216  1.00 25.94     0.163 HD
BRANCH  12  15
ATOM     15  CA  PRO C   1      -2.787  14.947  40.138  1.00 31.39     0.277 C 
ATOM     16  CB  PRO C   1      -1.284  15.203  40.237  1.00 32.27     0.044 C 
ATOM     17  CG  PRO C   1      -0.874  14.298  41.445  1.00 38.02     0.030 C 
ATOM     18  CD  PRO C   1      -1.828  13.092  41.352  1.00 35.89     0.233 C 
ATOM     19  N   PRO C   1      -3.090  13.745  40.954  1.00 34.60    -0.062 N 
ATOM     20  H3  PRO C   1      -3.541  13.967  41.652  1.00 34.60     0.278 HD
ATOM     21  H2  PRO C   1      -3.577  13.197  40.504  1.00 34.60     0.278 HD
ENDBRANCH  12  15
ENDBRANCH  10  11
BRANCH  10  22
ATOM     22  CB  GLN C   2      -3.974  17.073  35.942  1.00 25.76     0.044 C 
BRANCH  22  23
ATOM     23  CG  GLN C   2      -5.340  17.574  36.461  1.00 26.20     0.105 C 
BRANCH  23  24
ATOM     24  CD  GLN C   2      -6.533  16.645  36.153  1.00 24.22     0.215 C 
ATOM     25  OE1 GLN C   2      -6.597  15.991  35.110  1.00 24.67    -0.274 OA
ATOM     26  NE2 GLN C   2      -7.484  16.616  37.064  1.00 25.16    -0.370 N 
ATOM     27 1HE2 GLN C   2      -7.407  17.085  37.781  1.00 25.16     0.159 HD
ATOM     28 2HE2 GLN C   2      -8.182  16.128  36.942  1.00 25.16     0.159 HD
ENDBRANCH  23  24
ENDBRANCH  22  23
ENDBRANCH  10  22
ENDBRANCH   7  10
ENDBRANCH   5   6
BRANCH   5  29
ATOM     29  CB  PHE C   3      -1.947  12.756  33.005  1.00 22.10     0.073 C 
BRANCH  29  30
ATOM     30  CG  PHE C   3      -0.953  11.678  32.640  1.00 24.32    -0.056 A 
ATOM     31  CD1 PHE C   3      -0.816  10.557  33.432  1.00 23.20     0.007 A 
ATOM     32  CE1 PHE C   3       0.163   9.576  33.132  1.00 24.47     0.001 A 
ATOM     33  CZ  PHE C   3       0.993   9.746  32.022  1.00 21.29     0.000 A 
ATOM     34  CE2 PHE C   3       0.854  10.866  31.223  1.00 28.99     0.001 A 
ATOM     35  CD2 PHE C   3      -0.111  11.821  31.531  1.00 24.32     0.007 A 
ENDBRANCH  29  30
ENDBRANCH   5  29
ENDBRANCH   1   5
BRANCH   3  36
ATOM     36  CA  SER C   4       1.897  15.437  33.664  1.00 37.32     0.200 C 
BRANCH  36  37
ATOM     37  C   SER C   4       3.150  14.907  32.970  1.00 37.03     0.243 C 
ATOM     38  O   SER C   4       4.127  15.647  32.841  1.00 37.42    -0.271 OA
ATOM     39  N   LEU C   5       3.146  13.666  32.509  1.00 32.57    -0.346 N 
ATOM     40  H   LEU C   5       2.471  13.133  32.531  1.00 32.57     0.163 HD
BRANCH  39  41
ATOM     41  CA  LEU C   5       4.354  13.120  31.910  1.00 32.69     0.177 C 
BRANCH  41  42
ATOM     42  CB  LEU C   5       4.398  11.604  32.156  1.00 33.51     0.038 C 
BRANCH  42  43
ATOM     43  CG  LEU C   5       4.351  11.192  33.632  1.00 35.50    -0.020 C 
ATOM     44  CD1 LEU C   5       4.323   9.668  33.733  1.00 40.78     0.009 C 
ATOM     45  CD2 LEU C   5       5.564  11.760  34.370  1.00 38.12     0.009 C 
ENDBRANCH  42  43
ENDBRANCH  41  42
BRANCH  41  46
ATOM     46  C   LEU C   5       4.672  13.392  30.444  1.00 34.97     0.241 C 
ATOM     47  O   LEU C   5       5.804  13.152  30.011  1.00 35.54    -0.271 OA
ATOM     48  N   TRP C   6       3.710  13.882  29.664  1.00 34.54    -0.347 N 
ATOM     49  H   TRP C   6       2.914  14.076  29.924  1.00 34.54     0.163 HD
BRANCH  48  50
ATOM     50  CA  TRP C   6       3.985  14.123  28.254  1.00 36.31     0.167 C 
BRANCH  50  51
ATOM     51  C   TRP C   6       3.944  15.612  27.916  1.00 42.43     0.219 C 
ATOM     52  O   TRP C   6       4.107  16.433  28.839  1.00 44.49    -0.287 OA
ENDBRANCH  50  51
BRANCH  50  53
ATOM     53  CB  TRP C   6       2.972  13.365  27.387  1.00 37.13     0.074 C 
BRANCH  53  54
ATOM     54  CG  TRP C   6       2.948  11.903  27.693  1.00 35.61    -0.028 A 
ATOM     55  CD2 TRP C   6       1.793  11.061  27.856  1.00 38.42    -0.002 A 
ATOM     56  CE2 TRP C   6       2.261   9.769  28.183  1.00 38.54     0.042 A 
ATOM     57  CE3 TRP C   6       0.408  11.274  27.759  1.00 40.05     0.014 A 
ATOM     58  CZ2 TRP C   6       1.390   8.683  28.421  1.00 36.38     0.030 A 
ATOM     59  NE1 TRP C   6       3.629   9.827  28.212  1.00 34.74    -0.365 N 
ATOM     60  CH2 TRP C   6       0.041   8.922  28.317  1.00 37.49     0.002 A 
ATOM     61  CZ3 TRP C   6      -0.456  10.197  27.989  1.00 37.02     0.001 A 
ATOM     62  CD1 TRP C   6       4.029  11.113  27.912  1.00 33.83     0.096 A 
ATOM     63  HE1 TRP C   6       4.154   9.169  28.389  1.00 34.74     0.165 HD
ENDBRANCH  53  54
ENDBRANCH  50  53
ENDBRANCH  48  50
ENDBRANCH  41  46
ENDBRANCH  39  41
ENDBRANCH  36  37
BRANCH  36  64
ATOM     64  CB  SER C   4       2.349  16.117  34.937  1.00 37.36     0.199 C 
BRANCH  64  65
ATOM     65  OG  SER C   4       2.853  15.124  35.813  1.00 45.19    -0.398 OA
ATOM     66  HG  SER C   4       3.110  15.484  36.527  1.00 45.19     0.209 HD
ENDBRANCH  64  65
ENDBRANCH  36  64
ENDBRANCH   3  36
TORSDOF 22
