REMARK  26 active torsions:
REMARK  status: ('A' for Active; 'I' for Inactive)
REMARK    1  A    between atoms: CA_2  and  CB_5 
REMARK    2  A    between atoms: CA_2  and  C_3 
REMARK       I    between atoms: C_3  and  N_11 
REMARK    3  A    between atoms: CB_5  and  CG_6 
REMARK       I    between atoms: CG_6  and  ND2_8 
REMARK    4  A    between atoms: N_11  and  CA_12 
REMARK    5  A    between atoms: CA_12  and  C_13 
REMARK    6  A    between atoms: CA_12  and  CB_15 
REMARK       I    between atoms: C_13  and  N_28 
REMARK    7  A    between atoms: CB_15  and  CG_16 
REMARK    8  A    between atoms: CG_16  and  CD_17 
REMARK    9  A    between atoms: CD_17  and  NE_18 
REMARK       I    between atoms: NE_18  and  CZ_19 
REMARK       I    between atoms: CZ_19  and  NH1_20 
REMARK   10  A    between atoms: CA_29  and  C_30 
REMARK       I    between atoms: C_30  and  N_35 
REMARK   11  A    between atoms: N_35  and  CA_36 
REMARK   12  A    between atoms: CA_36  and  C_37 
REMARK   13  A    between atoms: CA_36  and  CB_39 
REMARK       I    between atoms: C_37  and  N_44 
REMARK   14  A    between atoms: CB_39  and  CG1_40 
REMARK   15  A    between atoms: N_44  and  CA_45 
REMARK   16  A    between atoms: CA_45  and  C_46 
REMARK   17  A    between atoms: CA_45  and  CB_48 
REMARK       I    between atoms: C_46  and  N_53 
REMARK   18  A    between atoms: CB_48  and  CG_49 
REMARK   19  A    between atoms: N_53  and  CA_54 
REMARK   20  A    between atoms: CA_54  and  CB_57 
REMARK   21  A    between atoms: CA_54  and  C_55 
REMARK       I    between atoms: C_55  and  N_61 
REMARK   22  A    between atoms: CB_57  and  OG_58 
REMARK   23  A    between atoms: N_61  and  CA_62 
REMARK   24  A    between atoms: CA_62  and  C_63 
REMARK   25  A    between atoms: CA_62  and  CB_65 
REMARK   26  A    between atoms: CB_65  and  CG_66 
ROOT
ATOM      1  C   PRO C  36      45.675  57.209  12.410  1.00 34.41     0.241 C 
ATOM      2  O   PRO C  36      45.678  56.518  13.433  1.00 29.89    -0.271 OA
ATOM      3  N   ILE C  37      46.282  56.850  11.282  1.00 30.61    -0.346 N 
ATOM      4  H   ILE C  37      46.255  57.320  10.562  1.00 30.61     0.163 HD
ENDROOT
BRANCH   3   5
ATOM      5  CA  ILE C  37      47.055  55.622  11.153  1.00 31.48     0.180 C 
BRANCH   5   6
ATOM      6  C   ILE C  37      48.483  56.010  11.492  1.00 31.96     0.241 C 
ATOM      7  O   ILE C  37      49.101  56.811  10.789  1.00 31.93    -0.271 OA
ATOM      8  N   LEU C  38      49.009  55.433  12.565  1.00 30.89    -0.346 N 
ATOM      9  H   LEU C  38      48.606  54.842  13.043  1.00 30.89     0.163 HD
BRANCH   8  10
ATOM     10  CA  LEU C  38      50.348  55.773  13.021  1.00 34.88     0.177 C 
BRANCH  10  11
ATOM     11  C   LEU C  38      51.506  54.960  12.454  1.00 39.33     0.241 C 
ATOM     12  O   LEU C  38      51.473  53.730  12.435  1.00 37.11    -0.271 OA
ATOM     13  N   SER C  39      52.529  55.672  11.990  1.00 40.29    -0.344 N 
ATOM     14  H   SER C  39      52.540  56.532  11.973  1.00 40.29     0.163 HD
BRANCH  13  15
ATOM     15  CA  SER C  39      53.738  55.052  11.462  1.00 42.99     0.200 C 
BRANCH  15  16
ATOM     16  CB  SER C  39      54.195  55.745  10.173  1.00 41.70     0.199 C 
BRANCH  16  17
ATOM     17  OG  SER C  39      53.267  55.554   9.118  1.00 43.46    -0.398 OA
ATOM     18  HG  SER C  39      53.374  54.790   8.785  1.00 43.46     0.209 HD
ENDBRANCH  16  17
ENDBRANCH  15  16
BRANCH  15  19
ATOM     19  C   SER C  39      54.784  55.257  12.553  1.00 43.99     0.243 C 
ATOM     20  N   LEU C  40      55.919  54.574  12.444  1.00 44.48    -0.345 N 
ATOM     21  H   LEU C  40      56.096  54.029  11.802  1.00 44.48     0.163 HD
ATOM     22  O   SER C  39      54.557  56.028  13.486  1.00 44.86    -0.271 OA
BRANCH  20  23
ATOM     23  CA  LEU C  40      56.976  54.707  13.439  1.00 50.99     0.185 C 
BRANCH  23  24
ATOM     24  C   LEU C  40      58.278  55.167  12.784  1.00 53.79     0.196 C 
ATOM     25  O   LEU C  40      58.411  54.990  11.553  1.00 58.34    -0.646 OA
ATOM     26  OXT LEU C  40      59.153  55.689  13.506  1.00 54.01    -0.646 OA
ENDBRANCH  23  24
BRANCH  23  27
ATOM     27  CB  LEU C  40      57.189  53.366  14.148  1.00 48.71     0.040 C 
BRANCH  27  28
ATOM     28  CG  LEU C  40      58.168  53.303  15.321  1.00 48.98    -0.020 C 
ATOM     29  CD2 LEU C  40      58.264  51.871  15.809  1.00 51.62     0.009 C 
ATOM     30  CD1 LEU C  40      57.697  54.213  16.446  1.00 51.55     0.009 C 
ENDBRANCH  27  28
ENDBRANCH  23  27
ENDBRANCH  20  23
ENDBRANCH  15  19
ENDBRANCH  13  15
ENDBRANCH  10  11
BRANCH  10  31
ATOM     31  CB  LEU C  38      50.390  55.705  14.545  1.00 30.69     0.038 C 
BRANCH  31  32
ATOM     32  CG  LEU C  38      49.310  56.507  15.274  1.00 36.50    -0.020 C 
ATOM     33  CD2 LEU C  38      49.454  57.992  14.947  1.00 35.12     0.009 C 
ATOM     34  CD1 LEU C  38      49.432  56.270  16.774  1.00 37.99     0.009 C 
ENDBRANCH  31  32
ENDBRANCH  10  31
ENDBRANCH   8  10
ENDBRANCH   5   6
BRANCH   5  35
ATOM     35  CB  ILE C  37      47.006  55.090   9.714  1.00 37.32     0.013 C 
ATOM     36  CG2 ILE C  37      47.885  53.855   9.588  1.00 35.15     0.012 C 
BRANCH  35  37
ATOM     37  CG1 ILE C  37      45.557  54.786   9.332  1.00 33.54     0.002 C 
ATOM     38  CD1 ILE C  37      45.369  54.452   7.870  1.00 46.98     0.005 C 
ENDBRANCH  35  37
ENDBRANCH   5  35
ENDBRANCH   3   5
BRANCH   1  39
ATOM     39  CA  PRO C  36      44.941  58.548  12.362  1.00 32.35     0.179 C 
ATOM     40  CB  PRO C  36      45.790  59.695  12.913  1.00 32.18     0.037 C 
ATOM     41  CG  PRO C  36      45.366  59.774  14.348  1.00 32.63     0.022 C 
ATOM     42  CD  PRO C  36      43.868  59.591  14.270  1.00 32.64     0.127 C 
ATOM     43  N   PRO C  36      43.731  58.603  13.186  1.00 32.06    -0.337 N 
ATOM     44  C   ARG C  35      42.675  57.845  12.871  1.00 32.74     0.243 C 
ATOM     45  O   ARG C  35      42.682  57.098  11.895  1.00 32.93    -0.271 OA
BRANCH  44  46
ATOM     46  CA  ARG C  35      41.448  57.947  13.766  1.00 37.56     0.176 C 
BRANCH  46  47
ATOM     47  CB  ARG C  35      41.606  57.029  14.978  1.00 40.42     0.036 C 
BRANCH  47  48
ATOM     48  CG  ARG C  35      41.801  55.580  14.617  1.00 36.41     0.023 C 
BRANCH  48  49
ATOM     49  CD  ARG C  35      41.793  54.693  15.850  1.00 39.80     0.138 C 
BRANCH  49  50
ATOM     50  NE  ARG C  35      41.947  53.289  15.482  1.00 32.60    -0.227 N 
ATOM     51  HE  ARG C  35      42.026  53.101  14.647  1.00 32.60     0.177 HD
ATOM     52  CZ  ARG C  35      41.974  52.282  16.348  1.00 32.33     0.665 C 
ATOM     53  NH2 ARG C  35      41.859  52.517  17.647  1.00 28.83    -0.235 N 
ATOM     54  NH1 ARG C  35      42.118  51.039  15.909  1.00 30.81    -0.235 N 
ATOM     55 HH22 ARG C  35      41.877  51.863  18.205  1.00 28.83     0.174 HD
ATOM     56 HH21 ARG C  35      41.767  53.323  17.932  1.00 28.83     0.174 HD
ATOM     57 HH11 ARG C  35      42.194  50.887  15.066  1.00 30.81     0.174 HD
ATOM     58 HH12 ARG C  35      42.136  50.385  16.467  1.00 30.81     0.174 HD
ENDBRANCH  49  50
ENDBRANCH  48  49
ENDBRANCH  47  48
ENDBRANCH  46  47
BRANCH  46  59
ATOM     59  N   ARG C  35      40.283  57.560  12.985  1.00 36.73    -0.346 N 
ATOM     60  C   ASN C  34      39.783  58.380  12.067  1.00 40.82     0.258 C 
ATOM     61  O   ASN C  34      40.261  59.490  11.837  1.00 33.40    -0.271 OA
ATOM     62  H   ARG C  35      39.965  56.782  13.169  1.00 36.73     0.163 HD
BRANCH  60  63
ATOM     63  CA  ASN C  34      38.570  57.878  11.293  1.00 41.08     0.408 C 
ATOM     64  N   ASN C  34      37.560  58.967  11.171  1.00 44.32     0.615 N 
BRANCH  63  65
ATOM     65  CB  ASN C  34      39.025  57.408   9.907  1.00 43.19     0.153 C 
BRANCH  65  66
ATOM     66  CG  ASN C  34      37.863  57.043   8.993  1.00 48.82     0.218 C 
ATOM     67  ND2 ASN C  34      36.640  57.312   9.442  1.00 46.77    -0.370 N 
ATOM     68 1HD2 ASN C  34      35.954  57.127   8.958  1.00 46.77     0.159 HD
ATOM     69 2HD2 ASN C  34      36.536  57.670  10.217  1.00 46.77     0.159 HD
ATOM     70  OD1 ASN C  34      38.068  56.531   7.893  1.00 54.33    -0.274 OA
ENDBRANCH  65  66
ENDBRANCH  63  65
ENDBRANCH  60  63
ENDBRANCH  46  59
ENDBRANCH  44  46
ENDBRANCH   1  39
TORSDOF 26
