REMARK  23 active torsions:
REMARK  status: ('A' for Active; 'I' for Inactive)
REMARK    1  A    between atoms: CA_2  and  C_3 
REMARK    2  A    between atoms: CA_2  and  CB_5 
REMARK       I    between atoms: C_3  and  N_11 
REMARK    3  A    between atoms: CB_5  and  CG_6 
REMARK       I    between atoms: CG_6  and  ND2_8 
REMARK    4  A    between atoms: N_11  and  CA_12 
REMARK    5  A    between atoms: CA_12  and  CB_15 
REMARK    6  A    between atoms: CA_12  and  C_13 
REMARK       I    between atoms: C_13  and  N_21 
REMARK    7  A    between atoms: CB_15  and  CG_16 
REMARK    8  A    between atoms: CG_16  and  CD_17 
REMARK    9  A    between atoms: N_21  and  CA_22 
REMARK   10  A    between atoms: CA_22  and  CB_25 
REMARK   11  A    between atoms: CA_22  and  C_23 
REMARK       I    between atoms: C_23  and  N_35 
REMARK   12  A    between atoms: CB_25  and  CG_26 
REMARK   13  A    between atoms: CZ_31  and  OH_32 
REMARK   14  A    between atoms: N_35  and  CA_36 
REMARK   15  A    between atoms: CA_36  and  CB_39 
REMARK   16  A    between atoms: CA_36  and  C_37 
REMARK       I    between atoms: C_37  and  N_48 
REMARK   17  A    between atoms: CB_39  and  CG_40 
REMARK   18  A    between atoms: CG_40  and  CD_41 
REMARK   19  A    between atoms: CD_41  and  CE_42 
REMARK   20  A    between atoms: CE_42  and  NZ_43 
REMARK   21  A    between atoms: N_48  and  CA_49 
REMARK   22  A    between atoms: CA_49  and  C_50 
REMARK   23  A    between atoms: CA_49  and  CB_52 
ROOT
ATOM      1  CA  TYR S   4       8.592 -18.125  40.932  1.00 28.42     0.180 C 
ENDROOT
BRANCH   1   2
ATOM      2  N   TYR S   4       8.103 -17.787  39.608  1.00 30.10    -0.346 N 
ATOM      3  H   TYR S   4       7.936 -16.950  39.506  1.00 30.10     0.163 HD
ATOM      4  C   GLU S   3       7.929 -18.681  38.645  1.00 31.33     0.241 C 
ATOM      5  O   GLU S   3       8.099 -19.894  38.805  1.00 31.71    -0.271 OA
BRANCH   4   6
ATOM      6  CA  GLU S   3       7.508 -18.117  37.302  1.00 32.63     0.177 C 
BRANCH   6   7
ATOM      7  N   GLU S   3       7.875 -19.061  36.234  1.00 32.63    -0.346 N 
ATOM      8  C   ASN S   2       8.971 -18.878  35.525  1.00 33.77     0.258 C 
ATOM      9  O   ASN S   2       9.654 -17.869  35.616  1.00 34.52    -0.271 OA
ATOM     10  H   GLU S   3       7.327 -19.715  36.124  1.00 32.63     0.163 HD
BRANCH   8  11
ATOM     11  CA  ASN S   2       9.368 -20.015  34.576  1.00 34.66     0.408 C 
ATOM     12  N   ASN S   2       9.783 -19.492  33.233  1.00 35.02     0.615 N 
BRANCH  11  13
ATOM     13  CB  ASN S   2      10.492 -20.827  35.248  1.00 35.18     0.153 C 
BRANCH  13  14
ATOM     14  CG  ASN S   2      10.995 -21.984  34.381  1.00 37.91     0.218 C 
ATOM     15  OD1 ASN S   2      10.201 -22.749  33.828  1.00 41.54    -0.274 OA
ATOM     16  ND2 ASN S   2      12.321 -22.100  34.251  1.00 40.23    -0.370 N 
ATOM     17 2HD2 ASN S   2      12.842 -21.547  34.653  1.00 40.23     0.159 HD
ATOM     18 1HD2 ASN S   2      12.652 -22.728  33.766  1.00 40.23     0.159 HD
ENDBRANCH  13  14
ENDBRANCH  11  13
ENDBRANCH   8  11
ENDBRANCH   6   7
BRANCH   6  19
ATOM     19  CB  GLU S   3       6.017 -17.797  37.271  1.00 32.72     0.045 C 
BRANCH  19  20
ATOM     20  CG  GLU S   3       5.066 -18.954  37.566  1.00 35.99     0.116 C 
BRANCH  20  21
ATOM     21  CD  GLU S   3       3.607 -18.633  37.247  1.00 39.18     0.172 C 
ATOM     22  OE1 GLU S   3       2.728 -19.307  37.830  1.00 41.46    -0.648 OA
ATOM     23  OE2 GLU S   3       3.331 -17.706  36.426  1.00 41.34    -0.648 OA
ENDBRANCH  20  21
ENDBRANCH  19  20
ENDBRANCH   6  19
ENDBRANCH   4   6
ENDBRANCH   1   2
BRANCH   1  24
ATOM     24  CB  TYR S   4       9.857 -17.333  41.203  1.00 28.42     0.073 C 
BRANCH  24  25
ATOM     25  CG  TYR S   4      11.063 -17.904  40.517  1.00 29.89    -0.056 A 
ATOM     26  CD2 TYR S   4      11.271 -17.728  39.140  1.00 30.34     0.010 A 
ATOM     27  CE2 TYR S   4      12.407 -18.289  38.516  1.00 32.01     0.037 A 
ATOM     28  CZ  TYR S   4      13.317 -19.009  39.283  1.00 31.83     0.065 A 
ATOM     29  CE1 TYR S   4      13.108 -19.184  40.622  1.00 31.31     0.037 A 
ATOM     30  CD1 TYR S   4      11.996 -18.634  41.231  1.00 30.54     0.010 A 
BRANCH  28  31
ATOM     31  OH  TYR S   4      14.431 -19.617  38.735  1.00 36.86    -0.361 OA
ATOM     32  HH  TYR S   4      14.798 -20.104  39.313  1.00 36.86     0.217 HD
ENDBRANCH  28  31
ENDBRANCH  24  25
ENDBRANCH   1  24
BRANCH   1  33
ATOM     33  C   TYR S   4       7.499 -17.820  41.945  1.00 27.93     0.241 C 
ATOM     34  N   LYS S   5       7.135 -18.824  42.730  1.00 28.19    -0.346 N 
ATOM     35  H   LYS S   5       7.483 -19.609  42.678  1.00 28.19     0.163 HD
ATOM     36  O   TYR S   4       6.947 -16.721  41.962  1.00 25.57    -0.271 OA
BRANCH  34  37
ATOM     37  CA  LYS S   5       6.109 -18.709  43.763  1.00 28.81     0.176 C 
BRANCH  37  38
ATOM     38  CB  LYS S   5       5.153 -19.912  43.717  1.00 29.54     0.035 C 
BRANCH  38  39
ATOM     39  CG  LYS S   5       4.127 -19.990  44.862  1.00 33.24     0.004 C 
BRANCH  39  40
ATOM     40  CD  LYS S   5       2.979 -20.936  44.548  1.00 37.34     0.027 C 
BRANCH  40  41
ATOM     41  CE  LYS S   5       1.940 -20.901  45.673  1.00 39.48     0.229 C 
BRANCH  41  42
ATOM     42  NZ  LYS S   5       2.552 -21.243  46.983  1.00 41.40    -0.079 N 
ATOM     43  HZ2 LYS S   5       3.081 -21.952  46.888  1.00 41.40     0.274 HD
ATOM     44  HZ1 LYS S   5       1.910 -21.429  47.571  1.00 41.40     0.274 HD
ATOM     45  HZ3 LYS S   5       3.032 -20.553  47.276  1.00 41.40     0.274 HD
ENDBRANCH  41  42
ENDBRANCH  40  41
ENDBRANCH  39  40
ENDBRANCH  38  39
ENDBRANCH  37  38
BRANCH  37  46
ATOM     46  C   LYS S   5       6.824 -18.622  45.101  1.00 28.43     0.241 C 
ATOM     47  N   VAL S   6       6.623 -17.524  45.810  1.00 27.37    -0.344 N 
ATOM     48  H   VAL S   6       6.046 -16.922  45.599  1.00 27.37     0.163 HD
ATOM     49  O   LYS S   5       7.555 -19.524  45.488  1.00 28.58    -0.271 OA
BRANCH  47  50
ATOM     50  CA  VAL S   6       7.361 -17.232  47.016  1.00 26.91     0.189 C 
BRANCH  50  51
ATOM     51  C   VAL S   6       6.464 -16.699  48.144  1.00 27.47     0.197 C 
ATOM     52  O   VAL S   6       5.225 -16.613  48.059  1.00 25.37    -0.646 OA
ATOM     53  OXT VAL S   6       7.059 -16.386  49.175  1.00 29.74    -0.646 OA
ENDBRANCH  50  51
BRANCH  50  54
ATOM     54  CB  VAL S   6       8.521 -16.244  46.741  1.00 26.80     0.010 C 
ATOM     55  CG2 VAL S   6       7.992 -14.870  46.291  1.00 26.48     0.012 C 
ATOM     56  CG1 VAL S   6       9.473 -16.806  45.695  1.00 26.60     0.012 C 
ENDBRANCH  50  54
ENDBRANCH  47  50
ENDBRANCH  37  46
ENDBRANCH  34  37
ENDBRANCH   1  33
TORSDOF 23
