REMARK  21 active torsions:
REMARK  status: ('A' for Active; 'I' for Inactive)
REMARK    1  A    between atoms: CA_2  and  C_3 
REMARK    2  A    between atoms: CA_2  and  CB_5 
REMARK       I    between atoms: C_3  and  N_8 
REMARK    3  A    between atoms: CB_5  and  OG_6 
REMARK    4  A    between atoms: N_8  and  CA_9 
REMARK    5  A    between atoms: CA_9  and  CB_12 
REMARK    6  A    between atoms: CA_9  and  C_10 
REMARK       I    between atoms: C_10  and  N_19 
REMARK    7  A    between atoms: CB_12  and  CG_13 
REMARK    8  A    between atoms: CA_20  and  C_21 
REMARK       I    between atoms: C_21  and  N_26 
REMARK    9  A    between atoms: N_26  and  CA_27 
REMARK   10  A    between atoms: CA_27  and  CB_30 
REMARK   11  A    between atoms: CA_27  and  C_28 
REMARK       I    between atoms: C_28  and  N_38 
REMARK   12  A    between atoms: CB_30  and  CG_31 
REMARK   13  A    between atoms: CG_31  and  CD_32 
REMARK       I    between atoms: CD_32  and  NE2_34 
REMARK   14  A    between atoms: N_38  and  CA_39 
REMARK   15  A    between atoms: CA_39  and  C_40 
REMARK   16  A    between atoms: CA_39  and  CB_42 
REMARK       I    between atoms: C_40  and  N_49 
REMARK   17  A    between atoms: CB_42  and  CG_43 
REMARK       I    between atoms: CG_43  and  ND2_45 
REMARK   18  A    between atoms: N_49  and  CA_50 
REMARK   19  A    between atoms: CA_50  and  C_51 
REMARK   20  A    between atoms: CA_50  and  CB_53 
REMARK   21  A    between atoms: CB_53  and  OG1_54 
ROOT
ATOM      1  CA  GLN M   5      34.241  14.292  -6.989  1.00 40.28     0.177 C 
ENDROOT
BRANCH   1   2
ATOM      2  N   GLN M   5      33.731  14.938  -8.174  1.00 45.46    -0.346 N 
ATOM      3  H   GLN M   5      33.098  14.523  -8.582  1.00 45.46     0.163 HD
ATOM      4  C   PRO M   4      34.261  16.109  -8.552  1.00 50.59     0.241 C 
ATOM      5  O   PRO M   4      35.119  16.663  -7.845  1.00 50.33    -0.271 OA
BRANCH   4   6
ATOM      6  CA  PRO M   4      33.785  16.778  -9.839  1.00 53.72     0.179 C 
ATOM      7  N   PRO M   4      32.836  16.035 -10.672  1.00 55.45    -0.337 N 
ATOM      8  CD  PRO M   4      31.652  16.865 -10.924  1.00 56.03     0.127 C 
ATOM      9  C   HIS M   3      33.116  14.863 -11.285  1.00 54.96     0.243 C 
ATOM     10  CG  PRO M   4      31.619  17.765  -9.715  1.00 55.72     0.022 C 
ATOM     11  CB  PRO M   4      33.083  18.111  -9.595  1.00 52.77     0.037 C 
ATOM     12  O   HIS M   3      34.249  14.360 -11.246  1.00 54.31    -0.271 OA
BRANCH   9  13
ATOM     13  CA  HIS M   3      32.020  14.115 -12.049  1.00 53.95     0.182 C 
BRANCH  13  14
ATOM     14  N   HIS M   3      32.618  13.584 -13.259  1.00 55.94    -0.345 N 
ATOM     15  C   SER M   2      32.083  13.831 -14.449  0.19 53.43     0.259 C 
ATOM     16  O   SER M   2      30.985  14.389 -14.580  0.19 53.78    -0.271 OA
ATOM     17  H   HIS M   3      33.326  13.112 -13.134  1.00 55.94     0.163 HD
BRANCH  15  18
ATOM     18  CA  SER M   2      32.796  13.361 -15.708  0.19 52.30     0.423 C 
ATOM     19  N   SER M   2      31.727  13.271 -16.674  0.19 52.36     0.617 N 
BRANCH  18  20
ATOM     20  CB  SER M   2      33.789  14.395 -16.225  0.19 51.64     0.215 C 
BRANCH  20  21
ATOM     21  OG  SER M   2      33.083  15.289 -17.089  0.19 50.47    -0.398 OA
ATOM     22  HG  SER M   2      32.391  14.911 -17.379  0.19 50.47     0.209 HD
ENDBRANCH  20  21
ENDBRANCH  18  20
ENDBRANCH  15  18
ENDBRANCH  13  14
BRANCH  13  23
ATOM     23  CB  HIS M   3      31.468  12.993 -11.177  1.00 50.96     0.095 C 
BRANCH  23  24
ATOM     24  CG  HIS M   3      30.651  13.583 -10.038  1.00 47.24     0.056 A 
ATOM     25  CD2 HIS M   3      29.337  13.948 -10.106  1.00 45.19     0.145 A 
ATOM     26  NE2 HIS M   3      29.157  14.478  -8.932  1.00 45.41    -0.252 NA
ATOM     27  CE1 HIS M   3      30.266  14.433  -8.219  1.00 46.27     0.232 A 
ATOM     28  ND1 HIS M   3      31.236  13.869  -8.896  1.00 45.18    -0.245 NA
ENDBRANCH  23  24
ENDBRANCH  13  23
ENDBRANCH   9  13
ENDBRANCH   4   6
ENDBRANCH   1   2
BRANCH   1  29
ATOM     29  CB  GLN M   5      33.490  13.030  -6.671  1.00 37.25     0.044 C 
BRANCH  29  30
ATOM     30  CG  GLN M   5      34.084  12.331  -5.445  1.00 28.05     0.105 C 
BRANCH  30  31
ATOM     31  CD  GLN M   5      33.094  11.384  -4.811  1.00 28.89     0.215 C 
ATOM     32  NE2 GLN M   5      33.591  10.317  -4.186  1.00 21.10    -0.370 N 
ATOM     33 2HE2 GLN M   5      33.062   9.764  -3.794  1.00 21.10     0.159 HD
ATOM     34 1HE2 GLN M   5      34.440  10.182  -4.175  1.00 21.10     0.159 HD
ATOM     35  OE1 GLN M   5      31.881  11.624  -4.856  1.00 23.17    -0.274 OA
ENDBRANCH  30  31
ENDBRANCH  29  30
ENDBRANCH   1  29
BRANCH   1  36
ATOM     36  C   GLN M   5      35.685  13.929  -7.232  1.00 41.58     0.241 C 
ATOM     37  N   ASN M   6      35.993  13.238  -8.330  1.00 44.37    -0.346 N 
ATOM     38  H   ASN M   6      35.429  13.026  -8.944  1.00 44.37     0.163 HD
ATOM     39  O   GLN M   5      36.533  14.273  -6.414  1.00 41.62    -0.271 OA
BRANCH  37  40
ATOM     40  CA  ASN M   6      37.355  12.781  -8.568  1.00 43.99     0.185 C 
BRANCH  40  41
ATOM     41  C   ASN M   6      37.768  13.152  -9.974  1.00 43.58     0.241 C 
ATOM     42  N   THR M   7      38.963  12.703 -10.332  0.00 42.61    -0.343 N 
ATOM     43  H   THR M   7      39.460  12.236  -9.808  0.00 42.61     0.163 HD
ATOM     44  O   ASN M   6      37.020  13.838 -10.675  1.00 43.76    -0.271 OA
BRANCH  42  45
ATOM     45  CA  THR M   7      39.559  12.940 -11.619  0.00 41.90     0.214 C 
BRANCH  45  46
ATOM     46  C   THR M   7      39.627  11.599 -12.363  0.00 41.61     0.199 C 
ATOM     47  O   THR M   7      39.470  10.538 -11.751  0.00 41.59    -0.646 OA
ATOM     48  OXT THR M   7      39.840  11.613 -13.570  0.00 41.57    -0.646 OA
ENDBRANCH  45  46
BRANCH  45  49
ATOM     49  CB  THR M   7      40.960  13.572 -11.361  0.00 41.89     0.147 C 
ATOM     50  CG2 THR M   7      41.977  12.609 -10.744  0.00 41.51     0.042 C 
BRANCH  49  51
ATOM     51  OG1 THR M   7      41.426  14.032 -12.623  0.00 41.42    -0.393 OA
ATOM     52  HG1 THR M   7      42.183  14.384 -12.531  0.00 41.42     0.210 HD
ENDBRANCH  49  51
ENDBRANCH  45  49
ENDBRANCH  42  45
ENDBRANCH  40  41
BRANCH  40  53
ATOM     53  CB  ASN M   6      37.451  11.259  -8.374  1.00 43.29     0.137 C 
BRANCH  53  54
ATOM     54  CG  ASN M   6      37.407  10.736  -6.927  1.00 43.53     0.217 C 
ATOM     55  OD1 ASN M   6      38.226  11.038  -6.057  1.00 39.33    -0.274 OA
ATOM     56  ND2 ASN M   6      36.471   9.873  -6.560  1.00 45.48    -0.370 N 
ATOM     57 2HD2 ASN M   6      35.871   9.624  -7.124  1.00 45.48     0.159 HD
ATOM     58 1HD2 ASN M   6      36.463   9.562  -5.758  1.00 45.48     0.159 HD
ENDBRANCH  53  54
ENDBRANCH  40  53
ENDBRANCH  37  40
ENDBRANCH   1  36
TORSDOF 21
