REMARK  9 active torsions:
REMARK  status: ('A' for Active; 'I' for Inactive)
REMARK    1  A    between atoms: N_1  and  CA_2 
REMARK    2  A    between atoms: CA_2  and  CB_5 
REMARK    3  A    between atoms: CA_2  and  C_3 
REMARK       I    between atoms: C_3  and  N_12 
REMARK    4  A    between atoms: CB_5  and  CG1_6 
REMARK    5  A    between atoms: CA_13  and  C_14 
REMARK       I    between atoms: C_14  and  N_19 
REMARK    6  A    between atoms: N_19  and  CA_20 
REMARK    7  A    between atoms: CA_20  and  C_21 
REMARK    8  A    between atoms: CA_20  and  CB_23 
REMARK    9  A    between atoms: CB_23  and  CG1_24 
ROOT
ATOM      1  C   ILE C   1      56.535  63.617  35.704  1.00 27.75     0.251 C 
ATOM      2  O   ILE C   1      56.943  62.568  35.199  1.00 26.33    -0.271 OA
ATOM      3  N   PRO C   2      56.915  64.012  36.924  1.00 28.60    -0.337 N 
ATOM      4  CA  PRO C   2      57.812  63.186  37.729  1.00 29.30     0.179 C 
ATOM      5  CB  PRO C   2      58.341  64.169  38.769  1.00 28.96     0.037 C 
ATOM      6  CG  PRO C   2      57.183  65.079  38.972  1.00 29.77     0.022 C 
ATOM      7  CD  PRO C   2      56.700  65.322  37.555  1.00 29.26     0.127 C 
ENDROOT
BRANCH   4   8
ATOM      8  C   PRO C   2      57.015  62.040  38.346  1.00 30.63     0.241 C 
ATOM      9  O   PRO C   2      56.650  62.082  39.523  1.00 29.31    -0.271 OA
ATOM     10  N   ILE C   3      56.738  61.029  37.528  1.00 30.96    -0.344 N 
ATOM     11  H   ILE C   3      56.974  61.010  36.701  1.00 30.96     0.163 HD
BRANCH  10  12
ATOM     12  CA  ILE C   3      56.002  59.848  37.958  1.00 33.52     0.189 C 
BRANCH  12  13
ATOM     13  C   ILE C   3      56.276  58.705  36.981  1.00 34.53     0.197 C 
ATOM     14  OXT ILE C   3      56.381  57.547  37.443  1.00 37.77    -0.646 OA
ATOM     15  O   ILE C   3      56.380  58.981  35.766  1.00 32.63    -0.646 OA
ENDBRANCH  12  13
BRANCH  12  16
ATOM     16  CB  ILE C   3      54.480  60.114  37.994  1.00 35.15     0.014 C 
ATOM     17  CG2 ILE C   3      53.958  60.369  36.581  1.00 35.36     0.012 C 
BRANCH  16  18
ATOM     18  CG1 ILE C   3      53.751  58.908  38.593  1.00 35.72     0.002 C 
ATOM     19  CD1 ILE C   3      52.241  59.111  38.745  1.00 34.66     0.005 C 
ENDBRANCH  16  18
ENDBRANCH  12  16
ENDBRANCH  10  12
ENDBRANCH   4   8
BRANCH   1  20
ATOM     20  CA  ILE C   1      55.593  64.540  34.949  1.00 26.33     0.278 C 
BRANCH  20  21
ATOM     21  CB  ILE C   1      54.175  63.921  35.013  1.00 27.81     0.021 C 
ATOM     22  CG2 ILE C   1      53.796  63.637  36.462  1.00 28.56     0.012 C 
BRANCH  21  23
ATOM     23  CG1 ILE C   1      53.148  64.873  34.396  1.00 27.24     0.002 C 
ATOM     24  CD1 ILE C   1      51.711  64.370  34.509  1.00 25.82     0.005 C 
ENDBRANCH  21  23
ENDBRANCH  20  21
BRANCH  20  25
ATOM     25  N   ILE C   1      56.050  64.720  33.548  1.00 24.71    -0.066 N 
ATOM     26  H1  ILE C   1      55.419  65.140  33.081  1.00 24.71     0.275 HD
ATOM     27  H3  ILE C   1      56.209  63.924  33.183  1.00 24.71     0.275 HD
ATOM     28  H2  ILE C   1      56.797  65.204  33.539  1.00 24.71     0.275 HD
ENDBRANCH  20  25
ENDBRANCH   1  20
TORSDOF 9
