REMARK  10 active torsions:
REMARK  status: ('A' for Active; 'I' for Inactive)
REMARK    1  A    between atoms: N_1  and  CA_2 
REMARK    2  A    between atoms: CA_2  and  CB_5 
REMARK    3  A    between atoms: CA_2  and  C_3 
REMARK       I    between atoms: C_3  and  N_12 
REMARK    4  A    between atoms: CB_5  and  CG_6 
REMARK    5  A    between atoms: CG_6  and  SD_7 
REMARK    6  A    between atoms: N_12  and  CA_13 
REMARK    7  A    between atoms: CA_13  and  CB_16 
REMARK    8  A    between atoms: CA_13  and  C_14 
REMARK       I    between atoms: C_14  and  N_21 
REMARK    9  A    between atoms: CB_16  and  CG_17 
REMARK   10  A    between atoms: CA_22  and  C_23 
ROOT
ATOM      1  CA  ASP Y   2      39.643  52.224  39.228  1.00 68.86     0.186 C 
ENDROOT
BRANCH   1   2
ATOM      2  N   ASP Y   2      38.969  51.870  37.982  1.00 67.90    -0.345 N 
ATOM      3  H   ASP Y   2      38.326  51.313  38.110  1.00 67.90     0.163 HD
ATOM      4  C   MET Y   1      39.265  52.319  36.764  1.00 66.89     0.249 C 
ATOM      5  O   MET Y   1      40.230  53.063  36.491  1.00 66.99    -0.271 OA
BRANCH   4   6
ATOM      6  CA  MET Y   1      38.247  51.858  35.704  1.00 65.69     0.275 C 
BRANCH   6   7
ATOM      7  N   MET Y   1      38.533  52.234  34.295  1.00 65.08    -0.066 N 
ATOM      8  H2  MET Y   1      38.554  53.121  34.223  1.00 65.08     0.275 HD
ATOM      9  H1  MET Y   1      37.896  51.909  33.766  1.00 65.08     0.275 HD
ATOM     10  H3  MET Y   1      39.320  51.898  34.052  1.00 65.08     0.275 HD
ENDBRANCH   6   7
BRANCH   6  11
ATOM     11  CB  MET Y   1      38.002  50.343  35.833  1.00 64.83     0.053 C 
BRANCH  11  12
ATOM     12  CG  MET Y   1      36.560  49.969  35.608  1.00 63.52     0.076 C 
BRANCH  12  13
ATOM     13  SD  MET Y   1      35.927  48.617  36.591  1.00 62.62    -0.173 SA
ATOM     14  CE  MET Y   1      34.633  48.030  35.504  1.00 61.34     0.089 C 
ENDBRANCH  12  13
ENDBRANCH  11  12
ENDBRANCH   6  11
ENDBRANCH   4   6
ENDBRANCH   1   2
BRANCH   1  15
ATOM     15  CB  ASP Y   2      38.917  51.494  40.368  1.00 68.96     0.147 C 
BRANCH  15  16
ATOM     16  CG  ASP Y   2      37.427  51.274  40.070  1.00 68.92     0.175 C 
ATOM     17  OD2 ASP Y   2      36.960  50.186  39.661  1.00 65.64    -0.648 OA
ATOM     18  OD1 ASP Y   2      36.632  52.237  40.205  1.00 70.23    -0.648 OA
ENDBRANCH  15  16
ENDBRANCH   1  15
BRANCH   1  19
ATOM     19  C   ASP Y   2      41.121  51.824  39.217  1.00 69.95     0.243 C 
ATOM     20  O   ASP Y   2      41.454  50.689  38.861  1.00 70.67    -0.271 OA
ATOM     21  N   PRO Y   3      42.006  52.726  39.639  1.00 71.01    -0.338 N 
ATOM     22  CA  PRO Y   3      43.461  52.496  39.512  1.00 71.12     0.165 C 
ATOM     23  CD  PRO Y   3      41.679  53.996  40.312  1.00 71.07     0.127 C 
ATOM     24  CB  PRO Y   3      44.092  53.820  39.956  1.00 71.47     0.035 C 
ATOM     25  CG  PRO Y   3      43.009  54.568  40.705  1.00 71.67     0.022 C 
BRANCH  22  26
ATOM     26  C   PRO Y   3      43.984  51.348  40.377  1.00 71.77     0.219 C 
ATOM     27  O   PRO Y   3      44.221  50.249  39.862  1.00 72.45    -0.287 OA
ENDBRANCH  22  26
ENDBRANCH   1  19
TORSDOF 10
