REMARK  21 active torsions:
REMARK  status: ('A' for Active; 'I' for Inactive)
REMARK    1  A    between atoms: N_1  and  CA_2 
REMARK    2  A    between atoms: CA_2  and  C_3 
REMARK       I    between atoms: C_3  and  N_9 
REMARK    3  A    between atoms: N_9  and  CA_10 
REMARK    4  A    between atoms: CA_10  and  CB_13 
REMARK    5  A    between atoms: CA_10  and  C_11 
REMARK       I    between atoms: C_11  and  N_17 
REMARK    6  A    between atoms: CB_13  and  OG_14 
REMARK    7  A    between atoms: N_17  and  CA_18 
REMARK    8  A    between atoms: CA_18  and  C_19 
REMARK    9  A    between atoms: CA_18  and  CB_21 
REMARK       I    between atoms: C_19  and  N_30 
REMARK   10  A    between atoms: CB_21  and  CG_22 
REMARK   11  A    between atoms: CG_22  and  CD_23 
REMARK   12  A    between atoms: CD_23  and  CE_24 
REMARK   13  A    between atoms: CE_24  and  NZ_25 
REMARK   14  A    between atoms: CA_31  and  C_32 
REMARK       I    between atoms: C_32  and  N_37 
REMARK   15  A    between atoms: N_37  and  CA_38 
REMARK   16  A    between atoms: CA_38  and  C_39 
REMARK   17  A    between atoms: CA_38  and  CB_41 
REMARK   18  A    between atoms: CB_41  and  CG_42 
REMARK   19  A    between atoms: CG_42  and  CD_43 
REMARK   20  A    between atoms: CD_43  and  CE_44 
REMARK   21  A    between atoms: CE_44  and  NZ_45 
ROOT
ATOM      1  CA  LYS C   3      18.897  41.482  40.589  1.00 11.26     0.176 C 
ENDROOT
BRANCH   1   2
ATOM      2  N   LYS C   3      20.232  41.010  40.943  1.00 11.48    -0.346 N 
ATOM      3  H   LYS C   3      20.601  40.507  40.351  1.00 11.48     0.163 HD
ATOM      4  C   SER C   2      20.805  41.348  42.095  1.00 14.83     0.243 C 
ATOM      5  O   SER C   2      20.257  42.068  42.927  1.00 15.12    -0.271 OA
BRANCH   4   6
ATOM      6  CA  SER C   2      22.203  40.795  42.350  1.00 17.53     0.200 C 
BRANCH   6   7
ATOM      7  CB  SER C   2      22.104  39.406  42.982  1.00 18.77     0.199 C 
BRANCH   7   8
ATOM      8  OG  SER C   2      23.382  38.937  43.377  1.00 25.53    -0.398 OA
ATOM      9  HG  SER C   2      23.637  38.338  42.846  1.00 25.53     0.209 HD
ENDBRANCH   7   8
ENDBRANCH   6   7
BRANCH   6  10
ATOM     10  N   SER C   2      22.920  41.696  43.244  1.00 20.39    -0.344 N 
ATOM     11  H   SER C   2      23.249  41.316  43.942  1.00 20.39     0.163 HD
ATOM     12  C   ALA C   1      23.040  42.992  42.979  0.50 21.41     0.248 C 
ATOM     13  O   ALA C   1      22.566  43.517  41.971  0.50 21.88    -0.271 OA
BRANCH  12  14
ATOM     14  CA  ALA C   1      23.810  43.818  44.002  0.50 22.33     0.270 C 
ATOM     15  CB  ALA C   1      23.151  45.179  44.172  0.50 23.34     0.050 C 
BRANCH  14  16
ATOM     16  N   ALA C   1      25.232  43.990  43.592  0.50 23.60    -0.067 N 
ATOM     17  H1  ALA C   1      25.681  44.399  44.243  0.50 23.60     0.275 HD
ATOM     18  H2  ALA C   1      25.595  43.192  43.437  0.50 23.60     0.275 HD
ATOM     19  H3  ALA C   1      25.270  44.482  42.851  0.50 23.60     0.275 HD
ENDBRANCH  14  16
ENDBRANCH  12  14
ENDBRANCH   6  10
ENDBRANCH   4   6
ENDBRANCH   1   2
BRANCH   1  20
ATOM     20  C   LYS C   3      17.898  40.325  40.565  1.00 11.51     0.243 C 
ATOM     21  O   LYS C   3      18.259  39.193  40.256  1.00 12.69    -0.271 OA
ATOM     22  N   PRO C   4      16.629  40.593  40.915  1.00 12.00    -0.337 N 
ATOM     23  CA  PRO C   4      15.605  39.543  40.924  1.00 11.59     0.179 C 
ATOM     24  CD  PRO C   4      16.233  41.680  41.823  1.00 14.34     0.127 C 
ATOM     25  CB  PRO C   4      14.697  39.933  42.096  1.00 14.16     0.037 C 
ATOM     26  CG  PRO C   4      15.492  40.927  42.887  1.00 18.35     0.022 C 
BRANCH  23  27
ATOM     27  C   PRO C   4      14.777  39.391  39.659  1.00 10.16     0.241 C 
ATOM     28  N   LYS C   5      14.389  38.150  39.393  1.00 10.59    -0.345 N 
ATOM     29  H   LYS C   5      14.615  37.469  39.867  1.00 10.59     0.163 HD
ATOM     30  O   PRO C   4      14.476  40.361  38.962  1.00 10.22    -0.271 OA
BRANCH  28  31
ATOM     31  CA  LYS C   5      13.536  37.826  38.261  1.00 10.68     0.185 C 
BRANCH  31  32
ATOM     32  C   LYS C   5      12.787  36.540  38.599  1.00 10.68     0.196 C 
ATOM     33  O   LYS C   5      11.751  36.282  37.956  1.00 12.49    -0.646 OA
ATOM     34  OXT LYS C   5      13.252  35.800  39.497  1.00  9.63    -0.646 OA
ENDBRANCH  31  32
BRANCH  31  35
ATOM     35  CB  LYS C   5      14.359  37.638  36.984  1.00 15.00     0.036 C 
BRANCH  35  36
ATOM     36  CG  LYS C   5      15.141  36.342  36.942  1.00 18.03     0.004 C 
BRANCH  36  37
ATOM     37  CD  LYS C   5      16.124  36.302  35.788  1.00 23.96     0.027 C 
BRANCH  37  38
ATOM     38  CE  LYS C   5      15.452  36.537  34.452  1.00 22.07     0.229 C 
BRANCH  38  39
ATOM     39  NZ  LYS C   5      16.451  36.465  33.352  1.00 25.25    -0.079 N 
ATOM     40  HZ3 LYS C   5      16.941  35.728  33.444  1.00 25.25     0.274 HD
ATOM     41  HZ1 LYS C   5      16.029  36.445  32.569  1.00 25.25     0.274 HD
ATOM     42  HZ2 LYS C   5      16.981  37.179  33.385  1.00 25.25     0.274 HD
ENDBRANCH  38  39
ENDBRANCH  37  38
ENDBRANCH  36  37
ENDBRANCH  35  36
ENDBRANCH  31  35
ENDBRANCH  28  31
ENDBRANCH  23  27
ENDBRANCH   1  20
BRANCH   1  43
ATOM     43  CB  LYS C   3      18.932  42.171  39.225  1.00 13.47     0.035 C 
BRANCH  43  44
ATOM     44  CG  LYS C   3      19.811  43.415  39.181  1.00 17.41     0.004 C 
BRANCH  44  45
ATOM     45  CD  LYS C   3      19.659  44.167  37.868  1.00 21.64     0.027 C 
BRANCH  45  46
ATOM     46  CE  LYS C   3      20.146  43.360  36.675  1.00 23.65     0.229 C 
BRANCH  46  47
ATOM     47  NZ  LYS C   3      19.358  42.126  36.413  1.00 25.13    -0.079 N 
ATOM     48  HZ1 LYS C   3      19.881  41.413  36.511  1.00 25.13     0.274 HD
ATOM     49  HZ2 LYS C   3      18.681  42.078  36.989  1.00 25.13     0.274 HD
ATOM     50  HZ3 LYS C   3      19.040  42.148  35.582  1.00 25.13     0.274 HD
ENDBRANCH  46  47
ENDBRANCH  45  46
ENDBRANCH  44  45
ENDBRANCH  43  44
ENDBRANCH   1  43
TORSDOF 21
