REMARK  23 active torsions:
REMARK  status: ('A' for Active; 'I' for Inactive)
REMARK    1  A    between atoms: CA_2  and  C_3 
REMARK       I    between atoms: C_3  and  N_5 
REMARK    2  A    between atoms: N_5  and  CA_6 
REMARK    3  A    between atoms: CA_6  and  C_7 
REMARK       I    between atoms: C_7  and  N_11 
REMARK    4  A    between atoms: N_11  and  CA_12 
REMARK    5  A    between atoms: CA_12  and  C_13 
REMARK    6  A    between atoms: CA_12  and  CB_15 
REMARK       I    between atoms: C_13  and  N_28 
REMARK    7  A    between atoms: CB_15  and  CG_16 
REMARK    8  A    between atoms: CG_16  and  CD_17 
REMARK    9  A    between atoms: CD_17  and  NE_18 
REMARK       I    between atoms: NE_18  and  CZ_19 
REMARK       I    between atoms: CZ_19  and  NH1_20 
REMARK   10  A    between atoms: N_28  and  CA_29 
REMARK   11  A    between atoms: CA_29  and  C_30 
REMARK       I    between atoms: C_30  and  N_34 
REMARK   12  A    between atoms: N_34  and  CA_35 
REMARK   13  A    between atoms: CA_35  and  C_36 
REMARK   14  A    between atoms: CA_35  and  CB_38 
REMARK       I    between atoms: C_36  and  N_45 
REMARK   15  A    between atoms: CB_38  and  CG_39 
REMARK   16  A    between atoms: N_45  and  CA_46 
REMARK   17  A    between atoms: CA_46  and  C_47 
REMARK   18  A    between atoms: CA_46  and  CB_49 
REMARK       I    between atoms: C_47  and  N_53 
REMARK   19  A    between atoms: CB_49  and  OG_50 
REMARK   20  A    between atoms: N_53  and  CA_54 
REMARK   21  A    between atoms: CA_54  and  CB_57 
REMARK   22  A    between atoms: CA_54  and  C_55 
REMARK   23  A    between atoms: CB_57  and  OG_58 
ROOT
ATOM      1  CA  ALA B 364      31.553 -13.919  -6.748  1.00 28.10     0.172 C 
ATOM      2  CB  ALA B 364      30.648 -12.721  -6.977  1.00 26.12     0.042 C 
ENDROOT
BRANCH   1   3
ATOM      3  N   ALA B 364      31.124 -14.651  -5.560  1.00 32.12    -0.346 N 
ATOM      4  H   ALA B 364      30.546 -14.239  -5.075  1.00 32.12     0.163 HD
ATOM      5  C   ARG B 363      31.609 -15.856  -5.281  1.00 35.84     0.241 C 
ATOM      6  O   ARG B 363      32.424 -16.425  -6.004  1.00 34.68    -0.271 OA
BRANCH   5   7
ATOM      7  CA  ARG B 363      31.105 -16.518  -3.994  1.00 40.75     0.176 C 
BRANCH   7   8
ATOM      8  CB  ARG B 363      32.100 -17.598  -3.546  1.00 43.30     0.036 C 
BRANCH   8   9
ATOM      9  CG  ARG B 363      33.534 -17.094  -3.439  1.00 48.42     0.023 C 
BRANCH   9  10
ATOM     10  CD  ARG B 363      34.484 -18.127  -2.848  1.00 50.65     0.138 C 
BRANCH  10  11
ATOM     11  NE  ARG B 363      35.867 -17.650  -2.883  1.00 53.91    -0.227 N 
ATOM     12  HE  ARG B 363      36.026 -16.916  -3.301  1.00 53.91     0.177 HD
ATOM     13  CZ  ARG B 363      36.896 -18.273  -2.313  1.00 54.64     0.665 C 
ATOM     14  NH2 ARG B 363      38.117 -17.761  -2.404  1.00 53.91    -0.235 N 
ATOM     15  NH1 ARG B 363      36.707 -19.409  -1.653  1.00 54.84    -0.235 N 
ATOM     16 HH21 ARG B 363      38.244 -17.026  -2.832  1.00 53.91     0.174 HD
ATOM     17 HH22 ARG B 363      38.781 -18.164  -2.035  1.00 53.91     0.174 HD
ATOM     18 HH11 ARG B 363      35.918 -19.745  -1.593  1.00 54.84     0.174 HD
ATOM     19 HH12 ARG B 363      37.374 -19.809  -1.286  1.00 54.84     0.174 HD
ENDBRANCH  10  11
ENDBRANCH   9  10
ENDBRANCH   8   9
ENDBRANCH   7   8
BRANCH   7  20
ATOM     20  N   ARG B 363      29.762 -17.081  -4.092  1.00 43.94    -0.346 N 
ATOM     21  C   ALA B 362      29.463 -18.119  -4.869  1.00 45.99     0.240 C 
ATOM     22  O   ALA B 362      30.286 -18.690  -5.588  1.00 46.10    -0.271 OA
ATOM     23  H   ARG B 363      29.182 -16.679  -3.600  1.00 43.94     0.163 HD
BRANCH  21  24
ATOM     24  CA  ALA B 362      28.007 -18.570  -4.833  1.00 47.39     0.172 C 
ATOM     25  CB  ALA B 362      27.903 -20.047  -5.200  1.00 48.25     0.042 C 
BRANCH  24  26
ATOM     26  N   ALA B 362      27.211 -17.768  -5.753  1.00 48.90    -0.347 N 
ATOM     27  C   GLY B 361      25.934 -17.488  -5.517  1.00 49.70     0.252 C 
ATOM     28  O   GLY B 361      25.331 -17.887  -4.517  1.00 50.52    -0.271 OA
ATOM     29  H   ALA B 362      27.639 -17.499  -6.449  1.00 48.90     0.163 HD
BRANCH  27  30
ATOM     30  CA  GLY B 361      25.232 -16.642  -6.559  1.00 49.65     0.466 C 
ATOM     31  N   GLY B 361      24.457 -17.474  -7.515  1.00 49.05     0.609 N 
ENDBRANCH  27  30
ENDBRANCH  24  26
ENDBRANCH  21  24
ENDBRANCH   7  20
ENDBRANCH   5   7
ENDBRANCH   1   3
BRANCH   1  32
ATOM     32  C   ALA B 364      32.998 -13.469  -6.524  1.00 26.37     0.240 C 
ATOM     33  N   HIS B 365      33.734 -13.240  -7.609  1.00 23.61    -0.346 N 
ATOM     34  H   HIS B 365      33.442 -13.318  -8.414  1.00 23.61     0.163 HD
ATOM     35  O   ALA B 364      33.439 -13.338  -5.383  1.00 24.80    -0.271 OA
BRANCH  33  36
ATOM     36  CA  HIS B 365      35.132 -12.828  -7.509  1.00 22.03     0.182 C 
BRANCH  36  37
ATOM     37  C   HIS B 365      35.646 -12.235  -8.818  1.00 20.85     0.241 C 
ATOM     38  O   HIS B 365      34.914 -12.141  -9.800  1.00 18.88    -0.271 OA
ATOM     39  N   SER B 366      36.917 -11.844  -8.820  1.00 20.61    -0.344 N 
ATOM     40  H   SER B 366      37.435 -11.906  -8.136  1.00 20.61     0.163 HD
BRANCH  39  41
ATOM     41  CA  SER B 366      37.554 -11.267  -9.998  1.00 22.02     0.200 C 
BRANCH  41  42
ATOM     42  C   SER B 366      37.979 -12.365 -10.963  1.00 20.47     0.243 C 
ATOM     43  O   SER B 366      38.244 -13.495 -10.549  1.00 18.56    -0.271 OA
ATOM     44  N   SER B 367      38.047 -12.026 -12.247  1.00 19.80    -0.343 N 
ATOM     45  H   SER B 367      37.859 -11.242 -12.547  1.00 19.80     0.163 HD
BRANCH  44  46
ATOM     46  CA  SER B 367      38.456 -12.982 -13.272  1.00 20.54     0.209 C 
BRANCH  46  47
ATOM     47  CB  SER B 367      38.165 -12.434 -14.674  1.00 20.61     0.200 C 
BRANCH  47  48
ATOM     48  OG  SER B 367      39.011 -11.344 -14.993  1.00 20.78    -0.398 OA
ATOM     49  HG  SER B 367      38.701 -10.640 -14.655  1.00 20.78     0.209 HD
ENDBRANCH  47  48
ENDBRANCH  46  47
BRANCH  46  50
ATOM     50  C   SER B 367      39.944 -13.298 -13.148  1.00 22.30     0.198 C 
ATOM     51  O   SER B 367      40.342 -14.420 -13.533  1.00 20.52    -0.646 OA
ATOM     52  OXT SER B 367      40.694 -12.411 -12.683  1.00 22.33    -0.646 OA
ENDBRANCH  46  50
ENDBRANCH  44  46
ENDBRANCH  41  42
BRANCH  41  53
ATOM     53  CB  SER B 366      38.792 -10.461  -9.588  1.00 25.29     0.199 C 
BRANCH  53  54
ATOM     54  OG  SER B 366      38.461  -9.471  -8.628  1.00 34.76    -0.398 OA
ATOM     55  HG  SER B 366      37.644  -9.526  -8.439  1.00 34.76     0.209 HD
ENDBRANCH  53  54
ENDBRANCH  41  53
ENDBRANCH  39  41
ENDBRANCH  36  37
BRANCH  36  56
ATOM     56  CB  HIS B 365      36.000 -14.030  -7.138  1.00 23.96     0.095 C 
BRANCH  56  57
ATOM     57  CG  HIS B 365      35.884 -15.167  -8.105  1.00 26.34     0.056 A 
ATOM     58  ND1 HIS B 365      34.760 -15.961  -8.187  1.00 28.92    -0.245 NA
ATOM     59  CE1 HIS B 365      34.912 -16.836  -9.165  1.00 27.03     0.232 A 
ATOM     60  NE2 HIS B 365      36.095 -16.639  -9.719  1.00 28.88    -0.252 NA
ATOM     61  CD2 HIS B 365      36.724 -15.602  -9.073  1.00 26.83     0.145 A 
ENDBRANCH  56  57
ENDBRANCH  36  56
ENDBRANCH  33  36
ENDBRANCH   1  32
TORSDOF 23
