REMARK  19 active torsions:
REMARK  status: ('A' for Active; 'I' for Inactive)
REMARK    1  A    between atoms: CA_2  and  CB_5 
REMARK    2  A    between atoms: CA_2  and  C_3 
REMARK       I    between atoms: C_3  and  N_10 
REMARK    3  A    between atoms: CB_5  and  CG_6 
REMARK    4  A    between atoms: CG_6  and  CD_7 
REMARK    5  A    between atoms: CA_11  and  C_12 
REMARK       I    between atoms: C_12  and  N_17 
REMARK    6  A    between atoms: N_17  and  CA_18 
REMARK    7  A    between atoms: CA_18  and  C_19 
REMARK       I    between atoms: C_19  and  N_22 
REMARK    8  A    between atoms: N_22  and  CA_23 
REMARK    9  A    between atoms: CA_23  and  C_24 
REMARK       I    between atoms: C_24  and  N_27 
REMARK   10  A    between atoms: N_27  and  CA_28 
REMARK   11  A    between atoms: CA_28  and  CB_31 
REMARK   12  A    between atoms: CA_28  and  C_29 
REMARK       I    between atoms: C_29  and  N_35 
REMARK   13  A    between atoms: CB_31  and  OG_32 
REMARK   14  A    between atoms: N_35  and  CA_36 
REMARK   15  A    between atoms: CA_36  and  C_37 
REMARK   16  A    between atoms: CA_36  and  CB_39 
REMARK   17  A    between atoms: CB_39  and  CG_40 
REMARK   18  A    between atoms: CG_40  and  CD_41 
REMARK   19  A    between atoms: CD_41  and  NE_42 
REMARK       I    between atoms: NE_42  and  CZ_43 
REMARK       I    between atoms: CZ_43  and  NH1_44 
ROOT
ATOM      1  C   GLY B 361      38.014 -12.316 -11.280  1.00 26.32     0.236 C 
ATOM      2  O   GLY B 361      38.198 -13.462 -10.870  1.00 25.16    -0.272 OA
ATOM      3  N   SER B 362      38.165 -11.973 -12.555  1.00 27.60    -0.344 N 
ATOM      4  H   SER B 362      38.055 -11.175 -12.855  1.00 27.60     0.163 HD
ENDROOT
BRANCH   1   5
ATOM      5  CA  GLY B 361      37.605 -11.215 -10.318  1.00 24.90     0.225 C 
BRANCH   5   6
ATOM      6  N   GLY B 361      37.063 -11.778  -9.093  1.00 24.70    -0.351 N 
ATOM      7  C   GLY B 360      35.815 -12.237  -9.046  1.00 25.98     0.235 C 
ATOM      8  O   GLY B 360      35.039 -12.195 -10.010  1.00 23.45    -0.272 OA
ATOM      9  H   GLY B 361      37.608 -11.785  -8.428  1.00 24.70     0.163 HD
BRANCH   7  10
ATOM     10  CA  GLY B 360      35.361 -12.818  -7.724  1.00 26.97     0.225 C 
BRANCH  10  11
ATOM     11  N   GLY B 360      34.034 -13.386  -7.851  1.00 32.20    -0.351 N 
ATOM     12  C   PRO B 359      33.419 -13.925  -6.804  1.00 35.92     0.241 C 
ATOM     13  O   PRO B 359      33.923 -13.980  -5.685  1.00 37.04    -0.271 OA
ATOM     14  H   GLY B 360      33.697 -13.341  -8.641  1.00 32.20     0.163 HD
BRANCH  12  15
ATOM     15  CA  PRO B 359      32.025 -14.488  -7.061  1.00 39.21     0.179 C 
ATOM     16  CB  PRO B 359      30.951 -13.403  -7.057  1.00 38.88     0.037 C 
ATOM     17  CG  PRO B 359      30.537 -13.355  -5.621  1.00 39.81     0.022 C 
ATOM     18  CD  PRO B 359      30.426 -14.825  -5.279  1.00 41.55     0.127 C 
ATOM     19  N   PRO B 359      31.575 -15.398  -6.002  1.00 42.03    -0.337 N 
ATOM     20  C   GLU B 358      32.219 -16.541  -5.725  1.00 44.90     0.259 C 
ATOM     21  O   GLU B 358      33.227 -16.889  -6.343  1.00 45.02    -0.271 OA
BRANCH  20  22
ATOM     22  CA  GLU B 358      31.654 -17.405  -4.599  1.00 48.47     0.400 C 
ATOM     23  N   GLU B 358      32.168 -18.803  -4.711  1.00 49.88     0.615 N 
BRANCH  22  24
ATOM     24  CB  GLU B 358      32.049 -16.801  -3.246  1.00 52.00     0.062 C 
BRANCH  24  25
ATOM     25  CG  GLU B 358      31.661 -17.641  -2.032  1.00 56.00     0.116 C 
BRANCH  25  26
ATOM     26  CD  GLU B 358      32.436 -18.946  -1.950  1.00 58.41     0.172 C 
ATOM     27  OE1 GLU B 358      33.687 -18.895  -1.952  1.00 59.40    -0.648 OA
ATOM     28  OE2 GLU B 358      31.796 -20.018  -1.883  1.00 59.45    -0.648 OA
ENDBRANCH  25  26
ENDBRANCH  24  25
ENDBRANCH  22  24
ENDBRANCH  20  22
ENDBRANCH  12  15
ENDBRANCH  10  11
ENDBRANCH   7  10
ENDBRANCH   5   6
ENDBRANCH   1   5
BRANCH   3  29
ATOM     29  CA  SER B 362      38.539 -12.955 -13.569  1.00 31.63     0.200 C 
BRANCH  29  30
ATOM     30  CB  SER B 362      38.261 -12.400 -14.974  1.00 29.14     0.199 C 
BRANCH  30  31
ATOM     31  OG  SER B 362      39.058 -11.263 -15.250  1.00 25.13    -0.398 OA
ATOM     32  HG  SER B 362      38.706 -10.583 -14.905  1.00 25.13     0.209 HD
ENDBRANCH  30  31
ENDBRANCH  29  30
BRANCH  29  33
ATOM     33  C   SER B 362      39.981 -13.464 -13.510  1.00 35.65     0.243 C 
ATOM     34  O   SER B 362      40.241 -14.610 -13.874  1.00 37.77    -0.271 OA
ATOM     35  N   ARG B 363      40.916 -12.631 -13.059  1.00 40.10    -0.345 N 
ATOM     36  H   ARG B 363      40.762 -11.829 -12.789  1.00 40.10     0.163 HD
BRANCH  35  37
ATOM     37  CA  ARG B 363      42.322 -13.043 -12.991  1.00 45.15     0.185 C 
BRANCH  37  38
ATOM     38  C   ARG B 363      42.657 -13.828 -11.724  1.00 46.43     0.196 C 
ATOM     39  O   ARG B 363      43.389 -13.283 -10.870  1.00 47.78    -0.646 OA
ATOM     40  OXT ARG B 363      42.188 -14.980 -11.598  1.00 47.46    -0.646 OA
ENDBRANCH  37  38
BRANCH  37  41
ATOM     41  CB  ARG B 363      43.246 -11.824 -13.087  1.00 48.51     0.038 C 
BRANCH  41  42
ATOM     42  CG  ARG B 363      43.033 -10.972 -14.325  1.00 53.09     0.023 C 
BRANCH  42  43
ATOM     43  CD  ARG B 363      44.007  -9.807 -14.362  1.00 56.16     0.138 C 
BRANCH  43  44
ATOM     44  NE  ARG B 363      43.603  -8.787 -15.327  1.00 60.73    -0.227 N 
ATOM     45  HE  ARG B 363      42.846  -8.885 -15.723  1.00 60.73     0.177 HD
ATOM     46  CZ  ARG B 363      44.331  -7.715 -15.633  1.00 63.15     0.665 C 
ATOM     47  NH2 ARG B 363      43.883  -6.833 -16.520  1.00 63.96    -0.235 N 
ATOM     48  NH1 ARG B 363      45.509  -7.522 -15.051  1.00 63.92    -0.235 N 
ATOM     49 HH21 ARG B 363      43.120  -6.953 -16.899  1.00 63.96     0.174 HD
ATOM     50 HH22 ARG B 363      44.356  -6.142 -16.715  1.00 63.96     0.174 HD
ATOM     51 HH11 ARG B 363      45.803  -8.090 -14.476  1.00 63.92     0.174 HD
ATOM     52 HH12 ARG B 363      45.978  -6.829 -15.249  1.00 63.92     0.174 HD
ENDBRANCH  43  44
ENDBRANCH  42  43
ENDBRANCH  41  42
ENDBRANCH  37  41
ENDBRANCH  35  37
ENDBRANCH  29  33
ENDBRANCH   3  29
TORSDOF 19
