REMARK  7 active torsions:
REMARK  status: ('A' for Active; 'I' for Inactive)
REMARK    1  A    between atoms: CA_2  and  C_3 
REMARK       I    between atoms: C_3  and  N_6 
REMARK    2  A    between atoms: N_6  and  CA_7 
REMARK    3  A    between atoms: CA_7  and  C_8 
REMARK       I    between atoms: C_8  and  N_12 
REMARK    4  A    between atoms: N_12  and  CA_13 
REMARK    5  A    between atoms: CA_13  and  C_14 
REMARK    6  A    between atoms: CA_13  and  CB_16 
REMARK    7  A    between atoms: CB_16  and  CG_17 
ROOT
ATOM      1  C   ALA S   7       2.009 -12.822   5.900  1.00 26.16     0.240 C 
ATOM      2  O   ALA S   7       2.781 -12.330   5.078  1.00 23.62    -0.271 OA
ATOM      3  N   PHE S   8       2.381 -13.702   6.822  1.00 26.19    -0.347 N 
ATOM      4  H   PHE S   8       1.839 -14.053   7.390  1.00 26.19     0.163 HD
ENDROOT
BRANCH   3   5
ATOM      5  CA  PHE S   8       3.758 -14.158   6.957  1.00 26.02     0.166 C 
BRANCH   5   6
ATOM      6  C   PHE S   8       3.810 -15.666   7.113  1.00 27.74     0.219 C 
ATOM      7  O   PHE S   8       4.847 -16.284   6.802  1.00 30.84    -0.287 OA
ENDBRANCH   5   6
BRANCH   5   8
ATOM      8  CB  PHE S   8       4.418 -13.547   8.182  1.00 24.81     0.072 C 
BRANCH   8   9
ATOM      9  CG  PHE S   8       4.501 -12.043   8.148  1.00 22.51    -0.056 A 
ATOM     10  CD2 PHE S   8       5.535 -11.424   7.487  1.00 18.27     0.007 A 
ATOM     11  CE2 PHE S   8       5.647 -10.005   7.470  1.00 17.55     0.001 A 
ATOM     12  CZ  PHE S   8       4.700  -9.237   8.139  1.00 18.56     0.000 A 
ATOM     13  CE1 PHE S   8       3.667  -9.861   8.808  1.00 16.51     0.001 A 
ATOM     14  CD1 PHE S   8       3.564 -11.262   8.818  1.00 19.44     0.007 A 
ENDBRANCH   8   9
ENDBRANCH   5   8
ENDBRANCH   3   5
BRANCH   1  15
ATOM     15  CA  ALA S   7       0.552 -12.374   5.924  1.00 27.73     0.172 C 
ATOM     16  CB  ALA S   7       0.515 -10.905   6.439  1.00 27.93     0.042 C 
BRANCH  15  17
ATOM     17  N   ALA S   7      -0.350 -13.195   6.741  1.00 29.72    -0.346 N 
ATOM     18  C   ALA S   6      -1.236 -14.081   6.253  1.00 32.34     0.257 C 
ATOM     19  O   ALA S   6      -1.017 -14.771   5.252  1.00 32.82    -0.271 OA
ATOM     20  H   ALA S   7      -0.258 -13.054   7.584  1.00 29.72     0.163 HD
BRANCH  18  21
ATOM     21  CA  ALA S   6      -2.522 -14.300   7.093  1.00 33.16     0.396 C 
ATOM     22  CB  ALA S   6      -3.141 -15.668   6.791  1.00 32.96     0.059 C 
ATOM     23  N   ALA S   6      -3.579 -13.232   6.907  1.00 33.36     0.614 N 
ENDBRANCH  18  21
ENDBRANCH  15  17
ENDBRANCH   1  15
TORSDOF 7
