REMARK  18 active torsions:
REMARK  status: ('A' for Active; 'I' for Inactive)
REMARK    1  A    between atoms: CA_2  and  CB_5 
REMARK    2  A    between atoms: CA_2  and  C_3 
REMARK       I    between atoms: C_3  and  N_9 
REMARK    3  A    between atoms: CB_5  and  CG_6 
REMARK    4  A    between atoms: N_9  and  CA_10 
REMARK    5  A    between atoms: CA_10  and  C_11 
REMARK    6  A    between atoms: CA_10  and  CB_13 
REMARK       I    between atoms: C_11  and  N_18 
REMARK    7  A    between atoms: CB_13  and  CG_14 
REMARK    8  A    between atoms: N_18  and  CA_19 
REMARK    9  A    between atoms: CA_19  and  CB_22 
REMARK   10  A    between atoms: CA_19  and  C_20 
REMARK       I    between atoms: C_20  and  N_27 
REMARK   11  A    between atoms: CB_22  and  CG_23 
REMARK   12  A    between atoms: N_27  and  CA_28 
REMARK   13  A    between atoms: CA_28  and  CB_31 
REMARK   14  A    between atoms: CA_28  and  C_29 
REMARK       I    between atoms: C_29  and  N_41 
REMARK   15  A    between atoms: CB_31  and  CG_32 
REMARK   16  A    between atoms: CZ_37  and  OH_38 
REMARK   17  A    between atoms: N_41  and  CA_42 
REMARK   18  A    between atoms: CA_42  and  C_43 
ROOT
ATOM      1  CA  LEU B 804      49.222  52.881  20.722  1.00 31.72     0.177 C 
ENDROOT
BRANCH   1   2
ATOM      2  N   LEU B 804      50.317  52.349  21.543  1.00 32.47    -0.346 N 
ATOM      3  H   LEU B 804      50.152  51.573  21.874  1.00 32.47     0.163 HD
ATOM      4  C   ASP B 803      51.458  53.000  21.758  1.00 36.20     0.241 C 
ATOM      5  O   ASP B 803      51.699  54.152  21.353  1.00 34.88    -0.271 OA
BRANCH   4   6
ATOM      6  CA  ASP B 803      52.502  52.209  22.561  1.00 38.58     0.186 C 
BRANCH   6   7
ATOM      7  CB  ASP B 803      52.540  52.679  24.008  1.00 39.00     0.147 C 
BRANCH   7   8
ATOM      8  CG  ASP B 803      51.170  52.548  24.681  1.00 41.67     0.175 C 
ATOM      9  OD1 ASP B 803      50.627  51.404  24.704  1.00 44.54    -0.648 OA
ATOM     10  OD2 ASP B 803      50.627  53.587  25.139  1.00 44.60    -0.648 OA
ENDBRANCH   7   8
ENDBRANCH   6   7
BRANCH   6  11
ATOM     11  N   ASP B 803      53.798  52.256  21.902  1.00 40.89    -0.345 N 
ATOM     12  C   ASP B 802      54.046  51.417  20.895  1.00 43.36     0.258 C 
ATOM     13  O   ASP B 802      53.201  50.605  20.487  1.00 44.71    -0.271 OA
ATOM     14  H   ASP B 803      54.350  52.841  22.208  1.00 40.89     0.163 HD
BRANCH  12  15
ATOM     15  CA  ASP B 802      55.439  51.459  20.263  1.00 44.06     0.409 C 
ATOM     16  N   ASP B 802      56.247  50.324  20.774  1.00 45.51     0.615 N 
BRANCH  15  17
ATOM     17  CB  ASP B 802      55.346  51.377  18.736  1.00 45.52     0.164 C 
BRANCH  17  18
ATOM     18  CG  ASP B 802      54.805  52.657  18.106  1.00 48.04     0.175 C 
ATOM     19  OD1 ASP B 802      54.233  53.526  18.820  1.00 55.65    -0.648 OA
ATOM     20  OD2 ASP B 802      54.962  52.792  16.875  1.00 54.24    -0.648 OA
ENDBRANCH  17  18
ENDBRANCH  15  17
ENDBRANCH  12  15
ENDBRANCH   6  11
ENDBRANCH   4   6
ENDBRANCH   1   2
BRANCH   1  21
ATOM     21  CB  LEU B 804      48.667  51.749  19.847  1.00 30.53     0.038 C 
BRANCH  21  22
ATOM     22  CG  LEU B 804      49.722  51.008  19.007  1.00 30.66    -0.020 C 
ATOM     23  CD1 LEU B 804      49.048  50.010  18.078  1.00 31.81     0.009 C 
ATOM     24  CD2 LEU B 804      50.574  51.981  18.220  1.00 30.59     0.009 C 
ENDBRANCH  21  22
ENDBRANCH   1  21
BRANCH   1  25
ATOM     25  C   LEU B 804      48.071  53.500  21.529  1.00 30.12     0.241 C 
ATOM     26  O   LEU B 804      47.158  54.054  20.956  1.00 28.94    -0.271 OA
ATOM     27  N   TYR B 805      48.141  53.422  22.855  1.00 29.37    -0.346 N 
ATOM     28  H   TYR B 805      48.853  53.203  23.284  1.00 29.37     0.163 HD
BRANCH  27  29
ATOM     29  CA  TYR B 805      46.986  53.709  23.711  1.00 29.00     0.180 C 
BRANCH  29  30
ATOM     30  CB  TYR B 805      46.645  52.465  24.550  1.00 27.91     0.073 C 
BRANCH  30  31
ATOM     31  CG  TYR B 805      46.026  51.434  23.633  1.00 26.10    -0.056 A 
ATOM     32  CD2 TYR B 805      44.720  51.565  23.217  1.00 24.65     0.010 A 
ATOM     33  CE2 TYR B 805      44.172  50.676  22.300  1.00 24.72     0.037 A 
ATOM     34  CZ  TYR B 805      44.960  49.667  21.768  1.00 22.85     0.065 A 
ATOM     35  CE1 TYR B 805      46.250  49.516  22.182  1.00 24.79     0.037 A 
ATOM     36  CD1 TYR B 805      46.785  50.416  23.084  1.00 25.09     0.010 A 
BRANCH  34  37
ATOM     37  OH  TYR B 805      44.402  48.744  20.913  1.00 25.16    -0.361 OA
ATOM     38  HH  TYR B 805      43.608  48.962  20.745  1.00 25.16     0.217 HD
ENDBRANCH  34  37
ENDBRANCH  30  31
ENDBRANCH  29  30
BRANCH  29  39
ATOM     39  C   TYR B 805      47.136  54.944  24.600  1.00 29.85     0.241 C 
ATOM     40  O   TYR B 805      46.250  55.844  24.606  1.00 30.08    -0.271 OA
ATOM     41  N   GLY B 806      48.240  54.977  25.329  1.00 28.51    -0.349 N 
ATOM     42  H   GLY B 806      48.905  54.444  25.215  1.00 28.51     0.163 HD
BRANCH  41  43
ATOM     43  CA  GLY B 806      48.418  55.931  26.396  1.00 29.14     0.235 C 
BRANCH  43  44
ATOM     44  C   GLY B 806      48.970  57.236  25.912  1.00 28.84     0.191 C 
ATOM     45  O   GLY B 806      49.276  57.432  24.726  1.00 28.96    -0.647 OA
ATOM     46  OXT GLY B 806      49.137  58.107  26.751  1.00 29.15    -0.647 OA
ENDBRANCH  43  44
ENDBRANCH  41  43
ENDBRANCH  29  39
ENDBRANCH  27  29
ENDBRANCH   1  25
TORSDOF 18
