REMARK  19 active torsions:
REMARK  status: ('A' for Active; 'I' for Inactive)
REMARK    1  A    between atoms: CA_2  and  C_3 
REMARK    2  A    between atoms: CA_2  and  CB_5 
REMARK       I    between atoms: C_3  and  N_8 
REMARK    3  A    between atoms: CB_5  and  OG_6 
REMARK    4  A    between atoms: N_8  and  CA_9 
REMARK    5  A    between atoms: CA_9  and  CB_12 
REMARK    6  A    between atoms: CA_9  and  C_10 
REMARK       I    between atoms: C_10  and  N_19 
REMARK    7  A    between atoms: CB_12  and  CG_13 
REMARK       I    between atoms: CG_13  and  ND2_15 
REMARK    8  A    between atoms: CA_20  and  C_21 
REMARK       I    between atoms: C_21  and  N_26 
REMARK    9  A    between atoms: N_26  and  CA_27 
REMARK   10  A    between atoms: CA_27  and  C_28 
REMARK       I    between atoms: C_28  and  N_32 
REMARK   11  A    between atoms: N_32  and  CA_33 
REMARK   12  A    between atoms: CA_33  and  CB_36 
REMARK   13  A    between atoms: CA_33  and  C_34 
REMARK       I    between atoms: C_34  and  N_40 
REMARK   14  A    between atoms: CB_36  and  SG_37 
REMARK   15  A    between atoms: N_40  and  CA_41 
REMARK   16  A    between atoms: CA_41  and  C_42 
REMARK   17  A    between atoms: CA_41  and  CB_44 
REMARK       I    between atoms: C_42  and  N_48 
REMARK   18  A    between atoms: N_48  and  CA_49 
REMARK   19  A    between atoms: CA_49  and  C_50 
ROOT
ATOM      1  C   PRO X1002      17.249  35.876  28.346  1.00 98.27     0.241 C 
ATOM      2  O   PRO X1002      16.661  36.554  27.514  1.00 97.40    -0.271 OA
ATOM      3  N   ALA X1003      18.425  36.216  28.866  1.00 97.43    -0.346 N 
ATOM      4  H   ALA X1003      18.742  35.874  29.589  1.00 97.43     0.163 HD
ENDROOT
BRANCH   3   5
ATOM      5  CA  ALA X1003      19.297  37.216  28.247  1.00 96.73     0.172 C 
ATOM      6  CB  ALA X1003      20.153  37.891  29.294  1.00 96.74     0.042 C 
BRANCH   5   7
ATOM      7  C   ALA X1003      20.152  36.440  27.245  1.00 95.66     0.240 C 
ATOM      8  O   ALA X1003      20.408  35.267  27.466  1.00 95.14    -0.271 OA
ATOM      9  N   CYS X1004      20.618  37.033  26.152  1.00 94.40    -0.345 N 
ATOM     10  H   CYS X1004      20.926  36.572  25.494  1.00 94.40     0.163 HD
BRANCH   9  11
ATOM     11  CA  CYS X1004      20.688  38.471  25.887  1.00 94.17     0.185 C 
BRANCH  11  12
ATOM     12  CB  CYS X1004      21.825  38.696  24.864  1.00 94.12     0.105 C 
BRANCH  12  13
ATOM     13  SG  CYS X1004      22.966  40.025  25.134  1.00 91.26    -0.180 SA
ATOM     14  HG  CYS X1004      23.774  40.046  24.247  1.00 91.26     0.101 HD
ENDBRANCH  12  13
ENDBRANCH  11  12
BRANCH  11  15
ATOM     15  C   CYS X1004      19.370  39.034  25.322  1.00 93.84     0.241 C 
ATOM     16  O   CYS X1004      18.726  38.419  24.486  1.00 93.01    -0.271 OA
ATOM     17  N   VAL X1005      19.009  40.233  25.753  1.00 93.78    -0.346 N 
ATOM     18  H   VAL X1005      19.515  40.735  26.234  1.00 93.78     0.163 HD
BRANCH  17  19
ATOM     19  CA  VAL X1005      17.702  40.824  25.450  1.00 93.73     0.180 C 
BRANCH  19  20
ATOM     20  C   VAL X1005      17.791  41.913  24.373  1.00 93.48     0.241 C 
ATOM     21  N   ALA X1006      16.953  41.801  23.344  1.00 93.27    -0.348 N 
ATOM     22  H   ALA X1006      16.388  41.158  23.263  1.00 93.27     0.163 HD
ATOM     23  O   VAL X1005      18.608  42.822  24.472  1.00 93.20    -0.271 OA
BRANCH  21  24
ATOM     24  CA  ALA X1006      16.911  42.765  22.246  1.00 93.01     0.158 C 
ATOM     25  CB  ALA X1006      17.014  42.054  20.929  1.00 92.79     0.041 C 
BRANCH  24  26
ATOM     26  C   ALA X1006      15.637  43.594  22.296  1.00 92.71     0.219 C 
ATOM     27  O   ALA X1006      14.573  43.106  22.666  1.00 91.80    -0.287 OA
ENDBRANCH  24  26
ENDBRANCH  21  24
ENDBRANCH  19  20
BRANCH  19  28
ATOM     28  CB  VAL X1005      17.065  41.361  26.766  1.00 93.65     0.009 C 
ATOM     29  CG2 VAL X1005      16.337  40.237  27.465  1.00 92.72     0.012 C 
ATOM     30  CG1 VAL X1005      16.161  42.560  26.526  1.00 92.97     0.012 C 
ENDBRANCH  19  28
ENDBRANCH  17  19
ENDBRANCH  11  15
ENDBRANCH   9  11
ENDBRANCH   5   7
ENDBRANCH   3   5
BRANCH   1  31
ATOM     31  CA  PRO X1002      16.619  34.593  28.895  1.00 99.31     0.179 C 
ATOM     32  N   PRO X1002      15.312  34.239  28.335  1.00 99.88    -0.337 N 
ATOM     33  CD  PRO X1002      15.427  33.113  27.403  1.00 99.70     0.127 C 
ATOM     34  C   ASN X1001      14.222  34.898  28.763  1.00100.64     0.243 C 
ATOM     35  CG  PRO X1002      16.533  32.350  28.000  1.00 99.65     0.022 C 
ATOM     36  CB  PRO X1002      17.486  33.384  28.529  1.00 99.37     0.037 C 
ATOM     37  O   ASN X1001      14.293  35.765  29.626  1.00100.22    -0.271 OA
BRANCH  34  38
ATOM     38  CA  ASN X1001      12.846  34.458  28.219  1.00101.23     0.185 C 
BRANCH  38  39
ATOM     39  N   ASN X1001      11.944  34.364  29.376  1.00101.62    -0.345 N 
ATOM     40  C   SER X1000      11.759  33.194  29.992  1.00101.89     0.259 C 
ATOM     41  O   SER X1000      11.958  32.107  29.432  1.00101.60    -0.271 OA
ATOM     42  H   ASN X1001      11.566  35.102  29.605  1.00101.62     0.163 HD
BRANCH  40  43
ATOM     43  CA  SER X1000      11.272  33.234  31.448  1.00101.91     0.423 C 
ATOM     44  N   SER X1000      11.687  34.483  32.140  1.00101.55     0.617 N 
BRANCH  43  45
ATOM     45  CB  SER X1000       9.758  33.055  31.537  1.00101.96     0.215 C 
BRANCH  45  46
ATOM     46  OG  SER X1000       9.317  31.888  30.864  1.00101.15    -0.398 OA
ATOM     47  HG  SER X1000       8.483  31.822  30.935  1.00101.15     0.209 HD
ENDBRANCH  45  46
ENDBRANCH  43  45
ENDBRANCH  40  43
ENDBRANCH  38  39
BRANCH  38  48
ATOM     48  CB  ASN X1001      12.256  35.333  27.084  1.00101.08     0.137 C 
BRANCH  48  49
ATOM     49  CG  ASN X1001      12.887  36.726  26.959  1.00100.04     0.217 C 
ATOM     50  ND2 ASN X1001      14.203  36.795  26.869  1.00 98.76    -0.370 N 
ATOM     51 1HD2 ASN X1001      14.587  37.556  26.758  1.00 98.76     0.159 HD
ATOM     52 2HD2 ASN X1001      14.676  36.078  26.921  1.00 98.76     0.159 HD
ATOM     53  OD1 ASN X1001      12.177  37.719  26.890  1.00 97.91    -0.274 OA
ENDBRANCH  48  49
ENDBRANCH  38  48
ENDBRANCH  34  38
ENDBRANCH   1  31
TORSDOF 19
