REMARK  27 active torsions:
REMARK  status: ('A' for Active; 'I' for Inactive)
REMARK    1  A    between atoms: CA_2  and  CB_5 
REMARK    2  A    between atoms: CA_2  and  C_3 
REMARK       I    between atoms: C_3  and  N_12 
REMARK    3  A    between atoms: CB_5  and  CG_6 
REMARK    4  A    between atoms: N_12  and  CA_13 
REMARK    5  A    between atoms: CA_13  and  CB_16 
REMARK    6  A    between atoms: CA_13  and  C_14 
REMARK       I    between atoms: C_14  and  N_29 
REMARK    7  A    between atoms: CB_16  and  CG_17 
REMARK    8  A    between atoms: CG_17  and  CD_18 
REMARK    9  A    between atoms: CD_18  and  NE_19 
REMARK       I    between atoms: NE_19  and  CZ_20 
REMARK       I    between atoms: CZ_20  and  NH1_21 
REMARK   10  A    between atoms: N_29  and  CA_30 
REMARK   11  A    between atoms: CA_30  and  C_31 
REMARK   12  A    between atoms: CA_30  and  CB_33 
REMARK       I    between atoms: C_31  and  N_37 
REMARK   13  A    between atoms: CB_33  and  OG_34 
REMARK   14  A    between atoms: N_37  and  CA_38 
REMARK   15  A    between atoms: CA_38  and  CB_41 
REMARK   16  A    between atoms: CA_38  and  C_39 
REMARK       I    between atoms: C_39  and  N_50 
REMARK   17  A    between atoms: CB_41  and  CG_42 
REMARK   18  A    between atoms: CG_42  and  CD_43 
REMARK   19  A    between atoms: CD_43  and  CE_44 
REMARK   20  A    between atoms: CE_44  and  NZ_45 
REMARK   21  A    between atoms: N_50  and  CA_51 
REMARK   22  A    between atoms: CA_51  and  C_52 
REMARK       I    between atoms: C_52  and  N_55 
REMARK   23  A    between atoms: N_55  and  CA_56 
REMARK   24  A    between atoms: CA_56  and  CB_59 
REMARK   25  A    between atoms: CA_56  and  C_57 
REMARK   26  A    between atoms: CB_59  and  CG_60 
REMARK   27  A    between atoms: CG_60  and  CD_61 
ROOT
ATOM      1  CA  SER D 109     -12.823  -4.052  13.411  1.00 42.91     0.200 C 
ENDROOT
BRANCH   1   2
ATOM      2  C   SER D 109     -14.229  -4.543  13.124  1.00 45.81     0.243 C 
ATOM      3  O   SER D 109     -15.131  -3.743  12.880  1.00 48.15    -0.271 OA
ATOM      4  N   LYS D 110     -14.431  -5.855  13.169  1.00 56.31    -0.346 N 
ATOM      5  H   LYS D 110     -13.861  -6.433  13.454  1.00 56.31     0.163 HD
BRANCH   4   6
ATOM      6  CA  LYS D 110     -15.709  -6.407  12.708  1.00 51.35     0.176 C 
BRANCH   6   7
ATOM      7  CB  LYS D 110     -15.450  -7.507  11.672  1.00 62.96     0.035 C 
BRANCH   7   8
ATOM      8  CG  LYS D 110     -14.733  -6.977  10.439  1.00 63.09     0.004 C 
BRANCH   8   9
ATOM      9  CD  LYS D 110     -14.389  -8.073   9.438  1.00 65.88     0.027 C 
BRANCH   9  10
ATOM     10  CE  LYS D 110     -13.528  -7.507   8.305  1.00 57.43     0.229 C 
BRANCH  10  11
ATOM     11  NZ  LYS D 110     -13.362  -8.472   7.186  1.00 66.24    -0.079 N 
ATOM     12  HZ3 LYS D 110     -14.160  -8.677   6.849  1.00 66.24     0.274 HD
ATOM     13  HZ1 LYS D 110     -12.857  -8.106   6.551  1.00 66.24     0.274 HD
ATOM     14  HZ2 LYS D 110     -12.969  -9.212   7.487  1.00 66.24     0.274 HD
ENDBRANCH  10  11
ENDBRANCH   9  10
ENDBRANCH   8   9
ENDBRANCH   7   8
ENDBRANCH   6   7
BRANCH   6  15
ATOM     15  C   LYS D 110     -16.808  -6.826  13.720  1.00 56.31     0.240 C 
ATOM     16  N   GLY D 111     -16.491  -7.069  14.994  1.00 59.27    -0.351 N 
ATOM     17  H   GLY D 111     -17.066  -7.373  15.556  1.00 59.27     0.163 HD
ATOM     18  O   LYS D 110     -17.973  -6.903  13.334  1.00 65.56    -0.271 OA
BRANCH  16  19
ATOM     19  CA  GLY D 111     -15.186  -6.864  15.590  1.00 50.66     0.225 C 
BRANCH  19  20
ATOM     20  C   GLY D 111     -15.225  -5.628  16.479  1.00 62.91     0.235 C 
ATOM     21  N   GLU D 112     -15.037  -5.780  17.794  1.00 61.49    -0.348 N 
ATOM     22  H   GLU D 112     -14.985  -5.111  18.332  1.00 61.49     0.163 HD
ATOM     23  O   GLY D 111     -15.466  -4.522  15.968  1.00 69.91    -0.272 OA
BRANCH  21  24
ATOM     24  CA  GLU D 112     -14.899  -7.074  18.476  1.00 68.08     0.163 C 
BRANCH  24  25
ATOM     25  CB  GLU D 112     -16.270  -7.653  18.835  1.00 70.52     0.044 C 
BRANCH  25  26
ATOM     26  CG  GLU D 112     -16.924  -6.981  20.025  1.00 75.61     0.116 C 
BRANCH  26  27
ATOM     27  CD  GLU D 112     -18.042  -7.811  20.619  1.00 80.23     0.172 C 
ATOM     28  OE2 GLU D 112     -18.321  -7.657  21.829  1.00 75.53    -0.648 OA
ATOM     29  OE1 GLU D 112     -18.643  -8.608  19.871  1.00 82.12    -0.648 OA
ENDBRANCH  26  27
ENDBRANCH  25  26
ENDBRANCH  24  25
BRANCH  24  30
ATOM     30  C   GLU D 112     -14.042  -8.128  17.782  1.00 62.49     0.219 C 
ATOM     31  O   GLU D 112     -14.153  -9.321  18.079  1.00 75.48    -0.287 OA
ENDBRANCH  24  30
ENDBRANCH  21  24
ENDBRANCH  19  20
ENDBRANCH  16  19
ENDBRANCH   6  15
ENDBRANCH   4   6
ENDBRANCH   1   2
BRANCH   1  32
ATOM     32  CB  SER D 109     -12.370  -4.544  14.780  1.00 41.32     0.199 C 
BRANCH  32  33
ATOM     33  OG  SER D 109     -12.890  -3.719  15.809  1.00 47.11    -0.398 OA
ATOM     34  HG  SER D 109     -13.722  -3.648  15.718  1.00 47.11     0.209 HD
ENDBRANCH  32  33
ENDBRANCH   1  32
BRANCH   1  35
ATOM     35  N   SER D 109     -12.737  -2.586  13.307  1.00 33.49    -0.344 N 
ATOM     36  H   SER D 109     -13.009  -2.156  14.000  1.00 33.49     0.163 HD
ATOM     37  C   ARG D 108     -12.265  -2.014  12.200  1.00 29.49     0.241 C 
ATOM     38  O   ARG D 108     -11.755  -2.653  11.276  1.00 22.63    -0.271 OA
BRANCH  37  39
ATOM     39  CA  ARG D 108     -12.352  -0.505  12.124  1.00 38.27     0.176 C 
BRANCH  39  40
ATOM     40  N   ARG D 108     -11.233   0.070  11.367  1.00 22.07    -0.346 N 
ATOM     41  H   ARG D 108     -11.066  -0.307  10.612  1.00 22.07     0.163 HD
ATOM     42  C   PHE D 107     -10.568   1.096  11.866  1.00 20.48     0.257 C 
ATOM     43  O   PHE D 107     -10.897   1.629  12.913  1.00 25.48    -0.271 OA
BRANCH  42  44
ATOM     44  CA  PHE D 107      -9.378   1.634  11.081  1.00 18.28     0.404 C 
ATOM     45  N   PHE D 107      -8.655   2.564  11.923  1.00 19.80     0.615 N 
BRANCH  44  46
ATOM     46  CB  PHE D 107      -8.456   0.520  10.632  1.00 13.52     0.089 C 
BRANCH  46  47
ATOM     47  CG  PHE D 107      -7.216   1.007   9.944  1.00 17.60    -0.056 A 
ATOM     48  CD1 PHE D 107      -7.292   1.676   8.723  1.00 15.50     0.007 A 
ATOM     49  CE1 PHE D 107      -6.138   2.133   8.099  1.00 13.30     0.001 A 
ATOM     50  CZ  PHE D 107      -4.883   1.890   8.649  1.00 10.86     0.000 A 
ATOM     51  CE2 PHE D 107      -4.790   1.242   9.859  1.00 17.40     0.001 A 
ATOM     52  CD2 PHE D 107      -5.954   0.794  10.510  1.00 18.44     0.007 A 
ENDBRANCH  46  47
ENDBRANCH  44  46
ENDBRANCH  42  44
ENDBRANCH  39  40
BRANCH  39  53
ATOM     53  CB  ARG D 108     -13.712  -0.080  11.552  1.00 35.28     0.036 C 
BRANCH  53  54
ATOM     54  CG  ARG D 108     -13.937  -0.351  10.075  1.00 41.69     0.023 C 
BRANCH  54  55
ATOM     55  CD  ARG D 108     -14.584  -1.734   9.786  1.00 52.08     0.138 C 
BRANCH  55  56
ATOM     56  NE  ARG D 108     -15.918  -1.929  10.363  1.00 57.02    -0.227 N 
ATOM     57  CZ  ARG D 108     -16.787  -2.866   9.965  1.00 70.73     0.665 C 
ATOM     58  NH1 ARG D 108     -16.483  -3.691   8.961  1.00 60.72    -0.235 N 
ATOM     59  NH2 ARG D 108     -17.975  -2.974  10.563  1.00 54.42    -0.235 N 
ATOM     60 HH12 ARG D 108     -17.047  -4.290   8.711  1.00 60.72     0.174 HD
ATOM     61 HH11 ARG D 108     -15.723  -3.623   8.564  1.00 60.72     0.174 HD
ATOM     62 HH22 ARG D 108     -18.532  -3.576  10.306  1.00 54.42     0.174 HD
ATOM     63 HH21 ARG D 108     -18.183  -2.441  11.205  1.00 54.42     0.174 HD
ATOM     64  HE  ARG D 108     -16.159  -1.405  11.001  1.00 57.02     0.177 HD
ENDBRANCH  55  56
ENDBRANCH  54  55
ENDBRANCH  53  54
ENDBRANCH  39  53
ENDBRANCH  37  39
ENDBRANCH   1  35
TORSDOF 27
