REMARK  21 active torsions:
REMARK  status: ('A' for Active; 'I' for Inactive)
REMARK    1  A    between atoms: CA_2  and  C_3 
REMARK    2  A    between atoms: CA_2  and  CB_5 
REMARK       I    between atoms: C_3  and  N_9 
REMARK    3  A    between atoms: CB_5  and  CG_6 
REMARK    4  A    between atoms: N_9  and  CA_10 
REMARK    5  A    between atoms: CA_10  and  CB_13 
REMARK    6  A    between atoms: CA_10  and  C_11 
REMARK       I    between atoms: C_11  and  N_23 
REMARK    7  A    between atoms: CB_13  and  CG_14 
REMARK    8  A    between atoms: CZ_19  and  OH_20 
REMARK    9  A    between atoms: N_23  and  CA_24 
REMARK   10  A    between atoms: CA_24  and  C_25 
REMARK   11  A    between atoms: CA_24  and  CB_27 
REMARK       I    between atoms: C_25  and  N_33 
REMARK   12  A    between atoms: CB_27  and  CG_28 
REMARK   13  A    between atoms: CG_28  and  CD_29 
REMARK   14  A    between atoms: CA_34  and  C_35 
REMARK       I    between atoms: C_35  and  N_40 
REMARK   15  A    between atoms: N_40  and  CA_41 
REMARK   16  A    between atoms: CA_41  and  CB_44 
REMARK   17  A    between atoms: CA_41  and  C_42 
REMARK       I    between atoms: C_42  and  N_50 
REMARK   18  A    between atoms: CB_44  and  CG_45 
REMARK   19  A    between atoms: CG_45  and  CD_46 
REMARK   20  A    between atoms: N_50  and  CA_51 
REMARK   21  A    between atoms: CA_51  and  C_52 
ROOT
ATOM      1  CA  GLU B 137     -34.861  16.674   3.642  1.00 17.35     0.177 C 
ENDROOT
BRANCH   1   2
ATOM      2  C   GLU B 137     -34.364  15.395   2.939  1.00 17.61     0.243 C 
ATOM      3  O   GLU B 137     -34.655  14.295   3.400  1.00 18.66    -0.271 OA
ATOM      4  N   PRO B 138     -33.589  15.526   1.839  1.00 16.89    -0.337 N 
ATOM      5  CD  PRO B 138     -33.157  16.787   1.204  1.00 17.79     0.127 C 
ATOM      6  CA  PRO B 138     -33.021  14.337   1.195  1.00 17.53     0.179 C 
ATOM      7  CG  PRO B 138     -32.026  16.364   0.264  1.00 17.78     0.022 C 
ATOM      8  CB  PRO B 138     -32.374  14.891  -0.086  1.00 16.48     0.037 C 
BRANCH   6   9
ATOM      9  C   PRO B 138     -31.940  13.696   2.067  1.00 16.18     0.241 C 
ATOM     10  N   GLU B 139     -31.735  12.414   1.849  1.00 18.61    -0.346 N 
ATOM     11  H   GLU B 139     -32.234  11.913   1.359  1.00 18.61     0.163 HD
ATOM     12  O   PRO B 138     -31.290  14.377   2.876  1.00 15.80    -0.271 OA
BRANCH  10  13
ATOM     13  CA  GLU B 139     -30.594  11.748   2.459  1.00 18.29     0.177 C 
BRANCH  13  14
ATOM     14  CB  GLU B 139     -30.605  10.251   2.125  1.00 20.66     0.045 C 
BRANCH  14  15
ATOM     15  CG  GLU B 139     -31.918   9.564   2.542  1.00 25.98     0.116 C 
BRANCH  15  16
ATOM     16  CD  GLU B 139     -32.180   9.643   4.051  1.00 26.03     0.172 C 
ATOM     17  OE2 GLU B 139     -33.312  10.018   4.451  1.00 30.93    -0.648 OA
ATOM     18  OE1 GLU B 139     -31.246   9.388   4.824  1.00 28.23    -0.648 OA
ENDBRANCH  15  16
ENDBRANCH  14  15
ENDBRANCH  13  14
BRANCH  13  19
ATOM     19  C   GLU B 139     -29.302  12.439   2.032  1.00 18.24     0.241 C 
ATOM     20  O   GLU B 139     -29.146  12.923   0.890  1.00 18.84    -0.271 OA
ATOM     21  N   ALA B 140     -28.348  12.446   2.946  1.00 17.91    -0.345 N 
ATOM     22  H   ALA B 140     -28.396  12.046   3.706  1.00 17.91     0.163 HD
BRANCH  21  23
ATOM     23  CA  ALA B 140     -27.105  13.164   2.706  1.00 17.23     0.181 C 
ATOM     24  CB  ALA B 140     -26.388  13.496   4.009  1.00 16.99     0.043 C 
BRANCH  23  25
ATOM     25  C   ALA B 140     -26.187  12.387   1.767  1.00 18.72     0.196 C 
ATOM     26  O   ALA B 140     -26.264  11.143   1.688  1.00 21.33    -0.646 OA
ATOM     27  OXT ALA B 140     -25.403  13.038   1.054  1.00 18.51    -0.646 OA
ENDBRANCH  23  25
ENDBRANCH  21  23
ENDBRANCH  13  19
ENDBRANCH  10  13
ENDBRANCH   6   9
ENDBRANCH   1   2
BRANCH   1  28
ATOM     28  CB  GLU B 137     -34.130  16.812   4.979  1.00 18.04     0.045 C 
BRANCH  28  29
ATOM     29  CG  GLU B 137     -32.653  17.080   4.791  1.00 15.54     0.116 C 
BRANCH  29  30
ATOM     30  CD  GLU B 137     -31.913  17.166   6.125  1.00 15.60     0.172 C 
ATOM     31  OE1 GLU B 137     -32.572  17.391   7.178  1.00 18.63    -0.648 OA
ATOM     32  OE2 GLU B 137     -30.684  16.989   6.092  1.00 16.09    -0.648 OA
ENDBRANCH  29  30
ENDBRANCH  28  29
ENDBRANCH   1  28
BRANCH   1  33
ATOM     33  N   GLU B 137     -36.275  16.571   3.932  1.00 19.05    -0.346 N 
ATOM     34  C   TYR B 136     -37.154  16.861   2.998  1.00 22.23     0.241 C 
ATOM     35  O   TYR B 136     -36.849  17.144   1.846  1.00 24.10    -0.271 OA
ATOM     36  H   GLU B 137     -36.470  16.316   4.730  1.00 19.05     0.163 HD
BRANCH  34  37
ATOM     37  CA  TYR B 136     -38.578  16.784   3.423  1.00 22.42     0.180 C 
BRANCH  37  38
ATOM     38  CB  TYR B 136     -39.423  16.623   2.199  1.00 19.45     0.073 C 
BRANCH  38  39
ATOM     39  CG  TYR B 136     -40.872  16.414   2.574  1.00 15.32    -0.056 A 
ATOM     40  CD1 TYR B 136     -41.281  15.335   3.388  1.00 18.49     0.010 A 
ATOM     41  CE1 TYR B 136     -42.652  15.091   3.621  1.00 17.90     0.037 A 
ATOM     42  CZ  TYR B 136     -43.596  15.940   3.049  1.00 15.67     0.065 A 
ATOM     43  CE2 TYR B 136     -43.192  17.031   2.293  1.00 13.07     0.037 A 
ATOM     44  CD2 TYR B 136     -41.861  17.249   2.036  1.00 14.55     0.010 A 
BRANCH  42  45
ATOM     45  OH  TYR B 136     -44.912  15.709   3.300  1.00 15.32    -0.361 OA
ATOM     46  HH  TYR B 136     -45.378  16.284   2.903  1.00 15.32     0.217 HD
ENDBRANCH  42  45
ENDBRANCH  38  39
ENDBRANCH  37  38
BRANCH  37  47
ATOM     47  N   TYR B 136     -38.971  18.001   4.094  1.00 26.32    -0.345 N 
ATOM     48  C   ASP B 135     -39.337  17.984   5.368  1.00 34.01     0.258 C 
ATOM     49  O   ASP B 135     -39.615  16.938   5.968  1.00 37.29    -0.271 OA
ATOM     50  H   TYR B 136     -38.945  18.708   3.605  1.00 26.32     0.163 HD
BRANCH  48  51
ATOM     51  CA  ASP B 135     -39.398  19.356   6.078  1.00 37.28     0.409 C 
ATOM     52  N   ASP B 135     -40.787  19.868   6.170  1.00 36.58     0.615 N 
BRANCH  51  53
ATOM     53  CB  ASP B 135     -38.779  19.263   7.481  1.00 38.83     0.164 C 
BRANCH  53  54
ATOM     54  CG  ASP B 135     -37.312  18.818   7.449  1.00 44.23     0.175 C 
ATOM     55  OD2 ASP B 135     -36.942  17.930   8.260  1.00 49.44    -0.648 OA
ATOM     56  OD1 ASP B 135     -36.541  19.350   6.608  1.00 41.19    -0.648 OA
ENDBRANCH  53  54
ENDBRANCH  51  53
ENDBRANCH  48  51
ENDBRANCH  37  47
ENDBRANCH  34  37
ENDBRANCH   1  33
TORSDOF 21
