REMARK  17 active torsions:
REMARK  status: ('A' for Active; 'I' for Inactive)
REMARK    1  A    between atoms: N_1  and  CA_2 
REMARK    2  A    between atoms: CA_2  and  CB_5 
REMARK    3  A    between atoms: CA_2  and  C_3 
REMARK       I    between atoms: C_3  and  N_12 
REMARK    4  A    between atoms: CB_5  and  CG1_6 
REMARK    5  A    between atoms: N_12  and  CA_13 
REMARK    6  A    between atoms: CA_13  and  CB_16 
REMARK    7  A    between atoms: CA_13  and  C_14 
REMARK       I    between atoms: C_14  and  N_22 
REMARK    8  A    between atoms: CB_16  and  CG_17 
REMARK    9  A    between atoms: CG_17  and  CD_18 
REMARK   10  A    between atoms: N_22  and  CA_23 
REMARK   11  A    between atoms: CA_23  and  C_24 
REMARK   12  A    between atoms: CA_23  and  CB_26 
REMARK       I    between atoms: C_24  and  N_31 
REMARK   13  A    between atoms: CB_26  and  OG1_27 
REMARK   14  A    between atoms: N_31  and  CA_32 
REMARK   15  A    between atoms: CA_32  and  CB_35 
REMARK   16  A    between atoms: CA_32  and  C_33 
REMARK   17  A    between atoms: CB_35  and  CG_36 
ROOT
ATOM      1  C   GLU G   2      16.412   6.262 -35.157  1.00 25.53     0.241 C 
ATOM      2  O   GLU G   2      15.270   5.821 -35.108  1.00 27.72    -0.271 OA
ATOM      3  N   THR G   3      16.691   7.555 -35.049  1.00 24.80    -0.344 N 
ATOM      4  H   THR G   3      17.486   7.882 -35.078  1.00 24.80     0.163 HD
ENDROOT
BRANCH   1   5
ATOM      5  CA  GLU G   2      17.600   5.334 -35.351  1.00 28.49     0.177 C 
BRANCH   5   6
ATOM      6  N   GLU G   2      17.329   3.974 -34.892  1.00 29.38    -0.346 N 
ATOM      7  H   GLU G   2      16.671   3.586 -35.288  1.00 29.38     0.163 HD
ATOM      8  C   ILE G   1      18.062   3.412 -33.935  1.00 32.49     0.249 C 
ATOM      9  O   ILE G   1      18.998   3.990 -33.391  1.00 35.08    -0.271 OA
BRANCH   8  10
ATOM     10  CA  ILE G   1      17.677   1.994 -33.520  1.00 40.53     0.278 C 
BRANCH  10  11
ATOM     11  CB  ILE G   1      18.570   0.971 -34.256  1.00 45.86     0.021 C 
ATOM     12  CG2 ILE G   1      18.711   1.329 -35.708  1.00 44.63     0.012 C 
BRANCH  11  13
ATOM     13  CG1 ILE G   1      19.961   0.900 -33.625  1.00 53.07     0.002 C 
ATOM     14  CD1 ILE G   1      20.915  -0.005 -34.382  1.00 50.29     0.005 C 
ENDBRANCH  11  13
ENDBRANCH  10  11
BRANCH  10  15
ATOM     15  N   ILE G   1      16.264   1.755 -33.773  1.00 42.16    -0.066 N 
ATOM     16  H3  ILE G   1      16.120   1.728 -34.651  1.00 42.16     0.275 HD
ATOM     17  H1  ILE G   1      16.024   0.979 -33.410  1.00 42.16     0.275 HD
ATOM     18  H2  ILE G   1      15.783   2.412 -33.413  1.00 42.16     0.275 HD
ENDBRANCH  10  15
ENDBRANCH   8  10
ENDBRANCH   5   6
BRANCH   5  19
ATOM     19  CB  GLU G   2      18.011   5.332 -36.818  1.00 31.40     0.045 C 
BRANCH  19  20
ATOM     20  CG  GLU G   2      19.222   4.479 -37.090  1.00 29.13     0.116 C 
BRANCH  20  21
ATOM     21  CD  GLU G   2      19.772   4.691 -38.472  1.00 32.73     0.172 C 
ATOM     22  OE2 GLU G   2      20.839   4.117 -38.769  1.00 36.24    -0.648 OA
ATOM     23  OE1 GLU G   2      19.141   5.432 -39.257  1.00 30.62    -0.648 OA
ENDBRANCH  20  21
ENDBRANCH  19  20
ENDBRANCH   5  19
ENDBRANCH   1   5
BRANCH   3  24
ATOM     24  CA  THR G   3      15.637   8.540 -34.869  1.00 22.88     0.205 C 
BRANCH  24  25
ATOM     25  C   THR G   3      15.415   9.327 -36.150  1.00 24.60     0.243 C 
ATOM     26  N   ASP G   4      14.216   9.869 -36.302  1.00 24.15    -0.347 N 
ATOM     27  H   ASP G   4      13.579   9.801 -35.729  1.00 24.15     0.163 HD
ATOM     28  O   THR G   3      16.310   9.445 -36.983  1.00 25.42    -0.271 OA
BRANCH  26  29
ATOM     29  CA  ASP G   4      13.884  10.643 -37.491  1.00 27.29     0.172 C 
BRANCH  29  30
ATOM     30  CB  ASP G   4      12.476  10.300 -37.968  1.00 26.38     0.146 C 
BRANCH  30  31
ATOM     31  CG  ASP G   4      12.460   9.060 -38.829  1.00 24.82     0.174 C 
ATOM     32  OD2 ASP G   4      11.418   8.377 -38.921  1.00 25.35    -0.648 OA
ATOM     33  OD1 ASP G   4      13.512   8.773 -39.423  1.00 26.55    -0.648 OA
ENDBRANCH  30  31
ENDBRANCH  29  30
BRANCH  29  34
ATOM     34  C   ASP G   4      14.055  12.148 -37.292  1.00 29.06     0.220 C 
ATOM     35  O   ASP G   4      13.174  12.935 -37.623  1.00 23.21    -0.287 OA
ENDBRANCH  29  34
ENDBRANCH  26  29
ENDBRANCH  24  25
BRANCH  24  36
ATOM     36  CB  THR G   3      15.959   9.513 -33.728  1.00 24.93     0.146 C 
ATOM     37  CG2 THR G   3      16.156   8.756 -32.425  1.00 25.23     0.042 C 
BRANCH  36  38
ATOM     38  OG1 THR G   3      17.147  10.246 -34.046  1.00 25.78    -0.393 OA
ATOM     39  HG1 THR G   3      17.818   9.833 -33.755  1.00 25.78     0.210 HD
ENDBRANCH  36  38
ENDBRANCH  24  36
ENDBRANCH   3  24
TORSDOF 17
