REMARK  27 active torsions:
REMARK  status: ('A' for Active; 'I' for Inactive)
REMARK    1  A    between atoms: CA_2  and  C_3 
REMARK    2  A    between atoms: CA_2  and  CB_5 
REMARK       I    between atoms: C_3  and  N_9 
REMARK    3  A    between atoms: CB_5  and  CG_6 
REMARK    4  A    between atoms: N_9  and  CA_10 
REMARK    5  A    between atoms: CA_10  and  C_11 
REMARK    6  A    between atoms: CA_10  and  CB_13 
REMARK       I    between atoms: C_11  and  N_18 
REMARK    7  A    between atoms: CB_13  and  CG_14 
REMARK    8  A    between atoms: N_18  and  CA_19 
REMARK    9  A    between atoms: CA_19  and  C_20 
REMARK   10  A    between atoms: CA_19  and  CB_22 
REMARK       I    between atoms: C_20  and  N_34 
REMARK   11  A    between atoms: CB_22  and  CG_23 
REMARK   12  A    between atoms: N_34  and  CA_35 
REMARK   13  A    between atoms: CA_35  and  C_36 
REMARK   14  A    between atoms: CA_35  and  CB_38 
REMARK       I    between atoms: C_36  and  N_43 
REMARK   15  A    between atoms: CB_38  and  OG1_39 
REMARK   16  A    between atoms: N_43  and  CA_44 
REMARK   17  A    between atoms: CA_44  and  C_45 
REMARK   18  A    between atoms: CA_44  and  CB_47 
REMARK       I    between atoms: C_45  and  N_54 
REMARK   19  A    between atoms: CB_47  and  CG_48 
REMARK   20  A    between atoms: N_54  and  CA_55 
REMARK   21  A    between atoms: CA_55  and  C_56 
REMARK   22  A    between atoms: CA_55  and  CB_58 
REMARK       I    between atoms: C_56  and  N_63 
REMARK   23  A    between atoms: CB_58  and  CG_59 
REMARK   24  A    between atoms: N_63  and  CA_64 
REMARK   25  A    between atoms: CA_64  and  C_65 
REMARK   26  A    between atoms: CA_64  and  CB_67 
REMARK   27  A    between atoms: CB_67  and  OG_68 
ROOT
ATOM      1  C   TRP D 340      23.557  36.792  81.903  1.00 16.52     0.241 C 
ATOM      2  O   TRP D 340      22.785  37.590  82.440  1.00 16.60    -0.271 OA
ATOM      3  N   THR D 341      23.548  36.538  80.601  1.00 13.22    -0.344 N 
ATOM      4  H   THR D 341      24.094  35.988  80.228  1.00 13.22     0.163 HD
ENDROOT
BRANCH   3   5
ATOM      5  CA  THR D 341      22.620  37.157  79.666  1.00 12.53     0.205 C 
BRANCH   5   6
ATOM      6  C   THR D 341      21.605  36.128  79.171  1.00 12.10     0.243 C 
ATOM      7  O   THR D 341      21.956  35.164  78.493  1.00 10.92    -0.271 OA
ATOM      8  N   HIS D 342      20.343  36.317  79.536  1.00 12.26    -0.346 N 
ATOM      9  H   HIS D 342      20.076  36.963  80.037  1.00 12.26     0.163 HD
BRANCH   8  10
ATOM     10  CA  HIS D 342      19.286  35.411  79.098  1.00 12.78     0.182 C 
BRANCH  10  11
ATOM     11  C   HIS D 342      18.853  35.795  77.699  1.00 14.51     0.241 C 
ATOM     12  N   LEU D 343      18.773  34.814  76.804  1.00 15.48    -0.346 N 
ATOM     13  H   LEU D 343      18.886  33.983  76.994  1.00 15.48     0.163 HD
ATOM     14  O   HIS D 342      18.577  36.979  77.433  1.00 16.02    -0.271 OA
BRANCH  12  15
ATOM     15  CA  LEU D 343      18.479  35.075  75.393  1.00 16.72     0.177 C 
BRANCH  15  16
ATOM     16  C   LEU D 343      17.074  34.659  74.964  1.00 19.19     0.241 C 
ATOM     17  N   SER D 344      16.524  35.347  73.950  1.00 21.37    -0.345 N 
ATOM     18  H   SER D 344      16.833  36.100  73.673  1.00 21.37     0.163 HD
ATOM     19  O   LEU D 343      16.511  33.736  75.529  1.00 19.56    -0.271 OA
BRANCH  17  20
ATOM     20  CA  SER D 344      15.332  34.885  73.202  1.00 23.14     0.186 C 
BRANCH  20  21
ATOM     21  C   SER D 344      15.363  35.385  71.751  1.00 24.18     0.221 C 
ATOM     22  O   SER D 344      14.424  35.151  70.970  1.00 25.35    -0.287 OA
ENDBRANCH  20  21
BRANCH  20  23
ATOM     23  CB  SER D 344      14.035  35.355  73.864  1.00 23.66     0.197 C 
BRANCH  23  24
ATOM     24  OG  SER D 344      13.868  36.768  73.732  1.00 25.03    -0.398 OA
ATOM     25  HG  SER D 344      13.150  37.001  74.101  1.00 25.03     0.209 HD
ENDBRANCH  23  24
ENDBRANCH  20  23
ENDBRANCH  17  20
ENDBRANCH  15  16
BRANCH  15  26
ATOM     26  CB  LEU D 343      19.486  34.345  74.487  1.00 15.83     0.038 C 
BRANCH  26  27
ATOM     27  CG  LEU D 343      20.915  34.849  74.515  1.00 14.86    -0.020 C 
ATOM     28  CD1 LEU D 343      21.786  33.991  73.611  1.00 12.95     0.009 C 
ATOM     29  CD2 LEU D 343      20.965  36.339  74.089  1.00 12.95     0.009 C 
ENDBRANCH  26  27
ENDBRANCH  15  26
ENDBRANCH  12  15
ENDBRANCH  10  11
BRANCH  10  30
ATOM     30  CB  HIS D 342      18.081  35.502  80.047  1.00 12.90     0.095 C 
BRANCH  30  31
ATOM     31  CG  HIS D 342      18.353  34.972  81.417  1.00 12.99     0.056 A 
ATOM     32  CD2 HIS D 342      17.806  33.922  82.076  1.00 12.88     0.145 A 
ATOM     33  NE2 HIS D 342      18.403  33.864  83.310  1.00 14.80    -0.252 NA
ATOM     34  CE1 HIS D 342      19.280  34.843  83.413  1.00 13.21     0.232 A 
ATOM     35  ND1 HIS D 342      19.265  35.532  82.286  1.00 14.49    -0.245 NA
ENDBRANCH  30  31
ENDBRANCH  10  30
ENDBRANCH   8  10
ENDBRANCH   5   6
BRANCH   5  36
ATOM     36  CB  THR D 341      23.382  37.778  78.472  1.00 12.70     0.146 C 
ATOM     37  CG2 THR D 341      22.417  38.424  77.460  1.00 14.15     0.042 C 
BRANCH  36  38
ATOM     38  OG1 THR D 341      24.308  38.756  78.964  1.00 14.08    -0.393 OA
ATOM     39  HG1 THR D 341      24.986  38.369  79.273  1.00 14.08     0.210 HD
ENDBRANCH  36  38
ENDBRANCH   5  36
ENDBRANCH   3   5
BRANCH   1  40
ATOM     40  CA  TRP D 340      24.554  35.995  82.736  1.00 18.72     0.181 C 
BRANCH  40  41
ATOM     41  CB  TRP D 340      23.798  34.851  83.410  1.00 19.00     0.075 C 
BRANCH  41  42
ATOM     42  CG  TRP D 340      24.652  33.897  84.169  1.00 19.22    -0.028 A 
ATOM     43  CD2 TRP D 340      25.199  32.676  83.677  1.00 20.18    -0.002 A 
ATOM     44  CE3 TRP D 340      25.161  32.029  82.436  1.00 18.70     0.014 A 
ATOM     45  CE2 TRP D 340      25.906  32.075  84.743  1.00 18.84     0.042 A 
ATOM     46  CZ3 TRP D 340      25.821  30.810  82.298  1.00 20.55     0.001 A 
ATOM     47  CH2 TRP D 340      26.521  30.245  83.380  1.00 19.52     0.002 A 
ATOM     48  CZ2 TRP D 340      26.572  30.856  84.606  1.00 19.79     0.030 A 
ATOM     49  NE1 TRP D 340      25.794  32.900  85.833  1.00 21.77    -0.365 N 
ATOM     50  CD1 TRP D 340      25.024  33.986  85.479  1.00 20.48     0.096 A 
ATOM     51  HE1 TRP D 340      26.145  32.763  86.606  1.00 21.77     0.165 HD
ENDBRANCH  41  42
ENDBRANCH  40  41
BRANCH  40  52
ATOM     52  N   TRP D 340      25.217  36.834  83.741  1.00 22.23    -0.346 N 
ATOM     53  C   ASP D 339      26.441  37.332  83.571  1.00 26.49     0.241 C 
ATOM     54  O   ASP D 339      27.120  37.137  82.548  1.00 27.22    -0.271 OA
ATOM     55  H   TRP D 340      24.744  36.973  84.445  1.00 22.23     0.163 HD
BRANCH  53  56
ATOM     56  CA  ASP D 339      26.998  38.177  84.722  1.00 29.46     0.186 C 
BRANCH  56  57
ATOM     57  CB  ASP D 339      26.913  39.660  84.352  1.00 30.27     0.147 C 
BRANCH  57  58
ATOM     58  CG  ASP D 339      27.666  40.568  85.329  1.00 32.94     0.175 C 
ATOM     59  OD1 ASP D 339      27.060  41.560  85.787  1.00 36.53    -0.648 OA
ATOM     60  OD2 ASP D 339      28.858  40.306  85.628  1.00 35.99    -0.648 OA
ENDBRANCH  57  58
ENDBRANCH  56  57
BRANCH  56  61
ATOM     61  N   ASP D 339      28.386  37.827  85.010  1.00 31.22    -0.345 N 
ATOM     62  C   ASP D 338      28.759  37.096  86.059  1.00 32.92     0.258 C 
ATOM     63  O   ASP D 338      27.970  36.465  86.771  1.00 33.60    -0.271 OA
ATOM     64  H   ASP D 339      28.944  38.139  84.435  1.00 31.22     0.163 HD
BRANCH  62  65
ATOM     65  CA  ASP D 338      30.263  37.050  86.328  1.00 33.82     0.409 C 
ATOM     66  N   ASP D 338      31.011  37.867  85.319  1.00 34.02     0.615 N 
BRANCH  65  67
ATOM     67  CB  ASP D 338      30.562  37.542  87.753  1.00 34.49     0.164 C 
BRANCH  67  68
ATOM     68  CG  ASP D 338      32.046  37.498  88.097  1.00 35.92     0.175 C 
ATOM     69  OD2 ASP D 338      32.375  37.143  89.246  1.00 39.23    -0.648 OA
ATOM     70  OD1 ASP D 338      32.889  37.827  87.228  1.00 38.97    -0.648 OA
ENDBRANCH  67  68
ENDBRANCH  65  67
ENDBRANCH  62  65
ENDBRANCH  56  61
ENDBRANCH  53  56
ENDBRANCH  40  52
ENDBRANCH   1  40
TORSDOF 27
