REMARK  21 active torsions:
REMARK  status: ('A' for Active; 'I' for Inactive)
REMARK    1  A    between atoms: N_1  and  CA_2 
REMARK    2  A    between atoms: CA_2  and  C_3 
REMARK       I    between atoms: C_3  and  N_9 
REMARK    3  A    between atoms: N_9  and  CA_10 
REMARK    4  A    between atoms: CA_10  and  CB_13 
REMARK    5  A    between atoms: CA_10  and  C_11 
REMARK       I    between atoms: C_11  and  N_18 
REMARK    6  A    between atoms: CB_13  and  OG1_14 
REMARK    7  A    between atoms: CA_19  and  C_20 
REMARK       I    between atoms: C_20  and  N_25 
REMARK    8  A    between atoms: N_25  and  CA_26 
REMARK    9  A    between atoms: CA_26  and  C_27 
REMARK   10  A    between atoms: CA_26  and  CB_29 
REMARK       I    between atoms: C_27  and  N_37 
REMARK   11  A    between atoms: CB_29  and  CG_30 
REMARK   12  A    between atoms: N_37  and  CA_38 
REMARK   13  A    between atoms: CA_38  and  CB_41 
REMARK   14  A    between atoms: CA_38  and  C_39 
REMARK       I    between atoms: C_39  and  N_49 
REMARK   15  A    between atoms: CB_41  and  CG_42 
REMARK   16  A    between atoms: CG_42  and  CD_43 
REMARK       I    between atoms: CD_43  and  NE2_45 
REMARK   17  A    between atoms: N_49  and  CA_50 
REMARK   18  A    between atoms: CA_50  and  C_51 
REMARK   19  A    between atoms: CA_50  and  CB_53 
REMARK   20  A    between atoms: CB_53  and  CG_54 
REMARK   21  A    between atoms: CG_54  and  CD_55 
ROOT
ATOM      1  CA  PHE D   4      12.218 -12.244 -36.228  1.00 20.42     0.180 C 
ENDROOT
BRANCH   1   2
ATOM      2  N   PHE D   4      11.000 -12.545 -36.971  1.00 19.57    -0.346 N 
ATOM      3  H   PHE D   4      10.438 -13.048 -36.558  1.00 19.57     0.163 HD
ATOM      4  C   PRO D   3      10.818 -12.059 -38.183  1.00 20.09     0.241 C 
ATOM      5  O   PRO D   3      11.509 -11.134 -38.643  1.00 21.30    -0.271 OA
BRANCH   4   6
ATOM      6  CA  PRO D   3       9.689 -12.690 -38.994  1.00 18.08     0.179 C 
ATOM      7  CB  PRO D   3      10.152 -13.901 -39.789  1.00 20.04     0.037 C 
ATOM      8  CG  PRO D   3      10.178 -13.438 -41.212  1.00 21.57     0.022 C 
ATOM      9  CD  PRO D   3       9.226 -12.336 -41.384  1.00 18.25     0.127 C 
ATOM     10  N   PRO D   3       9.102 -11.808 -40.008  1.00 17.53    -0.337 N 
ATOM     11  C   THR D   2       8.355 -10.776 -39.623  1.00 17.82     0.245 C 
ATOM     12  O   THR D   2       8.153 -10.544 -38.429  1.00 17.76    -0.271 OA
BRANCH  11  13
ATOM     13  CA  THR D   2       7.726  -9.931 -40.722  1.00 18.92     0.205 C 
BRANCH  13  14
ATOM     14  N   THR D   2       6.419  -9.444 -40.309  1.00 17.98    -0.344 N 
ATOM     15  C   ALA D   1       5.357  -9.498 -41.106  1.00 18.22     0.248 C 
ATOM     16  O   ALA D   1       5.400  -9.951 -42.265  1.00 17.84    -0.271 OA
ATOM     17  H   THR D   2       6.400  -9.123 -39.512  1.00 17.98     0.163 HD
BRANCH  15  18
ATOM     18  CA  ALA D   1       4.059  -8.956 -40.524  1.00 17.93     0.270 C 
ATOM     19  CB  ALA D   1       3.493  -9.911 -39.442  1.00 19.43     0.050 C 
BRANCH  18  20
ATOM     20  N   ALA D   1       3.053  -8.788 -41.632  1.00 19.30    -0.067 N 
ATOM     21  H3  ALA D   1       2.880  -9.580 -41.999  1.00 19.30     0.275 HD
ATOM     22  H2  ALA D   1       3.382  -8.240 -42.252  1.00 19.30     0.275 HD
ATOM     23  H1  ALA D   1       2.302  -8.444 -41.301  1.00 19.30     0.275 HD
ENDBRANCH  18  20
ENDBRANCH  15  18
ENDBRANCH  13  14
BRANCH  13  24
ATOM     24  CB  THR D   2       8.650  -8.752 -41.056  1.00 21.41     0.146 C 
ATOM     25  CG2 THR D   2       8.024  -7.882 -42.134  1.00 25.14     0.042 C 
BRANCH  24  26
ATOM     26  OG1 THR D   2       8.820  -7.944 -39.887  1.00 26.95    -0.393 OA
ATOM     27  HG1 THR D   2       9.326  -7.298 -40.064  1.00 26.95     0.210 HD
ENDBRANCH  24  26
ENDBRANCH  13  24
ENDBRANCH  11  13
ENDBRANCH   4   6
ENDBRANCH   1   2
BRANCH   1  28
ATOM     28  C   PHE D   4      12.752 -13.515 -35.572  1.00 22.48     0.241 C 
ATOM     29  O   PHE D   4      12.003 -14.472 -35.341  1.00 22.33    -0.271 OA
ATOM     30  N   GLN D   5      14.053 -13.536 -35.293  1.00 24.26    -0.346 N 
ATOM     31  H   GLN D   5      14.555 -12.838 -35.274  1.00 24.26     0.163 HD
BRANCH  30  32
ATOM     32  CA  GLN D   5      14.743 -14.796 -34.988  1.00 25.91     0.177 C 
BRANCH  32  33
ATOM     33  CB  GLN D   5      16.100 -14.871 -35.697  1.00 26.73     0.044 C 
BRANCH  33  34
ATOM     34  CG  GLN D   5      16.049 -14.831 -37.235  1.00 26.03     0.105 C 
BRANCH  34  35
ATOM     35  CD  GLN D   5      15.036 -15.792 -37.859  1.00 27.76     0.215 C 
ATOM     36  NE2 GLN D   5      14.320 -15.297 -38.896  1.00 30.48    -0.370 N 
ATOM     37 2HE2 GLN D   5      13.719 -15.782 -39.274  1.00 30.48     0.159 HD
ATOM     38 1HE2 GLN D   5      14.466 -14.497 -39.177  1.00 30.48     0.159 HD
ATOM     39  OE1 GLN D   5      14.855 -16.956 -37.416  1.00 30.83    -0.274 OA
ENDBRANCH  34  35
ENDBRANCH  33  34
ENDBRANCH  32  33
BRANCH  32  40
ATOM     40  C   GLN D   5      14.997 -15.024 -33.512  1.00 27.22     0.241 C 
ATOM     41  N   GLU D   6      15.006 -13.936 -32.761  1.00 28.14    -0.345 N 
ATOM     42  H   GLU D   6      14.746 -13.163 -33.033  1.00 28.14     0.163 HD
ATOM     43  O   GLN D   5      15.210 -16.154 -33.071  1.00 29.15    -0.271 OA
BRANCH  41  44
ATOM     44  CA  GLU D   6      15.465 -13.963 -31.388  1.00 27.71     0.186 C 
BRANCH  44  45
ATOM     45  C   GLU D   6      14.430 -14.566 -30.421  1.00 28.68     0.196 C 
ATOM     46  O   GLU D   6      13.233 -14.726 -30.798  1.00 28.16    -0.646 OA
ATOM     47  OXT GLU D   6      14.826 -14.856 -29.273  1.00 19.61    -0.646 OA
ENDBRANCH  44  45
BRANCH  44  48
ATOM     48  CB  GLU D   6      15.819 -12.529 -30.989  1.00 27.67     0.046 C 
BRANCH  48  49
ATOM     49  CG  GLU D   6      16.131 -11.630 -32.223  1.00 29.50     0.116 C 
BRANCH  49  50
ATOM     50  CD  GLU D   6      17.398 -10.787 -32.027  1.00 27.58     0.172 C 
ATOM     51  OE2 GLU D   6      17.779  -9.939 -32.887  1.00 34.29    -0.648 OA
ATOM     52  OE1 GLU D   6      18.028 -10.975 -30.965  1.00 35.41    -0.648 OA
ENDBRANCH  49  50
ENDBRANCH  48  49
ENDBRANCH  44  48
ENDBRANCH  41  44
ENDBRANCH  32  40
ENDBRANCH  30  32
ENDBRANCH   1  28
BRANCH   1  53
ATOM     53  CB  PHE D   4      11.965 -11.134 -35.193  1.00 18.89     0.073 C 
BRANCH  53  54
ATOM     54  CG  PHE D   4      11.086 -11.553 -34.037  1.00 17.25    -0.056 A 
ATOM     55  CD2 PHE D   4       9.708 -11.352 -34.081  1.00 16.93     0.007 A 
ATOM     56  CE2 PHE D   4       8.918 -11.738 -33.035  1.00 15.87     0.001 A 
ATOM     57  CZ  PHE D   4       9.468 -12.339 -31.921  1.00 16.57     0.000 A 
ATOM     58  CE1 PHE D   4      10.839 -12.550 -31.857  1.00 17.16     0.001 A 
ATOM     59  CD1 PHE D   4      11.634 -12.153 -32.916  1.00 17.60     0.007 A 
ENDBRANCH  53  54
ENDBRANCH   1  53
TORSDOF 21
