REMARK  12 active torsions:
REMARK  status: ('A' for Active; 'I' for Inactive)
REMARK    1  A    between atoms: N_1  and  CA_2 
REMARK    2  A    between atoms: CA_2  and  C_3 
REMARK       I    between atoms: C_3  and  N_9 
REMARK    3  A    between atoms: N_9  and  CA_10 
REMARK    4  A    between atoms: CA_10  and  C_11 
REMARK       I    between atoms: C_11  and  N_15 
REMARK    5  A    between atoms: N_15  and  CA_16 
REMARK    6  A    between atoms: CA_16  and  C_17 
REMARK       I    between atoms: C_17  and  N_21 
REMARK    7  A    between atoms: N_21  and  CA_22 
REMARK    8  A    between atoms: CA_22  and  C_23 
REMARK       I    between atoms: C_23  and  N_27 
REMARK    9  A    between atoms: N_27  and  CA_28 
REMARK   10  A    between atoms: CA_28  and  C_29 
REMARK       I    between atoms: C_29  and  N_33 
REMARK   11  A    between atoms: N_33  and  CA_34 
REMARK   12  A    between atoms: CA_34  and  C_35 
ROOT
ATOM      1  C   ALA B   3      -2.023  19.391   3.038  1.00 25.24     0.240 C 
ATOM      2  O   ALA B   3      -3.028  19.762   2.426  1.00 26.05    -0.271 OA
ATOM      3  N   ALA B   4      -2.065  18.707   4.172  1.00 24.29    -0.346 N 
ATOM      4  H   ALA B   4      -1.361  18.453   4.596  1.00 24.29     0.163 HD
ENDROOT
BRANCH   1   5
ATOM      5  CA  ALA B   3      -0.615  19.677   2.503  1.00 25.23     0.172 C 
ATOM      6  CB  ALA B   3      -0.014  20.891   3.190  1.00 24.91     0.042 C 
BRANCH   5   7
ATOM      7  N   ALA B   3      -0.660  19.873   1.060  1.00 25.90    -0.346 N 
ATOM      8  C   ALA B   2      -0.406  18.881   0.208  1.00 26.37     0.240 C 
ATOM      9  O   ALA B   2      -0.155  17.740   0.573  1.00 26.80    -0.271 OA
ATOM     10  H   ALA B   3      -0.862  20.673   0.817  1.00 25.90     0.163 HD
BRANCH   8  11
ATOM     11  CA  ALA B   2      -0.424  19.235  -1.278  1.00 27.29     0.172 C 
ATOM     12  CB  ALA B   2       0.810  20.077  -1.640  1.00 27.31     0.042 C 
BRANCH  11  13
ATOM     13  N   ALA B   2      -1.647  19.978  -1.583  1.00 27.95    -0.346 N 
ATOM     14  C   ALA B   1      -2.670  19.456  -2.265  1.00 29.40     0.248 C 
ATOM     15  O   ALA B   1      -2.629  18.359  -2.830  1.00 29.69    -0.271 OA
ATOM     16  H   ALA B   2      -1.645  20.783  -1.282  1.00 27.95     0.163 HD
BRANCH  14  17
ATOM     17  CA  ALA B   1      -3.936  20.308  -2.361  1.00 29.88     0.270 C 
ATOM     18  CB  ALA B   1      -4.247  20.600  -3.816  1.00 30.40     0.050 C 
BRANCH  17  19
ATOM     19  N   ALA B   1      -3.873  21.590  -1.576  1.00 30.41    -0.067 N 
ATOM     20  H3  ALA B   1      -3.287  22.142  -1.955  1.00 30.41     0.275 HD
ATOM     21  H2  ALA B   1      -3.618  21.415  -0.742  1.00 30.41     0.275 HD
ATOM     22  H1  ALA B   1      -4.677  21.972  -1.566  1.00 30.41     0.275 HD
ENDBRANCH  17  19
ENDBRANCH  14  17
ENDBRANCH  11  13
ENDBRANCH   8  11
ENDBRANCH   5   7
ENDBRANCH   1   5
BRANCH   3  23
ATOM     23  CA  ALA B   4      -3.307  18.317   4.812  1.00 23.83     0.172 C 
ATOM     24  CB  ALA B   4      -3.502  16.789   4.715  1.00 23.27     0.042 C 
BRANCH  23  25
ATOM     25  C   ALA B   4      -3.239  18.726   6.265  1.00 23.25     0.240 C 
ATOM     26  N   ALA B   5      -4.400  19.062   6.802  1.00 23.30    -0.346 N 
ATOM     27  H   ALA B   5      -5.109  19.236   6.347  1.00 23.30     0.163 HD
ATOM     28  O   ALA B   4      -2.170  18.697   6.892  1.00 21.74    -0.271 OA
BRANCH  26  29
ATOM     29  CA  ALA B   5      -4.569  19.165   8.248  1.00 23.99     0.172 C 
ATOM     30  CB  ALA B   5      -6.025  19.423   8.582  1.00 22.76     0.042 C 
BRANCH  29  31
ATOM     31  C   ALA B   5      -4.099  17.864   8.883  1.00 24.51     0.240 C 
ATOM     32  O   ALA B   5      -4.497  16.781   8.449  1.00 24.66    -0.271 OA
ATOM     33  N   ALA B   6      -3.225  17.963   9.876  1.00 25.65    -0.348 N 
ATOM     34  H   ALA B   6      -2.853  18.701  10.115  1.00 25.65     0.163 HD
BRANCH  33  35
ATOM     35  CA  ALA B   6      -2.815  16.801  10.661  1.00 26.64     0.158 C 
ATOM     36  CB  ALA B   6      -2.921  15.494   9.856  1.00 27.39     0.041 C 
BRANCH  35  37
ATOM     37  C   ALA B   6      -1.425  16.947  11.227  1.00 26.89     0.219 C 
ATOM     38  O   ALA B   6      -0.953  16.019  11.894  1.00 29.04    -0.287 OA
ENDBRANCH  35  37
ENDBRANCH  33  35
ENDBRANCH  29  31
ENDBRANCH  26  29
ENDBRANCH  23  25
ENDBRANCH   3  23
TORSDOF 12
