REMARK  16 active torsions:
REMARK  status: ('A' for Active; 'I' for Inactive)
REMARK    1  A    between atoms: N_1  and  CA_2 
REMARK    2  A    between atoms: CA_2  and  C_3 
REMARK       I    between atoms: C_3  and  N_9 
REMARK    3  A    between atoms: N_9  and  CA_10 
REMARK    4  A    between atoms: CA_10  and  C_11 
REMARK       I    between atoms: C_11  and  N_15 
REMARK    5  A    between atoms: N_15  and  CA_16 
REMARK    6  A    between atoms: CA_16  and  C_17 
REMARK    7  A    between atoms: CA_16  and  CB_19 
REMARK       I    between atoms: C_17  and  N_23 
REMARK    8  A    between atoms: CB_19  and  OG_20 
REMARK    9  A    between atoms: N_23  and  CA_24 
REMARK   10  A    between atoms: CA_24  and  C_25 
REMARK       I    between atoms: C_25  and  N_29 
REMARK   11  A    between atoms: N_29  and  CA_30 
REMARK   12  A    between atoms: CA_30  and  CB_33 
REMARK   13  A    between atoms: CA_30  and  C_31 
REMARK       I    between atoms: C_31  and  N_37 
REMARK   14  A    between atoms: CB_33  and  OG_34 
REMARK   15  A    between atoms: N_37  and  CA_38 
REMARK   16  A    between atoms: CA_38  and  C_39 
ROOT
ATOM      1  C   SER B   3      -1.979  19.368   3.059  1.00 29.46     0.243 C 
ATOM      2  O   SER B   3      -2.985  19.833   2.518  1.00 29.29    -0.271 OA
ATOM      3  N   ALA B   4      -2.008  18.642   4.175  1.00 28.70    -0.346 N 
ATOM      4  H   ALA B   4      -1.301  18.345   4.563  1.00 28.70     0.163 HD
ENDROOT
BRANCH   1   5
ATOM      5  CA  SER B   3      -0.596  19.601   2.455  1.00 29.76     0.200 C 
BRANCH   5   6
ATOM      6  CB  SER B   3       0.098  20.811   3.086  1.00 29.85     0.199 C 
BRANCH   6   7
ATOM      7  OG  SER B   3       1.362  21.045   2.455  1.00 32.14    -0.398 OA
ATOM      8  HG  SER B   3       1.732  21.711   2.808  1.00 32.14     0.209 HD
ENDBRANCH   6   7
ENDBRANCH   5   6
BRANCH   5   9
ATOM      9  N   SER B   3      -0.707  19.797   1.025  1.00 30.15    -0.344 N 
ATOM     10  C   ALA B   2      -0.458  18.820   0.161  1.00 30.60     0.240 C 
ATOM     11  O   ALA B   2      -0.254  17.661   0.505  1.00 30.40    -0.271 OA
ATOM     12  H   SER B   3      -0.945  20.591   0.794  1.00 30.15     0.163 HD
BRANCH  10  13
ATOM     13  CA  ALA B   2      -0.427  19.225  -1.309  1.00 31.29     0.172 C 
ATOM     14  CB  ALA B   2       0.839  20.018  -1.596  1.00 31.24     0.042 C 
BRANCH  13  15
ATOM     15  N   ALA B   2      -1.592  20.046  -1.611  1.00 32.02    -0.346 N 
ATOM     16  C   ALA B   1      -2.690  19.561  -2.186  1.00 33.14     0.248 C 
ATOM     17  O   ALA B   1      -2.769  18.418  -2.654  1.00 33.78    -0.271 OA
ATOM     18  H   ALA B   2      -1.504  20.871  -1.383  1.00 32.02     0.163 HD
BRANCH  16  19
ATOM     19  CA  ALA B   1      -3.875  20.511  -2.277  1.00 33.48     0.270 C 
ATOM     20  CB  ALA B   1      -4.153  20.861  -3.716  1.00 33.96     0.050 C 
BRANCH  19  21
ATOM     21  N   ALA B   1      -3.691  21.761  -1.465  1.00 33.82    -0.067 N 
ATOM     22  H3  ALA B   1      -3.152  22.321  -1.899  1.00 33.82     0.275 HD
ATOM     23  H2  ALA B   1      -3.330  21.554  -0.678  1.00 33.82     0.275 HD
ATOM     24  H1  ALA B   1      -4.481  22.150  -1.336  1.00 33.82     0.275 HD
ENDBRANCH  19  21
ENDBRANCH  16  19
ENDBRANCH  13  15
ENDBRANCH  10  13
ENDBRANCH   5   9
ENDBRANCH   1   5
BRANCH   3  25
ATOM     25  CA  ALA B   4      -3.252  18.277   4.854  1.00 28.07     0.172 C 
ATOM     26  CB  ALA B   4      -3.466  16.762   4.787  1.00 28.13     0.042 C 
BRANCH  25  27
ATOM     27  C   ALA B   4      -3.212  18.706   6.306  1.00 27.72     0.240 C 
ATOM     28  N   SER B   5      -4.380  19.065   6.831  1.00 27.70    -0.344 N 
ATOM     29  H   SER B   5      -5.075  19.262   6.364  1.00 27.70     0.163 HD
ATOM     30  O   ALA B   4      -2.157  18.686   6.939  1.00 26.03    -0.271 OA
BRANCH  28  31
ATOM     31  CA  SER B   5      -4.580  19.155   8.273  1.00 28.70     0.200 C 
BRANCH  31  32
ATOM     32  CB  SER B   5      -6.064  19.404   8.597  1.00 28.19     0.199 C 
BRANCH  32  33
ATOM     33  OG  SER B   5      -6.512  20.685   8.142  1.00 31.03    -0.398 OA
ATOM     34  HG  SER B   5      -7.324  20.783   8.335  1.00 31.03     0.209 HD
ENDBRANCH  32  33
ENDBRANCH  31  32
BRANCH  31  35
ATOM     35  C   SER B   5      -4.113  17.843   8.917  1.00 28.90     0.243 C 
ATOM     36  O   SER B   5      -4.514  16.756   8.495  1.00 29.19    -0.271 OA
ATOM     37  N   ALA B   6      -3.241  17.938   9.911  1.00 29.26    -0.348 N 
ATOM     38  H   ALA B   6      -2.901  18.679  10.185  1.00 29.26     0.163 HD
BRANCH  37  39
ATOM     39  CA  ALA B   6      -2.782  16.760  10.631  1.00 30.00     0.158 C 
ATOM     40  CB  ALA B   6      -2.594  15.557   9.682  1.00 31.04     0.041 C 
BRANCH  39  41
ATOM     41  C   ALA B   6      -1.502  17.028  11.381  1.00 30.03     0.219 C 
ATOM     42  O   ALA B   6      -1.005  16.130  12.067  1.00 31.65    -0.287 OA
ENDBRANCH  39  41
ENDBRANCH  37  39
ENDBRANCH  31  35
ENDBRANCH  28  31
ENDBRANCH  25  27
ENDBRANCH   3  25
TORSDOF 16
