REMARK  14 active torsions:
REMARK  status: ('A' for Active; 'I' for Inactive)
REMARK    1  A    between atoms: CA_2  and  CB_5 
REMARK    2  A    between atoms: CA_2  and  C_3 
REMARK       I    between atoms: C_3  and  N_9 
REMARK    3  A    between atoms: CB_5  and  CG_6 
REMARK    4  A    between atoms: N_9  and  CA_10 
REMARK    5  A    between atoms: CA_10  and  CB_13 
REMARK    6  A    between atoms: CA_10  and  C_11 
REMARK       I    between atoms: C_11  and  N_18 
REMARK    7  A    between atoms: CB_13  and  CG_14 
REMARK    8  A    between atoms: N_18  and  CA_19 
REMARK    9  A    between atoms: CA_19  and  CB_22 
REMARK   10  A    between atoms: CA_19  and  C_20 
REMARK       I    between atoms: C_20  and  N_32 
REMARK   11  A    between atoms: CB_22  and  CG_23 
REMARK   12  A    between atoms: CZ_28  and  OH_29 
REMARK   13  A    between atoms: N_32  and  CA_33 
REMARK   14  A    between atoms: CA_33  and  C_34 
ROOT
ATOM      1  C   LEU F 804      13.069 -12.452  33.773  1.00 42.60     0.241 C 
ATOM      2  O   LEU F 804      14.225 -12.448  34.210  1.00 42.72    -0.271 OA
ATOM      3  N   TYR F 805      12.277 -11.378  33.802  1.00 41.09    -0.346 N 
ATOM      4  H   TYR F 805      11.427 -11.410  33.674  1.00 41.09     0.163 HD
ENDROOT
BRANCH   3   5
ATOM      5  CA  TYR F 805      12.795 -10.021  34.059  1.00 40.08     0.180 C 
BRANCH   5   6
ATOM      6  CB  TYR F 805      12.577  -9.144  32.819  1.00 38.23     0.073 C 
BRANCH   6   7
ATOM      7  CG  TYR F 805      13.273  -9.675  31.590  1.00 36.43    -0.056 A 
ATOM      8  CD2 TYR F 805      12.559 -10.348  30.604  1.00 35.39     0.010 A 
ATOM      9  CE2 TYR F 805      13.195 -10.859  29.472  1.00 33.62     0.037 A 
ATOM     10  CZ  TYR F 805      14.557 -10.691  29.320  1.00 33.40     0.065 A 
ATOM     11  CE1 TYR F 805      15.297 -10.019  30.287  1.00 31.77     0.037 A 
ATOM     12  CD1 TYR F 805      14.653  -9.516  31.417  1.00 33.46     0.010 A 
BRANCH  10  13
ATOM     13  OH  TYR F 805      15.169 -11.192  28.192  1.00 32.97    -0.361 OA
ATOM     14  HH  TYR F 805      14.611 -11.629  27.741  1.00 32.97     0.217 HD
ENDBRANCH  10  13
ENDBRANCH   6   7
ENDBRANCH   5   6
BRANCH   5  15
ATOM     15  C   TYR F 805      12.186  -9.334  35.296  1.00 40.65     0.241 C 
ATOM     16  O   TYR F 805      11.165  -9.796  35.811  1.00 41.05    -0.271 OA
ATOM     17  N   GLY F 806      12.802  -8.247  35.785  1.00 41.21    -0.352 N 
ATOM     18  H   GLY F 806      12.468  -7.773  36.420  1.00 41.21     0.162 HD
BRANCH  17  19
ATOM     19  CA  GLY F 806      14.105  -7.736  35.305  1.00 41.66     0.209 C 
BRANCH  19  20
ATOM     20  C   GLY F 806      14.059  -6.416  34.548  1.00 41.93     0.213 C 
ATOM     21  O   GLY F 806      13.052  -5.692  34.571  1.00 42.62    -0.287 OA
ENDBRANCH  19  20
ENDBRANCH  17  19
ENDBRANCH   5  15
ENDBRANCH   3   5
BRANCH   1  22
ATOM     22  CA  LEU F 804      12.485 -13.740  33.164  1.00 43.64     0.177 C 
BRANCH  22  23
ATOM     23  N   LEU F 804      11.086 -14.017  33.490  1.00 45.07    -0.346 N 
ATOM     24  C   ASP F 803      10.693 -14.315  34.724  1.00 46.18     0.258 C 
ATOM     25  O   ASP F 803      11.462 -14.297  35.694  1.00 46.48    -0.271 OA
ATOM     26  H   LEU F 804      10.552 -13.969  32.818  1.00 45.07     0.163 HD
BRANCH  24  27
ATOM     27  CA  ASP F 803       9.208 -14.681  34.895  1.00 46.88     0.409 C 
ATOM     28  N   ASP F 803       8.402 -14.370  33.681  1.00 47.04     0.615 N 
BRANCH  27  29
ATOM     29  CB  ASP F 803       9.061 -16.165  35.246  1.00 47.42     0.164 C 
BRANCH  29  30
ATOM     30  CG  ASP F 803       9.025 -16.417  36.754  1.00 48.96     0.175 C 
ATOM     31  OD1 ASP F 803       8.394 -17.421  37.161  1.00 50.04    -0.648 OA
ATOM     32  OD2 ASP F 803       9.615 -15.623  37.529  1.00 49.91    -0.648 OA
ENDBRANCH  29  30
ENDBRANCH  27  29
ENDBRANCH  24  27
ENDBRANCH  22  23
BRANCH  22  33
ATOM     33  CB  LEU F 804      12.670 -13.738  31.641  1.00 43.69     0.038 C 
BRANCH  33  34
ATOM     34  CG  LEU F 804      13.092 -15.003  30.872  1.00 43.67    -0.020 C 
ATOM     35  CD2 LEU F 804      12.315 -15.098  29.574  1.00 43.56     0.009 C 
ATOM     36  CD1 LEU F 804      12.967 -16.292  31.682  1.00 44.06     0.009 C 
ENDBRANCH  33  34
ENDBRANCH  22  33
ENDBRANCH   1  22
TORSDOF 14
