REMARK  14 active torsions:
REMARK  status: ('A' for Active; 'I' for Inactive)
REMARK    1  A    between atoms: CA_2  and  C_3 
REMARK       I    between atoms: C_3  and  N_8 
REMARK    2  A    between atoms: N_8  and  CA_9 
REMARK    3  A    between atoms: CA_9  and  CB_12 
REMARK    4  A    between atoms: CA_9  and  C_10 
REMARK       I    between atoms: C_10  and  N_22 
REMARK    5  A    between atoms: CB_12  and  CG_13 
REMARK    6  A    between atoms: CZ_18  and  OH_19 
REMARK    7  A    between atoms: N_22  and  CA_23 
REMARK    8  A    between atoms: CA_23  and  CB_26 
REMARK    9  A    between atoms: CA_23  and  C_24 
REMARK       I    between atoms: C_24  and  N_31 
REMARK   10  A    between atoms: CB_26  and  CG1_27 
REMARK   11  A    between atoms: N_31  and  CA_32 
REMARK   12  A    between atoms: CA_32  and  C_33 
REMARK   13  A    between atoms: CA_32  and  CB_35 
REMARK   14  A    between atoms: CB_35  and  CG_36 
ROOT
ATOM      1  C   TYR N  11      15.856  75.705  29.825  1.00 56.96     0.241 C 
ATOM      2  O   TYR N  11      14.639  75.593  29.731  1.00 54.60    -0.271 OA
ATOM      3  N   ILE N  12      16.461  76.137  30.926  1.00 55.40    -0.346 N 
ATOM      4  H   ILE N  12      17.294  76.350  30.961  1.00 55.40     0.163 HD
ENDROOT
BRANCH   1   5
ATOM      5  CA  TYR N  11      16.723  75.374  28.622  1.00 58.62     0.180 C 
BRANCH   5   6
ATOM      6  N   TYR N  11      16.669  73.917  28.476  1.00 60.03    -0.346 N 
ATOM      7  H   TYR N  11      15.886  73.607  28.651  1.00 60.03     0.163 HD
ATOM      8  C   PRO N  10      17.667  73.110  28.120  1.00 61.18     0.254 C 
ATOM      9  O   PRO N  10      18.854  73.385  28.254  1.00 61.93    -0.271 OA
BRANCH   8  10
ATOM     10  CA  PRO N  10      17.249  71.749  27.556  1.00 61.60     0.352 C 
ATOM     11  CB  PRO N  10      17.008  70.722  28.666  1.00 62.04     0.050 C 
ATOM     12  CG  PRO N  10      17.302  69.386  28.000  1.00 62.43     0.035 C 
ATOM     13  CD  PRO N  10      18.342  69.649  26.913  1.00 61.79     0.315 C 
ATOM     14  N   PRO N  10      18.293  71.115  26.734  1.00 62.25     0.318 N 
ENDBRANCH   8  10
ENDBRANCH   5   6
BRANCH   5  15
ATOM     15  CB  TYR N  11      15.923  75.933  27.472  1.00 60.02     0.073 C 
BRANCH  15  16
ATOM     16  CG  TYR N  11      16.403  77.136  26.770  1.00 61.42    -0.056 A 
ATOM     17  CD2 TYR N  11      16.213  77.230  25.397  1.00 63.03     0.010 A 
ATOM     18  CE2 TYR N  11      16.625  78.335  24.693  1.00 63.91     0.037 A 
ATOM     19  CZ  TYR N  11      17.228  79.393  25.353  1.00 62.76     0.065 A 
ATOM     20  CE1 TYR N  11      17.422  79.333  26.740  1.00 63.08     0.037 A 
ATOM     21  CD1 TYR N  11      16.990  78.202  27.445  1.00 63.28     0.010 A 
BRANCH  19  22
ATOM     22  OH  TYR N  11      17.625  80.484  24.584  1.00 61.08    -0.361 OA
ATOM     23  HH  TYR N  11      17.431  80.345  23.779  1.00 61.08     0.217 HD
ENDBRANCH  19  22
ENDBRANCH  15  16
ENDBRANCH   5  15
ENDBRANCH   1   5
BRANCH   3  24
ATOM     24  CA  ILE N  12      15.749  76.290  32.195  1.00 53.88     0.180 C 
BRANCH  24  25
ATOM     25  CB  ILE N  12      16.712  76.054  33.366  1.00 53.93     0.013 C 
ATOM     26  CG2 ILE N  12      15.984  76.074  34.700  1.00 53.11     0.012 C 
BRANCH  25  27
ATOM     27  CG1 ILE N  12      17.504  74.758  33.139  1.00 51.92     0.002 C 
ATOM     28  CD1 ILE N  12      16.696  73.500  33.124  1.00 50.97     0.005 C 
ENDBRANCH  25  27
ENDBRANCH  24  25
BRANCH  24  29
ATOM     29  C   ILE N  12      15.098  77.659  32.342  1.00 53.48     0.241 C 
ATOM     30  N   LEU N  13      13.918  77.668  32.930  1.00 52.60    -0.345 N 
ATOM     31  H   LEU N  13      13.514  76.953  33.186  1.00 52.60     0.163 HD
ATOM     32  O   ILE N  12      15.656  78.676  31.944  1.00 54.19    -0.271 OA
BRANCH  30  33
ATOM     33  CA  LEU N  13      13.175  78.894  33.208  1.00 51.71     0.185 C 
BRANCH  33  34
ATOM     34  C   LEU N  13      12.558  78.861  34.635  1.00 51.36     0.196 C 
ATOM     35  O   LEU N  13      12.028  79.887  35.130  1.00 50.70    -0.646 OA
ATOM     36  OXT LEU N  13      12.557  77.806  35.316  1.00 50.18    -0.646 OA
ENDBRANCH  33  34
BRANCH  33  37
ATOM     37  CB  LEU N  13      12.050  79.064  32.172  1.00 52.27     0.040 C 
BRANCH  37  38
ATOM     38  CG  LEU N  13      12.291  79.057  30.650  1.00 53.15    -0.020 C 
ATOM     39  CD1 LEU N  13      11.045  78.548  29.898  1.00 53.09     0.009 C 
ATOM     40  CD2 LEU N  13      12.699  80.437  30.162  1.00 52.44     0.009 C 
ENDBRANCH  37  38
ENDBRANCH  33  37
ENDBRANCH  30  33
ENDBRANCH  24  29
ENDBRANCH   3  24
TORSDOF 14
