REMARK  7 active torsions:
REMARK  status: ('A' for Active; 'I' for Inactive)
REMARK    1  A    between atoms: CA_2  and  C_3 
REMARK       I    between atoms: C_3  and  N_6 
REMARK    2  A    between atoms: N_6  and  CA_7 
REMARK    3  A    between atoms: CA_7  and  C_8 
REMARK       I    between atoms: C_8  and  N_12 
REMARK    4  A    between atoms: CA_13  and  C_14 
REMARK       I    between atoms: C_14  and  N_19 
REMARK    5  A    between atoms: N_19  and  CA_20 
REMARK    6  A    between atoms: CA_20  and  C_21 
REMARK    7  A    between atoms: CA_20  and  CB_23 
ROOT
ATOM      1  C   ALA X   3      33.287 -19.752  -0.858  1.00 23.90     0.243 C 
ATOM      2  O   ALA X   3      33.340 -18.605  -0.411  1.00 27.15    -0.271 OA
ATOM      3  N   PRO X   4      32.370 -20.637  -0.465  1.00 24.39    -0.337 N 
ATOM      4  CA  PRO X   4      31.443 -20.286   0.611  1.00 23.70     0.179 C 
ATOM      5  CB  PRO X   4      30.360 -21.359   0.487  1.00 23.39     0.037 C 
ATOM      6  CG  PRO X   4      31.112 -22.542  -0.130  1.00 25.35     0.022 C 
ATOM      7  CD  PRO X   4      31.926 -21.845  -1.179  1.00 22.91     0.127 C 
ENDROOT
BRANCH   4   8
ATOM      8  C   PRO X   4      32.241 -20.356   1.920  1.00 23.69     0.241 C 
ATOM      9  O   PRO X   4      33.173 -21.143   2.019  1.00 21.84    -0.271 OA
ATOM     10  N   VAL X   5      31.890 -19.537   2.912  1.00 24.58    -0.344 N 
ATOM     11  H   VAL X   5      31.235 -18.981   2.876  1.00 24.58     0.163 HD
BRANCH  10  12
ATOM     12  CA  VAL X   5      32.633 -19.536   4.179  1.00 25.73     0.189 C 
BRANCH  12  13
ATOM     13  C   VAL X   5      31.887 -20.055   5.418  1.00 27.91     0.197 C 
ATOM     14  OXT VAL X   5      30.965 -20.894   5.280  1.00 25.78    -0.646 OA
ATOM     15  O   VAL X   5      32.213 -19.609   6.533  1.00 23.88    -0.646 OA
ENDBRANCH  12  13
BRANCH  12  16
ATOM     16  CB  VAL X   5      33.173 -18.127   4.508  1.00 25.22     0.010 C 
ATOM     17  CG1 VAL X   5      34.414 -17.844   3.699  1.00 21.50     0.012 C 
ATOM     18  CG2 VAL X   5      32.096 -17.064   4.201  1.00 24.36     0.012 C 
ENDBRANCH  12  16
ENDBRANCH  10  12
ENDBRANCH   4   8
BRANCH   1  19
ATOM     19  CA  ALA X   3      34.218 -20.182  -1.956  1.00 23.97     0.172 C 
ATOM     20  CB  ALA X   3      35.375 -20.982  -1.395  1.00 25.40     0.042 C 
BRANCH  19  21
ATOM     21  N   ALA X   3      34.677 -18.929  -2.481  1.00 22.59    -0.346 N 
ATOM     22  H   ALA X   3      34.815 -18.313  -1.897  1.00 22.59     0.163 HD
ATOM     23  C   ALA X   2      34.855 -18.793  -3.774  1.00 23.89     0.257 C 
ATOM     24  O   ALA X   2      34.703 -19.724  -4.572  1.00 22.77    -0.271 OA
BRANCH  23  25
ATOM     25  CA  ALA X   2      35.295 -17.427  -4.241  1.00 23.49     0.396 C 
ATOM     26  CB  ALA X   2      34.143 -16.422  -4.187  1.00 22.19     0.059 C 
ATOM     27  N   ALA X   2      35.686 -17.680  -5.603  1.00 24.67     0.614 N 
ENDBRANCH  23  25
ENDBRANCH  19  21
ENDBRANCH   1  19
TORSDOF 7
