REMARK  25 active torsions:
REMARK  status: ('A' for Active; 'I' for Inactive)
REMARK    1  A    between atoms: CA_2  and  C_3 
REMARK       I    between atoms: C_3  and  N_8 
REMARK    2  A    between atoms: N_8  and  CA_9 
REMARK    3  A    between atoms: CA_9  and  CB_12 
REMARK    4  A    between atoms: CA_9  and  C_10 
REMARK       I    between atoms: C_10  and  N_17 
REMARK    5  A    between atoms: CB_12  and  OG1_13 
REMARK    6  A    between atoms: N_17  and  CA_18 
REMARK    7  A    between atoms: CA_18  and  C_19 
REMARK    8  A    between atoms: CA_18  and  CB_21 
REMARK       I    between atoms: C_19  and  N_25 
REMARK    9  A    between atoms: N_25  and  CA_26 
REMARK   10  A    between atoms: CA_26  and  C_27 
REMARK   11  A    between atoms: CA_26  and  CB_29 
REMARK       I    between atoms: C_27  and  N_35 
REMARK   12  A    between atoms: CB_29  and  CG_30 
REMARK   13  A    between atoms: CG_30  and  CD_31 
REMARK   14  A    between atoms: N_35  and  CA_36 
REMARK   15  A    between atoms: CA_36  and  CB_39 
REMARK   16  A    between atoms: CA_36  and  C_37 
REMARK       I    between atoms: C_37  and  N_45 
REMARK   17  A    between atoms: CB_39  and  CG_40 
REMARK   18  A    between atoms: CG_40  and  CD_41 
REMARK   19  A    between atoms: N_45  and  CA_46 
REMARK   20  A    between atoms: CA_46  and  CB_49 
REMARK   21  A    between atoms: CA_46  and  C_47 
REMARK       I    between atoms: C_47  and  N_53 
REMARK   22  A    between atoms: N_53  and  CA_54 
REMARK   23  A    between atoms: CA_54  and  CB_57 
REMARK   24  A    between atoms: CA_54  and  C_55 
REMARK   25  A    between atoms: CB_57  and  CG_58 
ROOT
ATOM      1  CA  GLU Q 639      19.893 -36.634  50.681  1.00 17.71     0.177 C 
ENDROOT
BRANCH   1   2
ATOM      2  C   GLU Q 639      19.732 -37.435  51.969  1.00 15.36     0.241 C 
ATOM      3  O   GLU Q 639      18.648 -37.936  52.269  1.00 14.90    -0.271 OA
ATOM      4  N   GLU Q 640      20.817 -37.551  52.727  1.00 12.94    -0.346 N 
ATOM      5  H   GLU Q 640      21.579 -37.206  52.529  1.00 12.94     0.163 HD
BRANCH   4   6
ATOM      6  CA  GLU Q 640      20.799 -38.290  53.983  1.00 11.11     0.177 C 
BRANCH   6   7
ATOM      7  CB  GLU Q 640      21.805 -39.442  53.898  1.00 10.30     0.045 C 
BRANCH   7   8
ATOM      8  CG  GLU Q 640      21.438 -40.456  52.802  1.00 11.77     0.116 C 
BRANCH   8   9
ATOM      9  CD  GLU Q 640      22.353 -41.688  52.761  1.00 13.33     0.172 C 
ATOM     10  OE2 GLU Q 640      23.473 -41.576  52.222  1.00 13.21    -0.648 OA
ATOM     11  OE1 GLU Q 640      21.948 -42.768  53.261  1.00 12.97    -0.648 OA
ENDBRANCH   8   9
ENDBRANCH   7   8
ENDBRANCH   6   7
BRANCH   6  12
ATOM     12  C   GLU Q 640      21.124 -37.372  55.165  1.00  9.90     0.241 C 
ATOM     13  N   VAL Q 641      20.421 -37.575  56.287  1.00  8.06    -0.346 N 
ATOM     14  H   VAL Q 641      19.724 -38.078  56.318  1.00  8.06     0.163 HD
ATOM     15  O   GLU Q 640      21.997 -36.497  55.047  1.00  9.48    -0.271 OA
BRANCH  13  16
ATOM     16  CA  VAL Q 641      20.764 -36.961  57.589  1.00  6.68     0.180 C 
BRANCH  16  17
ATOM     17  CB  VAL Q 641      19.531 -36.794  58.529  1.00  5.82     0.009 C 
ATOM     18  CG2 VAL Q 641      18.743 -38.075  58.635  1.00  2.95     0.012 C 
ATOM     19  CG1 VAL Q 641      18.687 -35.654  58.072  1.00  4.23     0.012 C 
ENDBRANCH  16  17
BRANCH  16  20
ATOM     20  C   VAL Q 641      21.868 -37.739  58.339  1.00  6.62     0.241 C 
ATOM     21  O   VAL Q 641      22.306 -38.793  57.893  1.00  7.26    -0.271 OA
ATOM     22  N   ASP Q 642      22.303 -37.212  59.473  1.00  6.11    -0.344 N 
ATOM     23  H   ASP Q 642      22.001 -36.477  59.802  1.00  6.11     0.163 HD
BRANCH  22  24
ATOM     24  CA  ASP Q 642      23.349 -37.838  60.279  1.00  5.85     0.195 C 
BRANCH  24  25
ATOM     25  CB  ASP Q 642      24.667 -37.049  60.138  1.00  5.86     0.149 C 
BRANCH  25  26
ATOM     26  CG  ASP Q 642      25.183 -37.000  58.677  1.00  7.09     0.175 C 
ATOM     27  OD2 ASP Q 642      25.040 -35.938  58.046  1.00  7.75    -0.648 OA
ATOM     28  OD1 ASP Q 642      25.736 -37.996  58.167  1.00  5.16    -0.648 OA
ENDBRANCH  25  26
ENDBRANCH  24  25
BRANCH  24  29
ATOM     29  C   ASP Q 642      22.924 -37.924  61.759  1.00  5.53     0.197 C 
ATOM     30  O   ASP Q 642      23.702 -38.335  62.635  1.00  4.89    -0.646 OA
ATOM     31  OXT ASP Q 642      21.795 -37.550  62.119  1.00  5.08    -0.646 OA
ENDBRANCH  24  29
ENDBRANCH  22  24
ENDBRANCH  16  20
ENDBRANCH  13  16
ENDBRANCH   6  12
ENDBRANCH   4   6
ENDBRANCH   1   2
BRANCH   1  32
ATOM     32  CB  GLU Q 639      19.318 -37.418  49.499  1.00 18.28     0.045 C 
BRANCH  32  33
ATOM     33  CG  GLU Q 639      19.221 -36.617  48.211  1.00 21.94     0.116 C 
BRANCH  33  34
ATOM     34  CD  GLU Q 639      20.284 -37.005  47.202  1.00 26.00     0.172 C 
ATOM     35  OE1 GLU Q 639      21.186 -37.791  47.560  1.00 25.44    -0.648 OA
ATOM     36  OE2 GLU Q 639      20.217 -36.525  46.051  1.00 27.11    -0.648 OA
ENDBRANCH  33  34
ENDBRANCH  32  33
ENDBRANCH   1  32
BRANCH   1  37
ATOM     37  N   GLU Q 639      21.291 -36.300  50.441  1.00 19.24    -0.346 N 
ATOM     38  C   VAL Q 638      21.888 -35.294  51.073  1.00 20.97     0.241 C 
ATOM     39  O   VAL Q 638      21.310 -34.583  51.896  1.00 20.96    -0.271 OA
ATOM     40  H   GLU Q 639      21.683 -36.805  49.865  1.00 19.24     0.163 HD
BRANCH  38  41
ATOM     41  CA  VAL Q 638      23.354 -35.056  50.727  1.00 22.03     0.180 C 
BRANCH  41  42
ATOM     42  CB  VAL Q 638      23.439 -34.077  49.542  1.00 22.63     0.009 C 
ATOM     43  CG1 VAL Q 638      22.584 -34.569  48.384  1.00 22.21     0.012 C 
ATOM     44  CG2 VAL Q 638      23.011 -32.683  49.974  1.00 20.65     0.012 C 
ENDBRANCH  41  42
BRANCH  41  45
ATOM     45  N   VAL Q 638      24.037 -36.310  50.434  1.00 23.53    -0.346 N 
ATOM     46  H   VAL Q 638      23.997 -36.495  49.595  1.00 23.53     0.163 HD
ATOM     47  C   THR Q 637      24.665 -37.129  51.271  1.00 24.82     0.243 C 
ATOM     48  O   THR Q 637      24.398 -37.197  52.470  1.00 25.63    -0.271 OA
BRANCH  47  49
ATOM     49  CA  THR Q 637      25.758 -38.003  50.664  1.00 25.03     0.205 C 
BRANCH  49  50
ATOM     50  CB  THR Q 637      24.889 -38.640  49.564  1.00 24.88     0.146 C 
ATOM     51  CG2 THR Q 637      25.412 -40.023  49.206  1.00 23.89     0.042 C 
BRANCH  50  52
ATOM     52  OG1 THR Q 637      23.536 -38.749  50.023  1.00 24.10    -0.393 OA
ATOM     53  HG1 THR Q 637      23.063 -39.095  49.421  1.00 24.10     0.210 HD
ENDBRANCH  50  52
ENDBRANCH  49  50
BRANCH  49  54
ATOM     54  N   THR Q 637      25.898 -38.888  51.814  1.00 26.29    -0.343 N 
ATOM     55  H   THR Q 637      25.175 -39.296  52.039  1.00 26.29     0.163 HD
ATOM     56  C   PRO Q 636      27.059 -39.034  52.445  1.00 27.07     0.254 C 
ATOM     57  O   PRO Q 636      28.087 -38.445  52.114  1.00 27.06    -0.271 OA
BRANCH  56  58
ATOM     58  CA  PRO Q 636      27.075 -39.989  53.634  1.00 27.59     0.352 C 
ATOM     59  CB  PRO Q 636      27.066 -41.438  53.145  1.00 27.63     0.050 C 
ATOM     60  CG  PRO Q 636      26.297 -42.175  54.182  1.00 27.91     0.035 C 
ATOM     61  CD  PRO Q 636      25.240 -41.222  54.664  1.00 28.09     0.315 C 
ATOM     62  N   PRO Q 636      25.842 -39.899  54.422  1.00 27.47     0.318 N 
ENDBRANCH  56  58
ENDBRANCH  49  54
ENDBRANCH  47  49
ENDBRANCH  41  45
ENDBRANCH  38  41
ENDBRANCH   1  37
TORSDOF 25
