REMARK  29 active torsions:
REMARK  status: ('A' for Active; 'I' for Inactive)
REMARK    1  A    between atoms: CA_2  and  CB_5 
REMARK    2  A    between atoms: CA_2  and  C_3 
REMARK       I    between atoms: C_3  and  N_8 
REMARK    3  A    between atoms: CB_5  and  OG_6 
REMARK    4  A    between atoms: N_8  and  CA_9 
REMARK    5  A    between atoms: CA_9  and  C_10 
REMARK    6  A    between atoms: CA_9  and  CB_12 
REMARK       I    between atoms: C_10  and  N_16 
REMARK    7  A    between atoms: CB_12  and  OG_13 
REMARK    8  A    between atoms: N_16  and  CA_17 
REMARK    9  A    between atoms: CA_17  and  C_18 
REMARK   10  A    between atoms: CA_17  and  CB_20 
REMARK       I    between atoms: C_18  and  N_28 
REMARK   11  A    between atoms: CB_20  and  CG_21 
REMARK   12  A    between atoms: N_28  and  CA_29 
REMARK   13  A    between atoms: CA_29  and  C_30 
REMARK   14  A    between atoms: CA_29  and  CB_32 
REMARK       I    between atoms: C_30  and  N_40 
REMARK   15  A    between atoms: CB_32  and  CG_33 
REMARK   16  A    between atoms: N_40  and  CA_41 
REMARK   17  A    between atoms: CA_41  and  C_42 
REMARK   18  A    between atoms: CA_41  and  CB_44 
REMARK       I    between atoms: C_42  and  N_48 
REMARK   19  A    between atoms: CB_44  and  OG_45 
REMARK   20  A    between atoms: N_48  and  CA_49 
REMARK   21  A    between atoms: CA_49  and  C_50 
REMARK   22  A    between atoms: CA_49  and  CB_52 
REMARK       I    between atoms: C_50  and  N_57 
REMARK   23  A    between atoms: CB_52  and  CG_53 
REMARK   24  A    between atoms: N_57  and  CA_58 
REMARK   25  A    between atoms: CA_58  and  C_59 
REMARK   26  A    between atoms: CA_58  and  CB_61 
REMARK   27  A    between atoms: CB_61  and  CG_62 
REMARK   28  A    between atoms: CG_62  and  CD_63 
REMARK   29  A    between atoms: CD_63  and  NE_64 
REMARK       I    between atoms: NE_64  and  CZ_65 
REMARK       I    between atoms: CZ_65  and  NH1_66 
ROOT
ATOM      1  CA  PHE D  85      23.277  12.526  -6.671  1.00 13.62     0.180 C 
ENDROOT
BRANCH   1   2
ATOM      2  N   PHE D  85      21.999  11.975  -6.140  1.00 12.64    -0.346 N 
ATOM      3  C   PHE D  84      20.934  12.751  -6.041  1.00 12.54     0.241 C 
ATOM      4  O   PHE D  84      20.970  13.950  -6.310  1.00 13.45    -0.271 OA
ATOM      5  H   PHE D  85      22.023  11.145  -5.916  1.00 12.64     0.163 HD
BRANCH   3   6
ATOM      6  CA  PHE D  84      19.661  12.093  -5.527  1.00 10.99     0.180 C 
BRANCH   6   7
ATOM      7  N   PHE D  84      19.754  10.642  -5.454  1.00 11.22    -0.346 N 
ATOM      8  C   SER D  83      19.513   9.892  -6.520  1.00 13.00     0.243 C 
ATOM      9  O   SER D  83      19.041  10.336  -7.563  1.00 14.46    -0.271 OA
ATOM     10  H   PHE D  84      19.972  10.333  -4.682  1.00 11.22     0.163 HD
BRANCH   8  11
ATOM     11  CA  SER D  83      19.858   8.416  -6.409  1.00 14.43     0.200 C 
BRANCH  11  12
ATOM     12  N   SER D  83      18.968   7.687  -7.298  1.00 17.69    -0.344 N 
ATOM     13  H   SER D  83      18.631   8.168  -7.926  1.00 17.69     0.163 HD
ATOM     14  C   SER D  82      18.706   6.396  -7.145  1.00 24.18     0.259 C 
ATOM     15  O   SER D  82      19.188   5.721  -6.245  1.00 25.18    -0.271 OA
BRANCH  14  16
ATOM     16  CA  SER D  82      17.716   5.775  -8.119  1.00 26.20     0.423 C 
ATOM     17  N   SER D  82      18.006   4.323  -8.272  1.00 29.40     0.617 N 
BRANCH  16  18
ATOM     18  CB  SER D  82      16.339   5.959  -7.533  1.00 30.27     0.215 C 
BRANCH  18  19
ATOM     19  OG  SER D  82      16.313   5.577  -6.174  1.00 31.34    -0.398 OA
ATOM     20  HG  SER D  82      15.601   5.847  -5.820  1.00 31.34     0.209 HD
ENDBRANCH  18  19
ENDBRANCH  16  18
ENDBRANCH  14  16
ENDBRANCH  11  12
BRANCH  11  21
ATOM     21  CB  SER D  83      21.310   8.279  -6.878  1.00 14.68     0.199 C 
BRANCH  21  22
ATOM     22  OG  SER D  83      22.169   9.025  -6.042  1.00 13.30    -0.398 OA
ATOM     23  HG  SER D  83      22.543   8.510  -5.494  1.00 13.30     0.209 HD
ENDBRANCH  21  22
ENDBRANCH  11  21
ENDBRANCH   8  11
ENDBRANCH   6   7
BRANCH   6  24
ATOM     24  CB  PHE D  84      19.152  12.640  -4.199  1.00  8.98     0.073 C 
BRANCH  24  25
ATOM     25  CG  PHE D  84      17.696  12.312  -3.990  1.00  8.49    -0.056 A 
ATOM     26  CD2 PHE D  84      16.709  13.114  -4.590  1.00 10.31     0.007 A 
ATOM     27  CE2 PHE D  84      15.364  12.774  -4.471  1.00 10.65     0.001 A 
ATOM     28  CZ  PHE D  84      14.965  11.660  -3.722  1.00 10.75     0.000 A 
ATOM     29  CE1 PHE D  84      15.949  10.862  -3.078  1.00 10.66     0.001 A 
ATOM     30  CD1 PHE D  84      17.304  11.164  -3.276  1.00  9.98     0.007 A 
ENDBRANCH  24  25
ENDBRANCH   6  24
ENDBRANCH   3   6
ENDBRANCH   1   2
BRANCH   1  31
ATOM     31  C   PHE D  85      23.365  12.348  -8.185  1.00 16.85     0.241 C 
ATOM     32  O   PHE D  85      22.819  11.393  -8.728  1.00 18.00    -0.271 OA
ATOM     33  N   SER D  86      24.111  13.240  -8.844  1.00 18.10    -0.344 N 
ATOM     34  H   SER D  86      24.687  13.745  -8.453  1.00 18.10     0.163 HD
BRANCH  33  35
ATOM     35  CA  SER D  86      24.036  13.456 -10.275  1.00 22.43     0.200 C 
BRANCH  35  36
ATOM     36  C   SER D  86      24.810  12.396 -11.036  1.00 23.81     0.243 C 
ATOM     37  N   ASP D  87      25.738  11.765 -10.327  1.00 23.40    -0.345 N 
ATOM     38  H   ASP D  87      25.847  11.878  -9.482  1.00 23.40     0.163 HD
ATOM     39  O   SER D  86      24.588  12.170 -12.240  1.00 25.32    -0.271 OA
BRANCH  37  40
ATOM     40  CA  ASP D  87      26.673  10.806 -10.925  1.00 26.51     0.186 C 
BRANCH  40  41
ATOM     41  C   ASP D  87      26.435   9.376 -10.436  1.00 27.38     0.241 C 
ATOM     42  O   ASP D  87      27.338   8.518 -10.499  1.00 28.73    -0.271 OA
ATOM     43  N   ARG D  88      25.227   9.137  -9.931  1.00 28.82    -0.347 N 
ATOM     44  H   ARG D  88      24.617   9.741  -9.882  1.00 28.82     0.163 HD
BRANCH  43  45
ATOM     45  CA  ARG D  88      24.798   7.838  -9.407  1.00 28.71     0.162 C 
BRANCH  45  46
ATOM     46  C   ARG D  88      23.389   7.490  -9.903  1.00 31.71     0.219 C 
ATOM     47  O   ARG D  88      22.930   6.346  -9.724  1.00 33.51    -0.287 OA
ENDBRANCH  45  46
BRANCH  45  48
ATOM     48  CB  ARG D  88      24.780   7.807  -7.869  1.00 27.82     0.035 C 
BRANCH  48  49
ATOM     49  CG  ARG D  88      26.087   8.165  -7.138  1.00 22.71     0.023 C 
BRANCH  49  50
ATOM     50  CD  ARG D  88      26.973   6.948  -7.044  1.00 22.91     0.138 C 
BRANCH  50  51
ATOM     51  NE  ARG D  88      26.412   6.000  -6.089  1.00 22.66    -0.227 N 
ATOM     52  CZ  ARG D  88      27.041   4.936  -5.595  1.00 22.61     0.665 C 
ATOM     53  NH2 ARG D  88      26.402   4.165  -4.732  1.00 21.99    -0.235 N 
ATOM     54  NH1 ARG D  88      28.243   4.579  -6.058  1.00 25.76    -0.235 N 
ATOM     55 HH22 ARG D  88      26.792   3.473  -4.402  1.00 21.99     0.174 HD
ATOM     56 HH21 ARG D  88      25.596   4.355  -4.500  1.00 21.99     0.174 HD
ATOM     57 HH12 ARG D  88      28.642   3.890  -5.733  1.00 25.76     0.174 HD
ATOM     58 HH11 ARG D  88      28.618   5.038  -6.681  1.00 25.76     0.174 HD
ATOM     59  HE  ARG D  88      25.607   6.140  -5.822  1.00 22.66     0.177 HD
ENDBRANCH  50  51
ENDBRANCH  49  50
ENDBRANCH  48  49
ENDBRANCH  45  48
ENDBRANCH  43  45
ENDBRANCH  40  41
BRANCH  40  60
ATOM     60  CB  ASP D  87      28.113  11.252 -10.629  1.00 26.50     0.147 C 
BRANCH  60  61
ATOM     61  CG  ASP D  87      28.392  11.456  -9.126  1.00 24.52     0.175 C 
ATOM     62  OD2 ASP D  87      29.598  11.649  -8.811  1.00 24.79    -0.648 OA
ATOM     63  OD1 ASP D  87      27.463  11.415  -8.261  1.00 24.25    -0.648 OA
ENDBRANCH  60  61
ENDBRANCH  40  60
ENDBRANCH  37  40
ENDBRANCH  35  36
BRANCH  35  64
ATOM     64  CB  SER D  86      24.647  14.827 -10.581  1.00 23.53     0.199 C 
BRANCH  64  65
ATOM     65  OG  SER D  86      23.836  15.832 -10.013  1.00 29.54    -0.398 OA
ATOM     66  HG  SER D  86      23.807  16.494 -10.529  1.00 29.54     0.209 HD
ENDBRANCH  64  65
ENDBRANCH  35  64
ENDBRANCH  33  35
ENDBRANCH   1  31
BRANCH   1  67
ATOM     67  CB  PHE D  85      24.487  11.860  -5.981  1.00 13.93     0.073 C 
BRANCH  67  68
ATOM     68  CG  PHE D  85      24.609  12.212  -4.536  1.00 11.63    -0.056 A 
ATOM     69  CD1 PHE D  85      24.031  11.391  -3.537  1.00 12.04     0.007 A 
ATOM     70  CE1 PHE D  85      24.126  11.720  -2.164  1.00 12.49     0.001 A 
ATOM     71  CZ  PHE D  85      24.799  12.936  -1.799  1.00 15.08     0.000 A 
ATOM     72  CE2 PHE D  85      25.320  13.768  -2.811  1.00 13.94     0.001 A 
ATOM     73  CD2 PHE D  85      25.199  13.418  -4.157  1.00 14.09     0.007 A 
ENDBRANCH  67  68
ENDBRANCH   1  67
TORSDOF 29
