REMARK  16 active torsions:
REMARK  status: ('A' for Active; 'I' for Inactive)
REMARK    1  A    between atoms: CA_2  and  CB_5 
REMARK    2  A    between atoms: CA_2  and  C_3 
REMARK       I    between atoms: C_3  and  N_10 
REMARK    3  A    between atoms: CB_5  and  CG_6 
REMARK    4  A    between atoms: CG_6  and  CD_7 
REMARK    5  A    between atoms: N_10  and  CA_11 
REMARK    6  A    between atoms: CA_11  and  CB_14 
REMARK    7  A    between atoms: CA_11  and  C_12 
REMARK       I    between atoms: C_12  and  N_20 
REMARK    8  A    between atoms: CB_14  and  CG_15 
REMARK    9  A    between atoms: CG_15  and  CD_16 
REMARK   10  A    between atoms: N_20  and  CA_21 
REMARK   11  A    between atoms: CA_21  and  C_22 
REMARK   12  A    between atoms: CA_21  and  CB_24 
REMARK       I    between atoms: C_22  and  N_28 
REMARK   13  A    between atoms: N_28  and  CA_29 
REMARK   14  A    between atoms: CA_29  and  CB_32 
REMARK   15  A    between atoms: CA_29  and  C_30 
REMARK   16  A    between atoms: CB_32  and  CG_33 
ROOT
ATOM      1  C   GLU Q 640      31.228  56.153  71.437  1.00 42.49     0.241 C 
ATOM      2  O   GLU Q 640      32.222  56.771  71.062  1.00 42.42    -0.271 OA
ATOM      3  N   VAL Q 641      31.182  55.464  72.572  1.00 42.52    -0.346 N 
ATOM      4  H   VAL Q 641      30.510  54.982  72.808  1.00 42.52     0.163 HD
ENDROOT
BRANCH   1   5
ATOM      5  CA  GLU Q 640      29.954  56.112  70.599  1.00 42.54     0.177 C 
BRANCH   5   6
ATOM      6  CB  GLU Q 640      30.041  54.990  69.562  1.00 42.65     0.045 C 
BRANCH   6   7
ATOM      7  CG  GLU Q 640      28.690  54.429  69.139  1.00 42.42     0.116 C 
BRANCH   7   8
ATOM      8  CD  GLU Q 640      28.802  53.139  68.340  1.00 42.56     0.172 C 
ATOM      9  OE2 GLU Q 640      27.741  52.581  67.970  1.00 42.27    -0.648 OA
ATOM     10  OE1 GLU Q 640      29.943  52.682  68.081  1.00 42.60    -0.648 OA
ENDBRANCH   7   8
ENDBRANCH   6   7
ENDBRANCH   5   6
BRANCH   5  11
ATOM     11  N   GLU Q 640      29.613  57.386  69.963  1.00 42.67    -0.346 N 
ATOM     12  C   GLU Q 639      28.486  58.031  70.257  1.00 42.69     0.257 C 
ATOM     13  O   GLU Q 639      27.727  57.676  71.161  1.00 42.71    -0.271 OA
ATOM     14  H   GLU Q 640      30.195  57.669  69.397  1.00 42.67     0.163 HD
BRANCH  12  15
ATOM     15  CA  GLU Q 639      28.152  59.257  69.407  1.00 42.78     0.400 C 
ATOM     16  N   GLU Q 639      29.358  60.025  68.977  1.00 42.84     0.615 N 
BRANCH  15  17
ATOM     17  CB  GLU Q 639      27.322  58.824  68.194  1.00 42.78     0.062 C 
BRANCH  17  18
ATOM     18  CG  GLU Q 639      26.408  59.904  67.642  1.00 43.01     0.116 C 
BRANCH  18  19
ATOM     19  CD  GLU Q 639      25.219  59.342  66.876  1.00 43.16     0.172 C 
ATOM     20  OE1 GLU Q 639      25.058  58.103  66.824  1.00 43.27    -0.648 OA
ATOM     21  OE2 GLU Q 639      24.439  60.147  66.326  1.00 43.17    -0.648 OA
ENDBRANCH  18  19
ENDBRANCH  17  18
ENDBRANCH  15  17
ENDBRANCH  12  15
ENDBRANCH   5  11
ENDBRANCH   1   5
BRANCH   3  22
ATOM     22  CA  VAL Q 641      32.277  55.463  73.531  1.00 42.43     0.180 C 
BRANCH  22  23
ATOM     23  C   VAL Q 641      32.956  54.081  73.602  1.00 42.31     0.241 C 
ATOM     24  O   VAL Q 641      32.292  53.049  73.475  1.00 42.15    -0.271 OA
ATOM     25  N   ASP Q 642      34.276  54.070  73.785  1.00 42.19    -0.347 N 
ATOM     26  H   ASP Q 642      34.752  54.780  73.875  1.00 42.19     0.163 HD
BRANCH  25  27
ATOM     27  CA  ASP Q 642      35.040  52.819  73.849  1.00 42.17     0.172 C 
BRANCH  27  28
ATOM     28  CB  ASP Q 642      36.402  52.972  73.161  1.00 42.21     0.146 C 
BRANCH  28  29
ATOM     29  CG  ASP Q 642      36.291  53.143  71.653  1.00 42.38     0.174 C 
ATOM     30  OD1 ASP Q 642      35.203  52.893  71.086  1.00 42.36    -0.648 OA
ATOM     31  OD2 ASP Q 642      37.307  53.527  71.032  1.00 42.41    -0.648 OA
ENDBRANCH  28  29
ENDBRANCH  27  28
BRANCH  27  32
ATOM     32  C   ASP Q 642      35.230  52.311  75.281  1.00 42.05     0.220 C 
ATOM     33  O   ASP Q 642      35.571  53.074  76.184  1.00 41.78    -0.287 OA
ENDBRANCH  27  32
ENDBRANCH  25  27
ENDBRANCH  22  23
BRANCH  22  34
ATOM     34  CB  VAL Q 641      31.767  55.961  74.915  1.00 42.38     0.009 C 
ATOM     35  CG2 VAL Q 641      32.881  56.570  75.703  1.00 42.63     0.012 C 
ATOM     36  CG1 VAL Q 641      31.068  54.851  75.705  1.00 42.36     0.012 C 
ENDBRANCH  22  34
ENDBRANCH   3  22
TORSDOF 16
