REMARK  20 active torsions:
REMARK  status: ('A' for Active; 'I' for Inactive)
REMARK    1  A    between atoms: CA_2  and  C_3 
REMARK       I    between atoms: C_3  and  N_5 
REMARK    2  A    between atoms: N_5  and  CA_6 
REMARK    3  A    between atoms: CA_6  and  C_7 
REMARK    4  A    between atoms: CA_6  and  CB_9 
REMARK       I    between atoms: C_7  and  N_15 
REMARK    5  A    between atoms: CB_9  and  CG_10 
REMARK    6  A    between atoms: CG_10  and  CD_11 
REMARK    7  A    between atoms: N_15  and  CA_16 
REMARK    8  A    between atoms: CA_16  and  CB_19 
REMARK    9  A    between atoms: CA_16  and  C_17 
REMARK       I    between atoms: C_17  and  N_24 
REMARK   10  A    between atoms: CB_19  and  OG1_20 
REMARK   11  A    between atoms: N_24  and  CA_25 
REMARK   12  A    between atoms: CA_25  and  C_26 
REMARK   13  A    between atoms: CA_25  and  CB_28 
REMARK       I    between atoms: C_26  and  N_41 
REMARK   14  A    between atoms: CB_28  and  CG_29 
REMARK   15  A    between atoms: CG_29  and  CD_30 
REMARK   16  A    between atoms: CD_30  and  NE_31 
REMARK       I    between atoms: NE_31  and  CZ_32 
REMARK       I    between atoms: CZ_32  and  NH1_33 
REMARK   17  A    between atoms: N_41  and  CA_42 
REMARK   18  A    between atoms: CA_42  and  CB_45 
REMARK   19  A    between atoms: CA_42  and  C_43 
REMARK   20  A    between atoms: CB_45  and  CG_46 
ROOT
ATOM      1  C   THR D  11      34.129   0.754   2.160  1.00 18.55     0.243 C 
ATOM      2  O   THR D  11      33.533   0.911   1.090  1.00 18.02    -0.271 OA
ATOM      3  N   ARG D  12      35.244   0.018   2.284  1.00 18.77    -0.346 N 
ATOM      4  H   ARG D  12      35.665  -0.057   3.030  1.00 18.77     0.163 HD
ENDROOT
BRANCH   3   5
ATOM      5  CA  ARG D  12      35.869  -0.730   1.202  1.00 18.70     0.176 C 
BRANCH   5   6
ATOM      6  C   ARG D  12      35.222  -2.128   1.186  1.00 21.86     0.241 C 
ATOM      7  N   LEU D  13      34.801  -2.590   0.006  1.00 17.74    -0.345 N 
ATOM      8  H   LEU D  13      34.878  -2.132  -0.718  1.00 17.74     0.163 HD
ATOM      9  O   ARG D  12      35.095  -2.766   2.244  1.00 22.92    -0.271 OA
BRANCH   7  10
ATOM     10  CA  LEU D  13      34.167  -3.902  -0.218  1.00 16.59     0.185 C 
BRANCH  10  11
ATOM     11  CB  LEU D  13      32.764  -3.757  -0.891  1.00 17.18     0.040 C 
BRANCH  11  12
ATOM     12  CG  LEU D  13      31.541  -3.249  -0.078  1.00 22.98    -0.020 C 
ATOM     13  CD2 LEU D  13      31.518  -1.751   0.055  1.00 23.47     0.009 C 
ATOM     14  CD1 LEU D  13      31.359  -3.960   1.235  1.00 23.63     0.009 C 
ENDBRANCH  11  12
ENDBRANCH  10  11
BRANCH  10  15
ATOM     15  C   LEU D  13      34.990  -4.780  -1.123  1.00 15.64     0.196 C 
ATOM     16  OXT LEU D  13      35.855  -4.243  -1.848  1.00 16.77    -0.646 OA
ATOM     17  O   LEU D  13      34.691  -5.988  -1.182  1.00 16.70    -0.646 OA
ENDBRANCH  10  15
ENDBRANCH   7  10
ENDBRANCH   5   6
BRANCH   5  18
ATOM     18  CB  ARG D  12      37.381  -0.861   1.479  1.00 21.73     0.036 C 
BRANCH  18  19
ATOM     19  CG  ARG D  12      38.119   0.486   1.573  1.00 32.78     0.023 C 
BRANCH  19  20
ATOM     20  CD  ARG D  12      39.359   0.421   2.454  1.00 50.92     0.138 C 
BRANCH  20  21
ATOM     21  NE  ARG D  12      39.143  -0.411   3.643  1.00 62.40    -0.227 N 
ATOM     22  CZ  ARG D  12      40.028  -0.585   4.617  1.00 78.74     0.665 C 
ATOM     23  NH2 ARG D  12      39.742  -1.372   5.646  1.00 63.99    -0.235 N 
ATOM     24  NH1 ARG D  12      41.199   0.039   4.581  1.00 69.89    -0.235 N 
ATOM     25 HH21 ARG D  12      38.981  -1.771   5.683  1.00 63.99     0.174 HD
ATOM     26 HH22 ARG D  12      40.317  -1.483   6.276  1.00 63.99     0.174 HD
ATOM     27 HH12 ARG D  12      41.768  -0.078   5.215  1.00 69.89     0.174 HD
ATOM     28 HH11 ARG D  12      41.389   0.560   3.924  1.00 69.89     0.174 HD
ATOM     29  HE  ARG D  12      38.388  -0.816   3.714  1.00 62.40     0.177 HD
ENDBRANCH  20  21
ENDBRANCH  19  20
ENDBRANCH  18  19
ENDBRANCH   5  18
ENDBRANCH   3   5
BRANCH   1  30
ATOM     30  CA  THR D  11      33.588   1.384   3.443  1.00 18.14     0.205 C 
BRANCH  30  31
ATOM     31  N   THR D  11      33.194   2.770   3.172  1.00 19.39    -0.344 N 
ATOM     32  H   THR D  11      32.689   2.864   2.482  1.00 19.39     0.163 HD
ATOM     33  C   GLU D  10      33.597   3.794   3.946  1.00 24.62     0.241 C 
ATOM     34  O   GLU D  10      34.334   3.647   4.920  1.00 23.89    -0.271 OA
BRANCH  33  35
ATOM     35  CA  GLU D  10      33.176   5.199   3.510  1.00 24.68     0.177 C 
BRANCH  35  36
ATOM     36  CB  GLU D  10      34.336   5.884   2.769  1.00 26.38     0.045 C 
BRANCH  36  37
ATOM     37  CG  GLU D  10      34.678   5.273   1.424  1.00 32.13     0.116 C 
BRANCH  37  38
ATOM     38  CD  GLU D  10      35.880   5.864   0.714  1.00 44.28     0.172 C 
ATOM     39  OE2 GLU D  10      35.946   5.708  -0.523  1.00 30.19    -0.648 OA
ATOM     40  OE1 GLU D  10      36.763   6.456   1.378  1.00 43.79    -0.648 OA
ENDBRANCH  37  38
ENDBRANCH  36  37
ENDBRANCH  35  36
BRANCH  35  41
ATOM     41  N   GLU D  10      32.798   6.039   4.643  1.00 26.35    -0.346 N 
ATOM     42  H   GLU D  10      33.456   6.201   5.172  1.00 26.35     0.163 HD
ATOM     43  C   GLY D   9      31.575   6.519   4.863  1.00 30.50     0.252 C 
ATOM     44  O   GLY D   9      30.602   6.255   4.147  1.00 29.84    -0.271 OA
BRANCH  43  45
ATOM     45  CA  GLY D   9      31.411   7.410   6.080  1.00 28.17     0.466 C 
ATOM     46  N   GLY D   9      32.660   7.702   6.780  1.00 29.20     0.609 N 
ENDBRANCH  43  45
ENDBRANCH  35  41
ENDBRANCH  33  35
ENDBRANCH  30  31
BRANCH  30  47
ATOM     47  CB  THR D  11      32.411   0.545   4.009  1.00 19.92     0.146 C 
ATOM     48  CG2 THR D  11      32.809  -0.914   4.333  1.00 18.13     0.042 C 
BRANCH  47  49
ATOM     49  OG1 THR D  11      31.900   1.157   5.194  1.00 18.56    -0.393 OA
ATOM     50  HG1 THR D  11      31.433   1.824   4.986  1.00 18.56     0.210 HD
ENDBRANCH  47  49
ENDBRANCH  30  47
ENDBRANCH   1  30
TORSDOF 20
