REMARK  19 active torsions:
REMARK  status: ('A' for Active; 'I' for Inactive)
REMARK    1  A    between atoms: CA_2  and  CB_5 
REMARK    2  A    between atoms: CA_2  and  C_3 
REMARK       I    between atoms: C_3  and  N_9 
REMARK    3  A    between atoms: CB_5  and  CG1_6 
REMARK    4  A    between atoms: N_9  and  CA_10 
REMARK    5  A    between atoms: CA_10  and  CB_13 
REMARK    6  A    between atoms: CA_10  and  C_11 
REMARK       I    between atoms: C_11  and  N_19 
REMARK    7  A    between atoms: CB_13  and  CG_14 
REMARK    8  A    between atoms: CG_14  and  CD_15 
REMARK    9  A    between atoms: N_19  and  CA_20 
REMARK   10  A    between atoms: CA_20  and  CB_23 
REMARK   11  A    between atoms: CA_20  and  C_21 
REMARK       I    between atoms: C_21  and  N_27 
REMARK   12  A    between atoms: CB_23  and  OG_24 
REMARK   13  A    between atoms: N_27  and  CA_28 
REMARK   14  A    between atoms: CA_28  and  C_29 
REMARK   15  A    between atoms: CA_28  and  CB_31 
REMARK       I    between atoms: C_29  and  N_36 
REMARK   16  A    between atoms: CB_31  and  CG_32 
REMARK   17  A    between atoms: N_36  and  CA_37 
REMARK   18  A    between atoms: CA_37  and  C_38 
REMARK   19  A    between atoms: CA_37  and  CB_40 
ROOT
ATOM      1  CA  SER G  14      50.944 -16.422  10.212  1.00 44.70     0.200 C 
ENDROOT
BRANCH   1   2
ATOM      2  N   SER G  14      50.810 -17.372  11.320  1.00 46.20    -0.344 N 
ATOM      3  H   SER G  14      50.065 -17.297  11.743  1.00 46.20     0.163 HD
ATOM      4  C   GLU G  13      51.754 -18.284  11.658  1.00 51.44     0.241 C 
ATOM      5  O   GLU G  13      52.837 -18.391  11.068  1.00 50.95    -0.271 OA
BRANCH   4   6
ATOM      6  CA  GLU G  13      51.430 -19.235  12.833  1.00 50.06     0.177 C 
BRANCH   6   7
ATOM      7  CB  GLU G  13      52.047 -18.748  14.157  1.00 50.83     0.045 C 
BRANCH   7   8
ATOM      8  CG  GLU G  13      52.192 -17.247  14.321  1.00 52.88     0.116 C 
BRANCH   8   9
ATOM      9  CD  GLU G  13      53.002 -16.834  15.531  1.00 63.45     0.172 C 
ATOM     10  OE2 GLU G  13      54.249 -16.997  15.512  1.00 51.34    -0.648 OA
ATOM     11  OE1 GLU G  13      52.377 -16.373  16.516  1.00 49.18    -0.648 OA
ENDBRANCH   8   9
ENDBRANCH   7   8
ENDBRANCH   6   7
BRANCH   6  12
ATOM     12  N   GLU G  13      51.937 -20.568  12.510  1.00 52.96    -0.346 N 
ATOM     13  C   ILE G  12      51.275 -21.736  12.436  1.00 61.55     0.257 C 
ATOM     14  O   ILE G  12      50.078 -21.870  12.705  1.00 62.55    -0.271 OA
ATOM     15  H   GLU G  13      52.782 -20.543  12.355  1.00 52.96     0.163 HD
BRANCH  13  16
ATOM     16  CA  ILE G  12      52.115 -22.940  12.000  1.00 62.28     0.403 C 
ATOM     17  N   ILE G  12      51.564 -24.230  12.430  1.00 63.47     0.615 N 
BRANCH  16  18
ATOM     18  CB  ILE G  12      52.485 -22.878  10.480  1.00 65.80     0.029 C 
ATOM     19  CG2 ILE G  12      53.719 -23.739  10.166  1.00 67.40     0.012 C 
BRANCH  18  20
ATOM     20  CG1 ILE G  12      51.271 -23.197   9.554  1.00 66.47     0.002 C 
ATOM     21  CD1 ILE G  12      51.398 -22.677   8.075  1.00 71.32     0.005 C 
ENDBRANCH  18  20
ENDBRANCH  16  18
ENDBRANCH  13  16
ENDBRANCH   6  12
ENDBRANCH   4   6
ENDBRANCH   1   2
BRANCH   1  22
ATOM     22  CB  SER G  14      50.050 -16.834   9.043  1.00 46.99     0.199 C 
BRANCH  22  23
ATOM     23  OG  SER G  14      50.230 -18.186   8.659  1.00 54.54    -0.398 OA
ATOM     24  HG  SER G  14      49.707 -18.674   9.099  1.00 54.54     0.209 HD
ENDBRANCH  22  23
ENDBRANCH   1  22
BRANCH   1  25
ATOM     25  C   SER G  14      50.611 -14.986  10.620  1.00 46.83     0.243 C 
ATOM     26  O   SER G  14      49.707 -14.754  11.410  1.00 45.69    -0.271 OA
ATOM     27  N   ASP G  15      51.304 -14.028  10.024  1.00 44.02    -0.345 N 
ATOM     28  H   ASP G  15      51.926 -14.195   9.454  1.00 44.02     0.163 HD
BRANCH  27  29
ATOM     29  CA  ASP G  15      51.107 -12.594  10.251  1.00 44.06     0.186 C 
BRANCH  29  30
ATOM     30  C   ASP G  15      50.261 -11.969   9.139  1.00 44.73     0.241 C 
ATOM     31  O   ASP G  15      50.556 -12.151   7.961  1.00 45.25    -0.271 OA
ATOM     32  N   VAL G  16      49.212 -11.240   9.516  1.00 39.33    -0.344 N 
ATOM     33  H   VAL G  16      48.998 -11.109  10.339  1.00 39.33     0.163 HD
BRANCH  32  34
ATOM     34  CA  VAL G  16      48.320 -10.589   8.562  1.00 42.56     0.189 C 
BRANCH  34  35
ATOM     35  C   VAL G  16      48.362  -9.043   8.678  1.00 36.49     0.197 C 
ATOM     36  OXT VAL G  16      47.778  -8.369   7.833  1.00 48.65    -0.646 OA
ATOM     37  O   VAL G  16      48.990  -8.518   9.618  1.00 44.52    -0.646 OA
ENDBRANCH  34  35
BRANCH  34  38
ATOM     38  CB  VAL G  16      46.874 -11.184   8.588  1.00 46.62     0.010 C 
ATOM     39  CG1 VAL G  16      46.831 -12.567   7.929  1.00 46.76     0.012 C 
ATOM     40  CG2 VAL G  16      46.328 -11.262  10.007  1.00 45.99     0.012 C 
ENDBRANCH  34  38
ENDBRANCH  32  34
ENDBRANCH  29  30
BRANCH  29  41
ATOM     41  CB  ASP G  15      52.467 -11.872  10.408  1.00 46.49     0.147 C 
BRANCH  41  42
ATOM     42  CG  ASP G  15      53.510 -12.246   9.375  1.00 64.67     0.175 C 
ATOM     43  OD1 ASP G  15      53.893 -13.442   9.322  1.00 66.12    -0.648 OA
ATOM     44  OD2 ASP G  15      53.971 -11.337   8.640  1.00 71.61    -0.648 OA
ENDBRANCH  41  42
ENDBRANCH  29  41
ENDBRANCH  27  29
ENDBRANCH   1  25
TORSDOF 19
