REMARK  10 active torsions:
REMARK  status: ('A' for Active; 'I' for Inactive)
REMARK    1  A    between atoms: N_1  and  CA_2 
REMARK    2  A    between atoms: CA_2  and  CB_5 
REMARK    3  A    between atoms: CA_2  and  C_3 
REMARK       I    between atoms: C_3  and  N_14 
REMARK    4  A    between atoms: CB_5  and  CG_6 
REMARK    5  A    between atoms: N_14  and  CA_15 
REMARK    6  A    between atoms: CA_15  and  CB_18 
REMARK    7  A    between atoms: CA_15  and  C_16 
REMARK       I    between atoms: C_16  and  N_23 
REMARK    8  A    between atoms: CB_18  and  CG1_19 
REMARK    9  A    between atoms: N_23  and  CA_24 
REMARK   10  A    between atoms: CA_24  and  C_25 
ROOT
ATOM      1  C   HIS B   1      27.557  11.158  -7.220  1.00 77.53     0.249 C 
ATOM      2  O   HIS B   1      27.773  12.236  -6.673  1.00 77.48    -0.271 OA
ATOM      3  N   ILE B   2      27.787   9.986  -6.638  1.00 78.06    -0.346 N 
ATOM      4  H   ILE B   2      27.643   9.227  -7.016  1.00 78.06     0.163 HD
ENDROOT
BRANCH   3   5
ATOM      5  CA  ILE B   2      28.313   9.891  -5.281  1.00 78.69     0.180 C 
BRANCH   5   6
ATOM      6  CB  ILE B   2      27.371   9.047  -4.369  1.00 78.71     0.013 C 
ATOM      7  CG2 ILE B   2      27.738   7.555  -4.390  1.00 78.95     0.012 C 
BRANCH   6   8
ATOM      8  CG1 ILE B   2      27.315   9.628  -2.952  1.00 78.88     0.002 C 
ATOM      9  CD1 ILE B   2      26.396  10.839  -2.819  1.00 79.16     0.005 C 
ENDBRANCH   6   8
ENDBRANCH   5   6
BRANCH   5  10
ATOM     10  C   ILE B   2      29.752   9.359  -5.288  1.00 79.02     0.241 C 
ATOM     11  O   ILE B   2      30.222   8.848  -6.309  1.00 79.18    -0.271 OA
ATOM     12  N   ALA B   3      30.442   9.497  -4.155  1.00 79.42    -0.348 N 
ATOM     13  H   ALA B   3      30.104   9.822  -3.434  1.00 79.42     0.163 HD
BRANCH  12  14
ATOM     14  CA  ALA B   3      31.851   9.108  -4.024  1.00 79.64     0.158 C 
ATOM     15  CB  ALA B   3      32.354   9.417  -2.620  1.00 79.64     0.041 C 
BRANCH  14  16
ATOM     16  C   ALA B   3      32.105   7.638  -4.370  1.00 79.83     0.219 C 
ATOM     17  O   ALA B   3      32.883   7.331  -5.280  1.00 80.02    -0.287 OA
ENDBRANCH  14  16
ENDBRANCH  12  14
ENDBRANCH   5  10
ENDBRANCH   3   5
BRANCH   1  18
ATOM     18  CA  HIS B   1      26.997  11.107  -8.631  1.00 77.18     0.280 C 
BRANCH  18  19
ATOM     19  N   HIS B   1      26.364  12.403  -9.005  1.00 77.06    -0.066 N 
ATOM     20  H1  HIS B   1      25.826  12.280  -9.704  1.00 77.06     0.275 HD
ATOM     21  H2  HIS B   1      25.891  12.712  -8.317  1.00 77.06     0.275 HD
ATOM     22  H3  HIS B   1      26.996  12.992  -9.218  1.00 77.06     0.275 HD
ENDBRANCH  18  19
BRANCH  18  23
ATOM     23  CB  HIS B   1      28.094  10.732  -9.630  1.00 76.99     0.103 C 
BRANCH  23  24
ATOM     24  CG  HIS B   1      27.582  10.464 -11.010  1.00 76.37     0.056 A 
ATOM     25  ND1 HIS B   1      27.380   9.190 -11.494  1.00 75.55    -0.245 NA
ATOM     26  CE1 HIS B   1      26.916   9.259 -12.729  1.00 75.32     0.232 A 
ATOM     27  NE2 HIS B   1      26.806  10.533 -13.062  1.00 75.43    -0.252 NA
ATOM     28  CD2 HIS B   1      27.214  11.307 -12.003  1.00 75.70     0.145 A 
ENDBRANCH  23  24
ENDBRANCH  18  23
ENDBRANCH   1  18
TORSDOF 10
