REMARK  12 active torsions:
REMARK  status: ('A' for Active; 'I' for Inactive)
REMARK    1  A    between atoms: N_1  and  CA_2 
REMARK    2  A    between atoms: CA_2  and  C_3 
REMARK    3  A    between atoms: CA_2  and  CB_5 
REMARK       I    between atoms: C_3  and  N_20 
REMARK    4  A    between atoms: CB_5  and  CG_6 
REMARK    5  A    between atoms: CG_6  and  CD_7 
REMARK    6  A    between atoms: CD_7  and  NE_8 
REMARK       I    between atoms: NE_8  and  CZ_9 
REMARK       I    between atoms: CZ_9  and  NH1_10 
REMARK    7  A    between atoms: N_20  and  CA_21 
REMARK    8  A    between atoms: CA_21  and  C_22 
REMARK    9  A    between atoms: CA_21  and  CB_24 
REMARK       I    between atoms: C_22  and  N_29 
REMARK   10  A    between atoms: CB_24  and  CG_25 
REMARK   11  A    between atoms: N_29  and  CA_30 
REMARK   12  A    between atoms: CA_30  and  C_31 
ROOT
ATOM      1  CA  ARG X   1     -40.260  13.281  -6.667  1.00 44.42     0.274 C 
ENDROOT
BRANCH   1   2
ATOM      2  C   ARG X   1     -40.566  11.893  -7.228  1.00 44.91     0.249 C 
ATOM      3  O   ARG X   1     -39.879  10.922  -6.903  1.00 44.76    -0.271 OA
ATOM      4  N   ASP X   2     -41.601  11.802  -8.063  1.00 45.46    -0.345 N 
ATOM      5  H   ASP X   2     -42.137  12.452  -8.234  1.00 45.46     0.163 HD
BRANCH   4   6
ATOM      6  CA  ASP X   2     -41.914  10.560  -8.771  1.00 46.23     0.186 C 
BRANCH   6   7
ATOM      7  C   ASP X   2     -41.403  10.599 -10.217  1.00 46.82     0.241 C 
ATOM      8  N   ALA X   3     -40.723   9.524 -10.619  1.00 47.39    -0.348 N 
ATOM      9  H   ALA X   3     -40.577   8.843 -10.115  1.00 47.39     0.163 HD
ATOM     10  O   ASP X   2     -41.627  11.573 -10.942  1.00 46.73    -0.271 OA
BRANCH   8  11
ATOM     11  CA  ALA X   3     -40.156   9.396 -11.961  1.00 47.83     0.158 C 
ATOM     12  CB  ALA X   3     -38.642   9.254 -11.884  1.00 47.95     0.041 C 
BRANCH  11  13
ATOM     13  C   ALA X   3     -40.771   8.229 -12.741  1.00 48.01     0.219 C 
ATOM     14  O   ALA X   3     -41.430   7.356 -12.169  1.00 47.84    -0.287 OA
ENDBRANCH  11  13
ENDBRANCH   8  11
ENDBRANCH   6   7
BRANCH   6  15
ATOM     15  CB  ASP X   2     -43.422  10.279  -8.727  1.00 46.29     0.147 C 
BRANCH  15  16
ATOM     16  CG  ASP X   2     -43.822   9.017  -9.495  1.00 46.38     0.175 C 
ATOM     17  OD1 ASP X   2     -42.969   8.381 -10.150  1.00 47.16    -0.648 OA
ATOM     18  OD2 ASP X   2     -45.010   8.655  -9.449  1.00 46.37    -0.648 OA
ENDBRANCH  15  16
ENDBRANCH   6  15
ENDBRANCH   4   6
ENDBRANCH   1   2
BRANCH   1  19
ATOM     19  CB  ARG X   1     -39.659  14.176  -7.768  1.00 44.35     0.044 C 
BRANCH  19  20
ATOM     20  CG  ARG X   1     -39.044  15.501  -7.300  1.00 42.92     0.023 C 
BRANCH  20  21
ATOM     21  CD  ARG X   1     -40.076  16.426  -6.671  1.00 41.32     0.138 C 
BRANCH  21  22
ATOM     22  NE  ARG X   1     -39.650  17.827  -6.687  1.00 39.81    -0.227 N 
ATOM     23  HE  ARG X   1     -39.898  18.308  -7.356  1.00 39.81     0.177 HD
ATOM     24  CZ  ARG X   1     -38.910  18.417  -5.751  1.00 39.75     0.665 C 
ATOM     25  NH1 ARG X   1     -38.484  17.741  -4.682  1.00 38.76    -0.235 N 
ATOM     26  NH2 ARG X   1     -38.593  19.697  -5.884  1.00 38.02    -0.235 N 
ATOM     27 HH11 ARG X   1     -38.687  16.910  -4.590  1.00 38.76     0.174 HD
ATOM     28 HH12 ARG X   1     -38.007  18.136  -4.086  1.00 38.76     0.174 HD
ATOM     29 HH21 ARG X   1     -38.865  20.138  -6.570  1.00 38.02     0.174 HD
ATOM     30 HH22 ARG X   1     -38.115  20.086  -5.284  1.00 38.02     0.174 HD
ENDBRANCH  21  22
ENDBRANCH  20  21
ENDBRANCH  19  20
ENDBRANCH   1  19
BRANCH   1  31
ATOM     31  N   ARG X   1     -39.340  13.191  -5.495  1.00 44.45    -0.067 N 
ATOM     32  H3  ARG X   1     -38.520  12.988  -5.776  1.00 44.45     0.275 HD
ATOM     33  H2  ARG X   1     -39.628  12.558  -4.939  1.00 44.45     0.275 HD
ATOM     34  H1  ARG X   1     -39.323  13.973  -5.070  1.00 44.45     0.275 HD
ENDBRANCH   1  31
TORSDOF 12
