REMARK  16 active torsions:
REMARK  status: ('A' for Active; 'I' for Inactive)
REMARK    1  A    between atoms: N_1  and  CA_2 
REMARK    2  A    between atoms: CA_2  and  CB_5 
REMARK    3  A    between atoms: CA_2  and  C_3 
REMARK       I    between atoms: C_3  and  N_20 
REMARK    4  A    between atoms: CB_5  and  CG_6 
REMARK    5  A    between atoms: CG_6  and  CD_7 
REMARK    6  A    between atoms: CD_7  and  NE_8 
REMARK       I    between atoms: NE_8  and  CZ_9 
REMARK       I    between atoms: CZ_9  and  NH1_10 
REMARK    7  A    between atoms: N_20  and  CA_21 
REMARK    8  A    between atoms: CA_21  and  CB_24 
REMARK    9  A    between atoms: CA_21  and  C_22 
REMARK       I    between atoms: C_22  and  N_37 
REMARK   10  A    between atoms: CB_24  and  CG_25 
REMARK   11  A    between atoms: CG_25  and  CD_26 
REMARK   12  A    between atoms: CD_26  and  NE_27 
REMARK       I    between atoms: NE_27  and  CZ_28 
REMARK       I    between atoms: CZ_28  and  NH1_29 
REMARK   13  A    between atoms: N_37  and  CA_38 
REMARK   14  A    between atoms: CA_38  and  C_39 
REMARK       I    between atoms: C_39  and  N_43 
REMARK   15  A    between atoms: N_43  and  CA_44 
REMARK   16  A    between atoms: CA_44  and  C_45 
ROOT
ATOM      1  CA  ARG X   2     -29.230  -6.354  -8.110  1.00 56.86     0.176 C 
ENDROOT
BRANCH   1   2
ATOM      2  CB  ARG X   2     -29.727  -7.802  -8.076  1.00 56.93     0.036 C 
BRANCH   2   3
ATOM      3  CG  ARG X   2     -30.886  -8.087  -9.019  1.00 58.33     0.023 C 
BRANCH   3   4
ATOM      4  CD  ARG X   2     -31.771  -9.201  -8.516  1.00 61.73     0.138 C 
BRANCH   4   5
ATOM      5  NE  ARG X   2     -31.289 -10.532  -8.882  1.00 63.99    -0.227 N 
ATOM      6  HE  ARG X   2     -30.693 -10.584  -9.499  1.00 63.99     0.177 HD
ATOM      7  CZ  ARG X   2     -31.708 -11.672  -8.327  1.00 64.82     0.665 C 
ATOM      8  NH1 ARG X   2     -32.619 -11.673  -7.357  1.00 63.71    -0.235 N 
ATOM      9  NH2 ARG X   2     -31.203 -12.825  -8.746  1.00 65.19    -0.235 N 
ATOM     10 HH12 ARG X   2     -32.878 -12.417  -7.011  1.00 63.71     0.174 HD
ATOM     11 HH11 ARG X   2     -32.949 -10.930  -7.076  1.00 63.71     0.174 HD
ATOM     12 HH22 ARG X   2     -31.468 -13.564  -8.394  1.00 65.19     0.174 HD
ATOM     13 HH21 ARG X   2     -30.611 -12.834  -9.370  1.00 65.19     0.174 HD
ENDBRANCH   4   5
ENDBRANCH   3   4
ENDBRANCH   2   3
ENDBRANCH   1   2
BRANCH   1  14
ATOM     14  C   ARG X   2     -29.020  -5.898  -9.545  1.00 57.66     0.241 C 
ATOM     15  N   ALA X   3     -27.810  -6.105 -10.068  1.00 58.84    -0.346 N 
ATOM     16  H   ALA X   3     -27.153  -6.444  -9.629  1.00 58.84     0.163 HD
ATOM     17  O   ARG X   2     -29.948  -5.365 -10.160  1.00 57.54    -0.271 OA
BRANCH  15  18
ATOM     18  CA  ALA X   3     -27.490  -5.766 -11.461  1.00 60.16     0.172 C 
ATOM     19  CB  ALA X   3     -25.977  -5.848 -11.719  1.00 60.10     0.042 C 
BRANCH  18  20
ATOM     20  C   ALA X   3     -28.262  -6.661 -12.431  1.00 60.84     0.240 C 
ATOM     21  N   ALA X   4     -29.207  -6.042 -13.145  1.00 61.66    -0.345 N 
ATOM     22  H   ALA X   4     -29.343  -5.195 -13.089  1.00 61.66     0.163 HD
ATOM     23  O   ALA X   3     -28.016  -7.871 -12.508  1.00 61.07    -0.271 OA
BRANCH  21  24
ATOM     24  CA  ALA X   4     -30.118  -6.707 -14.099  1.00 62.39     0.181 C 
ATOM     25  CB  ALA X   4     -29.344  -7.326 -15.279  1.00 62.29     0.043 C 
BRANCH  24  26
ATOM     26  C   ALA X   4     -31.069  -7.725 -13.454  1.00 62.72     0.196 C 
ATOM     27  OXT ALA X   4     -32.042  -8.174 -14.068  1.00 62.96    -0.646 OA
ATOM     28  O   ALA X   4     -30.905  -8.123 -12.297  1.00 63.08    -0.646 OA
ENDBRANCH  24  26
ENDBRANCH  21  24
ENDBRANCH  18  20
ENDBRANCH  15  18
ENDBRANCH   1  14
BRANCH   1  29
ATOM     29  N   ARG X   2     -30.194  -5.466  -7.471  1.00 55.62    -0.346 N 
ATOM     30  H   ARG X   2     -31.010  -5.606  -7.703  1.00 55.62     0.163 HD
ATOM     31  C   ARG X   1     -29.822  -4.524  -6.605  1.00 54.36     0.248 C 
ATOM     32  O   ARG X   1     -28.655  -4.370  -6.240  1.00 54.20    -0.271 OA
BRANCH  31  33
ATOM     33  CA  ARG X   1     -30.928  -3.612  -6.084  1.00 53.49     0.274 C 
BRANCH  33  34
ATOM     34  CB  ARG X   1     -31.451  -2.743  -7.233  1.00 53.17     0.044 C 
BRANCH  34  35
ATOM     35  CG  ARG X   1     -32.267  -1.528  -6.824  1.00 51.16     0.023 C 
BRANCH  35  36
ATOM     36  CD  ARG X   1     -33.639  -1.918  -6.326  1.00 48.38     0.138 C 
BRANCH  36  37
ATOM     37  NE  ARG X   1     -34.604  -0.828  -6.453  1.00 47.01    -0.227 N 
ATOM     38  HE  ARG X   1     -35.186  -0.885  -7.084  1.00 47.01     0.177 HD
ATOM     39  CZ  ARG X   1     -34.653   0.249  -5.666  1.00 46.53     0.665 C 
ATOM     40  NH2 ARG X   1     -35.589   1.170  -5.872  1.00 45.07    -0.235 N 
ATOM     41  NH1 ARG X   1     -33.782   0.412  -4.673  1.00 44.67    -0.235 N 
ATOM     42 HH22 ARG X   1     -35.626   1.866  -5.368  1.00 45.07     0.174 HD
ATOM     43 HH21 ARG X   1     -36.158   1.070  -6.509  1.00 45.07     0.174 HD
ATOM     44 HH12 ARG X   1     -33.825   1.111  -4.174  1.00 44.67     0.174 HD
ATOM     45 HH11 ARG X   1     -33.176  -0.181  -4.531  1.00 44.67     0.174 HD
ENDBRANCH  36  37
ENDBRANCH  35  36
ENDBRANCH  34  35
ENDBRANCH  33  34
BRANCH  33  46
ATOM     46  N   ARG X   1     -30.449  -2.761  -4.954  1.00 53.50    -0.067 N 
ATOM     47  H1  ARG X   1     -31.144  -2.361  -4.568  1.00 53.50     0.275 HD
ATOM     48  H3  ARG X   1     -29.887  -2.145  -5.264  1.00 53.50     0.275 HD
ATOM     49  H2  ARG X   1     -30.030  -3.270  -4.356  1.00 53.50     0.275 HD
ENDBRANCH  33  46
ENDBRANCH  31  33
ENDBRANCH   1  29
TORSDOF 16
