REMARK  23 active torsions:
REMARK  status: ('A' for Active; 'I' for Inactive)
REMARK    1  A    between atoms: N_1  and  CA_2 
REMARK    2  A    between atoms: CA_2  and  C_3 
REMARK    3  A    between atoms: CA_2  and  CB_5 
REMARK       I    between atoms: C_3  and  N_15 
REMARK    4  A    between atoms: CB_5  and  CG_6 
REMARK    5  A    between atoms: N_15  and  CA_16 
REMARK    6  A    between atoms: CA_16  and  CB_19 
REMARK    7  A    between atoms: CA_16  and  C_17 
REMARK       I    between atoms: C_17  and  N_32 
REMARK    8  A    between atoms: CB_19  and  CG_20 
REMARK    9  A    between atoms: CG_20  and  CD_21 
REMARK   10  A    between atoms: CD_21  and  NE_22 
REMARK       I    between atoms: NE_22  and  CZ_23 
REMARK       I    between atoms: CZ_23  and  NH1_24 
REMARK   11  A    between atoms: N_32  and  CA_33 
REMARK   12  A    between atoms: CA_33  and  C_34 
REMARK   13  A    between atoms: CA_33  and  CB_36 
REMARK       I    between atoms: C_34  and  N_40 
REMARK   14  A    between atoms: CB_36  and  OG_37 
REMARK   15  A    between atoms: N_40  and  CA_41 
REMARK   16  A    between atoms: CA_41  and  CB_44 
REMARK   17  A    between atoms: CA_41  and  C_42 
REMARK       I    between atoms: C_42  and  N_53 
REMARK   18  A    between atoms: CB_44  and  CG_45 
REMARK   19  A    between atoms: CG_45  and  CD_46 
REMARK   20  A    between atoms: CD_46  and  CE_47 
REMARK   21  A    between atoms: CE_47  and  NZ_48 
REMARK   22  A    between atoms: N_53  and  CA_54 
REMARK   23  A    between atoms: CA_54  and  C_55 
ROOT
ATOM      1  CA  ARG D   2     -12.438  -0.575  11.986  1.00 39.33     0.176 C 
ENDROOT
BRANCH   1   2
ATOM      2  CB  ARG D   2     -13.639  -0.229  11.124  1.00 35.05     0.036 C 
BRANCH   2   3
ATOM      3  CG  ARG D   2     -14.926  -0.751  11.702  1.00 57.88     0.023 C 
BRANCH   3   4
ATOM      4  CD  ARG D   2     -16.047  -0.724  10.681  1.00 90.52     0.138 C 
BRANCH   4   5
ATOM      5  NE  ARG D   2     -15.894  -1.769   9.669  1.00 84.14    -0.227 N 
ATOM      6  HE  ARG D   2     -15.216  -1.719   9.142  1.00 84.14     0.177 HD
ATOM      7  CZ  ARG D   2     -16.730  -2.793   9.506  1.00 83.97     0.665 C 
ATOM      8  NH2 ARG D   2     -16.496  -3.691   8.556  1.00 60.39    -0.235 N 
ATOM      9  NH1 ARG D   2     -17.803  -2.919  10.280  1.00 80.72    -0.235 N 
ATOM     10 HH21 ARG D   2     -15.806  -3.610   8.048  1.00 60.39     0.174 HD
ATOM     11 HH22 ARG D   2     -17.034  -4.353   8.448  1.00 60.39     0.174 HD
ATOM     12 HH12 ARG D   2     -18.338  -3.583  10.169  1.00 80.72     0.174 HD
ATOM     13 HH11 ARG D   2     -17.962  -2.337  10.892  1.00 80.72     0.174 HD
ENDBRANCH   4   5
ENDBRANCH   3   4
ENDBRANCH   2   3
ENDBRANCH   1   2
BRANCH   1  14
ATOM     14  C   ARG D   2     -12.335  -2.078  12.133  1.00 29.38     0.241 C 
ATOM     15  O   ARG D   2     -11.822  -2.763  11.251  1.00 21.44    -0.271 OA
ATOM     16  N   SER D   3     -12.822  -2.600  13.249  1.00 29.93    -0.344 N 
ATOM     17  H   SER D   3     -13.134  -2.147  13.910  1.00 29.93     0.163 HD
BRANCH  16  18
ATOM     18  CA  SER D   3     -12.853  -4.046  13.415  1.00 48.61     0.200 C 
BRANCH  18  19
ATOM     19  C   SER D   3     -14.227  -4.564  13.036  1.00 58.83     0.243 C 
ATOM     20  N   LYS D   4     -14.274  -5.799  12.550  1.00 77.18    -0.346 N 
ATOM     21  H   LYS D   4     -13.581  -6.285  12.395  1.00 77.18     0.163 HD
ATOM     22  O   SER D   3     -15.223  -3.852  13.160  1.00 53.61    -0.271 OA
BRANCH  20  23
ATOM     23  CA  LYS D   4     -15.545  -6.435  12.236  1.00 70.35     0.176 C 
BRANCH  23  24
ATOM     24  CB  LYS D   4     -15.326  -7.719  11.432  1.00 80.12     0.035 C 
BRANCH  24  25
ATOM     25  CG  LYS D   4     -14.171  -7.625  10.444  1.00 84.36     0.004 C 
BRANCH  25  26
ATOM     26  CD  LYS D   4     -14.509  -8.226   9.094  1.00102.13     0.027 C 
BRANCH  26  27
ATOM     27  CE  LYS D   4     -13.464  -7.839   8.055  1.00 86.00     0.229 C 
BRANCH  27  28
ATOM     28  NZ  LYS D   4     -13.977  -7.977   6.665  1.00 85.97    -0.079 N 
ATOM     29  HZ3 LYS D   4     -14.685  -7.448   6.556  1.00 85.97     0.274 HD
ATOM     30  HZ2 LYS D   4     -14.213  -8.822   6.518  1.00 85.97     0.274 HD
ATOM     31  HZ1 LYS D   4     -13.340  -7.743   6.089  1.00 85.97     0.274 HD
ENDBRANCH  27  28
ENDBRANCH  26  27
ENDBRANCH  25  26
ENDBRANCH  24  25
ENDBRANCH  23  24
BRANCH  23  32
ATOM     32  C   LYS D   4     -16.251  -6.733  13.549  1.00 69.25     0.240 C 
ATOM     33  O   LYS D   4     -17.476  -6.655  13.642  1.00 74.50    -0.271 OA
ATOM     34  N   GLY D   5     -15.460  -7.057  14.568  1.00 72.69    -0.352 N 
ATOM     35  H   GLY D   5     -14.607  -7.145  14.501  1.00 72.69     0.162 HD
BRANCH  34  36
ATOM     36  CA  GLY D   5     -15.979  -7.294  15.902  1.00 67.28     0.209 C 
BRANCH  36  37
ATOM     37  C   GLY D   5     -14.918  -7.084  16.964  1.00 69.64     0.213 C 
ATOM     38  O   GLY D   5     -14.663  -7.967  17.785  1.00 73.82    -0.287 OA
ENDBRANCH  36  37
ENDBRANCH  34  36
ENDBRANCH  23  32
ENDBRANCH  20  23
ENDBRANCH  18  19
BRANCH  18  39
ATOM     39  CB  SER D   3     -12.524  -4.424  14.849  1.00 47.59     0.199 C 
BRANCH  39  40
ATOM     40  OG  SER D   3     -13.270  -3.625  15.746  1.00 55.88    -0.398 OA
ATOM     41  HG  SER D   3     -13.083  -3.841  16.536  1.00 55.88     0.209 HD
ENDBRANCH  39  40
ENDBRANCH  18  39
ENDBRANCH  16  18
ENDBRANCH   1  14
BRANCH   1  42
ATOM     42  N   ARG D   2     -11.238  -0.062  11.367  1.00 24.62    -0.346 N 
ATOM     43  H   ARG D   2     -11.015  -0.453  10.634  1.00 24.62     0.163 HD
ATOM     44  C   PHE D   1     -10.566   0.931  11.916  1.00 23.06     0.249 C 
ATOM     45  O   PHE D   1     -10.904   1.467  12.967  1.00 27.40    -0.271 OA
BRANCH  44  46
ATOM     46  CA  PHE D   1      -9.380   1.459  11.120  1.00 18.76     0.278 C 
BRANCH  46  47
ATOM     47  CB  PHE D   1      -8.396   0.374  10.688  1.00 12.58     0.081 C 
BRANCH  47  48
ATOM     48  CG  PHE D   1      -7.182   0.931   9.978  1.00 17.06    -0.056 A 
ATOM     49  CD1 PHE D   1      -7.316   1.608   8.769  1.00 22.27     0.007 A 
ATOM     50  CE1 PHE D   1      -6.198   2.145   8.117  1.00 15.67     0.001 A 
ATOM     51  CZ  PHE D   1      -4.931   1.996   8.677  1.00 13.83     0.000 A 
ATOM     52  CE2 PHE D   1      -4.790   1.334   9.883  1.00 20.38     0.001 A 
ATOM     53  CD2 PHE D   1      -5.911   0.808  10.534  1.00 21.07     0.007 A 
ENDBRANCH  47  48
ENDBRANCH  46  47
BRANCH  46  54
ATOM     54  N   PHE D   1      -8.682   2.506  11.904  1.00 21.45    -0.066 N 
ATOM     55  H2  PHE D   1      -9.217   3.211  12.000  1.00 21.45     0.275 HD
ATOM     56  H3  PHE D   1      -8.469   2.184  12.706  1.00 21.45     0.275 HD
ATOM     57  H1  PHE D   1      -7.941   2.752  11.477  1.00 21.45     0.275 HD
ENDBRANCH  46  54
ENDBRANCH  44  46
ENDBRANCH   1  42
TORSDOF 23
