REMARK  21 active torsions:
REMARK  status: ('A' for Active; 'I' for Inactive)
REMARK    1  A    between atoms: CA_2  and  CB_5 
REMARK    2  A    between atoms: CA_2  and  C_3 
REMARK       I    between atoms: C_3  and  N_9 
REMARK    3  A    between atoms: CB_5  and  CG_6 
REMARK    4  A    between atoms: N_9  and  CA_10 
REMARK    5  A    between atoms: CA_10  and  C_11 
REMARK    6  A    between atoms: CA_10  and  CB_13 
REMARK       I    between atoms: C_11  and  N_20 
REMARK    7  A    between atoms: CB_13  and  CG_14 
REMARK       I    between atoms: CG_14  and  ND2_16 
REMARK    8  A    between atoms: N_20  and  CA_21 
REMARK    9  A    between atoms: CA_21  and  CB_24 
REMARK   10  A    between atoms: CA_21  and  C_22 
REMARK       I    between atoms: C_22  and  N_32 
REMARK   11  A    between atoms: CB_24  and  CG_25 
REMARK   12  A    between atoms: CA_33  and  C_34 
REMARK       I    between atoms: C_34  and  N_39 
REMARK   13  A    between atoms: N_39  and  CA_40 
REMARK   14  A    between atoms: CA_40  and  C_41 
REMARK   15  A    between atoms: CA_40  and  CB_43 
REMARK       I    between atoms: C_41  and  N_48 
REMARK   16  A    between atoms: CB_43  and  CG1_44 
REMARK   17  A    between atoms: N_48  and  CA_49 
REMARK   18  A    between atoms: CA_49  and  C_50 
REMARK   19  A    between atoms: CA_49  and  CB_52 
REMARK       I    between atoms: C_50  and  N_56 
REMARK   20  A    between atoms: CB_52  and  OG_53 
REMARK   21  A    between atoms: CA_57  and  C_58 
ROOT
ATOM      1  C   PHE C 305      16.187   6.387   0.502  0.50 34.66     0.243 C 
ATOM      2  O   PHE C 305      16.891   5.512   0.007  0.50 33.80    -0.271 OA
ATOM      3  N   PRO C 306      15.073   6.101   1.204  0.50 35.29    -0.337 N 
ATOM      4  CA  PRO C 306      14.398   4.831   0.988  0.50 35.79     0.179 C 
ATOM      5  CB  PRO C 306      13.788   4.513   2.373  0.50 35.80     0.037 C 
ATOM      6  CG  PRO C 306      14.040   5.756   3.234  0.50 35.25     0.022 C 
ATOM      7  CD  PRO C 306      14.425   6.858   2.286  0.50 35.51     0.127 C 
ENDROOT
BRANCH   4   8
ATOM      8  C   PRO C 306      13.267   4.998  -0.029  0.50 36.50     0.241 C 
ATOM      9  N   ILE C 307      12.487   3.921  -0.221  0.50 37.01    -0.346 N 
ATOM     10  H   ILE C 307      12.617   3.150   0.136  0.50 37.01     0.163 HD
ATOM     11  O   PRO C 306      13.103   6.091  -0.616  0.50 36.74    -0.271 OA
BRANCH   9  12
ATOM     12  CA  ILE C 307      11.316   4.015  -1.094  0.50 37.44     0.180 C 
BRANCH  12  13
ATOM     13  C   ILE C 307      10.415   2.781  -1.005  0.50 38.23     0.241 C 
ATOM     14  N   SER C 308       9.193   2.944  -1.504  0.50 38.91    -0.344 N 
ATOM     15  H   SER C 308       8.883   3.711  -1.740  0.50 38.91     0.163 HD
ATOM     16  O   ILE C 307      10.822   1.720  -0.510  0.50 38.79    -0.271 OA
BRANCH  14  17
ATOM     17  CA  SER C 308       8.248   1.849  -1.705  0.50 39.43     0.200 C 
BRANCH  17  18
ATOM     18  C   SER C 308       7.545   2.140  -3.033  0.50 39.77     0.245 C 
ATOM     19  N   PRO C 309       7.435   1.127  -3.911  0.50 40.03    -0.336 N 
ATOM     20  CD  PRO C 309       7.572  -0.315  -3.651  0.50 39.83     0.127 C 
ATOM     21  CA  PRO C 309       7.097   1.402  -5.309  0.50 40.09     0.188 C 
ATOM     22  CG  PRO C 309       7.742  -0.888  -5.023  0.50 40.19     0.022 C 
ATOM     23  CB  PRO C 309       6.926   0.001  -5.911  0.50 40.09     0.038 C 
ATOM     24  O   SER C 308       7.089   3.264  -3.262  0.50 39.81    -0.271 OA
BRANCH  21  25
ATOM     25  C   PRO C 309       5.826   2.235  -5.473  0.50 40.04     0.196 C 
ATOM     26  OXT PRO C 309       5.007   1.993  -6.364  0.50 40.10    -0.646 OA
ATOM     27  O   PRO C 309       5.593   3.184  -4.721  0.50 40.34    -0.646 OA
ENDBRANCH  21  25
ENDBRANCH  17  18
BRANCH  17  28
ATOM     28  CB  SER C 308       7.231   1.787  -0.563  0.50 39.49     0.199 C 
BRANCH  28  29
ATOM     29  OG  SER C 308       7.817   2.163   0.675  0.50 39.70    -0.398 OA
ATOM     30  HG  SER C 308       7.239   2.122   1.283  0.50 39.70     0.209 HD
ENDBRANCH  28  29
ENDBRANCH  17  28
ENDBRANCH  14  17
ENDBRANCH  12  13
BRANCH  12  31
ATOM     31  CB  ILE C 307      11.703   4.212  -2.580  0.50 37.20     0.013 C 
ATOM     32  CG2 ILE C 307      12.979   5.058  -2.706  0.50 36.86     0.012 C 
BRANCH  31  33
ATOM     33  CG1 ILE C 307      11.822   2.839  -3.265  0.50 35.88     0.002 C 
ATOM     34  CD1 ILE C 307      11.836   2.867  -4.774  0.50 32.01     0.005 C 
ENDBRANCH  31  33
ENDBRANCH  12  31
ENDBRANCH   9  12
ENDBRANCH   4   8
BRANCH   1  35
ATOM     35  CA  PHE C 305      16.592   7.860   0.362  0.50 34.47     0.181 C 
BRANCH  35  36
ATOM     36  CB  PHE C 305      17.364   7.999  -0.959  0.50 34.49     0.073 C 
BRANCH  36  37
ATOM     37  CG  PHE C 305      16.596   8.670  -2.086  0.50 35.55    -0.056 A 
ATOM     38  CD1 PHE C 305      15.206   8.778  -2.066  0.50 36.28     0.007 A 
ATOM     39  CE1 PHE C 305      14.522   9.403  -3.113  0.50 36.66     0.001 A 
ATOM     40  CZ  PHE C 305      15.229   9.917  -4.204  0.50 36.87     0.000 A 
ATOM     41  CE2 PHE C 305      16.608   9.813  -4.240  0.50 36.76     0.001 A 
ATOM     42  CD2 PHE C 305      17.287   9.182  -3.186  0.50 36.02     0.007 A 
ENDBRANCH  36  37
ENDBRANCH  35  36
BRANCH  35  43
ATOM     43  N   PHE C 305      17.426   8.377   1.453  0.50 33.54    -0.346 N 
ATOM     44  H   PHE C 305      18.058   7.850   1.704  0.50 33.54     0.163 HD
ATOM     45  C   ASN C 304      17.189   9.576   1.986  0.50 33.07     0.241 C 
ATOM     46  O   ASN C 304      16.101  10.153   1.872  0.50 33.39    -0.271 OA
BRANCH  45  47
ATOM     47  CA  ASN C 304      18.351  10.224   2.751  0.50 32.40     0.185 C 
BRANCH  47  48
ATOM     48  CB  ASN C 304      17.989  10.596   4.197  0.50 32.38     0.137 C 
BRANCH  48  49
ATOM     49  CG  ASN C 304      19.167  11.240   4.971  0.50 31.77     0.217 C 
ATOM     50  OD1 ASN C 304      20.175  10.598   5.243  0.50 27.48    -0.274 OA
ATOM     51  ND2 ASN C 304      19.004  12.499   5.358  0.50 32.56    -0.370 N 
ATOM     52 1HD2 ASN C 304      19.618  12.891   5.816  0.50 32.56     0.159 HD
ATOM     53 2HD2 ASN C 304      18.285  12.923   5.151  0.50 32.56     0.159 HD
ENDBRANCH  48  49
ENDBRANCH  47  48
BRANCH  47  54
ATOM     54  N   ASN C 304      18.805  11.410   2.066  0.50 31.56    -0.345 N 
ATOM     55  C   LEU C 303      20.046  11.846   2.222  0.50 30.83     0.257 C 
ATOM     56  O   LEU C 303      20.914  11.175   2.762  0.50 29.02    -0.271 OA
ATOM     57  H   ASN C 304      18.215  11.789   1.568  0.50 31.56     0.163 HD
BRANCH  55  58
ATOM     58  CA  LEU C 303      20.335  13.250   1.676  0.50 30.56     0.400 C 
ATOM     59  N   LEU C 303      21.778  13.509   1.419  0.50 30.88     0.615 N 
BRANCH  58  60
ATOM     60  CB  LEU C 303      19.514  13.529   0.411  0.50 30.80     0.055 C 
BRANCH  60  61
ATOM     61  CG  LEU C 303      17.991  13.637   0.555  0.50 30.92    -0.020 C 
ATOM     62  CD2 LEU C 303      17.347  14.088  -0.769  0.50 31.43     0.009 C 
ATOM     63  CD1 LEU C 303      17.607  14.550   1.706  0.50 30.50     0.009 C 
ENDBRANCH  60  61
ENDBRANCH  58  60
ENDBRANCH  55  58
ENDBRANCH  47  54
ENDBRANCH  45  47
ENDBRANCH  35  43
ENDBRANCH   1  35
TORSDOF 21
