REMARK  19 active torsions:
REMARK  status: ('A' for Active; 'I' for Inactive)
REMARK    1  A    between atoms: CA_2  and  C_3 
REMARK       I    between atoms: C_3  and  N_6 
REMARK    2  A    between atoms: N_6  and  CA_7 
REMARK    3  A    between atoms: CA_7  and  C_8 
REMARK    4  A    between atoms: CA_7  and  CB_10 
REMARK       I    between atoms: C_8  and  N_19 
REMARK    5  A    between atoms: CB_10  and  CG_11 
REMARK    6  A    between atoms: CG_11  and  CD_12 
REMARK    7  A    between atoms: CD_12  and  CE_13 
REMARK    8  A    between atoms: CE_13  and  NZ_14 
REMARK    9  A    between atoms: N_19  and  CA_20 
REMARK   10  A    between atoms: CA_20  and  CB_23 
REMARK   11  A    between atoms: CA_20  and  C_21 
REMARK       I    between atoms: C_21  and  N_32 
REMARK   12  A    between atoms: CB_23  and  CG_24 
REMARK   13  A    between atoms: CG_24  and  CD_25 
REMARK   14  A    between atoms: CD_25  and  CE_26 
REMARK   15  A    between atoms: CE_26  and  NZ_27 
REMARK   16  A    between atoms: N_32  and  CA_33 
REMARK   17  A    between atoms: CA_33  and  CB_36 
REMARK   18  A    between atoms: CA_33  and  C_34 
REMARK   19  A    between atoms: CB_36  and  CG_37 
ROOT
ATOM      1  C   LYS L   5     -25.146 -77.130 -28.025  1.00 61.96     0.241 C 
ATOM      2  O   LYS L   5     -24.470 -76.682 -28.961  1.00 44.78    -0.271 OA
ATOM      3  N   LYS L   6     -25.940 -76.365 -27.280  1.00 60.12    -0.346 N 
ATOM      4  H   LYS L   6     -26.521 -76.672 -26.725  1.00 60.12     0.163 HD
ENDROOT
BRANCH   3   5
ATOM      5  CA  LYS L   6     -25.882 -74.909 -27.352  1.00 64.44     0.176 C 
BRANCH   5   6
ATOM      6  CB  LYS L   6     -27.249 -74.289 -27.060  1.00 71.41     0.035 C 
BRANCH   6   7
ATOM      7  CG  LYS L   6     -27.216 -72.771 -26.912  1.00 72.05     0.004 C 
BRANCH   7   8
ATOM      8  CD  LYS L   6     -28.613 -72.170 -26.887  1.00 65.16     0.027 C 
BRANCH   8   9
ATOM      9  CE  LYS L   6     -28.549 -70.665 -26.674  1.00 70.38     0.229 C 
BRANCH   9  10
ATOM     10  NZ  LYS L   6     -29.899 -70.042 -26.784  1.00 74.13    -0.079 N 
ATOM     11  HZ2 LYS L   6     -30.233 -70.198 -27.594  1.00 74.13     0.274 HD
ATOM     12  HZ1 LYS L   6     -29.832 -69.164 -26.655  1.00 74.13     0.274 HD
ATOM     13  HZ3 LYS L   6     -30.438 -70.391 -26.168  1.00 74.13     0.274 HD
ENDBRANCH   9  10
ENDBRANCH   8   9
ENDBRANCH   7   8
ENDBRANCH   6   7
ENDBRANCH   5   6
BRANCH   5  14
ATOM     14  C   LYS L   6     -24.857 -74.435 -26.333  1.00 59.21     0.241 C 
ATOM     15  N   LEU L   7     -23.853 -73.691 -26.785  1.00 55.77    -0.347 N 
ATOM     16  H   LEU L   7     -23.781 -73.419 -27.598  1.00 55.77     0.163 HD
ATOM     17  O   LYS L   6     -24.967 -74.752 -25.153  1.00 62.62    -0.271 OA
BRANCH  15  18
ATOM     18  CA  LEU L   7     -22.764 -73.269 -25.901  1.00 55.07     0.163 C 
BRANCH  18  19
ATOM     19  CB  LEU L   7     -21.516 -72.905 -26.712  1.00 49.39     0.037 C 
BRANCH  19  20
ATOM     20  CG  LEU L   7     -20.744 -74.091 -27.287  1.00 45.34    -0.020 C 
ATOM     21  CD2 LEU L   7     -20.680 -75.228 -26.262  1.00 40.01     0.009 C 
ATOM     22  CD1 LEU L   7     -19.355 -73.633 -27.685  1.00 33.03     0.009 C 
ENDBRANCH  19  20
ENDBRANCH  18  19
BRANCH  18  23
ATOM     23  C   LEU L   7     -23.163 -72.101 -25.002  1.00 52.26     0.219 C 
ATOM     24  O   LEU L   7     -23.579 -71.051 -25.493  1.00 59.22    -0.287 OA
ENDBRANCH  18  23
ENDBRANCH  15  18
ENDBRANCH   5  14
ENDBRANCH   3   5
BRANCH   1  25
ATOM     25  CA  LYS L   5     -25.114 -78.624 -27.667  1.00 63.64     0.176 C 
BRANCH  25  26
ATOM     26  N   LYS L   5     -25.346 -79.508 -28.810  1.00 68.83    -0.346 N 
ATOM     27  C   ALA L   4     -26.094 -80.607 -28.709  1.00 74.38     0.257 C 
ATOM     28  O   ALA L   4     -26.715 -80.905 -27.684  1.00 71.28    -0.271 OA
ATOM     29  H   LYS L   5     -24.962 -79.255 -29.537  1.00 68.83     0.163 HD
BRANCH  27  30
ATOM     30  CA  ALA L   4     -26.154 -81.511 -29.947  1.00 68.81     0.396 C 
ATOM     31  N   ALA L   4     -25.516 -82.797 -29.682  1.00 73.56     0.614 N 
ATOM     32  CB  ALA L   4     -27.604 -81.714 -30.409  1.00 57.48     0.059 C 
ENDBRANCH  27  30
ENDBRANCH  25  26
BRANCH  25  33
ATOM     33  CB  LYS L   5     -23.772 -78.970 -27.015  1.00 69.62     0.035 C 
BRANCH  33  34
ATOM     34  CG  LYS L   5     -23.472 -78.208 -25.737  1.00 80.66     0.004 C 
BRANCH  34  35
ATOM     35  CD  LYS L   5     -22.018 -78.400 -25.317  1.00 85.15     0.027 C 
BRANCH  35  36
ATOM     36  CE  LYS L   5     -21.635 -79.873 -25.299  1.00 90.30     0.229 C 
BRANCH  36  37
ATOM     37  NZ  LYS L   5     -20.181 -80.081 -25.034  1.00 90.68    -0.079 N 
ATOM     38  HZ3 LYS L   5     -20.071 -80.394 -24.208  1.00 90.68     0.274 HD
ATOM     39  HZ2 LYS L   5     -19.750 -79.307 -25.117  1.00 90.68     0.274 HD
ATOM     40  HZ1 LYS L   5     -19.853 -80.667 -25.619  1.00 90.68     0.274 HD
ENDBRANCH  36  37
ENDBRANCH  35  36
ENDBRANCH  34  35
ENDBRANCH  33  34
ENDBRANCH  25  33
ENDBRANCH   1  25
TORSDOF 19
