REMARK  29 active torsions:
REMARK  status: ('A' for Active; 'I' for Inactive)
REMARK       I    between atoms: C_1  and  N_4 
REMARK    1  A    between atoms: N_4  and  CA_5 
REMARK    2  A    between atoms: CA_5  and  CB_8 
REMARK    3  A    between atoms: CA_5  and  C_6 
REMARK       I    between atoms: C_6  and  N_16 
REMARK    4  A    between atoms: CB_8  and  CG_9 
REMARK    5  A    between atoms: CG_9  and  CD_10 
REMARK       I    between atoms: CD_10  and  NE2_12 
REMARK    6  A    between atoms: N_16  and  CA_17 
REMARK    7  A    between atoms: CA_17  and  C_18 
REMARK    8  A    between atoms: CA_17  and  CB_20 
REMARK       I    between atoms: C_18  and  N_26 
REMARK    9  A    between atoms: CB_20  and  CG_21 
REMARK   10  A    between atoms: CG_21  and  CD_22 
REMARK   11  A    between atoms: N_26  and  CA_27 
REMARK   12  A    between atoms: CA_27  and  CB_30 
REMARK   13  A    between atoms: CA_27  and  C_28 
REMARK       I    between atoms: C_28  and  N_43 
REMARK   14  A    between atoms: CB_30  and  CG_31 
REMARK   15  A    between atoms: CG_31  and  CD_32 
REMARK   16  A    between atoms: CD_32  and  NE_33 
REMARK       I    between atoms: NE_33  and  CZ_34 
REMARK       I    between atoms: CZ_34  and  NH1_35 
REMARK   17  A    between atoms: N_43  and  CA_44 
REMARK   18  A    between atoms: CA_44  and  C_45 
REMARK   19  A    between atoms: CA_44  and  CB_47 
REMARK       I    between atoms: C_45  and  N_53 
REMARK   20  A    between atoms: CB_47  and  CG_48 
REMARK   21  A    between atoms: CG_48  and  CD_49 
REMARK   22  A    between atoms: N_53  and  CA_54 
REMARK   23  A    between atoms: CA_54  and  CB_57 
REMARK   24  A    between atoms: CA_54  and  C_55 
REMARK       I    between atoms: C_55  and  N_61 
REMARK   25  A    between atoms: CA_62  and  C_63 
REMARK       I    between atoms: C_63  and  N_68 
REMARK   26  A    between atoms: N_68  and  CA_69 
REMARK   27  A    between atoms: CA_69  and  C_70 
REMARK   28  A    between atoms: CA_69  and  CB_72 
REMARK   29  A    between atoms: CB_72  and  SG_73 
ROOT
ATOM      1  CA  ARG B   3     -23.410  -9.419  15.190  0.80 33.15     0.176 C 
ENDROOT
BRANCH   1   2
ATOM      2  CB  ARG B   3     -23.331  -9.427  13.653  0.80 33.78     0.036 C 
BRANCH   2   3
ATOM      3  CG  ARG B   3     -22.406  -8.395  13.004  0.80 35.93     0.023 C 
BRANCH   3   4
ATOM      4  CD  ARG B   3     -23.045  -7.030  12.877  0.80 39.27     0.138 C 
BRANCH   4   5
ATOM      5  NE  ARG B   3     -22.174  -6.068  12.200  0.80 40.38    -0.227 N 
ATOM      6  CZ  ARG B   3     -22.459  -4.776  12.042  0.80 40.37     0.665 C 
ATOM      7  NH1 ARG B   3     -23.594  -4.285  12.513  0.80 40.12    -0.235 N 
ATOM      8  NH2 ARG B   3     -21.602  -3.972  11.421  0.80 41.10    -0.235 N 
ATOM      9 HH12 ARG B   3     -23.777  -3.451  12.411  0.80 40.12     0.174 HD
ATOM     10 HH11 ARG B   3     -24.149  -4.800  12.922  0.80 40.12     0.174 HD
ATOM     11 HH22 ARG B   3     -21.789  -3.139  11.321  0.80 41.10     0.174 HD
ATOM     12 HH21 ARG B   3     -20.860  -4.285  11.119  0.80 41.10     0.174 HD
ATOM     13  HE  ARG B   3     -21.428  -6.356  11.883  0.80 40.38     0.177 HD
ENDBRANCH   4   5
ENDBRANCH   3   4
ENDBRANCH   2   3
ENDBRANCH   1   2
BRANCH   1  14
ATOM     14  C   ARG B   3     -22.063  -9.087  15.810  0.80 30.98     0.241 C 
ATOM     15  O   ARG B   3     -21.822  -7.941  16.180  0.80 30.41    -0.271 OA
ATOM     16  N   GLU B   4     -21.214 -10.103  15.935  0.80 28.71    -0.346 N 
ATOM     17  H   GLU B   4     -21.424 -10.922  15.778  0.80 28.71     0.163 HD
BRANCH  16  18
ATOM     18  CA  GLU B   4     -19.830  -9.911  16.356  0.80 27.21     0.177 C 
BRANCH  18  19
ATOM     19  C   GLU B   4     -19.005  -9.506  15.147  0.80 25.80     0.241 C 
ATOM     20  O   GLU B   4     -19.095 -10.124  14.070  0.80 26.39    -0.271 OA
ATOM     21  N   VAL B   5     -18.216  -8.456  15.322  0.80 23.72    -0.346 N 
ATOM     22  H   VAL B   5     -18.200  -7.989  16.044  0.80 23.72     0.163 HD
BRANCH  21  23
ATOM     23  CA  VAL B   5     -17.295  -7.993  14.298  0.80 22.93     0.180 C 
BRANCH  23  24
ATOM     24  CB  VAL B   5     -17.602  -6.560  13.847  0.80 23.26     0.009 C 
ATOM     25  CG2 VAL B   5     -19.031  -6.465  13.313  0.80 23.62     0.012 C 
ATOM     26  CG1 VAL B   5     -16.616  -6.123  12.789  0.80 24.46     0.012 C 
ENDBRANCH  23  24
BRANCH  23  27
ATOM     27  C   VAL B   5     -15.892  -8.063  14.893  0.80 21.40     0.243 C 
ATOM     28  N   PRO B   6     -15.082  -9.024  14.423  0.80 20.87    -0.337 N 
ATOM     29  CD  PRO B   6     -15.371 -10.178  13.561  0.80 21.07     0.127 C 
ATOM     30  CA  PRO B   6     -13.714  -9.080  14.942  0.80 20.34     0.179 C 
ATOM     31  CG  PRO B   6     -14.242 -11.126  13.870  0.80 22.12     0.022 C 
ATOM     32  CB  PRO B   6     -13.100 -10.261  14.188  0.80 19.87     0.037 C 
ATOM     33  O   VAL B   5     -15.545  -7.258  15.765  0.80 20.67    -0.271 OA
BRANCH  30  34
ATOM     34  C   PRO B   6     -12.952  -7.803  14.651  0.80 20.23     0.241 C 
ATOM     35  O   PRO B   6     -13.075  -7.252  13.538  0.80 20.62    -0.271 OA
ATOM     36  N   CYS B   7     -12.199  -7.328  15.645  0.80 18.87    -0.344 N 
ATOM     37  H   CYS B   7     -12.040  -7.759  16.372  0.80 18.87     0.163 HD
BRANCH  36  38
ATOM     38  CA  CYS B   7     -11.565  -6.000  15.577  0.80 19.21     0.194 C 
BRANCH  38  39
ATOM     39  C   CYS B   7     -10.054  -6.106  15.520  0.80 19.13     0.197 C 
ATOM     40  O   CYS B   7      -9.500  -7.126  15.075  0.80 18.45    -0.646 OA
ATOM     41  OXT CYS B   7      -9.355  -5.160  15.872  0.80 19.35    -0.646 OA
ENDBRANCH  38  39
BRANCH  38  42
ATOM     42  CB  CYS B   7     -12.020  -5.115  16.735  0.80 19.02     0.106 C 
BRANCH  42  43
ATOM     43  SG  CYS B   7     -13.655  -4.403  16.425  0.80 21.06    -0.180 SA
ATOM     44  HG  CYS B   7     -14.434  -5.281  16.176  0.80 21.06     0.101 HD
ENDBRANCH  42  43
ENDBRANCH  38  42
ENDBRANCH  36  38
ENDBRANCH  30  34
ENDBRANCH  23  27
ENDBRANCH  21  23
ENDBRANCH  18  19
BRANCH  18  45
ATOM     45  CB  GLU B   4     -19.242 -11.181  16.969  0.80 27.21     0.045 C 
BRANCH  45  46
ATOM     46  CG  GLU B   4     -19.572 -11.377  18.428  0.80 28.14     0.116 C 
BRANCH  46  47
ATOM     47  CD  GLU B   4     -18.879 -12.575  19.045  0.80 29.53     0.172 C 
ATOM     48  OE1 GLU B   4     -17.931 -13.133  18.445  0.80 28.59    -0.648 OA
ATOM     49  OE2 GLU B   4     -19.296 -12.960  20.153  0.80 31.57    -0.648 OA
ENDBRANCH  46  47
ENDBRANCH  45  46
ENDBRANCH  18  45
ENDBRANCH  16  18
ENDBRANCH   1  14
BRANCH   1  50
ATOM     50  N   ARG B   3     -24.391  -8.453  15.663  0.80 34.16    -0.346 N 
ATOM     51  C   GLU B   2     -25.605  -8.831  16.053  0.80 36.27     0.241 C 
ATOM     52  O   GLU B   2     -26.010  -9.995  15.966  0.80 35.80    -0.271 OA
ATOM     53  H   ARG B   3     -24.117  -7.638  15.665  0.80 34.16     0.163 HD
BRANCH  51  54
ATOM     54  CA  GLU B   2     -26.514  -7.724  16.581  0.80 37.72     0.177 C 
BRANCH  54  55
ATOM     55  N   GLU B   2     -27.887  -7.942  16.130  0.80 39.05    -0.346 N 
ATOM     56  C   GLN B   1     -28.209  -7.838  14.843  0.80 40.84     0.241 C 
ATOM     57  O   GLN B   1     -27.380  -7.596  13.960  0.80 40.79    -0.271 OA
ATOM     58  H   GLU B   2     -28.445  -8.137  16.755  0.80 39.05     0.163 HD
BRANCH  56  59
ATOM     59  CA  GLN B   1     -29.682  -8.032  14.486  0.80 42.15     0.177 C 
BRANCH  59  60
ATOM     60  CB  GLN B   1     -29.955  -9.461  14.005  0.80 42.68     0.044 C 
BRANCH  60  61
ATOM     61  CG  GLN B   1     -31.405  -9.674  13.550  0.80 43.94     0.105 C 
BRANCH  61  62
ATOM     62  CD  GLN B   1     -31.607 -10.965  12.781  0.80 46.27     0.215 C 
ATOM     63  OE1 GLN B   1     -31.023 -11.997  13.116  0.80 48.62    -0.274 OA
ATOM     64  NE2 GLN B   1     -32.446 -10.918  11.747  0.80 47.40    -0.370 N 
ATOM     65 2HE2 GLN B   1     -32.598 -11.627  11.284  0.80 47.40     0.159 HD
ATOM     66 1HE2 GLN B   1     -32.836 -10.179  11.543  0.80 47.40     0.159 HD
ENDBRANCH  61  62
ENDBRANCH  60  61
ENDBRANCH  59  60
BRANCH  59  67
ATOM     67  N   GLN B   1     -30.049  -7.075  13.446  0.80 42.89    -0.348 N 
HETATM   68  C   ACE B   0     -30.747  -5.969  13.704  0.80 43.46     0.214 C 
HETATM   69  CH3 ACE B   0     -30.878  -5.026  12.541  0.80 43.70     0.117 C 
HETATM   70  O   ACE B   0     -30.996  -5.609  14.857  0.80 44.01    -0.274 OA
ATOM     71  H   GLN B   1     -29.775  -7.291  12.660  0.80 42.89     0.163 HD
ENDBRANCH  59  67
ENDBRANCH  56  59
ENDBRANCH  54  55
BRANCH  54  72
ATOM     72  CB  GLU B   2     -26.421  -7.607  18.112  0.80 37.98     0.045 C 
BRANCH  72  73
ATOM     73  CG  GLU B   2     -26.434  -8.919  18.891  0.80 38.47     0.116 C 
BRANCH  73  74
ATOM     74  CD  GLU B   2     -26.172  -8.716  20.379  0.80 38.45     0.172 C 
ATOM     75  OE1 GLU B   2     -25.694  -9.664  21.034  0.80 41.05    -0.648 OA
ATOM     76  OE2 GLU B   2     -26.428  -7.609  20.887  0.80 38.47    -0.648 OA
ENDBRANCH  73  74
ENDBRANCH  72  73
ENDBRANCH  54  72
ENDBRANCH  51  54
ENDBRANCH   1  50
TORSDOF 29
