REMARK  20 active torsions:
REMARK  status: ('A' for Active; 'I' for Inactive)
REMARK    1  A    between atoms: CA_2  and  C_3 
REMARK       I    between atoms: C_3  and  N_6 
REMARK    2  A    between atoms: N_6  and  CA_7 
REMARK    3  A    between atoms: CA_7  and  CB_10 
REMARK    4  A    between atoms: CA_7  and  C_8 
REMARK       I    between atoms: C_8  and  N_22 
REMARK    5  A    between atoms: CB_10  and  CG_11 
REMARK    6  A    between atoms: N_22  and  CA_23 
REMARK    7  A    between atoms: CA_23  and  C_24 
REMARK    8  A    between atoms: CA_23  and  CB_26 
REMARK       I    between atoms: C_24  and  N_31 
REMARK    9  A    between atoms: CB_26  and  CG_27 
REMARK   10  A    between atoms: N_31  and  CA_32 
REMARK   11  A    between atoms: CA_32  and  C_33 
REMARK   12  A    between atoms: CA_32  and  CB_35 
REMARK       I    between atoms: C_33  and  N_43 
REMARK   13  A    between atoms: CB_35  and  CG_36 
REMARK   14  A    between atoms: N_43  and  CA_44 
REMARK   15  A    between atoms: CA_44  and  C_45 
REMARK   16  A    between atoms: CA_44  and  CB_47 
REMARK       I    between atoms: C_45  and  N_53 
REMARK   17  A    between atoms: CB_47  and  CG_48 
REMARK   18  A    between atoms: CG_48  and  CD_49 
REMARK   19  A    between atoms: N_53  and  CA_54 
REMARK   20  A    between atoms: CA_54  and  C_55 
ROOT
ATOM      1  C   LEU B   4      -2.243  36.811  70.541  1.00 29.18     0.241 C 
ATOM      2  O   LEU B   4      -1.815  37.745  69.858  1.00 28.54    -0.271 OA
ATOM      3  N   PHE B   5      -2.154  35.538  70.162  1.00 29.99    -0.346 N 
ATOM      4  H   PHE B   5      -2.546  34.886  70.563  1.00 29.99     0.163 HD
ENDROOT
BRANCH   1   5
ATOM      5  CA  LEU B   4      -2.939  37.108  71.885  1.00 28.82     0.177 C 
BRANCH   5   6
ATOM      6  CB  LEU B   4      -1.981  36.875  73.029  1.00 28.29     0.038 C 
BRANCH   6   7
ATOM      7  CG  LEU B   4      -0.701  37.730  72.972  1.00 28.88    -0.020 C 
ATOM      8  CD2 LEU B   4       0.148  37.414  74.192  1.00 30.37     0.009 C 
ATOM      9  CD1 LEU B   4      -0.964  39.254  72.876  1.00 31.50     0.009 C 
ENDBRANCH   6   7
ENDBRANCH   5   6
BRANCH   5  10
ATOM     10  N   LEU B   4      -4.182  36.366  72.071  1.00 28.20    -0.346 N 
ATOM     11  C   TRP B   3      -5.317  36.802  71.562  1.00 29.51     0.241 C 
ATOM     12  O   TRP B   3      -5.379  37.814  70.872  1.00 30.32    -0.271 OA
ATOM     13  H   LEU B   4      -4.103  35.642  72.529  1.00 28.20     0.163 HD
BRANCH  11  14
ATOM     14  CA  TRP B   3      -6.581  35.999  71.910  1.00 31.78     0.181 C 
BRANCH  14  15
ATOM     15  N   TRP B   3      -6.310  34.549  71.771  1.00 33.85    -0.346 N 
ATOM     16  C   ALA B   2      -6.019  34.084  70.542  1.00 37.00     0.257 C 
ATOM     17  O   ALA B   2      -6.038  34.849  69.539  1.00 38.56    -0.271 OA
ATOM     18  H   TRP B   3      -6.355  34.082  72.492  1.00 33.85     0.163 HD
BRANCH  16  19
ATOM     19  CA  ALA B   2      -5.665  32.636  70.339  1.00 38.11     0.396 C 
ATOM     20  CB  ALA B   2      -6.446  32.078  69.068  1.00 38.97     0.059 C 
ATOM     21  N   ALA B   2      -5.790  31.682  71.508  1.00 37.81     0.614 N 
ENDBRANCH  16  19
ENDBRANCH  14  15
BRANCH  14  22
ATOM     22  CB  TRP B   3      -7.049  36.384  73.330  1.00 31.58     0.075 C 
BRANCH  22  23
ATOM     23  CG  TRP B   3      -7.214  37.818  73.497  1.00 30.60    -0.028 A 
ATOM     24  CD1 TRP B   3      -8.271  38.564  73.124  1.00 31.03     0.096 A 
ATOM     25  NE1 TRP B   3      -8.032  39.890  73.399  1.00 29.84    -0.365 N 
ATOM     26  HE1 TRP B   3      -8.572  40.541  73.241  1.00 29.84     0.165 HD
ATOM     27  CE2 TRP B   3      -6.794  40.000  73.965  1.00 27.79     0.042 A 
ATOM     28  CD2 TRP B   3      -6.257  38.716  74.045  1.00 28.46    -0.002 A 
ATOM     29  CZ2 TRP B   3      -6.119  41.123  74.419  1.00 27.89     0.030 A 
ATOM     30  CE3 TRP B   3      -4.989  38.553  74.573  1.00 31.78     0.014 A 
ATOM     31  CZ3 TRP B   3      -4.325  39.656  75.047  1.00 30.70     0.001 A 
ATOM     32  CH2 TRP B   3      -4.886  40.935  74.939  1.00 27.16     0.002 A 
ENDBRANCH  22  23
ENDBRANCH  14  22
ENDBRANCH  11  14
ENDBRANCH   5  10
ENDBRANCH   1   5
BRANCH   3  33
ATOM     33  CA  PHE B   5      -1.348  35.143  68.987  1.00 32.14     0.180 C 
BRANCH  33  34
ATOM     34  C   PHE B   5      -2.124  34.382  67.931  1.00 34.99     0.241 C 
ATOM     35  O   PHE B   5      -2.961  33.544  68.285  1.00 34.76    -0.271 OA
ATOM     36  N   GLU B   6      -1.874  34.710  66.654  1.00 37.97    -0.346 N 
ATOM     37  H   GLU B   6      -1.548  35.473  66.428  1.00 37.97     0.163 HD
BRANCH  36  38
ATOM     38  CA  GLU B   6      -2.123  33.818  65.494  1.00 41.44     0.177 C 
BRANCH  38  39
ATOM     39  C   GLU B   6      -0.755  33.197  65.124  1.00 42.63     0.241 C 
ATOM     40  N   ALA B   7      -0.699  31.867  65.043  1.00 44.72    -0.348 N 
ATOM     41  H   ALA B   7      -1.381  31.343  65.042  1.00 44.72     0.163 HD
ATOM     42  O   GLU B   6       0.268  33.899  64.989  1.00 39.57    -0.271 OA
BRANCH  40  43
ATOM     43  CA  ALA B   7       0.644  31.183  64.943  1.00 46.42     0.158 C 
ATOM     44  CB  ALA B   7       0.795  30.094  66.028  1.00 46.36     0.041 C 
BRANCH  43  45
ATOM     45  C   ALA B   7       0.908  30.635  63.552  1.00 46.87     0.219 C 
ATOM     46  O   ALA B   7      -0.049  30.421  62.805  1.00 48.90    -0.287 OA
ENDBRANCH  43  45
ENDBRANCH  40  43
ENDBRANCH  38  39
BRANCH  38  47
ATOM     47  CB  GLU B   6      -2.724  34.563  64.297  1.00 42.54     0.045 C 
BRANCH  47  48
ATOM     48  CG  GLU B   6      -2.899  33.641  63.042  1.00 48.04     0.116 C 
BRANCH  48  49
ATOM     49  CD  GLU B   6      -2.940  34.361  61.684  1.00 53.57     0.172 C 
ATOM     50  OE2 GLU B   6      -2.948  33.627  60.644  1.00 60.38    -0.648 OA
ATOM     51  OE1 GLU B   6      -3.000  35.618  61.618  1.00 57.14    -0.648 OA
ENDBRANCH  48  49
ENDBRANCH  47  48
ENDBRANCH  38  47
ENDBRANCH  36  38
ENDBRANCH  33  34
BRANCH  33  52
ATOM     52  CB  PHE B   5      -0.151  34.259  69.387  1.00 32.62     0.073 C 
BRANCH  52  53
ATOM     53  CG  PHE B   5       0.841  34.926  70.294  1.00 30.35    -0.056 A 
ATOM     54  CD1 PHE B   5       1.568  36.017  69.879  1.00 31.18     0.007 A 
ATOM     55  CE1 PHE B   5       2.499  36.609  70.726  1.00 30.23     0.001 A 
ATOM     56  CZ  PHE B   5       2.715  36.114  72.027  1.00 31.30     0.000 A 
ATOM     57  CE2 PHE B   5       2.015  34.978  72.435  1.00 30.12     0.001 A 
ATOM     58  CD2 PHE B   5       1.088  34.404  71.567  1.00 31.88     0.007 A 
ENDBRANCH  52  53
ENDBRANCH  33  52
ENDBRANCH   3  33
TORSDOF 20
