REMARK  23 active torsions:
REMARK  status: ('A' for Active; 'I' for Inactive)
REMARK    1  A    between atoms: N_1  and  CA_2 
REMARK    2  A    between atoms: CA_2  and  C_3 
REMARK       I    between atoms: C_3  and  N_9 
REMARK    3  A    between atoms: N_9  and  CA_10 
REMARK    4  A    between atoms: CA_10  and  C_11 
REMARK       I    between atoms: C_11  and  N_15 
REMARK    5  A    between atoms: N_15  and  CA_16 
REMARK    6  A    between atoms: CA_16  and  C_17 
REMARK    7  A    between atoms: CA_16  and  CB_19 
REMARK       I    between atoms: C_17  and  N_31 
REMARK    8  A    between atoms: CB_19  and  CG_20 
REMARK    9  A    between atoms: N_31  and  CA_32 
REMARK   10  A    between atoms: CA_32  and  C_33 
REMARK   11  A    between atoms: CA_32  and  CB_35 
REMARK       I    between atoms: C_33  and  N_40 
REMARK   12  A    between atoms: CB_35  and  CG_36 
REMARK   13  A    between atoms: N_40  and  CA_41 
REMARK   14  A    between atoms: CA_41  and  CB_44 
REMARK   15  A    between atoms: CA_41  and  C_42 
REMARK       I    between atoms: C_42  and  N_52 
REMARK   16  A    between atoms: CB_44  and  CG_45 
REMARK   17  A    between atoms: N_52  and  CA_53 
REMARK   18  A    between atoms: CA_53  and  CB_56 
REMARK   19  A    between atoms: CA_53  and  C_54 
REMARK       I    between atoms: C_54  and  N_62 
REMARK   20  A    between atoms: CB_56  and  CG_57 
REMARK   21  A    between atoms: CG_57  and  CD_58 
REMARK   22  A    between atoms: N_62  and  CA_63 
REMARK   23  A    between atoms: CA_63  and  C_64 
ROOT
ATOM      1  CA  LEU B   4       3.033 -37.290  -5.903  1.00 25.55     0.177 C 
ENDROOT
BRANCH   1   2
ATOM      2  C   LEU B   4       2.300 -36.952  -7.205  1.00 26.13     0.241 C 
ATOM      3  O   LEU B   4       1.857 -37.864  -7.882  1.00 25.31    -0.271 OA
ATOM      4  N   PHE B   5       2.176 -35.655  -7.528  1.00 26.68    -0.346 N 
ATOM      5  H   PHE B   5       2.565 -35.013  -7.108  1.00 26.68     0.163 HD
BRANCH   4   6
ATOM      6  CA  PHE B   5       1.339 -35.229  -8.659  1.00 28.54     0.180 C 
BRANCH   6   7
ATOM      7  CB  PHE B   5       0.165 -34.336  -8.201  1.00 28.61     0.073 C 
BRANCH   7   8
ATOM      8  CG  PHE B   5      -0.846 -35.017  -7.350  1.00 26.86    -0.056 A 
ATOM      9  CD1 PHE B   5      -1.563 -36.094  -7.818  1.00 26.13     0.007 A 
ATOM     10  CE1 PHE B   5      -2.500 -36.733  -7.009  1.00 23.59     0.001 A 
ATOM     11  CZ  PHE B   5      -2.715 -36.295  -5.679  1.00 25.19     0.000 A 
ATOM     12  CE2 PHE B   5      -2.028 -35.190  -5.227  1.00 26.30     0.001 A 
ATOM     13  CD2 PHE B   5      -1.083 -34.573  -6.048  1.00 27.99     0.007 A 
ENDBRANCH   7   8
ENDBRANCH   6   7
BRANCH   6  14
ATOM     14  C   PHE B   5       2.123 -34.474  -9.735  1.00 31.71     0.241 C 
ATOM     15  N   GLU B   6       1.937 -34.863 -11.000  1.00 34.73    -0.346 N 
ATOM     16  H   GLU B   6       1.693 -35.659 -11.216  1.00 34.73     0.163 HD
ATOM     17  O   PHE B   5       2.929 -33.602  -9.398  1.00 30.66    -0.271 OA
BRANCH  15  18
ATOM     18  CA  GLU B   6       2.132 -33.959 -12.170  1.00 38.89     0.177 C 
BRANCH  18  19
ATOM     19  CB  GLU B   6       2.695 -34.689 -13.396  1.00 39.10     0.045 C 
BRANCH  19  20
ATOM     20  CG  GLU B   6       2.894 -33.761 -14.624  1.00 43.96     0.116 C 
BRANCH  20  21
ATOM     21  CD  GLU B   6       2.963 -34.486 -15.977  1.00 49.39     0.172 C 
ATOM     22  OE1 GLU B   6       3.094 -35.726 -16.021  1.00 53.88    -0.648 OA
ATOM     23  OE2 GLU B   6       2.928 -33.797 -17.031  1.00 56.34    -0.648 OA
ENDBRANCH  20  21
ENDBRANCH  19  20
ENDBRANCH  18  19
BRANCH  18  24
ATOM     24  C   GLU B   6       0.769 -33.276 -12.504  1.00 41.03     0.241 C 
ATOM     25  O   GLU B   6      -0.305 -33.934 -12.560  1.00 40.13    -0.271 OA
ATOM     26  N   ALA B   7       0.834 -31.949 -12.675  1.00 43.76    -0.348 N 
ATOM     27  H   ALA B   7       1.581 -31.523 -12.690  1.00 43.76     0.163 HD
BRANCH  26  28
ATOM     28  CA  ALA B   7      -0.357 -31.048 -12.859  1.00 45.80     0.158 C 
ATOM     29  CB  ALA B   7       0.090 -29.545 -12.872  1.00 46.43     0.041 C 
BRANCH  28  30
ATOM     30  C   ALA B   7      -1.127 -31.331 -14.140  1.00 46.67     0.219 C 
ATOM     31  O   ALA B   7      -0.573 -31.173 -15.241  1.00 48.32    -0.287 OA
ENDBRANCH  28  30
ENDBRANCH  26  28
ENDBRANCH  18  24
ENDBRANCH  15  18
ENDBRANCH   6  14
ENDBRANCH   4   6
ENDBRANCH   1   2
BRANCH   1  32
ATOM     32  CB  LEU B   4       2.084 -37.048  -4.747  1.00 24.11     0.038 C 
BRANCH  32  33
ATOM     33  CG  LEU B   4       0.787 -37.887  -4.812  1.00 25.40    -0.020 C 
ATOM     34  CD2 LEU B   4      -0.027 -37.536  -3.587  1.00 26.98     0.009 C 
ATOM     35  CD1 LEU B   4       0.963 -39.424  -4.959  1.00 25.06     0.009 C 
ENDBRANCH  32  33
ENDBRANCH   1  32
BRANCH   1  36
ATOM     36  N   LEU B   4       4.284 -36.578  -5.737  1.00 24.30    -0.346 N 
ATOM     37  C   TRP B   3       5.429 -37.068  -6.206  1.00 25.24     0.241 C 
ATOM     38  O   TRP B   3       5.493 -38.115  -6.829  1.00 25.23    -0.271 OA
ATOM     39  H   LEU B   4       4.216 -35.830  -5.318  1.00 24.30     0.163 HD
BRANCH  37  40
ATOM     40  CA  TRP B   3       6.710 -36.269  -5.892  1.00 26.39     0.181 C 
BRANCH  40  41
ATOM     41  CB  TRP B   3       7.186 -36.596  -4.476  1.00 26.78     0.075 C 
BRANCH  41  42
ATOM     42  CG  TRP B   3       7.296 -38.006  -4.286  1.00 25.50    -0.028 A 
ATOM     43  CD1 TRP B   3       8.338 -38.793  -4.648  1.00 28.00     0.096 A 
ATOM     44  NE1 TRP B   3       8.075 -40.091  -4.334  1.00 26.39    -0.365 N 
ATOM     45  HE1 TRP B   3       8.602 -40.756  -4.477  1.00 26.39     0.165 HD
ATOM     46  CE2 TRP B   3       6.844 -40.168  -3.757  1.00 23.90     0.042 A 
ATOM     47  CZ2 TRP B   3       6.147 -41.281  -3.282  1.00 23.10     0.030 A 
ATOM     48  CD2 TRP B   3       6.328 -38.863  -3.705  1.00 23.76    -0.002 A 
ATOM     49  CH2 TRP B   3       4.928 -41.073  -2.728  1.00 22.34     0.002 A 
ATOM     50  CZ3 TRP B   3       4.366 -39.786  -2.669  1.00 25.34     0.001 A 
ATOM     51  CE3 TRP B   3       5.071 -38.663  -3.171  1.00 25.10     0.014 A 
ENDBRANCH  41  42
ENDBRANCH  40  41
BRANCH  40  52
ATOM     52  N   TRP B   3       6.457 -34.833  -6.061  1.00 27.54    -0.346 N 
ATOM     53  C   ALA B   2       6.214 -34.375  -7.294  1.00 31.13     0.240 C 
ATOM     54  O   ALA B   2       6.218 -35.127  -8.262  1.00 30.30    -0.271 OA
ATOM     55  H   TRP B   3       6.480 -34.358  -5.344  1.00 27.54     0.163 HD
BRANCH  53  56
ATOM     56  CA  ALA B   2       5.918 -32.877  -7.471  1.00 33.66     0.172 C 
ATOM     57  CB  ALA B   2       6.433 -32.349  -8.834  1.00 33.40     0.042 C 
BRANCH  56  58
ATOM     58  N   ALA B   2       6.458 -32.024  -6.406  1.00 35.64    -0.346 N 
ATOM     59  H   ALA B   2       7.265 -32.205  -6.170  1.00 35.64     0.163 HD
ATOM     60  C   ALA B   1       5.715 -31.055  -5.876  1.00 39.08     0.248 C 
ATOM     61  O   ALA B   1       4.506 -31.065  -5.962  1.00 40.54    -0.271 OA
BRANCH  60  62
ATOM     62  CA  ALA B   1       6.413 -29.925  -5.079  1.00 41.05     0.270 C 
ATOM     63  CB  ALA B   1       6.399 -28.600  -5.875  1.00 41.95     0.050 C 
BRANCH  62  64
ATOM     64  N   ALA B   1       7.811 -30.268  -4.706  1.00 41.48    -0.067 N 
ATOM     65  H3  ALA B   1       8.334 -30.203  -5.423  1.00 41.48     0.275 HD
ATOM     66  H2  ALA B   1       7.839 -31.101  -4.393  1.00 41.48     0.275 HD
ATOM     67  H1  ALA B   1       8.098 -29.706  -4.079  1.00 41.48     0.275 HD
ENDBRANCH  62  64
ENDBRANCH  60  62
ENDBRANCH  56  58
ENDBRANCH  53  56
ENDBRANCH  40  52
ENDBRANCH  37  40
ENDBRANCH   1  36
TORSDOF 23
