REMARK  26 active torsions:
REMARK  status: ('A' for Active; 'I' for Inactive)
REMARK    1  A    between atoms: CA_2  and  CB_5 
REMARK    2  A    between atoms: CA_2  and  C_3 
REMARK       I    between atoms: C_3  and  N_9 
REMARK    3  A    between atoms: CB_5  and  CG1_6 
REMARK    4  A    between atoms: N_9  and  CA_10 
REMARK    5  A    between atoms: CA_10  and  C_11 
REMARK       I    between atoms: C_11  and  N_15 
REMARK    6  A    between atoms: N_15  and  CA_16 
REMARK    7  A    between atoms: CA_16  and  C_17 
REMARK       I    between atoms: C_17  and  N_21 
REMARK    8  A    between atoms: N_21  and  CA_22 
REMARK    9  A    between atoms: CA_22  and  C_23 
REMARK   10  A    between atoms: CA_22  and  CB_25 
REMARK       I    between atoms: C_23  and  N_37 
REMARK   11  A    between atoms: CB_25  and  CG_26 
REMARK   12  A    between atoms: N_37  and  CA_38 
REMARK   13  A    between atoms: CA_38  and  CB_41 
REMARK   14  A    between atoms: CA_38  and  C_39 
REMARK       I    between atoms: C_39  and  N_51 
REMARK   15  A    between atoms: CB_41  and  CG_42 
REMARK   16  A    between atoms: CZ_47  and  OH_48 
REMARK   17  A    between atoms: N_51  and  CA_52 
REMARK   18  A    between atoms: CA_52  and  C_53 
REMARK   19  A    between atoms: CA_52  and  CB_55 
REMARK       I    between atoms: C_53  and  N_60 
REMARK   20  A    between atoms: CB_55  and  CG_56 
REMARK   21  A    between atoms: N_60  and  CA_61 
REMARK   22  A    between atoms: CA_61  and  CB_64 
REMARK   23  A    between atoms: CA_61  and  C_62 
REMARK   24  A    between atoms: CB_64  and  CG_65 
REMARK   25  A    between atoms: CG_65  and  CD_66 
REMARK   26  A    between atoms: CD_66  and  NE_67 
REMARK       I    between atoms: NE_67  and  CZ_68 
REMARK       I    between atoms: CZ_68  and  NH1_69 
ROOT
ATOM      1  C   TRP B1542      -4.314  46.036   0.849  1.00 26.55     0.241 C 
ATOM      2  O   TRP B1542      -3.230  46.381   0.400  1.00 27.86    -0.271 OA
ATOM      3  N   TYR B1543      -4.432  45.144   1.825  1.00 24.62    -0.346 N 
ATOM      4  H   TYR B1543      -5.182  44.829   2.105  1.00 24.62     0.163 HD
ENDROOT
BRANCH   3   5
ATOM      5  CA  TYR B1543      -3.263  44.622   2.509  1.00 22.31     0.180 C 
BRANCH   5   6
ATOM      6  CB  TYR B1543      -3.679  44.160   3.908  1.00 23.67     0.073 C 
BRANCH   6   7
ATOM      7  CG  TYR B1543      -2.618  43.412   4.691  1.00 24.58    -0.056 A 
ATOM      8  CD1 TYR B1543      -2.648  42.021   4.783  1.00 24.59     0.010 A 
ATOM      9  CE1 TYR B1543      -1.725  41.334   5.557  1.00 26.50     0.037 A 
ATOM     10  CZ  TYR B1543      -0.766  42.047   6.250  1.00 24.60     0.065 A 
ATOM     11  CE2 TYR B1543      -0.717  43.436   6.163  1.00 24.06     0.037 A 
ATOM     12  CD2 TYR B1543      -1.631  44.098   5.389  1.00 22.62     0.010 A 
BRANCH  10  13
ATOM     13  OH  TYR B1543       0.116  41.383   7.053  1.00 26.51    -0.361 OA
ATOM     14  HH  TYR B1543       0.198  40.591   6.784  1.00 26.51     0.217 HD
ENDBRANCH  10  13
ENDBRANCH   6   7
ENDBRANCH   5   6
BRANCH   5  15
ATOM     15  C   TYR B1543      -2.434  43.534   1.845  1.00 22.90     0.241 C 
ATOM     16  N   LEU B1544      -3.083  42.461   1.415  1.00 22.60    -0.346 N 
ATOM     17  H   LEU B1544      -3.935  42.355   1.457  1.00 22.60     0.163 HD
ATOM     18  O   TYR B1543      -1.220  43.660   1.734  1.00 21.43    -0.271 OA
BRANCH  16  19
ATOM     19  CA  LEU B1544      -2.352  41.353   0.821  1.00 22.81     0.177 C 
BRANCH  19  20
ATOM     20  C   LEU B1544      -1.653  41.758  -0.473  1.00 21.53     0.241 C 
ATOM     21  O   LEU B1544      -2.258  42.369  -1.361  1.00 22.00    -0.271 OA
ATOM     22  N   ARG B1545      -0.374  41.414  -0.582  1.00 20.14    -0.347 N 
ATOM     23  H   ARG B1545       0.075  40.988   0.015  1.00 20.14     0.163 HD
BRANCH  22  24
ATOM     24  CA  ARG B1545       0.363  41.763  -1.785  1.00 18.95     0.162 C 
BRANCH  24  25
ATOM     25  CB  ARG B1545       1.704  42.410  -1.413  1.00 20.51     0.035 C 
BRANCH  25  26
ATOM     26  CG  ARG B1545       1.480  43.840  -0.920  1.00 20.78     0.023 C 
BRANCH  26  27
ATOM     27  CD  ARG B1545       2.680  44.414  -0.172  1.00 21.13     0.138 C 
BRANCH  27  28
ATOM     28  NE  ARG B1545       2.458  45.826   0.156  1.00 20.56    -0.227 N 
ATOM     29  HE  ARG B1545       1.720  46.189  -0.096  1.00 20.56     0.177 HD
ATOM     30  CZ  ARG B1545       3.330  46.577   0.820  1.00 23.27     0.665 C 
ATOM     31  NH2 ARG B1545       3.068  47.870   1.055  1.00 19.37    -0.235 N 
ATOM     32  NH1 ARG B1545       4.474  46.042   1.227  1.00 20.25    -0.235 N 
ATOM     33 HH21 ARG B1545       2.333  48.217   0.776  1.00 19.37     0.174 HD
ATOM     34 HH22 ARG B1545       3.635  48.352   1.485  1.00 19.37     0.174 HD
ATOM     35 HH11 ARG B1545       4.646  45.216   1.060  1.00 20.25     0.174 HD
ATOM     36 HH12 ARG B1545       5.044  46.521   1.657  1.00 20.25     0.174 HD
ENDBRANCH  27  28
ENDBRANCH  26  27
ENDBRANCH  25  26
ENDBRANCH  24  25
BRANCH  24  37
ATOM     37  C   ARG B1545       0.546  40.576  -2.722  1.00 20.11     0.219 C 
ATOM     38  O   ARG B1545      -0.329  39.679  -2.675  1.00 20.61    -0.287 OA
ENDBRANCH  24  37
ENDBRANCH  22  24
ENDBRANCH  19  20
BRANCH  19  39
ATOM     39  CB  LEU B1544      -3.307  40.178   0.575  1.00 22.71     0.038 C 
BRANCH  39  40
ATOM     40  CG  LEU B1544      -3.970  39.613   1.841  1.00 23.46    -0.020 C 
ATOM     41  CD1 LEU B1544      -4.964  38.524   1.426  1.00 24.99     0.009 C 
ATOM     42  CD2 LEU B1544      -2.932  39.049   2.803  1.00 22.67     0.009 C 
ENDBRANCH  39  40
ENDBRANCH  19  39
ENDBRANCH  16  19
ENDBRANCH   5  15
ENDBRANCH   3   5
BRANCH   1  43
ATOM     43  CA  TRP B1542      -5.604  46.605   0.270  1.00 29.62     0.181 C 
BRANCH  43  44
ATOM     44  N   TRP B1542      -6.804  46.031   0.876  1.00 31.24    -0.346 N 
ATOM     45  C   ALA B1541      -7.438  45.027   0.293  1.00 34.20     0.240 C 
ATOM     46  O   ALA B1541      -7.032  44.513  -0.747  1.00 33.88    -0.271 OA
ATOM     47  H   TRP B1542      -7.046  46.395   1.617  1.00 31.24     0.163 HD
BRANCH  45  48
ATOM     48  CA  ALA B1541      -8.711  44.514   0.982  1.00 35.59     0.172 C 
ATOM     49  CB  ALA B1541      -9.959  44.993   0.204  1.00 37.24     0.042 C 
BRANCH  48  50
ATOM     50  N   ALA B1541      -8.857  44.871   2.400  1.00 36.68    -0.346 N 
ATOM     51  C   ALA B1540      -8.007  44.443   3.329  1.00 36.41     0.240 C 
ATOM     52  O   ALA B1540      -7.012  43.762   3.061  1.00 35.55    -0.271 OA
ATOM     53  H   ALA B1541      -9.533  45.375   2.568  1.00 36.68     0.163 HD
BRANCH  51  54
ATOM     54  CA  ALA B1540      -8.310  44.875   4.769  1.00 37.40     0.172 C 
ATOM     55  CB  ALA B1540      -7.556  46.171   5.106  1.00 38.11     0.042 C 
BRANCH  54  56
ATOM     56  N   ALA B1540      -7.962  43.840   5.741  1.00 38.31    -0.346 N 
ATOM     57  H   ALA B1540      -7.388  44.092   6.330  1.00 38.31     0.163 HD
ATOM     58  C   ILE B1539      -8.491  42.625   5.707  1.00 39.48     0.257 C 
ATOM     59  O   ILE B1539      -9.299  42.279   4.856  1.00 40.50    -0.271 OA
BRANCH  58  60
ATOM     60  CA  ILE B1539      -8.015  41.646   6.782  1.00 40.24     0.403 C 
ATOM     61  N   ILE B1539      -9.138  41.186   7.662  1.00 42.50     0.615 N 
BRANCH  60  62
ATOM     62  CB  ILE B1539      -7.322  40.453   6.059  1.00 40.48     0.029 C 
ATOM     63  CG2 ILE B1539      -6.185  40.969   5.179  1.00 38.85     0.012 C 
BRANCH  62  64
ATOM     64  CG1 ILE B1539      -6.780  39.444   7.078  1.00 39.99     0.002 C 
ATOM     65  CD1 ILE B1539      -5.981  38.301   6.438  1.00 39.67     0.005 C 
ENDBRANCH  62  64
ENDBRANCH  60  62
ENDBRANCH  58  60
ENDBRANCH  54  56
ENDBRANCH  51  54
ENDBRANCH  48  50
ENDBRANCH  45  48
ENDBRANCH  43  44
BRANCH  43  66
ATOM     66  CB  TRP B1542      -5.605  48.125   0.485  1.00 29.93     0.075 C 
BRANCH  66  67
ATOM     67  CG  TRP B1542      -5.962  48.543   1.913  1.00 31.09    -0.028 A 
ATOM     68  CD1 TRP B1542      -7.155  49.074   2.336  1.00 35.00     0.096 A 
ATOM     69  NE1 TRP B1542      -7.125  49.296   3.700  1.00 35.42    -0.365 N 
ATOM     70  HE1 TRP B1542      -7.769  49.622   4.168  1.00 35.42     0.165 HD
ATOM     71  CE2 TRP B1542      -5.901  48.911   4.187  1.00 34.23     0.042 A 
ATOM     72  CD2 TRP B1542      -5.137  48.433   3.091  1.00 31.85    -0.002 A 
ATOM     73  CZ2 TRP B1542      -5.401  48.941   5.499  1.00 32.49     0.030 A 
ATOM     74  CE3 TRP B1542      -3.832  47.977   3.327  1.00 30.05     0.014 A 
ATOM     75  CZ3 TRP B1542      -3.333  48.006   4.633  1.00 29.28     0.001 A 
ATOM     76  CH2 TRP B1542      -4.124  48.487   5.704  1.00 32.34     0.002 A 
ENDBRANCH  66  67
ENDBRANCH  43  66
ENDBRANCH   1  43
TORSDOF 26
