REMARK  8 active torsions:
REMARK  status: ('A' for Active; 'I' for Inactive)
REMARK    1  A    between atoms: N_1  and  CA_2 
REMARK    2  A    between atoms: CA_2  and  C_3 
REMARK       I    between atoms: C_3  and  N_9 
REMARK    3  A    between atoms: N_9  and  CA_10 
REMARK    4  A    between atoms: CA_10  and  C_11 
REMARK    5  A    between atoms: CA_10  and  CB_13 
REMARK       I    between atoms: C_11  and  N_20 
REMARK    6  A    between atoms: CB_13  and  CG_14 
REMARK    7  A    between atoms: N_20  and  CA_21 
REMARK    8  A    between atoms: CA_21  and  C_22 
ROOT
ATOM      1  CA  HIS F   2      -1.393  30.750 -17.375  1.00 30.59     0.182 C 
ENDROOT
BRANCH   1   2
ATOM      2  N   HIS F   2      -1.132  31.120 -18.770  1.00 30.70    -0.346 N 
ATOM      3  C   ALA F   1      -1.763  30.554 -19.797  1.00 31.15     0.248 C 
ATOM      4  O   ALA F   1      -2.612  29.666 -19.671  1.00 30.37    -0.271 OA
ATOM      5  H   HIS F   2      -0.536  31.734 -18.861  1.00 30.70     0.163 HD
BRANCH   3   6
ATOM      6  CA  ALA F   1      -1.373  31.070 -21.188  1.00 31.15     0.270 C 
ATOM      7  CB  ALA F   1      -1.664  32.274 -21.428  0.00 20.00     0.050 C 
BRANCH   6   8
ATOM      8  N   ALA F   1      -1.437  29.980 -22.219  1.00 31.97    -0.067 N 
ATOM      9  H3  ALA F   1      -2.283  29.849 -22.461  1.00 31.97     0.275 HD
ATOM     10  H1  ALA F   1      -0.958  30.216 -22.931  1.00 31.97     0.275 HD
ATOM     11  H2  ALA F   1      -1.107  29.228 -21.877  1.00 31.97     0.275 HD
ENDBRANCH   6   8
ENDBRANCH   3   6
ENDBRANCH   1   2
BRANCH   1  12
ATOM     12  C   HIS F   2      -2.686  31.402 -16.868  1.00 31.15     0.241 C 
ATOM     13  O   HIS F   2      -3.112  32.452 -17.384  1.00 30.80    -0.271 OA
ATOM     14  N   ALA F   3      -3.304  30.775 -15.860  1.00 30.97    -0.348 N 
ATOM     15  H   ALA F   3      -3.015  30.047 -15.504  1.00 30.97     0.163 HD
BRANCH  14  16
ATOM     16  CA  ALA F   3      -4.541  31.277 -15.266  1.00 31.72     0.158 C 
ATOM     17  CB  ALA F   3      -4.927  32.544 -16.068  0.00 20.00     0.041 C 
BRANCH  16  18
ATOM     18  C   ALA F   3      -5.769  30.439 -15.612  1.00 32.37     0.219 C 
ATOM     19  O   ALA F   3      -5.661  29.395 -16.271  1.00 33.75    -0.287 OA
ENDBRANCH  16  18
ENDBRANCH  14  16
ENDBRANCH   1  12
BRANCH   1  20
ATOM     20  CB  HIS F   2      -0.215  31.166 -16.478  1.00 30.20     0.095 C 
BRANCH  20  21
ATOM     21  CG  HIS F   2       1.020  30.319 -16.633  1.00 29.66     0.056 A 
ATOM     22  ND1 HIS F   2       1.028  29.104 -17.289  1.00 29.25    -0.245 NA
ATOM     23  CE1 HIS F   2       2.243  28.580 -17.239  1.00 27.69     0.232 A 
ATOM     24  NE2 HIS F   2       3.025  29.404 -16.558  1.00 31.40    -0.252 NA
ATOM     25  CD2 HIS F   2       2.279  30.492 -16.154  1.00 30.69     0.145 A 
ENDBRANCH  20  21
ENDBRANCH   1  20
TORSDOF 8
