REMARK  8 active torsions:
REMARK  status: ('A' for Active; 'I' for Inactive)
REMARK    1  A    between atoms: N_1  and  CA_2 
REMARK    2  A    between atoms: CA_2  and  C_3 
REMARK       I    between atoms: C_3  and  N_8 
REMARK    3  A    between atoms: N_8  and  CA_9 
REMARK    4  A    between atoms: CA_9  and  C_10 
REMARK    5  A    between atoms: CA_9  and  CB_12 
REMARK       I    between atoms: C_10  and  N_19 
REMARK    6  A    between atoms: CB_12  and  CG_13 
REMARK    7  A    between atoms: N_19  and  CA_20 
REMARK    8  A    between atoms: CA_20  and  C_21 
ROOT
ATOM      1  CA  HIS F   2      -1.459  30.886 -17.464  1.00 49.99     0.182 C 
ENDROOT
BRANCH   1   2
ATOM      2  N   HIS F   2      -1.372  31.237 -18.882  1.00 49.83    -0.346 N 
ATOM      3  C   GLY F   1      -2.240  30.782 -19.783  1.00 49.82     0.243 C 
ATOM      4  O   GLY F   1      -3.145  29.988 -19.512  1.00 49.53    -0.272 OA
ATOM      5  H   HIS F   2      -0.716  31.758 -19.075  1.00 49.83     0.163 HD
BRANCH   3   6
ATOM      6  CA  GLY F   1      -2.056  31.296 -21.201  1.00 49.90     0.332 C 
BRANCH   6   7
ATOM      7  N   GLY F   1      -2.051  30.210 -22.225  1.00 49.95    -0.071 N 
ATOM      8  H3  GLY F   1      -2.889  29.997 -22.436  1.00 49.95     0.274 HD
ATOM      9  H1  GLY F   1      -1.624  30.491 -22.954  1.00 49.95     0.274 HD
ATOM     10  H2  GLY F   1      -1.637  29.494 -21.897  1.00 49.95     0.274 HD
ENDBRANCH   6   7
ENDBRANCH   3   6
ENDBRANCH   1   2
BRANCH   1  11
ATOM     11  C   HIS F   2      -2.628  31.605 -16.793  1.00 50.00     0.241 C 
ATOM     12  O   HIS F   2      -2.935  32.754 -17.120  1.00 49.82    -0.271 OA
ATOM     13  N   GLY F   3      -3.280  30.912 -15.862  1.00 50.02    -0.352 N 
ATOM     14  H   GLY F   3      -3.056  30.120 -15.612  1.00 50.02     0.162 HD
BRANCH  13  15
ATOM     15  CA  GLY F   3      -4.449  31.447 -15.176  1.00 50.20     0.209 C 
BRANCH  15  16
ATOM     16  C   GLY F   3      -5.748  31.082 -15.867  1.00 50.42     0.213 C 
ATOM     17  O   GLY F   3      -6.194  29.936 -15.801  1.00 50.69    -0.287 OA
ENDBRANCH  15  16
ENDBRANCH  13  15
ENDBRANCH   1  11
BRANCH   1  18
ATOM     18  CB  HIS F   2      -0.147  31.206 -16.745  1.00 49.99     0.095 C 
BRANCH  18  19
ATOM     19  CG  HIS F   2       1.023  30.415 -17.243  1.00 50.63     0.056 A 
ATOM     20  CD2 HIS F   2       2.037  30.748 -18.079  1.00 51.31     0.145 A 
ATOM     21  NE2 HIS F   2       2.850  29.645 -18.191  1.00 51.32    -0.252 NA
ATOM     22  CE1 HIS F   2       2.350  28.667 -17.456  1.00 50.87     0.232 A 
ATOM     23  ND1 HIS F   2       1.249  29.106 -16.872  1.00 50.82    -0.245 NA
ENDBRANCH  18  19
ENDBRANCH   1  18
TORSDOF 8
