REMARK  14 active torsions:
REMARK  status: ('A' for Active; 'I' for Inactive)
REMARK    1  A    between atoms: N_1  and  CA_2 
REMARK    2  A    between atoms: CA_2  and  CB_5 
REMARK    3  A    between atoms: CA_2  and  C_3 
REMARK       I    between atoms: C_3  and  N_16 
REMARK    4  A    between atoms: CB_5  and  CG_6 
REMARK    5  A    between atoms: CG_6  and  CD_7 
REMARK    6  A    between atoms: CD_7  and  CE_8 
REMARK    7  A    between atoms: CE_8  and  NZ_9 
REMARK    8  A    between atoms: N_16  and  CA_17 
REMARK    9  A    between atoms: CA_17  and  C_18 
REMARK       I    between atoms: C_18  and  N_21 
REMARK   10  A    between atoms: N_21  and  CA_22 
REMARK   11  A    between atoms: CA_22  and  C_23 
REMARK   12  A    between atoms: CA_22  and  CB_25 
REMARK   13  A    between atoms: CB_25  and  CG_26 
REMARK   14  A    between atoms: CG_26  and  CD_27 
ROOT
ATOM      1  C   LYS I   1      13.921 -24.019  11.540  1.00 18.69     0.248 C 
ATOM      2  O   LYS I   1      14.721 -23.756  12.412  1.00 17.50    -0.271 OA
ATOM      3  N   GLY I   2      14.186 -24.827  10.514  1.00 19.29    -0.351 N 
ATOM      4  H   GLY I   2      13.618 -25.003   9.892  1.00 19.29     0.163 HD
ENDROOT
BRANCH   1   5
ATOM      5  CA  LYS I   1      12.527 -23.413  11.583  1.00 19.30     0.274 C 
BRANCH   5   6
ATOM      6  CB  LYS I   1      12.512 -22.079  10.814  1.00 20.67     0.042 C 
BRANCH   6   7
ATOM      7  CG  LYS I   1      13.216 -20.912  11.474  1.00 22.16     0.004 C 
BRANCH   7   8
ATOM      8  CD  LYS I   1      13.233 -19.732  10.501  1.00 24.26     0.027 C 
BRANCH   8   9
ATOM      9  CE  LYS I   1      13.657 -18.406  11.086  1.00 26.09     0.229 C 
BRANCH   9  10
ATOM     10  NZ  LYS I   1      14.240 -18.461  12.458  1.00 28.14    -0.079 N 
ATOM     11  HZ2 LYS I   1      13.647 -18.816  13.019  1.00 28.14     0.274 HD
ATOM     12  HZ1 LYS I   1      14.446 -17.638  12.726  1.00 28.14     0.274 HD
ATOM     13  HZ3 LYS I   1      14.975 -18.962  12.448  1.00 28.14     0.274 HD
ENDBRANCH   9  10
ENDBRANCH   8   9
ENDBRANCH   7   8
ENDBRANCH   6   7
ENDBRANCH   5   6
BRANCH   5  14
ATOM     14  N   LYS I   1      12.070 -23.227  12.995  1.00 18.10    -0.067 N 
ATOM     15  H3  LYS I   1      12.770 -23.038  13.511  1.00 18.10     0.275 HD
ATOM     16  H1  LYS I   1      11.485 -22.557  13.032  1.00 18.10     0.275 HD
ATOM     17  H2  LYS I   1      11.683 -23.975  13.283  1.00 18.10     0.275 HD
ENDBRANCH   5  14
ENDBRANCH   1   5
BRANCH   3  18
ATOM     18  CA  GLY I   2      15.479 -25.500  10.343  1.00 20.06     0.225 C 
BRANCH  18  19
ATOM     19  C   GLY I   2      16.528 -24.601   9.728  1.00 20.91     0.235 C 
ATOM     20  O   GLY I   2      16.249 -23.852   8.796  1.00 20.34    -0.272 OA
ATOM     21  N   GLU I   3      17.751 -24.687  10.241  1.00 23.55    -0.348 N 
ATOM     22  H   GLU I   3      17.986 -25.278  10.820  1.00 23.55     0.163 HD
BRANCH  21  23
ATOM     23  CA  GLU I   3      18.818 -23.767   9.857  1.00 24.92     0.163 C 
BRANCH  23  24
ATOM     24  C   GLU I   3      20.097 -24.532   9.541  1.00 25.70     0.219 C 
ATOM     25  O   GLU I   3      20.834 -24.131   8.643  1.00 27.47    -0.287 OA
ENDBRANCH  23  24
BRANCH  23  26
ATOM     26  CB  GLU I   3      19.017 -22.753  10.982  1.00 26.58     0.044 C 
BRANCH  26  27
ATOM     27  CG  GLU I   3      20.400 -22.118  11.159  1.00 29.64     0.116 C 
BRANCH  27  28
ATOM     28  CD  GLU I   3      20.848 -21.223  10.019  1.00 32.56     0.172 C 
ATOM     29  OE2 GLU I   3      21.867 -21.569   9.378  1.00 37.52    -0.648 OA
ATOM     30  OE1 GLU I   3      20.228 -20.158   9.793  1.00 34.95    -0.648 OA
ENDBRANCH  27  28
ENDBRANCH  26  27
ENDBRANCH  23  26
ENDBRANCH  21  23
ENDBRANCH  18  19
ENDBRANCH   3  18
TORSDOF 14
