REMARK  8 active torsions:
REMARK  status: ('A' for Active; 'I' for Inactive)
REMARK    1  A    between atoms: CA_2  and  C_3 
REMARK       I    between atoms: C_3  and  N_8 
REMARK    2  A    between atoms: CA_9  and  C_10 
REMARK       I    between atoms: C_10  and  N_15 
REMARK    3  A    between atoms: CA_16  and  C_17 
REMARK       I    between atoms: C_17  and  N_22 
REMARK    4  A    between atoms: N_22  and  CA_23 
REMARK    5  A    between atoms: CA_23  and  C_24 
REMARK    6  A    between atoms: CA_23  and  CB_26 
REMARK       I    between atoms: C_24  and  N_30 
REMARK    7  A    between atoms: CA_31  and  C_32 
REMARK       I    between atoms: C_32  and  N_37 
REMARK    8  A    between atoms: CA_38  and  C_39 
ROOT
ATOM      1  C   PRO C  76      15.291   9.135   5.617  0.47 42.64     0.241 C 
ATOM      2  O   PRO C  76      15.597   8.106   5.112  0.47 44.95    -0.271 OA
ATOM      3  N   VAL C  77      16.063   9.774   6.459  0.47 42.25    -0.346 N 
ATOM      4  H   VAL C  77      15.893  10.539   6.812  0.47 42.25     0.163 HD
ENDROOT
BRANCH   3   5
ATOM      5  CA  VAL C  77      17.303   9.168   6.841  0.47 44.36     0.174 C 
BRANCH   5   6
ATOM      6  C   VAL C  77      16.954   8.207   7.947  0.47 50.22     0.223 C 
ATOM      7  O   VAL C  77      15.818   8.136   8.329  0.47 51.68    -0.277 OA
ATOM      8  N   PRO C  78      17.859   7.395   8.432  0.47 51.29    -0.238 NA
ATOM      9  CD  PRO C  78      18.478   6.584   7.372  0.47 47.28     0.099 C 
ATOM     10  CA  PRO C  78      17.440   6.563   9.545  0.47 47.56     0.158 C 
ATOM     11  CG  PRO C  78      18.164   5.214   7.773  0.47 42.43     0.017 C 
ATOM     12  CB  PRO C  78      18.066   5.215   9.223  0.47 42.06     0.031 C 
BRANCH  10  13
ATOM     13  C   PRO C  78      17.901   7.240  10.810  0.47 54.03     0.238 C 
ATOM     14  N   PRO C  79      17.545   6.768  12.001  0.47 54.03    -0.339 N 
ATOM     15  CD  PRO C  79      16.257   6.067  12.039  0.47 49.78     0.127 C 
ATOM     16  CA  PRO C  79      17.742   7.559  13.219  0.47 62.24     0.165 C 
ATOM     17  CG  PRO C  79      15.730   6.406  13.353  0.47 51.96     0.022 C 
ATOM     18  CB  PRO C  79      16.787   6.922  14.184  0.47 58.89     0.035 C 
ATOM     19  O   PRO C  78      18.540   8.250  10.664  0.47 60.82    -0.272 OA
BRANCH  16  20
ATOM     20  C   PRO C  79      19.129   7.590  13.816  0.47 69.87     0.219 C 
ATOM     21  O   PRO C  79      19.995   6.996  13.224  0.47 73.23    -0.287 OA
ENDBRANCH  16  20
ENDBRANCH  10  13
ENDBRANCH   5   6
BRANCH   5  22
ATOM     22  CB  VAL C  77      18.368  10.247   7.111  0.47 43.60     0.009 C 
ATOM     23  CG2 VAL C  77      18.454  11.118   5.857  0.47 46.41     0.012 C 
ATOM     24  CG1 VAL C  77      19.760   9.662   7.382  0.47 37.55     0.012 C 
ENDBRANCH   5  22
ENDBRANCH   3   5
BRANCH   1  25
ATOM     25  CA  PRO C  76      13.996   9.692   5.226  0.47 40.28     0.179 C 
ATOM     26  N   PRO C  76      13.614   9.060   3.982  0.47 33.79    -0.337 N 
ATOM     27  CD  PRO C  76      12.330   8.371   4.119  0.47 35.40     0.127 C 
ATOM     28  C   PRO C  75      13.970   9.586   2.833  0.47 33.84     0.243 C 
ATOM     29  CG  PRO C  76      12.148   8.314   5.573  0.47 37.80     0.022 C 
ATOM     30  CB  PRO C  76      12.885   9.284   6.202  0.47 38.87     0.037 C 
ATOM     31  O   PRO C  75      14.634  10.560   2.761  0.47 33.93    -0.271 OA
BRANCH  28  32
ATOM     32  CA  PRO C  75      13.438   8.954   1.570  0.47 46.85     0.179 C 
ATOM     33  CB  PRO C  75      13.949   7.517   1.413  0.47 48.68     0.037 C 
ATOM     34  CG  PRO C  75      14.503   7.421   0.030  0.47 51.42     0.022 C 
ATOM     35  CD  PRO C  75      14.195   8.660  -0.690  0.47 56.17     0.127 C 
ATOM     36  N   PRO C  75      13.964   9.618   0.387  0.47 56.81    -0.337 N 
ATOM     37  C   PRO C  74      13.481  10.763  -0.092  0.47 61.55     0.256 C 
ATOM     38  O   PRO C  74      12.575  11.402   0.408  0.47 61.23    -0.271 OA
BRANCH  37  39
ATOM     39  CA  PRO C  74      14.121  11.287  -1.358  0.47 57.58     0.353 C 
ATOM     40  N   PRO C  74      13.216  12.182  -2.082  0.47 57.74     0.318 N 
ATOM     41  CD  PRO C  74      13.894  13.438  -2.409  0.47 56.21     0.315 C 
ATOM     42  CG  PRO C  74      14.855  13.565  -1.290  0.47 52.80     0.035 C 
ATOM     43  CB  PRO C  74      15.304  12.193  -1.021  0.47 50.35     0.050 C 
ENDBRANCH  37  39
ENDBRANCH  28  32
ENDBRANCH   1  25
TORSDOF 8
