REMARK  12 active torsions:
REMARK  status: ('A' for Active; 'I' for Inactive)
REMARK    1  A    between atoms: CA_2  and  C_3 
REMARK    2  A    between atoms: CA_2  and  CB_5 
REMARK       I    between atoms: C_3  and  N_9 
REMARK    3  A    between atoms: CB_5  and  CG_6 
REMARK    4  A    between atoms: N_9  and  CA_10 
REMARK    5  A    between atoms: CA_10  and  C_11 
REMARK    6  A    between atoms: CA_10  and  CB_13 
REMARK       I    between atoms: C_11  and  N_18 
REMARK    7  A    between atoms: CB_13  and  CG_14 
REMARK    8  A    between atoms: CA_19  and  C_20 
REMARK       I    between atoms: C_20  and  N_25 
REMARK    9  A    between atoms: N_25  and  CA_26 
REMARK   10  A    between atoms: CA_26  and  CB_29 
REMARK   11  A    between atoms: CA_26  and  C_27 
REMARK   12  A    between atoms: CB_29  and  CG_30 
ROOT
ATOM      1  C   LEU B 299     -17.483  -0.001  14.010  1.00 46.80     0.243 C 
ATOM      2  O   LEU B 299     -18.065  -0.469  13.021  1.00 48.15    -0.271 OA
ATOM      3  N   PRO B 300     -18.122   0.742  14.939  1.00 44.47    -0.337 N 
ATOM      4  CA  PRO B 300     -19.551   1.063  14.792  1.00 41.25     0.179 C 
ATOM      5  CB  PRO B 300     -20.029   1.128  16.246  1.00 41.07     0.037 C 
ATOM      6  CG  PRO B 300     -18.820   1.661  16.999  1.00 41.88     0.022 C 
ATOM      7  CD  PRO B 300     -17.582   1.245  16.224  1.00 43.19     0.127 C 
ENDROOT
BRANCH   1   8
ATOM      8  CA  LEU B 299     -15.985  -0.273  14.239  1.00 51.80     0.177 C 
BRANCH   8   9
ATOM      9  CB  LEU B 299     -15.114   0.799  13.582  1.00 51.70     0.038 C 
BRANCH   9  10
ATOM     10  CG  LEU B 299     -13.672   0.950  14.089  1.00 53.57    -0.020 C 
ATOM     11  CD2 LEU B 299     -13.586   1.005  15.612  1.00 54.40     0.009 C 
ATOM     12  CD1 LEU B 299     -13.027   2.183  13.483  1.00 50.77     0.009 C 
ENDBRANCH   9  10
ENDBRANCH   8   9
BRANCH   8  13
ATOM     13  N   LEU B 299     -15.556  -1.629  13.849  1.00 58.35    -0.346 N 
ATOM     14  C   ASP B 298     -16.073  -2.712  14.435  1.00 67.04     0.258 C 
ATOM     15  O   ASP B 298     -16.970  -2.637  15.295  1.00 64.28    -0.271 OA
ATOM     16  H   LEU B 299     -14.961  -1.652  13.229  1.00 58.35     0.163 HD
BRANCH  14  17
ATOM     17  CA  ASP B 298     -15.516  -4.098  14.005  1.00 70.29     0.409 C 
ATOM     18  N   ASP B 298     -15.580  -4.358  12.533  1.00 66.44     0.615 N 
BRANCH  17  19
ATOM     19  CB  ASP B 298     -14.090  -4.340  14.547  1.00 75.12     0.164 C 
BRANCH  19  20
ATOM     20  CG  ASP B 298     -13.001  -3.647  13.715  1.00 83.78     0.175 C 
ATOM     21  OD2 ASP B 298     -13.326  -2.925  12.745  1.00 86.97    -0.648 OA
ATOM     22  OD1 ASP B 298     -11.806  -3.826  14.036  1.00 89.47    -0.648 OA
ENDBRANCH  19  20
ENDBRANCH  17  19
ENDBRANCH  14  17
ENDBRANCH   8  13
ENDBRANCH   1   8
BRANCH   4  23
ATOM     23  C   PRO B 300     -19.777   2.407  14.035  1.00 41.91     0.241 C 
ATOM     24  N   PHE B 301     -18.737   2.858  13.337  1.00 41.99    -0.344 N 
ATOM     25  H   PHE B 301     -17.981   2.449  13.329  1.00 41.99     0.163 HD
ATOM     26  O   PRO B 300     -20.868   2.988  14.092  1.00 39.52    -0.271 OA
BRANCH  24  27
ATOM     27  CA  PHE B 301     -18.733   4.076  12.510  1.00 41.99     0.189 C 
BRANCH  27  28
ATOM     28  CB  PHE B 301     -18.612   5.347  13.378  1.00 39.59     0.074 C 
BRANCH  28  29
ATOM     29  CG  PHE B 301     -17.541   5.271  14.457  1.00 41.19    -0.056 A 
ATOM     30  CD1 PHE B 301     -17.871   5.493  15.787  1.00 38.91     0.007 A 
ATOM     31  CE1 PHE B 301     -16.901   5.433  16.791  1.00 39.99     0.001 A 
ATOM     32  CZ  PHE B 301     -15.578   5.178  16.464  1.00 37.57     0.000 A 
ATOM     33  CE2 PHE B 301     -15.231   4.957  15.134  1.00 41.60     0.001 A 
ATOM     34  CD2 PHE B 301     -16.208   4.997  14.139  1.00 40.14     0.007 A 
ENDBRANCH  28  29
ENDBRANCH  27  28
BRANCH  27  35
ATOM     35  C   PHE B 301     -17.584   3.978  11.499  1.00 45.15     0.197 C 
ATOM     36  O   PHE B 301     -17.229   4.913  10.757  1.00 42.31    -0.646 OA
ATOM     37  OXT PHE B 301     -16.947   2.915  11.425  1.00 47.06    -0.646 OA
ENDBRANCH  27  35
ENDBRANCH  24  27
ENDBRANCH   4  23
TORSDOF 12
