REMARK  25 active torsions:
REMARK  status: ('A' for Active; 'I' for Inactive)
REMARK    1  A    between atoms: CA_2  and  C_3 
REMARK       I    between atoms: C_3  and  N_8 
REMARK    2  A    between atoms: N_8  and  CA_9 
REMARK    3  A    between atoms: CA_9  and  CB_12 
REMARK    4  A    between atoms: CA_9  and  C_10 
REMARK       I    between atoms: C_10  and  N_17 
REMARK    5  A    between atoms: CB_12  and  OG1_13 
REMARK    6  A    between atoms: N_17  and  CA_18 
REMARK    7  A    between atoms: CA_18  and  C_19 
REMARK    8  A    between atoms: CA_18  and  CB_21 
REMARK       I    between atoms: C_19  and  N_25 
REMARK    9  A    between atoms: N_25  and  CA_26 
REMARK   10  A    between atoms: CA_26  and  C_27 
REMARK   11  A    between atoms: CA_26  and  CB_29 
REMARK       I    between atoms: C_27  and  N_35 
REMARK   12  A    between atoms: CB_29  and  CG_30 
REMARK   13  A    between atoms: CG_30  and  CD_31 
REMARK   14  A    between atoms: N_35  and  CA_36 
REMARK   15  A    between atoms: CA_36  and  CB_39 
REMARK   16  A    between atoms: CA_36  and  C_37 
REMARK       I    between atoms: C_37  and  N_45 
REMARK   17  A    between atoms: CB_39  and  CG_40 
REMARK   18  A    between atoms: CG_40  and  CD_41 
REMARK   19  A    between atoms: N_45  and  CA_46 
REMARK   20  A    between atoms: CA_46  and  C_47 
REMARK   21  A    between atoms: CA_46  and  CB_49 
REMARK       I    between atoms: C_47  and  N_53 
REMARK   22  A    between atoms: N_53  and  CA_54 
REMARK   23  A    between atoms: CA_54  and  C_55 
REMARK   24  A    between atoms: CA_54  and  CB_57 
REMARK   25  A    between atoms: CB_57  and  CG_58 
ROOT
ATOM      1  CA  GLU B 653       8.150 -22.459  15.085  1.00 16.59     0.177 C 
ENDROOT
BRANCH   1   2
ATOM      2  C   GLU B 653       7.201 -22.822  13.925  1.00 17.01     0.241 C 
ATOM      3  O   GLU B 653       7.602 -23.486  12.949  1.00 18.89    -0.271 OA
ATOM      4  N   GLU B 654       5.948 -22.419  14.042  1.00 17.47    -0.346 N 
ATOM      5  H   GLU B 654       5.684 -21.894  14.670  1.00 17.47     0.163 HD
BRANCH   4   6
ATOM      6  CA  GLU B 654       4.901 -22.807  13.147  1.00 19.20     0.177 C 
BRANCH   6   7
ATOM      7  CB  GLU B 654       3.775 -23.458  13.931  1.00 21.36     0.045 C 
BRANCH   7   8
ATOM      8  CG  GLU B 654       4.224 -24.650  14.717  1.00 25.94     0.116 C 
BRANCH   8   9
ATOM      9  CD  GLU B 654       4.233 -25.905  13.913  1.00 34.53     0.172 C 
ATOM     10  OE2 GLU B 654       4.135 -25.823  12.658  1.00 38.43    -0.648 OA
ATOM     11  OE1 GLU B 654       4.359 -26.989  14.551  1.00 40.98    -0.648 OA
ENDBRANCH   8   9
ENDBRANCH   7   8
ENDBRANCH   6   7
BRANCH   6  12
ATOM     12  C   GLU B 654       4.353 -21.632  12.368  1.00 18.66     0.241 C 
ATOM     13  N   VAL B 655       4.097 -21.834  11.072  1.00 18.37    -0.346 N 
ATOM     14  H   VAL B 655       4.332 -22.542  10.645  1.00 18.37     0.163 HD
ATOM     15  O   GLU B 654       4.286 -20.540  12.907  1.00 17.95    -0.271 OA
BRANCH  13  16
ATOM     16  CA  VAL B 655       3.382 -20.851  10.254  1.00 18.99     0.180 C 
BRANCH  16  17
ATOM     17  C   VAL B 655       2.231 -21.577   9.550  1.00 20.12     0.241 C 
ATOM     18  O   VAL B 655       2.242 -22.815   9.448  1.00 20.44    -0.271 OA
ATOM     19  N   ASP B 656       1.240 -20.806   9.104  1.00 20.60    -0.344 N 
ATOM     20  H   ASP B 656       1.234 -19.948   9.168  1.00 20.60     0.163 HD
BRANCH  19  21
ATOM     21  CA  ASP B 656       0.047 -21.377   8.450  1.00 22.64     0.195 C 
BRANCH  21  22
ATOM     22  C   ASP B 656       0.061 -21.192   6.924  1.00 24.92     0.197 C 
ATOM     23  OXT ASP B 656      -0.357 -22.117   6.167  1.00 27.50    -0.646 OA
ATOM     24  O   ASP B 656       0.521 -20.152   6.410  1.00 24.52    -0.646 OA
ENDBRANCH  21  22
BRANCH  21  25
ATOM     25  CB  ASP B 656      -1.182 -20.715   9.051  1.00 22.32     0.149 C 
BRANCH  25  26
ATOM     26  CG  ASP B 656      -1.481 -21.231  10.454  1.00 24.14     0.175 C 
ATOM     27  OD1 ASP B 656      -2.253 -22.202  10.603  1.00 27.79    -0.648 OA
ATOM     28  OD2 ASP B 656      -0.897 -20.705  11.415  1.00 21.16    -0.648 OA
ENDBRANCH  25  26
ENDBRANCH  21  25
ENDBRANCH  19  21
ENDBRANCH  16  17
BRANCH  16  29
ATOM     29  CB  VAL B 655       4.245 -20.154   9.198  1.00 17.39     0.009 C 
ATOM     30  CG2 VAL B 655       5.029 -21.182   8.347  1.00 19.33     0.012 C 
ATOM     31  CG1 VAL B 655       5.206 -19.094   9.865  1.00 17.58     0.012 C 
ENDBRANCH  16  29
ENDBRANCH  13  16
ENDBRANCH   6  12
ENDBRANCH   4   6
ENDBRANCH   1   2
BRANCH   1  32
ATOM     32  CB  GLU B 653       8.773 -23.787  15.637  1.00 16.22     0.045 C 
BRANCH  32  33
ATOM     33  CG  GLU B 653       9.537 -23.618  16.916  1.00 17.46     0.116 C 
BRANCH  33  34
ATOM     34  CD  GLU B 653      10.845 -22.792  16.757  1.00 17.13     0.172 C 
ATOM     35  OE1 GLU B 653      11.508 -22.583  17.802  1.00 19.48    -0.648 OA
ATOM     36  OE2 GLU B 653      11.229 -22.348  15.620  1.00 19.36    -0.648 OA
ENDBRANCH  33  34
ENDBRANCH  32  33
ENDBRANCH   1  32
BRANCH   1  37
ATOM     37  N   GLU B 653       7.512 -21.707  16.178  1.00 15.81    -0.346 N 
ATOM     38  C   VAL B 652       7.585 -20.376  16.365  1.00 15.71     0.241 C 
ATOM     39  O   VAL B 652       8.115 -19.610  15.573  1.00 14.72    -0.271 OA
ATOM     40  H   GLU B 653       7.068 -22.216  16.711  1.00 15.81     0.163 HD
BRANCH  38  41
ATOM     41  CA  VAL B 652       6.795 -19.785  17.590  1.00 15.41     0.180 C 
BRANCH  41  42
ATOM     42  N   VAL B 652       5.848 -20.770  18.082  1.00 15.06    -0.346 N 
ATOM     43  C   THR B 651       4.758 -21.072  17.380  1.00 17.05     0.243 C 
ATOM     44  O   THR B 651       4.583 -20.726  16.218  1.00 16.18    -0.271 OA
ATOM     45  H   VAL B 652       6.053 -21.123  18.839  1.00 15.06     0.163 HD
BRANCH  43  46
ATOM     46  CA  THR B 651       3.763 -22.005  18.018  1.00 18.25     0.205 C 
BRANCH  46  47
ATOM     47  N   THR B 651       4.346 -22.999  18.897  1.00 18.62    -0.343 N 
ATOM     48  H   THR B 651       4.059 -22.973  19.707  1.00 18.62     0.163 HD
ATOM     49  C   PRO B 650       5.240 -23.858  18.458  1.00 22.21     0.254 C 
ATOM     50  O   PRO B 650       5.768 -23.755  17.361  1.00 21.73    -0.271 OA
BRANCH  49  51
ATOM     51  CA  PRO B 650       5.561 -25.024  19.388  1.00 24.06     0.352 C 
ATOM     52  CB  PRO B 650       6.420 -24.633  20.590  1.00 25.19     0.050 C 
ATOM     53  CG  PRO B 650       7.163 -25.920  20.876  1.00 26.54     0.035 C 
ATOM     54  CD  PRO B 650       7.496 -26.439  19.496  1.00 26.80     0.315 C 
ATOM     55  N   PRO B 650       6.418 -25.909  18.664  1.00 26.10     0.318 N 
ENDBRANCH  49  51
ENDBRANCH  46  47
BRANCH  46  56
ATOM     56  CB  THR B 651       2.675 -21.236  18.821  1.00 18.88     0.146 C 
ATOM     57  CG2 THR B 651       2.184 -19.907  18.154  1.00 20.33     0.042 C 
BRANCH  56  58
ATOM     58  OG1 THR B 651       1.636 -22.171  19.110  1.00 19.33    -0.393 OA
ATOM     59  HG1 THR B 651       1.924 -22.755  19.641  1.00 19.33     0.210 HD
ENDBRANCH  56  58
ENDBRANCH  46  56
ENDBRANCH  43  46
ENDBRANCH  41  42
BRANCH  41  60
ATOM     60  CB  VAL B 652       7.808 -19.289  18.664  1.00 13.27     0.009 C 
ATOM     61  CG1 VAL B 652       7.148 -18.612  19.759  1.00 15.32     0.012 C 
ATOM     62  CG2 VAL B 652       8.677 -20.433  19.185  1.00 15.72     0.012 C 
ENDBRANCH  41  60
ENDBRANCH  38  41
ENDBRANCH   1  37
TORSDOF 25
