REMARK  21 active torsions:
REMARK  status: ('A' for Active; 'I' for Inactive)
REMARK    1  A    between atoms: N_1  and  CA_2 
REMARK    2  A    between atoms: CA_2  and  C_3 
REMARK    3  A    between atoms: CA_2  and  CB_5 
REMARK       I    between atoms: C_3  and  N_11 
REMARK    4  A    between atoms: N_11  and  CA_12 
REMARK    5  A    between atoms: CA_12  and  CB_15 
REMARK    6  A    between atoms: CA_12  and  C_13 
REMARK       I    between atoms: C_13  and  N_25 
REMARK    7  A    between atoms: CB_15  and  CG_16 
REMARK    8  A    between atoms: CZ_21  and  OH_22 
REMARK    9  A    between atoms: N_25  and  CA_26 
REMARK   10  A    between atoms: CA_26  and  CB_29 
REMARK   11  A    between atoms: CA_26  and  C_27 
REMARK       I    between atoms: C_27  and  N_34 
REMARK   12  A    between atoms: CB_29  and  CG1_30 
REMARK   13  A    between atoms: N_34  and  CA_35 
REMARK   14  A    between atoms: CA_35  and  C_36 
REMARK   15  A    between atoms: CA_35  and  CB_38 
REMARK       I    between atoms: C_36  and  N_45 
REMARK   16  A    between atoms: CB_38  and  CG_39 
REMARK   17  A    between atoms: CA_46  and  C_47 
REMARK       I    between atoms: C_47  and  N_52 
REMARK   18  A    between atoms: N_52  and  CA_53 
REMARK   19  A    between atoms: CA_53  and  C_54 
REMARK   20  A    between atoms: CA_53  and  CB_56 
REMARK   21  A    between atoms: CB_56  and  CG_57 
ROOT
ATOM      1  C   ILE C   3      57.069  27.772  34.479  1.00 18.73     0.241 C 
ATOM      2  O   ILE C   3      56.165  28.584  34.358  1.00 16.27    -0.271 OA
ATOM      3  N   HIS C   4      57.345  26.927  33.488  1.00 21.57    -0.346 N 
ATOM      4  H   HIS C   4      57.977  26.344  33.484  1.00 21.57     0.163 HD
ENDROOT
BRANCH   1   5
ATOM      5  CA  ILE C   3      57.883  27.695  35.781  1.00 14.70     0.180 C 
BRANCH   5   6
ATOM      6  CB  ILE C   3      57.731  26.347  36.468  1.00 14.24     0.013 C 
ATOM      7  CG2 ILE C   3      58.481  26.329  37.785  1.00 15.96     0.012 C 
BRANCH   6   8
ATOM      8  CG1 ILE C   3      56.274  26.076  36.803  1.00 14.06     0.002 C 
ATOM      9  CD1 ILE C   3      56.011  24.730  37.459  1.00 15.53     0.005 C 
ENDBRANCH   6   8
ENDBRANCH   5   6
BRANCH   5  10
ATOM     10  N   ILE C   3      57.423  28.764  36.644  1.00 14.80    -0.346 N 
ATOM     11  H   ILE C   3      56.918  28.514  37.294  1.00 14.80     0.163 HD
ATOM     12  C   TYR C   2      57.779  30.014  36.410  1.00 14.99     0.241 C 
ATOM     13  O   TYR C   2      58.713  30.295  35.647  1.00 13.53    -0.271 OA
BRANCH  12  14
ATOM     14  CA  TYR C   2      57.049  31.071  37.207  1.00 13.94     0.180 C 
BRANCH  14  15
ATOM     15  N   TYR C   2      56.948  30.794  38.619  1.00 12.58    -0.346 N 
ATOM     16  C   VAL C   1      55.905  30.118  39.073  1.00 12.16     0.249 C 
ATOM     17  O   VAL C   1      55.068  29.617  38.290  1.00 12.42    -0.271 OA
ATOM     18  H   TYR C   2      57.593  31.094  39.103  1.00 12.58     0.163 HD
BRANCH  16  19
ATOM     19  CA  VAL C   1      55.735  30.019  40.613  1.00 12.03     0.278 C 
BRANCH  19  20
ATOM     20  CB  VAL C   1      56.342  28.711  41.181  1.00 13.82     0.017 C 
ATOM     21  CG2 VAL C   1      55.496  27.490  40.838  1.00 13.35     0.012 C 
ATOM     22  CG1 VAL C   1      56.549  28.778  42.694  1.00 14.11     0.012 C 
ENDBRANCH  19  20
BRANCH  19  23
ATOM     23  N   VAL C   1      54.237  30.105  40.909  1.00 11.80    -0.066 N 
ATOM     24  H3  VAL C   1      53.785  29.651  40.291  1.00 11.80     0.275 HD
ATOM     25  H1  VAL C   1      54.072  29.757  41.711  1.00 11.80     0.275 HD
ATOM     26  H2  VAL C   1      53.980  30.957  40.898  1.00 11.80     0.275 HD
ENDBRANCH  19  23
ENDBRANCH  16  19
ENDBRANCH  14  15
BRANCH  14  27
ATOM     27  CB  TYR C   2      57.650  32.495  37.042  1.00 13.68     0.073 C 
BRANCH  27  28
ATOM     28  CG  TYR C   2      56.733  33.620  37.118  1.00 14.01    -0.056 A 
ATOM     29  CD1 TYR C   2      55.561  33.671  36.394  1.00 14.17     0.010 A 
ATOM     30  CE1 TYR C   2      54.763  34.781  36.363  1.00 16.08     0.037 A 
ATOM     31  CZ  TYR C   2      55.081  35.844  37.153  1.00 18.02     0.065 A 
ATOM     32  CE2 TYR C   2      56.220  35.842  37.877  1.00 16.42     0.037 A 
ATOM     33  CD2 TYR C   2      57.065  34.760  37.875  1.00 16.83     0.010 A 
BRANCH  31  34
ATOM     34  OH  TYR C   2      54.296  36.968  37.177  1.00 21.46    -0.361 OA
ATOM     35  HH  TYR C   2      53.488  36.747  37.115  1.00 21.46     0.217 HD
ENDBRANCH  31  34
ENDBRANCH  27  28
ENDBRANCH  14  27
ENDBRANCH  12  14
ENDBRANCH   5  10
ENDBRANCH   1   5
BRANCH   3  36
ATOM     36  CA  HIS C   4      56.503  26.981  32.281  1.00 30.85     0.182 C 
BRANCH  36  37
ATOM     37  C   HIS C   4      54.981  26.564  32.568  1.00 37.69     0.243 C 
ATOM     38  O   HIS C   4      54.741  25.689  33.423  1.00 34.87    -0.271 OA
ATOM     39  N   PRO C   5      53.960  27.246  31.928  1.00 41.85    -0.337 N 
ATOM     40  CA  PRO C   5      52.599  26.676  32.058  1.00 42.98     0.179 C 
ATOM     41  CD  PRO C   5      53.875  28.663  31.486  1.00 45.49     0.127 C 
ATOM     42  CB  PRO C   5      51.742  27.512  31.083  1.00 43.99     0.037 C 
ATOM     43  CG  PRO C   5      52.604  28.688  30.653  1.00 47.39     0.022 C 
BRANCH  40  44
ATOM     44  C   PRO C   5      52.572  25.197  31.699  1.00 44.97     0.241 C 
ATOM     45  N   PHE C   6      51.564  24.507  32.237  1.00 47.34    -0.347 N 
ATOM     46  H   PHE C   6      50.886  24.885  32.608  1.00 47.34     0.163 HD
ATOM     47  O   PRO C   5      53.468  24.718  30.993  1.00 42.20    -0.271 OA
BRANCH  45  48
ATOM     48  CA  PHE C   6      51.496  23.037  32.257  1.00 47.71     0.166 C 
BRANCH  48  49
ATOM     49  C   PHE C   6      50.285  22.558  31.462  1.00 43.76     0.219 C 
ATOM     50  O   PHE C   6      49.359  23.355  31.239  1.00 44.85    -0.287 OA
ENDBRANCH  48  49
BRANCH  48  51
ATOM     51  CB  PHE C   6      51.388  22.568  33.699  1.00 45.10     0.072 C 
BRANCH  51  52
ATOM     52  CG  PHE C   6      51.551  21.105  33.860  1.00 47.89    -0.056 A 
ATOM     53  CD1 PHE C   6      52.760  20.492  33.556  1.00 50.48     0.007 A 
ATOM     54  CE1 PHE C   6      52.925  19.111  33.711  1.00 53.80     0.001 A 
ATOM     55  CZ  PHE C   6      51.873  18.334  34.174  1.00 48.07     0.000 A 
ATOM     56  CE2 PHE C   6      50.666  18.944  34.481  1.00 44.45     0.001 A 
ATOM     57  CD2 PHE C   6      50.499  20.321  34.309  1.00 45.95     0.007 A 
ENDBRANCH  51  52
ENDBRANCH  48  51
ENDBRANCH  45  48
ENDBRANCH  40  44
ENDBRANCH  36  37
BRANCH  36  58
ATOM     58  CB  HIS C   4      57.153  26.274  31.078  1.00 37.41     0.095 C 
BRANCH  58  59
ATOM     59  CG  HIS C   4      57.060  27.117  29.818  1.00 46.77     0.056 A 
ATOM     60  ND1 HIS C   4      57.280  26.622  28.551  1.00 46.89    -0.245 NA
ATOM     61  CE1 HIS C   4      56.999  27.551  27.652  1.00 44.31     0.232 A 
ATOM     62  NE2 HIS C   4      56.594  28.631  28.286  1.00 47.07    -0.252 NA
ATOM     63  CD2 HIS C   4      56.660  28.403  29.639  1.00 43.50     0.145 A 
ENDBRANCH  58  59
ENDBRANCH  36  58
ENDBRANCH   3  36
TORSDOF 21
