REMARK  29 active torsions:
REMARK  status: ('A' for Active; 'I' for Inactive)
REMARK    1  A    between atoms: CA_2  and  C_3 
REMARK    2  A    between atoms: CA_2  and  CB_5 
REMARK       I    between atoms: C_3  and  N_12 
REMARK    3  A    between atoms: CB_5  and  CG_6 
REMARK    4  A    between atoms: CG_6  and  CD_7 
REMARK       I    between atoms: CD_7  and  NE2_9 
REMARK    5  A    between atoms: N_12  and  CA_13 
REMARK    6  A    between atoms: CA_13  and  CB_16 
REMARK    7  A    between atoms: CA_13  and  C_14 
REMARK       I    between atoms: C_14  and  N_25 
REMARK    8  A    between atoms: CB_16  and  CG_17 
REMARK    9  A    between atoms: CG_17  and  CD_18 
REMARK   10  A    between atoms: CD_18  and  CE_19 
REMARK   11  A    between atoms: CE_19  and  NZ_20 
REMARK   12  A    between atoms: N_25  and  CA_26 
REMARK   13  A    between atoms: CA_26  and  C_27 
REMARK   14  A    between atoms: CA_26  and  CB_29 
REMARK       I    between atoms: C_27  and  N_42 
REMARK   15  A    between atoms: CB_29  and  CG_30 
REMARK   16  A    between atoms: CG_30  and  CD_31 
REMARK   17  A    between atoms: CD_31  and  NE_32 
REMARK       I    between atoms: NE_32  and  CZ_33 
REMARK       I    between atoms: CZ_33  and  NH1_34 
REMARK   18  A    between atoms: N_42  and  CA_43 
REMARK   19  A    between atoms: CA_43  and  CB_46 
REMARK   20  A    between atoms: CA_43  and  C_44 
REMARK       I    between atoms: C_44  and  N_50 
REMARK   21  A    between atoms: CB_46  and  OG_47 
REMARK   22  A    between atoms: N_50  and  CA_51 
REMARK   23  A    between atoms: CA_51  and  CB_54 
REMARK   24  A    between atoms: CA_51  and  C_52 
REMARK       I    between atoms: C_52  and  N_62 
REMARK   25  A    between atoms: CB_54  and  CG_55 
REMARK   26  A    between atoms: N_62  and  CA_63 
REMARK   27  A    between atoms: CA_63  and  CB_66 
REMARK   28  A    between atoms: CA_63  and  C_64 
REMARK   29  A    between atoms: CB_66  and  OG_67 
ROOT
ATOM      1  CA  ARG C 843       1.502   5.692   8.136  1.00 48.28     0.176 C 
ENDROOT
BRANCH   1   2
ATOM      2  C   ARG C 843       1.260   4.482   9.032  1.00 51.26     0.241 C 
ATOM      3  N   SER C 844       1.832   3.327   8.652  1.00 48.21    -0.344 N 
ATOM      4  H   SER C 844       2.296   3.244   7.933  1.00 48.21     0.163 HD
ATOM      5  O   ARG C 843       0.558   4.591  10.043  1.00 49.46    -0.271 OA
BRANCH   3   6
ATOM      6  CA  SER C 844       1.720   2.089   9.430  1.00 48.58     0.200 C 
BRANCH   6   7
ATOM      7  CB  SER C 844       1.809   0.865   8.518  1.00 52.82     0.199 C 
BRANCH   7   8
ATOM      8  OG  SER C 844       3.073   0.751   7.881  1.00 64.87    -0.398 OA
ATOM      9  HG  SER C 844       3.080   0.068   7.393  1.00 64.87     0.209 HD
ENDBRANCH   7   8
ENDBRANCH   6   7
BRANCH   6  10
ATOM     10  C   SER C 844       2.806   2.030  10.508  1.00 51.88     0.243 C 
ATOM     11  N   PHE C 845       2.548   1.276  11.592  1.00 48.65    -0.346 N 
ATOM     12  H   PHE C 845       1.799   0.871  11.715  1.00 48.65     0.163 HD
ATOM     13  O   SER C 844       3.853   2.668  10.362  1.00 50.80    -0.271 OA
BRANCH  11  14
ATOM     14  CA  PHE C 845       3.513   1.067  12.673  1.00 48.60     0.180 C 
BRANCH  14  15
ATOM     15  CB  PHE C 845       2.851   1.209  14.066  1.00 50.69     0.073 C 
BRANCH  15  16
ATOM     16  CG  PHE C 845       3.721   1.124  15.311  1.00 53.32    -0.056 A 
ATOM     17  CD2 PHE C 845       3.148   1.080  16.576  1.00 56.28     0.007 A 
ATOM     18  CE2 PHE C 845       3.943   1.001  17.728  1.00 59.52     0.001 A 
ATOM     19  CZ  PHE C 845       5.311   1.006  17.621  1.00 57.95     0.000 A 
ATOM     20  CE1 PHE C 845       5.903   1.064  16.375  1.00 59.50     0.001 A 
ATOM     21  CD1 PHE C 845       5.109   1.140  15.222  1.00 58.05     0.007 A 
ENDBRANCH  15  16
ENDBRANCH  14  15
BRANCH  14  22
ATOM     22  C   PHE C 845       4.148  -0.311  12.453  1.00 51.55     0.241 C 
ATOM     23  O   PHE C 845       3.516  -1.346  12.697  1.00 49.31    -0.271 OA
ATOM     24  N   SER C 846       5.386  -0.304  11.924  1.00 48.84    -0.345 N 
ATOM     25  H   SER C 846       5.801   0.424  11.729  1.00 48.84     0.163 HD
BRANCH  24  26
ATOM     26  CA  SER C 846       6.163  -1.506  11.621  1.00 80.27     0.186 C 
BRANCH  26  27
ATOM     27  CB  SER C 846       7.033  -1.280  10.388  1.00 83.79     0.197 C 
BRANCH  27  28
ATOM     28  OG  SER C 846       7.556  -2.502   9.892  1.00 92.96    -0.398 OA
ATOM     29  HG  SER C 846       8.029  -2.350   9.214  1.00 92.96     0.209 HD
ENDBRANCH  27  28
ENDBRANCH  26  27
BRANCH  26  30
ATOM     30  C   SER C 846       7.028  -1.903  12.809  1.00107.57     0.221 C 
ATOM     31  O   SER C 846       6.897  -3.014  13.317  1.00 73.66    -0.287 OA
ENDBRANCH  26  30
ENDBRANCH  24  26
ENDBRANCH  14  22
ENDBRANCH  11  14
ENDBRANCH   6  10
ENDBRANCH   3   6
ENDBRANCH   1   2
BRANCH   1  32
ATOM     32  CB  ARG C 843       2.495   6.676   8.819  1.00 50.74     0.036 C 
BRANCH  32  33
ATOM     33  CG  ARG C 843       2.819   7.928   7.990  1.00 63.97     0.023 C 
BRANCH  33  34
ATOM     34  CD  ARG C 843       4.259   8.375   8.093  1.00 82.46     0.138 C 
BRANCH  34  35
ATOM     35  NE  ARG C 843       4.352   9.653   8.794  1.00 98.18    -0.227 N 
ATOM     36  HE  ARG C 843       3.951  10.330   8.447  1.00 98.18     0.177 HD
ATOM     37  CZ  ARG C 843       5.013   9.841   9.931  1.00115.63     0.665 C 
ATOM     38  NH2 ARG C 843       5.020  11.031  10.511  1.00101.74    -0.235 N 
ATOM     39  NH1 ARG C 843       5.682   8.840  10.493  1.00105.44    -0.235 N 
ATOM     40 HH21 ARG C 843       4.595  11.687  10.152  1.00101.74     0.174 HD
ATOM     41 HH22 ARG C 843       5.449  11.148  11.247  1.00101.74     0.174 HD
ATOM     42 HH11 ARG C 843       5.689   8.065  10.121  1.00105.44     0.174 HD
ATOM     43 HH12 ARG C 843       6.108   8.967  11.229  1.00105.44     0.174 HD
ENDBRANCH  34  35
ENDBRANCH  33  34
ENDBRANCH  32  33
ENDBRANCH   1  32
BRANCH   1  44
ATOM     44  N   ARG C 843       0.233   6.353   7.802  1.00 47.52    -0.346 N 
ATOM     45  C   LYS C 842      -0.003   6.880   6.592  1.00 51.06     0.241 C 
ATOM     46  O   LYS C 842       0.815   6.843   5.669  1.00 51.08    -0.271 OA
ATOM     47  H   ARG C 843      -0.335   6.369   8.447  1.00 47.52     0.163 HD
BRANCH  45  48
ATOM     48  CA  LYS C 842      -1.348   7.554   6.377  1.00 46.69     0.176 C 
BRANCH  48  49
ATOM     49  CB  LYS C 842      -2.372   6.536   5.842  1.00 47.71     0.035 C 
BRANCH  49  50
ATOM     50  CG  LYS C 842      -3.808   7.032   5.831  1.00 50.03     0.004 C 
BRANCH  50  51
ATOM     51  CD  LYS C 842      -4.724   5.994   5.204  1.00 53.65     0.027 C 
BRANCH  51  52
ATOM     52  CE  LYS C 842      -5.973   6.636   4.658  1.00 52.95     0.229 C 
BRANCH  52  53
ATOM     53  NZ  LYS C 842      -6.904   5.646   4.070  1.00 44.67    -0.079 N 
ATOM     54  HZ3 LYS C 842      -7.101   5.026   4.677  1.00 44.67     0.274 HD
ATOM     55  HZ2 LYS C 842      -6.521   5.259   3.366  1.00 44.67     0.274 HD
ATOM     56  HZ1 LYS C 842      -7.651   6.057   3.813  1.00 44.67     0.274 HD
ENDBRANCH  52  53
ENDBRANCH  51  52
ENDBRANCH  50  51
ENDBRANCH  49  50
ENDBRANCH  48  49
BRANCH  48  57
ATOM     57  N   LYS C 842      -1.189   8.690   5.471  1.00 47.24    -0.346 N 
ATOM     58  H   LYS C 842      -0.761   8.489   4.753  1.00 47.24     0.163 HD
ATOM     59  C   GLN C 841      -1.652   9.926   5.710  1.00 52.93     0.257 C 
ATOM     60  O   GLN C 841      -2.311  10.222   6.711  1.00 51.68    -0.271 OA
BRANCH  59  61
ATOM     61  CA  GLN C 841      -1.374  10.976   4.630  1.00 52.44     0.400 C 
ATOM     62  N   GLN C 841      -2.274  12.117   4.799  1.00 53.67     0.615 N 
BRANCH  61  63
ATOM     63  CB  GLN C 841       0.103  11.429   4.666  1.00 53.85     0.060 C 
BRANCH  63  64
ATOM     64  CG  GLN C 841       1.060  10.600   3.794  1.00 74.06     0.105 C 
BRANCH  64  65
ATOM     65  CD  GLN C 841       0.806  10.692   2.300  1.00 99.82     0.215 C 
ATOM     66  OE1 GLN C 841       0.601  11.774   1.731  1.00 97.42    -0.274 OA
ATOM     67  NE2 GLN C 841       0.863   9.554   1.623  1.00 91.89    -0.370 N 
ATOM     68 2HE2 GLN C 841       0.757   9.556   0.770  1.00 91.89     0.159 HD
ATOM     69 1HE2 GLN C 841       1.006   8.814   2.037  1.00 91.89     0.159 HD
ENDBRANCH  64  65
ENDBRANCH  63  64
ENDBRANCH  61  63
ENDBRANCH  59  61
ENDBRANCH  48  57
ENDBRANCH  45  48
ENDBRANCH   1  44
TORSDOF 29
