REMARK  24 active torsions:
REMARK  status: ('A' for Active; 'I' for Inactive)
REMARK    1  A    between atoms: N_1  and  CA_2 
REMARK    2  A    between atoms: CA_2  and  C_3 
REMARK       I    between atoms: C_3  and  N_9 
REMARK    3  A    between atoms: N_9  and  CA_10 
REMARK    4  A    between atoms: CA_10  and  CB_13 
REMARK    5  A    between atoms: CA_10  and  C_11 
REMARK       I    between atoms: C_11  and  N_26 
REMARK    6  A    between atoms: CB_13  and  CG_14 
REMARK    7  A    between atoms: CG_14  and  CD_15 
REMARK    8  A    between atoms: CD_15  and  NE_16 
REMARK       I    between atoms: NE_16  and  CZ_17 
REMARK       I    between atoms: CZ_17  and  NH1_18 
REMARK    9  A    between atoms: N_26  and  CA_27 
REMARK   10  A    between atoms: CA_27  and  CB_30 
REMARK   11  A    between atoms: CA_27  and  C_28 
REMARK       I    between atoms: C_28  and  N_35 
REMARK   12  A    between atoms: CB_30  and  OG1_31 
REMARK   13  A    between atoms: N_35  and  CA_36 
REMARK   14  A    between atoms: CA_36  and  C_37 
REMARK   15  A    between atoms: CA_36  and  CB_39 
REMARK       I    between atoms: C_37  and  N_48 
REMARK   16  A    between atoms: CB_39  and  CG_40 
REMARK   17  A    between atoms: CG_40  and  CD_41 
REMARK   18  A    between atoms: CD_41  and  CE_42 
REMARK   19  A    between atoms: CE_42  and  NZ_43 
REMARK   20  A    between atoms: N_48  and  CA_49 
REMARK   21  A    between atoms: CA_49  and  CB_52 
REMARK   22  A    between atoms: CA_49  and  C_50 
REMARK   23  A    between atoms: CB_52  and  CG_53 
REMARK   24  A    between atoms: CG_53  and  CD_54 
REMARK       I    between atoms: CD_54  and  NE2_56 
ROOT
ATOM      1  CA  THR D   3      15.840  15.816 147.771  1.00 39.79     0.205 C 
ENDROOT
BRANCH   1   2
ATOM      2  N   THR D   3      14.549  15.599 147.121  1.00 34.46    -0.344 N 
ATOM      3  C   ARG D   2      14.112  14.377 146.818  1.00 39.53     0.241 C 
ATOM      4  O   ARG D   2      14.810  13.369 146.949  1.00 39.08    -0.271 OA
ATOM      5  H   THR D   3      14.109  16.320 146.957  1.00 34.46     0.163 HD
BRANCH   3   6
ATOM      6  CA  ARG D   2      12.684  14.263 146.267  1.00 42.24     0.176 C 
BRANCH   6   7
ATOM      7  CB  ARG D   2      11.742  13.691 147.329  1.00 49.82     0.036 C 
BRANCH   7   8
ATOM      8  CG  ARG D   2      11.382  14.614 148.484  1.00 55.24     0.023 C 
BRANCH   8   9
ATOM      9  CD  ARG D   2      10.160  14.065 149.237  1.00 55.63     0.138 C 
BRANCH   9  10
ATOM     10  NE  ARG D   2      10.519  13.100 150.278  1.00 65.78    -0.227 N 
ATOM     11  HE  ARG D   2      10.593  13.392 151.083  1.00 65.78     0.177 HD
ATOM     12  CZ  ARG D   2      10.740  11.804 150.070  1.00 70.57     0.665 C 
ATOM     13  NH1 ARG D   2      10.649  11.294 148.850  1.00 66.11    -0.235 N 
ATOM     14  NH2 ARG D   2      11.060  11.012 151.086  1.00 74.94    -0.235 N 
ATOM     15 HH11 ARG D   2      10.446  11.801 148.186  1.00 66.11     0.174 HD
ATOM     16 HH12 ARG D   2      10.793  10.456 148.722  1.00 66.11     0.174 HD
ATOM     17 HH22 ARG D   2      11.203  10.175 150.950  1.00 74.94     0.174 HD
ATOM     18 HH21 ARG D   2      11.125  11.336 151.880  1.00 74.94     0.174 HD
ENDBRANCH   9  10
ENDBRANCH   8   9
ENDBRANCH   7   8
ENDBRANCH   6   7
BRANCH   6  19
ATOM     19  N   ARG D   2      12.667  13.375 145.108  1.00 42.84    -0.346 N 
ATOM     20  C   ALA D   1      13.068  13.768 143.910  1.00 44.74     0.248 C 
ATOM     21  O   ALA D   1      13.409  14.923 143.669  1.00 48.31    -0.271 OA
ATOM     22  H   ARG D   2      12.376  12.584 145.276  1.00 42.84     0.163 HD
BRANCH  20  23
ATOM     23  CA  ALA D   1      13.073  12.695 142.820  1.00 45.19     0.270 C 
ATOM     24  CB  ALA D   1      14.367  11.913 142.857  1.00 43.32     0.050 C 
BRANCH  23  25
ATOM     25  N   ALA D   1      12.887  13.293 141.509  1.00 39.75    -0.067 N 
ATOM     26  H1  ALA D   1      12.314  12.802 141.037  1.00 39.75     0.275 HD
ATOM     27  H2  ALA D   1      12.564  14.117 141.602  1.00 39.75     0.275 HD
ATOM     28  H3  ALA D   1      13.668  13.327 141.084  1.00 39.75     0.275 HD
ENDBRANCH  23  25
ENDBRANCH  20  23
ENDBRANCH   6  19
ENDBRANCH   3   6
ENDBRANCH   1   2
BRANCH   1  29
ATOM     29  CB  THR D   3      16.733  16.797 146.978  1.00 46.90     0.146 C 
ATOM     30  CG2 THR D   3      17.153  16.195 145.650  1.00 44.81     0.042 C 
BRANCH  29  31
ATOM     31  OG1 THR D   3      16.013  18.012 146.732  1.00 48.09    -0.393 OA
ATOM     32  HG1 THR D   3      16.500  18.545 146.302  1.00 48.09     0.210 HD
ENDBRANCH  29  31
ENDBRANCH   1  29
BRANCH   1  33
ATOM     33  C   THR D   3      15.643  16.374 149.180  1.00 42.40     0.243 C 
ATOM     34  O   THR D   3      14.576  16.901 149.511  1.00 40.34    -0.271 OA
ATOM     35  N   LYS D   4      16.652  16.329 150.007  1.00 38.45    -0.346 N 
ATOM     36  H   LYS D   4      17.403  15.944 149.843  1.00 38.45     0.163 HD
BRANCH  35  37
ATOM     37  CA  LYS D   4      16.554  16.953 151.303  1.00 37.56     0.176 C 
BRANCH  37  38
ATOM     38  C   LYS D   4      16.408  18.461 151.163  1.00 44.28     0.241 C 
ATOM     39  O   LYS D   4      15.722  19.039 151.918  1.00 49.08    -0.271 OA
ATOM     40  N   GLN D   5      17.101  19.032 150.193  1.00 53.59    -0.347 N 
ATOM     41  H   GLN D   5      17.776  18.606 149.873  1.00 53.59     0.163 HD
BRANCH  40  42
ATOM     42  CA  GLN D   5      16.967  20.336 149.481  1.00 61.39     0.163 C 
BRANCH  42  43
ATOM     43  CB  GLN D   5      15.590  20.621 148.865  1.00 20.00     0.043 C 
BRANCH  43  44
ATOM     44  CG  GLN D   5      15.382  22.109 148.493  1.00 20.00     0.105 C 
BRANCH  44  45
ATOM     45  CD  GLN D   5      15.290  22.429 147.001  1.00 20.00     0.215 C 
ATOM     46  NE2 GLN D   5      14.160  22.995 146.595  1.00 20.00    -0.370 N 
ATOM     47 1HE2 GLN D   5      13.526  23.141 147.157  1.00 20.00     0.159 HD
ATOM     48 2HE2 GLN D   5      14.062  23.215 145.770  1.00 20.00     0.159 HD
ATOM     49  OE1 GLN D   5      16.227  22.199 146.233  1.00 20.00    -0.274 OA
ENDBRANCH  44  45
ENDBRANCH  43  44
ENDBRANCH  42  43
BRANCH  42  50
ATOM     50  C   GLN D   5      17.585  21.620 149.979  1.00 64.61     0.219 C 
ATOM     51  O   GLN D   5      17.753  21.811 151.148  1.00 68.60    -0.287 OA
ENDBRANCH  42  50
ENDBRANCH  40  42
ENDBRANCH  37  38
BRANCH  37  52
ATOM     52  CB  LYS D   4      17.737  16.561 152.161  1.00 33.42     0.035 C 
BRANCH  52  53
ATOM     53  CG  LYS D   4      17.587  16.876 153.576  1.00 40.53     0.004 C 
BRANCH  53  54
ATOM     54  CD  LYS D   4      18.718  16.380 154.308  1.00 50.17     0.027 C 
BRANCH  54  55
ATOM     55  CE  LYS D   4      18.454  15.012 154.870  1.00 57.03     0.229 C 
BRANCH  55  56
ATOM     56  NZ  LYS D   4      19.712  14.499 155.411  1.00 52.11    -0.079 N 
ATOM     57  HZ3 LYS D   4      20.141  15.153 155.836  1.00 52.11     0.274 HD
ATOM     58  HZ2 LYS D   4      20.219  14.195 154.746  1.00 52.11     0.274 HD
ATOM     59  HZ1 LYS D   4      19.542  13.837 155.981  1.00 52.11     0.274 HD
ENDBRANCH  55  56
ENDBRANCH  54  55
ENDBRANCH  53  54
ENDBRANCH  52  53
ENDBRANCH  37  52
ENDBRANCH  35  37
ENDBRANCH   1  33
TORSDOF 24
