REMARK  14 active torsions:
REMARK  status: ('A' for Active; 'I' for Inactive)
REMARK       I    between atoms: C_1  and  N_4 
REMARK    1  A    between atoms: N_4  and  CA_5 
REMARK    2  A    between atoms: CA_5  and  CB_8 
REMARK    3  A    between atoms: CA_5  and  C_6 
REMARK       I    between atoms: C_6  and  N_16 
REMARK    4  A    between atoms: CB_8  and  CG_9 
REMARK    5  A    between atoms: N_16  and  CA_17 
REMARK    6  A    between atoms: CA_17  and  C_18 
REMARK    7  A    between atoms: CA_17  and  CB_20 
REMARK       I    between atoms: C_18  and  N_27 
REMARK    8  A    between atoms: CB_20  and  CG_21 
REMARK    9  A    between atoms: N_27  and  CA_28 
REMARK   10  A    between atoms: CA_28  and  CB_31 
REMARK   11  A    between atoms: CA_28  and  C_29 
REMARK       I    between atoms: C_29  and  N_36 
REMARK   12  A    between atoms: CB_31  and  OG1_32 
REMARK   13  A    between atoms: N_36  and  CA_37 
REMARK   14  A    between atoms: CA_37  and  C_38 
ROOT
ATOM      1  CA  HIS C   2      26.018   2.567  44.230  1.00 11.69     0.182 C 
ENDROOT
BRANCH   1   2
ATOM      2  N   HIS C   2      25.938   2.230  42.809  1.00 10.87    -0.346 N 
ATOM      3  H   HIS C   2      25.336   2.658  42.369  1.00 10.87     0.163 HD
ATOM      4  C   PHE C   1      26.753   1.325  42.280  1.00 11.47     0.241 C 
ATOM      5  O   PHE C   1      27.698   0.816  42.909  1.00 12.97    -0.271 OA
BRANCH   4   6
ATOM      6  CA  PHE C   1      26.492   0.970  40.814  1.00 11.05     0.180 C 
BRANCH   6   7
ATOM      7  CB  PHE C   1      25.671  -0.320  40.719  1.00 10.09     0.073 C 
BRANCH   7   8
ATOM      8  CG  PHE C   1      25.116  -0.576  39.351  1.00  8.73    -0.056 A 
ATOM      9  CD2 PHE C   1      25.835  -1.293  38.423  1.00  8.91     0.007 A 
ATOM     10  CE2 PHE C   1      25.319  -1.513  37.163  1.00  8.44     0.001 A 
ATOM     11  CZ  PHE C   1      24.082  -1.001  36.823  1.00  8.32     0.000 A 
ATOM     12  CE1 PHE C   1      23.352  -0.291  37.751  1.00  8.07     0.001 A 
ATOM     13  CD1 PHE C   1      23.877  -0.070  39.000  1.00  8.33     0.007 A 
ENDBRANCH   7   8
ENDBRANCH   6   7
BRANCH   6  14
ATOM     14  N   PHE C   1      27.733   0.824  40.086  1.00 11.54    -0.348 N 
ATOM     15  H   PHE C   1      27.932   0.005  39.917  1.00 11.54     0.163 HD
HETATM   16  C   ACE C   0      28.497   1.837  39.710  1.00 13.21     0.214 C 
HETATM   17  CH3 ACE C   0      29.852   1.541  39.135  1.00 13.47     0.117 C 
HETATM   18  O   ACE C   0      28.137   2.962  40.054  1.00 14.75    -0.274 OA
ENDBRANCH   6  14
ENDBRANCH   4   6
ENDBRANCH   1   2
BRANCH   1  19
ATOM     19  C   HIS C   2      24.619   2.606  44.781  1.00 11.19     0.241 C 
ATOM     20  N   THR C   3      24.483   2.299  46.064  1.00 11.67    -0.344 N 
ATOM     21  H   THR C   3      25.126   2.045  46.576  1.00 11.67     0.163 HD
ATOM     22  O   HIS C   2      23.673   2.953  44.079  1.00 11.10    -0.271 OA
BRANCH  20  23
ATOM     23  CA  THR C   3      23.186   2.378  46.703  1.00 11.71     0.205 C 
BRANCH  23  24
ATOM     24  CB  THR C   3      23.235   1.907  48.181  1.00 13.34     0.146 C 
ATOM     25  CG2 THR C   3      24.086   2.817  49.032  1.00 14.42     0.042 C 
BRANCH  24  26
ATOM     26  OG1 THR C   3      21.908   1.898  48.699  1.00 13.01    -0.393 OA
ATOM     27  HG1 THR C   3      21.641   2.688  48.799  1.00 13.01     0.210 HD
ENDBRANCH  24  26
ENDBRANCH  23  24
BRANCH  23  28
ATOM     28  C   THR C   3      22.616   3.800  46.586  1.00 11.33     0.243 C 
ATOM     29  N   ALA C   4      21.299   3.903  46.420  1.00 10.31    -0.346 N 
ATOM     30  H   ALA C   4      20.775   3.240  46.261  1.00 10.31     0.163 HD
ATOM     31  O   THR C   3      23.358   4.789  46.645  1.00 11.88    -0.271 OA
BRANCH  29  32
ATOM     32  CA  ALA C   4      20.640   5.201  46.502  1.00 10.35     0.176 C 
ATOM     33  CB  ALA C   4      19.367   5.217  45.643  1.00 10.31     0.042 C 
BRANCH  32  34
ATOM     34  C   ALA C   4      20.329   5.578  47.973  1.00 10.99     0.284 C 
ATOM     35  O   ALA C   4      19.887   6.686  48.256  0.79 11.43    -0.267 OA
HETATM   36  N   NH2 C   5      20.556   4.649  48.896  0.91 10.97    -0.106 N 
ENDBRANCH  32  34
ENDBRANCH  29  32
ENDBRANCH  23  28
ENDBRANCH  20  23
ENDBRANCH   1  19
BRANCH   1  37
ATOM     37  CB  HIS C   2      26.624   3.944  44.458  1.00 14.08     0.095 C 
BRANCH  37  38
ATOM     38  CG  HIS C   2      27.998   4.098  43.912  1.00 15.42     0.056 A 
ATOM     39  CD2 HIS C   2      28.429   4.715  42.792  1.00 15.59     0.145 A 
ATOM     40  NE2 HIS C   2      29.795   4.569  42.747  1.00 17.02    -0.252 NA
ATOM     41  CE1 HIS C   2      30.187   3.889  43.808  1.00 16.99     0.232 A 
ATOM     42  ND1 HIS C   2      29.121   3.589  44.528  0.48 15.92    -0.245 NA
ENDBRANCH  37  38
ENDBRANCH   1  37
TORSDOF 14
