REMARK  29 active torsions:
REMARK  status: ('A' for Active; 'I' for Inactive)
REMARK    1  A    between atoms: CA_2  and  CB_5 
REMARK    2  A    between atoms: CA_2  and  C_3 
REMARK       I    between atoms: C_3  and  N_13 
REMARK    3  A    between atoms: CB_5  and  CG_6 
REMARK    4  A    between atoms: CG_6  and  CD_7 
REMARK    5  A    between atoms: CD_7  and  CE_8 
REMARK    6  A    between atoms: CE_8  and  NZ_9 
REMARK    7  A    between atoms: N_13  and  CA_14 
REMARK    8  A    between atoms: CA_14  and  CB_17 
REMARK    9  A    between atoms: CA_14  and  C_15 
REMARK       I    between atoms: C_15  and  N_26 
REMARK   10  A    between atoms: CB_17  and  CG_18 
REMARK   11  A    between atoms: CG_18  and  CD_19 
REMARK   12  A    between atoms: CD_19  and  CE_20 
REMARK   13  A    between atoms: CE_20  and  NZ_21 
REMARK   14  A    between atoms: N_26  and  CA_27 
REMARK   15  A    between atoms: CA_27  and  CB_30 
REMARK   16  A    between atoms: CA_27  and  C_28 
REMARK       I    between atoms: C_28  and  N_43 
REMARK   17  A    between atoms: CB_30  and  CG_31 
REMARK   18  A    between atoms: CG_31  and  CD_32 
REMARK   19  A    between atoms: CD_32  and  NE_33 
REMARK       I    between atoms: NE_33  and  CZ_34 
REMARK       I    between atoms: CZ_34  and  NH1_35 
REMARK   20  A    between atoms: N_43  and  CA_44 
REMARK   21  A    between atoms: CA_44  and  CB_47 
REMARK   22  A    between atoms: CA_44  and  C_45 
REMARK       I    between atoms: C_45  and  N_56 
REMARK   23  A    between atoms: CB_47  and  CG_48 
REMARK   24  A    between atoms: CG_48  and  CD_49 
REMARK   25  A    between atoms: CD_49  and  CE_50 
REMARK   26  A    between atoms: CE_50  and  NZ_51 
REMARK   27  A    between atoms: N_56  and  CA_57 
REMARK   28  A    between atoms: CA_57  and  C_58 
REMARK   29  A    between atoms: CA_57  and  CB_60 
ROOT
ATOM      1  CA  ARG C 130      23.887   5.117  15.462  1.00 44.25     0.176 C 
ENDROOT
BRANCH   1   2
ATOM      2  N   ARG C 130      22.569   4.531  15.299  1.00 44.77    -0.346 N 
ATOM      3  C   LYS C 129      21.465   5.266  15.301  1.00 47.82     0.241 C 
ATOM      4  O   LYS C 129      21.475   6.497  15.362  1.00 51.43    -0.271 OA
ATOM      5  H   ARG C 130      22.573   3.676  15.203  1.00 44.77     0.163 HD
BRANCH   3   6
ATOM      6  CA  LYS C 129      20.153   4.492  15.236  1.00 47.52     0.176 C 
BRANCH   6   7
ATOM      7  CB  LYS C 129      19.441   4.779  13.923  1.00 47.19     0.035 C 
BRANCH   7   8
ATOM      8  CG  LYS C 129      18.209   3.942  13.706  1.00 46.82     0.004 C 
BRANCH   8   9
ATOM      9  CD  LYS C 129      18.529   2.586  13.124  1.00 42.25     0.027 C 
BRANCH   9  10
ATOM     10  CE  LYS C 129      17.281   1.986  12.505  1.00 38.25     0.229 C 
BRANCH  10  11
ATOM     11  NZ  LYS C 129      17.495   0.650  11.863  1.00 36.45    -0.079 N 
ATOM     12  HZ3 LYS C 129      17.732   0.057  12.483  1.00 36.45     0.274 HD
ATOM     13  HZ2 LYS C 129      18.139   0.714  11.252  1.00 36.45     0.274 HD
ATOM     14  HZ1 LYS C 129      16.741   0.384  11.472  1.00 36.45     0.274 HD
ENDBRANCH  10  11
ENDBRANCH   9  10
ENDBRANCH   8   9
ENDBRANCH   7   8
ENDBRANCH   6   7
BRANCH   6  15
ATOM     15  N   LYS C 129      19.320   4.850  16.379  1.00 50.72    -0.346 N 
ATOM     16  H   LYS C 129      18.622   5.313  16.182  1.00 50.72     0.163 HD
ATOM     17  C   LYS C 128      19.644   4.473  17.617  1.00 53.52     0.257 C 
ATOM     18  O   LYS C 128      20.583   3.697  17.875  1.00 51.22    -0.271 OA
BRANCH  17  19
ATOM     19  CA  LYS C 128      18.764   5.025  18.745  1.00 56.35     0.400 C 
ATOM     20  N   LYS C 128      18.286   6.381  18.474  1.00 59.98     0.615 N 
BRANCH  19  21
ATOM     21  CB  LYS C 128      17.590   4.084  18.958  1.00 54.38     0.051 C 
BRANCH  21  22
ATOM     22  CG  LYS C 128      16.750   4.459  20.143  1.00 63.27     0.004 C 
BRANCH  22  23
ATOM     23  CD  LYS C 128      15.739   3.394  20.480  1.00 66.98     0.027 C 
BRANCH  23  24
ATOM     24  CE  LYS C 128      14.658   3.256  19.413  1.00 66.03     0.229 C 
BRANCH  24  25
ATOM     25  NZ  LYS C 128      13.568   2.352  19.889  1.00 67.41    -0.079 N 
ATOM     26  HZ3 LYS C 128      12.778   2.701  19.674  1.00 67.41     0.274 HD
ATOM     27  HZ2 LYS C 128      13.622   2.262  20.773  1.00 67.41     0.274 HD
ATOM     28  HZ1 LYS C 128      13.654   1.554  19.504  1.00 67.41     0.274 HD
ENDBRANCH  24  25
ENDBRANCH  23  24
ENDBRANCH  22  23
ENDBRANCH  21  22
ENDBRANCH  19  21
ENDBRANCH  17  19
ENDBRANCH   6  15
ENDBRANCH   3   6
ENDBRANCH   1   2
BRANCH   1  29
ATOM     29  CB  ARG C 130      24.549   4.532  16.705  1.00 44.07     0.036 C 
BRANCH  29  30
ATOM     30  CG  ARG C 130      23.816   4.834  17.998  1.00 48.13     0.023 C 
BRANCH  30  31
ATOM     31  CD  ARG C 130      24.004   3.694  18.986  1.00 53.98     0.138 C 
BRANCH  31  32
ATOM     32  NE  ARG C 130      25.404   3.540  19.333  1.00 57.03    -0.227 N 
ATOM     33  CZ  ARG C 130      26.042   2.381  19.439  1.00 53.36     0.665 C 
ATOM     34  NH1 ARG C 130      25.415   1.229  19.241  1.00 46.68    -0.235 N 
ATOM     35  NH2 ARG C 130      27.328   2.381  19.757  1.00 54.86    -0.235 N 
ATOM     36 HH11 ARG C 130      24.579   1.224  19.040  1.00 46.68     0.174 HD
ATOM     37 HH12 ARG C 130      25.845   0.488  19.314  1.00 46.68     0.174 HD
ATOM     38 HH21 ARG C 130      27.738   3.125  19.892  1.00 54.86     0.174 HD
ATOM     39 HH22 ARG C 130      27.753   1.637  19.829  1.00 54.86     0.174 HD
ATOM     40  HE  ARG C 130      25.856   4.256  19.482  1.00 57.03     0.177 HD
ENDBRANCH  31  32
ENDBRANCH  30  31
ENDBRANCH  29  30
ENDBRANCH   1  29
BRANCH   1  41
ATOM     41  C   ARG C 130      24.748   4.801  14.263  1.00 43.16     0.241 C 
ATOM     42  N   LYS C 131      25.092   5.838  13.495  1.00 46.51    -0.346 N 
ATOM     43  H   LYS C 131      24.823   6.641  13.645  1.00 46.51     0.163 HD
ATOM     44  O   ARG C 130      25.104   3.643  14.063  1.00 41.50    -0.271 OA
BRANCH  42  45
ATOM     45  CA  LYS C 131      25.959   5.723  12.320  1.00 53.22     0.176 C 
BRANCH  45  46
ATOM     46  CB  LYS C 131      25.902   7.006  11.477  1.00 55.01     0.035 C 
BRANCH  46  47
ATOM     47  CG  LYS C 131      24.523   7.392  10.979  1.00 52.38     0.004 C 
BRANCH  47  48
ATOM     48  CD  LYS C 131      24.234   6.792   9.620  1.00 48.84     0.027 C 
BRANCH  48  49
ATOM     49  CE  LYS C 131      22.828   7.095   9.177  1.00 46.73     0.229 C 
BRANCH  49  50
ATOM     50  NZ  LYS C 131      22.486   6.220   8.036  1.00 43.41    -0.079 N 
ATOM     51  HZ1 LYS C 131      21.616   6.287   7.861  1.00 43.41     0.274 HD
ATOM     52  HZ3 LYS C 131      22.683   5.376   8.239  1.00 43.41     0.274 HD
ATOM     53  HZ2 LYS C 131      22.953   6.469   7.320  1.00 43.41     0.274 HD
ENDBRANCH  49  50
ENDBRANCH  48  49
ENDBRANCH  47  48
ENDBRANCH  46  47
ENDBRANCH  45  46
BRANCH  45  54
ATOM     54  C   LYS C 131      27.404   5.500  12.729  1.00 59.91     0.241 C 
ATOM     55  N   VAL C 132      28.226   5.169  11.735  1.00 72.80    -0.347 N 
ATOM     56  H   VAL C 132      27.937   4.950  10.955  1.00 72.80     0.163 HD
ATOM     57  O   LYS C 131      27.743   5.616  13.901  1.00 55.62    -0.271 OA
BRANCH  55  58
ATOM     58  CA  VAL C 132      29.689   5.134  11.830  1.00 46.38     0.166 C 
BRANCH  58  59
ATOM     59  C   VAL C 132      30.237   3.710  11.729  1.00 55.18     0.219 C 
ATOM     60  O   VAL C 132      30.687   3.295  10.651  1.00 55.70    -0.287 OA
ENDBRANCH  58  59
BRANCH  58  61
ATOM     61  CB  VAL C 132      30.234   5.899  13.070  1.00 53.16     0.008 C 
ATOM     62  CG2 VAL C 132      30.353   7.366  12.731  1.00 49.68     0.012 C 
ATOM     63  CG1 VAL C 132      31.557   5.332  13.564  1.00 55.70     0.012 C 
ENDBRANCH  58  61
ENDBRANCH  55  58
ENDBRANCH  45  54
ENDBRANCH  42  45
ENDBRANCH   1  41
TORSDOF 29
