REMARK  30 active torsions:
REMARK  status: ('A' for Active; 'I' for Inactive)
REMARK    1  A    between atoms: CA_2  and  C_3 
REMARK    2  A    between atoms: CA_2  and  CB_5 
REMARK       I    between atoms: C_3  and  N_9 
REMARK    3  A    between atoms: CB_5  and  CG_6 
REMARK    4  A    between atoms: N_9  and  CA_10 
REMARK    5  A    between atoms: CA_10  and  C_11 
REMARK       I    between atoms: C_11  and  N_14 
REMARK    6  A    between atoms: N_14  and  CA_15 
REMARK    7  A    between atoms: CA_15  and  CB_18 
REMARK    8  A    between atoms: CA_15  and  C_16 
REMARK       I    between atoms: C_16  and  N_27 
REMARK    9  A    between atoms: CB_18  and  CG_19 
REMARK   10  A    between atoms: CG_19  and  CD_20 
REMARK   11  A    between atoms: CD_20  and  CE_21 
REMARK   12  A    between atoms: CE_21  and  NZ_22 
REMARK   13  A    between atoms: N_27  and  CA_28 
REMARK   14  A    between atoms: CA_28  and  C_29 
REMARK   15  A    between atoms: CA_28  and  CB_31 
REMARK       I    between atoms: C_29  and  N_44 
REMARK   16  A    between atoms: CB_31  and  CG_32 
REMARK   17  A    between atoms: CG_32  and  CD_33 
REMARK   18  A    between atoms: CD_33  and  NE_34 
REMARK       I    between atoms: NE_34  and  CZ_35 
REMARK       I    between atoms: CZ_35  and  NH1_36 
REMARK   19  A    between atoms: N_44  and  CA_45 
REMARK   20  A    between atoms: CA_45  and  CB_48 
REMARK   21  A    between atoms: CA_45  and  C_46 
REMARK       I    between atoms: C_46  and  N_57 
REMARK   22  A    between atoms: CB_48  and  CG_49 
REMARK   23  A    between atoms: CG_49  and  CD_50 
REMARK   24  A    between atoms: CD_50  and  CE_51 
REMARK   25  A    between atoms: CE_51  and  NZ_52 
REMARK   26  A    between atoms: N_57  and  CA_58 
REMARK   27  A    between atoms: CA_58  and  CB_61 
REMARK   28  A    between atoms: CA_58  and  C_59 
REMARK   29  A    between atoms: CB_61  and  CG_62 
REMARK   30  A    between atoms: CZ_67  and  OH_68 
ROOT
ATOM      1  CA  ARG B   9       1.338   5.362   7.944  1.00 39.43     0.176 C 
ENDROOT
BRANCH   1   2
ATOM      2  C   ARG B   9       1.030   4.131   8.774  1.00 41.90     0.241 C 
ATOM      3  N   LYS B  10       1.655   3.010   8.414  1.00 39.13    -0.346 N 
ATOM      4  H   LYS B  10       2.155   2.949   7.717  1.00 39.13     0.163 HD
ATOM      5  O   ARG B   9       0.244   4.195   9.729  1.00 39.79    -0.271 OA
BRANCH   3   6
ATOM      6  CA  LYS B  10       1.547   1.769   9.178  1.00 38.99     0.176 C 
BRANCH   6   7
ATOM      7  CB  LYS B  10       1.549   0.528   8.256  1.00 41.38     0.035 C 
BRANCH   7   8
ATOM      8  CG  LYS B  10       2.837   0.284   7.455  1.00 61.81     0.004 C 
BRANCH   8   9
ATOM      9  CD  LYS B  10       2.738  -0.941   6.522  1.00 75.86     0.027 C 
BRANCH   9  10
ATOM     10  CE  LYS B  10       2.816  -2.280   7.234  1.00 87.18     0.229 C 
BRANCH  10  11
ATOM     11  NZ  LYS B  10       3.077  -3.397   6.287  1.00 91.96    -0.079 N 
ATOM     12  HZ1 LYS B  10       2.931  -4.174   6.696  1.00 91.96     0.274 HD
ATOM     13  HZ2 LYS B  10       2.534  -3.325   5.586  1.00 91.96     0.274 HD
ATOM     14  HZ3 LYS B  10       3.923  -3.362   6.012  1.00 91.96     0.274 HD
ENDBRANCH  10  11
ENDBRANCH   9  10
ENDBRANCH   8   9
ENDBRANCH   7   8
ENDBRANCH   6   7
BRANCH   6  15
ATOM     15  C   LYS B  10       2.698   1.753  10.212  1.00 41.93     0.241 C 
ATOM     16  N   TYR B  11       2.512   1.043  11.343  1.00 37.73    -0.347 N 
ATOM     17  H   TYR B  11       1.782   0.617  11.500  1.00 37.73     0.163 HD
ATOM     18  O   LYS B  10       3.716   2.416   9.994  1.00 40.97    -0.271 OA
BRANCH  16  19
ATOM     19  CA  TYR B  11       3.493   0.903  12.424  1.00 60.51     0.166 C 
BRANCH  19  20
ATOM     20  CB  TYR B  11       2.765   1.009  13.785  1.00 61.89     0.072 C 
BRANCH  20  21
ATOM     21  CG  TYR B  11       3.576   0.909  15.069  1.00 64.48    -0.056 A 
ATOM     22  CD2 TYR B  11       2.949   0.741  16.298  1.00 66.36     0.010 A 
ATOM     23  CE2 TYR B  11       3.679   0.642  17.481  1.00 66.48     0.037 A 
ATOM     24  CZ  TYR B  11       5.056   0.750  17.451  1.00 73.62     0.065 A 
ATOM     25  CE1 TYR B  11       5.707   0.935  16.240  1.00 67.05     0.037 A 
ATOM     26  CD1 TYR B  11       4.964   1.033  15.060  1.00 65.84     0.010 A 
BRANCH  24  27
ATOM     27  OH  TYR B  11       5.756   0.659  18.630  1.00 74.96    -0.361 OA
ATOM     28  HH  TYR B  11       5.219   0.550  19.267  1.00 74.96     0.217 HD
ENDBRANCH  24  27
ENDBRANCH  20  21
ENDBRANCH  19  20
BRANCH  19  29
ATOM     29  C   TYR B  11       4.242  -0.429  12.277  1.00 76.68     0.219 C 
ATOM     30  O   TYR B  11       3.641  -1.448  11.941  1.00 42.66    -0.287 OA
ENDBRANCH  19  29
ENDBRANCH  16  19
ENDBRANCH   6  15
ENDBRANCH   3   6
ENDBRANCH   1   2
BRANCH   1  31
ATOM     31  CB  ARG B   9       2.344   6.262   8.725  1.00 41.96     0.036 C 
BRANCH  31  32
ATOM     32  CG  ARG B   9       2.444   7.743   8.316  1.00 54.96     0.023 C 
BRANCH  32  33
ATOM     33  CD  ARG B   9       3.446   8.001   7.206  1.00 74.30     0.138 C 
BRANCH  33  34
ATOM     34  NE  ARG B   9       3.640   9.435   6.965  1.00 92.04    -0.227 N 
ATOM     35  HE  ARG B   9       3.161   9.806   6.355  1.00 92.04     0.177 HD
ATOM     36  CZ  ARG B   9       4.506  10.203   7.625  1.00114.26     0.665 C 
ATOM     37  NH2 ARG B   9       4.616  11.493   7.332  1.00103.12    -0.235 N 
ATOM     38  NH1 ARG B   9       5.264   9.689   8.588  1.00104.54    -0.235 N 
ATOM     39 HH21 ARG B   9       4.127  11.837   6.714  1.00103.12     0.174 HD
ATOM     40 HH22 ARG B   9       5.176  11.985   7.761  1.00103.12     0.174 HD
ATOM     41 HH11 ARG B   9       5.197   8.855   8.789  1.00104.54     0.174 HD
ATOM     42 HH12 ARG B   9       5.821  10.190   9.010  1.00104.54     0.174 HD
ENDBRANCH  33  34
ENDBRANCH  32  33
ENDBRANCH  31  32
ENDBRANCH   1  31
BRANCH   1  43
ATOM     43  N   ARG B   9       0.101   6.070   7.601  1.00 39.07    -0.346 N 
ATOM     44  H   ARG B   9      -0.482   6.071   8.234  1.00 39.07     0.163 HD
ATOM     45  C   LYS B   8      -0.105   6.659   6.417  1.00 42.99     0.241 C 
ATOM     46  O   LYS B   8       0.742   6.683   5.516  1.00 42.25    -0.271 OA
BRANCH  45  47
ATOM     47  CA  LYS B   8      -1.449   7.349   6.225  1.00 40.35     0.176 C 
BRANCH  47  48
ATOM     48  N   LYS B   8      -1.307   8.464   5.293  1.00 42.07    -0.346 N 
ATOM     49  H   LYS B   8      -0.873   8.245   4.584  1.00 42.07     0.163 HD
ATOM     50  C   GLY B   7      -1.778   9.697   5.475  1.00 50.14     0.236 C 
ATOM     51  O   GLY B   7      -2.368  10.063   6.497  1.00 49.17    -0.272 OA
BRANCH  50  52
ATOM     52  CA  GLY B   7      -1.527  10.656   4.336  1.00 52.80     0.225 C 
BRANCH  52  53
ATOM     53  N   GLY B   7      -0.317  11.428   4.575  1.00 55.58    -0.350 N 
ATOM     54  C   LEU B   6       0.816  11.320   3.887  1.00 62.88     0.257 C 
ATOM     55  O   LEU B   6       0.979  10.536   2.945  1.00 62.93    -0.271 OA
ATOM     56  H   GLY B   7      -0.403  11.983   5.227  1.00 55.58     0.163 HD
BRANCH  54  57
ATOM     57  CA  LEU B   6       1.930  12.289   4.343  1.00 62.75     0.400 C 
ATOM     58  N   LEU B   6       2.097  12.197   5.794  1.00 63.15     0.615 N 
BRANCH  57  59
ATOM     59  CB  LEU B   6       3.266  12.042   3.598  1.00 63.26     0.055 C 
BRANCH  59  60
ATOM     60  CG  LEU B   6       4.407  13.060   3.844  1.00 68.65    -0.020 C 
ATOM     61  CD1 LEU B   6       5.746  12.507   3.373  1.00 69.18     0.009 C 
ATOM     62  CD2 LEU B   6       4.121  14.418   3.187  1.00 70.70     0.009 C 
ENDBRANCH  59  60
ENDBRANCH  57  59
ENDBRANCH  54  57
ENDBRANCH  52  53
ENDBRANCH  50  52
ENDBRANCH  47  48
BRANCH  47  63
ATOM     63  CB  LYS B   8      -2.495   6.337   5.717  1.00 41.14     0.035 C 
BRANCH  63  64
ATOM     64  CG  LYS B   8      -3.916   6.880   5.640  1.00 42.09     0.004 C 
BRANCH  64  65
ATOM     65  CD  LYS B   8      -4.820   5.909   4.902  1.00 43.68     0.027 C 
BRANCH  65  66
ATOM     66  CE  LYS B   8      -6.181   6.512   4.664  1.00 41.10     0.229 C 
BRANCH  66  67
ATOM     67  NZ  LYS B   8      -7.063   5.636   3.847  1.00 37.84    -0.079 N 
ATOM     68  HZ3 LYS B   8      -7.401   4.993   4.361  1.00 37.84     0.274 HD
ATOM     69  HZ2 LYS B   8      -6.590   5.270   3.188  1.00 37.84     0.274 HD
ATOM     70  HZ1 LYS B   8      -7.726   6.120   3.503  1.00 37.84     0.274 HD
ENDBRANCH  66  67
ENDBRANCH  65  66
ENDBRANCH  64  65
ENDBRANCH  63  64
ENDBRANCH  47  63
ENDBRANCH  45  47
ENDBRANCH   1  43
TORSDOF 30
