REMARK  11 active torsions:
REMARK  status: ('A' for Active; 'I' for Inactive)
REMARK    1  A    between atoms: CA_2  and  C_3 
REMARK       I    between atoms: C_3  and  N_8 
REMARK    2  A    between atoms: N_8  and  CA_9 
REMARK    3  A    between atoms: CA_9  and  C_10 
REMARK       I    between atoms: C_10  and  N_13 
REMARK    4  A    between atoms: CA_14  and  C_15 
REMARK       I    between atoms: C_15  and  N_20 
REMARK    5  A    between atoms: N_20  and  CA_21 
REMARK    6  A    between atoms: CA_21  and  C_22 
REMARK    7  A    between atoms: CA_21  and  CB_24 
REMARK       I    between atoms: C_22  and  N_29 
REMARK    8  A    between atoms: CB_24  and  CG_25 
REMARK    9  A    between atoms: CA_30  and  C_31 
REMARK       I    between atoms: C_31  and  N_36 
REMARK   10  A    between atoms: N_36  and  CA_37 
REMARK   11  A    between atoms: CA_37  and  C_38 
ROOT
ATOM      1  C   PRO B  88      16.534   3.031  17.515  1.00 31.41     0.241 C 
ATOM      2  O   PRO B  88      16.891   4.073  16.952  1.00 30.85    -0.271 OA
ATOM      3  N   LEU B  89      17.138   2.526  18.586  1.00 29.89    -0.346 N 
ATOM      4  H   LEU B  89      16.901   1.794  18.971  1.00 29.89     0.163 HD
ENDROOT
BRANCH   3   5
ATOM      5  CA  LEU B  89      18.276   3.191  19.205  1.00 30.22     0.177 C 
BRANCH   5   6
ATOM      6  C   LEU B  89      19.493   3.115  18.283  1.00 29.45     0.243 C 
ATOM      7  O   LEU B  89      19.699   2.105  17.616  1.00 27.07    -0.271 OA
ATOM      8  N   PRO B  90      20.306   4.183  18.251  1.00 31.27    -0.337 N 
ATOM      9  CD  PRO B  90      20.102   5.471  18.947  1.00 32.01     0.127 C 
ATOM     10  CA  PRO B  90      21.502   4.214  17.387  1.00 32.16     0.179 C 
ATOM     11  CG  PRO B  90      21.359   6.237  18.637  1.00 32.17     0.022 C 
ATOM     12  CB  PRO B  90      21.840   5.701  17.327  1.00 32.36     0.037 C 
BRANCH  10  13
ATOM     13  C   PRO B  90      22.697   3.411  17.921  1.00 32.74     0.241 C 
ATOM     14  N   ALA B  91      22.586   2.870  19.138  1.00 33.34    -0.345 N 
ATOM     15  H   ALA B  91      21.903   2.983  19.648  1.00 33.34     0.163 HD
ATOM     16  O   PRO B  90      23.703   3.292  17.220  1.00 32.61    -0.271 OA
BRANCH  14  17
ATOM     17  CA  ALA B  91      23.637   2.020  19.723  1.00 34.79     0.181 C 
ATOM     18  CB  ALA B  91      24.707   2.884  20.424  1.00 34.67     0.043 C 
BRANCH  17  19
ATOM     19  C   ALA B  91      23.039   1.006  20.703  1.00 35.98     0.196 C 
ATOM     20  OXT ALA B  91      23.671  -0.005  21.053  1.00 36.84    -0.646 OA
ATOM     21  O   ALA B  91      21.899   1.174  21.150  1.00 37.03    -0.646 OA
ENDBRANCH  17  19
ENDBRANCH  14  17
ENDBRANCH  10  13
ENDBRANCH   5   6
BRANCH   5  22
ATOM     22  CB  LEU B  89      18.617   2.548  20.552  1.00 30.14     0.038 C 
BRANCH  22  23
ATOM     23  CG  LEU B  89      17.545   2.561  21.645  1.00 30.45    -0.020 C 
ATOM     24  CD1 LEU B  89      18.007   1.685  22.807  1.00 30.38     0.009 C 
ATOM     25  CD2 LEU B  89      17.242   3.992  22.094  1.00 30.79     0.009 C 
ENDBRANCH  22  23
ENDBRANCH   5  22
ENDBRANCH   3   5
BRANCH   1  26
ATOM     26  CA  PRO B  88      15.321   2.263  17.005  1.00 32.64     0.179 C 
ATOM     27  CB  PRO B  88      15.682   1.414  15.768  1.00 32.64     0.037 C 
ATOM     28  CG  PRO B  88      15.098   2.150  14.595  1.00 32.93     0.022 C 
ATOM     29  CD  PRO B  88      13.862   2.806  15.149  1.00 33.68     0.127 C 
ATOM     30  N   PRO B  88      14.271   3.166  16.518  1.00 34.22    -0.337 N 
ATOM     31  C   GLY B  87      13.878   4.185  17.335  1.00 37.83     0.238 C 
ATOM     32  O   GLY B  87      14.389   4.392  18.440  1.00 36.70    -0.272 OA
BRANCH  31  33
ATOM     33  CA  GLY B  87      12.764   5.106  16.850  1.00 40.95     0.225 C 
BRANCH  33  34
ATOM     34  N   GLY B  87      12.234   5.967  17.930  1.00 44.01    -0.350 N 
ATOM     35  H   GLY B  87      11.527   5.663  18.314  1.00 44.01     0.163 HD
ATOM     36  C   PRO B  86      12.827   7.118  18.260  1.00 46.81     0.254 C 
ATOM     37  O   PRO B  86      13.847   7.519  17.704  1.00 48.58    -0.271 OA
BRANCH  36  38
ATOM     38  CA  PRO B  86      12.228   7.967  19.394  1.00 48.28     0.352 C 
ATOM     39  N   PRO B  86      10.780   7.838  19.621  1.00 49.47     0.318 N 
ATOM     40  CD  PRO B  86      10.459   7.710  21.052  1.00 50.15     0.315 C 
ATOM     41  CG  PRO B  86      11.705   7.101  21.616  1.00 49.89     0.035 C 
ATOM     42  CB  PRO B  86      12.849   7.565  20.745  1.00 49.17     0.050 C 
ENDBRANCH  36  38
ENDBRANCH  33  34
ENDBRANCH  31  33
ENDBRANCH   1  26
TORSDOF 11
