REMARK  22 active torsions:
REMARK  status: ('A' for Active; 'I' for Inactive)
REMARK    1  A    between atoms: CA_2  and  C_3 
REMARK       I    between atoms: C_3  and  N_8 
REMARK    2  A    between atoms: CA_9  and  C_10 
REMARK       I    between atoms: C_10  and  N_15 
REMARK    3  A    between atoms: N_15  and  CA_16 
REMARK    4  A    between atoms: CA_16  and  C_17 
REMARK    5  A    between atoms: CA_16  and  CB_19 
REMARK       I    between atoms: C_17  and  N_32 
REMARK    6  A    between atoms: CB_19  and  CG_20 
REMARK    7  A    between atoms: CG_20  and  CD_21 
REMARK    8  A    between atoms: CD_21  and  NE_22 
REMARK       I    between atoms: NE_22  and  CZ_23 
REMARK       I    between atoms: CZ_23  and  NH1_24 
REMARK    9  A    between atoms: CA_33  and  C_34 
REMARK       I    between atoms: C_34  and  N_39 
REMARK   10  A    between atoms: N_39  and  CA_40 
REMARK   11  A    between atoms: CA_40  and  CB_43 
REMARK   12  A    between atoms: CA_40  and  C_41 
REMARK       I    between atoms: C_41  and  N_48 
REMARK   13  A    between atoms: CB_43  and  CG1_44 
REMARK   14  A    between atoms: N_48  and  CA_49 
REMARK   15  A    between atoms: CA_49  and  C_50 
REMARK   16  A    between atoms: CA_49  and  CB_52 
REMARK       I    between atoms: C_50  and  N_62 
REMARK   17  A    between atoms: CB_52  and  CG_53 
REMARK   18  A    between atoms: CZ_58  and  OH_59 
REMARK   19  A    between atoms: N_62  and  CA_63 
REMARK   20  A    between atoms: CA_63  and  CB_66 
REMARK   21  A    between atoms: CA_63  and  C_64 
REMARK   22  A    between atoms: CB_66  and  CG_67 
REMARK       I    between atoms: CG_67  and  ND2_69 
ROOT
ATOM      1  C   ARG B  14      -9.840 -28.898  -9.443  1.00 32.92     0.243 C 
ATOM      2  O   ARG B  14      -9.065 -29.856  -9.447  1.00 37.82    -0.271 OA
ATOM      3  N   PRO B  15     -10.284 -28.313 -10.559  1.00 31.88    -0.337 N 
ATOM      4  CA  PRO B  15      -9.884 -28.832 -11.870  1.00 30.79     0.179 C 
ATOM      5  CB  PRO B  15     -10.655 -27.955 -12.835  1.00 31.22     0.037 C 
ATOM      6  CG  PRO B  15     -11.881 -27.592 -12.059  1.00 29.82     0.022 C 
ATOM      7  CD  PRO B  15     -11.368 -27.324 -10.681  1.00 31.43     0.127 C 
ENDROOT
BRANCH   4   8
ATOM      8  C   PRO B  15      -8.404 -28.626 -12.070  1.00 33.68     0.241 C 
ATOM      9  N   ILE B  16      -7.794 -29.494 -12.854  1.00 35.41    -0.346 N 
ATOM     10  H   ILE B  16      -8.171 -30.188 -13.196  1.00 35.41     0.163 HD
ATOM     11  O   PRO B  15      -7.819 -27.729 -11.482  1.00 34.05    -0.271 OA
BRANCH   9  12
ATOM     12  CA  ILE B  16      -6.441 -29.333 -13.192  1.00 37.77     0.180 C 
BRANCH  12  13
ATOM     13  CB  ILE B  16      -5.623 -30.562 -12.828  1.00 42.27     0.013 C 
ATOM     14  CG2 ILE B  16      -5.877 -31.658 -13.823  1.00 44.80     0.012 C 
BRANCH  13  15
ATOM     15  CG1 ILE B  16      -4.139 -30.159 -12.768  1.00 47.53     0.002 C 
ATOM     16  CD1 ILE B  16      -3.243 -31.048 -11.912  1.00 51.74     0.005 C 
ENDBRANCH  13  15
ENDBRANCH  12  13
BRANCH  12  17
ATOM     17  C   ILE B  16      -6.434 -29.030 -14.656  1.00 42.33     0.241 C 
ATOM     18  O   ILE B  16      -7.197 -29.572 -15.406  1.00 39.29    -0.271 OA
ATOM     19  N   TYR B  17      -5.575 -28.100 -15.029  1.00 46.96    -0.346 N 
ATOM     20  H   TYR B  17      -4.960 -27.795 -14.511  1.00 46.96     0.163 HD
BRANCH  19  21
ATOM     21  CA  TYR B  17      -5.575 -27.501 -16.334  1.00 51.19     0.180 C 
BRANCH  21  22
ATOM     22  C   TYR B  17      -4.340 -27.886 -17.067  1.00 56.10     0.241 C 
ATOM     23  N   ASN B  18      -4.484 -28.444 -18.253  1.00 65.39    -0.347 N 
ATOM     24  H   ASN B  18      -5.224 -28.463 -18.690  1.00 65.39     0.163 HD
ATOM     25  O   TYR B  17      -3.253 -27.613 -16.592  1.00 61.36    -0.271 OA
BRANCH  23  26
ATOM     26  CA  ASN B  18      -3.353 -29.094 -18.935  1.00 70.74     0.171 C 
BRANCH  26  27
ATOM     27  CB  ASN B  18      -3.867 -30.321 -19.703  1.00 84.74     0.136 C 
BRANCH  27  28
ATOM     28  CG  ASN B  18      -4.983 -31.060 -18.953  1.00 96.34     0.217 C 
ATOM     29  OD1 ASN B  18      -5.909 -31.611 -19.568  1.00 99.44    -0.274 OA
ATOM     30  ND2 ASN B  18      -4.910 -31.059 -17.616  1.00 94.73    -0.370 N 
ATOM     31 1HD2 ASN B  18      -5.519 -31.450 -17.152  1.00 94.73     0.159 HD
ATOM     32 2HD2 ASN B  18      -4.254 -30.667 -17.221  1.00 94.73     0.159 HD
ENDBRANCH  27  28
ENDBRANCH  26  27
BRANCH  26  33
ATOM     33  C   ASN B  18      -2.429 -28.215 -19.812  1.00 72.97     0.220 C 
ATOM     34  O   ASN B  18      -2.853 -27.270 -20.493  1.00 74.17    -0.287 OA
ENDBRANCH  26  33
ENDBRANCH  23  26
ENDBRANCH  21  22
BRANCH  21  35
ATOM     35  CB  TYR B  17      -5.537 -25.992 -16.159  1.00 54.83     0.073 C 
BRANCH  35  36
ATOM     36  CG  TYR B  17      -5.402 -25.302 -17.462  1.00 56.96    -0.056 A 
ATOM     37  CD2 TYR B  17      -6.284 -25.598 -18.508  1.00 61.26     0.010 A 
ATOM     38  CE2 TYR B  17      -6.169 -24.978 -19.731  1.00 70.21     0.037 A 
ATOM     39  CZ  TYR B  17      -5.149 -24.061 -19.916  1.00 76.40     0.065 A 
ATOM     40  CE1 TYR B  17      -4.256 -23.757 -18.895  1.00 67.10     0.037 A 
ATOM     41  CD1 TYR B  17      -4.390 -24.390 -17.673  1.00 57.92     0.010 A 
BRANCH  39  42
ATOM     42  OH  TYR B  17      -5.028 -23.451 -21.130  1.00 89.25    -0.361 OA
ATOM     43  HH  TYR B  17      -5.630 -23.730 -21.645  1.00 89.25     0.217 HD
ENDBRANCH  39  42
ENDBRANCH  35  36
ENDBRANCH  21  35
ENDBRANCH  19  21
ENDBRANCH  12  17
ENDBRANCH   9  12
ENDBRANCH   4   8
BRANCH   1  44
ATOM     44  CA  ARG B  14     -10.279 -28.319  -8.131  1.00 32.45     0.176 C 
BRANCH  44  45
ATOM     45  N   ARG B  14     -10.135 -29.428  -7.215  1.00 38.19    -0.346 N 
ATOM     46  H   ARG B  14      -9.410 -29.403  -6.753  1.00 38.19     0.163 HD
ATOM     47  C   PRO B  13     -11.043 -30.401  -7.097  1.00 38.91     0.241 C 
ATOM     48  O   PRO B  13     -12.076 -30.431  -7.735  1.00 32.88    -0.271 OA
BRANCH  47  49
ATOM     49  CA  PRO B  13     -10.740 -31.495  -6.053  1.00 38.31     0.179 C 
ATOM     50  N   PRO B  13     -11.921 -32.112  -5.488  1.00 38.88    -0.337 N 
ATOM     51  CD  PRO B  13     -11.841 -33.579  -5.541  1.00 43.50     0.127 C 
ATOM     52  C   PRO B  12     -12.951 -31.435  -4.955  1.00 40.77     0.256 C 
ATOM     53  CG  PRO B  13     -10.411 -33.840  -5.870  1.00 43.53     0.022 C 
ATOM     54  CB  PRO B  13     -10.000 -32.671  -6.690  1.00 39.91     0.037 C 
ATOM     55  O   PRO B  12     -12.970 -30.201  -4.831  1.00 44.45    -0.271 OA
BRANCH  52  56
ATOM     56  CA  PRO B  12     -14.137 -32.242  -4.490  1.00 38.46     0.353 C 
ATOM     57  CB  PRO B  12     -15.157 -32.325  -5.627  1.00 43.42     0.050 C 
ATOM     58  CG  PRO B  12     -16.469 -32.176  -4.974  1.00 41.12     0.035 C 
ATOM     59  CD  PRO B  12     -16.235 -31.252  -3.815  1.00 39.74     0.315 C 
ATOM     60  N   PRO B  12     -14.836 -31.508  -3.463  1.00 38.12     0.318 N 
ENDBRANCH  52  56
ENDBRANCH  47  49
ENDBRANCH  44  45
BRANCH  44  61
ATOM     61  CB  ARG B  14      -9.290 -27.225  -7.715  1.00 34.42     0.036 C 
BRANCH  61  62
ATOM     62  CG  ARG B  14      -9.602 -26.551  -6.379  1.00 32.66     0.023 C 
BRANCH  62  63
ATOM     63  CD  ARG B  14     -11.055 -26.122  -6.363  1.00 35.24     0.138 C 
BRANCH  63  64
ATOM     64  NE  ARG B  14     -11.478 -25.577  -5.061  1.00 42.22    -0.227 N 
ATOM     65  CZ  ARG B  14     -11.900 -26.287  -4.012  1.00 44.72     0.665 C 
ATOM     66  NH2 ARG B  14     -11.998 -27.602  -4.060  1.00 43.48    -0.235 N 
ATOM     67  NH1 ARG B  14     -12.245 -25.665  -2.900  1.00 46.51    -0.235 N 
ATOM     68 HH21 ARG B  14     -11.787 -28.023  -4.780  1.00 43.48     0.174 HD
ATOM     69 HH22 ARG B  14     -12.272 -28.038  -3.371  1.00 43.48     0.174 HD
ATOM     70 HH12 ARG B  14     -12.518 -26.117  -2.221  1.00 46.51     0.174 HD
ATOM     71 HH11 ARG B  14     -12.197 -24.808  -2.854  1.00 46.51     0.174 HD
ATOM     72  HE  ARG B  14     -11.451 -24.722  -4.968  1.00 42.22     0.177 HD
ENDBRANCH  63  64
ENDBRANCH  62  63
ENDBRANCH  61  62
ENDBRANCH  44  61
ENDBRANCH   1  44
TORSDOF 22
