REMARK  28 active torsions:
REMARK  status: ('A' for Active; 'I' for Inactive)
REMARK    1  A    between atoms: N_1  and  CA_2 
REMARK    2  A    between atoms: CA_2  and  CB_5 
REMARK    3  A    between atoms: CA_2  and  C_3 
REMARK       I    between atoms: C_3  and  N_14 
REMARK    4  A    between atoms: CB_5  and  CG_6 
REMARK       I    between atoms: CG_6  and  ND2_8 
REMARK    5  A    between atoms: N_14  and  CA_15 
REMARK    6  A    between atoms: CA_15  and  C_16 
REMARK    7  A    between atoms: CA_15  and  CB_18 
REMARK       I    between atoms: C_16  and  N_31 
REMARK    8  A    between atoms: CB_18  and  CG_19 
REMARK    9  A    between atoms: CG_19  and  CD_20 
REMARK   10  A    between atoms: CD_20  and  NE_21 
REMARK       I    between atoms: NE_21  and  CZ_22 
REMARK       I    between atoms: CZ_22  and  NH1_23 
REMARK   11  A    between atoms: N_31  and  CA_32 
REMARK   12  A    between atoms: CA_32  and  C_33 
REMARK   13  A    between atoms: CA_32  and  CB_35 
REMARK       I    between atoms: C_33  and  N_40 
REMARK   14  A    between atoms: CB_35  and  CG_36 
REMARK   15  A    between atoms: N_40  and  CA_41 
REMARK   16  A    between atoms: CA_41  and  C_42 
REMARK   17  A    between atoms: CA_41  and  CB_44 
REMARK       I    between atoms: C_42  and  N_49 
REMARK   18  A    between atoms: CB_44  and  CG_45 
REMARK   19  A    between atoms: N_49  and  CA_50 
REMARK   20  A    between atoms: CA_50  and  C_51 
REMARK   21  A    between atoms: CA_50  and  CB_53 
REMARK       I    between atoms: C_51  and  N_58 
REMARK   22  A    between atoms: CB_53  and  CG_54 
REMARK   23  A    between atoms: N_58  and  CA_59 
REMARK   24  A    between atoms: CA_59  and  C_60 
REMARK   25  A    between atoms: CA_59  and  CB_62 
REMARK       I    between atoms: C_60  and  N_67 
REMARK   26  A    between atoms: CB_62  and  OG1_63 
REMARK   27  A    between atoms: N_67  and  CA_68 
REMARK   28  A    between atoms: CA_68  and  C_69 
ROOT
ATOM      1  CA  LEU E   3      47.039  43.063  20.605  1.00 22.83     0.177 C 
ENDROOT
BRANCH   1   2
ATOM      2  C   LEU E   3      46.043  43.028  19.399  1.00 19.55     0.241 C 
ATOM      3  O   LEU E   3      44.891  43.413  19.518  1.00 19.60    -0.271 OA
ATOM      4  N   LEU E   4      46.519  42.558  18.270  1.00 19.32    -0.346 N 
ATOM      5  H   LEU E   4      47.243  42.101  18.195  1.00 19.32     0.163 HD
BRANCH   4   6
ATOM      6  CA  LEU E   4      45.782  42.809  16.979  1.00 17.74     0.177 C 
BRANCH   6   7
ATOM      7  C   LEU E   4      45.494  41.542  16.254  1.00 18.94     0.241 C 
ATOM      8  N   LEU E   5      44.406  41.568  15.443  1.00 19.76    -0.346 N 
ATOM      9  H   LEU E   5      43.944  42.274  15.275  1.00 19.76     0.163 HD
ATOM     10  O   LEU E   4      46.189  40.500  16.450  1.00 20.41    -0.271 OA
BRANCH   8  11
ATOM     11  CA  LEU E   5      43.933  40.358  14.781  1.00 18.99     0.177 C 
BRANCH  11  12
ATOM     12  C   LEU E   5      43.883  40.656  13.281  1.00 20.67     0.241 C 
ATOM     13  N   THR E   6      44.348  39.682  12.498  1.00 21.83    -0.344 N 
ATOM     14  H   THR E   6      44.732  38.963  12.771  1.00 21.83     0.163 HD
ATOM     15  O   LEU E   5      43.391  41.700  12.914  1.00 20.01    -0.271 OA
BRANCH  13  16
ATOM     16  CA  THR E   6      44.207  39.819  11.038  1.00 24.74     0.205 C 
BRANCH  16  17
ATOM     17  C   THR E   6      42.855  39.253  10.598  1.00 26.78     0.243 C 
ATOM     18  N   GLY E   7      42.589  39.416   9.293  1.00 28.46    -0.349 N 
ATOM     19  H   GLY E   7      43.211  39.524   8.709  1.00 28.46     0.163 HD
ATOM     20  O   THR E   6      42.097  38.657  11.369  1.00 25.34    -0.271 OA
BRANCH  18  21
ATOM     21  CA  GLY E   7      41.252  39.431   8.706  1.00 36.11     0.235 C 
BRANCH  21  22
ATOM     22  C   GLY E   7      40.730  38.053   8.584  1.00 43.05     0.191 C 
ATOM     23  OXT GLY E   7      41.542  37.144   8.764  1.00 50.23    -0.647 OA
ATOM     24  O   GLY E   7      39.530  37.825   8.305  1.00 56.48    -0.647 OA
ENDBRANCH  21  22
ENDBRANCH  18  21
ENDBRANCH  16  17
BRANCH  16  25
ATOM     25  CB  THR E   6      45.376  39.120  10.313  1.00 24.32     0.146 C 
ATOM     26  CG2 THR E   6      46.760  39.810  10.684  1.00 23.74     0.042 C 
BRANCH  25  27
ATOM     27  OG1 THR E   6      45.383  37.776  10.759  1.00 30.49    -0.393 OA
ATOM     28  HG1 THR E   6      45.963  37.683  11.359  1.00 30.49     0.210 HD
ENDBRANCH  25  27
ENDBRANCH  16  25
ENDBRANCH  13  16
ENDBRANCH  11  12
BRANCH  11  29
ATOM     29  CB  LEU E   5      42.510  39.997  15.182  1.00 19.92     0.038 C 
BRANCH  29  30
ATOM     30  CG  LEU E   5      42.461  39.643  16.696  1.00 17.19    -0.020 C 
ATOM     31  CD1 LEU E   5      41.028  39.639  17.159  1.00 19.71     0.009 C 
ATOM     32  CD2 LEU E   5      43.137  38.319  16.944  1.00 21.46     0.009 C 
ENDBRANCH  29  30
ENDBRANCH  11  29
ENDBRANCH   8  11
ENDBRANCH   6   7
BRANCH   6  33
ATOM     33  CB  LEU E   4      46.675  43.722  16.076  1.00 18.44     0.038 C 
BRANCH  33  34
ATOM     34  CG  LEU E   4      47.063  45.014  16.831  1.00 22.78    -0.020 C 
ATOM     35  CD2 LEU E   4      45.846  45.839  17.291  1.00 23.44     0.009 C 
ATOM     36  CD1 LEU E   4      47.952  45.816  15.879  1.00 27.53     0.009 C 
ENDBRANCH  33  34
ENDBRANCH   6  33
ENDBRANCH   4   6
ENDBRANCH   1   2
BRANCH   1  37
ATOM     37  CB  LEU E   3      47.141  41.648  21.183  1.00 29.41     0.038 C 
BRANCH  37  38
ATOM     38  CG  LEU E   3      48.412  41.306  21.995  1.00 30.90    -0.020 C 
ATOM     39  CD1 LEU E   3      49.685  41.528  21.150  1.00 35.09     0.009 C 
ATOM     40  CD2 LEU E   3      48.463  42.149  23.257  1.00 39.15     0.009 C 
ENDBRANCH  37  38
ENDBRANCH   1  37
BRANCH   1  41
ATOM     41  N   LEU E   3      46.590  44.038  21.644  1.00 22.92    -0.346 N 
ATOM     42  H   LEU E   3      46.119  43.709  22.284  1.00 22.92     0.163 HD
ATOM     43  C   ARG E   2      46.933  45.315  21.523  1.00 28.87     0.241 C 
ATOM     44  O   ARG E   2      47.608  45.725  20.533  1.00 29.44    -0.271 OA
BRANCH  43  45
ATOM     45  CA  ARG E   2      46.483  46.312  22.616  1.00 32.90     0.176 C 
BRANCH  45  46
ATOM     46  CB  ARG E   2      45.454  47.284  22.061  1.00 32.53     0.036 C 
BRANCH  46  47
ATOM     47  CG  ARG E   2      44.309  46.667  21.339  1.00 34.92     0.023 C 
BRANCH  47  48
ATOM     48  CD  ARG E   2      43.259  46.306  22.329  1.00 37.57     0.138 C 
BRANCH  48  49
ATOM     49  NE  ARG E   2      42.795  47.428  23.160  1.00 41.00    -0.227 N 
ATOM     50  HE  ARG E   2      42.667  48.189  22.780  1.00 41.00     0.177 HD
ATOM     51  CZ  ARG E   2      42.560  47.332  24.476  1.00 43.22     0.665 C 
ATOM     52  NH2 ARG E   2      42.075  48.369  25.146  1.00 39.75    -0.235 N 
ATOM     53  NH1 ARG E   2      42.809  46.188  25.138  1.00 41.20    -0.235 N 
ATOM     54 HH22 ARG E   2      41.925  48.304  25.990  1.00 39.75     0.174 HD
ATOM     55 HH21 ARG E   2      41.910  49.107  24.736  1.00 39.75     0.174 HD
ATOM     56 HH11 ARG E   2      43.123  45.507  24.717  1.00 41.20     0.174 HD
ATOM     57 HH12 ARG E   2      42.654  46.138  25.982  1.00 41.20     0.174 HD
ENDBRANCH  48  49
ENDBRANCH  47  48
ENDBRANCH  46  47
ENDBRANCH  45  46
BRANCH  45  58
ATOM     58  N   ARG E   2      47.609  47.190  22.968  1.00 36.64    -0.346 N 
ATOM     59  H   ARG E   2      47.495  48.005  22.718  1.00 36.64     0.163 HD
ATOM     60  C   ASN E   1      48.688  46.785  23.601  1.00 41.83     0.249 C 
ATOM     61  O   ASN E   1      48.804  45.614  23.992  1.00 38.61    -0.271 OA
BRANCH  60  62
ATOM     62  CA  ASN E   1      49.755  47.894  23.915  1.00 50.15     0.283 C 
BRANCH  62  63
ATOM     63  CB  ASN E   1      50.244  48.705  22.668  1.00 58.25     0.145 C 
BRANCH  63  64
ATOM     64  CG  ASN E   1      49.242  49.816  22.195  1.00 70.07     0.217 C 
ATOM     65  OD1 ASN E   1      48.189  50.075  22.802  1.00 69.16    -0.274 OA
ATOM     66  ND2 ASN E   1      49.593  50.476  21.088  1.00 65.88    -0.370 N 
ATOM     67 2HD2 ASN E   1      50.327  50.279  20.685  1.00 65.88     0.159 HD
ATOM     68 1HD2 ASN E   1      49.085  51.097  20.779  1.00 65.88     0.159 HD
ENDBRANCH  63  64
ENDBRANCH  62  63
BRANCH  62  69
ATOM     69  N   ASN E   1      50.919  47.331  24.657  1.00 55.39    -0.066 N 
ATOM     70  H1  ASN E   1      51.023  47.770  25.424  1.00 55.39     0.275 HD
ATOM     71  H2  ASN E   1      50.775  46.469  24.826  1.00 55.39     0.275 HD
ATOM     72  H3  ASN E   1      51.655  47.418  24.165  1.00 55.39     0.275 HD
ENDBRANCH  62  69
ENDBRANCH  60  62
ENDBRANCH  45  58
ENDBRANCH  43  45
ENDBRANCH   1  41
TORSDOF 28
