REMARK  17 active torsions:
REMARK  status: ('A' for Active; 'I' for Inactive)
REMARK    1  A    between atoms: CA_2  and  C_3 
REMARK    2  A    between atoms: CA_2  and  CB_5 
REMARK       I    between atoms: C_3  and  N_8 
REMARK    3  A    between atoms: CB_5  and  OG_6 
REMARK    4  A    between atoms: N_8  and  CA_9 
REMARK    5  A    between atoms: CA_9  and  C_10 
REMARK    6  A    between atoms: CA_9  and  CB_12 
REMARK       I    between atoms: C_10  and  N_20 
REMARK    7  A    between atoms: CB_12  and  CG_13 
REMARK    8  A    between atoms: CG_13  and  CD_14 
REMARK       I    between atoms: CD_14  and  NE2_16 
REMARK    9  A    between atoms: N_20  and  CA_21 
REMARK   10  A    between atoms: CA_21  and  C_22 
REMARK   11  A    between atoms: CA_21  and  CB_24 
REMARK       I    between atoms: C_22  and  N_31 
REMARK   12  A    between atoms: CB_24  and  CG_25 
REMARK       I    between atoms: CG_25  and  ND2_27 
REMARK   13  A    between atoms: N_31  and  CA_32 
REMARK   14  A    between atoms: CA_32  and  C_33 
REMARK   15  A    between atoms: CA_32  and  CB_35 
REMARK   16  A    between atoms: CB_35  and  CG_36 
REMARK   17  A    between atoms: CZ_41  and  OH_42 
ROOT
ATOM      1  CA  ASN C   4      22.363   1.666  18.904  1.00 23.87     0.185 C 
ENDROOT
BRANCH   1   2
ATOM      2  C   ASN C   4      21.446   0.558  18.382  1.00 24.50     0.241 C 
ATOM      3  O   ASN C   4      21.514  -0.588  18.822  1.00 25.26    -0.271 OA
ATOM      4  N   TYR C   5      20.588   0.930  17.437  1.00 25.46    -0.344 N 
ATOM      5  H   TYR C   5      20.554   1.732  17.128  1.00 25.46     0.163 HD
BRANCH   4   6
ATOM      6  CA  TYR C   5      19.611   0.027  16.818  1.00 27.53     0.189 C 
BRANCH   6   7
ATOM      7  C   TYR C   5      20.024  -0.277  15.387  1.00 27.73     0.197 C 
ATOM      8  OXT TYR C   5      19.316  -1.001  14.673  1.00 28.08    -0.646 OA
ATOM      9  O   TYR C   5      21.052   0.243  14.942  1.00 30.08    -0.646 OA
ENDBRANCH   6   7
BRANCH   6  10
ATOM     10  CB  TYR C   5      18.223   0.673  16.825  1.00 26.02     0.074 C 
BRANCH  10  11
ATOM     11  CG  TYR C   5      17.878   1.152  18.197  1.00 28.29    -0.056 A 
ATOM     12  CD1 TYR C   5      17.589   0.237  19.200  1.00 28.93     0.010 A 
ATOM     13  CE1 TYR C   5      17.317   0.656  20.484  1.00 31.65     0.037 A 
ATOM     14  CZ  TYR C   5      17.358   2.003  20.792  1.00 33.19     0.065 A 
ATOM     15  CE2 TYR C   5      17.665   2.934  19.817  1.00 31.83     0.037 A 
ATOM     16  CD2 TYR C   5      17.930   2.502  18.521  1.00 30.09     0.010 A 
BRANCH  14  17
ATOM     17  OH  TYR C   5      17.089   2.394  22.083  1.00 32.69    -0.361 OA
ATOM     18  HH  TYR C   5      17.321   1.786  22.614  1.00 32.69     0.217 HD
ENDBRANCH  14  17
ENDBRANCH  10  11
ENDBRANCH   6  10
ENDBRANCH   4   6
ENDBRANCH   1   2
BRANCH   1  19
ATOM     19  CB  ASN C   4      23.791   1.176  19.103  1.00 21.84     0.137 C 
BRANCH  19  20
ATOM     20  CG  ASN C   4      24.685   2.280  19.616  1.00 23.44     0.217 C 
ATOM     21  OD1 ASN C   4      25.187   3.071  18.830  1.00 24.15    -0.274 OA
ATOM     22  ND2 ASN C   4      24.822   2.391  20.936  1.00 22.78    -0.370 N 
ATOM     23 1HD2 ASN C   4      25.279   3.040  21.268  1.00 22.78     0.159 HD
ATOM     24 2HD2 ASN C   4      24.453   1.814  21.457  1.00 22.78     0.159 HD
ENDBRANCH  19  20
ENDBRANCH   1  19
BRANCH   1  25
ATOM     25  N   ASN C   4      21.905   2.278  20.153  1.00 22.84    -0.346 N 
ATOM     26  H   ASN C   4      21.629   1.712  20.739  1.00 22.84     0.163 HD
ATOM     27  C   GLN C   3      21.918   3.594  20.354  1.00 20.90     0.241 C 
ATOM     28  O   GLN C   3      22.077   4.412  19.452  1.00 18.13    -0.271 OA
BRANCH  27  29
ATOM     29  CA  GLN C   3      21.650   4.057  21.789  1.00 23.72     0.177 C 
BRANCH  29  30
ATOM     30  CB  GLN C   3      20.277   4.742  21.853  1.00 25.20     0.044 C 
BRANCH  30  31
ATOM     31  CG  GLN C   3      19.853   5.158  23.256  1.00 28.81     0.105 C 
BRANCH  31  32
ATOM     32  CD  GLN C   3      18.440   5.734  23.296  1.00 35.20     0.215 C 
ATOM     33  NE2 GLN C   3      17.492   5.036  22.659  1.00 25.96    -0.370 N 
ATOM     34 1HE2 GLN C   3      17.694   4.301  22.261  1.00 25.96     0.159 HD
ATOM     35 2HE2 GLN C   3      16.681   5.323  22.647  1.00 25.96     0.159 HD
ATOM     36  OE1 GLN C   3      18.208   6.803  23.888  1.00 36.24    -0.274 OA
ENDBRANCH  31  32
ENDBRANCH  30  31
ENDBRANCH  29  30
BRANCH  29  37
ATOM     37  N   GLN C   3      22.734   4.903  22.348  1.00 22.58    -0.346 N 
ATOM     38  H   GLN C   3      22.857   5.651  21.943  1.00 22.58     0.163 HD
ATOM     39  C   SER C   2      23.436   4.488  23.403  1.00 24.53     0.259 C 
ATOM     40  O   SER C   2      23.191   3.428  23.985  1.00 22.38    -0.271 OA
BRANCH  39  41
ATOM     41  CA  SER C   2      24.590   5.345  23.902  1.00 25.92     0.423 C 
ATOM     42  N   SER C   2      25.620   5.440  22.817  1.00 33.46     0.617 N 
BRANCH  41  43
ATOM     43  CB  SER C   2      24.086   6.710  24.375  1.00 31.59     0.215 C 
BRANCH  43  44
ATOM     44  OG  SER C   2      23.120   6.615  25.416  1.00 27.93    -0.398 OA
ATOM     45  HG  SER C   2      22.875   7.386  25.643  1.00 27.93     0.209 HD
ENDBRANCH  43  44
ENDBRANCH  41  43
ENDBRANCH  39  41
ENDBRANCH  29  37
ENDBRANCH  27  29
ENDBRANCH   1  25
TORSDOF 17
