REMARK  20 active torsions:
REMARK  status: ('A' for Active; 'I' for Inactive)
REMARK    1  A    between atoms: CA_2  and  CB_5 
REMARK    2  A    between atoms: CA_2  and  C_3 
REMARK       I    between atoms: C_3  and  N_17 
REMARK    3  A    between atoms: CB_5  and  CG_6 
REMARK    4  A    between atoms: CG_6  and  CD_7 
REMARK    5  A    between atoms: CD_7  and  NE_8 
REMARK       I    between atoms: NE_8  and  CZ_9 
REMARK       I    between atoms: CZ_9  and  NH1_10 
REMARK    6  A    between atoms: N_17  and  CA_18 
REMARK    7  A    between atoms: CA_18  and  C_19 
REMARK    8  A    between atoms: CA_18  and  CB_21 
REMARK       I    between atoms: C_19  and  N_30 
REMARK    9  A    between atoms: CB_21  and  CG_22 
REMARK   10  A    between atoms: CG_22  and  CD_23 
REMARK   11  A    between atoms: CD_23  and  CE_24 
REMARK   12  A    between atoms: CE_24  and  NZ_25 
REMARK   13  A    between atoms: N_30  and  CA_31 
REMARK   14  A    between atoms: CA_31  and  C_32 
REMARK   15  A    between atoms: CA_31  and  CB_34 
REMARK       I    between atoms: C_32  and  N_39 
REMARK   16  A    between atoms: CB_34  and  CG1_35 
REMARK   17  A    between atoms: N_39  and  CA_40 
REMARK   18  A    between atoms: CA_40  and  C_41 
REMARK   19  A    between atoms: CA_40  and  CB_43 
REMARK   20  A    between atoms: CB_43  and  CG_44 
ROOT
ATOM      1  CA  LYS C   3      21.848   4.681  21.597  1.00 27.41     0.176 C 
ENDROOT
BRANCH   1   2
ATOM      2  N   LYS C   3      20.633   4.389  22.377  1.00 28.91    -0.346 N 
ATOM      3  C   ARG C   2      19.445   4.787  21.930  1.00 30.62     0.257 C 
ATOM      4  O   ARG C   2      19.304   5.222  20.786  1.00 31.16    -0.271 OA
ATOM      5  H   LYS C   3      20.763   3.959  23.110  1.00 28.91     0.163 HD
BRANCH   3   6
ATOM      6  CA  ARG C   2      18.214   4.718  22.858  1.00 31.50     0.400 C 
ATOM      7  N   ARG C   2      17.186   3.814  22.291  1.00 33.48     0.615 N 
BRANCH   6   8
ATOM      8  CB  ARG C   2      18.534   4.331  24.304  1.00 31.91     0.053 C 
BRANCH   8   9
ATOM      9  CG  ARG C   2      18.584   2.828  24.584  1.00 31.74     0.023 C 
BRANCH   9  10
ATOM     10  CD  ARG C   2      19.091   2.540  25.991  1.00 33.46     0.138 C 
BRANCH  10  11
ATOM     11  NE  ARG C   2      19.828   3.652  26.611  1.00 33.35    -0.227 N 
ATOM     12  CZ  ARG C   2      21.060   4.044  26.294  1.00 33.45     0.665 C 
ATOM     13  NH1 ARG C   2      21.735   3.443  25.331  1.00 31.52    -0.235 N 
ATOM     14  NH2 ARG C   2      21.622   5.064  26.941  1.00 34.66    -0.235 N 
ATOM     15 HH11 ARG C   2      21.379   2.790  24.900  1.00 31.52     0.174 HD
ATOM     16 HH12 ARG C   2      22.530   3.705  25.135  1.00 31.52     0.174 HD
ATOM     17 HH21 ARG C   2      21.189   5.469  27.564  1.00 34.66     0.174 HD
ATOM     18 HH22 ARG C   2      22.418   5.317  26.736  1.00 34.66     0.174 HD
ATOM     19  HE  ARG C   2      19.427   4.088  27.234  1.00 33.35     0.177 HD
ENDBRANCH  10  11
ENDBRANCH   9  10
ENDBRANCH   8   9
ENDBRANCH   6   8
ENDBRANCH   3   6
ENDBRANCH   1   2
BRANCH   1  20
ATOM     20  C   LYS C   3      22.075   3.851  20.338  1.00 25.28     0.241 C 
ATOM     21  O   LYS C   3      22.315   4.428  19.294  1.00 21.80    -0.271 OA
ATOM     22  N   ILE C   4      22.031   2.528  20.430  1.00 24.70    -0.346 N 
ATOM     23  H   ILE C   4      21.783   2.096  21.131  1.00 24.70     0.163 HD
BRANCH  22  24
ATOM     24  CA  ILE C   4      22.418   1.689  19.294  1.00 24.27     0.180 C 
BRANCH  24  25
ATOM     25  C   ILE C   4      21.286   0.775  18.805  1.00 24.50     0.241 C 
ATOM     26  N   LEU C   5      20.521   1.268  17.831  1.00 23.50    -0.345 N 
ATOM     27  H   LEU C   5      20.608   2.065  17.521  1.00 23.50     0.163 HD
ATOM     28  O   ILE C   4      21.128  -0.352  19.283  1.00 23.85    -0.271 OA
BRANCH  26  29
ATOM     29  CA  LEU C   5      19.456   0.500  17.192  1.00 24.14     0.185 C 
BRANCH  29  30
ATOM     30  C   LEU C   5      19.902   0.068  15.790  1.00 24.32     0.196 C 
ATOM     31  O   LEU C   5      21.017   0.412  15.373  1.00 24.96    -0.646 OA
ATOM     32  OXT LEU C   5      19.206  -0.648  15.058  1.00 24.51    -0.646 OA
ENDBRANCH  29  30
BRANCH  29  33
ATOM     33  CB  LEU C   5      18.174   1.338  17.128  1.00 23.93     0.040 C 
BRANCH  33  34
ATOM     34  CG  LEU C   5      17.395   1.608  18.434  1.00 26.81    -0.020 C 
ATOM     35  CD1 LEU C   5      16.897   0.301  19.062  1.00 29.09     0.009 C 
ATOM     36  CD2 LEU C   5      18.218   2.384  19.443  1.00 28.70     0.009 C 
ENDBRANCH  33  34
ENDBRANCH  29  33
ENDBRANCH  26  29
ENDBRANCH  24  25
BRANCH  24  37
ATOM     37  CB  ILE C   4      23.665   0.849  19.596  1.00 24.66     0.013 C 
ATOM     38  CG2 ILE C   4      24.138   0.112  18.335  1.00 24.52     0.012 C 
BRANCH  37  39
ATOM     39  CG1 ILE C   4      24.780   1.712  20.197  1.00 25.15     0.002 C 
ATOM     40  CD1 ILE C   4      25.172   2.907  19.367  1.00 24.74     0.005 C 
ENDBRANCH  37  39
ENDBRANCH  24  37
ENDBRANCH  22  24
ENDBRANCH   1  20
BRANCH   1  41
ATOM     41  CB  LYS C   3      23.122   4.661  22.433  1.00 27.76     0.035 C 
BRANCH  41  42
ATOM     42  CG  LYS C   3      23.320   5.911  23.234  1.00 29.79     0.004 C 
BRANCH  42  43
ATOM     43  CD  LYS C   3      24.567   5.825  24.063  1.00 31.63     0.027 C 
BRANCH  43  44
ATOM     44  CE  LYS C   3      24.510   6.797  25.229  1.00 35.23     0.229 C 
BRANCH  44  45
ATOM     45  NZ  LYS C   3      23.115   7.075  25.662  1.00 39.07    -0.079 N 
ATOM     46  HZ3 LYS C   3      22.626   6.335  25.583  1.00 39.07     0.274 HD
ATOM     47  HZ2 LYS C   3      22.768   7.716  25.151  1.00 39.07     0.274 HD
ATOM     48  HZ1 LYS C   3      23.115   7.340  26.512  1.00 39.07     0.274 HD
ENDBRANCH  44  45
ENDBRANCH  43  44
ENDBRANCH  42  43
ENDBRANCH  41  42
ENDBRANCH   1  41
TORSDOF 20
