REMARK  22 active torsions:
REMARK  status: ('A' for Active; 'I' for Inactive)
REMARK    1  A    between atoms: CA_2  and  C_3 
REMARK    2  A    between atoms: CA_2  and  CB_5 
REMARK       I    between atoms: C_3  and  N_14 
REMARK    3  A    between atoms: CB_5  and  CG_6 
REMARK    4  A    between atoms: CZ_11  and  OH_12 
REMARK    5  A    between atoms: N_14  and  CA_15 
REMARK    6  A    between atoms: CA_15  and  C_16 
REMARK    7  A    between atoms: CA_15  and  CB_18 
REMARK       I    between atoms: C_16  and  N_23 
REMARK    8  A    between atoms: CB_18  and  CG_19 
REMARK    9  A    between atoms: N_23  and  CA_24 
REMARK   10  A    between atoms: CA_24  and  CB_27 
REMARK   11  A    between atoms: CA_24  and  C_25 
REMARK       I    between atoms: C_25  and  N_31 
REMARK   12  A    between atoms: N_31  and  CA_32 
REMARK   13  A    between atoms: CA_32  and  CB_35 
REMARK   14  A    between atoms: CA_32  and  C_33 
REMARK       I    between atoms: C_33  and  N_40 
REMARK   15  A    between atoms: CB_35  and  OG1_36 
REMARK   16  A    between atoms: N_40  and  CA_41 
REMARK   17  A    between atoms: CA_41  and  C_42 
REMARK   18  A    between atoms: CA_41  and  CB_44 
REMARK       I    between atoms: C_42  and  N_48 
REMARK   19  A    between atoms: CB_44  and  OG_45 
REMARK   20  A    between atoms: N_48  and  CA_49 
REMARK   21  A    between atoms: CA_49  and  C_50 
REMARK   22  A    between atoms: CA_49  and  CB_52 
ROOT
ATOM      1  CA  VAL B2840      -2.849 -14.115  20.947  1.00 12.24     0.180 C 
ENDROOT
BRANCH   1   2
ATOM      2  N   VAL B2840      -2.961 -14.466  22.361  1.00  7.10    -0.346 N 
ATOM      3  C   LEU B2839      -2.752 -13.567  23.317  1.00  9.29     0.241 C 
ATOM      4  O   LEU B2839      -2.332 -12.427  23.092  1.00  7.82    -0.271 OA
ATOM      5  H   VAL B2840      -3.169 -15.287  22.509  1.00  7.10     0.163 HD
BRANCH   3   6
ATOM      6  CA  LEU B2839      -3.034 -14.019  24.738  1.00  6.33     0.177 C 
BRANCH   6   7
ATOM      7  CB  LEU B2839      -4.269 -13.278  25.263  1.00 14.59     0.038 C 
BRANCH   7   8
ATOM      8  CG  LEU B2839      -4.756 -13.725  26.637  1.00 24.41    -0.020 C 
ATOM      9  CD1 LEU B2839      -6.008 -12.945  27.072  1.00 21.70     0.009 C 
ATOM     10  CD2 LEU B2839      -5.008 -15.232  26.633  1.00 24.63     0.009 C 
ENDBRANCH   7   8
ENDBRANCH   6   7
BRANCH   6  11
ATOM     11  N   LEU B2839      -1.874 -13.782  25.601  1.00 12.50    -0.346 N 
ATOM     12  H   LEU B2839      -1.788 -12.967  25.862  1.00 12.50     0.163 HD
ATOM     13  C   TYR B2838      -1.034 -14.764  25.941  1.00 14.62     0.257 C 
ATOM     14  O   TYR B2838      -1.200 -15.939  25.615  1.00 16.58    -0.271 OA
BRANCH  13  15
ATOM     15  CA  TYR B2838       0.179 -14.386  26.780  1.00 17.58     0.404 C 
ATOM     16  N   TYR B2838       0.892 -13.224  26.265  1.00 19.10     0.615 N 
BRANCH  15  17
ATOM     17  CB  TYR B2838      -0.216 -14.196  28.244  1.00 37.20     0.089 C 
BRANCH  17  18
ATOM     18  CG  TYR B2838       0.768 -14.825  29.202  1.00 53.42    -0.055 A 
ATOM     19  CD1 TYR B2838       0.761 -16.198  29.434  1.00 57.26     0.010 A 
ATOM     20  CE1 TYR B2838       1.665 -16.783  30.310  1.00 58.59     0.037 A 
ATOM     21  CZ  TYR B2838       2.594 -15.994  30.964  1.00 63.46     0.065 A 
ATOM     22  CE2 TYR B2838       2.623 -14.629  30.749  1.00 67.17     0.037 A 
ATOM     23  CD2 TYR B2838       1.711 -14.051  29.869  1.00 64.10     0.010 A 
BRANCH  21  24
ATOM     24  OH  TYR B2838       3.493 -16.571  31.836  1.00 64.89    -0.361 OA
ATOM     25  HH  TYR B2838       3.993 -15.977  32.157  1.00 64.89     0.217 HD
ENDBRANCH  21  24
ENDBRANCH  17  18
ENDBRANCH  15  17
ENDBRANCH  13  15
ENDBRANCH   6  11
ENDBRANCH   3   6
ENDBRANCH   1   2
BRANCH   1  26
ATOM     26  CB  VAL B2840      -1.595 -14.738  20.294  1.00 14.53     0.009 C 
ATOM     27  CG1 VAL B2840      -1.545 -14.388  18.815  1.00 16.85     0.012 C 
ATOM     28  CG2 VAL B2840      -0.334 -14.245  20.998  1.00 19.78     0.012 C 
ENDBRANCH   1  26
BRANCH   1  29
ATOM     29  C   VAL B2840      -4.102 -14.560  20.189  1.00 10.08     0.241 C 
ATOM     30  O   VAL B2840      -4.611 -15.652  20.414  1.00 13.99    -0.271 OA
ATOM     31  N   THR B2841      -4.592 -13.724  19.281  1.00  7.81    -0.344 N 
ATOM     32  H   THR B2841      -4.214 -12.988  19.046  1.00  7.81     0.163 HD
BRANCH  31  33
ATOM     33  CA  THR B2841      -5.850 -14.010  18.597  1.00  9.28     0.205 C 
BRANCH  33  34
ATOM     34  CB  THR B2841      -6.986 -13.122  19.124  1.00  5.66     0.146 C 
ATOM     35  CG2 THR B2841      -8.323 -13.490  18.456  1.00  2.82     0.042 C 
BRANCH  34  36
ATOM     36  OG1 THR B2841      -7.108 -13.308  20.539  1.00  4.58    -0.393 OA
ATOM     37  HG1 THR B2841      -6.982 -12.575  20.930  1.00  4.58     0.210 HD
ENDBRANCH  34  36
ENDBRANCH  33  34
BRANCH  33  38
ATOM     38  C   THR B2841      -5.746 -13.820  17.090  1.00 11.02     0.243 C 
ATOM     39  N   SER B2842      -6.122 -14.857  16.336  1.00  4.17    -0.344 N 
ATOM     40  H   SER B2842      -6.328 -15.630  16.651  1.00  4.17     0.163 HD
ATOM     41  O   THR B2841      -5.325 -12.758  16.624  1.00  9.65    -0.271 OA
BRANCH  39  42
ATOM     42  CA  SER B2842      -6.213 -14.752  14.886  1.00  7.92     0.200 C 
BRANCH  42  43
ATOM     43  C   SER B2842      -7.611 -14.315  14.494  1.00  8.41     0.243 C 
ATOM     44  N   VAL B2843      -7.685 -13.431  13.506  1.00 12.74    -0.344 N 
ATOM     45  H   VAL B2843      -7.000 -13.135  13.079  1.00 12.74     0.163 HD
ATOM     46  O   SER B2842      -8.593 -14.759  15.077  1.00  7.66    -0.271 OA
BRANCH  44  47
ATOM     47  CA  VAL B2843      -8.950 -12.879  13.055  1.00 16.92     0.189 C 
BRANCH  47  48
ATOM     48  C   VAL B2843      -9.014 -12.854  11.528  1.00 17.95     0.197 C 
ATOM     49  OXT VAL B2843      -8.034 -13.195  10.849  1.00 12.52    -0.646 OA
ATOM     50  O   VAL B2843     -10.038 -12.500  10.943  1.00 13.13    -0.646 OA
ENDBRANCH  47  48
BRANCH  47  51
ATOM     51  CB  VAL B2843      -9.161 -11.455  13.621  1.00 12.90     0.010 C 
ATOM     52  CG2 VAL B2843      -8.039 -10.514  13.181  1.00 11.86     0.012 C 
ATOM     53  CG1 VAL B2843      -9.251 -11.501  15.135  1.00 11.26     0.012 C 
ENDBRANCH  47  51
ENDBRANCH  44  47
ENDBRANCH  42  43
BRANCH  42  54
ATOM     54  CB  SER B2842      -5.859 -16.080  14.204  1.00 13.40     0.199 C 
BRANCH  54  55
ATOM     55  OG  SER B2842      -6.801 -17.086  14.525  1.00 24.06    -0.398 OA
ATOM     56  HG  SER B2842      -6.589 -17.802  14.140  1.00 24.06     0.209 HD
ENDBRANCH  54  55
ENDBRANCH  42  54
ENDBRANCH  39  42
ENDBRANCH  33  38
ENDBRANCH  31  33
ENDBRANCH   1  29
TORSDOF 22
