REMARK  24 active torsions:
REMARK  status: ('A' for Active; 'I' for Inactive)
REMARK    1  A    between atoms: N_1  and  CA_2 
REMARK    2  A    between atoms: CA_2  and  CB_5 
REMARK    3  A    between atoms: CA_2  and  C_3 
REMARK       I    between atoms: C_3  and  N_12 
REMARK    4  A    between atoms: CB_5  and  CG_6 
REMARK    5  A    between atoms: N_12  and  CA_13 
REMARK    6  A    between atoms: CA_13  and  CB_16 
REMARK    7  A    between atoms: CA_13  and  C_14 
REMARK       I    between atoms: C_14  and  N_26 
REMARK    8  A    between atoms: CB_16  and  CG_17 
REMARK    9  A    between atoms: CZ_22  and  OH_23 
REMARK   10  A    between atoms: N_26  and  CA_27 
REMARK   11  A    between atoms: CA_27  and  CB_30 
REMARK   12  A    between atoms: CA_27  and  C_28 
REMARK       I    between atoms: C_28  and  N_38 
REMARK   13  A    between atoms: CB_30  and  CG_31 
REMARK   14  A    between atoms: CG_31  and  CD_32 
REMARK       I    between atoms: CD_32  and  NE2_34 
REMARK   15  A    between atoms: N_38  and  CA_39 
REMARK   16  A    between atoms: CA_39  and  CB_42 
REMARK   17  A    between atoms: CA_39  and  C_40 
REMARK       I    between atoms: C_40  and  N_55 
REMARK   18  A    between atoms: CB_42  and  CG_43 
REMARK   19  A    between atoms: CG_43  and  CD_44 
REMARK   20  A    between atoms: CD_44  and  NE_45 
REMARK       I    between atoms: NE_45  and  CZ_46 
REMARK       I    between atoms: CZ_46  and  NH1_47 
REMARK   21  A    between atoms: N_55  and  CA_56 
REMARK   22  A    between atoms: CA_56  and  CB_59 
REMARK   23  A    between atoms: CA_56  and  C_57 
REMARK   24  A    between atoms: CB_59  and  CG_60 
ROOT
ATOM      1  CA  GLN B   3     -12.111  -4.970   5.500  1.00 33.56     0.177 C 
ENDROOT
BRANCH   1   2
ATOM      2  N   GLN B   3     -12.813  -5.349   4.298  1.00 33.33    -0.346 N 
ATOM      3  C   TYR B   2     -13.488  -6.492   4.210  1.00 35.73     0.241 C 
ATOM      4  O   TYR B   2     -13.406  -7.379   5.065  1.00 36.38    -0.271 OA
ATOM      5  H   GLN B   3     -12.754  -4.777   3.658  1.00 33.33     0.163 HD
BRANCH   3   6
ATOM      6  CA  TYR B   2     -14.385  -6.701   2.992  1.00 35.98     0.180 C 
BRANCH   6   7
ATOM      7  CB  TYR B   2     -15.857  -6.359   3.302  1.00 34.22     0.073 C 
BRANCH   7   8
ATOM      8  CG  TYR B   2     -16.637  -6.122   2.049  1.00 30.67    -0.056 A 
ATOM      9  CD2 TYR B   2     -17.261  -7.174   1.353  1.00 29.09     0.010 A 
ATOM     10  CE2 TYR B   2     -17.946  -6.920   0.119  1.00 27.51     0.037 A 
ATOM     11  CZ  TYR B   2     -17.990  -5.637  -0.330  1.00 25.86     0.065 A 
ATOM     12  CE1 TYR B   2     -17.395  -4.583   0.388  1.00 26.16     0.037 A 
ATOM     13  CD1 TYR B   2     -16.735  -4.834   1.537  1.00 21.15     0.010 A 
BRANCH  11  14
ATOM     14  OH  TYR B   2     -18.672  -5.292  -1.464  1.00 29.83    -0.361 OA
ATOM     15  HH  TYR B   2     -18.389  -4.554  -1.748  1.00 29.83     0.217 HD
ENDBRANCH  11  14
ENDBRANCH   7   8
ENDBRANCH   6   7
BRANCH   6  16
ATOM     16  N   TYR B   2     -14.292  -8.110   2.599  1.00 39.83    -0.346 N 
ATOM     17  C   ASP B   1     -13.335  -8.544   1.786  1.00 42.84     0.249 C 
ATOM     18  O   ASP B   1     -12.550  -7.767   1.209  1.00 42.82    -0.271 OA
ATOM     19  H   TYR B   2     -14.901  -8.615   2.937  1.00 39.83     0.163 HD
BRANCH  17  20
ATOM     20  CA  ASP B   1     -13.299 -10.079   1.546  1.00 44.92     0.284 C 
BRANCH  20  21
ATOM     21  CB  ASP B   1     -14.459 -10.455   0.621  1.00 46.02     0.155 C 
BRANCH  21  22
ATOM     22  CG  ASP B   1     -14.105 -10.277  -0.855  1.00 51.60     0.175 C 
ATOM     23  OD1 ASP B   1     -14.758  -9.444  -1.578  1.00 55.22    -0.648 OA
ATOM     24  OD2 ASP B   1     -13.146 -10.975  -1.278  1.00 56.25    -0.648 OA
ENDBRANCH  21  22
ENDBRANCH  20  21
BRANCH  20  25
ATOM     25  N   ASP B   1     -13.365 -10.882   2.836  1.00 44.71    -0.066 N 
ATOM     26  H1  ASP B   1     -13.341 -11.751   2.646  1.00 44.71     0.275 HD
ATOM     27  H2  ASP B   1     -12.671 -10.672   3.352  1.00 44.71     0.275 HD
ATOM     28  H3  ASP B   1     -14.121 -10.693   3.265  1.00 44.71     0.275 HD
ENDBRANCH  20  25
ENDBRANCH  17  20
ENDBRANCH   6  16
ENDBRANCH   3   6
ENDBRANCH   1   2
BRANCH   1  29
ATOM     29  CB  GLN B   3     -11.056  -3.913   5.198  1.00 34.45     0.044 C 
BRANCH  29  30
ATOM     30  CG  GLN B   3     -10.515  -3.144   6.415  1.00 38.50     0.105 C 
BRANCH  30  31
ATOM     31  CD  GLN B   3      -9.765  -4.031   7.440  1.00 47.01     0.215 C 
ATOM     32  NE2 GLN B   3      -8.861  -4.915   6.952  1.00 44.49    -0.370 N 
ATOM     33 1HE2 GLN B   3      -8.708  -4.951   6.107  1.00 44.49     0.159 HD
ATOM     34 2HE2 GLN B   3      -8.441  -5.440   7.488  1.00 44.49     0.159 HD
ATOM     35  OE1 GLN B   3     -10.027  -3.936   8.659  1.00 47.46    -0.274 OA
ENDBRANCH  30  31
ENDBRANCH  29  30
ENDBRANCH   1  29
BRANCH   1  36
ATOM     36  C   GLN B   3     -13.162  -4.401   6.471  1.00 32.58     0.241 C 
ATOM     37  O   GLN B   3     -13.848  -3.431   6.129  1.00 27.04    -0.271 OA
ATOM     38  N   ARG B   4     -13.253  -4.992   7.675  1.00 32.15    -0.346 N 
ATOM     39  H   ARG B   4     -12.752  -5.644   7.927  1.00 32.15     0.163 HD
BRANCH  38  40
ATOM     40  CA  ARG B   4     -14.249  -4.558   8.690  1.00 32.56     0.176 C 
BRANCH  40  41
ATOM     41  CB  ARG B   4     -14.352  -5.628   9.831  1.00 33.81     0.036 C 
BRANCH  41  42
ATOM     42  CG  ARG B   4     -15.045  -5.167  11.109  1.00 39.16     0.023 C 
BRANCH  42  43
ATOM     43  CD  ARG B   4     -14.945  -6.226  12.257  1.00 48.45     0.138 C 
BRANCH  43  44
ATOM     44  NE  ARG B   4     -16.226  -6.329  12.976  1.00 55.69    -0.227 N 
ATOM     45  CZ  ARG B   4     -17.301  -7.005  12.531  1.00 58.57     0.665 C 
ATOM     46  NH1 ARG B   4     -18.426  -7.037  13.247  1.00 57.02    -0.235 N 
ATOM     47  NH2 ARG B   4     -17.251  -7.669  11.373  1.00 58.84    -0.235 N 
ATOM     48 HH12 ARG B   4     -19.109  -7.471  12.956  1.00 57.02     0.174 HD
ATOM     49 HH11 ARG B   4     -18.468  -6.623  14.000  1.00 57.02     0.174 HD
ATOM     50 HH22 ARG B   4     -17.941  -8.099  11.094  1.00 58.84     0.174 HD
ATOM     51 HH21 ARG B   4     -16.528  -7.666  10.907  1.00 58.84     0.174 HD
ATOM     52  HE  ARG B   4     -16.292  -5.929  13.734  1.00 55.69     0.177 HD
ENDBRANCH  43  44
ENDBRANCH  42  43
ENDBRANCH  41  42
ENDBRANCH  40  41
BRANCH  40  53
ATOM     53  C   ARG B   4     -13.966  -3.145   9.248  1.00 31.57     0.241 C 
ATOM     54  N   LEU B   5     -14.994  -2.313   9.322  1.00 29.97    -0.345 N 
ATOM     55  H   LEU B   5     -15.775  -2.469   8.997  1.00 29.97     0.163 HD
ATOM     56  O   ARG B   4     -12.848  -2.821   9.638  1.00 31.05    -0.271 OA
BRANCH  54  57
ATOM     57  CA  LEU B   5     -14.848  -1.031   9.989  1.00 29.37     0.185 C 
BRANCH  57  58
ATOM     58  CB  LEU B   5     -15.324   0.091   9.068  1.00 29.49     0.040 C 
BRANCH  58  59
ATOM     59  CG  LEU B   5     -14.580   0.172   7.696  1.00 26.43    -0.020 C 
ATOM     60  CD1 LEU B   5     -15.461   0.921   6.571  1.00 22.49     0.009 C 
ATOM     61  CD2 LEU B   5     -13.101   0.701   7.841  1.00 25.84     0.009 C 
ENDBRANCH  58  59
ENDBRANCH  57  58
BRANCH  57  62
ATOM     62  C   LEU B   5     -15.613  -1.062  11.341  1.00 31.79     0.196 C 
ATOM     63  O   LEU B   5     -16.292  -2.059  11.704  1.00 32.21    -0.646 OA
ATOM     64  OXT LEU B   5     -15.565  -0.067  12.075  1.00 32.71    -0.646 OA
ENDBRANCH  57  62
ENDBRANCH  54  57
ENDBRANCH  40  53
ENDBRANCH  38  40
ENDBRANCH   1  36
TORSDOF 24
