REMARK  10 active torsions:
REMARK  status: ('A' for Active; 'I' for Inactive)
REMARK    1  A    between atoms: N_1  and  CA_2 
REMARK    2  A    between atoms: CA_2  and  C_3 
REMARK       I    between atoms: C_3  and  N_9 
REMARK    3  A    between atoms: N_9  and  CA_10 
REMARK    4  A    between atoms: CA_10  and  CB_13 
REMARK    5  A    between atoms: CA_10  and  C_11 
REMARK       I    between atoms: C_11  and  N_17 
REMARK    6  A    between atoms: CA_18  and  C_19 
REMARK       I    between atoms: C_19  and  N_24 
REMARK    7  A    between atoms: N_24  and  CA_25 
REMARK    8  A    between atoms: CA_25  and  C_26 
REMARK    9  A    between atoms: CA_25  and  CB_28 
REMARK   10  A    between atoms: CB_28  and  CG1_29 
ROOT
ATOM      1  C   VAL B   2      28.003  34.841  11.073  1.00 20.42     0.243 C 
ATOM      2  O   VAL B   2      27.537  35.263  12.134  1.00 19.98    -0.271 OA
ATOM      3  N   PRO B   3      28.185  33.522  10.839  1.00 20.62    -0.337 N 
ATOM      4  CA  PRO B   3      27.736  32.537  11.831  1.00 20.39     0.179 C 
ATOM      5  CB  PRO B   3      27.341  31.355  10.940  1.00 21.35     0.037 C 
ATOM      6  CG  PRO B   3      28.258  31.414   9.759  1.00 22.27     0.022 C 
ATOM      7  CD  PRO B   3      28.465  32.903   9.517  1.00 22.13     0.127 C 
ENDROOT
BRANCH   4   8
ATOM      8  C   PRO B   3      28.791  32.169  12.876  1.00 20.13     0.241 C 
ATOM      9  N   ILE B   4      28.398  31.945  14.107  1.00 20.03    -0.344 N 
ATOM     10  H   ILE B   4      27.605  32.137  14.379  1.00 20.03     0.163 HD
ATOM     11  O   PRO B   3      30.004  32.161  12.590  1.00 24.31    -0.271 OA
BRANCH   9  12
ATOM     12  CA  ILE B   4      29.239  31.349  15.165  1.00 20.48     0.189 C 
BRANCH  12  13
ATOM     13  C   ILE B   4      28.581  30.115  15.775  1.00 21.21     0.197 C 
ATOM     14  O   ILE B   4      27.394  30.179  16.072  1.00 18.53    -0.646 OA
ATOM     15  OXT ILE B   4      29.204  29.034  16.052  1.00 22.21    -0.646 OA
ENDBRANCH  12  13
BRANCH  12  16
ATOM     16  CB  ILE B   4      29.540  32.357  16.285  1.00 24.00     0.014 C 
ATOM     17  CG2 ILE B   4      30.362  31.754  17.415  1.00 26.11     0.012 C 
BRANCH  16  18
ATOM     18  CG1 ILE B   4      30.233  33.592  15.737  1.00 29.43     0.002 C 
ATOM     19  CD1 ILE B   4      30.686  34.498  16.852  1.00 33.97     0.005 C 
ENDBRANCH  16  18
ENDBRANCH  12  16
ENDBRANCH   9  12
ENDBRANCH   4   8
BRANCH   1  20
ATOM     20  CA  VAL B   2      28.503  35.809   9.981  1.00 21.93     0.180 C 
BRANCH  20  21
ATOM     21  CB  VAL B   2      29.708  36.610  10.523  1.00 24.26     0.009 C 
ATOM     22  CG2 VAL B   2      30.271  37.486   9.389  1.00 26.21     0.012 C 
ATOM     23  CG1 VAL B   2      30.761  35.711  11.168  1.00 24.62     0.012 C 
ENDBRANCH  20  21
BRANCH  20  24
ATOM     24  N   VAL B   2      27.438  36.717   9.596  1.00 19.39    -0.346 N 
ATOM     25  C   ALA B   1      26.760  36.695   8.466  1.00 18.41     0.248 C 
ATOM     26  O   ALA B   1      26.813  35.827   7.573  1.00 21.55    -0.271 OA
ATOM     27  H   VAL B   2      27.278  37.304  10.204  1.00 19.39     0.163 HD
BRANCH  25  28
ATOM     28  CA  ALA B   1      25.718  37.798   8.335  1.00 19.20     0.270 C 
ATOM     29  CB  ALA B   1      24.590  37.553   9.381  1.00 19.41     0.050 C 
BRANCH  28  30
ATOM     30  N   ALA B   1      25.184  37.870   6.968  1.00 20.83    -0.067 N 
ATOM     31  H1  ALA B   1      24.528  38.471   6.936  1.00 20.83     0.275 HD
ATOM     32  H3  ALA B   1      24.867  37.073   6.730  1.00 20.83     0.275 HD
ATOM     33  H2  ALA B   1      25.833  38.110   6.408  1.00 20.83     0.275 HD
ENDBRANCH  28  30
ENDBRANCH  25  28
ENDBRANCH  20  24
ENDBRANCH   1  20
TORSDOF 10
