REMARK  12 active torsions:
REMARK  status: ('A' for Active; 'I' for Inactive)
REMARK    1  A    between atoms: N_1  and  CA_2 
REMARK    2  A    between atoms: CA_2  and  CB_5 
REMARK    3  A    between atoms: CA_2  and  C_3 
REMARK       I    between atoms: C_3  and  N_11 
REMARK    4  A    between atoms: CB_5  and  OG_6 
REMARK    5  A    between atoms: N_11  and  CA_12 
REMARK    6  A    between atoms: CA_12  and  CB_15 
REMARK    7  A    between atoms: CA_12  and  C_13 
REMARK       I    between atoms: C_13  and  N_19 
REMARK    8  A    between atoms: CA_20  and  C_21 
REMARK       I    between atoms: C_21  and  N_26 
REMARK    9  A    between atoms: N_26  and  CA_27 
REMARK   10  A    between atoms: CA_27  and  C_28 
REMARK   11  A    between atoms: CA_27  and  CB_30 
REMARK   12  A    between atoms: CB_30  and  CG1_31 
ROOT
ATOM      1  C   VAL B   2      28.095  34.641  11.167  1.00 16.87     0.243 C 
ATOM      2  O   VAL B   2      27.719  35.254  12.165  1.00 15.05    -0.271 OA
ATOM      3  N   PRO B   3      28.356  33.314  11.189  1.00 17.17    -0.337 N 
ATOM      4  CA  PRO B   3      28.182  32.584  12.453  1.00 17.78     0.179 C 
ATOM      5  CB  PRO B   3      28.179  31.104  12.023  1.00 18.80     0.037 C 
ATOM      6  CG  PRO B   3      28.970  31.079  10.751  1.00 20.85     0.022 C 
ATOM      7  CD  PRO B   3      28.697  32.417  10.065  1.00 18.92     0.127 C 
ENDROOT
BRANCH   1   8
ATOM      8  CA  VAL B   2      28.368  35.368   9.858  1.00 17.17     0.180 C 
BRANCH   8   9
ATOM      9  CB  VAL B   2      29.847  35.832   9.820  1.00 19.35     0.009 C 
ATOM     10  CG1 VAL B   2      30.171  36.462   8.477  1.00 20.75     0.012 C 
ATOM     11  CG2 VAL B   2      30.188  36.738  10.968  1.00 20.63     0.012 C 
ENDBRANCH   8   9
BRANCH   8  12
ATOM     12  N   VAL B   2      27.407  36.475   9.692  1.00 15.32    -0.346 N 
ATOM     13  C   SER B   1      26.748  36.644   8.559  1.00 14.89     0.251 C 
ATOM     14  O   SER B   1      26.821  35.919   7.557  1.00 16.72    -0.271 OA
ATOM     15  H   VAL B   2      27.321  36.982  10.381  1.00 15.32     0.163 HD
BRANCH  13  16
ATOM     16  CA  SER B   1      25.693  37.765   8.580  1.00 15.81     0.297 C 
BRANCH  16  17
ATOM     17  N   SER B   1      25.211  37.989   7.190  1.00 17.29    -0.064 N 
ATOM     18  H3  SER B   1      24.723  37.292   6.929  1.00 17.29     0.275 HD
ATOM     19  H1  SER B   1      24.712  38.726   7.164  1.00 17.29     0.275 HD
ATOM     20  H2  SER B   1      25.908  38.084   6.645  1.00 17.29     0.275 HD
ENDBRANCH  16  17
BRANCH  16  21
ATOM     21  CB  SER B   1      24.518  37.374   9.519  1.00 15.46     0.206 C 
BRANCH  21  22
ATOM     22  OG  SER B   1      24.089  36.042   9.247  1.00 16.65    -0.398 OA
ATOM     23  HG  SER B   1      23.962  35.951   8.422  1.00 16.65     0.209 HD
ENDBRANCH  21  22
ENDBRANCH  16  21
ENDBRANCH  13  16
ENDBRANCH   8  12
ENDBRANCH   1   8
BRANCH   4  24
ATOM     24  C   PRO B   3      29.302  32.870  13.392  1.00 20.81     0.241 C 
ATOM     25  O   PRO B   3      30.397  33.219  12.955  1.00 24.11    -0.271 OA
ATOM     26  N   ILE B   4      29.043  32.756  14.684  1.00 19.75    -0.344 N 
ATOM     27  H   ILE B   4      28.252  32.644  15.003  1.00 19.75     0.163 HD
BRANCH  26  28
ATOM     28  CA  ILE B   4      30.103  32.812  15.706  1.00 21.11     0.189 C 
BRANCH  28  29
ATOM     29  C   ILE B   4      30.540  31.386  15.962  1.00 24.50     0.197 C 
ATOM     30  OXT ILE B   4      31.730  31.038  15.748  1.00 23.18    -0.646 OA
ATOM     31  O   ILE B   4      29.700  30.554  16.364  1.00 23.14    -0.646 OA
ENDBRANCH  28  29
BRANCH  28  32
ATOM     32  CB  ILE B   4      29.582  33.451  16.975  1.00 22.38     0.014 C 
ATOM     33  CG2 ILE B   4      30.643  33.477  18.078  1.00 23.66     0.012 C 
BRANCH  32  34
ATOM     34  CG1 ILE B   4      29.116  34.866  16.638  1.00 23.74     0.002 C 
ATOM     35  CD1 ILE B   4      28.528  35.559  17.806  1.00 25.09     0.005 C 
ENDBRANCH  32  34
ENDBRANCH  28  32
ENDBRANCH  26  28
ENDBRANCH   4  24
TORSDOF 12
