REMARK  29 active torsions:
REMARK  status: ('A' for Active; 'I' for Inactive)
REMARK    1  A    between atoms: N_1  and  CA_2 
REMARK    2  A    between atoms: CA_2  and  C_3 
REMARK       I    between atoms: C_3  and  N_9 
REMARK    3  A    between atoms: N_9  and  CA_10 
REMARK    4  A    between atoms: CA_10  and  CB_13 
REMARK    5  A    between atoms: CA_10  and  C_11 
REMARK       I    between atoms: C_11  and  N_22 
REMARK    6  A    between atoms: CB_13  and  CG_14 
REMARK    7  A    between atoms: CG_14  and  CD_15 
REMARK    8  A    between atoms: CD_15  and  CE_16 
REMARK    9  A    between atoms: CE_16  and  NZ_17 
REMARK   10  A    between atoms: N_22  and  CA_23 
REMARK   11  A    between atoms: CA_23  and  CB_26 
REMARK   12  A    between atoms: CA_23  and  C_24 
REMARK       I    between atoms: C_24  and  N_32 
REMARK   13  A    between atoms: CB_26  and  CG_27 
REMARK   14  A    between atoms: CG_27  and  CD_28 
REMARK   15  A    between atoms: N_32  and  CA_33 
REMARK   16  A    between atoms: CA_33  and  C_34 
REMARK   17  A    between atoms: CA_33  and  CB_36 
REMARK       I    between atoms: C_34  and  N_45 
REMARK   18  A    between atoms: CB_36  and  CG_37 
REMARK   19  A    between atoms: CG_37  and  CD_38 
REMARK   20  A    between atoms: CD_38  and  CE_39 
REMARK   21  A    between atoms: CE_39  and  NZ_40 
REMARK   22  A    between atoms: N_45  and  CA_46 
REMARK   23  A    between atoms: CA_46  and  CB_49 
REMARK   24  A    between atoms: CA_46  and  C_47 
REMARK       I    between atoms: C_47  and  N_53 
REMARK   25  A    between atoms: CB_49  and  OG_50 
REMARK   26  A    between atoms: N_53  and  CA_54 
REMARK   27  A    between atoms: CA_54  and  CB_57 
REMARK   28  A    between atoms: CA_54  and  C_55 
REMARK   29  A    between atoms: CB_57  and  CG_58 
ROOT
ATOM      1  C   GLU D   2     -28.685 -15.451   3.163  1.00 31.02     0.241 C 
ATOM      2  O   GLU D   2     -28.378 -16.303   2.326  1.00 27.38    -0.271 OA
ATOM      3  N   LYS D   3     -28.891 -14.164   2.856  1.00 31.55    -0.346 N 
ATOM      4  H   LYS D   3     -29.243 -13.591   3.393  1.00 31.55     0.163 HD
ENDROOT
BRANCH   1   5
ATOM      5  CA  GLU D   2     -28.842 -15.833   4.637  1.00 33.66     0.177 C 
BRANCH   5   6
ATOM      6  CB  GLU D   2     -27.499 -15.664   5.334  1.00 31.60     0.045 C 
BRANCH   6   7
ATOM      7  CG  GLU D   2     -27.611 -15.639   6.832  1.00 40.13     0.116 C 
BRANCH   7   8
ATOM      8  CD  GLU D   2     -26.249 -15.560   7.476  1.00 42.76     0.172 C 
ATOM      9  OE2 GLU D   2     -25.808 -16.583   8.032  1.00 44.96    -0.648 OA
ATOM     10  OE1 GLU D   2     -25.603 -14.492   7.372  1.00 41.64    -0.648 OA
ENDBRANCH   7   8
ENDBRANCH   6   7
ENDBRANCH   5   6
BRANCH   5  11
ATOM     11  N   GLU D   2     -29.293 -17.221   4.742  1.00 44.67    -0.346 N 
ATOM     12  H   GLU D   2     -28.726 -17.769   5.086  1.00 44.67     0.163 HD
ATOM     13  C   LYS D   1     -30.507 -17.547   4.316  1.00 49.40     0.241 C 
ATOM     14  O   LYS D   1     -31.357 -16.698   4.022  1.00 45.15    -0.271 OA
BRANCH  13  15
ATOM     15  CA  LYS D   1     -30.826 -19.028   4.169  1.00 54.12     0.176 C 
BRANCH  15  16
ATOM     16  CB  LYS D   1     -31.073 -19.285   2.677  1.00 51.59     0.035 C 
BRANCH  16  17
ATOM     17  CG  LYS D   1     -30.292 -20.412   2.073  1.00 49.71     0.004 C 
BRANCH  17  18
ATOM     18  CD  LYS D   1     -28.840 -20.045   1.808  1.00 43.42     0.027 C 
BRANCH  18  19
ATOM     19  CE  LYS D   1     -28.264 -21.096   0.893  1.00 42.27     0.229 C 
BRANCH  19  20
ATOM     20  NZ  LYS D   1     -26.804 -21.280   0.952  1.00 37.99    -0.079 N 
ATOM     21  HZ2 LYS D   1     -26.399 -20.536   0.679  1.00 37.99     0.274 HD
ATOM     22  HZ1 LYS D   1     -26.568 -21.956   0.423  1.00 37.99     0.274 HD
ATOM     23  HZ3 LYS D   1     -26.561 -21.460   1.789  1.00 37.99     0.274 HD
ENDBRANCH  19  20
ENDBRANCH  18  19
ENDBRANCH  17  18
ENDBRANCH  16  17
ENDBRANCH  15  16
BRANCH  15  24
ATOM     24  N   LYS D   1     -32.047 -19.324   4.909  1.00 57.33    -0.346 N 
ATOM     25  C   ALA D   0     -32.138 -19.256   6.240  1.00 63.38     0.248 C 
ATOM     26  O   ALA D   0     -31.158 -19.108   6.986  1.00 63.83    -0.271 OA
ATOM     27  H   LYS D   1     -32.707 -19.548   4.406  1.00 57.33     0.163 HD
BRANCH  25  28
ATOM     28  CA  ALA D   0     -33.558 -19.371   6.818  1.00 65.61     0.270 C 
ATOM     29  CB  ALA D   0     -34.610 -19.458   5.685  1.00 68.28     0.050 C 
BRANCH  28  30
ATOM     30  N   ALA D   0     -33.850 -18.232   7.682  1.00 67.78    -0.067 N 
ATOM     31  H3  ALA D   0     -33.789 -17.479   7.212  1.00 67.78     0.275 HD
ATOM     32  H2  ALA D   0     -33.265 -18.210   8.353  1.00 67.78     0.275 HD
ATOM     33  H1  ALA D   0     -34.674 -18.311   8.009  1.00 67.78     0.275 HD
ENDBRANCH  28  30
ENDBRANCH  25  28
ENDBRANCH  15  24
ENDBRANCH  13  15
ENDBRANCH   5  11
ENDBRANCH   1   5
BRANCH   3  34
ATOM     34  CA  LYS D   3     -28.524 -13.625   1.554  1.00 28.89     0.176 C 
BRANCH  34  35
ATOM     35  C   LYS D   3     -29.314 -14.348   0.484  1.00 25.10     0.241 C 
ATOM     36  O   LYS D   3     -28.800 -14.652  -0.588  1.00 27.04    -0.271 OA
ATOM     37  N   SER D   4     -30.585 -14.578   0.811  1.00 24.57    -0.344 N 
ATOM     38  H   SER D   4     -30.921 -14.325   1.561  1.00 24.57     0.163 HD
BRANCH  37  39
ATOM     39  CA  SER D   4     -31.543 -15.268  -0.036  1.00 30.79     0.200 C 
BRANCH  39  40
ATOM     40  CB  SER D   4     -32.789 -15.543   0.844  1.00 34.88     0.199 C 
BRANCH  40  41
ATOM     41  OG  SER D   4     -33.789 -16.291   0.211  1.00 44.92    -0.398 OA
ATOM     42  HG  SER D   4     -34.431 -16.405   0.740  1.00 44.92     0.209 HD
ENDBRANCH  40  41
ENDBRANCH  39  40
BRANCH  39  43
ATOM     43  C   SER D   4     -31.909 -14.367  -1.219  1.00 32.71     0.243 C 
ATOM     44  O   SER D   4     -32.123 -14.854  -2.333  1.00 26.72    -0.271 OA
ATOM     45  N   ASP D   5     -31.988 -13.051  -1.000  1.00 33.82    -0.344 N 
ATOM     46  H   ASP D   5     -31.778 -12.656  -0.265  1.00 33.82     0.163 HD
BRANCH  45  47
ATOM     47  CA  ASP D   5     -32.469 -12.174  -2.082  1.00 26.21     0.195 C 
BRANCH  47  48
ATOM     48  CB  ASP D   5     -32.918 -10.784  -1.593  1.00 31.21     0.149 C 
BRANCH  48  49
ATOM     49  CG  ASP D   5     -34.176 -10.824  -0.733  1.00 42.12     0.175 C 
ATOM     50  OD2 ASP D   5     -34.395  -9.840   0.009  1.00 42.23    -0.648 OA
ATOM     51  OD1 ASP D   5     -34.916 -11.823  -0.770  1.00 39.47    -0.648 OA
ENDBRANCH  48  49
ENDBRANCH  47  48
BRANCH  47  52
ATOM     52  C   ASP D   5     -31.401 -11.968  -3.145  1.00 28.95     0.197 C 
ATOM     53  OXT ASP D   5     -31.722 -11.492  -4.249  1.00 28.91    -0.646 OA
ATOM     54  O   ASP D   5     -30.219 -12.234  -2.916  1.00 26.13    -0.646 OA
ENDBRANCH  47  52
ENDBRANCH  45  47
ENDBRANCH  39  43
ENDBRANCH  37  39
ENDBRANCH  34  35
BRANCH  34  55
ATOM     55  CB  LYS D   3     -27.004 -13.744   1.336  1.00 31.87     0.035 C 
BRANCH  55  56
ATOM     56  CG  LYS D   3     -26.218 -12.756   2.198  1.00 32.54     0.004 C 
BRANCH  56  57
ATOM     57  CD  LYS D   3     -26.315 -11.427   1.465  1.00 38.19     0.027 C 
BRANCH  57  58
ATOM     58  CE  LYS D   3     -25.504 -10.338   2.091  1.00 36.51     0.229 C 
BRANCH  58  59
ATOM     59  NZ  LYS D   3     -25.822  -9.076   1.393  1.00 31.52    -0.079 N 
ATOM     60  HZ2 LYS D   3     -25.439  -9.076   0.590  1.00 31.52     0.274 HD
ATOM     61  HZ1 LYS D   3     -25.515  -8.389   1.868  1.00 31.52     0.274 HD
ATOM     62  HZ3 LYS D   3     -26.704  -9.002   1.301  1.00 31.52     0.274 HD
ENDBRANCH  58  59
ENDBRANCH  57  58
ENDBRANCH  56  57
ENDBRANCH  55  56
ENDBRANCH  34  55
ENDBRANCH   3  34
TORSDOF 29
