REMARK  20 active torsions:
REMARK  status: ('A' for Active; 'I' for Inactive)
REMARK    1  A    between atoms: N_1  and  CA_2 
REMARK    2  A    between atoms: CA_2  and  C_3 
REMARK    3  A    between atoms: CA_2  and  CB_5 
REMARK       I    between atoms: C_3  and  N_16 
REMARK    4  A    between atoms: CB_5  and  CG_6 
REMARK    5  A    between atoms: CG_6  and  CD_7 
REMARK    6  A    between atoms: CD_7  and  CE_8 
REMARK    7  A    between atoms: CE_8  and  NZ_9 
REMARK    8  A    between atoms: CA_17  and  C_18 
REMARK       I    between atoms: C_18  and  N_23 
REMARK    9  A    between atoms: N_23  and  CA_24 
REMARK   10  A    between atoms: CA_24  and  CB_27 
REMARK   11  A    between atoms: CA_24  and  C_25 
REMARK       I    between atoms: C_25  and  N_34 
REMARK   12  A    between atoms: CB_27  and  CG_28 
REMARK   13  A    between atoms: N_34  and  CA_35 
REMARK   14  A    between atoms: CA_35  and  CB_38 
REMARK   15  A    between atoms: CA_35  and  C_36 
REMARK       I    between atoms: C_36  and  N_42 
REMARK   16  A    between atoms: CB_38  and  OG_39 
REMARK   17  A    between atoms: N_42  and  CA_43 
REMARK   18  A    between atoms: CA_43  and  CB_46 
REMARK   19  A    between atoms: CA_43  and  C_44 
REMARK   20  A    between atoms: CB_46  and  CG_47 
ROOT
ATOM      1  CA  HIS C   3    -135.166  50.137  65.538  1.00 14.15     0.182 C 
ENDROOT
BRANCH   1   2
ATOM      2  N   HIS C   3    -136.082  49.020  65.457  1.00 14.43    -0.346 N 
ATOM      3  C   PRO C   2    -135.722  47.792  65.807  1.00 20.79     0.241 C 
ATOM      4  O   PRO C   2    -134.587  47.501  66.165  1.00 15.59    -0.271 OA
ATOM      5  H   HIS C   3    -136.865  49.225  65.166  1.00 14.43     0.163 HD
BRANCH   3   6
ATOM      6  CA  PRO C   2    -136.806  46.719  65.751  1.00 18.69     0.179 C 
ATOM      7  N   PRO C   2    -136.249  45.420  65.370  1.00 22.33    -0.337 N 
ATOM      8  C   LYS C   1    -135.669  45.256  64.188  1.00 22.74     0.251 C 
ATOM      9  CD  PRO C   2    -136.584  44.369  66.346  1.00 22.53     0.127 C 
ATOM     10  O   LYS C   1    -135.602  46.154  63.352  1.00 19.84    -0.271 OA
ATOM     11  CG  PRO C   2    -137.651  45.008  67.183  1.00 25.33     0.022 C 
ATOM     12  CB  PRO C   2    -137.357  46.466  67.154  1.00 21.74     0.037 C 
BRANCH   8  13
ATOM     13  CA  LYS C   1    -135.028  43.899  63.909  1.00 25.81     0.275 C 
BRANCH  13  14
ATOM     14  N   LYS C   1    -135.426  43.415  62.591  1.00 28.38    -0.067 N 
ATOM     15  H3  LYS C   1    -135.671  44.104  62.083  1.00 28.38     0.275 HD
ATOM     16  H2  LYS C   1    -136.110  42.851  62.675  1.00 28.38     0.275 HD
ATOM     17  H1  LYS C   1    -134.741  42.994  62.210  1.00 28.38     0.275 HD
ENDBRANCH  13  14
BRANCH  13  18
ATOM     18  CB  LYS C   1    -133.506  44.013  63.987  1.00 28.10     0.042 C 
BRANCH  18  19
ATOM     19  CG  LYS C   1    -132.983  44.521  65.316  1.00 29.36     0.004 C 
BRANCH  19  20
ATOM     20  CD  LYS C   1    -131.498  44.846  65.216  1.00 23.94     0.027 C 
BRANCH  20  21
ATOM     21  CE  LYS C   1    -130.634  43.608  65.371  1.00 22.49     0.229 C 
BRANCH  21  22
ATOM     22  NZ  LYS C   1    -130.627  43.181  66.789  1.00 23.53    -0.079 N 
ATOM     23  HZ1 LYS C   1    -129.853  42.783  66.976  1.00 23.53     0.274 HD
ATOM     24  HZ2 LYS C   1    -130.729  43.892  67.314  1.00 23.53     0.274 HD
ATOM     25  HZ3 LYS C   1    -131.295  42.610  66.931  1.00 23.53     0.274 HD
ENDBRANCH  21  22
ENDBRANCH  20  21
ENDBRANCH  19  20
ENDBRANCH  18  19
ENDBRANCH  13  18
ENDBRANCH   8  13
ENDBRANCH   3   6
ENDBRANCH   1   2
BRANCH   1  26
ATOM     26  CB  HIS C   3    -134.910  50.504  66.993  1.00 14.42     0.095 C 
BRANCH  26  27
ATOM     27  CG  HIS C   3    -136.020  51.308  67.614  1.00 17.65     0.056 A 
ATOM     28  ND1 HIS C   3    -137.186  50.759  67.983  1.00 19.76    -0.245 NA
ATOM     29  CE1 HIS C   3    -137.987  51.712  68.490  1.00 20.53     0.232 A 
ATOM     30  NE2 HIS C   3    -137.330  52.876  68.440  1.00 17.64    -0.252 NA
ATOM     31  CD2 HIS C   3    -136.115  52.665  67.903  1.00 21.96     0.145 A 
ENDBRANCH  26  27
ENDBRANCH   1  26
BRANCH   1  32
ATOM     32  C   HIS C   3    -133.870  49.893  64.832  1.00 15.49     0.241 C 
ATOM     33  N   SER C   4    -133.950  49.404  63.599  1.00 15.13    -0.344 N 
ATOM     34  H   SER C   4    -134.687  49.206  63.203  1.00 15.13     0.163 HD
ATOM     35  O   HIS C   3    -132.787  50.156  65.387  1.00 14.84    -0.271 OA
BRANCH  33  36
ATOM     36  CA  SER C   4    -132.750  49.163  62.809  1.00 18.69     0.200 C 
BRANCH  36  37
ATOM     37  CB  SER C   4    -133.005  48.121  61.717  1.00 23.38     0.199 C 
BRANCH  37  38
ATOM     38  OG  SER C   4    -134.114  48.478  60.920  1.00 30.32    -0.398 OA
ATOM     39  HG  SER C   4    -134.821  48.378  61.362  1.00 30.32     0.209 HD
ENDBRANCH  37  38
ENDBRANCH  36  37
BRANCH  36  40
ATOM     40  C   SER C   4    -132.210  50.458  62.206  1.00 18.90     0.243 C 
ATOM     41  N   ASP C   5    -133.086  51.439  62.015  1.00 17.72    -0.344 N 
ATOM     42  H   ASP C   5    -133.929  51.371  62.170  1.00 17.72     0.163 HD
ATOM     43  O   SER C   4    -131.023  50.564  61.931  1.00 16.42    -0.271 OA
BRANCH  41  44
ATOM     44  CA  ASP C   5    -132.663  52.742  61.512  1.00 16.40     0.195 C 
BRANCH  44  45
ATOM     45  CB  ASP C   5    -133.867  53.576  61.054  1.00 18.53     0.149 C 
BRANCH  45  46
ATOM     46  CG  ASP C   5    -134.399  53.152  59.695  1.00 25.22     0.175 C 
ATOM     47  OD2 ASP C   5    -135.433  53.712  59.275  1.00 28.97    -0.648 OA
ATOM     48  OD1 ASP C   5    -133.785  52.281  59.043  1.00 27.70    -0.648 OA
ENDBRANCH  45  46
ENDBRANCH  44  45
BRANCH  44  49
ATOM     49  C   ASP C   5    -131.891  53.517  62.568  1.00 17.83     0.197 C 
ATOM     50  O   ASP C   5    -131.258  54.538  62.265  1.00 18.34    -0.646 OA
ATOM     51  OXT ASP C   5    -131.889  53.155  63.755  1.00 17.06    -0.646 OA
ENDBRANCH  44  49
ENDBRANCH  41  44
ENDBRANCH  36  40
ENDBRANCH  33  36
ENDBRANCH   1  32
TORSDOF 20
