REMARK  20 active torsions:
REMARK  status: ('A' for Active; 'I' for Inactive)
REMARK    1  A    between atoms: CA_2  and  C_3 
REMARK    2  A    between atoms: CA_2  and  CB_5 
REMARK       I    between atoms: C_3  and  N_17 
REMARK    3  A    between atoms: CB_5  and  CG_6 
REMARK    4  A    between atoms: CG_6  and  CD_7 
REMARK    5  A    between atoms: CD_7  and  NE_8 
REMARK       I    between atoms: NE_8  and  CZ_9 
REMARK       I    between atoms: CZ_9  and  NH1_10 
REMARK    6  A    between atoms: N_17  and  CA_18 
REMARK    7  A    between atoms: CA_18  and  C_19 
REMARK    8  A    between atoms: CA_18  and  CB_21 
REMARK       I    between atoms: C_19  and  N_30 
REMARK    9  A    between atoms: CB_21  and  CG_22 
REMARK   10  A    between atoms: CG_22  and  CD_23 
REMARK   11  A    between atoms: CD_23  and  CE_24 
REMARK   12  A    between atoms: CE_24  and  NZ_25 
REMARK   13  A    between atoms: N_30  and  CA_31 
REMARK   14  A    between atoms: CA_31  and  CB_34 
REMARK   15  A    between atoms: CA_31  and  C_32 
REMARK       I    between atoms: C_32  and  N_39 
REMARK   16  A    between atoms: CB_34  and  CG_35 
REMARK   17  A    between atoms: N_39  and  CA_40 
REMARK   18  A    between atoms: CA_40  and  C_41 
REMARK   19  A    between atoms: CA_40  and  CB_43 
REMARK   20  A    between atoms: CB_43  and  CG_44 
ROOT
ATOM      1  CA  LYS D   8      18.480-118.409 161.718  1.00 12.19     0.176 C 
ENDROOT
BRANCH   1   2
ATOM      2  C   LYS D   8      17.943-117.833 160.409  1.00 13.86     0.241 C 
ATOM      3  O   LYS D   8      16.782-118.052 160.058  1.00 13.19    -0.271 OA
ATOM      4  N   LEU D   9      18.777-117.108 159.670  1.00 13.79    -0.346 N 
ATOM      5  H   LEU D   9      19.595-116.942 159.878  1.00 13.79     0.163 HD
BRANCH   4   6
ATOM      6  CA  LEU D   9      18.334-116.527 158.410  1.00 13.45     0.177 C 
BRANCH   6   7
ATOM      7  CB  LEU D   9      19.292-115.421 157.967  1.00 15.24     0.038 C 
BRANCH   7   8
ATOM      8  CG  LEU D   9      18.962-114.747 156.635  1.00 15.65    -0.020 C 
ATOM      9  CD1 LEU D   9      17.570-114.144 156.668  1.00 23.17     0.009 C 
ATOM     10  CD2 LEU D   9      19.990-113.671 156.348  1.00 23.01     0.009 C 
ENDBRANCH   7   8
ENDBRANCH   6   7
BRANCH   6  11
ATOM     11  C   LEU D   9      18.163-117.566 157.298  1.00 13.91     0.241 C 
ATOM     12  N   ASP D  10      19.049-118.557 157.264  1.00 15.10    -0.344 N 
ATOM     13  H   ASP D  10      19.674-118.660 157.845  1.00 15.10     0.163 HD
ATOM     14  O   LEU D   9      17.233-117.472 156.496  1.00 14.13    -0.271 OA
BRANCH  12  15
ATOM     15  CA  ASP D  10      19.032-119.575 156.212  1.00 14.88     0.195 C 
BRANCH  15  16
ATOM     16  C   ASP D  10      17.863-120.544 156.348  1.00 18.09     0.197 C 
ATOM     17  O   ASP D  10      17.535-121.252 155.394  1.00 15.20    -0.646 OA
ATOM     18  OXT ASP D  10      17.236-120.656 157.405  1.00 15.71    -0.646 OA
ENDBRANCH  15  16
BRANCH  15  19
ATOM     19  CB  ASP D  10      20.338-120.374 156.209  1.00 14.49     0.149 C 
BRANCH  19  20
ATOM     20  CG  ASP D  10      21.528-119.553 155.752  1.00 20.14     0.175 C 
ATOM     21  OD2 ASP D  10      22.667-120.028 155.935  1.00 22.62    -0.648 OA
ATOM     22  OD1 ASP D  10      21.328-118.448 155.204  1.00 23.52    -0.648 OA
ENDBRANCH  19  20
ENDBRANCH  15  19
ENDBRANCH  12  15
ENDBRANCH   6  11
ENDBRANCH   4   6
ENDBRANCH   1   2
BRANCH   1  23
ATOM     23  CB  LYS D   8      17.304-118.869 162.585  1.00 14.93     0.035 C 
BRANCH  23  24
ATOM     24  CG  LYS D   8      17.697-119.766 163.741  1.00 16.49     0.004 C 
BRANCH  24  25
ATOM     25  CD  LYS D   8      18.021-121.154 163.245  1.00 20.48     0.027 C 
BRANCH  25  26
ATOM     26  CE  LYS D   8      18.557-122.034 164.354  1.00 18.72     0.229 C 
BRANCH  26  27
ATOM     27  NZ  LYS D   8      19.053-123.315 163.786  1.00 16.35    -0.079 N 
ATOM     28  HZ2 LYS D   8      18.363-123.801 163.503  1.00 16.35     0.274 HD
ATOM     29  HZ3 LYS D   8      19.597-123.146 163.102  1.00 16.35     0.274 HD
ATOM     30  HZ1 LYS D   8      19.496-123.766 164.413  1.00 16.35     0.274 HD
ENDBRANCH  26  27
ENDBRANCH  25  26
ENDBRANCH  24  25
ENDBRANCH  23  24
ENDBRANCH   1  23
BRANCH   1  31
ATOM     31  N   LYS D   8      19.321-117.469 162.458  1.00 12.29    -0.346 N 
ATOM     32  C   ARG D   7      18.891-116.256 162.807  1.00 12.18     0.257 C 
ATOM     33  O   ARG D   7      17.785-115.828 162.506  1.00 12.68    -0.271 OA
ATOM     34  H   LYS D   8      20.106-117.769 162.643  1.00 12.29     0.163 HD
BRANCH  32  35
ATOM     35  CA  ARG D   7      19.853-115.393 163.621  1.00 18.47     0.400 C 
ATOM     36  N   ARG D   7      19.928-114.039 163.075  1.00 16.79     0.615 N 
BRANCH  35  37
ATOM     37  CB  ARG D   7      19.389-115.341 165.078  1.00 18.75     0.053 C 
BRANCH  37  38
ATOM     38  CG  ARG D   7      19.299-116.699 165.763  1.00 15.67     0.023 C 
BRANCH  38  39
ATOM     39  CD  ARG D   7      20.666-117.169 166.252  1.00 21.79     0.138 C 
BRANCH  39  40
ATOM     40  NE  ARG D   7      20.618-118.499 166.860  1.00 19.93    -0.227 N 
ATOM     41  CZ  ARG D   7      20.396-118.727 168.153  1.00 19.53     0.665 C 
ATOM     42  NH2 ARG D   7      20.377-119.970 168.603  1.00 23.42    -0.235 N 
ATOM     43  NH1 ARG D   7      20.193-117.721 168.993  1.00 23.45    -0.235 N 
ATOM     44 HH22 ARG D   7      20.234-120.123 169.437  1.00 23.42     0.174 HD
ATOM     45 HH21 ARG D   7      20.508-120.625 168.062  1.00 23.42     0.174 HD
ATOM     46 HH12 ARG D   7      20.050-117.879 169.826  1.00 23.45     0.174 HD
ATOM     47 HH11 ARG D   7      20.204-116.911 168.704  1.00 23.45     0.174 HD
ATOM     48  HE  ARG D   7      20.741-119.179 166.348  1.00 19.93     0.177 HD
ENDBRANCH  39  40
ENDBRANCH  38  39
ENDBRANCH  37  38
ENDBRANCH  35  37
ENDBRANCH  32  35
ENDBRANCH   1  31
TORSDOF 20
