REMARK  30 active torsions:
REMARK  status: ('A' for Active; 'I' for Inactive)
REMARK    1  A    between atoms: N_1  and  CA_2 
REMARK    2  A    between atoms: CA_2  and  CB_5 
REMARK    3  A    between atoms: CA_2  and  C_3 
REMARK       I    between atoms: C_3  and  N_12 
REMARK    4  A    between atoms: CB_5  and  CG_6 
REMARK    5  A    between atoms: N_12  and  CA_13 
REMARK    6  A    between atoms: CA_13  and  C_14 
REMARK    7  A    between atoms: CA_13  and  CB_16 
REMARK       I    between atoms: C_14  and  N_25 
REMARK    8  A    between atoms: CB_16  and  CG_17 
REMARK    9  A    between atoms: CG_17  and  CD_18 
REMARK   10  A    between atoms: CD_18  and  CE_19 
REMARK   11  A    between atoms: CE_19  and  NZ_20 
REMARK   12  A    between atoms: N_25  and  CA_26 
REMARK   13  A    between atoms: CA_26  and  C_27 
REMARK   14  A    between atoms: CA_26  and  CB_29 
REMARK       I    between atoms: C_27  and  N_34 
REMARK   15  A    between atoms: CB_29  and  OG1_30 
REMARK   16  A    between atoms: N_34  and  CA_35 
REMARK   17  A    between atoms: CA_35  and  CB_38 
REMARK   18  A    between atoms: CA_35  and  C_36 
REMARK       I    between atoms: C_36  and  N_47 
REMARK   19  A    between atoms: CB_38  and  CG_39 
REMARK   20  A    between atoms: CG_39  and  CD_40 
REMARK   21  A    between atoms: CD_40  and  CE_41 
REMARK   22  A    between atoms: CE_41  and  NZ_42 
REMARK   23  A    between atoms: N_47  and  CA_48 
REMARK   24  A    between atoms: CA_48  and  CB_51 
REMARK   25  A    between atoms: CA_48  and  C_49 
REMARK       I    between atoms: C_49  and  N_56 
REMARK   26  A    between atoms: CB_51  and  CG_52 
REMARK   27  A    between atoms: N_56  and  CA_57 
REMARK   28  A    between atoms: CA_57  and  CB_60 
REMARK   29  A    between atoms: CA_57  and  C_58 
REMARK   30  A    between atoms: CB_60  and  CG_61 
ROOT
ATOM      1  C   THR B   3     -31.502 -18.721   9.053  1.00 25.84     0.243 C 
ATOM      2  O   THR B   3     -30.712 -19.369   9.662  1.00 21.55    -0.271 OA
ATOM      3  N   LYS B   4     -31.170 -17.639   8.378  1.00 22.14    -0.346 N 
ATOM      4  H   LYS B   4     -31.735 -17.161   7.940  1.00 22.14     0.163 HD
ENDROOT
BRANCH   1   5
ATOM      5  CA  THR B   3     -32.973 -19.139   8.992  1.00 27.73     0.205 C 
BRANCH   5   6
ATOM      6  N   THR B   3     -33.165 -20.379   9.673  1.00 40.69    -0.344 N 
ATOM      7  C   LYS B   2     -33.754 -21.371   9.083  1.00 44.89     0.241 C 
ATOM      8  O   LYS B   2     -34.222 -21.280   7.989  1.00 60.56    -0.271 OA
ATOM      9  H   THR B   3     -32.864 -20.401  10.478  1.00 40.69     0.163 HD
BRANCH   7  10
ATOM     10  CA  LYS B   2     -33.799 -22.668   9.857  1.00 29.71     0.176 C 
BRANCH  10  11
ATOM     11  N   LYS B   2     -34.915 -23.447   9.392  1.00 39.55    -0.346 N 
ATOM     12  H   LYS B   2     -34.828 -23.758   8.595  1.00 39.55     0.163 HD
ATOM     13  C   LEU B   1     -35.971 -23.648  10.153  1.00 48.29     0.249 C 
ATOM     14  O   LEU B   1     -35.906 -23.571  11.316  1.00 42.73    -0.271 OA
BRANCH  13  15
ATOM     15  CA  LEU B   1     -37.328 -24.053   9.527  1.00 50.99     0.275 C 
BRANCH  15  16
ATOM     16  N   LEU B   1     -37.727 -23.509   8.227  1.00 47.15    -0.066 N 
ATOM     17  H3  LEU B   1     -37.128 -23.742   7.611  1.00 47.15     0.275 HD
ATOM     18  H2  LEU B   1     -37.770 -22.621   8.277  1.00 47.15     0.275 HD
ATOM     19  H1  LEU B   1     -38.525 -23.832   8.002  1.00 47.15     0.275 HD
ENDBRANCH  15  16
BRANCH  15  20
ATOM     20  CB  LEU B   1     -37.445 -25.561   9.585  1.00 20.00     0.046 C 
BRANCH  20  21
ATOM     21  CG  LEU B   1     -36.646 -26.192  10.679  1.00 20.00    -0.020 C 
ATOM     22  CD1 LEU B   1     -37.405 -27.163  11.570  1.00 20.00     0.009 C 
ATOM     23  CD2 LEU B   1     -35.355 -26.787  10.210  1.00 20.00     0.009 C 
ENDBRANCH  20  21
ENDBRANCH  15  20
ENDBRANCH  13  15
ENDBRANCH  10  11
BRANCH  10  24
ATOM     24  CB  LYS B   2     -32.456 -23.381   9.709  1.00 39.10     0.035 C 
BRANCH  24  25
ATOM     25  CG  LYS B   2     -32.026 -24.034  10.986  1.00 49.91     0.004 C 
BRANCH  25  26
ATOM     26  CD  LYS B   2     -30.609 -24.486  10.947  1.00 34.11     0.027 C 
BRANCH  26  27
ATOM     27  CE  LYS B   2     -29.687 -23.493  11.552  1.00 29.48     0.229 C 
BRANCH  27  28
ATOM     28  NZ  LYS B   2     -30.093 -23.045  12.867  1.00 22.12    -0.079 N 
ATOM     29  HZ2 LYS B   2     -30.777 -22.481  12.791  1.00 22.12     0.274 HD
ATOM     30  HZ1 LYS B   2     -29.412 -22.632  13.264  1.00 22.12     0.274 HD
ATOM     31  HZ3 LYS B   2     -30.340 -23.746  13.357  1.00 22.12     0.274 HD
ENDBRANCH  27  28
ENDBRANCH  26  27
ENDBRANCH  25  26
ENDBRANCH  24  25
ENDBRANCH  10  24
ENDBRANCH   7  10
ENDBRANCH   5   6
BRANCH   5  32
ATOM     32  CB  THR B   3     -33.960 -18.092   9.533  1.00 28.72     0.146 C 
ATOM     33  CG2 THR B   3     -33.613 -17.715  10.871  1.00 25.30     0.042 C 
BRANCH  32  34
ATOM     34  OG1 THR B   3     -33.963 -16.948   8.692  1.00 33.89    -0.393 OA
ATOM     35  HG1 THR B   3     -34.505 -16.381   8.992  1.00 33.89     0.210 HD
ENDBRANCH  32  34
ENDBRANCH   5  32
ENDBRANCH   1   5
BRANCH   3  36
ATOM     36  CA  LYS B   4     -29.813 -17.150   8.310  1.00 23.55     0.176 C 
BRANCH  36  37
ATOM     37  CB  LYS B   4     -29.346 -16.666   9.655  1.00 17.52     0.035 C 
BRANCH  37  38
ATOM     38  CG  LYS B   4     -30.023 -15.436  10.182  1.00 21.24     0.004 C 
BRANCH  38  39
ATOM     39  CD  LYS B   4     -29.879 -14.249   9.256  1.00 20.05     0.027 C 
BRANCH  39  40
ATOM     40  CE  LYS B   4     -30.572 -13.023   9.827  1.00 29.11     0.229 C 
BRANCH  40  41
ATOM     41  NZ  LYS B   4     -30.142 -11.789   9.156  1.00 27.01    -0.079 N 
ATOM     42  HZ3 LYS B   4     -30.322 -11.846   8.286  1.00 27.01     0.274 HD
ATOM     43  HZ1 LYS B   4     -30.577 -11.095   9.504  1.00 27.01     0.274 HD
ATOM     44  HZ2 LYS B   4     -29.266 -11.678   9.271  1.00 27.01     0.274 HD
ENDBRANCH  40  41
ENDBRANCH  39  40
ENDBRANCH  38  39
ENDBRANCH  37  38
ENDBRANCH  36  37
BRANCH  36  45
ATOM     45  C   LYS B   4     -28.839 -18.230   7.795  1.00 22.27     0.241 C 
ATOM     46  N   LEU B   5     -29.175 -18.824   6.678  1.00 20.84    -0.346 N 
ATOM     47  H   LEU B   5     -29.897 -18.662   6.240  1.00 20.84     0.163 HD
ATOM     48  O   LYS B   4     -27.850 -18.506   8.398  1.00 21.40    -0.271 OA
BRANCH  46  49
ATOM     49  CA  LEU B   5     -28.332 -19.816   6.095  1.00 17.17     0.177 C 
BRANCH  49  50
ATOM     50  CB  LEU B   5     -29.149 -20.847   5.381  1.00 24.05     0.038 C 
BRANCH  50  51
ATOM     51  CG  LEU B   5     -30.238 -21.442   6.201  1.00 29.68    -0.020 C 
ATOM     52  CD1 LEU B   5     -31.133 -22.129   5.227  1.00 40.26     0.009 C 
ATOM     53  CD2 LEU B   5     -29.700 -22.354   7.240  1.00 27.30     0.009 C 
ENDBRANCH  50  51
ENDBRANCH  49  50
BRANCH  49  54
ATOM     54  C   LEU B   5     -27.340 -19.277   5.116  1.00 24.14     0.241 C 
ATOM     55  N   LEU B   6     -27.565 -18.106   4.571  1.00 19.58    -0.345 N 
ATOM     56  H   LEU B   6     -28.259 -17.616   4.707  1.00 19.58     0.163 HD
ATOM     57  O   LEU B   5     -26.405 -19.925   4.829  1.00 22.75    -0.271 OA
BRANCH  55  58
ATOM     58  CA  LEU B   6     -26.587 -17.571   3.667  1.00 30.46     0.185 C 
BRANCH  58  59
ATOM     59  CB  LEU B   6     -27.124 -16.389   2.843  1.00 23.52     0.040 C 
BRANCH  59  60
ATOM     60  CG  LEU B   6     -28.221 -16.655   1.847  1.00 29.01    -0.020 C 
ATOM     61  CD2 LEU B   6     -27.777 -17.501   0.688  1.00 23.42     0.009 C 
ATOM     62  CD1 LEU B   6     -28.762 -15.369   1.310  1.00 27.14     0.009 C 
ENDBRANCH  59  60
ENDBRANCH  58  59
BRANCH  58  63
ATOM     63  C   LEU B   6     -25.292 -17.196   4.386  1.00 34.06     0.196 C 
ATOM     64  O   LEU B   6     -24.282 -17.214   3.747  1.00 28.47    -0.646 OA
ATOM     65  OXT LEU B   6     -25.339 -16.946   5.488  1.00 31.04    -0.646 OA
ENDBRANCH  58  63
ENDBRANCH  55  58
ENDBRANCH  49  54
ENDBRANCH  46  49
ENDBRANCH  36  45
ENDBRANCH   3  36
TORSDOF 30
