REMARK  18 active torsions:
REMARK  status: ('A' for Active; 'I' for Inactive)
REMARK    1  A    between atoms: CA_2  and  C_3 
REMARK       I    between atoms: C_3  and  N_8 
REMARK    2  A    between atoms: N_8  and  CA_9 
REMARK    3  A    between atoms: CA_9  and  C_10 
REMARK    4  A    between atoms: CA_9  and  CB_12 
REMARK       I    between atoms: C_10  and  N_25 
REMARK    5  A    between atoms: CB_12  and  CG_13 
REMARK    6  A    between atoms: CG_13  and  CD_14 
REMARK    7  A    between atoms: CD_14  and  NE_15 
REMARK       I    between atoms: NE_15  and  CZ_16 
REMARK       I    between atoms: CZ_16  and  NH1_17 
REMARK    8  A    between atoms: CA_26  and  C_27 
REMARK       I    between atoms: C_27  and  N_32 
REMARK    9  A    between atoms: N_32  and  CA_33 
REMARK   10  A    between atoms: CA_33  and  C_34 
REMARK   11  A    between atoms: CA_33  and  CB_36 
REMARK       I    between atoms: C_34  and  N_41 
REMARK   12  A    between atoms: CB_36  and  CG_37 
REMARK   13  A    between atoms: CA_42  and  C_43 
REMARK       I    between atoms: C_43  and  N_48 
REMARK   14  A    between atoms: N_48  and  CA_49 
REMARK   15  A    between atoms: CA_49  and  C_50 
REMARK   16  A    between atoms: CA_49  and  CB_52 
REMARK       I    between atoms: C_50  and  N_60 
REMARK   17  A    between atoms: CB_52  and  CG_53 
REMARK   18  A    between atoms: CA_61  and  C_62 
ROOT
ATOM      1  C   PRO C  17     -12.645   8.296  -9.348  1.00 34.10     0.241 C 
ATOM      2  O   PRO C  17     -13.713   8.830  -9.056  1.00 31.91    -0.271 OA
ATOM      3  N   LEU C  18     -11.868   8.740 -10.318  1.00 30.88    -0.346 N 
ATOM      4  H   LEU C  18     -11.149   8.338 -10.563  1.00 30.88     0.163 HD
ENDROOT
BRANCH   3   5
ATOM      5  CA  LEU C  18     -12.143   9.953 -11.074  1.00 30.78     0.177 C 
BRANCH   5   6
ATOM      6  C   LEU C  18     -12.555   9.694 -12.513  1.00 33.73     0.243 C 
ATOM      7  N   PRO C  19     -13.522  10.484 -13.049  1.00 33.17    -0.337 N 
ATOM      8  CA  PRO C  19     -13.911  10.312 -14.465  1.00 33.85     0.179 C 
ATOM      9  CD  PRO C  19     -14.317  11.548 -12.386  1.00 35.22     0.127 C 
ATOM     10  CB  PRO C  19     -15.203  11.126 -14.589  1.00 35.69     0.037 C 
ATOM     11  CG  PRO C  19     -15.170  12.106 -13.482  1.00 39.92     0.022 C 
ATOM     12  O   LEU C  18     -11.935   8.852 -13.166  1.00 31.40    -0.271 OA
BRANCH   8  13
ATOM     13  C   PRO C  19     -12.837  10.739 -15.477  1.00 39.47     0.241 C 
ATOM     14  N   PHE C  20     -12.901  10.165 -16.680  1.00 41.20    -0.346 N 
ATOM     15  H   PHE C  20     -13.510   9.593 -16.885  1.00 41.20     0.163 HD
ATOM     16  O   PRO C  19     -11.956  11.536 -15.171  1.00 36.20    -0.271 OA
BRANCH  14  17
ATOM     17  CA  PHE C  20     -11.971  10.425 -17.778  1.00 43.59     0.181 C 
BRANCH  17  18
ATOM     18  C   PHE C  20     -12.518  11.569 -18.651  1.00 48.54     0.243 C 
ATOM     19  N   PRO C  21     -11.660  12.435 -19.253  1.00 46.41    -0.338 N 
ATOM     20  CA  PRO C  21     -12.182  13.504 -20.138  1.00 51.72     0.165 C 
ATOM     21  CD  PRO C  21     -10.189  12.505 -19.154  1.00 49.19     0.127 C 
ATOM     22  CB  PRO C  21     -10.913  14.225 -20.623  1.00 52.56     0.035 C 
ATOM     23  CG  PRO C  21      -9.868  13.887 -19.638  1.00 54.82     0.022 C 
ATOM     24  O   PHE C  20     -13.739  11.652 -18.803  1.00 48.67    -0.271 OA
BRANCH  20  25
ATOM     25  C   PRO C  21     -12.988  12.987 -21.331  1.00 87.57     0.219 C 
ATOM     26  O   PRO C  21     -14.066  13.506 -21.615  1.00 58.80    -0.287 OA
ENDBRANCH  20  25
ENDBRANCH  17  18
BRANCH  17  27
ATOM     27  CB  PHE C  20     -11.785   9.127 -18.605  1.00 46.79     0.073 C 
BRANCH  27  28
ATOM     28  CG  PHE C  20     -10.901   9.204 -19.834  1.00 50.46    -0.056 A 
ATOM     29  CD2 PHE C  20     -11.456   9.304 -21.107  1.00 54.33     0.007 A 
ATOM     30  CE2 PHE C  20     -10.637   9.376 -22.242  1.00 57.68     0.001 A 
ATOM     31  CZ  PHE C  20      -9.262   9.322 -22.108  1.00 55.81     0.000 A 
ATOM     32  CE1 PHE C  20      -8.696   9.209 -20.856  1.00 56.05     0.001 A 
ATOM     33  CD1 PHE C  20      -9.515   9.127 -19.723  1.00 54.84     0.007 A 
ENDBRANCH  27  28
ENDBRANCH  17  27
ENDBRANCH  14  17
ENDBRANCH   8  13
ENDBRANCH   5   6
BRANCH   5  34
ATOM     34  CB  LEU C  18     -10.898  10.837 -11.068  1.00 31.46     0.038 C 
BRANCH  34  35
ATOM     35  CG  LEU C  18     -10.609  11.576  -9.787  1.00 36.62    -0.020 C 
ATOM     36  CD2 LEU C  18     -11.614  12.702  -9.598  1.00 38.91     0.009 C 
ATOM     37  CD1 LEU C  18      -9.178  12.121  -9.811  1.00 36.98     0.009 C 
ENDBRANCH  34  35
ENDBRANCH   5  34
ENDBRANCH   3   5
BRANCH   1  38
ATOM     38  CA  PRO C  17     -12.167   7.022  -8.665  1.00 33.71     0.179 C 
ATOM     39  CB  PRO C  17     -12.670   5.752  -9.359  1.00 36.04     0.037 C 
ATOM     40  CG  PRO C  17     -13.691   5.134  -8.427  1.00 41.66     0.022 C 
ATOM     41  CD  PRO C  17     -13.816   5.995  -7.206  1.00 37.74     0.127 C 
ATOM     42  N   PRO C  17     -12.617   6.859  -7.279  1.00 35.06    -0.337 N 
ATOM     43  C   ARG C  16     -11.917   7.448  -6.291  1.00 37.80     0.243 C 
ATOM     44  O   ARG C  16     -10.921   8.119  -6.551  1.00 34.25    -0.271 OA
BRANCH  43  45
ATOM     45  CA  ARG C  16     -12.341   7.260  -4.822  1.00 39.10     0.176 C 
BRANCH  45  46
ATOM     46  CB  ARG C  16     -13.217   8.444  -4.371  1.00 42.59     0.036 C 
BRANCH  46  47
ATOM     47  CG  ARG C  16     -14.077   8.168  -3.142  1.00 54.51     0.023 C 
BRANCH  47  48
ATOM     48  CD  ARG C  16     -13.635   8.981  -1.941  1.00 71.70     0.138 C 
BRANCH  48  49
ATOM     49  NE  ARG C  16     -14.767   9.305  -1.066  1.00 86.72    -0.227 N 
ATOM     50  HE  ARG C  16     -15.554   9.089  -1.337  1.00 86.72     0.177 HD
ATOM     51  CZ  ARG C  16     -14.665   9.908   0.116  1.00 98.48     0.665 C 
ATOM     52  NH2 ARG C  16     -15.752  10.167   0.832  1.00 86.10    -0.235 N 
ATOM     53  NH1 ARG C  16     -13.477  10.265   0.587  1.00 81.98    -0.235 N 
ATOM     54 HH22 ARG C  16     -15.681  10.557   1.595  1.00 86.10     0.174 HD
ATOM     55 HH21 ARG C  16     -16.527   9.945   0.533  1.00 86.10     0.174 HD
ATOM     56 HH11 ARG C  16     -12.767  10.107   0.128  1.00 81.98     0.174 HD
ATOM     57 HH12 ARG C  16     -13.417  10.654   1.351  1.00 81.98     0.174 HD
ENDBRANCH  48  49
ENDBRANCH  47  48
ENDBRANCH  46  47
ENDBRANCH  45  46
BRANCH  45  58
ATOM     58  N   ARG C  16     -11.145   7.151  -3.980  1.00 40.87    -0.346 N 
ATOM     59  C   PRO C  15     -10.296   6.097  -3.974  1.00 47.02     0.254 C 
ATOM     60  O   PRO C  15     -10.463   5.090  -4.663  1.00 46.36    -0.271 OA
ATOM     61  H   ARG C  16     -11.028   7.837  -3.475  1.00 40.87     0.163 HD
BRANCH  59  62
ATOM     62  CA  PRO C  15      -9.054   6.210  -3.087  1.00 46.56     0.352 C 
ATOM     63  N   PRO C  15      -8.672   4.941  -2.451  1.00 47.38     0.318 N 
ATOM     64  CD  PRO C  15      -7.349   4.479  -2.911  1.00 49.28     0.315 C 
ATOM     65  CG  PRO C  15      -6.699   5.740  -3.392  1.00 53.38     0.035 C 
ATOM     66  CB  PRO C  15      -7.817   6.577  -3.924  1.00 48.49     0.050 C 
ENDBRANCH  59  62
ENDBRANCH  45  58
ENDBRANCH  43  45
ENDBRANCH   1  38
TORSDOF 18
