REMARK  11 active torsions:
REMARK  status: ('A' for Active; 'I' for Inactive)
REMARK    1  A    between atoms: CA_2  and  C_3 
REMARK    2  A    between atoms: CA_2  and  CB_5 
REMARK       I    between atoms: C_3  and  N_9 
REMARK    3  A    between atoms: CB_5  and  CG_6 
REMARK    4  A    between atoms: N_9  and  CA_10 
REMARK    5  A    between atoms: CA_10  and  C_11 
REMARK    6  A    between atoms: CA_10  and  CB_13 
REMARK       I    between atoms: C_11  and  N_18 
REMARK    7  A    between atoms: CB_13  and  CG_14 
REMARK    8  A    between atoms: N_18  and  CA_19 
REMARK    9  A    between atoms: CA_19  and  C_20 
REMARK   10  A    between atoms: CA_19  and  CB_22 
REMARK   11  A    between atoms: CB_22  and  CG_23 
ROOT
ATOM      1  CA  LEU E   3       7.736  -4.364 -12.516  1.00 28.46     0.177 C 
ENDROOT
BRANCH   1   2
ATOM      2  N   LEU E   3       6.983  -5.516 -11.990  1.00 30.36    -0.346 N 
ATOM      3  C   ASP E   2       6.402  -6.419 -12.785  1.00 32.94     0.258 C 
ATOM      4  O   ASP E   2       6.423  -6.344 -14.021  1.00 32.35    -0.271 OA
ATOM      5  H   LEU E   3       6.953  -5.551 -11.131  1.00 30.36     0.163 HD
BRANCH   3   6
ATOM      6  CA  ASP E   2       5.681  -7.581 -12.095  1.00 34.24     0.409 C 
ATOM      7  N   ASP E   2       4.505  -7.969 -12.922  1.00 34.31     0.615 N 
BRANCH   6   8
ATOM      8  CB  ASP E   2       6.625  -8.778 -11.931  1.00 36.18     0.164 C 
BRANCH   8   9
ATOM      9  CG  ASP E   2       6.925  -9.107 -10.464  1.00 38.13     0.175 C 
ATOM     10  OD1 ASP E   2       5.967  -9.290  -9.677  1.00 37.90    -0.648 OA
ATOM     11  OD2 ASP E   2       8.120  -9.210 -10.102  1.00 38.42    -0.648 OA
ENDBRANCH   8   9
ENDBRANCH   6   8
ENDBRANCH   3   6
ENDBRANCH   1   2
BRANCH   1  12
ATOM     12  C   LEU E   3       9.083  -4.774 -13.117  1.00 28.32     0.241 C 
ATOM     13  N   PHE E   4       9.543  -5.970 -12.751  1.00 27.78    -0.344 N 
ATOM     14  H   PHE E   4       9.095  -6.516 -12.261  1.00 27.78     0.163 HD
ATOM     15  O   LEU E   3       9.685  -4.020 -13.883  1.00 27.38    -0.271 OA
BRANCH  13  16
ATOM     16  CA  PHE E   4      10.858  -6.477 -13.145  1.00 27.92     0.189 C 
BRANCH  16  17
ATOM     17  C   PHE E   4      10.918  -7.992 -12.948  1.00 28.33     0.197 C 
ATOM     18  OXT PHE E   4      11.891  -8.643 -13.321  1.00 30.35    -0.646 OA
ATOM     19  O   PHE E   4      10.006  -8.601 -12.390  1.00 28.81    -0.646 OA
ENDBRANCH  16  17
BRANCH  16  20
ATOM     20  CB  PHE E   4      11.975  -5.802 -12.329  1.00 27.18     0.074 C 
BRANCH  20  21
ATOM     21  CG  PHE E   4      11.788  -5.909 -10.838  1.00 26.64    -0.056 A 
ATOM     22  CD1 PHE E   4      12.167  -7.064 -10.150  1.00 26.73     0.007 A 
ATOM     23  CE1 PHE E   4      11.988  -7.164  -8.777  1.00 26.26     0.001 A 
ATOM     24  CZ  PHE E   4      11.425  -6.104  -8.080  1.00 25.93     0.000 A 
ATOM     25  CE2 PHE E   4      11.038  -4.953  -8.754  1.00 25.36     0.001 A 
ATOM     26  CD2 PHE E   4      11.222  -4.859 -10.123  1.00 26.03     0.007 A 
ENDBRANCH  20  21
ENDBRANCH  16  20
ENDBRANCH  13  16
ENDBRANCH   1  12
BRANCH   1  27
ATOM     27  CB  LEU E   3       7.971  -3.316 -11.416  1.00 28.15     0.038 C 
BRANCH  27  28
ATOM     28  CG  LEU E   3       6.837  -2.374 -11.002  1.00 27.57    -0.020 C 
ATOM     29  CD2 LEU E   3       6.487  -1.402 -12.119  1.00 27.08     0.009 C 
ATOM     30  CD1 LEU E   3       7.214  -1.607  -9.743  1.00 27.26     0.009 C 
ENDBRANCH  27  28
ENDBRANCH   1  27
TORSDOF 11
