REMARK  19 active torsions:
REMARK  status: ('A' for Active; 'I' for Inactive)
REMARK       I    between atoms: C_1  and  N_4 
REMARK    1  A    between atoms: N_4  and  CA_5 
REMARK    2  A    between atoms: CA_5  and  C_6 
REMARK    3  A    between atoms: CA_5  and  CB_8 
REMARK       I    between atoms: C_6  and  N_16 
REMARK    4  A    between atoms: CB_8  and  CG_9 
REMARK    5  A    between atoms: CG_9  and  CD_10 
REMARK       I    between atoms: CD_10  and  NE2_12 
REMARK    6  A    between atoms: N_16  and  CA_17 
REMARK    7  A    between atoms: CA_17  and  CB_20 
REMARK    8  A    between atoms: CA_17  and  C_18 
REMARK       I    between atoms: C_18  and  N_25 
REMARK    9  A    between atoms: CB_20  and  CG_21 
REMARK   10  A    between atoms: N_25  and  CA_26 
REMARK   11  A    between atoms: CA_26  and  C_27 
REMARK       I    between atoms: C_27  and  N_31 
REMARK   12  A    between atoms: N_31  and  CA_32 
REMARK   13  A    between atoms: CA_32  and  C_33 
REMARK   14  A    between atoms: CA_32  and  CB_35 
REMARK       I    between atoms: C_33  and  N_40 
REMARK   15  A    between atoms: CB_35  and  CG_36 
REMARK   16  A    between atoms: N_40  and  CA_41 
REMARK   17  A    between atoms: CA_41  and  C_42 
REMARK   18  A    between atoms: CA_41  and  CB_44 
REMARK   19  A    between atoms: CB_44  and  CG_45 
ROOT
ATOM      1  C   LEU E   1       2.540  -6.809 -12.985  1.00 34.74     0.241 C 
ATOM      2  O   LEU E   1       2.523  -6.115 -11.973  1.00 33.94    -0.271 OA
ATOM      3  N   ALA E   2       3.634  -7.427 -13.426  1.00 36.28    -0.346 N 
ATOM      4  H   ALA E   2       3.647  -7.928 -14.125  1.00 36.28     0.163 HD
ENDROOT
BRANCH   3   5
ATOM      5  CA  ALA E   2       4.930  -7.308 -12.754  1.00 35.94     0.172 C 
ATOM      6  CB  ALA E   2       5.785  -8.539 -13.027  1.00 33.95     0.042 C 
BRANCH   5   7
ATOM      7  C   ALA E   2       5.643  -6.042 -13.222  1.00 35.46     0.240 C 
ATOM      8  O   ALA E   2       5.612  -5.720 -14.411  1.00 34.79    -0.271 OA
ATOM      9  N   LEU E   3       6.268  -5.322 -12.285  1.00 35.08    -0.346 N 
ATOM     10  H   LEU E   3       6.209  -5.482 -11.442  1.00 35.08     0.163 HD
BRANCH   9  11
ATOM     11  CA  LEU E   3       7.128  -4.170 -12.623  1.00 35.40     0.177 C 
BRANCH  11  12
ATOM     12  C   LEU E   3       8.389  -4.591 -13.375  1.00 36.56     0.241 C 
ATOM     13  N   PHE E   4       8.864  -5.798 -13.065  1.00 37.64    -0.344 N 
ATOM     14  H   PHE E   4       8.469  -6.323 -12.510  1.00 37.64     0.163 HD
ATOM     15  O   LEU E   3       8.922  -3.829 -14.183  1.00 36.99    -0.271 OA
BRANCH  13  16
ATOM     16  CA  PHE E   4      10.087  -6.364 -13.618  1.00 39.79     0.189 C 
BRANCH  16  17
ATOM     17  C   PHE E   4      10.199  -7.841 -13.207  1.00 40.57     0.197 C 
ATOM     18  OXT PHE E   4      11.055  -8.562 -13.705  1.00 44.77    -0.646 OA
ATOM     19  O   PHE E   4       9.464  -8.368 -12.361  1.00 38.71    -0.646 OA
ENDBRANCH  16  17
BRANCH  16  20
ATOM     20  CB  PHE E   4      11.316  -5.584 -13.127  1.00 41.62     0.074 C 
BRANCH  20  21
ATOM     21  CG  PHE E   4      11.439  -5.529 -11.629  1.00 42.37    -0.056 A 
ATOM     22  CD1 PHE E   4      12.023  -6.588 -10.923  1.00 43.46     0.007 A 
ATOM     23  CE1 PHE E   4      12.127  -6.551  -9.543  1.00 44.96     0.001 A 
ATOM     24  CZ  PHE E   4      11.640  -5.449  -8.850  1.00 45.96     0.000 A 
ATOM     25  CE2 PHE E   4      11.060  -4.385  -9.539  1.00 43.80     0.001 A 
ATOM     26  CD2 PHE E   4      10.963  -4.431 -10.921  1.00 42.63     0.007 A 
ENDBRANCH  20  21
ENDBRANCH  16  20
ENDBRANCH  13  16
ENDBRANCH  11  12
BRANCH  11  27
ATOM     27  CB  LEU E   3       7.549  -3.396 -11.367  1.00 33.50     0.038 C 
BRANCH  27  28
ATOM     28  CG  LEU E   3       7.022  -1.991 -11.067  1.00 34.48    -0.020 C 
ATOM     29  CD2 LEU E   3       7.244  -1.032 -12.223  1.00 30.77     0.009 C 
ATOM     30  CD1 LEU E   3       7.692  -1.457  -9.804  1.00 32.68     0.009 C 
ENDBRANCH  27  28
ENDBRANCH  11  27
ENDBRANCH   9  11
ENDBRANCH   5   7
ENDBRANCH   3   5
BRANCH   1  31
ATOM     31  CA  LEU E   1       1.269  -7.019 -13.804  1.00 33.78     0.177 C 
BRANCH  31  32
ATOM     32  CB  LEU E   1       1.244  -6.082 -15.013  1.00 32.47     0.038 C 
BRANCH  32  33
ATOM     33  CG  LEU E   1       0.086  -6.301 -15.996  1.00 32.32    -0.020 C 
ATOM     34  CD1 LEU E   1      -0.030  -5.121 -16.954  1.00 30.19     0.009 C 
ATOM     35  CD2 LEU E   1       0.236  -7.627 -16.745  1.00 31.57     0.009 C 
ENDBRANCH  32  33
ENDBRANCH  31  32
BRANCH  31  36
ATOM     36  N   LEU E   1       0.071  -6.845 -12.979  1.00 33.92    -0.346 N 
ATOM     37  C   GLN E   0      -0.424  -7.854 -12.265  1.00 32.69     0.241 C 
ATOM     38  O   GLN E   0       0.032  -8.999 -12.311  1.00 35.54    -0.271 OA
ATOM     39  H   LEU E   1      -0.269  -6.055 -13.001  1.00 33.92     0.163 HD
BRANCH  37  40
ATOM     40  CA  GLN E   0      -1.602  -7.534 -11.367  1.00 31.66     0.177 C 
BRANCH  40  41
ATOM     41  N   GLN E   0      -2.765  -8.415 -11.699  1.00 30.66    -0.348 N 
HETATM   42  C   ACE E  -1      -3.422  -8.373 -12.863  1.00 29.47     0.214 C 
HETATM   43  O   ACE E  -1      -2.970  -7.908 -13.900  1.00 28.51    -0.274 OA
HETATM   44  CH3 ACE E  -1      -4.791  -9.007 -12.862  1.00 29.76     0.117 C 
ATOM     45  H   GLN E   0      -2.974  -8.957 -11.065  1.00 30.66     0.163 HD
ENDBRANCH  40  41
BRANCH  40  46
ATOM     46  CB  GLN E   0      -1.199  -7.701  -9.892  1.00 31.02     0.044 C 
BRANCH  46  47
ATOM     47  CG  GLN E   0       0.108  -7.015  -9.493  1.00 30.22     0.105 C 
BRANCH  47  48
ATOM     48  CD  GLN E   0       0.002  -5.496  -9.461  1.00 30.34     0.215 C 
ATOM     49  OE1 GLN E   0      -0.787  -4.924  -8.697  1.00 29.98    -0.274 OA
ATOM     50  NE2 GLN E   0       0.797  -4.834 -10.290  1.00 28.66    -0.370 N 
ATOM     51 1HE2 GLN E   0       1.333  -5.264 -10.807  1.00 28.66     0.159 HD
ATOM     52 2HE2 GLN E   0       0.777  -3.974 -10.311  1.00 28.66     0.159 HD
ENDBRANCH  47  48
ENDBRANCH  46  47
ENDBRANCH  40  46
ENDBRANCH  37  40
ENDBRANCH  31  36
ENDBRANCH   1  31
TORSDOF 19
