REMARK  32 active torsions:
REMARK  status: ('A' for Active; 'I' for Inactive)
REMARK    1  A    between atoms: CA_2  and  C_3 
REMARK    2  A    between atoms: CA_2  and  CB_5 
REMARK       I    between atoms: C_3  and  N_17 
REMARK    3  A    between atoms: CB_5  and  CG_6 
REMARK    4  A    between atoms: CG_6  and  CD_7 
REMARK    5  A    between atoms: CD_7  and  NE_8 
REMARK       I    between atoms: NE_8  and  CZ_9 
REMARK       I    between atoms: CZ_9  and  NH1_10 
REMARK       I    between atoms: CZ_9  and  NH2_11 
REMARK    6  A    between atoms: N_17  and  CA_18 
REMARK    7  A    between atoms: CA_18  and  C_19 
REMARK    8  A    between atoms: CA_18  and  CB_21 
REMARK       I    between atoms: C_19  and  N_33 
REMARK    9  A    between atoms: CB_21  and  CG_22 
REMARK   10  A    between atoms: N_33  and  CA_34 
REMARK   11  A    between atoms: CA_34  and  C_35 
REMARK   12  A    between atoms: CA_34  and  CB_37 
REMARK       I    between atoms: C_35  and  N_45 
REMARK   13  A    between atoms: CB_37  and  CG_38 
REMARK   14  A    between atoms: CG_38  and  CD_39 
REMARK       I    between atoms: CD_39  and  NE2_41 
REMARK   15  A    between atoms: N_45  and  CA_46 
REMARK   16  A    between atoms: CA_46  and  C_47 
REMARK   17  A    between atoms: CA_46  and  CB_49 
REMARK       I    between atoms: C_47  and  N_54 
REMARK   18  A    between atoms: CB_49  and  CG_50 
REMARK   19  A    between atoms: N_54  and  CA_55 
REMARK   20  A    between atoms: CA_55  and  C_56 
REMARK   21  A    between atoms: CA_55  and  CB_58 
REMARK       I    between atoms: C_56  and  N_63 
REMARK   22  A    between atoms: CB_58  and  OG1_59 
REMARK   23  A    between atoms: N_63  and  CA_64 
REMARK   24  A    between atoms: CA_64  and  CB_67 
REMARK   25  A    between atoms: CA_64  and  C_65 
REMARK       I    between atoms: C_65  and  N_80 
REMARK   26  A    between atoms: CB_67  and  CG_68 
REMARK   27  A    between atoms: CG_68  and  CD_69 
REMARK   28  A    between atoms: CD_69  and  NE_70 
REMARK       I    between atoms: NE_70  and  CZ_71 
REMARK       I    between atoms: CZ_71  and  NH1_72 
REMARK   29  A    between atoms: N_80  and  CA_81 
REMARK   30  A    between atoms: CA_81  and  C_82 
REMARK   31  A    between atoms: CA_81  and  CB_84 
REMARK   32  A    between atoms: CB_84  and  CG_85 
ROOT
ATOM      1  C   GLN B   6      23.540  20.031  33.796  1.00 31.06     0.241 C 
ATOM      2  O   GLN B   6      22.976  21.064  33.698  1.00 27.89    -0.271 OA
ATOM      3  N   ASP B   7      23.020  18.890  33.423  1.00 28.12    -0.346 N 
ATOM      4  H   ASP B   7      23.422  18.133  33.492  1.00 28.12     0.163 HD
ENDROOT
BRANCH   3   5
ATOM      5  CA  ASP B   7      21.686  18.813  32.847  1.00 30.55     0.186 C 
BRANCH   5   6
ATOM      6  C   ASP B   7      20.986  17.560  33.360  1.00 32.99     0.241 C 
ATOM      7  O   ASP B   7      21.504  16.453  33.218  1.00 33.42    -0.271 OA
ATOM      8  N   THR B   8      19.808  17.730  33.955  1.00 18.35    -0.344 N 
ATOM      9  H   THR B   8      19.383  18.477  33.981  1.00 18.35     0.163 HD
BRANCH   8  10
ATOM     10  CA  THR B   8      19.134  16.620  34.628  1.00 17.94     0.205 C 
BRANCH  10  11
ATOM     11  C   THR B   8      17.684  16.456  34.194  1.00 21.68     0.243 C 
ATOM     12  N   ARG B   9      17.326  15.246  33.778  1.00 16.45    -0.346 N 
ATOM     13  H   ARG B   9      17.878  14.595  33.674  1.00 16.45     0.163 HD
ATOM     14  O   THR B   8      16.910  17.408  34.231  1.00 15.82    -0.271 OA
BRANCH  12  15
ATOM     15  CA  ARG B   9      15.945  14.913  33.457  1.00 15.69     0.176 C 
BRANCH  15  16
ATOM     16  CB  ARG B   9      15.900  13.726  32.496  1.00 22.22     0.036 C 
BRANCH  16  17
ATOM     17  CG  ARG B   9      14.509  13.359  32.036  1.00 27.38     0.023 C 
BRANCH  17  18
ATOM     18  CD  ARG B   9      14.589  12.428  30.839  1.00 35.32     0.138 C 
BRANCH  18  19
ATOM     19  NE  ARG B   9      13.272  12.029  30.355  1.00 37.77    -0.227 N 
ATOM     20  CZ  ARG B   9      13.058  11.484  29.160  1.00 46.08     0.665 C 
ATOM     21  NH2 ARG B   9      11.832  11.144  28.792  1.00 49.48    -0.235 N 
ATOM     22  NH1 ARG B   9      14.073  11.285  28.331  1.00 43.14    -0.235 N 
ATOM     23 HH22 ARG B   9      11.697  10.792  28.019  1.00 49.48     0.174 HD
ATOM     24 HH21 ARG B   9      11.171  11.275  29.326  1.00 49.48     0.174 HD
ATOM     25 HH12 ARG B   9      13.935  10.933  27.559  1.00 43.14     0.174 HD
ATOM     26 HH11 ARG B   9      14.870  11.508  28.565  1.00 43.14     0.174 HD
ATOM     27  HE  ARG B   9      12.595  12.153  30.871  1.00 37.77     0.177 HD
ENDBRANCH  18  19
ENDBRANCH  17  18
ENDBRANCH  16  17
ENDBRANCH  15  16
BRANCH  15  28
ATOM     28  C   ARG B   9      15.123  14.612  34.712  1.00 19.99     0.241 C 
ATOM     29  N   LEU B  10      13.947  15.229  34.800  1.00 16.17    -0.345 N 
ATOM     30  H   LEU B  10      13.633  15.738  34.182  1.00 16.17     0.163 HD
ATOM     31  O   ARG B   9      15.543  13.831  35.585  1.00 21.50    -0.271 OA
BRANCH  29  32
ATOM     32  CA  LEU B  10      13.072  15.102  35.959  1.00 18.39     0.185 C 
BRANCH  32  33
ATOM     33  C   LEU B  10      11.681  14.639  35.553  1.00 17.68     0.196 C 
ATOM     34  O   LEU B  10      11.325  14.677  34.367  1.00 17.59    -0.646 OA
ATOM     35  OXT LEU B  10      10.881  14.256  36.405  1.00 18.80    -0.646 OA
ENDBRANCH  32  33
BRANCH  32  36
ATOM     36  CB  LEU B  10      12.947  16.449  36.682  1.00 18.94     0.040 C 
BRANCH  36  37
ATOM     37  CG  LEU B  10      14.243  17.167  37.057  1.00 21.44    -0.020 C 
ATOM     38  CD2 LEU B  10      14.976  16.414  38.157  1.00 24.01     0.009 C 
ATOM     39  CD1 LEU B  10      13.959  18.603  37.483  1.00 19.43     0.009 C 
ENDBRANCH  36  37
ENDBRANCH  32  36
ENDBRANCH  29  32
ENDBRANCH  15  28
ENDBRANCH  12  15
ENDBRANCH  10  11
BRANCH  10  40
ATOM     40  CB  THR B   8      19.181  16.798  36.149  1.00 18.75     0.146 C 
ATOM     41  CG2 THR B   8      18.507  15.625  36.859  1.00 17.36     0.042 C 
BRANCH  40  42
ATOM     42  OG1 THR B   8      20.548  16.906  36.565  1.00 21.53    -0.393 OA
ATOM     43  HG1 THR B   8      20.717  17.703  36.769  1.00 21.53     0.210 HD
ENDBRANCH  40  42
ENDBRANCH  10  40
ENDBRANCH   8  10
ENDBRANCH   5   6
BRANCH   5  44
ATOM     44  CB  ASP B   7      21.776  18.789  31.324  1.00 37.24     0.147 C 
BRANCH  44  45
ATOM     45  CG  ASP B   7      20.419  18.794  30.663  1.00 42.69     0.175 C 
ATOM     46  OD2 ASP B   7      19.837  17.702  30.495  1.00 42.74    -0.648 OA
ATOM     47  OD1 ASP B   7      19.939  19.892  30.313  1.00 42.89    -0.648 OA
ENDBRANCH  44  45
ENDBRANCH   5  44
ENDBRANCH   3   5
BRANCH   1  48
ATOM     48  CA  GLN B   6      24.909  19.963  34.474  1.00 35.47     0.177 C 
BRANCH  48  49
ATOM     49  CB  GLN B   6      24.727  19.683  35.969  1.00 41.05     0.044 C 
BRANCH  49  50
ATOM     50  CG  GLN B   6      26.011  19.862  36.736  1.00 49.54     0.105 C 
BRANCH  50  51
ATOM     51  CD  GLN B   6      25.846  20.115  38.209  1.00 53.43     0.215 C 
ATOM     52  OE1 GLN B   6      25.518  19.224  38.988  1.00 55.51    -0.274 OA
ATOM     53  NE2 GLN B   6      26.107  21.322  38.596  1.00 53.53    -0.370 N 
ATOM     54 1HE2 GLN B   6      26.334  21.919  38.020  1.00 53.53     0.159 HD
ATOM     55 2HE2 GLN B   6      26.054  21.527  39.429  1.00 53.53     0.159 HD
ENDBRANCH  50  51
ENDBRANCH  49  50
ENDBRANCH  48  49
BRANCH  48  56
ATOM     56  N   GLN B   6      25.608  21.209  34.306  1.00 36.83    -0.346 N 
ATOM     57  H   GLN B   6      25.748  21.642  35.035  1.00 36.83     0.163 HD
ATOM     58  C   TRP B   5      25.988  21.622  33.116  1.00 39.64     0.241 C 
ATOM     59  O   TRP B   5      25.878  20.917  32.111  1.00 35.62    -0.271 OA
BRANCH  58  60
ATOM     60  CA  TRP B   5      26.538  23.044  33.019  1.00 41.33     0.181 C 
BRANCH  60  61
ATOM     61  CB  TRP B   5      25.403  23.967  32.573  1.00 37.29     0.075 C 
BRANCH  61  62
ATOM     62  CG  TRP B   5      25.771  25.408  32.480  1.00 36.98    -0.028 A 
ATOM     63  CD2 TRP B   5      24.915  26.479  32.072  1.00 30.66    -0.002 A 
ATOM     64  CE3 TRP B   5      23.582  26.549  31.657  1.00 30.80     0.014 A 
ATOM     65  CE2 TRP B   5      25.673  27.665  32.131  1.00 30.13     0.042 A 
ATOM     66  CZ3 TRP B   5      23.056  27.783  31.318  1.00 32.32     0.001 A 
ATOM     67  CH2 TRP B   5      23.834  28.945  31.393  1.00 34.93     0.002 A 
ATOM     68  CZ2 TRP B   5      25.142  28.905  31.797  1.00 27.67     0.030 A 
ATOM     69  NE1 TRP B   5      26.930  27.329  32.563  1.00 35.78    -0.365 N 
ATOM     70  HE1 TRP B   5      27.580  27.878  32.686  1.00 35.78     0.165 HD
ATOM     71  CD1 TRP B   5      26.981  25.971  32.768  1.00 40.20     0.096 A 
ENDBRANCH  61  62
ENDBRANCH  60  61
BRANCH  60  72
ATOM     72  N   TRP B   5      27.683  23.176  32.115  1.00 47.38    -0.345 N 
ATOM     73  H   TRP B   5      27.483  23.147  31.279  1.00 47.38     0.163 HD
ATOM     74  C   ARG B   4      28.922  23.328  32.580  1.00 50.84     0.257 C 
ATOM     75  O   ARG B   4      29.198  23.247  33.777  1.00 48.34    -0.271 OA
BRANCH  74  76
ATOM     76  CA  ARG B   4      30.022  23.595  31.549  1.00 49.37     0.400 C 
ATOM     77  N   ARG B   4      29.490  23.932  30.234  1.00 52.51     0.615 N 
BRANCH  76  78
ATOM     78  CB  ARG B   4      30.954  24.705  32.052  1.00 51.85     0.053 C 
BRANCH  78  79
ATOM     79  CG  ARG B   4      30.736  26.063  31.391  1.00 50.44     0.023 C 
BRANCH  79  80
ATOM     80  CD  ARG B   4      31.487  27.182  32.114  1.00 48.76     0.138 C 
BRANCH  80  81
ATOM     81  NE  ARG B   4      30.751  27.679  33.275  1.00 51.98    -0.227 N 
ATOM     82  HE  ARG B   4      30.041  27.254  33.509  1.00 51.98     0.177 HD
ATOM     83  CZ  ARG B   4      31.101  28.742  33.996  1.00 51.78     0.665 C 
ATOM     84  NH1 ARG B   4      32.188  29.440  33.688  1.00 46.01    -0.235 N 
ATOM     85  NH2 ARG B   4      30.356  29.111  35.031  1.00 56.06    -0.235 N 
ATOM     86 HH12 ARG B   4      32.407  30.125  34.159  1.00 46.01     0.174 HD
ATOM     87 HH11 ARG B   4      32.673  29.207  33.017  1.00 46.01     0.174 HD
ATOM     88 HH21 ARG B   4      29.650  28.664  35.234  1.00 56.06     0.174 HD
ATOM     89 HH22 ARG B   4      30.579  29.797  35.499  1.00 56.06     0.174 HD
ENDBRANCH  80  81
ENDBRANCH  79  80
ENDBRANCH  78  79
ENDBRANCH  76  78
ENDBRANCH  74  76
ENDBRANCH  60  72
ENDBRANCH  58  60
ENDBRANCH  48  56
ENDBRANCH   1  48
TORSDOF 32
