REMARK  28 active torsions:
REMARK  status: ('A' for Active; 'I' for Inactive)
REMARK    1  A    between atoms: CA_2  and  C_3 
REMARK    2  A    between atoms: CA_2  and  CB_5 
REMARK       I    between atoms: C_3  and  N_17 
REMARK    3  A    between atoms: CB_5  and  CG_6 
REMARK    4  A    between atoms: CG_6  and  CD_7 
REMARK    5  A    between atoms: CD_7  and  NE_8 
REMARK       I    between atoms: NE_8  and  CZ_9 
REMARK       I    between atoms: CZ_9  and  NH1_10 
REMARK    6  A    between atoms: N_17  and  CA_18 
REMARK    7  A    between atoms: CA_18  and  C_19 
REMARK    8  A    between atoms: CA_18  and  CB_21 
REMARK       I    between atoms: C_19  and  N_33 
REMARK    9  A    between atoms: CB_21  and  CG_22 
REMARK   10  A    between atoms: CA_34  and  C_35 
REMARK       I    between atoms: C_35  and  N_40 
REMARK   11  A    between atoms: N_40  and  CA_41 
REMARK   12  A    between atoms: CA_41  and  C_42 
REMARK   13  A    between atoms: CA_41  and  CB_44 
REMARK       I    between atoms: C_42  and  N_49 
REMARK   14  A    between atoms: CB_44  and  OG1_45 
REMARK   15  A    between atoms: N_49  and  CA_50 
REMARK   16  A    between atoms: CA_50  and  CB_53 
REMARK   17  A    between atoms: CA_50  and  C_51 
REMARK       I    between atoms: C_51  and  N_58 
REMARK   18  A    between atoms: CB_53  and  OG1_54 
REMARK   19  A    between atoms: N_58  and  CA_59 
REMARK   20  A    between atoms: CA_59  and  C_60 
REMARK   21  A    between atoms: CA_59  and  CB_62 
REMARK       I    between atoms: C_60  and  N_75 
REMARK   22  A    between atoms: CB_62  and  CG_63 
REMARK   23  A    between atoms: CG_63  and  CD_64 
REMARK   24  A    between atoms: CD_64  and  NE_65 
REMARK       I    between atoms: NE_65  and  CZ_66 
REMARK       I    between atoms: CZ_66  and  NH1_67 
REMARK   25  A    between atoms: N_75  and  CA_76 
REMARK   26  A    between atoms: CA_76  and  CB_79 
REMARK   27  A    between atoms: CA_76  and  C_77 
REMARK   28  A    between atoms: CB_79  and  CG_80 
ROOT
ATOM      1  CA  THR G   7      43.806  15.521  -1.543  1.00 26.40     0.205 C 
ENDROOT
BRANCH   1   2
ATOM      2  C   THR G   7      43.155  16.098  -2.790  1.00 25.30     0.243 C 
ATOM      3  N   THR G   8      42.200  15.368  -3.359  1.00 15.59    -0.344 N 
ATOM      4  H   THR G   8      41.937  14.600  -3.075  1.00 15.59     0.163 HD
ATOM      5  O   THR G   7      43.515  17.187  -3.240  1.00 25.63    -0.271 OA
BRANCH   3   6
ATOM      6  CA  THR G   8      41.515  15.852  -4.550  1.00 11.76     0.205 C 
BRANCH   6   7
ATOM      7  CB  THR G   8      41.755  14.945  -5.778  1.00 16.39     0.146 C 
ATOM      8  CG2 THR G   8      41.073  15.527  -7.004  1.00 20.98     0.042 C 
BRANCH   7   9
ATOM      9  OG1 THR G   8      43.157  14.821  -6.041  1.00 14.98    -0.393 OA
ATOM     10  HG1 THR G   8      43.468  14.173  -5.606  1.00 14.98     0.210 HD
ENDBRANCH   7   9
ENDBRANCH   6   7
BRANCH   6  11
ATOM     11  C   THR G   8      40.025  15.947  -4.298  1.00 14.98     0.243 C 
ATOM     12  O   THR G   8      39.407  14.994  -3.820  1.00 17.64    -0.271 OA
ATOM     13  N   ARG G   9      39.435  17.093  -4.615  1.00 15.79    -0.346 N 
ATOM     14  H   ARG G   9      39.838  17.782  -4.934  1.00 15.79     0.163 HD
BRANCH  13  15
ATOM     15  CA  ARG G   9      38.003  17.244  -4.428  1.00 12.84     0.176 C 
BRANCH  15  16
ATOM     16  C   ARG G   9      37.284  16.937  -5.730  1.00 12.32     0.241 C 
ATOM     17  N   LEU G  10      36.227  16.139  -5.642  1.00 12.88    -0.345 N 
ATOM     18  H   LEU G  10      35.915  15.836  -4.900  1.00 12.88     0.163 HD
ATOM     19  O   ARG G   9      37.697  17.400  -6.796  1.00 17.68    -0.271 OA
BRANCH  17  20
ATOM     20  CA  LEU G  10      35.496  15.705  -6.824  1.00 16.59     0.185 C 
BRANCH  20  21
ATOM     21  CB  LEU G  10      35.663  14.207  -7.050  1.00 15.66     0.040 C 
BRANCH  21  22
ATOM     22  CG  LEU G  10      37.090  13.679  -7.107  1.00 23.51    -0.020 C 
ATOM     23  CD1 LEU G  10      37.057  12.175  -7.194  1.00 20.87     0.009 C 
ATOM     24  CD2 LEU G  10      37.811  14.285  -8.303  1.00 22.37     0.009 C 
ENDBRANCH  21  22
ENDBRANCH  20  21
BRANCH  20  25
ATOM     25  C   LEU G  10      34.023  16.006  -6.692  1.00 15.89     0.196 C 
ATOM     26  OXT LEU G  10      33.334  16.065  -7.704  1.00 24.01    -0.646 OA
ATOM     27  O   LEU G  10      33.497  16.170  -5.585  1.00 15.92    -0.646 OA
ENDBRANCH  20  25
ENDBRANCH  17  20
ENDBRANCH  15  16
BRANCH  15  28
ATOM     28  CB  ARG G   9      37.643  18.647  -3.941  1.00 18.79     0.036 C 
BRANCH  28  29
ATOM     29  CG  ARG G   9      36.147  18.869  -3.853  1.00 22.18     0.023 C 
BRANCH  29  30
ATOM     30  CD  ARG G   9      35.802  20.097  -3.036  1.00 31.14     0.138 C 
BRANCH  30  31
ATOM     31  NE  ARG G   9      34.360  20.316  -2.995  1.00 29.63    -0.227 N 
ATOM     32  CZ  ARG G   9      33.778  21.268  -2.277  1.00 25.64     0.665 C 
ATOM     33  NH2 ARG G   9      32.459  21.404  -2.293  1.00 30.24    -0.235 N 
ATOM     34  NH1 ARG G   9      34.519  22.076  -1.535  1.00 28.33    -0.235 N 
ATOM     35 HH21 ARG G   9      31.978  20.874  -2.770  1.00 30.24     0.174 HD
ATOM     36 HH22 ARG G   9      32.085  22.022  -1.827  1.00 30.24     0.174 HD
ATOM     37 HH11 ARG G   9      35.374  21.983  -1.520  1.00 28.33     0.174 HD
ATOM     38 HH12 ARG G   9      34.146  22.694  -1.068  1.00 28.33     0.174 HD
ATOM     39  HE  ARG G   9      33.858  19.798  -3.463  1.00 29.63     0.177 HD
ENDBRANCH  30  31
ENDBRANCH  29  30
ENDBRANCH  28  29
ENDBRANCH  15  28
ENDBRANCH  13  15
ENDBRANCH   6  11
ENDBRANCH   3   6
ENDBRANCH   1   2
BRANCH   1  40
ATOM     40  CB  THR G   7      43.378  16.354  -0.318  1.00 34.82     0.146 C 
ATOM     41  CG2 THR G   7      41.897  16.686  -0.389  1.00 38.74     0.042 C 
BRANCH  40  42
ATOM     42  OG1 THR G   7      43.635  15.611   0.882  1.00 40.69    -0.393 OA
ATOM     43  HG1 THR G   7      43.403  16.066   1.549  1.00 40.69     0.210 HD
ENDBRANCH  40  42
ENDBRANCH   1  40
BRANCH   1  44
ATOM     44  N   THR G   7      45.252  15.521  -1.715  1.00 22.98    -0.344 N 
ATOM     45  C   PRO G   6      45.986  14.420  -1.602  1.00 24.87     0.241 C 
ATOM     46  O   PRO G   6      45.540  13.326  -1.259  1.00 25.14    -0.271 OA
ATOM     47  H   THR G   7      45.582  16.294  -1.895  1.00 22.98     0.163 HD
BRANCH  45  48
ATOM     48  CA  PRO G   6      47.470  14.557  -1.894  1.00 32.16     0.179 C 
ATOM     49  N   PRO G   6      48.224  13.694  -0.982  1.00 31.00    -0.337 N 
ATOM     50  CD  PRO G   6      48.869  12.576  -1.688  1.00 36.67     0.127 C 
ATOM     51  C   TRP G   5      48.137  13.881   0.341  1.00 25.71     0.243 C 
ATOM     52  CG  PRO G   6      48.142  12.550  -3.005  1.00 44.45     0.022 C 
ATOM     53  CB  PRO G   6      47.783  13.969  -3.274  1.00 38.26     0.037 C 
ATOM     54  O   TRP G   5      47.486  14.800   0.843  1.00 31.33    -0.271 OA
BRANCH  51  55
ATOM     55  CA  TRP G   5      48.882  12.896   1.224  1.00 33.03     0.181 C 
BRANCH  55  56
ATOM     56  CB  TRP G   5      47.879  11.981   1.925  1.00 34.46     0.075 C 
BRANCH  56  57
ATOM     57  CG  TRP G   5      48.476  10.713   2.457  1.00 31.46    -0.028 A 
ATOM     58  CD2 TRP G   5      47.784   9.668   3.155  1.00 33.83    -0.002 A 
ATOM     59  CE3 TRP G   5      46.458   9.485   3.556  1.00 34.43     0.014 A 
ATOM     60  CE2 TRP G   5      48.733   8.673   3.469  1.00 38.54     0.042 A 
ATOM     61  CZ3 TRP G   5      46.122   8.331   4.243  1.00 33.62     0.001 A 
ATOM     62  CH2 TRP G   5      47.083   7.358   4.537  1.00 35.83     0.002 A 
ATOM     63  CZ2 TRP G   5      48.391   7.505   4.155  1.00 36.99     0.030 A 
ATOM     64  NE1 TRP G   5      49.943   9.088   2.974  1.00 38.15    -0.365 N 
ATOM     65  CD1 TRP G   5      49.780  10.314   2.366  1.00 30.20     0.096 A 
ATOM     66  HE1 TRP G   5      50.683   8.654   3.033  1.00 38.15     0.165 HD
ENDBRANCH  56  57
ENDBRANCH  55  56
BRANCH  55  67
ATOM     67  N   TRP G   5      49.686  13.623   2.197  1.00 35.55    -0.345 N 
ATOM     68  H   TRP G   5      49.332  13.682   2.978  1.00 35.55     0.163 HD
ATOM     69  C   ARG G   4      50.866  14.142   1.876  1.00 46.16     0.257 C 
ATOM     70  O   ARG G   4      51.410  13.957   0.784  1.00 51.01    -0.271 OA
BRANCH  69  71
ATOM     71  CA  ARG G   4      51.544  14.972   2.959  1.00 46.30     0.400 C 
ATOM     72  N   ARG G   4      50.701  15.079   4.148  1.00 41.08     0.615 N 
BRANCH  71  73
ATOM     73  CB  ARG G   4      52.899  14.362   3.320  1.00 45.78     0.053 C 
BRANCH  73  74
ATOM     74  CG  ARG G   4      53.702  15.227   4.278  1.00 42.28     0.023 C 
BRANCH  74  75
ATOM     75  CD  ARG G   4      53.748  16.665   3.783  1.00 34.41     0.138 C 
BRANCH  75  76
ATOM     76  NE  ARG G   4      54.432  17.542   4.729  1.00 34.91    -0.227 N 
ATOM     77  HE  ARG G   4      53.954  17.983   5.292  1.00 34.91     0.177 HD
ATOM     78  CZ  ARG G   4      55.750  17.697   4.769  1.00 31.49     0.665 C 
ATOM     79  NH1 ARG G   4      56.520  17.033   3.917  1.00 30.98    -0.235 N 
ATOM     80  NH2 ARG G   4      56.303  18.510   5.656  1.00 25.73    -0.235 N 
ATOM     81 HH12 ARG G   4      57.374  17.132   3.942  1.00 30.98     0.174 HD
ATOM     82 HH11 ARG G   4      56.165  16.503   3.340  1.00 30.98     0.174 HD
ATOM     83 HH21 ARG G   4      55.808  18.942   6.211  1.00 25.73     0.174 HD
ATOM     84 HH22 ARG G   4      57.157  18.606   5.677  1.00 25.73     0.174 HD
ENDBRANCH  75  76
ENDBRANCH  74  75
ENDBRANCH  73  74
ENDBRANCH  71  73
ENDBRANCH  69  71
ENDBRANCH  55  67
ENDBRANCH  51  55
ENDBRANCH  45  48
ENDBRANCH   1  44
TORSDOF 28
