REMARK  24 active torsions:
REMARK  status: ('A' for Active; 'I' for Inactive)
REMARK    1  A    between atoms: CA_2  and  CB_5 
REMARK    2  A    between atoms: CA_2  and  C_3 
REMARK       I    between atoms: C_3  and  N_8 
REMARK    3  A    between atoms: N_8  and  CA_9 
REMARK    4  A    between atoms: CA_9  and  CB_12 
REMARK    5  A    between atoms: CA_9  and  C_10 
REMARK       I    between atoms: C_10  and  N_16 
REMARK    6  A    between atoms: CB_12  and  OG_13 
REMARK    7  A    between atoms: CA_17  and  C_18 
REMARK       I    between atoms: C_18  and  N_23 
REMARK    8  A    between atoms: N_23  and  CA_24 
REMARK    9  A    between atoms: CA_24  and  C_25 
REMARK   10  A    between atoms: CA_24  and  CB_27 
REMARK       I    between atoms: C_25  and  N_31 
REMARK   11  A    between atoms: CB_27  and  OG_28 
REMARK   12  A    between atoms: N_31  and  CA_32 
REMARK   13  A    between atoms: CA_32  and  C_33 
REMARK   14  A    between atoms: CA_32  and  CB_35 
REMARK       I    between atoms: C_33  and  N_40 
REMARK   15  A    between atoms: CB_35  and  OG1_36 
REMARK   16  A    between atoms: N_40  and  CA_41 
REMARK   17  A    between atoms: CA_41  and  C_42 
REMARK   18  A    between atoms: CA_41  and  CB_44 
REMARK       I    between atoms: C_42  and  N_48 
REMARK   19  A    between atoms: CB_44  and  OG_45 
REMARK   20  A    between atoms: N_48  and  CA_49 
REMARK   21  A    between atoms: CA_49  and  C_50 
REMARK   22  A    between atoms: CA_49  and  CB_52 
REMARK   23  A    between atoms: CB_52  and  CG_53 
REMARK   24  A    between atoms: CZ_58  and  OH_59 
ROOT
ATOM      1  C   SER B 156      35.900 -12.246  -9.942  1.00 15.87     0.243 C 
ATOM      2  O   SER B 156      35.033 -12.131 -10.810  1.00 15.60    -0.271 OA
ATOM      3  N   THR B 157      37.108 -11.700 -10.042  1.00 16.26    -0.344 N 
ATOM      4  H   THR B 157      37.709 -11.738  -9.428  1.00 16.26     0.163 HD
ENDROOT
BRANCH   3   5
ATOM      5  CA  THR B 157      37.508 -10.977 -11.237  1.00 15.91     0.205 C 
BRANCH   5   6
ATOM      6  C   THR B 157      37.928 -12.078 -12.206  1.00 16.14     0.243 C 
ATOM      7  O   THR B 157      38.064 -13.239 -11.807  1.00 15.69    -0.271 OA
ATOM      8  N   SER B 158      38.132 -11.725 -13.469  1.00 15.14    -0.344 N 
ATOM      9  H   SER B 158      38.044 -10.924 -13.768  1.00 15.14     0.163 HD
BRANCH   8  10
ATOM     10  CA  SER B 158      38.533 -12.709 -14.469  1.00 18.36     0.200 C 
BRANCH  10  11
ATOM     11  C   SER B 158      40.004 -13.082 -14.310  1.00 20.96     0.243 C 
ATOM     12  O   SER B 158      40.508 -13.967 -15.004  1.00 20.92    -0.271 OA
ATOM     13  N   TYR B 159      40.687 -12.402 -13.395  1.00 23.40    -0.347 N 
ATOM     14  H   TYR B 159      40.347 -11.783 -12.903  1.00 23.40     0.163 HD
BRANCH  13  15
ATOM     15  CA  TYR B 159      42.103 -12.660 -13.148  1.00 28.83     0.166 C 
BRANCH  15  16
ATOM     16  C   TYR B 159      42.300 -14.008 -12.464  1.00 30.09     0.219 C 
ATOM     17  O   TYR B 159      43.133 -14.785 -12.978  1.00 33.46    -0.287 OA
ENDBRANCH  15  16
BRANCH  15  18
ATOM     18  CB  TYR B 159      42.698 -11.553 -12.274  1.00 32.38     0.072 C 
BRANCH  18  19
ATOM     19  CG  TYR B 159      44.199 -11.649 -12.112  1.00 36.58    -0.056 A 
ATOM     20  CD2 TYR B 159      44.767 -12.005 -10.889  1.00 38.67     0.010 A 
ATOM     21  CE2 TYR B 159      46.149 -12.106 -10.739  1.00 40.79     0.037 A 
ATOM     22  CZ  TYR B 159      46.975 -11.846 -11.821  1.00 41.05     0.065 A 
ATOM     23  CE1 TYR B 159      46.435 -11.489 -13.046  1.00 40.09     0.037 A 
ATOM     24  CD1 TYR B 159      45.052 -11.394 -13.185  1.00 38.09     0.010 A 
BRANCH  22  25
ATOM     25  OH  TYR B 159      48.341 -11.943 -11.679  1.00 43.66    -0.361 OA
ATOM     26  HH  TYR B 159      48.526 -12.165 -10.890  1.00 43.66     0.217 HD
ENDBRANCH  22  25
ENDBRANCH  18  19
ENDBRANCH  15  18
ENDBRANCH  13  15
ENDBRANCH  10  11
BRANCH  10  27
ATOM     27  CB  SER B 158      38.295 -12.158 -15.876  1.00 15.79     0.199 C 
BRANCH  27  28
ATOM     28  OG  SER B 158      39.126 -11.039 -16.129  1.00 17.90    -0.398 OA
ATOM     29  HG  SER B 158      38.651 -10.352 -16.220  1.00 17.90     0.209 HD
ENDBRANCH  27  28
ENDBRANCH  10  27
ENDBRANCH   8  10
ENDBRANCH   5   6
BRANCH   5  30
ATOM     30  CB  THR B 157      38.720 -10.055 -10.981  1.00 18.18     0.146 C 
ATOM     31  CG2 THR B 157      38.402  -9.038  -9.898  1.00 16.96     0.042 C 
BRANCH  30  32
ATOM     32  OG1 THR B 157      39.848 -10.847 -10.585  1.00 15.90    -0.393 OA
ATOM     33  HG1 THR B 157      39.618 -11.377  -9.975  1.00 15.90     0.210 HD
ENDBRANCH  30  32
ENDBRANCH   5  30
ENDBRANCH   3   5
BRANCH   1  34
ATOM     34  CA  SER B 156      35.625 -13.033  -8.673  1.00 16.58     0.200 C 
BRANCH  34  35
ATOM     35  N   SER B 156      34.263 -13.547  -8.740  1.00 15.80    -0.344 N 
ATOM     36  H   SER B 156      33.864 -13.389  -9.485  1.00 15.80     0.163 HD
ATOM     37  C   PRO B 155      33.701 -14.201  -7.728  1.00 18.36     0.241 C 
ATOM     38  O   PRO B 155      34.275 -14.414  -6.659  1.00 18.57    -0.271 OA
BRANCH  37  39
ATOM     39  CA  PRO B 155      32.271 -14.676  -7.951  1.00 19.30     0.179 C 
ATOM     40  CB  PRO B 155      31.250 -13.591  -7.632  1.00 17.99     0.037 C 
ATOM     41  CG  PRO B 155      31.076 -13.753  -6.152  1.00 20.29     0.022 C 
ATOM     42  CD  PRO B 155      30.979 -15.264  -5.990  1.00 20.15     0.127 C 
ATOM     43  N   PRO B 155      31.896 -15.758  -7.034  1.00 20.34    -0.337 N 
ATOM     44  C   SER B 154      32.296 -17.028  -7.216  1.00 23.17     0.245 C 
ATOM     45  O   SER B 154      33.004 -17.362  -8.166  1.00 21.43    -0.271 OA
BRANCH  44  46
ATOM     46  CA  SER B 154      31.836 -18.058  -6.188  1.00 26.04     0.200 C 
BRANCH  46  47
ATOM     47  N   SER B 154      31.533 -19.343  -6.810  1.00 29.08    -0.344 N 
ATOM     48  H   SER B 154      32.190 -19.691  -7.243  1.00 29.08     0.163 HD
ATOM     49  C   VAL B 153      30.334 -19.907  -6.702  1.00 31.74     0.257 C 
ATOM     50  O   VAL B 153      29.405 -19.392  -6.084  1.00 31.76    -0.271 OA
BRANCH  49  51
ATOM     51  CA  VAL B 153      30.154 -21.252  -7.399  1.00 34.29     0.403 C 
ATOM     52  N   VAL B 153      30.877 -21.264  -8.701  1.00 34.52     0.615 N 
BRANCH  51  53
ATOM     53  CB  VAL B 153      30.673 -22.368  -6.460  1.00 36.17     0.026 C 
ATOM     54  CG2 VAL B 153      30.661 -23.703  -7.180  1.00 38.03     0.012 C 
ATOM     55  CG1 VAL B 153      29.817 -22.434  -5.205  1.00 38.39     0.012 C 
ENDBRANCH  51  53
ENDBRANCH  49  51
ENDBRANCH  46  47
BRANCH  46  56
ATOM     56  CB  SER B 154      32.920 -18.226  -5.120  1.00 27.48     0.199 C 
BRANCH  56  57
ATOM     57  OG  SER B 154      32.431 -18.959  -4.010  1.00 30.72    -0.398 OA
ATOM     58  HG  SER B 154      33.040 -19.041  -3.438  1.00 30.72     0.209 HD
ENDBRANCH  56  57
ENDBRANCH  46  56
ENDBRANCH  44  46
ENDBRANCH  37  39
ENDBRANCH  34  35
BRANCH  34  59
ATOM     59  CB  SER B 156      36.626 -14.187  -8.601  1.00 16.81     0.199 C 
BRANCH  59  60
ATOM     60  OG  SER B 156      36.708 -14.854  -9.852  1.00 16.65    -0.398 OA
ATOM     61  HG  SER B 156      37.220 -14.428 -10.364  1.00 16.65     0.209 HD
ENDBRANCH  59  60
ENDBRANCH  34  59
ENDBRANCH   1  34
TORSDOF 24
