REMARK  27 active torsions:
REMARK  status: ('A' for Active; 'I' for Inactive)
REMARK    1  A    between atoms: CA_2  and  CB_5 
REMARK    2  A    between atoms: CA_2  and  C_3 
REMARK       I    between atoms: C_3  and  N_8 
REMARK    3  A    between atoms: CB_5  and  OG_6 
REMARK    4  A    between atoms: N_8  and  CA_9 
REMARK    5  A    between atoms: CA_9  and  CB_12 
REMARK    6  A    between atoms: CA_9  and  C_10 
REMARK       I    between atoms: C_10  and  N_21 
REMARK    7  A    between atoms: CB_12  and  CG_13 
REMARK    8  A    between atoms: CG_13  and  CD_14 
REMARK    9  A    between atoms: CD_14  and  CE_15 
REMARK   10  A    between atoms: CE_15  and  NZ_16 
REMARK   11  A    between atoms: N_21  and  CA_22 
REMARK   12  A    between atoms: CA_22  and  CB_25 
REMARK   13  A    between atoms: CA_22  and  C_23 
REMARK       I    between atoms: C_23  and  N_38 
REMARK   14  A    between atoms: CB_25  and  CG_26 
REMARK   15  A    between atoms: CG_26  and  CD_27 
REMARK   16  A    between atoms: CD_27  and  NE_28 
REMARK       I    between atoms: NE_28  and  CZ_29 
REMARK       I    between atoms: CZ_29  and  NH1_30 
REMARK       I    between atoms: CZ_29  and  NH2_31 
REMARK   17  A    between atoms: N_38  and  CA_39 
REMARK   18  A    between atoms: CA_39  and  C_40 
REMARK       I    between atoms: C_40  and  N_44 
REMARK   19  A    between atoms: N_44  and  CA_45 
REMARK   20  A    between atoms: CA_45  and  C_46 
REMARK   21  A    between atoms: CA_45  and  CB_48 
REMARK       I    between atoms: C_46  and  N_61 
REMARK   22  A    between atoms: CB_48  and  CG_49 
REMARK   23  A    between atoms: CG_49  and  CD_50 
REMARK   24  A    between atoms: CD_50  and  NE_51 
REMARK       I    between atoms: NE_51  and  CZ_52 
REMARK       I    between atoms: CZ_52  and  NH1_53 
REMARK   25  A    between atoms: CA_62  and  C_63 
REMARK       I    between atoms: C_63  and  N_68 
REMARK   26  A    between atoms: N_68  and  CA_69 
REMARK   27  A    between atoms: CA_69  and  C_70 
ROOT
ATOM      1  C   ARG A  15      42.154  58.711  40.917  1.00 45.62     0.241 C 
ATOM      2  O   ARG A  15      41.195  58.739  41.702  1.00 41.49    -0.271 OA
ATOM      3  N   ALA A  16      43.098  59.657  40.897  1.00 45.00    -0.346 N 
ATOM      4  H   ALA A  16      43.823  59.606  40.438  1.00 45.00     0.163 HD
ENDROOT
BRANCH   1   5
ATOM      5  CA  ARG A  15      42.274  57.580  39.895  1.00 46.83     0.176 C 
BRANCH   5   6
ATOM      6  CB  ARG A  15      41.372  57.909  38.684  1.00 49.57     0.036 C 
BRANCH   6   7
ATOM      7  CG  ARG A  15      41.454  56.919  37.502  1.00 52.69     0.023 C 
BRANCH   7   8
ATOM      8  CD  ARG A  15      40.242  57.017  36.574  1.00 53.59     0.138 C 
BRANCH   8   9
ATOM      9  NE  ARG A  15      39.898  58.401  36.257  1.00 54.25    -0.227 N 
ATOM     10  CZ  ARG A  15      38.835  59.050  36.718  1.00 51.22     0.665 C 
ATOM     11  NH1 ARG A  15      37.960  58.452  37.518  1.00 49.54    -0.235 N 
ATOM     12  NH2 ARG A  15      38.637  60.308  36.364  1.00 55.83    -0.235 N 
ATOM     13 HH12 ARG A  15      37.276  58.886  37.808  1.00 49.54     0.174 HD
ATOM     14 HH11 ARG A  15      38.077  57.631  37.746  1.00 49.54     0.174 HD
ATOM     15 HH22 ARG A  15      37.951  60.735  36.659  1.00 55.83     0.174 HD
ATOM     16 HH21 ARG A  15      39.194  60.700  35.839  1.00 55.83     0.174 HD
ATOM     17  HE  ARG A  15      40.426  58.829  35.730  1.00 54.25     0.177 HD
ENDBRANCH   8   9
ENDBRANCH   7   8
ENDBRANCH   6   7
ENDBRANCH   5   6
BRANCH   5  18
ATOM     18  N   ARG A  15      41.900  56.283  40.478  1.00 49.13    -0.346 N 
ATOM     19  H   ARG A  15      41.097  56.253  40.786  1.00 49.13     0.163 HD
ATOM     20  C   LYS A  14      42.748  55.253  40.517  1.00 54.29     0.241 C 
ATOM     21  O   LYS A  14      43.901  55.324  40.084  1.00 54.85    -0.271 OA
BRANCH  20  22
ATOM     22  CA  LYS A  14      42.253  53.936  41.126  1.00 53.70     0.176 C 
BRANCH  22  23
ATOM     23  N   LYS A  14      42.871  52.839  40.369  1.00 51.97    -0.346 N 
ATOM     24  C   SER A  13      42.564  52.628  39.087  1.00 54.08     0.259 C 
ATOM     25  O   SER A  13      41.625  53.206  38.508  1.00 52.27    -0.271 OA
ATOM     26  H   LYS A  14      43.430  52.363  40.817  1.00 51.97     0.163 HD
BRANCH  24  27
ATOM     27  CA  SER A  13      43.449  51.637  38.323  1.00 61.00     0.423 C 
ATOM     28  N   SER A  13      44.286  50.790  39.184  1.00 64.04     0.617 N 
BRANCH  27  29
ATOM     29  CB  SER A  13      42.597  50.783  37.389  1.00 62.15     0.215 C 
BRANCH  29  30
ATOM     30  OG  SER A  13      42.108  49.649  38.074  1.00 63.97    -0.398 OA
ATOM     31  HG  SER A  13      42.635  49.449  38.697  1.00 63.97     0.209 HD
ENDBRANCH  29  30
ENDBRANCH  27  29
ENDBRANCH  24  27
ENDBRANCH  22  23
BRANCH  22  32
ATOM     32  CB  LYS A  14      42.657  53.885  42.610  1.00 53.93     0.035 C 
BRANCH  32  33
ATOM     33  CG  LYS A  14      42.417  52.547  43.331  1.00 52.68     0.004 C 
BRANCH  33  34
ATOM     34  CD  LYS A  14      40.959  52.351  43.718  1.00 44.05     0.027 C 
BRANCH  34  35
ATOM     35  CE  LYS A  14      40.801  51.252  44.771  1.00 42.34     0.229 C 
BRANCH  35  36
ATOM     36  NZ  LYS A  14      39.455  51.371  45.476  1.00 42.55    -0.079 N 
ATOM     37  HZ1 LYS A  14      39.487  50.938  46.253  1.00 42.55     0.274 HD
ATOM     38  HZ2 LYS A  14      39.272  52.229  45.623  1.00 42.55     0.274 HD
ATOM     39  HZ3 LYS A  14      38.819  51.016  44.964  1.00 42.55     0.274 HD
ENDBRANCH  35  36
ENDBRANCH  34  35
ENDBRANCH  33  34
ENDBRANCH  32  33
ENDBRANCH  22  32
ENDBRANCH  20  22
ENDBRANCH   5  18
ENDBRANCH   1   5
BRANCH   3  40
ATOM     40  CA  ALA A  16      42.958  60.880  41.678  1.00 45.18     0.172 C 
ATOM     41  CB  ALA A  16      44.182  61.772  41.520  1.00 49.83     0.042 C 
BRANCH  40  42
ATOM     42  C   ALA A  16      41.701  61.636  41.228  1.00 49.79     0.240 C 
ATOM     43  O   ALA A  16      41.221  61.474  40.099  1.00 50.51    -0.271 OA
ATOM     44  N   ARG A  17      41.167  62.453  42.126  1.00 50.44    -0.346 N 
ATOM     45  H   ARG A  17      41.437  62.499  42.941  1.00 50.44     0.163 HD
BRANCH  44  46
ATOM     46  CA  ARG A  17      40.071  63.353  41.820  1.00 55.17     0.176 C 
BRANCH  46  47
ATOM     47  C   ARG A  17      40.514  64.278  40.682  1.00 63.19     0.243 C 
ATOM     48  N   PRO A  18      39.608  64.547  39.731  1.00 71.41    -0.337 N 
ATOM     49  CD  PRO A  18      38.417  63.705  39.536  1.00 72.83     0.127 C 
ATOM     50  CA  PRO A  18      39.801  65.492  38.613  1.00 77.88     0.179 C 
ATOM     51  CG  PRO A  18      38.138  63.875  38.070  1.00 77.48     0.022 C 
ATOM     52  CB  PRO A  18      38.529  65.303  37.781  1.00 79.41     0.037 C 
ATOM     53  O   ARG A  17      41.670  64.704  40.637  1.00 63.05    -0.271 OA
BRANCH  50  54
ATOM     54  C   PRO A  18      39.913  66.954  39.057  1.00 78.56     0.241 C 
ATOM     55  O   PRO A  18      39.254  67.343  40.030  1.00 75.87    -0.271 OA
ATOM     56  N   ALA A  19      40.714  67.736  38.325  1.00 80.14    -0.348 N 
ATOM     57  H   ALA A  19      41.058  67.479  37.580  1.00 80.14     0.163 HD
BRANCH  56  58
ATOM     58  CA  ALA A  19      41.099  69.110  38.698  1.00 81.44     0.158 C 
ATOM     59  CB  ALA A  19      41.855  69.770  37.548  1.00 83.90     0.041 C 
BRANCH  58  60
ATOM     60  C   ALA A  19      39.988  70.038  39.200  1.00 82.06     0.219 C 
ATOM     61  O   ALA A  19      40.270  71.053  39.858  1.00 84.95    -0.287 OA
ENDBRANCH  58  60
ENDBRANCH  56  58
ENDBRANCH  50  54
ENDBRANCH  46  47
BRANCH  46  62
ATOM     62  CB  ARG A  17      39.736  64.142  43.098  1.00 51.88     0.036 C 
BRANCH  62  63
ATOM     63  CG  ARG A  17      38.655  65.180  42.992  1.00 49.36     0.023 C 
BRANCH  63  64
ATOM     64  CD  ARG A  17      38.480  65.914  44.353  1.00 46.57     0.138 C 
BRANCH  64  65
ATOM     65  NE  ARG A  17      37.742  65.117  45.353  1.00 43.47    -0.227 N 
ATOM     66  HE  ARG A  17      36.889  65.057  45.261  1.00 43.47     0.177 HD
ATOM     67  CZ  ARG A  17      38.297  64.480  46.392  1.00 44.86     0.665 C 
ATOM     68  NH2 ARG A  17      37.511  63.807  47.225  1.00 38.62    -0.235 N 
ATOM     69  NH1 ARG A  17      39.625  64.525  46.616  1.00 40.09    -0.235 N 
ATOM     70 HH21 ARG A  17      36.662  63.786  47.092  1.00 38.62     0.174 HD
ATOM     71 HH22 ARG A  17      37.852  63.392  47.897  1.00 38.62     0.174 HD
ATOM     72 HH12 ARG A  17      39.962  64.109  47.289  1.00 40.09     0.174 HD
ATOM     73 HH11 ARG A  17      40.136  64.970  46.086  1.00 40.09     0.174 HD
ENDBRANCH  64  65
ENDBRANCH  63  64
ENDBRANCH  62  63
ENDBRANCH  46  62
ENDBRANCH  44  46
ENDBRANCH  40  42
ENDBRANCH   3  40
TORSDOF 27
