REMARK  30 active torsions:
REMARK  status: ('A' for Active; 'I' for Inactive)
REMARK    1  A    between atoms: N_1  and  CA_2 
REMARK    2  A    between atoms: CA_2  and  C_3 
REMARK       I    between atoms: C_3  and  N_9 
REMARK    3  A    between atoms: N_9  and  CA_10 
REMARK    4  A    between atoms: CA_10  and  CB_13 
REMARK    5  A    between atoms: CA_10  and  C_11 
REMARK       I    between atoms: C_11  and  N_26 
REMARK    6  A    between atoms: CB_13  and  CG_14 
REMARK    7  A    between atoms: CG_14  and  CD_15 
REMARK    8  A    between atoms: CD_15  and  NE_16 
REMARK       I    between atoms: NE_16  and  CZ_17 
REMARK       I    between atoms: CZ_17  and  NH1_18 
REMARK    9  A    between atoms: N_26  and  CA_27 
REMARK   10  A    between atoms: CA_27  and  CB_30 
REMARK   11  A    between atoms: CA_27  and  C_28 
REMARK       I    between atoms: C_28  and  N_35 
REMARK   12  A    between atoms: CB_30  and  OG1_31 
REMARK   13  A    between atoms: N_35  and  CA_36 
REMARK   14  A    between atoms: CA_36  and  C_37 
REMARK   15  A    between atoms: CA_36  and  CB_39 
REMARK       I    between atoms: C_37  and  N_48 
REMARK   16  A    between atoms: CB_39  and  CG_40 
REMARK   17  A    between atoms: CG_40  and  CD_41 
REMARK   18  A    between atoms: CD_41  and  CE_42 
REMARK   19  A    between atoms: CE_42  and  NZ_43 
REMARK   20  A    between atoms: N_48  and  CA_49 
REMARK   21  A    between atoms: CA_49  and  C_50 
REMARK   22  A    between atoms: CA_49  and  CB_52 
REMARK       I    between atoms: C_50  and  N_60 
REMARK   23  A    between atoms: CB_52  and  CG_53 
REMARK   24  A    between atoms: CG_53  and  CD_54 
REMARK       I    between atoms: CD_54  and  NE2_56 
REMARK   25  A    between atoms: N_60  and  CA_61 
REMARK   26  A    between atoms: CA_61  and  C_62 
REMARK   27  A    between atoms: CA_61  and  CB_64 
REMARK       I    between atoms: C_62  and  N_69 
REMARK   28  A    between atoms: CB_64  and  OG1_65 
REMARK   29  A    between atoms: N_69  and  CA_70 
REMARK   30  A    between atoms: CA_70  and  C_71 
ROOT
ATOM      1  CA  LYS P   4      25.872 -34.080   8.801  1.00 25.22     0.176 C 
ENDROOT
BRANCH   1   2
ATOM      2  C   LYS P   4      24.368 -34.023   8.563  1.00 27.71     0.241 C 
ATOM      3  N   GLN P   5      23.749 -35.187   8.388  1.00 26.60    -0.346 N 
ATOM      4  H   GLN P   5      24.154 -35.944   8.338  1.00 26.60     0.163 HD
ATOM      5  O   LYS P   4      23.778 -32.945   8.545  1.00 22.94    -0.271 OA
BRANCH   3   6
ATOM      6  CA  GLN P   5      22.297 -35.269   8.265  1.00 30.64     0.177 C 
BRANCH   6   7
ATOM      7  C   GLN P   5      21.685 -35.394   9.654  1.00 34.53     0.241 C 
ATOM      8  O   GLN P   5      22.160 -36.185  10.470  1.00 31.76    -0.271 OA
ATOM      9  N   THR P   6      20.639 -34.622   9.936  1.00 31.32    -0.344 N 
ATOM     10  H   THR P   6      20.242 -34.107   9.374  1.00 31.32     0.163 HD
BRANCH   9  11
ATOM     11  CA  THR P   6      20.086 -34.614  11.290  1.00 35.73     0.205 C 
BRANCH  11  12
ATOM     12  C   THR P   6      19.373 -35.903  11.654  1.00 36.89     0.243 C 
ATOM     13  O   THR P   6      18.750 -36.540  10.806  1.00 31.31    -0.271 OA
ATOM     14  N   ALA P   7      19.456 -36.257  12.934  1.00 39.63    -0.348 N 
ATOM     15  H   ALA P   7      19.887 -35.804  13.524  1.00 39.63     0.163 HD
BRANCH  14  16
ATOM     16  CA  ALA P   7      18.818 -37.458  13.459  1.00 40.80     0.158 C 
ATOM     17  CB  ALA P   7      19.391 -37.795  14.825  1.00 41.57     0.041 C 
BRANCH  16  18
ATOM     18  C   ALA P   7      17.304 -37.295  13.543  1.00 41.43     0.219 C 
ATOM     19  O   ALA P   7      16.806 -36.342  14.149  1.00 42.77    -0.287 OA
ENDBRANCH  16  18
ENDBRANCH  14  16
ENDBRANCH  11  12
BRANCH  11  20
ATOM     20  CB  THR P   6      19.097 -33.476  11.499  1.00 30.67     0.146 C 
ATOM     21  CG2 THR P   6      19.779 -32.155  11.257  1.00 25.27     0.042 C 
BRANCH  20  22
ATOM     22  OG1 THR P   6      17.993 -33.632  10.599  1.00 31.72    -0.393 OA
ATOM     23  HG1 THR P   6      17.522 -32.937  10.610  1.00 31.72     0.210 HD
ENDBRANCH  20  22
ENDBRANCH  11  20
ENDBRANCH   9  11
ENDBRANCH   6   7
BRANCH   6  24
ATOM     24  CB  GLN P   5      21.882 -36.457   7.387  1.00 38.94     0.044 C 
BRANCH  24  25
ATOM     25  CG  GLN P   5      22.497 -36.460   5.986  1.00 42.79     0.105 C 
BRANCH  25  26
ATOM     26  CD  GLN P   5      21.760 -35.565   4.998  1.00 45.14     0.215 C 
ATOM     27  NE2 GLN P   5      22.391 -35.299   3.855  1.00 40.57    -0.370 N 
ATOM     28 1HE2 GLN P   5      23.173 -35.627   3.709  1.00 40.57     0.159 HD
ATOM     29 2HE2 GLN P   5      22.017 -34.800   3.263  1.00 40.57     0.159 HD
ATOM     30  OE1 GLN P   5      20.640 -35.121   5.256  1.00 46.24    -0.274 OA
ENDBRANCH  25  26
ENDBRANCH  24  25
ENDBRANCH   6  24
ENDBRANCH   3   6
ENDBRANCH   1   2
BRANCH   1  31
ATOM     31  CB  LYS P   4      26.158 -34.475  10.246  1.00 18.02     0.035 C 
BRANCH  31  32
ATOM     32  CG  LYS P   4      25.520 -33.560  11.265  1.00 21.69     0.004 C 
BRANCH  32  33
ATOM     33  CD  LYS P   4      25.788 -34.053  12.688  1.00 22.86     0.027 C 
BRANCH  33  34
ATOM     34  CE  LYS P   4      25.277 -33.039  13.709  1.00 21.56     0.229 C 
BRANCH  34  35
ATOM     35  NZ  LYS P   4      25.549 -33.470  15.115  1.00 19.01    -0.079 N 
ATOM     36  HZ2 LYS P   4      24.993 -34.128  15.337  1.00 19.01     0.274 HD
ATOM     37  HZ1 LYS P   4      25.428 -32.781  15.666  1.00 19.01     0.274 HD
ATOM     38  HZ3 LYS P   4      26.389 -33.757  15.180  1.00 19.01     0.274 HD
ENDBRANCH  34  35
ENDBRANCH  33  34
ENDBRANCH  32  33
ENDBRANCH  31  32
ENDBRANCH   1  31
BRANCH   1  39
ATOM     39  N   LYS P   4      26.473 -32.792   8.486  1.00 21.49    -0.346 N 
ATOM     40  H   LYS P   4      25.943 -32.123   8.589  1.00 21.49     0.163 HD
ATOM     41  C   THR P   3      27.728 -32.678   8.078  1.00 20.06     0.243 C 
ATOM     42  O   THR P   3      28.532 -33.603   8.112  1.00 20.20    -0.271 OA
BRANCH  41  43
ATOM     43  CA  THR P   3      28.145 -31.296   7.582  1.00 21.79     0.205 C 
BRANCH  43  44
ATOM     44  CB  THR P   3      27.541 -31.045   6.178  1.00 23.67     0.146 C 
ATOM     45  CG2 THR P   3      28.029 -29.704   5.617  1.00 27.17     0.042 C 
BRANCH  44  46
ATOM     46  OG1 THR P   3      27.899 -32.112   5.289  1.00 23.16    -0.393 OA
ATOM     47  HG1 THR P   3      27.567 -31.969   4.531  1.00 23.16     0.210 HD
ENDBRANCH  44  46
ENDBRANCH  43  44
BRANCH  43  48
ATOM     48  N   THR P   3      29.595 -31.158   7.587  1.00 19.24    -0.344 N 
ATOM     49  H   THR P   3      30.017 -31.794   7.191  1.00 19.24     0.163 HD
ATOM     50  C   ARG P   2      30.185 -30.115   8.170  1.00 23.72     0.241 C 
ATOM     51  O   ARG P   2      29.566 -29.161   8.656  1.00 20.72    -0.271 OA
BRANCH  50  52
ATOM     52  CA  ARG P   2      31.695 -30.125   8.214  1.00 19.94     0.176 C 
BRANCH  52  53
ATOM     53  CB  ARG P   2      32.178 -30.808   9.495  1.00 20.09     0.036 C 
BRANCH  53  54
ATOM     54  CG  ARG P   2      33.688 -31.033   9.540  1.00 23.61     0.023 C 
BRANCH  54  55
ATOM     55  CD  ARG P   2      34.188 -31.307  10.964  1.00 28.00     0.138 C 
BRANCH  55  56
ATOM     56  NE  ARG P   2      34.008 -30.144  11.832  1.00 23.66    -0.227 N 
ATOM     57  CZ  ARG P   2      32.996 -29.993  12.687  1.00 25.68     0.665 C 
ATOM     58  NH1 ARG P   2      32.071 -30.942  12.809  1.00 22.73    -0.235 N 
ATOM     59  NH2 ARG P   2      32.907 -28.891  13.422  1.00 20.68    -0.235 N 
ATOM     60 HH12 ARG P   2      31.420 -30.840  13.362  1.00 22.73     0.174 HD
ATOM     61 HH11 ARG P   2      32.124 -31.658  12.335  1.00 22.73     0.174 HD
ATOM     62 HH22 ARG P   2      32.254 -28.793  13.973  1.00 20.68     0.174 HD
ATOM     63 HH21 ARG P   2      33.502 -28.275  13.347  1.00 20.68     0.174 HD
ATOM     64  HE  ARG P   2      34.594 -29.516  11.788  1.00 23.66     0.177 HD
ENDBRANCH  55  56
ENDBRANCH  54  55
ENDBRANCH  53  54
ENDBRANCH  52  53
BRANCH  52  65
ATOM     65  N   ARG P   2      32.164 -28.745   8.139  1.00 18.68    -0.346 N 
ATOM     66  C   ALA P   1      32.008 -28.038   7.022  1.00 22.59     0.248 C 
ATOM     67  O   ALA P   1      31.611 -28.539   5.967  1.00 23.11    -0.271 OA
ATOM     68  H   ARG P   2      32.534 -28.448   8.856  1.00 18.68     0.163 HD
BRANCH  66  69
ATOM     69  CA  ALA P   1      32.340 -26.554   7.092  1.00 20.73     0.270 C 
ATOM     70  CB  ALA P   1      31.065 -25.739   7.314  1.00 22.81     0.050 C 
BRANCH  69  71
ATOM     71  N   ALA P   1      33.020 -26.114   5.878  1.00 20.88    -0.067 N 
ATOM     72  H1  ALA P   1      33.395 -25.319   6.019  1.00 20.88     0.275 HD
ATOM     73  H2  ALA P   1      33.649 -26.704   5.660  1.00 20.88     0.275 HD
ATOM     74  H3  ALA P   1      32.431 -26.050   5.214  1.00 20.88     0.275 HD
ENDBRANCH  69  71
ENDBRANCH  66  69
ENDBRANCH  52  65
ENDBRANCH  50  52
ENDBRANCH  43  48
ENDBRANCH  41  43
ENDBRANCH   1  39
TORSDOF 30
