REMARK  26 active torsions:
REMARK  status: ('A' for Active; 'I' for Inactive)
REMARK    1  A    between atoms: N_1  and  CA_2 
REMARK    2  A    between atoms: CA_2  and  CB_5 
REMARK    3  A    between atoms: CA_2  and  C_3 
REMARK       I    between atoms: C_3  and  N_14 
REMARK    4  A    between atoms: CB_5  and  CG_6 
REMARK       I    between atoms: CG_6  and  ND2_8 
REMARK    5  A    between atoms: N_14  and  CA_15 
REMARK    6  A    between atoms: CA_15  and  C_16 
REMARK    7  A    between atoms: CA_15  and  CB_18 
REMARK       I    between atoms: C_16  and  N_31 
REMARK    8  A    between atoms: CB_18  and  CG_19 
REMARK    9  A    between atoms: CG_19  and  CD_20 
REMARK   10  A    between atoms: CD_20  and  NE_21 
REMARK       I    between atoms: NE_21  and  CZ_22 
REMARK       I    between atoms: CZ_22  and  NH1_23 
REMARK   11  A    between atoms: N_31  and  CA_32 
REMARK   12  A    between atoms: CA_32  and  CB_35 
REMARK   13  A    between atoms: CA_32  and  C_33 
REMARK       I    between atoms: C_33  and  N_40 
REMARK   14  A    between atoms: CB_35  and  CG_36 
REMARK   15  A    between atoms: N_40  and  CA_41 
REMARK   16  A    between atoms: CA_41  and  C_42 
REMARK   17  A    between atoms: CA_41  and  CB_44 
REMARK       I    between atoms: C_42  and  N_49 
REMARK   18  A    between atoms: CB_44  and  CG_45 
REMARK   19  A    between atoms: N_49  and  CA_50 
REMARK   20  A    between atoms: CA_50  and  C_51 
REMARK   21  A    between atoms: CA_50  and  CB_53 
REMARK       I    between atoms: C_51  and  N_58 
REMARK   22  A    between atoms: CB_53  and  CG_54 
REMARK   23  A    between atoms: N_58  and  CA_59 
REMARK   24  A    between atoms: CA_59  and  CB_62 
REMARK   25  A    between atoms: CA_59  and  C_60 
REMARK   26  A    between atoms: CB_62  and  OG1_63 
ROOT
ATOM      1  CA  LEU B   3     -19.235 -22.436 -30.795  1.00 17.18     0.177 C 
ENDROOT
BRANCH   1   2
ATOM      2  N   LEU B   3     -20.253 -22.861 -29.909  1.00 21.09    -0.346 N 
ATOM      3  C   ARG B   2     -20.312 -24.116 -29.473  1.00 20.79     0.241 C 
ATOM      4  O   ARG B   2     -19.448 -24.978 -29.737  1.00 18.81    -0.271 OA
ATOM      5  H   LEU B   3     -20.813 -22.247 -29.687  1.00 21.09     0.163 HD
BRANCH   3   6
ATOM      6  CA  ARG B   2     -21.562 -24.473 -28.679  1.00 21.42     0.176 C 
BRANCH   6   7
ATOM      7  CB  ARG B   2     -21.547 -23.907 -27.255  1.00 36.36     0.036 C 
BRANCH   7   8
ATOM      8  CG  ARG B   2     -22.946 -23.750 -26.690  1.00 41.67     0.023 C 
BRANCH   8   9
ATOM      9  CD  ARG B   2     -22.961 -23.294 -25.230  1.00 51.14     0.138 C 
BRANCH   9  10
ATOM     10  NE  ARG B   2     -24.225 -22.621 -24.879  1.00 53.41    -0.227 N 
ATOM     11  HE  ARG B   2     -24.816 -22.544 -25.499  1.00 53.41     0.177 HD
ATOM     12  CZ  ARG B   2     -24.530 -22.120 -23.676  1.00 50.83     0.665 C 
ATOM     13  NH1 ARG B   2     -23.666 -22.200 -22.672  1.00 40.00    -0.235 N 
ATOM     14  NH2 ARG B   2     -25.708 -21.524 -23.483  1.00 54.23    -0.235 N 
ATOM     15 HH11 ARG B   2     -22.902 -22.576 -22.791  1.00 40.00     0.174 HD
ATOM     16 HH12 ARG B   2     -23.870 -21.875 -21.902  1.00 40.00     0.174 HD
ATOM     17 HH21 ARG B   2     -26.270 -21.462 -24.131  1.00 54.23     0.174 HD
ATOM     18 HH22 ARG B   2     -25.905 -21.202 -22.711  1.00 54.23     0.174 HD
ENDBRANCH   9  10
ENDBRANCH   8   9
ENDBRANCH   7   8
ENDBRANCH   6   7
BRANCH   6  19
ATOM     19  N   ARG B   2     -21.690 -25.914 -28.676  1.00 29.89    -0.346 N 
ATOM     20  C   ASN B   1     -22.046 -26.560 -29.778  1.00 39.87     0.249 C 
ATOM     21  O   ASN B   1     -22.591 -25.996 -30.736  1.00 37.46    -0.271 OA
ATOM     22  H   ARG B   2     -21.520 -26.292 -27.922  1.00 29.89     0.163 HD
BRANCH  20  23
ATOM     23  CA  ASN B   1     -21.750 -28.071 -29.791  1.00 47.73     0.283 C 
BRANCH  23  24
ATOM     24  N   ASN B   1     -22.900 -28.908 -29.553  1.00 51.86    -0.066 N 
ATOM     25  H3  ASN B   1     -23.410 -28.926 -30.282  1.00 51.86     0.275 HD
ATOM     26  H1  ASN B   1     -22.631 -29.734 -29.359  1.00 51.86     0.275 HD
ATOM     27  H2  ASN B   1     -23.369 -28.581 -28.871  1.00 51.86     0.275 HD
ENDBRANCH  23  24
BRANCH  23  28
ATOM     28  CB  ASN B   1     -21.107 -28.529 -31.084  1.00 49.79     0.145 C 
BRANCH  28  29
ATOM     29  CG  ASN B   1     -21.312 -30.009 -31.305  1.00 59.47     0.217 C 
ATOM     30  ND2 ASN B   1     -22.424 -30.374 -31.953  1.00 63.81    -0.370 N 
ATOM     31 1HD2 ASN B   1     -22.593 -31.207 -32.081  1.00 63.81     0.159 HD
ATOM     32 2HD2 ASN B   1     -22.969 -29.775 -32.242  1.00 63.81     0.159 HD
ATOM     33  OD1 ASN B   1     -20.500 -30.822 -30.872  1.00 60.25    -0.274 OA
ENDBRANCH  28  29
ENDBRANCH  23  28
ENDBRANCH  20  23
ENDBRANCH   6  19
ENDBRANCH   3   6
ENDBRANCH   1   2
BRANCH   1  34
ATOM     34  CB  LEU B   3     -19.862 -21.663 -31.989  1.00 28.79     0.038 C 
BRANCH  34  35
ATOM     35  CG  LEU B   3     -20.937 -22.498 -32.693  1.00 33.15    -0.020 C 
ATOM     36  CD2 LEU B   3     -20.354 -23.855 -33.065  1.00 30.13     0.009 C 
ATOM     37  CD1 LEU B   3     -21.550 -21.818 -33.953  1.00 27.67     0.009 C 
ENDBRANCH  34  35
ENDBRANCH   1  34
BRANCH   1  38
ATOM     38  C   LEU B   3     -18.174 -21.618 -30.092  1.00 20.33     0.241 C 
ATOM     39  N   LEU B   4     -16.966 -21.638 -30.646  1.00 23.83    -0.346 N 
ATOM     40  H   LEU B   4     -16.767 -22.077 -31.358  1.00 23.83     0.163 HD
ATOM     41  O   LEU B   3     -18.426 -20.972 -29.079  1.00 22.70    -0.271 OA
BRANCH  39  42
ATOM     42  CA  LEU B   4     -15.860 -20.890 -30.060  1.00 22.91     0.177 C 
BRANCH  42  43
ATOM     43  C   LEU B   4     -15.295 -19.947 -31.127  1.00 30.74     0.241 C 
ATOM     44  O   LEU B   4     -15.224 -20.298 -32.339  1.00 30.11    -0.271 OA
ATOM     45  N   LEU B   5     -14.856 -18.765 -30.716  1.00 32.41    -0.346 N 
ATOM     46  H   LEU B   5     -14.938 -18.448 -29.921  1.00 32.41     0.163 HD
BRANCH  45  47
ATOM     47  CA  LEU B   5     -14.167 -17.903 -31.685  1.00 35.50     0.177 C 
BRANCH  47  48
ATOM     48  C   LEU B   5     -12.656 -18.058 -31.559  1.00 33.38     0.241 C 
ATOM     49  O   LEU B   5     -12.152 -18.809 -30.695  1.00 25.58    -0.271 OA
ATOM     50  N   THR B   6     -11.952 -17.336 -32.425  1.00 32.99    -0.345 N 
ATOM     51  H   THR B   6     -12.310 -16.938 -33.098  1.00 32.99     0.163 HD
BRANCH  50  52
ATOM     52  CA  THR B   6     -10.512 -17.137 -32.337  1.00 39.09     0.190 C 
BRANCH  52  53
ATOM     53  CB  THR B   6      -9.935 -16.688 -33.707  1.00 66.99     0.144 C 
ATOM     54  CG2 THR B   6     -10.040 -17.801 -34.731  1.00 64.52     0.042 C 
BRANCH  53  55
ATOM     55  OG1 THR B   6     -10.665 -15.545 -34.194  1.00 68.32    -0.393 OA
ATOM     56  HG1 THR B   6     -10.711 -14.963 -33.590  1.00 68.32     0.210 HD
ENDBRANCH  53  55
ENDBRANCH  52  53
BRANCH  52  57
ATOM     57  C   THR B   6     -10.228 -16.040 -31.301  1.00 46.48     0.222 C 
ATOM     58  O   THR B   6     -10.281 -14.841 -31.615  1.00 50.47    -0.287 OA
ENDBRANCH  52  57
ENDBRANCH  50  52
ENDBRANCH  47  48
BRANCH  47  59
ATOM     59  CB  LEU B   5     -14.520 -16.437 -31.467  1.00 41.25     0.038 C 
BRANCH  59  60
ATOM     60  CG  LEU B   5     -15.957 -16.005 -31.711  1.00 47.99    -0.020 C 
ATOM     61  CD2 LEU B   5     -16.332 -16.227 -33.150  1.00 50.88     0.009 C 
ATOM     62  CD1 LEU B   5     -16.070 -14.535 -31.364  1.00 54.72     0.009 C 
ENDBRANCH  59  60
ENDBRANCH  47  59
ENDBRANCH  45  47
ENDBRANCH  42  43
BRANCH  42  63
ATOM     63  CB  LEU B   4     -14.779 -21.885 -29.689  1.00 23.96     0.038 C 
BRANCH  63  64
ATOM     64  CG  LEU B   4     -14.750 -22.625 -28.370  1.00 38.52    -0.020 C 
ATOM     65  CD1 LEU B   4     -16.115 -22.809 -27.815  1.00 46.71     0.009 C 
ATOM     66  CD2 LEU B   4     -14.020 -23.962 -28.572  1.00 36.33     0.009 C 
ENDBRANCH  63  64
ENDBRANCH  42  63
ENDBRANCH  39  42
ENDBRANCH   1  38
TORSDOF 26
