REMARK  29 active torsions:
REMARK  status: ('A' for Active; 'I' for Inactive)
REMARK    1  A    between atoms: CA_2  and  C_3 
REMARK    2  A    between atoms: CA_2  and  CB_5 
REMARK       I    between atoms: C_3  and  N_13 
REMARK    3  A    between atoms: CB_5  and  CG_6 
REMARK    4  A    between atoms: CG_6  and  CD_7 
REMARK    5  A    between atoms: CD_7  and  CE_8 
REMARK    6  A    between atoms: CE_8  and  NZ_9 
REMARK    7  A    between atoms: N_13  and  CA_14 
REMARK    8  A    between atoms: CA_14  and  C_15 
REMARK    9  A    between atoms: CA_14  and  CB_17 
REMARK       I    between atoms: C_15  and  N_26 
REMARK   10  A    between atoms: CB_17  and  CG_18 
REMARK   11  A    between atoms: CG_18  and  CD_19 
REMARK   12  A    between atoms: CD_19  and  CE_20 
REMARK   13  A    between atoms: CE_20  and  NZ_21 
REMARK   14  A    between atoms: N_26  and  CA_27 
REMARK   15  A    between atoms: CA_27  and  CB_30 
REMARK   16  A    between atoms: CA_27  and  C_28 
REMARK       I    between atoms: C_28  and  N_43 
REMARK   17  A    between atoms: CB_30  and  CG_31 
REMARK   18  A    between atoms: CG_31  and  CD_32 
REMARK   19  A    between atoms: CD_32  and  NE_33 
REMARK       I    between atoms: NE_33  and  CZ_34 
REMARK       I    between atoms: CZ_34  and  NH1_35 
REMARK   20  A    between atoms: N_43  and  CA_44 
REMARK   21  A    between atoms: CA_44  and  CB_47 
REMARK   22  A    between atoms: CA_44  and  C_45 
REMARK       I    between atoms: C_45  and  N_56 
REMARK   23  A    between atoms: CB_47  and  CG_48 
REMARK   24  A    between atoms: CG_48  and  CD_49 
REMARK   25  A    between atoms: CD_49  and  CE_50 
REMARK   26  A    between atoms: CE_50  and  NZ_51 
REMARK   27  A    between atoms: N_56  and  CA_57 
REMARK   28  A    between atoms: CA_57  and  C_58 
REMARK   29  A    between atoms: CA_57  and  CB_60 
ROOT
ATOM      1  CA  ARG A 130     -31.974  86.343 200.704  1.00 33.49     0.176 C 
ENDROOT
BRANCH   1   2
ATOM      2  CB  ARG A 130     -30.916  85.545 199.940  1.00 35.16     0.036 C 
BRANCH   2   3
ATOM      3  CG  ARG A 130     -30.518  86.111 198.592  1.00 39.71     0.023 C 
BRANCH   3   4
ATOM      4  CD  ARG A 130     -29.448  85.233 197.946  1.00 38.05     0.138 C 
BRANCH   4   5
ATOM      5  NE  ARG A 130     -28.303  85.027 198.834  1.00 39.97    -0.227 N 
ATOM      6  HE  ARG A 130     -27.986  85.713 199.245  1.00 39.97     0.177 HD
ATOM      7  CZ  ARG A 130     -27.719  83.852 199.049  1.00 35.35     0.665 C 
ATOM      8  NH1 ARG A 130     -28.156  82.762 198.431  1.00 35.08    -0.235 N 
ATOM      9  NH2 ARG A 130     -26.688  83.766 199.877  1.00 36.08    -0.235 N 
ATOM     10 HH12 ARG A 130     -27.774  82.005 198.574  1.00 35.08     0.174 HD
ATOM     11 HH11 ARG A 130     -28.821  82.813 197.888  1.00 35.08     0.174 HD
ATOM     12 HH21 ARG A 130     -26.397  84.470 200.275  1.00 36.08     0.174 HD
ATOM     13 HH22 ARG A 130     -26.310  83.006 200.016  1.00 36.08     0.174 HD
ENDBRANCH   4   5
ENDBRANCH   3   4
ENDBRANCH   2   3
ENDBRANCH   1   2
BRANCH   1  14
ATOM     14  C   ARG A 130     -32.564  85.464 201.791  1.00 35.02     0.241 C 
ATOM     15  N   LYS A 131     -33.890  85.398 201.858  1.00 32.29    -0.346 N 
ATOM     16  H   LYS A 131     -34.426  85.836 201.348  1.00 32.29     0.163 HD
ATOM     17  O   ARG A 130     -31.831  84.836 202.550  1.00 31.53    -0.271 OA
BRANCH  15  18
ATOM     18  CA  LYS A 131     -34.539  84.544 202.841  1.00 31.30     0.176 C 
BRANCH  18  19
ATOM     19  CB  LYS A 131     -35.958  85.057 203.137  1.00 33.79     0.035 C 
BRANCH  19  20
ATOM     20  CG  LYS A 131     -35.929  86.320 203.987  1.00 34.08     0.004 C 
BRANCH  20  21
ATOM     21  CD  LYS A 131     -37.279  86.909 204.250  1.00 36.35     0.027 C 
BRANCH  21  22
ATOM     22  CE  LYS A 131     -37.147  88.213 205.026  1.00 32.79     0.229 C 
BRANCH  22  23
ATOM     23  NZ  LYS A 131     -36.846  87.961 206.464  1.00 29.22    -0.079 N 
ATOM     24  HZ3 LYS A 131     -36.066  87.538 206.535  1.00 29.22     0.274 HD
ATOM     25  HZ2 LYS A 131     -37.489  87.458 206.818  1.00 29.22     0.274 HD
ATOM     26  HZ1 LYS A 131     -36.803  88.736 206.899  1.00 29.22     0.274 HD
ENDBRANCH  22  23
ENDBRANCH  21  22
ENDBRANCH  20  21
ENDBRANCH  19  20
ENDBRANCH  18  19
BRANCH  18  27
ATOM     27  C   LYS A 131     -34.556  83.100 202.350  1.00 34.74     0.241 C 
ATOM     28  N   VAL A 132     -34.836  82.166 203.254  1.00 33.85    -0.347 N 
ATOM     29  H   VAL A 132     -34.983  82.329 204.086  1.00 33.85     0.163 HD
ATOM     30  O   LYS A 131     -34.285  82.834 201.178  1.00 35.56    -0.271 OA
BRANCH  28  31
ATOM     31  CA  VAL A 132     -34.917  80.754 202.889  1.00 36.14     0.166 C 
BRANCH  31  32
ATOM     32  C   VAL A 132     -35.890  80.520 201.731  1.00 41.88     0.219 C 
ATOM     33  O   VAL A 132     -35.512  79.933 200.711  1.00 46.22    -0.287 OA
ENDBRANCH  31  32
BRANCH  31  34
ATOM     34  CB  VAL A 132     -35.351  79.882 204.090  1.00 35.83     0.008 C 
ATOM     35  CG1 VAL A 132     -35.618  78.450 203.638  1.00 39.48     0.012 C 
ATOM     36  CG2 VAL A 132     -34.295  79.902 205.168  1.00 35.02     0.012 C 
ENDBRANCH  31  34
ENDBRANCH  28  31
ENDBRANCH  18  27
ENDBRANCH  15  18
ENDBRANCH   1  14
BRANCH   1  37
ATOM     37  N   ARG A 130     -31.414  87.571 201.271  1.00 35.65    -0.346 N 
ATOM     38  H   ARG A 130     -30.655  87.465 201.660  1.00 35.65     0.163 HD
ATOM     39  C   LYS A 129     -32.042  88.741 201.181  1.00 38.36     0.241 C 
ATOM     40  O   LYS A 129     -33.109  88.879 200.592  1.00 38.91    -0.271 OA
BRANCH  39  41
ATOM     41  CA  LYS A 129     -31.375  89.931 201.866  1.00 41.62     0.176 C 
BRANCH  41  42
ATOM     42  CB  LYS A 129     -31.947  90.095 203.272  1.00 37.07     0.035 C 
BRANCH  42  43
ATOM     43  CG  LYS A 129     -31.416  91.296 204.040  1.00 37.25     0.004 C 
BRANCH  43  44
ATOM     44  CD  LYS A 129     -29.897  91.254 204.194  1.00 32.25     0.027 C 
BRANCH  44  45
ATOM     45  CE  LYS A 129     -29.441  92.335 205.166  1.00 33.17     0.229 C 
BRANCH  45  46
ATOM     46  NZ  LYS A 129     -29.378  91.864 206.586  1.00 31.02    -0.079 N 
ATOM     47  HZ2 LYS A 129     -30.191  91.897 206.946  1.00 31.02     0.274 HD
ATOM     48  HZ3 LYS A 129     -29.078  91.026 206.608  1.00 31.02     0.274 HD
ATOM     49  HZ1 LYS A 129     -28.827  92.388 207.049  1.00 31.02     0.274 HD
ENDBRANCH  45  46
ENDBRANCH  44  45
ENDBRANCH  43  44
ENDBRANCH  42  43
ENDBRANCH  41  42
BRANCH  41  50
ATOM     50  N   LYS A 129     -31.533  91.170 201.104  1.00 48.91    -0.346 N 
ATOM     51  C   LYS A 128     -30.649  91.544 200.179  1.00 46.33     0.257 C 
ATOM     52  O   LYS A 128     -29.683  90.855 199.858  1.00 48.39    -0.271 OA
ATOM     53  H   LYS A 129     -32.235  91.623 201.306  1.00 48.91     0.163 HD
BRANCH  51  54
ATOM     54  CA  LYS A 128     -30.901  92.893 199.504  1.00 52.62     0.400 C 
ATOM     55  N   LYS A 128     -32.100  93.523 200.038  1.00 52.42     0.615 N 
BRANCH  54  56
ATOM     56  CB  LYS A 128     -29.686  93.812 199.684  1.00 53.69     0.051 C 
BRANCH  56  57
ATOM     57  CG  LYS A 128     -28.528  93.513 198.742  1.00 48.68     0.004 C 
BRANCH  57  58
ATOM     58  CD  LYS A 128     -27.286  94.297 199.128  1.00 52.15     0.027 C 
BRANCH  58  59
ATOM     59  CE  LYS A 128     -26.105  93.895 198.259  1.00 44.05     0.229 C 
BRANCH  59  60
ATOM     60  NZ  LYS A 128     -24.783  94.250 198.860  1.00 43.39    -0.079 N 
ATOM     61  HZ1 LYS A 128     -24.131  94.020 198.300  1.00 43.39     0.274 HD
ATOM     62  HZ2 LYS A 128     -24.750  95.127 199.009  1.00 43.39     0.274 HD
ATOM     63  HZ3 LYS A 128     -24.680  93.815 199.629  1.00 43.39     0.274 HD
ENDBRANCH  59  60
ENDBRANCH  58  59
ENDBRANCH  57  58
ENDBRANCH  56  57
ENDBRANCH  54  56
ENDBRANCH  51  54
ENDBRANCH  41  50
ENDBRANCH  39  41
ENDBRANCH   1  37
TORSDOF 29
