REMARK  8 active torsions:
REMARK  status: ('A' for Active; 'I' for Inactive)
REMARK       I    between atoms: C_1  and  N_4 
REMARK    1  A    between atoms: CA_5  and  C_6 
REMARK       I    between atoms: C_6  and  N_11 
REMARK    2  A    between atoms: N_11  and  CA_12 
REMARK    3  A    between atoms: CA_12  and  C_13 
REMARK       I    between atoms: C_13  and  N_17 
REMARK    4  A    between atoms: CA_18  and  C_19 
REMARK       I    between atoms: C_19  and  N_24 
REMARK    5  A    between atoms: N_24  and  CA_25 
REMARK    6  A    between atoms: CA_25  and  CB_28 
REMARK    7  A    between atoms: CA_25  and  C_26 
REMARK    8  A    between atoms: CB_28  and  CG_29 
ROOT
ATOM      1  C   ALA P   3     -16.997  25.221  23.184  1.00 17.83     0.243 C 
ATOM      2  O   ALA P   3     -17.309  24.122  22.698  1.00 14.64    -0.271 OA
ATOM      3  N   PRO P   2     -15.873  25.493  23.801  1.00 16.26    -0.337 N 
ATOM      4  CA  PRO P   2     -14.806  24.489  23.940  1.00 13.96     0.179 C 
ATOM      5  CB  PRO P   2     -13.603  25.255  24.480  1.00 15.54     0.037 C 
ATOM      6  CG  PRO P   2     -13.988  26.725  24.447  1.00 16.88     0.022 C 
ATOM      7  CD  PRO P   2     -15.490  26.786  24.413  1.00 18.82     0.127 C 
ENDROOT
BRANCH   1   8
ATOM      8  CA  ALA P   3     -17.993  26.386  23.159  1.00 20.57     0.172 C 
ATOM      9  CB  ALA P   3     -18.762  26.368  24.479  1.00 21.35     0.042 C 
BRANCH   8  10
ATOM     10  N   ALA P   3     -18.928  26.202  22.036  1.00 21.09    -0.346 N 
ATOM     11  C   PRO P   4     -19.468  27.213  21.380  1.00 23.18     0.241 C 
ATOM     12  O   PRO P   4     -19.257  28.433  21.663  1.00 18.89    -0.271 OA
ATOM     13  H   ALA P   3     -19.088  25.378  21.849  1.00 21.09     0.163 HD
BRANCH  11  14
ATOM     14  CA  PRO P   4     -20.388  26.787  20.267  1.00 25.16     0.179 C 
ATOM     15  CB  PRO P   4     -19.744  26.500  18.932  1.00 26.75     0.037 C 
ATOM     16  CG  PRO P   4     -19.570  27.880  18.339  1.00 27.39     0.022 C 
ATOM     17  CD  PRO P   4     -20.853  28.603  18.713  1.00 26.08     0.127 C 
ATOM     18  N   PRO P   4     -21.313  27.923  19.993  1.00 30.07    -0.339 N 
HETATM   19  C   ACE P   5     -22.221  28.129  21.025  1.00 36.72     0.216 C 
HETATM   20  CH3 ACE P   5     -23.222  29.197  20.690  1.00 39.74     0.117 C 
HETATM   21  O   ACE P   5     -22.224  27.523  22.101  1.00 37.57    -0.274 OA
ENDBRANCH  11  14
ENDBRANCH   8  10
ENDBRANCH   1   8
BRANCH   4  22
ATOM     22  C   PRO P   2     -15.265  23.429  24.918  1.00 16.32     0.241 C 
ATOM     23  N   PHE P   1     -15.121  22.165  24.580  1.00 10.52    -0.344 N 
ATOM     24  H   PHE P   1     -14.807  21.897  23.826  1.00 10.52     0.163 HD
ATOM     25  O   PRO P   2     -15.806  23.824  25.994  1.00 16.09    -0.271 OA
BRANCH  23  26
ATOM     26  CA  PHE P   1     -15.502  21.092  25.505  1.00 14.43     0.189 C 
BRANCH  26  27
ATOM     27  CB  PHE P   1     -16.120  19.910  24.768  1.00 14.76     0.074 C 
BRANCH  27  28
ATOM     28  CG  PHE P   1     -17.512  20.219  24.220  1.00 18.21    -0.056 A 
ATOM     29  CD1 PHE P   1     -18.271  21.229  24.801  1.00 21.80     0.007 A 
ATOM     30  CE1 PHE P   1     -19.563  21.505  24.317  1.00 23.78     0.001 A 
ATOM     31  CZ  PHE P   1     -20.083  20.748  23.269  1.00 21.60     0.000 A 
ATOM     32  CE2 PHE P   1     -19.319  19.708  22.690  1.00 26.45     0.001 A 
ATOM     33  CD2 PHE P   1     -18.022  19.441  23.188  1.00 19.03     0.007 A 
ENDBRANCH  27  28
ENDBRANCH  26  27
BRANCH  26  34
ATOM     34  C   PHE P   1     -14.271  20.726  26.397  1.00 13.94     0.197 C 
ATOM     35  O   PHE P   1     -14.259  19.517  26.848  1.00 16.43    -0.646 OA
ATOM     36  OXT PHE P   1     -13.326  21.523  26.799  1.00 13.15    -0.646 OA
ENDBRANCH  26  34
ENDBRANCH  23  26
ENDBRANCH   4  22
TORSDOF 8
