REMARK  11 active torsions:
REMARK  status: ('A' for Active; 'I' for Inactive)
REMARK    1  A    between atoms: CA_2  and  CB_5 
REMARK    2  A    between atoms: CA_2  and  C_3 
REMARK       I    between atoms: C_3  and  N_9 
REMARK    3  A    between atoms: CB_5  and  CG_6 
REMARK    4  A    between atoms: N_9  and  CA_10 
REMARK    5  A    between atoms: CA_10  and  CB_13 
REMARK    6  A    between atoms: CA_10  and  C_11 
REMARK       I    between atoms: C_11  and  N_25 
REMARK    7  A    between atoms: CB_13  and  CG_14 
REMARK    8  A    between atoms: N_25  and  CA_26 
REMARK    9  A    between atoms: CA_26  and  C_27 
REMARK   10  A    between atoms: CA_26  and  CB_29 
REMARK   11  A    between atoms: CB_29  and  CG_30 
REMARK       I    between atoms: CG_30  and  ND2_32 
ROOT
ATOM      1  CA  TRP J 605      -3.900  22.030  69.037  1.00 71.61     0.181 C 
ENDROOT
BRANCH   1   2
ATOM      2  CB  TRP J 605      -4.634  23.016  69.954  1.00 65.14     0.075 C 
BRANCH   2   3
ATOM      3  CG  TRP J 605      -3.794  23.547  71.078  1.00 62.37    -0.028 A 
ATOM      4  CD2 TRP J 605      -4.249  23.928  72.381  1.00 57.80    -0.002 A 
ATOM      5  CE3 TRP J 605      -5.501  23.952  73.004  1.00 58.94     0.014 A 
ATOM      6  CE2 TRP J 605      -3.121  24.357  73.109  1.00 56.30     0.042 A 
ATOM      7  CZ3 TRP J 605      -5.585  24.395  74.311  1.00 59.47     0.001 A 
ATOM      8  CH2 TRP J 605      -4.445  24.815  75.008  1.00 55.92     0.002 A 
ATOM      9  CZ2 TRP J 605      -3.208  24.803  74.426  1.00 56.02     0.030 A 
ATOM     10  NE1 TRP J 605      -2.032  24.238  72.286  1.00 57.88    -0.365 N 
ATOM     11  CD1 TRP J 605      -2.444  23.750  71.071  1.00 63.10     0.096 A 
ATOM     12  HE1 TRP J 605      -1.222  24.437  72.496  1.00 57.88     0.165 HD
ENDBRANCH   2   3
ENDBRANCH   1   2
BRANCH   1  13
ATOM     13  C   TRP J 605      -3.260  20.920  69.873  1.00 60.32     0.241 C 
ATOM     14  N   ASN J 606      -2.056  20.515  69.474  1.00 74.38    -0.344 N 
ATOM     15  H   ASN J 606      -1.680  20.798  68.754  1.00 74.38     0.163 HD
ATOM     16  O   TRP J 605      -3.842  20.452  70.852  1.00 56.87    -0.271 OA
BRANCH  14  17
ATOM     17  CA  ASN J 606      -1.248  19.547  70.218  1.00 65.98     0.194 C 
BRANCH  17  18
ATOM     18  C   ASN J 606      -1.947  18.214  70.468  1.00 66.37     0.197 C 
ATOM     19  O   ASN J 606      -2.914  17.867  69.793  1.00 70.67    -0.646 OA
ATOM     20  OXT ASN J 606      -1.547  17.448  71.346  1.00 61.82    -0.646 OA
ENDBRANCH  17  18
BRANCH  17  21
ATOM     21  CB  ASN J 606      -0.803  20.154  71.549  1.00 63.43     0.138 C 
BRANCH  21  22
ATOM     22  CG  ASN J 606      -0.033  21.451  71.368  1.00 67.06     0.217 C 
ATOM     23  ND2 ASN J 606       0.615  21.909  72.432  1.00 58.48    -0.370 N 
ATOM     24 2HD2 ASN J 606       0.585  21.474  73.174  1.00 58.48     0.159 HD
ATOM     25 1HD2 ASN J 606       1.064  22.640  72.380  1.00 58.48     0.159 HD
ATOM     26  OD1 ASN J 606      -0.024  22.033  70.283  1.00 73.16    -0.274 OA
ENDBRANCH  21  22
ENDBRANCH  17  21
ENDBRANCH  14  17
ENDBRANCH   1  13
BRANCH   1  27
ATOM     27  N   TRP J 605      -4.806  21.522  68.004  1.00 80.26    -0.345 N 
ATOM     28  C   ASP J 604      -5.904  20.817  68.272  1.00 69.06     0.258 C 
ATOM     29  O   ASP J 604      -6.234  20.477  69.409  1.00 67.02    -0.271 OA
ATOM     30  H   TRP J 605      -4.562  21.722  67.204  1.00 80.26     0.163 HD
BRANCH  28  31
ATOM     31  CA  ASP J 604      -6.763  20.432  67.069  1.00 80.57     0.409 C 
ATOM     32  N   ASP J 604      -7.484  21.593  66.558  1.00 92.85     0.615 N 
BRANCH  31  33
ATOM     33  CB  ASP J 604      -5.898  19.814  65.969  1.00 75.75     0.164 C 
BRANCH  33  34
ATOM     34  CG  ASP J 604      -5.328  18.464  66.361  1.00 69.63     0.175 C 
ATOM     35  OD1 ASP J 604      -5.941  17.433  66.012  1.00 75.49    -0.648 OA
ATOM     36  OD2 ASP J 604      -4.265  18.434  67.015  1.00 69.41    -0.648 OA
ENDBRANCH  33  34
ENDBRANCH  31  33
ENDBRANCH  28  31
ENDBRANCH   1  27
TORSDOF 11
