REMARK  18 active torsions:
REMARK  status: ('A' for Active; 'I' for Inactive)
REMARK    1  A    between atoms: CA_2  and  C_3 
REMARK    2  A    between atoms: CA_2  and  CB_5 
REMARK       I    between atoms: C_3  and  N_9 
REMARK    3  A    between atoms: CB_5  and  CG_6 
REMARK    4  A    between atoms: N_9  and  CA_10 
REMARK    5  A    between atoms: CA_10  and  C_11 
REMARK    6  A    between atoms: CA_10  and  CB_13 
REMARK       I    between atoms: C_11  and  N_18 
REMARK    7  A    between atoms: CB_13  and  CG_14 
REMARK    8  A    between atoms: N_18  and  CA_19 
REMARK    9  A    between atoms: CA_19  and  CB_22 
REMARK   10  A    between atoms: CA_19  and  C_20 
REMARK       I    between atoms: C_20  and  N_27 
REMARK   11  A    between atoms: CB_22  and  OG1_23 
REMARK   12  A    between atoms: N_27  and  CA_28 
REMARK   13  A    between atoms: CA_28  and  CB_31 
REMARK   14  A    between atoms: CA_28  and  C_29 
REMARK       I    between atoms: C_29  and  N_44 
REMARK   15  A    between atoms: CB_31  and  CG_32 
REMARK   16  A    between atoms: CG_32  and  CD_33 
REMARK   17  A    between atoms: CD_33  and  NE_34 
REMARK       I    between atoms: NE_34  and  CZ_35 
REMARK       I    between atoms: CZ_35  and  NH1_36 
REMARK   18  A    between atoms: CA_45  and  C_46 
ROOT
ATOM      1  C   THR B 201      11.236  36.210 -10.064  1.00 36.45     0.243 C 
ATOM      2  O   THR B 201      12.078  36.232  -9.163  1.00 40.30    -0.271 OA
ATOM      3  N   ARG B 202      11.204  37.102 -11.049  1.00 33.32    -0.346 N 
ATOM      4  H   ARG B 202      10.652  37.058 -11.707  1.00 33.32     0.163 HD
ENDROOT
BRANCH   1   5
ATOM      5  CA  THR B 201      10.152  35.128 -10.102  1.00 30.51     0.205 C 
BRANCH   5   6
ATOM      6  N   THR B 201       9.409  35.105 -11.365  1.00 29.33    -0.344 N 
ATOM      7  C   LEU B 200       8.208  35.669 -11.471  1.00 28.22     0.241 C 
ATOM      8  O   LEU B 200       7.704  36.333 -10.569  1.00 25.98    -0.271 OA
ATOM      9  H   THR B 201       9.812  34.704 -12.010  1.00 29.33     0.163 HD
BRANCH   7  10
ATOM     10  CA  LEU B 200       7.464  35.468 -12.787  1.00 30.55     0.177 C 
BRANCH  10  11
ATOM     11  N   LEU B 200       8.336  34.970 -13.833  1.00 35.39    -0.346 N 
ATOM     12  H   LEU B 200       8.306  34.119 -13.951  1.00 35.39     0.163 HD
ATOM     13  C   ASP B 199       9.105  35.794 -14.532  1.00 42.58     0.258 C 
ATOM     14  O   ASP B 199       9.153  37.005 -14.315  1.00 44.96    -0.271 OA
BRANCH  13  15
ATOM     15  CA  ASP B 199       9.954  35.152 -15.624  1.00 43.98     0.409 C 
ATOM     16  N   ASP B 199       9.494  35.562 -16.948  1.00 41.74     0.615 N 
BRANCH  15  17
ATOM     17  CB  ASP B 199      11.424  35.518 -15.425  1.00 46.67     0.164 C 
BRANCH  17  18
ATOM     18  CG  ASP B 199      12.056  34.790 -14.249  1.00 50.58     0.175 C 
ATOM     19  OD2 ASP B 199      13.304  34.735 -14.187  1.00 55.98    -0.648 OA
ATOM     20  OD1 ASP B 199      11.316  34.262 -13.393  1.00 45.33    -0.648 OA
ENDBRANCH  17  18
ENDBRANCH  15  17
ENDBRANCH  13  15
ENDBRANCH  10  11
BRANCH  10  21
ATOM     21  CB  LEU B 200       6.292  34.511 -12.585  1.00 29.00     0.038 C 
BRANCH  21  22
ATOM     22  CG  LEU B 200       5.343  34.391 -13.775  1.00 29.82    -0.020 C 
ATOM     23  CD1 LEU B 200       4.610  33.061 -13.724  1.00 24.53     0.009 C 
ATOM     24  CD2 LEU B 200       4.358  35.553 -13.764  1.00 31.40     0.009 C 
ENDBRANCH  21  22
ENDBRANCH  10  21
ENDBRANCH   7  10
ENDBRANCH   5   6
BRANCH   5  25
ATOM     25  CB  THR B 201      10.808  33.759  -9.812  1.00 29.82     0.146 C 
ATOM     26  CG2 THR B 201       9.785  32.644  -9.894  1.00 24.76     0.042 C 
BRANCH  25  27
ATOM     27  OG1 THR B 201      11.851  33.511 -10.762  1.00 30.74    -0.393 OA
ATOM     28  HG1 THR B 201      11.609  33.778 -11.521  1.00 30.74     0.210 HD
ENDBRANCH  25  27
ENDBRANCH   5  25
ENDBRANCH   1   5
BRANCH   3  29
ATOM     29  CA  ARG B 202      12.107  38.251 -11.112  1.00 35.80     0.176 C 
BRANCH  29  30
ATOM     30  CB  ARG B 202      11.975  38.899 -12.489  1.00 39.99     0.036 C 
BRANCH  30  31
ATOM     31  CG  ARG B 202      10.743  39.758 -12.597  1.00 43.12     0.023 C 
BRANCH  31  32
ATOM     32  CD  ARG B 202      10.645  40.455 -13.932  1.00 49.76     0.138 C 
BRANCH  32  33
ATOM     33  NE  ARG B 202       9.368  41.147 -14.058  1.00 51.61    -0.227 N 
ATOM     34  CZ  ARG B 202       8.242  40.558 -14.443  1.00 53.48     0.665 C 
ATOM     35  NH2 ARG B 202       7.122  41.261 -14.526  1.00 55.46    -0.235 N 
ATOM     36  NH1 ARG B 202       8.238  39.265 -14.743  1.00 53.58    -0.235 N 
ATOM     37 HH22 ARG B 202       6.393  40.880 -14.775  1.00 55.46     0.174 HD
ATOM     38 HH21 ARG B 202       7.125  42.098 -14.331  1.00 55.46     0.174 HD
ATOM     39 HH12 ARG B 202       7.509  38.884 -14.992  1.00 53.58     0.174 HD
ATOM     40 HH11 ARG B 202       8.965  38.809 -14.688  1.00 53.58     0.174 HD
ATOM     41  HE  ARG B 202       9.343  41.986 -13.872  1.00 51.61     0.177 HD
ENDBRANCH  32  33
ENDBRANCH  31  32
ENDBRANCH  30  31
ENDBRANCH  29  30
BRANCH  29  42
ATOM     42  C   ARG B 202      11.770  39.238  -9.963  1.00 54.52     0.243 C 
ATOM     43  O   ARG B 202      10.703  39.102  -9.374  1.00 52.27    -0.271 OA
ATOM     44  N   PRO B 203      12.659  40.230  -9.651  1.00 63.22    -0.338 N 
ATOM     45  CD  PRO B 203      13.474  40.968 -10.626  1.00 67.52     0.127 C 
ATOM     46  CA  PRO B 203      12.552  41.094  -8.466  1.00 66.04     0.165 C 
ATOM     47  CG  PRO B 203      12.837  42.347 -10.543  1.00 67.94     0.022 C 
ATOM     48  CB  PRO B 203      12.247  42.459  -9.104  1.00 64.70     0.035 C 
BRANCH  46  49
ATOM     49  C   PRO B 203      11.499  40.762  -7.408  1.00 68.17     0.219 C 
ATOM     50  O   PRO B 203      11.559  41.340  -6.321  1.00 70.96    -0.287 OA
ENDBRANCH  46  49
ENDBRANCH  29  42
ENDBRANCH   3  29
TORSDOF 18
