REMARK  20 active torsions:
REMARK  status: ('A' for Active; 'I' for Inactive)
REMARK    1  A    between atoms: CA_2  and  C_3 
REMARK    2  A    between atoms: CA_2  and  CB_5 
REMARK       I    between atoms: C_3  and  N_12 
REMARK    3  A    between atoms: CB_5  and  CG_6 
REMARK    4  A    between atoms: CG_6  and  CD_7 
REMARK       I    between atoms: CD_7  and  NE2_9 
REMARK    5  A    between atoms: N_12  and  CA_13 
REMARK    6  A    between atoms: CA_13  and  CB_16 
REMARK    7  A    between atoms: CA_13  and  C_14 
REMARK       I    between atoms: C_14  and  N_20 
REMARK    8  A    between atoms: N_20  and  CA_21 
REMARK    9  A    between atoms: CA_21  and  C_22 
REMARK   10  A    between atoms: CA_21  and  CB_24 
REMARK       I    between atoms: C_22  and  N_31 
REMARK   11  A    between atoms: CB_24  and  CG_25 
REMARK       I    between atoms: CG_25  and  ND2_27 
REMARK   12  A    between atoms: N_31  and  CA_32 
REMARK   13  A    between atoms: CA_32  and  CB_35 
REMARK   14  A    between atoms: CA_32  and  C_33 
REMARK       I    between atoms: C_33  and  N_42 
REMARK   15  A    between atoms: CB_35  and  CG_36 
REMARK       I    between atoms: CG_36  and  ND2_38 
REMARK   16  A    between atoms: CA_43  and  C_44 
REMARK       I    between atoms: C_44  and  N_49 
REMARK   17  A    between atoms: N_49  and  CA_50 
REMARK   18  A    between atoms: CA_50  and  CB_53 
REMARK   19  A    between atoms: CA_50  and  C_51 
REMARK   20  A    between atoms: CB_53  and  CG_54 
ROOT
ATOM      1  C   ASN C  17     -76.946-210.616  83.142  1.00 20.61     0.241 C 
ATOM      2  O   ASN C  17     -76.501-211.630  82.606  1.00 16.51    -0.271 OA
ATOM      3  N   ASN C  18     -77.189-209.485  82.483  1.00 22.51    -0.346 N 
ATOM      4  H   ASN C  18     -77.464-208.763  82.861  1.00 22.51     0.163 HD
ENDROOT
BRANCH   3   5
ATOM      5  CA  ASN C  18     -77.007-209.372  81.040  1.00 19.22     0.185 C 
BRANCH   5   6
ATOM      6  CB  ASN C  18     -78.360-209.161  80.353  1.00 16.89     0.137 C 
BRANCH   6   7
ATOM      7  CG  ASN C  18     -78.259-209.204  78.841  1.00 20.14     0.217 C 
ATOM      8  ND2 ASN C  18     -79.373-208.942  78.166  1.00 20.12    -0.370 N 
ATOM      9 2HD2 ASN C  18     -80.097-208.750  78.589  1.00 20.12     0.159 HD
ATOM     10 1HD2 ASN C  18     -79.370-208.965  77.306  1.00 20.12     0.159 HD
ATOM     11  OD1 ASN C  18     -77.196-209.485  78.286  1.00 18.28    -0.274 OA
ENDBRANCH   6   7
ENDBRANCH   5   6
BRANCH   5  12
ATOM     12  C   ASN C  18     -76.056-208.230  80.671  1.00 21.33     0.243 C 
ATOM     13  N   PRO C  19     -74.797-208.560  80.339  1.00 20.66    -0.337 N 
ATOM     14  CD  PRO C  19     -74.157-209.884  80.438  1.00 23.11     0.127 C 
ATOM     15  CA  PRO C  19     -73.833-207.524  79.957  1.00 23.26     0.179 C 
ATOM     16  CG  PRO C  19     -72.723-209.618  80.042  1.00 22.87     0.022 C 
ATOM     17  CB  PRO C  19     -72.493-208.169  80.304  1.00 23.39     0.037 C 
ATOM     18  O   ASN C  18     -76.452-207.065  80.681  1.00 23.13    -0.271 OA
BRANCH  15  19
ATOM     19  C   PRO C  19     -73.881-207.164  78.472  1.00 24.54     0.241 C 
ATOM     20  N   PHE C  20     -74.747-207.831  77.714  1.00 23.51    -0.344 N 
ATOM     21  H   PHE C  20     -75.349-208.361  78.025  1.00 23.51     0.163 HD
ATOM     22  O   PRO C  19     -73.134-206.286  78.032  1.00 27.52    -0.271 OA
BRANCH  20  23
ATOM     23  CA  PHE C  20     -74.741-207.710  76.257  1.00 27.49     0.189 C 
BRANCH  23  24
ATOM     24  CB  PHE C  20     -74.901-209.097  75.635  1.00 22.62     0.074 C 
BRANCH  24  25
ATOM     25  CG  PHE C  20     -73.924-210.097  76.173  1.00 18.80    -0.056 A 
ATOM     26  CD1 PHE C  20     -72.573-209.952  75.923  1.00 16.53     0.007 A 
ATOM     27  CE1 PHE C  20     -71.661-210.851  76.426  1.00 18.06     0.001 A 
ATOM     28  CZ  PHE C  20     -72.092-211.915  77.201  1.00 17.30     0.000 A 
ATOM     29  CE2 PHE C  20     -73.435-212.069  77.466  1.00 18.45     0.001 A 
ATOM     30  CD2 PHE C  20     -74.346-211.159  76.957  1.00 20.64     0.007 A 
ENDBRANCH  24  25
ENDBRANCH  23  24
BRANCH  23  31
ATOM     31  C   PHE C  20     -75.820-206.761  75.741  1.00 41.21     0.197 C 
ATOM     32  OXT PHE C  20     -76.790-206.456  76.434  1.00 46.78    -0.646 OA
ATOM     33  O   PHE C  20     -75.739-206.264  74.614  1.00 43.65    -0.646 OA
ENDBRANCH  23  31
ENDBRANCH  20  23
ENDBRANCH  15  19
ENDBRANCH   5  12
ENDBRANCH   3   5
BRANCH   1  34
ATOM     34  CA  ASN C  17     -77.269-210.611  84.630  1.00 16.90     0.185 C 
BRANCH  34  35
ATOM     35  N   ASN C  17     -78.563-211.248  84.823  1.00 20.58    -0.346 N 
ATOM     36  C   VAL C  16     -79.692-210.618  84.515  1.00 27.16     0.241 C 
ATOM     37  O   VAL C  16     -79.733-209.418  84.245  1.00 29.43    -0.271 OA
ATOM     38  H   ASN C  17     -78.526-212.045  85.145  1.00 20.58     0.163 HD
BRANCH  36  39
ATOM     39  CA  VAL C  16     -80.966-211.460  84.524  1.00 33.54     0.180 C 
BRANCH  39  40
ATOM     40  CB  VAL C  16     -81.258-211.965  83.091  1.00 32.44     0.009 C 
ATOM     41  CG2 VAL C  16     -82.553-212.778  83.067  1.00 34.10     0.012 C 
ATOM     42  CG1 VAL C  16     -80.078-212.773  82.533  1.00 32.37     0.012 C 
ENDBRANCH  39  40
BRANCH  39  43
ATOM     43  N   VAL C  16     -82.097-210.700  85.043  1.00 45.58    -0.345 N 
ATOM     44  C   GLN C  15     -82.138-210.249  86.291  1.00 57.61     0.257 C 
ATOM     45  O   GLN C  15     -81.218-210.411  87.094  1.00 61.53    -0.271 OA
ATOM     46  H   VAL C  16     -82.727-210.574  84.471  1.00 45.58     0.163 HD
BRANCH  44  47
ATOM     47  CA  GLN C  15     -83.407-209.498  86.686  1.00 63.44     0.400 C 
ATOM     48  N   GLN C  15     -84.514-209.857  85.807  1.00 62.08     0.615 N 
BRANCH  47  49
ATOM     49  CB  GLN C  15     -83.764-209.795  88.141  1.00 68.54     0.060 C 
BRANCH  49  50
ATOM     50  CG  GLN C  15     -82.898-209.048  89.150  1.00 72.89     0.105 C 
BRANCH  50  51
ATOM     51  CD  GLN C  15     -82.022-209.954  89.998  1.00 75.77     0.215 C 
ATOM     52  OE1 GLN C  15     -82.310-211.137  90.179  1.00 77.61    -0.274 OA
ATOM     53  NE2 GLN C  15     -80.943-209.393  90.530  1.00 76.03    -0.370 N 
ATOM     54 2HE2 GLN C  15     -80.414-209.859  91.022  1.00 76.03     0.159 HD
ATOM     55 1HE2 GLN C  15     -80.773-208.563  90.382  1.00 76.03     0.159 HD
ENDBRANCH  50  51
ENDBRANCH  49  50
ENDBRANCH  47  49
ENDBRANCH  44  47
ENDBRANCH  39  43
ENDBRANCH  36  39
ENDBRANCH  34  35
BRANCH  34  56
ATOM     56  CB  ASN C  17     -76.176-211.329  85.427  1.00 15.63     0.137 C 
BRANCH  56  57
ATOM     57  CG  ASN C  17     -74.840-210.614  85.364  1.00 17.63     0.217 C 
ATOM     58  OD1 ASN C  17     -74.655-209.682  84.578  1.00 24.00    -0.274 OA
ATOM     59  ND2 ASN C  17     -73.893-211.056  86.183  1.00 16.48    -0.370 N 
ATOM     60 1HD2 ASN C  17     -73.115-210.690  86.178  1.00 16.48     0.159 HD
ATOM     61 2HD2 ASN C  17     -74.058-211.709  86.718  1.00 16.48     0.159 HD
ENDBRANCH  56  57
ENDBRANCH  34  56
ENDBRANCH   1  34
TORSDOF 20
