REMARK  24 active torsions:
REMARK  status: ('A' for Active; 'I' for Inactive)
REMARK    1  A    between atoms: CA_2  and  CB_5 
REMARK    2  A    between atoms: CA_2  and  C_3 
REMARK       I    between atoms: C_3  and  N_12 
REMARK    3  A    between atoms: CB_5  and  CG_6 
REMARK    4  A    between atoms: CG_6  and  CD_7 
REMARK       I    between atoms: CD_7  and  NE2_9 
REMARK    5  A    between atoms: N_12  and  CA_13 
REMARK    6  A    between atoms: CA_13  and  CB_16 
REMARK    7  A    between atoms: CA_13  and  C_14 
REMARK       I    between atoms: C_14  and  N_21 
REMARK    8  A    between atoms: CB_16  and  CG1_17 
REMARK    9  A    between atoms: N_21  and  CA_22 
REMARK   10  A    between atoms: CA_22  and  CB_25 
REMARK   11  A    between atoms: CA_22  and  C_23 
REMARK       I    between atoms: C_23  and  N_34 
REMARK   12  A    between atoms: CB_25  and  CG_26 
REMARK   13  A    between atoms: CG_26  and  CD_27 
REMARK   14  A    between atoms: CD_27  and  CE_28 
REMARK   15  A    between atoms: CE_28  and  NZ_29 
REMARK   16  A    between atoms: N_34  and  CA_35 
REMARK   17  A    between atoms: CA_35  and  CB_38 
REMARK   18  A    between atoms: CA_35  and  C_36 
REMARK       I    between atoms: C_36  and  N_45 
REMARK   19  A    between atoms: CB_38  and  CG_39 
REMARK       I    between atoms: CG_39  and  ND2_41 
REMARK   20  A    between atoms: CA_46  and  C_47 
REMARK       I    between atoms: C_47  and  N_52 
REMARK   21  A    between atoms: N_52  and  CA_53 
REMARK   22  A    between atoms: CA_53  and  CB_56 
REMARK   23  A    between atoms: CA_53  and  C_54 
REMARK   24  A    between atoms: CB_56  and  CG1_57 
ROOT
ATOM      1  CA  LYS C   4     -38.731  26.312 -22.320  1.00 55.66     0.176 C 
ENDROOT
BRANCH   1   2
ATOM      2  N   LYS C   4     -39.394  25.693 -21.178  1.00 52.22    -0.346 N 
ATOM      3  C   ILE C   3     -39.682  24.395 -21.136  1.00 49.48     0.241 C 
ATOM      4  O   ILE C   3     -39.443  23.620 -22.062  1.00 46.52    -0.271 OA
ATOM      5  H   LYS C   4     -39.579  26.241 -20.542  1.00 52.22     0.163 HD
BRANCH   3   6
ATOM      6  CA  ILE C   3     -40.352  23.902 -19.856  1.00 52.28     0.180 C 
BRANCH   6   7
ATOM      7  N   ILE C   3     -41.425  22.967 -20.172  1.00 58.50    -0.345 N 
ATOM      8  H   ILE C   3     -41.240  22.143 -20.007  1.00 58.50     0.163 HD
ATOM      9  C   GLN C   2     -42.584  23.384 -20.673  1.00 66.26     0.257 C 
ATOM     10  O   GLN C   2     -42.823  24.569 -20.903  1.00 73.27    -0.271 OA
BRANCH   9  11
ATOM     11  CA  GLN C   2     -43.625  22.308 -20.963  1.00 65.71     0.400 C 
ATOM     12  N   GLN C   2     -44.881  22.610 -20.288  1.00 61.11     0.615 N 
BRANCH  11  13
ATOM     13  CB  GLN C   2     -43.843  22.181 -22.473  1.00 69.09     0.060 C 
BRANCH  13  14
ATOM     14  CG  GLN C   2     -42.577  21.857 -23.264  1.00 69.91     0.105 C 
BRANCH  14  15
ATOM     15  CD  GLN C   2     -42.826  21.749 -24.756  1.00 70.47     0.215 C 
ATOM     16  OE1 GLN C   2     -43.905  21.348 -25.190  1.00 73.69    -0.274 OA
ATOM     17  NE2 GLN C   2     -41.824  22.110 -25.551  1.00 67.69    -0.370 N 
ATOM     18 1HE2 GLN C   2     -41.084  22.386 -25.211  1.00 67.69     0.159 HD
ATOM     19 2HE2 GLN C   2     -41.916  22.068 -26.405  1.00 67.69     0.159 HD
ENDBRANCH  14  15
ENDBRANCH  13  14
ENDBRANCH  11  13
ENDBRANCH   9  11
ENDBRANCH   6   7
BRANCH   6  20
ATOM     20  CB  ILE C   3     -39.295  23.263 -18.933  1.00 50.18     0.013 C 
ATOM     21  CG2 ILE C   3     -38.253  24.305 -18.511  1.00 50.82     0.012 C 
BRANCH  20  22
ATOM     22  CG1 ILE C   3     -39.977  22.636 -17.712  1.00 50.01     0.002 C 
ATOM     23  CD1 ILE C   3     -39.025  22.032 -16.701  1.00 50.06     0.005 C 
ENDBRANCH  20  22
ENDBRANCH   6  20
ENDBRANCH   3   6
ENDBRANCH   1   2
BRANCH   1  24
ATOM     24  CB  LYS C   4     -39.542  27.508 -22.823  1.00 61.43     0.035 C 
BRANCH  24  25
ATOM     25  CG  LYS C   4     -38.984  28.169 -24.073  1.00 66.58     0.004 C 
BRANCH  25  26
ATOM     26  CD  LYS C   4     -39.857  29.339 -24.505  1.00 73.00     0.027 C 
BRANCH  26  27
ATOM     27  CE  LYS C   4     -39.302  30.032 -25.739  1.00 75.18     0.229 C 
BRANCH  27  28
ATOM     28  NZ  LYS C   4     -40.124  31.213 -26.126  1.00 76.64    -0.079 N 
ATOM     29  HZ3 LYS C   4     -40.134  31.800 -25.457  1.00 76.64     0.274 HD
ATOM     30  HZ2 LYS C   4     -40.956  30.951 -26.303  1.00 76.64     0.274 HD
ATOM     31  HZ1 LYS C   4     -39.773  31.595 -26.849  1.00 76.64     0.274 HD
ENDBRANCH  27  28
ENDBRANCH  26  27
ENDBRANCH  25  26
ENDBRANCH  24  25
ENDBRANCH   1  24
BRANCH   1  32
ATOM     32  C   LYS C   4     -37.320  26.745 -21.933  1.00 57.21     0.241 C 
ATOM     33  N   ASN C   5     -36.324  26.029 -22.445  1.00 57.25    -0.346 N 
ATOM     34  H   ASN C   5     -36.436  25.356 -22.969  1.00 57.25     0.163 HD
ATOM     35  O   LYS C   4     -37.140  27.708 -21.185  1.00 57.68    -0.271 OA
BRANCH  33  36
ATOM     36  CA  ASN C   5     -34.930  26.336 -22.151  1.00 58.26     0.185 C 
BRANCH  36  37
ATOM     37  CB  ASN C   5     -34.066  25.085 -22.315  1.00 53.49     0.137 C 
BRANCH  37  38
ATOM     38  CG  ASN C   5     -34.389  24.016 -21.289  1.00 47.90     0.217 C 
ATOM     39  OD1 ASN C   5     -34.472  24.293 -20.092  1.00 45.37    -0.274 OA
ATOM     40  ND2 ASN C   5     -34.572  22.786 -21.753  1.00 45.09    -0.370 N 
ATOM     41 2HD2 ASN C   5     -34.506  22.630 -22.596  1.00 45.09     0.159 HD
ATOM     42 1HD2 ASN C   5     -34.757  22.145 -21.210  1.00 45.09     0.159 HD
ENDBRANCH  37  38
ENDBRANCH  36  37
BRANCH  36  43
ATOM     43  C   ASN C   5     -34.399  27.450 -23.046  1.00 62.82     0.243 C 
ATOM     44  O   ASN C   5     -34.760  27.529 -24.226  1.00 59.04    -0.271 OA
ATOM     45  N   PRO C   6     -33.548  28.304 -22.487  1.00 69.97    -0.337 N 
ATOM     46  CA  PRO C   6     -32.967  29.419 -23.243  1.00 73.90     0.179 C 
ATOM     47  CD  PRO C   6     -33.163  28.336 -21.065  1.00 74.49     0.127 C 
ATOM     48  CB  PRO C   6     -31.913  29.976 -22.285  1.00 75.59     0.037 C 
ATOM     49  CG  PRO C   6     -32.422  29.636 -20.927  1.00 76.33     0.022 C 
BRANCH  46  50
ATOM     50  C   PRO C   6     -32.313  28.959 -24.543  1.00 72.73     0.241 C 
ATOM     51  O   PRO C   6     -32.691  29.421 -25.620  1.00 74.17    -0.271 OA
ATOM     52  N   ILE C   7     -31.344  28.056 -24.436  1.00 69.55    -0.347 N 
ATOM     53  H   ILE C   7     -31.075  27.727 -23.688  1.00 69.55     0.163 HD
BRANCH  52  54
ATOM     54  CA  ILE C   7     -30.645  27.541 -25.607  1.00 67.58     0.166 C 
BRANCH  54  55
ATOM     55  CB  ILE C   7     -31.512  26.527 -26.375  1.00 70.68     0.012 C 
ATOM     56  CG2 ILE C   7     -30.781  26.038 -27.616  1.00 70.33     0.012 C 
BRANCH  55  57
ATOM     57  CG1 ILE C   7     -31.874  25.347 -25.471  1.00 72.59     0.002 C 
ATOM     58  CD1 ILE C   7     -32.569  24.216 -26.197  1.00 73.15     0.005 C 
ENDBRANCH  55  57
ENDBRANCH  54  55
BRANCH  54  59
ATOM     59  C   ILE C   7     -30.263  28.676 -26.551  1.00 63.70     0.219 C 
ATOM     60  O   ILE C   7     -30.992  28.984 -27.494  1.00 60.54    -0.287 OA
ENDBRANCH  54  59
ENDBRANCH  52  54
ENDBRANCH  46  50
ENDBRANCH  36  43
ENDBRANCH  33  36
ENDBRANCH   1  32
TORSDOF 24
