REMARK  30 active torsions:
REMARK  status: ('A' for Active; 'I' for Inactive)
REMARK    1  A    between atoms: CA_2  and  CB_5 
REMARK    2  A    between atoms: CA_2  and  C_3 
REMARK       I    between atoms: C_3  and  N_10 
REMARK    3  A    between atoms: CB_5  and  CG_6 
REMARK    4  A    between atoms: CG_6  and  CD_7 
REMARK    5  A    between atoms: N_10  and  CA_11 
REMARK    6  A    between atoms: CA_11  and  CB_14 
REMARK    7  A    between atoms: CA_11  and  C_12 
REMARK       I    between atoms: C_12  and  N_20 
REMARK    8  A    between atoms: CB_14  and  CG_15 
REMARK    9  A    between atoms: CG_15  and  CD_16 
REMARK   10  A    between atoms: N_20  and  CA_21 
REMARK   11  A    between atoms: CA_21  and  C_22 
REMARK   12  A    between atoms: CA_21  and  CB_24 
REMARK       I    between atoms: C_22  and  N_36 
REMARK   13  A    between atoms: CB_24  and  CG_25 
REMARK   14  A    between atoms: N_36  and  CA_37 
REMARK   15  A    between atoms: CA_37  and  C_38 
REMARK   16  A    between atoms: CA_37  and  CB_40 
REMARK       I    between atoms: C_38  and  N_46 
REMARK   17  A    between atoms: CB_40  and  CG_41 
REMARK   18  A    between atoms: CG_41  and  CD_42 
REMARK   19  A    between atoms: N_46  and  CA_47 
REMARK   20  A    between atoms: CA_47  and  C_48 
REMARK   21  A    between atoms: CA_47  and  CB_50 
REMARK       I    between atoms: C_48  and  N_55 
REMARK   22  A    between atoms: CB_50  and  OG1_51 
REMARK   23  A    between atoms: N_55  and  CA_56 
REMARK   24  A    between atoms: CA_56  and  CB_59 
REMARK   25  A    between atoms: CA_56  and  C_57 
REMARK       I    between atoms: C_57  and  N_63 
REMARK   26  A    between atoms: N_63  and  CA_64 
REMARK   27  A    between atoms: CA_64  and  C_65 
REMARK   28  A    between atoms: CA_64  and  CB_67 
REMARK   29  A    between atoms: CB_67  and  CG_68 
REMARK   30  A    between atoms: CG_68  and  SD_69 
ROOT
ATOM      1  C   TRP B 589     -11.337  -0.156 -12.879  1.00  8.59     0.241 C 
ATOM      2  O   TRP B 589     -10.797   0.255 -11.857  1.00  9.54    -0.271 OA
ATOM      3  N   GLU B 590     -10.664  -0.658 -13.901  1.00  8.93    -0.346 N 
ATOM      4  H   GLU B 590     -11.045  -0.954 -14.613  1.00  8.93     0.163 HD
ENDROOT
BRANCH   3   5
ATOM      5  CA  GLU B 590      -9.212  -0.764 -13.932  1.00  8.22     0.177 C 
BRANCH   5   6
ATOM      6  C   GLU B 590      -8.693  -0.098 -15.198  1.00  8.58     0.241 C 
ATOM      7  O   GLU B 590      -9.302  -0.222 -16.256  1.00 10.27    -0.271 OA
ATOM      8  N   THR B 591      -7.569   0.601 -15.081  1.00  8.10    -0.344 N 
ATOM      9  H   THR B 591      -7.132   0.670 -14.344  1.00  8.10     0.163 HD
BRANCH   8  10
ATOM     10  CA  THR B 591      -6.961   1.323 -16.194  1.00  8.42     0.205 C 
BRANCH  10  11
ATOM     11  C   THR B 591      -5.457   1.091 -16.172  1.00  8.31     0.243 C 
ATOM     12  N   VAL B 592      -4.884   0.907 -17.351  1.00  8.54    -0.346 N 
ATOM     13  H   VAL B 592      -5.327   0.904 -18.088  1.00  8.54     0.163 HD
ATOM     14  O   THR B 591      -4.833   1.103 -15.103  1.00  8.65    -0.271 OA
BRANCH  12  15
ATOM     15  CA  VAL B 592      -3.464   0.692 -17.535  1.00  9.13     0.180 C 
BRANCH  15  16
ATOM     16  CB  VAL B 592      -3.211  -0.224 -18.758  1.00  9.93     0.009 C 
ATOM     17  CG2 VAL B 592      -3.985  -1.538 -18.621  1.00 10.24     0.012 C 
ATOM     18  CG1 VAL B 592      -1.731  -0.481 -18.924  1.00 10.82     0.012 C 
ENDBRANCH  15  16
BRANCH  15  19
ATOM     19  C   VAL B 592      -2.785   2.037 -17.720  1.00  9.48     0.241 C 
ATOM     20  O   VAL B 592      -3.108   2.763 -18.657  1.00 10.72    -0.271 OA
ATOM     21  N   MET B 593      -1.853   2.365 -16.824  1.00 10.11    -0.345 N 
ATOM     22  H   MET B 593      -1.587   1.838 -16.199  1.00 10.11     0.163 HD
BRANCH  21  23
ATOM     23  CA  MET B 593      -1.190   3.672 -16.827  1.00 11.88     0.186 C 
BRANCH  23  24
ATOM     24  C   MET B 593       0.278   3.613 -17.239  1.00 15.28     0.196 C 
ATOM     25  OXT MET B 593       0.867   4.658 -17.517  1.00 15.41    -0.646 OA
ATOM     26  O   MET B 593       0.921   2.557 -17.211  1.00 17.52    -0.646 OA
ENDBRANCH  23  24
BRANCH  23  27
ATOM     27  CB  MET B 593      -1.240   4.295 -15.436  1.00 10.86     0.046 C 
BRANCH  27  28
ATOM     28  CG  MET B 593      -2.587   4.207 -14.759  1.00 11.31     0.076 C 
BRANCH  28  29
ATOM     29  SD  MET B 593      -3.983   4.755 -15.749  1.00 11.06    -0.173 SA
ATOM     30  CE  MET B 593      -3.568   6.470 -16.047  1.00 12.56     0.089 C 
ENDBRANCH  28  29
ENDBRANCH  27  28
ENDBRANCH  23  27
ENDBRANCH  21  23
ENDBRANCH  15  19
ENDBRANCH  12  15
ENDBRANCH  10  11
BRANCH  10  31
ATOM     31  CB  THR B 591      -7.292   2.839 -16.098  1.00  8.77     0.146 C 
ATOM     32  CG2 THR B 591      -6.887   3.593 -17.349  1.00  9.88     0.042 C 
BRANCH  31  33
ATOM     33  OG1 THR B 591      -8.697   2.983 -15.882  1.00  9.65    -0.393 OA
ATOM     34  HG1 THR B 591      -8.846   3.079 -15.061  1.00  9.65     0.210 HD
ENDBRANCH  31  33
ENDBRANCH  10  31
ENDBRANCH   8  10
ENDBRANCH   5   6
BRANCH   5  35
ATOM     35  CB  GLU B 590      -8.784  -2.236 -13.850  1.00  9.50     0.045 C 
BRANCH  35  36
ATOM     36  CG  GLU B 590      -7.286  -2.458 -13.736  1.00  9.44     0.116 C 
BRANCH  36  37
ATOM     37  CD  GLU B 590      -6.881  -3.834 -13.235  1.00 10.34     0.172 C 
ATOM     38  OE2 GLU B 590      -5.663  -4.100 -13.203  1.00  9.56    -0.648 OA
ATOM     39  OE1 GLU B 590      -7.759  -4.618 -12.825  1.00 12.93    -0.648 OA
ENDBRANCH  36  37
ENDBRANCH  35  36
ENDBRANCH   5  35
ENDBRANCH   3   5
BRANCH   1  40
ATOM     40  CA  TRP B 589     -12.838  -0.073 -13.049  1.00 10.41     0.181 C 
BRANCH  40  41
ATOM     41  CB  TRP B 589     -13.169   1.272 -13.682  1.00 16.42     0.075 C 
BRANCH  41  42
ATOM     42  CG  TRP B 589     -14.431   1.310 -14.448  1.00 28.27    -0.028 A 
ATOM     43  CD1 TRP B 589     -15.581   0.632 -14.180  1.00 31.36     0.096 A 
ATOM     44  NE1 TRP B 589     -16.536   0.932 -15.122  1.00 35.25    -0.365 N 
ATOM     45  HE1 TRP B 589     -17.337   0.618 -15.140  1.00 35.25     0.165 HD
ATOM     46  CE2 TRP B 589     -16.005   1.812 -16.027  1.00 40.47     0.042 A 
ATOM     47  CD2 TRP B 589     -14.678   2.071 -15.633  1.00 37.76    -0.002 A 
ATOM     48  CZ2 TRP B 589     -16.577   2.396 -17.155  1.00 47.06     0.030 A 
ATOM     49  CE3 TRP B 589     -13.906   2.948 -16.401  1.00 44.39     0.014 A 
ATOM     50  CZ3 TRP B 589     -14.476   3.529 -17.520  1.00 48.60     0.001 A 
ATOM     51  CH2 TRP B 589     -15.797   3.251 -17.885  1.00 49.92     0.002 A 
ENDBRANCH  41  42
ENDBRANCH  40  41
BRANCH  40  52
ATOM     52  N   TRP B 589     -13.470  -0.196 -11.754  1.00 10.46    -0.346 N 
ATOM     53  H   TRP B 589     -13.168   0.361 -11.172  1.00 10.46     0.163 HD
ATOM     54  C   GLU B 588     -14.417  -1.073 -11.483  1.00 14.97     0.241 C 
ATOM     55  O   GLU B 588     -14.883  -1.858 -12.309  1.00 17.61    -0.271 OA
BRANCH  54  56
ATOM     56  CA  GLU B 588     -14.905  -1.034 -10.044  1.00 18.53     0.177 C 
BRANCH  56  57
ATOM     57  N   GLU B 588     -16.324  -1.371  -9.949  1.00 19.74    -0.346 N 
ATOM     58  H   GLU B 588     -16.518  -2.142 -10.277  1.00 19.74     0.163 HD
ATOM     59  C   GLU B 587     -17.234  -0.558  -9.404  1.00 22.74     0.257 C 
ATOM     60  O   GLU B 587     -16.967   0.538  -8.920  1.00 21.09    -0.271 OA
BRANCH  59  61
ATOM     61  CA  GLU B 587     -18.677  -1.048  -9.411  1.00 29.94     0.400 C 
ATOM     62  N   GLU B 587     -19.231  -0.993  -8.058  1.00 28.95     0.615 N 
BRANCH  61  63
ATOM     63  CB  GLU B 587     -19.504  -0.182 -10.367  1.00 39.60     0.062 C 
BRANCH  63  64
ATOM     64  CG  GLU B 587     -19.114  -0.306 -11.836  1.00 49.02     0.116 C 
BRANCH  64  65
ATOM     65  CD  GLU B 587     -19.745   0.769 -12.702  1.00 58.19     0.172 C 
ATOM     66  OE2 GLU B 587     -19.701   0.639 -13.943  1.00 61.83    -0.648 OA
ATOM     67  OE1 GLU B 587     -20.282   1.748 -12.141  1.00 60.20    -0.648 OA
ENDBRANCH  64  65
ENDBRANCH  63  64
ENDBRANCH  61  63
ENDBRANCH  59  61
ENDBRANCH  56  57
BRANCH  56  68
ATOM     68  CB  GLU B 588     -14.040  -1.952  -9.167  1.00 23.70     0.045 C 
BRANCH  68  69
ATOM     69  CG  GLU B 588     -14.327  -1.799  -7.665  1.00 29.39     0.116 C 
BRANCH  69  70
ATOM     70  CD  GLU B 588     -13.227  -2.338  -6.768  1.00 34.84     0.172 C 
ATOM     71  OE2 GLU B 588     -13.378  -2.235  -5.531  1.00 36.82    -0.648 OA
ATOM     72  OE1 GLU B 588     -12.219  -2.864  -7.284  1.00 37.43    -0.648 OA
ENDBRANCH  69  70
ENDBRANCH  68  69
ENDBRANCH  56  68
ENDBRANCH  54  56
ENDBRANCH  40  52
ENDBRANCH   1  40
TORSDOF 30
