REMARK  16 active torsions:
REMARK  status: ('A' for Active; 'I' for Inactive)
REMARK    1  A    between atoms: N_1  and  CA_2 
REMARK    2  A    between atoms: CA_2  and  CB_5 
REMARK    3  A    between atoms: CA_2  and  C_3 
REMARK       I    between atoms: C_3  and  N_11 
REMARK    4  A    between atoms: N_11  and  CA_12 
REMARK    5  A    between atoms: CA_12  and  C_13 
REMARK    6  A    between atoms: CA_12  and  CB_15 
REMARK       I    between atoms: C_13  and  N_20 
REMARK    7  A    between atoms: CB_15  and  CG_16 
REMARK    8  A    between atoms: N_20  and  CA_21 
REMARK    9  A    between atoms: CA_21  and  C_22 
REMARK       I    between atoms: C_22  and  N_26 
REMARK   10  A    between atoms: N_26  and  CA_27 
REMARK   11  A    between atoms: CA_27  and  CB_30 
REMARK   12  A    between atoms: CA_27  and  C_28 
REMARK       I    between atoms: C_28  and  N_34 
REMARK   13  A    between atoms: N_34  and  CA_35 
REMARK   14  A    between atoms: CA_35  and  CB_38 
REMARK   15  A    between atoms: CA_35  and  C_36 
REMARK   16  A    between atoms: CB_38  and  CG_39 
REMARK       I    between atoms: CG_39  and  ND2_41 
ROOT
ATOM      1  CA  ALA B   3      12.354  -0.511  25.366  1.00 18.86     0.172 C 
ATOM      2  CB  ALA B   3      13.421   0.382  24.736  1.00 19.35     0.042 C 
ENDROOT
BRANCH   1   3
ATOM      3  N   ALA B   3      11.075  -0.266  24.714  1.00 16.29    -0.346 N 
ATOM      4  C   ASP B   2      10.026  -1.061  24.870  1.00 15.20     0.241 C 
ATOM      5  O   ASP B   2      10.030  -2.035  25.641  1.00 18.35    -0.271 OA
ATOM      6  H   ALA B   3      11.065   0.439  24.221  1.00 16.29     0.163 HD
BRANCH   4   7
ATOM      7  CA  ASP B   2       8.788  -0.718  24.028  1.00 15.30     0.186 C 
BRANCH   7   8
ATOM      8  N   ASP B   2       8.331  -1.860  23.266  1.00 15.19    -0.345 N 
ATOM      9  C   VAL B   1       9.071  -2.401  22.315  1.00 14.82     0.249 C 
ATOM     10  O   VAL B   1      10.161  -1.937  21.976  1.00 14.79    -0.271 OA
ATOM     11  H   ASP B   2       7.550  -2.145  23.487  1.00 15.19     0.163 HD
BRANCH   9  12
ATOM     12  CA  VAL B   1       8.467  -3.601  21.593  1.00 14.89     0.278 C 
BRANCH  12  13
ATOM     13  CB  VAL B   1       8.222  -4.800  22.522  1.00 17.39     0.017 C 
ATOM     14  CG2 VAL B   1       7.189  -4.533  23.556  1.00 22.29     0.012 C 
ATOM     15  CG1 VAL B   1       9.480  -5.221  23.225  1.00 17.29     0.012 C 
ENDBRANCH  12  13
BRANCH  12  16
ATOM     16  N   VAL B   1       9.385  -3.989  20.514  1.00 15.02    -0.066 N 
ATOM     17  H2  VAL B   1       9.882  -3.289  20.281  1.00 15.02     0.275 HD
ATOM     18  H3  VAL B   1       9.914  -4.647  20.796  1.00 15.02     0.275 HD
ATOM     19  H1  VAL B   1       8.916  -4.267  19.810  1.00 15.02     0.275 HD
ENDBRANCH  12  16
ENDBRANCH   9  12
ENDBRANCH   7   8
BRANCH   7  20
ATOM     20  CB  ASP B   2       7.651  -0.148  24.880  1.00 16.98     0.147 C 
BRANCH  20  21
ATOM     21  CG  ASP B   2       7.078  -1.155  25.852  1.00 17.41     0.175 C 
ATOM     22  OD1 ASP B   2       6.579  -2.217  25.379  1.00 15.73    -0.648 OA
ATOM     23  OD2 ASP B   2       7.107  -0.878  27.089  1.00 22.30    -0.648 OA
ENDBRANCH  20  21
ENDBRANCH   7  20
ENDBRANCH   4   7
ENDBRANCH   1   3
BRANCH   1  24
ATOM     24  C   ALA B   3      12.262  -0.259  26.871  1.00 21.51     0.240 C 
ATOM     25  N   VAL B   4      13.095  -0.958  27.635  1.00 22.67    -0.346 N 
ATOM     26  H   VAL B   4      13.574  -1.612  27.348  1.00 22.67     0.163 HD
ATOM     27  O   ALA B   3      11.454   0.554  27.326  1.00 22.81    -0.271 OA
BRANCH  25  28
ATOM     28  CA  VAL B   4      13.266  -0.662  29.060  1.00 26.45     0.180 C 
BRANCH  28  29
ATOM     29  CB  VAL B   4      13.917  -1.844  29.814  1.00 30.01     0.009 C 
ATOM     30  CG2 VAL B   4      13.025  -3.082  29.748  1.00 31.20     0.012 C 
ATOM     31  CG1 VAL B   4      14.209  -1.467  31.265  1.00 33.02     0.012 C 
ENDBRANCH  28  29
BRANCH  28  32
ATOM     32  C   VAL B   4      14.159   0.580  29.145  1.00 25.61     0.241 C 
ATOM     33  N   ASN B   5      13.677   1.623  29.814  1.00 29.33    -0.347 N 
ATOM     34  H   ASN B   5      12.913   1.623  30.209  1.00 29.33     0.163 HD
ATOM     35  O   VAL B   4      15.252   0.591  28.579  1.00 29.65    -0.271 OA
BRANCH  33  36
ATOM     36  CA  ASN B   5      14.420   2.890  29.941  1.00 34.74     0.171 C 
BRANCH  36  37
ATOM     37  CB  ASN B   5      13.592   4.025  29.346  1.00 42.44     0.136 C 
BRANCH  37  38
ATOM     38  CG  ASN B   5      13.349   3.838  27.860  1.00 45.23     0.217 C 
ATOM     39  OD1 ASN B   5      12.345   3.268  27.465  1.00 53.97    -0.274 OA
ATOM     40  ND2 ASN B   5      14.293   4.278  27.034  1.00 50.63    -0.370 N 
ATOM     41 1HD2 ASN B   5      14.209   4.165  26.186  1.00 50.63     0.159 HD
ATOM     42 2HD2 ASN B   5      14.988   4.676  27.348  1.00 50.63     0.159 HD
ENDBRANCH  37  38
ENDBRANCH  36  37
BRANCH  36  43
ATOM     43  C   ASN B   5      14.796   3.204  31.379  1.00 38.04     0.220 C 
ATOM     44  O   ASN B   5      14.229   2.626  32.301  1.00 41.05    -0.287 OA
ENDBRANCH  36  43
ENDBRANCH  33  36
ENDBRANCH  28  32
ENDBRANCH  25  28
ENDBRANCH   1  24
TORSDOF 16
