REMARK  13 active torsions:
REMARK  status: ('A' for Active; 'I' for Inactive)
REMARK    1  A    between atoms: CA_2  and  C_3 
REMARK    2  A    between atoms: CA_2  and  CB_5 
REMARK       I    between atoms: C_3  and  N_9 
REMARK    3  A    between atoms: CB_5  and  CG_6 
REMARK    4  A    between atoms: N_9  and  CA_10 
REMARK    5  A    between atoms: CA_10  and  CB_13 
REMARK    6  A    between atoms: CA_10  and  C_11 
REMARK       I    between atoms: C_11  and  N_17 
REMARK    7  A    between atoms: N_17  and  CA_18 
REMARK    8  A    between atoms: CA_18  and  C_19 
REMARK    9  A    between atoms: CA_18  and  CB_21 
REMARK       I    between atoms: C_19  and  N_25 
REMARK   10  A    between atoms: N_25  and  CA_26 
REMARK   11  A    between atoms: CA_26  and  CB_29 
REMARK   12  A    between atoms: CA_26  and  C_27 
REMARK   13  A    between atoms: CB_29  and  CG_30 
REMARK       I    between atoms: CG_30  and  ND2_32 
ROOT
ATOM      1  C   VAL D4842     -57.221  28.564  39.095  1.00 57.35     0.241 C 
ATOM      2  O   VAL D4842     -57.430  28.867  37.914  1.00 61.28    -0.271 OA
ATOM      3  N   VAL D4843     -57.273  27.313  39.534  1.00 52.36    -0.346 N 
ATOM      4  H   VAL D4843     -56.968  27.072  40.301  1.00 52.36     0.163 HD
ENDROOT
BRANCH   3   5
ATOM      5  CA  VAL D4843     -57.849  26.218  38.767  1.00 37.99     0.180 C 
BRANCH   5   6
ATOM      6  C   VAL D4843     -59.368  26.320  39.050  1.00 51.29     0.241 C 
ATOM      7  N   ASN D4844     -60.223  25.746  38.213  1.00 50.43    -0.347 N 
ATOM      8  H   ASN D4844     -60.008  25.288  37.518  1.00 50.43     0.163 HD
ATOM      9  O   VAL D4843     -59.778  26.938  40.043  1.00 47.22    -0.271 OA
BRANCH   7  10
ATOM     10  CA  ASN D4844     -61.665  25.884  38.465  1.00 46.88     0.171 C 
BRANCH  10  11
ATOM     11  CB  ASN D4844     -62.359  26.511  37.256  1.00 66.72     0.136 C 
BRANCH  11  12
ATOM     12  CG  ASN D4844     -61.900  27.931  36.988  1.00 62.42     0.217 C 
ATOM     13  OD1 ASN D4844     -60.854  28.368  37.472  1.00 56.11    -0.274 OA
ATOM     14  ND2 ASN D4844     -62.689  28.661  36.208  1.00 67.26    -0.370 N 
ATOM     15 1HD2 ASN D4844     -62.477  29.474  36.022  1.00 67.26     0.159 HD
ATOM     16 2HD2 ASN D4844     -63.412  28.321  35.889  1.00 67.26     0.159 HD
ENDBRANCH  11  12
ENDBRANCH  10  11
BRANCH  10  17
ATOM     17  C   ASN D4844     -62.392  24.599  38.897  1.00 52.57     0.220 C 
ATOM     18  O   ASN D4844     -61.777  23.533  39.062  1.00 48.91    -0.287 OA
ENDBRANCH  10  17
ENDBRANCH   7  10
ENDBRANCH   5   6
BRANCH   5  19
ATOM     19  CB  VAL D4843     -57.231  24.887  39.297  1.00 37.59     0.009 C 
ATOM     20  CG1 VAL D4843     -57.699  23.691  38.517  1.00 42.19     0.012 C 
ATOM     21  CG2 VAL D4843     -55.702  24.965  39.327  1.00 33.91     0.012 C 
ENDBRANCH   5  19
ENDBRANCH   3   5
BRANCH   1  22
ATOM     22  CA  VAL D4842     -56.827  29.612  40.154  1.00 42.26     0.180 C 
BRANCH  22  23
ATOM     23  N   VAL D4842     -55.840  30.613  39.738  1.00 51.43    -0.345 N 
ATOM     24  H   VAL D4842     -56.179  31.287  39.325  1.00 51.43     0.163 HD
ATOM     25  C   LEU D4841     -54.538  30.481  39.983  1.00 54.30     0.257 C 
ATOM     26  O   LEU D4841     -53.728  31.385  39.790  1.00 66.57    -0.271 OA
BRANCH  25  27
ATOM     27  CA  LEU D4841     -54.086  29.148  40.562  1.00 50.85     0.400 C 
ATOM     28  N   LEU D4841     -54.251  28.073  39.579  1.00 66.18     0.615 N 
BRANCH  27  29
ATOM     29  CB  LEU D4841     -52.622  29.231  41.011  1.00 58.40     0.055 C 
BRANCH  29  30
ATOM     30  CG  LEU D4841     -52.203  28.331  42.180  1.00 54.26    -0.020 C 
ATOM     31  CD2 LEU D4841     -50.668  28.156  42.270  1.00 54.78     0.009 C 
ATOM     32  CD1 LEU D4841     -52.918  26.974  42.133  1.00 32.44     0.009 C 
ENDBRANCH  29  30
ENDBRANCH  27  29
ENDBRANCH  25  27
ENDBRANCH  22  23
BRANCH  22  33
ATOM     33  CB  VAL D4842     -58.089  30.269  40.769  1.00 48.47     0.009 C 
ATOM     34  CG2 VAL D4842     -58.377  31.600  40.132  1.00 42.42     0.012 C 
ATOM     35  CG1 VAL D4842     -57.888  30.444  42.265  1.00 34.87     0.012 C 
ENDBRANCH  22  33
ENDBRANCH   1  22
TORSDOF 13
