REMARK  24 active torsions:
REMARK  status: ('A' for Active; 'I' for Inactive)
REMARK    1  A    between atoms: CA_2  and  C_3 
REMARK       I    between atoms: C_3  and  N_5 
REMARK    2  A    between atoms: N_5  and  CA_6 
REMARK    3  A    between atoms: CA_6  and  CB_9 
REMARK    4  A    between atoms: CA_6  and  C_7 
REMARK       I    between atoms: C_7  and  N_22 
REMARK    5  A    between atoms: CB_9  and  CG_10 
REMARK    6  A    between atoms: CG_10  and  CD_11 
REMARK    7  A    between atoms: CD_11  and  NE_12 
REMARK       I    between atoms: NE_12  and  CZ_13 
REMARK       I    between atoms: CZ_13  and  NH1_14 
REMARK    8  A    between atoms: N_22  and  CA_23 
REMARK    9  A    between atoms: CA_23  and  CB_26 
REMARK   10  A    between atoms: CA_23  and  C_24 
REMARK       I    between atoms: C_24  and  N_32 
REMARK   11  A    between atoms: CB_26  and  CG_27 
REMARK   12  A    between atoms: CG_27  and  CD_28 
REMARK   13  A    between atoms: N_32  and  CA_33 
REMARK   14  A    between atoms: CA_33  and  CB_36 
REMARK   15  A    between atoms: CA_33  and  C_34 
REMARK       I    between atoms: C_34  and  N_41 
REMARK   16  A    between atoms: CB_36  and  OG1_37 
REMARK   17  A    between atoms: N_41  and  CA_42 
REMARK   18  A    between atoms: CA_42  and  CB_45 
REMARK   19  A    between atoms: CA_42  and  C_43 
REMARK       I    between atoms: C_43  and  N_51 
REMARK   20  A    between atoms: CB_45  and  CG_46 
REMARK   21  A    between atoms: CG_46  and  CD_47 
REMARK   22  A    between atoms: N_51  and  CA_52 
REMARK   23  A    between atoms: CA_52  and  C_53 
REMARK   24  A    between atoms: CA_52  and  CB_55 
ROOT
ATOM      1  C   GLU E  10      35.366 -33.674  -7.972  1.00 63.15     0.241 C 
ATOM      2  O   GLU E  10      35.915 -34.746  -7.706  1.00 62.80    -0.271 OA
ATOM      3  N   THR E  11      34.654 -33.470  -9.095  1.00 58.35    -0.344 N 
ATOM      4  H   THR E  11      34.276 -32.721  -9.283  1.00 58.35     0.163 HD
ENDROOT
BRANCH   1   5
ATOM      5  CA  GLU E  10      35.471 -32.499  -6.995  1.00 61.04     0.177 C 
BRANCH   5   6
ATOM      6  CB  GLU E  10      36.888 -31.899  -6.995  1.00 62.44     0.045 C 
BRANCH   6   7
ATOM      7  CG  GLU E  10      37.256 -31.169  -8.279  1.00 71.88     0.116 C 
BRANCH   7   8
ATOM      8  CD  GLU E  10      38.697 -30.708  -8.384  1.00 89.61     0.172 C 
ATOM      9  OE1 GLU E  10      39.610 -31.507  -8.070  1.00 85.83    -0.648 OA
ATOM     10  OE2 GLU E  10      38.916 -29.559  -8.829  1.00 80.51    -0.648 OA
ENDBRANCH   7   8
ENDBRANCH   6   7
ENDBRANCH   5   6
BRANCH   5  11
ATOM     11  N   GLU E  10      35.099 -32.945  -5.653  1.00 62.09    -0.346 N 
ATOM     12  C   ARG E   9      34.271 -32.281  -4.831  1.00 67.00     0.241 C 
ATOM     13  O   ARG E   9      33.744 -31.205  -5.121  1.00 66.41    -0.271 OA
ATOM     14  H   GLU E  10      35.468 -33.690  -5.432  1.00 62.09     0.163 HD
BRANCH  12  15
ATOM     15  CA  ARG E   9      33.995 -32.932  -3.475  1.00 65.18     0.176 C 
BRANCH  15  16
ATOM     16  CB  ARG E   9      32.607 -33.598  -3.485  1.00 65.91     0.036 C 
BRANCH  16  17
ATOM     17  CG  ARG E   9      32.457 -34.787  -2.534  1.00 77.53     0.023 C 
BRANCH  17  18
ATOM     18  CD  ARG E   9      32.925 -36.116  -3.126  1.00 87.32     0.138 C 
BRANCH  18  19
ATOM     19  NE  ARG E   9      32.303 -36.422  -4.419  1.00 94.16    -0.227 N 
ATOM     20  CZ  ARG E   9      31.127 -37.025  -4.572  1.00107.18     0.665 C 
ATOM     21  NH2 ARG E   9      30.650 -37.260  -5.786  1.00 92.81    -0.235 N 
ATOM     22  NH1 ARG E   9      30.417 -37.393  -3.512  1.00 95.67    -0.235 N 
ATOM     23 HH21 ARG E   9      31.101 -37.022  -6.479  1.00 92.81     0.174 HD
ATOM     24 HH22 ARG E   9      29.889 -37.650  -5.881  1.00 92.81     0.174 HD
ATOM     25 HH12 ARG E   9      29.657 -37.782  -3.617  1.00 95.67     0.174 HD
ATOM     26 HH11 ARG E   9      30.717 -37.242  -2.720  1.00 95.67     0.174 HD
ATOM     27  HE  ARG E   9      32.730 -36.195  -5.130  1.00 94.16     0.177 HD
ENDBRANCH  18  19
ENDBRANCH  17  18
ENDBRANCH  16  17
ENDBRANCH  15  16
BRANCH  15  28
ATOM     28  N   ARG E   9      34.110 -31.986  -2.361  1.00 66.15    -0.346 N 
ATOM     29  H   ARG E   9      33.360 -31.840  -1.967  1.00 66.15     0.163 HD
ATOM     30  C   GLY E   8      35.257 -31.393  -1.973  1.00 70.79     0.252 C 
ATOM     31  O   GLY E   8      36.343 -31.589  -2.527  1.00 70.42    -0.271 OA
BRANCH  30  32
ATOM     32  CA  GLY E   8      35.164 -30.448  -0.794  1.00 68.19     0.466 C 
ATOM     33  N   GLY E   8      34.703 -31.100   0.423  1.00 68.87     0.609 N 
ENDBRANCH  30  32
ENDBRANCH  15  28
ENDBRANCH  12  15
ENDBRANCH   5  11
ENDBRANCH   1   5
BRANCH   3  34
ATOM     34  CA  THR E  11      34.450 -34.505 -10.112  1.00 57.37     0.205 C 
BRANCH  34  35
ATOM     35  CB  THR E  11      32.981 -34.976 -10.117  1.00 62.59     0.146 C 
ATOM     36  CG2 THR E  11      32.761 -36.231 -10.959  1.00 60.54     0.042 C 
BRANCH  35  37
ATOM     37  OG1 THR E  11      32.556 -35.223  -8.777  1.00 61.42    -0.393 OA
ATOM     38  HG1 THR E  11      32.144 -34.552  -8.485  1.00 61.42     0.210 HD
ENDBRANCH  35  37
ENDBRANCH  34  35
BRANCH  34  39
ATOM     39  C   THR E  11      34.918 -34.040 -11.494  1.00 59.93     0.243 C 
ATOM     40  O   THR E  11      34.551 -32.949 -11.934  1.00 59.05    -0.271 OA
ATOM     41  N   GLU E  12      35.711 -34.885 -12.175  1.00 55.90    -0.346 N 
ATOM     42  H   GLU E  12      35.975 -35.637 -11.852  1.00 55.90     0.163 HD
BRANCH  41  43
ATOM     43  CA  GLU E  12      36.210 -34.628 -13.526  1.00 55.43     0.177 C 
BRANCH  43  44
ATOM     44  CB  GLU E  12      37.535 -35.376 -13.784  1.00 56.88     0.045 C 
BRANCH  44  45
ATOM     45  CG  GLU E  12      38.713 -34.895 -12.952  1.00 68.03     0.116 C 
BRANCH  45  46
ATOM     46  CD  GLU E  12      40.053 -35.518 -13.296  1.00 88.63     0.172 C 
ATOM     47  OE1 GLU E  12      40.434 -35.504 -14.489  1.00 85.30    -0.648 OA
ATOM     48  OE2 GLU E  12      40.744 -35.983 -12.361  1.00 81.03    -0.648 OA
ENDBRANCH  45  46
ENDBRANCH  44  45
ENDBRANCH  43  44
BRANCH  43  49
ATOM     49  C   GLU E  12      35.144 -35.084 -14.523  1.00 58.58     0.241 C 
ATOM     50  O   GLU E  12      34.777 -36.262 -14.527  1.00 58.36    -0.271 OA
ATOM     51  N   VAL E  13      34.625 -34.150 -15.342  1.00 54.46    -0.344 N 
ATOM     52  H   VAL E  13      34.863 -33.324 -15.321  1.00 54.46     0.163 HD
BRANCH  51  53
ATOM     53  CA  VAL E  13      33.599 -34.442 -16.356  1.00 55.96     0.189 C 
BRANCH  53  54
ATOM     54  C   VAL E  13      34.068 -34.120 -17.789  1.00 65.43     0.197 C 
ATOM     55  O   VAL E  13      33.383 -34.531 -18.751  1.00 66.90    -0.646 OA
ATOM     56  OXT VAL E  13      35.128 -33.476 -17.947  1.00 83.99    -0.646 OA
ENDBRANCH  53  54
BRANCH  53  57
ATOM     57  CB  VAL E  13      32.185 -33.864 -16.036  1.00 59.73     0.010 C 
ATOM     58  CG2 VAL E  13      32.209 -32.348 -15.859  1.00 59.40     0.012 C 
ATOM     59  CG1 VAL E  13      31.560 -34.550 -14.823  1.00 59.53     0.012 C 
ENDBRANCH  53  57
ENDBRANCH  51  53
ENDBRANCH  43  49
ENDBRANCH  41  43
ENDBRANCH  34  39
ENDBRANCH   3  34
TORSDOF 24
