REMARK  14 active torsions:
REMARK  status: ('A' for Active; 'I' for Inactive)
REMARK       I    between atoms: C_1  and  N_4 
REMARK    1  A    between atoms: N_4  and  CA_5 
REMARK    2  A    between atoms: CA_5  and  C_6 
REMARK    3  A    between atoms: CA_5  and  CB_8 
REMARK       I    between atoms: C_6  and  N_20 
REMARK    4  A    between atoms: CB_8  and  CG_9 
REMARK    5  A    between atoms: N_20  and  CA_21 
REMARK    6  A    between atoms: CA_21  and  C_22 
REMARK    7  A    between atoms: CA_21  and  CB_24 
REMARK       I    between atoms: C_22  and  N_31 
REMARK    8  A    between atoms: CB_24  and  CG_25 
REMARK    9  A    between atoms: N_31  and  CA_32 
REMARK   10  A    between atoms: CA_32  and  C_33 
REMARK   11  A    between atoms: CA_32  and  CB_35 
REMARK       I    between atoms: C_33  and  N_40 
REMARK   12  A    between atoms: CB_35  and  OG1_36 
REMARK   13  A    between atoms: N_40  and  CA_41 
REMARK   14  A    between atoms: CA_41  and  C_42 
ROOT
ATOM      1  CA  HIS E   2      16.720  -9.929   2.749  1.00 14.20     0.182 C 
ENDROOT
BRANCH   1   2
ATOM      2  C   HIS E   2      15.334 -10.537   2.557  1.00 15.34     0.241 C 
ATOM      3  O   HIS E   2      14.331  -9.827   2.437  1.00 13.21    -0.271 OA
ATOM      4  N   THR E   3      15.288 -11.869   2.559  1.00 14.85    -0.344 N 
ATOM      5  H   THR E   3      15.980 -12.378   2.593  1.00 14.85     0.163 HD
BRANCH   4   6
ATOM      6  CA  THR E   3      14.013 -12.575   2.502  1.00 13.22     0.205 C 
BRANCH   6   7
ATOM      7  C   THR E   3      13.259 -12.429   3.818  1.00 13.63     0.243 C 
ATOM      8  N   ALA E   4      11.948 -12.215   3.724  1.00  8.98    -0.346 N 
ATOM      9  H   ALA E   4      11.523 -12.153   2.979  1.00  8.98     0.163 HD
ATOM     10  O   THR E   3      13.850 -12.500   4.899  1.00 14.15    -0.271 OA
BRANCH   8  11
ATOM     11  CA  ALA E   4      11.111 -12.066   4.913  1.00 15.48     0.176 C 
ATOM     12  CB  ALA E   4       9.692 -11.699   4.514  1.00 13.80     0.042 C 
BRANCH  11  13
ATOM     13  C   ALA E   4      11.106 -13.324   5.786  1.00 23.80     0.284 C 
ATOM     14  O   ALA E   4      10.954 -13.238   7.006  1.00 30.75    -0.267 OA
HETATM   15  N   NH2 E 101      11.261 -14.489   5.163  1.00 22.73    -0.106 N 
ENDBRANCH  11  13
ENDBRANCH   8  11
ENDBRANCH   6   7
BRANCH   6  16
ATOM     16  CB  THR E   3      14.238 -14.056   2.199  1.00 20.99     0.146 C 
ATOM     17  CG2 THR E   3      12.913 -14.737   1.856  1.00 14.08     0.042 C 
BRANCH  16  18
ATOM     18  OG1 THR E   3      15.138 -14.180   1.095  1.00 27.33    -0.393 OA
ATOM     19  HG1 THR E   3      14.886 -13.679   0.470  1.00 27.33     0.210 HD
ENDBRANCH  16  18
ENDBRANCH   6  16
ENDBRANCH   4   6
ENDBRANCH   1   2
BRANCH   1  20
ATOM     20  CB  HIS E   2      17.152 -10.129   4.208  1.00 18.36     0.095 C 
BRANCH  20  21
ATOM     21  CG  HIS E   2      18.498  -9.560   4.533  1.00 23.43     0.056 A 
ATOM     22  CD2 HIS E   2      19.736 -10.105   4.466  1.00 23.79     0.145 A 
ATOM     23  NE2 HIS E   2      20.621  -9.149   4.901  1.00 23.75    -0.252 NA
ATOM     24  CE1 HIS E   2      19.951  -8.058   5.225  1.00 26.05     0.232 A 
ATOM     25  ND1 HIS E   2      18.665  -8.280   5.016  1.00 21.22    -0.245 NA
ENDBRANCH  20  21
ENDBRANCH   1  20
BRANCH   1  26
ATOM     26  N   HIS E   2      16.697  -8.520   2.369  1.00 15.97    -0.346 N 
ATOM     27  H   HIS E   2      15.946  -8.129   2.519  1.00 15.97     0.163 HD
ATOM     28  C   TRP E   1      17.756  -7.906   1.836  1.00 12.03     0.241 C 
ATOM     29  O   TRP E   1      18.844  -8.466   1.664  1.00 13.67    -0.271 OA
BRANCH  28  30
ATOM     30  CA  TRP E   1      17.554  -6.458   1.403  1.00  9.26     0.180 C 
BRANCH  30  31
ATOM     31  N   TRP E   1      18.626  -5.559   1.836  1.00 13.05    -0.348 N 
ATOM     32  H   TRP E   1      19.179  -5.359   1.209  1.00 13.05     0.163 HD
HETATM   33  C   ACE E   0      18.740  -5.092   3.079  1.00 12.60     0.214 C 
HETATM   34  CH3 ACE E   0      19.915  -4.169   3.329  1.00  6.27     0.117 C 
HETATM   35  O   ACE E   0      17.940  -5.392   3.964  1.00 15.02    -0.274 OA
ENDBRANCH  30  31
BRANCH  30  36
ATOM     36  CB  TRP E   1      17.418  -6.403  -0.115  1.00 10.27     0.075 C 
BRANCH  36  37
ATOM     37  CG  TRP E   1      16.773  -5.145  -0.621  1.00  6.62    -0.028 A 
ATOM     38  CD1 TRP E   1      17.381  -4.106  -1.270  1.00  7.94     0.096 A 
ATOM     39  NE1 TRP E   1      16.452  -3.129  -1.578  1.00 10.26    -0.365 N 
ATOM     40  CE2 TRP E   1      15.225  -3.530  -1.118  1.00  6.86     0.042 A 
ATOM     41  HE1 TRP E   1      16.617  -2.392  -1.990  1.00 10.26     0.165 HD
ATOM     42  CZ2 TRP E   1      13.985  -2.892  -1.185  1.00  8.31     0.030 A 
ATOM     43  CD2 TRP E   1      15.392  -4.797  -0.509  1.00  9.88    -0.002 A 
ATOM     44  CH2 TRP E   1      12.909  -3.548  -0.643  1.00 13.27     0.002 A 
ATOM     45  CZ3 TRP E   1      13.042  -4.802  -0.032  1.00 13.61     0.001 A 
ATOM     46  CE3 TRP E   1      14.275  -5.437   0.038  1.00 14.26     0.014 A 
ENDBRANCH  36  37
ENDBRANCH  30  36
ENDBRANCH  28  30
ENDBRANCH   1  26
TORSDOF 14
