REMARK  24 active torsions:
REMARK  status: ('A' for Active; 'I' for Inactive)
REMARK    1  A    between atoms: CA_2  and  C_3 
REMARK       I    between atoms: C_3  and  N_8 
REMARK    2  A    between atoms: CA_9  and  C_10 
REMARK       I    between atoms: C_10  and  N_15 
REMARK    3  A    between atoms: N_15  and  CA_16 
REMARK    4  A    between atoms: CA_16  and  CB_19 
REMARK    5  A    between atoms: CA_16  and  C_17 
REMARK       I    between atoms: C_17  and  N_28 
REMARK    6  A    between atoms: CB_19  and  CG_20 
REMARK    7  A    between atoms: CG_20  and  CD_21 
REMARK    8  A    between atoms: CD_21  and  CE_22 
REMARK    9  A    between atoms: CE_22  and  NZ_23 
REMARK   10  A    between atoms: N_28  and  CA_29 
REMARK   11  A    between atoms: CA_29  and  CB_32 
REMARK   12  A    between atoms: CA_29  and  C_30 
REMARK       I    between atoms: C_30  and  N_41 
REMARK   13  A    between atoms: CB_32  and  CG_33 
REMARK   14  A    between atoms: CG_33  and  CD_34 
REMARK   15  A    between atoms: CD_34  and  CE_35 
REMARK   16  A    between atoms: CE_35  and  NZ_36 
REMARK   17  A    between atoms: N_41  and  CA_42 
REMARK   18  A    between atoms: CA_42  and  CB_45 
REMARK   19  A    between atoms: CA_42  and  C_43 
REMARK       I    between atoms: C_43  and  N_58 
REMARK   20  A    between atoms: CB_45  and  CG_46 
REMARK   21  A    between atoms: CG_46  and  CD_47 
REMARK   22  A    between atoms: CD_47  and  NE_48 
REMARK       I    between atoms: NE_48  and  CZ_49 
REMARK       I    between atoms: CZ_49  and  NH1_50 
REMARK   23  A    between atoms: N_58  and  CA_59 
REMARK   24  A    between atoms: CA_59  and  C_60 
ROOT
ATOM      1  CA  LYS B 185       2.660  32.697   8.968  1.00 91.41     0.176 C 
ENDROOT
BRANCH   1   2
ATOM      2  CB  LYS B 185       1.888  32.254  10.216  1.00 90.53     0.035 C 
BRANCH   2   3
ATOM      3  CG  LYS B 185       1.401  33.367  11.141  1.00 86.81     0.004 C 
BRANCH   3   4
ATOM      4  CD  LYS B 185       0.759  32.791  12.409  1.00 79.71     0.027 C 
BRANCH   4   5
ATOM      5  CE  LYS B 185      -0.300  31.728  12.105  1.00 72.24     0.229 C 
BRANCH   5   6
ATOM      6  NZ  LYS B 185      -1.517  32.279  11.440  1.00 67.20    -0.079 N 
ATOM      7  HZ1 LYS B 185      -2.147  31.651  11.405  1.00 67.20     0.274 HD
ATOM      8  HZ3 LYS B 185      -1.312  32.539  10.614  1.00 67.20     0.274 HD
ATOM      9  HZ2 LYS B 185      -1.819  32.976  11.904  1.00 67.20     0.274 HD
ENDBRANCH   5   6
ENDBRANCH   4   5
ENDBRANCH   3   4
ENDBRANCH   2   3
ENDBRANCH   1   2
BRANCH   1  10
ATOM     10  C   LYS B 185       2.424  31.701   7.837  1.00 87.67     0.241 C 
ATOM     11  O   LYS B 185       1.297  31.561   7.351  1.00 75.85    -0.271 OA
ATOM     12  N   ARG B 186       3.487  31.003   7.444  1.00 93.18    -0.346 N 
ATOM     13  H   ARG B 186       4.277  31.148   7.751  1.00 93.18     0.163 HD
BRANCH  12  14
ATOM     14  CA  ARG B 186       3.440  29.925   6.459  1.00 93.88     0.176 C 
BRANCH  14  15
ATOM     15  CB  ARG B 186       4.776  29.890   5.700  1.00 94.11     0.036 C 
BRANCH  15  16
ATOM     16  CG  ARG B 186       5.261  31.272   5.282  1.00 91.13     0.023 C 
BRANCH  16  17
ATOM     17  CD  ARG B 186       6.449  31.218   4.336  1.00 90.43     0.138 C 
BRANCH  17  18
ATOM     18  NE  ARG B 186       6.457  32.368   3.433  1.00 88.65    -0.227 N 
ATOM     19  HE  ARG B 186       6.866  33.080   3.689  1.00 88.65     0.177 HD
ATOM     20  CZ  ARG B 186       5.870  32.380   2.238  1.00 77.61     0.665 C 
ATOM     21  NH2 ARG B 186       5.918  33.466   1.478  1.00 64.46    -0.235 N 
ATOM     22  NH1 ARG B 186       5.237  31.301   1.802  1.00 71.89    -0.235 N 
ATOM     23 HH22 ARG B 186       5.537  33.468   0.707  1.00 64.46     0.174 HD
ATOM     24 HH21 ARG B 186       6.330  34.168   1.756  1.00 64.46     0.174 HD
ATOM     25 HH11 ARG B 186       5.206  30.594   2.291  1.00 71.89     0.174 HD
ATOM     26 HH12 ARG B 186       4.857  31.308   1.030  1.00 71.89     0.174 HD
ENDBRANCH  17  18
ENDBRANCH  16  17
ENDBRANCH  15  16
ENDBRANCH  14  15
BRANCH  14  27
ATOM     27  C   ARG B 186       3.136  28.609   7.207  1.00100.48     0.241 C 
ATOM     28  N   ALA B 187       2.838  27.490   6.531  1.00104.89    -0.348 N 
ATOM     29  H   ALA B 187       2.662  26.754   6.939  1.00104.89     0.163 HD
ATOM     30  O   ARG B 186       3.155  28.617   8.440  1.00101.56    -0.271 OA
BRANCH  28  31
ATOM     31  CA  ALA B 187       2.767  27.343   5.076  1.00100.92     0.158 C 
ATOM     32  CB  ALA B 187       4.017  26.621   4.550  1.00 98.55     0.041 C 
BRANCH  31  33
ATOM     33  C   ALA B 187       1.511  26.584   4.655  1.00 96.24     0.219 C 
ATOM     34  O   ALA B 187       1.477  25.353   4.698  1.00 95.92    -0.287 OA
ENDBRANCH  31  33
ENDBRANCH  28  31
ENDBRANCH  14  27
ENDBRANCH  12  14
ENDBRANCH   1  10
BRANCH   1  35
ATOM     35  N   LYS B 185       2.273  34.039   8.537  1.00 94.70    -0.346 N 
ATOM     36  H   LYS B 185       1.426  34.133   8.421  1.00 94.70     0.163 HD
ATOM     37  C   LYS B 184       3.151  35.029   8.341  1.00 95.69     0.241 C 
ATOM     38  O   LYS B 184       4.372  34.875   8.441  1.00 96.36    -0.271 OA
BRANCH  37  39
ATOM     39  CA  LYS B 184       2.558  36.391   7.990  1.00 89.09     0.176 C 
BRANCH  39  40
ATOM     40  CB  LYS B 184       2.605  36.625   6.476  1.00 73.03     0.035 C 
BRANCH  40  41
ATOM     41  CG  LYS B 184       1.644  37.716   5.986  1.00 60.77     0.004 C 
BRANCH  41  42
ATOM     42  CD  LYS B 184       1.960  38.147   4.564  1.00 63.88     0.027 C 
BRANCH  42  43
ATOM     43  CE  LYS B 184       1.080  39.302   4.090  1.00 60.38     0.229 C 
BRANCH  43  44
ATOM     44  NZ  LYS B 184      -0.261  38.913   3.527  1.00 53.06    -0.079 N 
ATOM     45  HZ3 LYS B 184      -0.899  39.114   4.114  1.00 53.06     0.274 HD
ATOM     46  HZ2 LYS B 184      -0.273  38.038   3.365  1.00 53.06     0.274 HD
ATOM     47  HZ1 LYS B 184      -0.405  39.357   2.769  1.00 53.06     0.274 HD
ENDBRANCH  43  44
ENDBRANCH  42  43
ENDBRANCH  41  42
ENDBRANCH  40  41
ENDBRANCH  39  40
BRANCH  39  48
ATOM     48  N   LYS B 184       3.266  37.457   8.687  1.00 95.16    -0.346 N 
ATOM     49  H   LYS B 184       3.847  37.871   8.206  1.00 95.16     0.163 HD
ATOM     50  C   PRO B 183       3.016  37.747   9.963  1.00102.83     0.241 C 
ATOM     51  O   PRO B 183       2.174  37.136  10.630  1.00 96.65    -0.271 OA
BRANCH  50  52
ATOM     52  CA  PRO B 183       3.839  38.877  10.576  1.00119.60     0.179 C 
ATOM     53  N   PRO B 183       3.076  39.750  11.480  1.00125.08    -0.337 N 
ATOM     54  CD  PRO B 183       3.181  39.309  12.884  1.00128.64     0.127 C 
ATOM     55  C   PRO B 182       2.653  40.954  11.057  1.00122.07     0.256 C 
ATOM     56  CG  PRO B 183       4.273  38.246  12.844  1.00127.59     0.022 C 
ATOM     57  CB  PRO B 183       4.943  38.334  11.491  1.00124.68     0.037 C 
ATOM     58  O   PRO B 182       2.884  41.393   9.928  1.00123.88    -0.271 OA
BRANCH  55  59
ATOM     59  CA  PRO B 182       1.866  41.814  12.048  1.00115.83     0.353 C 
ATOM     60  CB  PRO B 182       0.980  42.826  11.306  1.00111.53     0.050 C 
ATOM     61  CG  PRO B 182       1.063  44.088  12.111  1.00111.42     0.035 C 
ATOM     62  CD  PRO B 182       2.443  44.098  12.689  1.00113.66     0.315 C 
ATOM     63  N   PRO B 182       2.737  42.665  12.869  1.00115.25     0.318 N 
ENDBRANCH  55  59
ENDBRANCH  50  52
ENDBRANCH  39  48
ENDBRANCH  37  39
ENDBRANCH   1  35
TORSDOF 24
