REMARK  21 active torsions:
REMARK  status: ('A' for Active; 'I' for Inactive)
REMARK       I    between atoms: C_1  and  N_4 
REMARK    1  A    between atoms: N_4  and  CA_5 
REMARK    2  A    between atoms: CA_5  and  C_6 
REMARK       I    between atoms: C_6  and  N_9 
REMARK    3  A    between atoms: N_9  and  CA_10 
REMARK    4  A    between atoms: CA_10  and  C_11 
REMARK       I    between atoms: C_11  and  N_14 
REMARK    5  A    between atoms: N_14  and  CA_15 
REMARK    6  A    between atoms: CA_15  and  C_16 
REMARK    7  A    between atoms: CA_15  and  CB_18 
REMARK       I    between atoms: C_16  and  N_24 
REMARK    8  A    between atoms: CB_18  and  CG_19 
REMARK    9  A    between atoms: CG_19  and  CD_20 
REMARK   10  A    between atoms: N_24  and  CA_25 
REMARK   11  A    between atoms: CA_25  and  C_26 
REMARK       I    between atoms: C_26  and  N_30 
REMARK   12  A    between atoms: N_30  and  CA_31 
REMARK   13  A    between atoms: CA_31  and  CB_34 
REMARK   14  A    between atoms: CA_31  and  C_32 
REMARK       I    between atoms: C_32  and  N_39 
REMARK   15  A    between atoms: CB_34  and  CG_35 
REMARK   16  A    between atoms: N_39  and  CA_40 
REMARK   17  A    between atoms: CA_40  and  C_41 
REMARK       I    between atoms: C_41  and  N_45 
REMARK   18  A    between atoms: N_45  and  CA_46 
REMARK   19  A    between atoms: CA_46  and  C_47 
REMARK   20  A    between atoms: CA_46  and  CB_49 
REMARK   21  A    between atoms: CB_49  and  CG_50 
ROOT
ATOM      1  C   ALA B   4     -13.408 -14.019  18.182  1.00 18.54     0.240 C 
ATOM      2  O   ALA B   4     -13.113 -13.038  18.893  1.00 17.25    -0.271 OA
ATOM      3  N   LEU B   5     -14.072 -15.099  18.613  1.00 18.87    -0.346 N 
ATOM      4  H   LEU B   5     -14.386 -15.714  18.100  1.00 18.87     0.163 HD
ENDROOT
BRANCH   3   5
ATOM      5  CA  LEU B   5     -14.315 -15.309  20.054  1.00 18.34     0.177 C 
BRANCH   5   6
ATOM      6  CB  LEU B   5     -15.308 -16.440  20.243  1.00 23.26     0.038 C 
BRANCH   6   7
ATOM      7  CG  LEU B   5     -16.713 -16.163  19.728  1.00 28.17    -0.020 C 
ATOM      8  CD1 LEU B   5     -17.571 -17.410  19.966  1.00 29.22     0.009 C 
ATOM      9  CD2 LEU B   5     -17.338 -14.949  20.396  1.00 30.00     0.009 C 
ENDBRANCH   6   7
ENDBRANCH   5   6
BRANCH   5  10
ATOM     10  C   LEU B   5     -13.014 -15.660  20.757  1.00 16.86     0.241 C 
ATOM     11  O   LEU B   5     -12.068 -16.032  20.131  1.00 19.60    -0.271 OA
ATOM     12  N   ALA B   6     -13.009 -15.594  22.086  1.00 16.13    -0.346 N 
ATOM     13  H   ALA B   6     -13.684 -15.321  22.544  1.00 16.13     0.163 HD
BRANCH  12  14
ATOM     14  CA  ALA B   6     -11.857 -15.978  22.909  1.00 17.44     0.172 C 
ATOM     15  CB  ALA B   6     -12.093 -15.496  24.335  1.00 18.99     0.042 C 
BRANCH  14  16
ATOM     16  C   ALA B   6     -11.668 -17.497  22.918  1.00 24.46     0.240 C 
ATOM     17  O   ALA B   6     -12.591 -18.222  22.562  1.00 27.52    -0.271 OA
ATOM     18  N   TRP B   7     -10.529 -18.005  23.393  1.00 32.31    -0.346 N 
ATOM     19  H   TRP B   7      -9.818 -17.554  23.568  1.00 32.31     0.163 HD
BRANCH  18  20
ATOM     20  CA  TRP B   7     -10.445 -19.492  23.657  1.00 35.59     0.178 C 
BRANCH  20  21
ATOM     21  C   TRP B   7      -9.524 -19.953  24.784  1.00 36.87     0.254 C 
HETATM   22  N   NH2 B   8      -9.765 -21.234  25.354  1.00 48.35    -0.060 NA
ATOM     23  O   TRP B   7      -8.592 -19.261  25.163  1.00 43.64    -0.275 OA
ENDBRANCH  20  21
BRANCH  20  24
ATOM     24  CB  TRP B   7     -10.076 -20.245  22.391  1.00 36.27     0.075 C 
BRANCH  24  25
ATOM     25  CG  TRP B   7      -8.817 -19.768  21.748  1.00 35.16    -0.028 A 
ATOM     26  CD2 TRP B   7      -7.492 -20.218  22.022  1.00 33.00    -0.002 A 
ATOM     27  CE3 TRP B   7      -6.944 -21.151  22.915  1.00 33.14     0.014 A 
ATOM     28  CE2 TRP B   7      -6.624 -19.495  21.174  1.00 37.76     0.042 A 
ATOM     29  CZ3 TRP B   7      -5.564 -21.342  22.917  1.00 39.74     0.001 A 
ATOM     30  CH2 TRP B   7      -4.722 -20.604  22.054  1.00 37.98     0.002 A 
ATOM     31  CZ2 TRP B   7      -5.225 -19.671  21.192  1.00 35.74     0.030 A 
ATOM     32  NE1 TRP B   7      -7.402 -18.651  20.424  1.00 36.87    -0.365 N 
ATOM     33  CD1 TRP B   7      -8.714 -18.816  20.783  1.00 32.46     0.096 A 
ATOM     34  HE1 TRP B   7      -7.113 -18.106  19.825  1.00 36.87     0.165 HD
ENDBRANCH  24  25
ENDBRANCH  20  24
ENDBRANCH  18  20
ENDBRANCH  14  16
ENDBRANCH  12  14
ENDBRANCH   5  10
ENDBRANCH   3   5
BRANCH   1  35
ATOM     35  CA  ALA B   4     -13.039 -14.049  16.728  1.00 18.93     0.172 C 
ATOM     36  CB  ALA B   4     -11.813 -14.915  16.535  1.00 20.14     0.042 C 
BRANCH  35  37
ATOM     37  N   ALA B   4     -12.806 -12.712  16.227  1.00 16.93    -0.346 N 
ATOM     38  C   GLU B   3     -12.900 -12.430  14.933  1.00 16.00     0.241 C 
ATOM     39  O   GLU B   3     -13.258 -13.247  14.101  1.00 18.04    -0.271 OA
ATOM     40  H   ALA B   4     -12.606 -12.134  16.832  1.00 16.93     0.163 HD
BRANCH  38  41
ATOM     41  CA  GLU B   3     -12.553 -11.000  14.525  1.00 15.64     0.177 C 
BRANCH  41  42
ATOM     42  CB  GLU B   3     -13.654 -10.000  14.940  1.00 16.94     0.045 C 
BRANCH  42  43
ATOM     43  CG  GLU B   3     -14.964 -10.209  14.212  1.00 17.50     0.116 C 
BRANCH  43  44
ATOM     44  CD  GLU B   3     -16.096  -9.300  14.641  1.00 19.64     0.172 C 
ATOM     45  OE1 GLU B   3     -17.194  -9.427  14.058  1.00 22.12    -0.648 OA
ATOM     46  OE2 GLU B   3     -15.901  -8.469  15.544  1.00 20.68    -0.648 OA
ENDBRANCH  43  44
ENDBRANCH  42  43
ENDBRANCH  41  42
BRANCH  41  47
ATOM     47  N   GLU B   3     -12.331 -10.975  13.069  1.00 14.76    -0.346 N 
ATOM     48  H   GLU B   3     -12.912 -11.431  12.628  1.00 14.76     0.163 HD
ATOM     49  C   GLY B   2     -11.341 -10.321  12.486  1.00 15.24     0.236 C 
ATOM     50  O   GLY B   2     -10.519  -9.660  13.108  1.00 16.96    -0.272 OA
BRANCH  49  51
ATOM     51  CA  GLY B   2     -11.275 -10.419  10.961  1.00 16.40     0.225 C 
BRANCH  51  52
ATOM     52  N   GLY B   2     -10.007  -9.931  10.375  1.00 16.09    -0.351 N 
ATOM     53  H   GLY B   2     -10.079  -9.182   9.958  1.00 16.09     0.163 HD
ATOM     54  C   GLY B   1      -8.869 -10.597  10.489  1.00 19.38     0.235 C 
ATOM     55  O   GLY B   1      -8.905 -11.709  11.099  1.00 21.51    -0.272 OA
BRANCH  54  56
ATOM     56  CA  GLY B   1      -7.598 -10.448   9.865  1.00 21.19     0.225 C 
BRANCH  56  57
ATOM     57  N   GLY B   1      -8.186  -9.604   8.863  1.00 20.21    -0.353 N 
HETATM   58  C   ACE B   0      -8.473 -10.046   7.628  1.00 20.42     0.213 C 
HETATM   59  O   ACE B   0      -8.595 -11.215   7.412  1.00 26.00    -0.274 OA
HETATM   60  CH3 ACE B   0      -8.704  -9.079   6.497  1.00 26.85     0.117 C 
ATOM     61  H   GLY B   1      -8.335  -8.799   9.126  1.00 20.21     0.162 HD
ENDBRANCH  56  57
ENDBRANCH  54  56
ENDBRANCH  51  52
ENDBRANCH  49  51
ENDBRANCH  41  47
ENDBRANCH  38  41
ENDBRANCH  35  37
ENDBRANCH   1  35
TORSDOF 21
