REMARK  25 active torsions:
REMARK  status: ('A' for Active; 'I' for Inactive)
REMARK    1  A    between atoms: CA_2  and  C_3 
REMARK    2  A    between atoms: CA_2  and  CB_5 
REMARK       I    between atoms: C_3  and  N_10 
REMARK    3  A    between atoms: CB_5  and  CG_6 
REMARK    4  A    between atoms: CG_6  and  CD_7 
REMARK    5  A    between atoms: N_10  and  CA_11 
REMARK    6  A    between atoms: CA_11  and  C_12 
REMARK    7  A    between atoms: CA_11  and  CB_14 
REMARK       I    between atoms: C_12  and  N_18 
REMARK    8  A    between atoms: CB_14  and  OG_15 
REMARK    9  A    between atoms: N_18  and  CA_19 
REMARK   10  A    between atoms: CA_19  and  CB_22 
REMARK   11  A    between atoms: CA_19  and  C_20 
REMARK       I    between atoms: C_20  and  N_26 
REMARK   12  A    between atoms: CB_22  and  OG_23 
REMARK   13  A    between atoms: N_26  and  CA_27 
REMARK   14  A    between atoms: CA_27  and  C_28 
REMARK   15  A    between atoms: CA_27  and  CB_30 
REMARK       I    between atoms: C_28  and  N_35 
REMARK   16  A    between atoms: CB_30  and  CG_31 
REMARK   17  A    between atoms: N_35  and  CA_36 
REMARK   18  A    between atoms: CA_36  and  CB_39 
REMARK   19  A    between atoms: CA_36  and  C_37 
REMARK       I    between atoms: C_37  and  N_43 
REMARK   20  A    between atoms: CB_39  and  OG_40 
REMARK   21  A    between atoms: N_43  and  CA_44 
REMARK   22  A    between atoms: CA_44  and  C_45 
REMARK   23  A    between atoms: CA_44  and  CB_47 
REMARK   24  A    between atoms: CB_47  and  CG_48 
REMARK   25  A    between atoms: CG_48  and  CD_49 
REMARK       I    between atoms: CD_49  and  NE2_51 
ROOT
ATOM      1  C   SER C 503      77.960  25.140 -14.402  1.00 42.27     0.243 C 
ATOM      2  O   SER C 503      79.083  25.638 -14.378  1.00 46.84    -0.271 OA
ATOM      3  N   ASP C 504      77.694  23.965 -14.957  1.00 51.15    -0.345 N 
ATOM      4  H   ASP C 504      76.932  23.572 -14.890  1.00 51.15     0.163 HD
ENDROOT
BRANCH   3   5
ATOM      5  CA  ASP C 504      78.677  23.220 -15.742  1.00 56.79     0.186 C 
BRANCH   5   6
ATOM      6  C   ASP C 504      79.223  24.096 -16.879  1.00 67.42     0.241 C 
ATOM      7  N   SER C 505      78.326  24.816 -17.546  1.00 81.52    -0.344 N 
ATOM      8  H   SER C 505      77.483  24.803 -17.379  1.00 81.52     0.163 HD
ATOM      9  O   ASP C 504      80.428  24.121 -17.139  1.00 66.01    -0.271 OA
BRANCH   7  10
ATOM     10  CA  SER C 505      78.706  25.707 -18.640  1.00 90.64     0.200 C 
BRANCH  10  11
ATOM     11  CB  SER C 505      77.629  25.724 -19.719  1.00 89.01     0.199 C 
BRANCH  11  12
ATOM     12  OG  SER C 505      76.382  26.096 -19.164  1.00 87.22    -0.398 OA
ATOM     13  HG  SER C 505      75.798  26.103 -19.767  1.00 87.22     0.209 HD
ENDBRANCH  11  12
ENDBRANCH  10  11
BRANCH  10  14
ATOM     14  C   SER C 505      78.952  27.118 -18.114  1.00 98.93     0.243 C 
ATOM     15  N   GLN C 506      79.713  27.904 -18.870  1.00110.12    -0.347 N 
ATOM     16  H   GLN C 506      79.940  27.720 -19.679  1.00110.12     0.163 HD
ATOM     17  O   SER C 505      78.451  27.490 -17.051  1.00 94.47    -0.271 OA
BRANCH  15  18
ATOM     18  CA  GLN C 506      80.234  29.171 -18.371  1.00115.19     0.163 C 
BRANCH  18  19
ATOM     19  C   GLN C 506      79.462  30.370 -18.920  1.00118.66     0.219 C 
ATOM     20  O   GLN C 506      78.640  30.967 -18.222  1.00117.46    -0.287 OA
ENDBRANCH  18  19
BRANCH  18  21
ATOM     21  CB  GLN C 506      81.722  29.286 -18.719  1.00118.15     0.043 C 
BRANCH  21  22
ATOM     22  CG  GLN C 506      82.511  27.989 -18.484  1.00119.48     0.105 C 
BRANCH  22  23
ATOM     23  CD  GLN C 506      82.794  27.697 -17.010  1.00116.76     0.215 C 
ATOM     24  NE2 GLN C 506      81.842  27.059 -16.337  1.00111.94    -0.370 N 
ATOM     25 1HE2 GLN C 506      81.112  26.835 -16.733  1.00111.94     0.159 HD
ATOM     26 2HE2 GLN C 506      81.956  26.870 -15.506  1.00111.94     0.159 HD
ATOM     27  OE1 GLN C 506      83.856  28.038 -16.489  1.00116.06    -0.274 OA
ENDBRANCH  22  23
ENDBRANCH  21  22
ENDBRANCH  18  21
ENDBRANCH  15  18
ENDBRANCH  10  14
ENDBRANCH   7  10
ENDBRANCH   5   6
BRANCH   5  28
ATOM     28  CB  ASP C 504      78.035  21.937 -16.299  1.00 57.84     0.147 C 
BRANCH  28  29
ATOM     29  CG  ASP C 504      79.047  20.966 -16.897  1.00 60.92     0.175 C 
ATOM     30  OD2 ASP C 504      78.615  20.008 -17.582  1.00 60.43    -0.648 OA
ATOM     31  OD1 ASP C 504      80.265  21.155 -16.690  1.00 59.69    -0.648 OA
ENDBRANCH  28  29
ENDBRANCH   5  28
ENDBRANCH   3   5
BRANCH   1  32
ATOM     32  CA  SER C 503      76.783  25.854 -13.763  1.00 44.19     0.200 C 
BRANCH  32  33
ATOM     33  N   SER C 503      77.208  26.590 -12.570  1.00 47.77    -0.344 N 
ATOM     34  H   SER C 503      77.137  27.445 -12.633  1.00 47.77     0.163 HD
ATOM     35  C   SER C 502      77.663  25.955 -11.491  1.00 50.79     0.243 C 
ATOM     36  O   SER C 502      77.491  24.760 -11.297  1.00 48.58    -0.271 OA
BRANCH  35  37
ATOM     37  CA  SER C 502      78.436  26.790 -10.486  1.00 60.54     0.200 C 
BRANCH  37  38
ATOM     38  CB  SER C 502      77.546  27.191  -9.322  1.00 53.64     0.199 C 
BRANCH  38  39
ATOM     39  OG  SER C 502      76.332  27.749  -9.769  1.00 59.09    -0.398 OA
ATOM     40  HG  SER C 502      75.689  27.321  -9.440  1.00 59.09     0.209 HD
ENDBRANCH  38  39
ENDBRANCH  37  38
BRANCH  37  41
ATOM     41  N   SER C 502      78.993  27.943 -11.183  1.00 72.56    -0.344 N 
ATOM     42  H   SER C 502      78.437  28.581 -11.335  1.00 72.56     0.163 HD
ATOM     43  C   GLU C 501      80.275  27.956 -11.535  1.00101.90     0.257 C 
ATOM     44  O   GLU C 501      81.110  27.222 -11.005  1.00103.22    -0.271 OA
BRANCH  43  45
ATOM     45  CA  GLU C 501      80.694  28.951 -12.625  1.00101.55     0.400 C 
ATOM     46  N   GLU C 501      81.876  28.463 -13.329  1.00100.94     0.615 N 
BRANCH  45  47
ATOM     47  CB  GLU C 501      79.548  29.183 -13.614  1.00104.94     0.062 C 
BRANCH  47  48
ATOM     48  CG  GLU C 501      78.798  30.486 -13.401  1.00111.45     0.116 C 
BRANCH  48  49
ATOM     49  CD  GLU C 501      79.587  31.693 -13.866  1.00115.68     0.172 C 
ATOM     50  OE1 GLU C 501      80.197  31.627 -14.956  1.00117.56    -0.648 OA
ATOM     51  OE2 GLU C 501      79.595  32.708 -13.138  1.00122.11    -0.648 OA
ENDBRANCH  48  49
ENDBRANCH  47  48
ENDBRANCH  45  47
ENDBRANCH  43  45
ENDBRANCH  37  41
ENDBRANCH  35  37
ENDBRANCH  32  33
BRANCH  32  52
ATOM     52  CB  SER C 503      76.145  26.787 -14.783  1.00 49.05     0.199 C 
BRANCH  52  53
ATOM     53  OG  SER C 503      75.028  27.449 -14.217  1.00 54.59    -0.398 OA
ATOM     54  HG  SER C 503      74.686  27.961 -14.789  1.00 54.59     0.209 HD
ENDBRANCH  52  53
ENDBRANCH  32  52
ENDBRANCH   1  32
TORSDOF 25
