REMARK  12 active torsions:
REMARK  status: ('A' for Active; 'I' for Inactive)
REMARK    1  A    between atoms: N_1  and  CA_2 
REMARK    2  A    between atoms: CA_2  and  CB_5 
REMARK    3  A    between atoms: CA_2  and  C_3 
REMARK       I    between atoms: C_3  and  N_11 
REMARK    4  A    between atoms: CB_5  and  OG_6 
REMARK    5  A    between atoms: N_11  and  CA_12 
REMARK    6  A    between atoms: CA_12  and  C_13 
REMARK    7  A    between atoms: CA_12  and  CB_15 
REMARK       I    between atoms: C_13  and  N_23 
REMARK    8  A    between atoms: CB_15  and  CG_16 
REMARK    9  A    between atoms: N_23  and  CA_24 
REMARK   10  A    between atoms: CA_24  and  C_25 
REMARK   11  A    between atoms: CA_24  and  CB_27 
REMARK   12  A    between atoms: CB_27  and  CG_28 
ROOT
ATOM      1  CA  PHE C   1     109.624 174.761  57.546  1.00 43.43     0.180 C 
ENDROOT
BRANCH   1   2
ATOM      2  C   PHE C   1     108.359 174.353  56.806  1.00 43.95     0.241 C 
ATOM      3  O   PHE C   1     108.329 174.401  55.572  1.00 42.64    -0.271 OA
ATOM      4  N   LEU C   2     107.318 173.955  57.528  1.00 45.78    -0.347 N 
ATOM      5  H   LEU C   2     107.346 173.801  58.374  1.00 45.78     0.163 HD
BRANCH   4   6
ATOM      6  CA  LEU C   2     106.019 173.746  56.918  1.00 46.28     0.163 C 
BRANCH   6   7
ATOM      7  C   LEU C   2     105.549 175.069  56.325  1.00 47.91     0.219 C 
ATOM      8  O   LEU C   2     105.387 176.059  57.040  1.00 50.38    -0.287 OA
ENDBRANCH   6   7
BRANCH   6   9
ATOM      9  CB  LEU C   2     105.019 173.228  57.953  1.00 44.46     0.037 C 
BRANCH   9  10
ATOM     10  CG  LEU C   2     105.285 171.817  58.477  1.00 41.86    -0.020 C 
ATOM     11  CD2 LEU C   2     105.348 170.828  57.325  1.00 43.32     0.009 C 
ATOM     12  CD1 LEU C   2     104.216 171.412  59.477  1.00 39.91     0.009 C 
ENDBRANCH   9  10
ENDBRANCH   6   9
ENDBRANCH   4   6
ENDBRANCH   1   2
BRANCH   1  13
ATOM     13  CB  PHE C   1     110.873 174.127  56.932  1.00 40.74     0.073 C 
BRANCH  13  14
ATOM     14  CG  PHE C   1     112.140 174.772  57.393  1.00 40.58    -0.056 A 
ATOM     15  CD1 PHE C   1     112.709 174.418  58.604  1.00 41.26     0.007 A 
ATOM     16  CE1 PHE C   1     113.863 175.023  59.044  1.00 41.59     0.001 A 
ATOM     17  CZ  PHE C   1     114.459 176.002  58.277  1.00 39.95     0.000 A 
ATOM     18  CE2 PHE C   1     113.894 176.377  57.073  1.00 40.65     0.001 A 
ATOM     19  CD2 PHE C   1     112.739 175.768  56.639  1.00 39.59     0.007 A 
ENDBRANCH  13  14
ENDBRANCH   1  13
BRANCH   1  20
ATOM     20  N   PHE C   1     109.562 174.488  58.976  1.00 44.33    -0.346 N 
ATOM     21  H   PHE C   1     109.613 173.653  59.175  1.00 44.33     0.163 HD
ATOM     22  C   SER C   0     109.438 175.455  59.884  1.00 45.23     0.251 C 
ATOM     23  O   SER C   0     109.301 176.644  59.588  1.00 45.89    -0.271 OA
BRANCH  22  24
ATOM     24  CA  SER C   0     109.471 175.013  61.342  1.00 46.83     0.297 C 
BRANCH  24  25
ATOM     25  N   SER C   0     109.153 173.594  61.470  1.00 48.27    -0.064 N 
ATOM     26  H2  SER C   0     108.308 173.456  61.227  1.00 48.27     0.275 HD
ATOM     27  H1  SER C   0     109.263 173.340  62.316  1.00 48.27     0.275 HD
ATOM     28  H3  SER C   0     109.694 173.120  60.946  1.00 48.27     0.275 HD
ENDBRANCH  24  25
BRANCH  24  29
ATOM     29  CB  SER C   0     110.845 175.317  61.946  1.00 47.94     0.206 C 
BRANCH  29  30
ATOM     30  OG  SER C   0     110.862 175.056  63.338  1.00 49.79    -0.398 OA
ATOM     31  HG  SER C   0     111.624 175.228  63.646  1.00 49.79     0.209 HD
ENDBRANCH  29  30
ENDBRANCH  24  29
ENDBRANCH  22  24
ENDBRANCH   1  20
TORSDOF 12
