REMARK  18 active torsions:
REMARK  status: ('A' for Active; 'I' for Inactive)
REMARK    1  A    between atoms: CA_2  and  CB_5 
REMARK    2  A    between atoms: CA_2  and  C_3 
REMARK       I    between atoms: C_3  and  N_10 
REMARK    3  A    between atoms: CB_5  and  CG_6 
REMARK    4  A    between atoms: CG_6  and  CD_7 
REMARK    5  A    between atoms: N_10  and  CA_11 
REMARK    6  A    between atoms: CA_11  and  CB_14 
REMARK    7  A    between atoms: CA_11  and  C_12 
REMARK       I    between atoms: C_12  and  N_19 
REMARK    8  A    between atoms: CB_14  and  CG_15 
REMARK    9  A    between atoms: N_19  and  CA_20 
REMARK   10  A    between atoms: CA_20  and  C_21 
REMARK   11  A    between atoms: CA_20  and  CB_23 
REMARK       I    between atoms: C_21  and  N_36 
REMARK   12  A    between atoms: CB_23  and  CG_24 
REMARK   13  A    between atoms: CG_24  and  CD_25 
REMARK   14  A    between atoms: CD_25  and  NE_26 
REMARK       I    between atoms: NE_26  and  CZ_27 
REMARK       I    between atoms: CZ_27  and  NH1_28 
REMARK   15  A    between atoms: N_36  and  CA_37 
REMARK   16  A    between atoms: CA_37  and  CB_40 
REMARK   17  A    between atoms: CA_37  and  C_38 
REMARK   18  A    between atoms: CB_40  and  CG_41 
ROOT
ATOM      1  CA  ARG G  10      26.950 -44.090  57.999  1.00109.03     0.176 C 
ENDROOT
BRANCH   1   2
ATOM      2  N   ARG G  10      26.638 -44.254  56.570  1.00109.38    -0.346 N 
ATOM      3  H   ARG G  10      26.010 -43.736  56.294  1.00109.38     0.163 HD
ATOM      4  C   LEU G   9      27.279 -45.139  55.760  1.00112.90     0.241 C 
ATOM      5  O   LEU G   9      28.172 -45.894  56.161  1.00112.50    -0.271 OA
BRANCH   4   6
ATOM      6  CA  LEU G   9      26.866 -45.170  54.278  1.00108.81     0.177 C 
BRANCH   6   7
ATOM      7  CB  LEU G   9      25.495 -45.867  54.095  1.00108.47     0.038 C 
BRANCH   7   8
ATOM      8  CG  LEU G   9      25.122 -46.370  52.685  1.00112.27    -0.020 C 
ATOM      9  CD1 LEU G   9      24.187 -47.550  52.754  1.00111.85     0.009 C 
ATOM     10  CD2 LEU G   9      24.540 -45.266  51.830  1.00114.30     0.009 C 
ENDBRANCH   7   8
ENDBRANCH   6   7
BRANCH   6  11
ATOM     11  N   LEU G   9      27.885 -45.789  53.416  1.00109.55    -0.346 N 
ATOM     12  H   LEU G   9      27.728 -46.621  53.264  1.00109.55     0.163 HD
ATOM     13  C   GLU G   8      28.963 -45.159  52.900  1.00113.88     0.257 C 
ATOM     14  O   GLU G   8      29.227 -43.974  53.127  1.00113.76    -0.271 OA
BRANCH  13  15
ATOM     15  CA  GLU G   8      29.866 -45.987  51.972  1.00110.25     0.400 C 
ATOM     16  N   GLU G   8      30.792 -45.167  51.193  1.00110.33     0.615 N 
BRANCH  15  17
ATOM     17  CB  GLU G   8      30.609 -47.096  52.737  1.00111.70     0.062 C 
BRANCH  17  18
ATOM     18  CG  GLU G   8      30.344 -48.485  52.174  1.00121.64     0.116 C 
BRANCH  18  19
ATOM     19  CD  GLU G   8      30.941 -49.666  52.923  1.00138.36     0.172 C 
ATOM     20  OE1 GLU G   8      31.283 -49.516  54.119  1.00130.99    -0.648 OA
ATOM     21  OE2 GLU G   8      31.032 -50.757  52.316  1.00129.20    -0.648 OA
ENDBRANCH  18  19
ENDBRANCH  17  18
ENDBRANCH  15  17
ENDBRANCH  13  15
ENDBRANCH   6  11
ENDBRANCH   4   6
ENDBRANCH   1   2
BRANCH   1  22
ATOM     22  C   ARG G  10      25.745 -43.710  58.887  1.00112.09     0.241 C 
ATOM     23  O   ARG G  10      24.749 -43.184  58.386  1.00111.78    -0.271 OA
ATOM     24  N   LEU G  11      25.860 -43.965  60.214  1.00107.87    -0.347 N 
ATOM     25  H   LEU G  11      26.558 -44.341  60.548  1.00107.87     0.163 HD
BRANCH  24  26
ATOM     26  CA  LEU G  11      24.847 -43.648  61.231  1.00123.94     0.163 C 
BRANCH  26  27
ATOM     27  CB  LEU G  11      24.622 -44.861  62.175  1.00123.74     0.037 C 
BRANCH  27  28
ATOM     28  CG  LEU G  11      23.881 -44.657  63.519  1.00127.90    -0.020 C 
ATOM     29  CD2 LEU G  11      23.966 -45.903  64.372  1.00129.89     0.009 C 
ATOM     30  CD1 LEU G  11      22.423 -44.295  63.317  1.00127.81     0.009 C 
ENDBRANCH  27  28
ENDBRANCH  26  27
BRANCH  26  31
ATOM     31  C   LEU G  11      25.270 -42.398  62.017  1.00152.65     0.219 C 
ATOM     32  O   LEU G  11      24.466 -41.485  62.209  1.00110.84    -0.287 OA
ENDBRANCH  26  31
ENDBRANCH  24  26
ENDBRANCH   1  22
BRANCH   1  33
ATOM     33  CB  ARG G  10      28.089 -43.070  58.179  1.00110.06     0.036 C 
BRANCH  33  34
ATOM     34  CG  ARG G  10      29.294 -43.632  58.920  1.00122.67     0.023 C 
BRANCH  34  35
ATOM     35  CD  ARG G  10      30.419 -42.618  59.031  1.00133.32     0.138 C 
BRANCH  35  36
ATOM     36  NE  ARG G  10      31.577 -43.159  59.748  1.00140.65    -0.227 N 
ATOM     37  HE  ARG G  10      32.165 -43.589  59.291  1.00140.65     0.177 HD
ATOM     38  CZ  ARG G  10      31.782 -43.031  61.056  1.00153.40     0.665 C 
ATOM     39  NH2 ARG G  10      32.861 -43.558  61.619  1.00139.74    -0.235 N 
ATOM     40  NH1 ARG G  10      30.908 -42.376  61.812  1.00139.37    -0.235 N 
ATOM     41 HH22 ARG G  10      32.990 -43.473  62.465  1.00139.74     0.174 HD
ATOM     42 HH21 ARG G  10      33.432 -43.985  61.138  1.00139.74     0.174 HD
ATOM     43 HH11 ARG G  10      30.205 -42.032  61.456  1.00139.37     0.174 HD
ATOM     44 HH12 ARG G  10      31.045 -42.296  62.657  1.00139.37     0.174 HD
ENDBRANCH  35  36
ENDBRANCH  34  35
ENDBRANCH  33  34
ENDBRANCH   1  33
TORSDOF 18
