REMARK  16 active torsions:
REMARK  status: ('A' for Active; 'I' for Inactive)
REMARK       I    between atoms: C_1  and  N_4 
REMARK    1  A    between atoms: N_4  and  CA_5 
REMARK    2  A    between atoms: CA_5  and  C_6 
REMARK       I    between atoms: C_6  and  N_10 
REMARK    3  A    between atoms: CA_11  and  C_12 
REMARK       I    between atoms: C_12  and  N_17 
REMARK    4  A    between atoms: CA_18  and  C_19 
REMARK       I    between atoms: C_19  and  N_24 
REMARK    5  A    between atoms: N_24  and  CA_25 
REMARK    6  A    between atoms: CA_25  and  C_26 
REMARK    7  A    between atoms: CA_25  and  CB_28 
REMARK       I    between atoms: C_26  and  N_33 
REMARK    8  A    between atoms: CB_28  and  CG_29 
REMARK    9  A    between atoms: CA_34  and  C_35 
REMARK       I    between atoms: C_35  and  N_40 
REMARK   10  A    between atoms: CA_41  and  C_42 
REMARK       I    between atoms: C_42  and  N_47 
REMARK   11  A    between atoms: N_47  and  CA_48 
REMARK   12  A    between atoms: CA_48  and  C_49 
REMARK   13  A    between atoms: CA_48  and  CB_51 
REMARK   14  A    between atoms: CB_51  and  CG_52 
REMARK   15  A    between atoms: CG_52  and  CD_53 
REMARK   16  A    between atoms: CD_53  and  NE_54 
REMARK       I    between atoms: NE_54  and  CZ_55 
REMARK       I    between atoms: CZ_55  and  NH1_56 
ROOT
ATOM      1  C   LEU B   4      78.647 -20.935  48.695  1.00 11.33     0.243 C 
ATOM      2  O   LEU B   4      79.571 -21.287  47.948  1.00 12.90    -0.271 OA
ATOM      3  N   PRO B   5      77.407 -20.832  48.255  1.00 11.12    -0.337 N 
ATOM      4  CA  PRO B   5      77.094 -21.169  46.890  1.00 12.55     0.179 C 
ATOM      5  CB  PRO B   5      75.575 -21.376  46.933  1.00 13.89     0.037 C 
ATOM      6  CG  PRO B   5      75.117 -20.456  47.997  1.00 12.43     0.022 C 
ATOM      7  CD  PRO B   5      76.220 -20.401  49.007  1.00 11.21     0.127 C 
ENDROOT
BRANCH   1   8
ATOM      8  CA  LEU B   4      78.909 -20.628  50.164  1.00 11.65     0.177 C 
BRANCH   8   9
ATOM      9  N   LEU B   4      79.782 -21.643  50.709  1.00 12.22    -0.346 N 
ATOM     10  C   PRO B   3      79.348 -22.888  50.819  1.00 12.52     0.241 C 
ATOM     11  O   PRO B   3      78.183 -23.216  50.578  1.00 13.02    -0.271 OA
ATOM     12  H   LEU B   4      80.564 -21.371  50.940  1.00 12.22     0.163 HD
BRANCH  10  13
ATOM     13  CA  PRO B   3      80.379 -23.908  51.275  1.00 15.46     0.179 C 
ATOM     14  N   PRO B   3      79.782 -24.832  52.242  1.00 15.16    -0.337 N 
ATOM     15  CD  PRO B   3      79.726 -26.209  51.729  1.00 18.06     0.127 C 
ATOM     16  C   PRO B   2      79.287 -24.358  53.380  1.00 13.99     0.243 C 
ATOM     17  CG  PRO B   3      79.946 -26.028  50.267  1.00 19.92     0.022 C 
ATOM     18  CB  PRO B   3      80.811 -24.826  50.127  1.00 18.17     0.037 C 
ATOM     19  O   PRO B   2      79.399 -23.162  53.677  1.00 12.71    -0.271 OA
BRANCH  16  20
ATOM     20  CA  PRO B   2      78.528 -25.313  54.281  1.00 15.85     0.179 C 
ATOM     21  CB  PRO B   2      77.030 -25.297  53.934  1.00 19.12     0.037 C 
ATOM     22  CG  PRO B   2      76.298 -25.144  55.202  1.00 19.63     0.022 C 
ATOM     23  CD  PRO B   2      77.221 -24.457  56.134  1.00 18.19     0.127 C 
ATOM     24  N   PRO B   2      78.557 -24.856  55.659  1.00 15.71    -0.337 N 
ATOM     25  C   ALA B   1      79.706 -24.805  56.321  1.00 13.25     0.243 C 
ATOM     26  O   ALA B   1      80.783 -25.086  55.798  1.00 13.75    -0.271 OA
BRANCH  25  27
ATOM     27  CA  ALA B   1      79.639 -24.340  57.766  1.00 12.47     0.172 C 
ATOM     28  CB  ALA B   1      79.647 -22.835  57.824  1.00 12.30     0.042 C 
BRANCH  27  29
ATOM     29  N   ALA B   1      80.756 -24.879  58.519  1.00 12.31    -0.348 N 
ATOM     30  H   ALA B   1      81.344 -24.297  58.755  1.00 12.31     0.163 HD
HETATM   31  C   ACE B   0      80.830 -26.168  58.801  1.00 14.04     0.214 C 
HETATM   32  CH3 ACE B   0      82.023 -26.614  59.590  1.00 14.78     0.117 C 
HETATM   33  O   ACE B   0      79.959 -26.949  58.418  1.00 15.52    -0.274 OA
ENDBRANCH  27  29
ENDBRANCH  25  27
ENDBRANCH  16  20
ENDBRANCH  10  13
ENDBRANCH   8   9
BRANCH   8  34
ATOM     34  CB  LEU B   4      79.516 -19.234  50.301  1.00 12.59     0.038 C 
BRANCH  34  35
ATOM     35  CG  LEU B   4      79.543 -18.683  51.725  1.00 12.74    -0.020 C 
ATOM     36  CD1 LEU B   4      80.316 -17.378  51.754  1.00 14.33     0.009 C 
ATOM     37  CD2 LEU B   4      78.144 -18.478  52.293  1.00 11.50     0.009 C 
ENDBRANCH  34  35
ENDBRANCH   8  34
ENDBRANCH   1   8
BRANCH   4  38
ATOM     38  C   PRO B   5      77.476 -20.032  45.962  1.00 12.26     0.243 C 
ATOM     39  N   PRO B   6      77.575 -20.302  44.665  1.00 14.33    -0.337 N 
ATOM     40  CD  PRO B   6      77.389 -21.596  43.993  1.00 16.43     0.127 C 
ATOM     41  CA  PRO B   6      77.882 -19.228  43.718  1.00 15.63     0.179 C 
ATOM     42  CG  PRO B   6      78.067 -21.394  42.679  1.00 18.90     0.022 C 
ATOM     43  CB  PRO B   6      77.978 -19.951  42.369  1.00 17.20     0.037 C 
ATOM     44  O   PRO B   5      77.660 -18.884  46.396  1.00 12.24    -0.271 OA
BRANCH  41  45
ATOM     45  C   PRO B   6      76.780 -18.181  43.683  1.00 14.54     0.241 C 
ATOM     46  O   PRO B   6      75.595 -18.481  43.848  1.00 15.72    -0.271 OA
ATOM     47  N   ARG B   7      77.185 -16.942  43.446  1.00 15.59    -0.347 N 
ATOM     48  H   ARG B   7      78.009 -16.717  43.344  1.00 15.59     0.163 HD
BRANCH  47  49
ATOM     49  CA  ARG B   7      76.239 -15.833  43.337  1.00 17.66     0.162 C 
BRANCH  49  50
ATOM     50  C   ARG B   7      75.550 -15.781  41.977  1.00 19.45     0.219 C 
ATOM     51  O   ARG B   7      76.017 -16.386  41.018  1.00 22.19    -0.287 OA
ENDBRANCH  49  50
BRANCH  49  52
ATOM     52  CB  ARG B   7      76.952 -14.518  43.635  1.00 18.48     0.035 C 
BRANCH  52  53
ATOM     53  CG  ARG B   7      77.367 -14.413  45.086  1.00 19.62     0.023 C 
BRANCH  53  54
ATOM     54  CD  ARG B   7      77.945 -13.059  45.421  1.00 19.05     0.138 C 
BRANCH  54  55
ATOM     55  NE  ARG B   7      78.403 -13.029  46.804  1.00 16.94    -0.227 N 
ATOM     56  CZ  ARG B   7      77.733 -12.491  47.820  1.00 14.04     0.665 C 
ATOM     57  NH1 ARG B   7      76.560 -11.906  47.635  1.00 13.87    -0.235 N 
ATOM     58  NH2 ARG B   7      78.254 -12.529  49.033  1.00 14.07    -0.235 N 
ATOM     59 HH12 ARG B   7      76.140 -11.563  48.303  1.00 13.87     0.174 HD
ATOM     60 HH11 ARG B   7      76.218 -11.869  46.847  1.00 13.87     0.174 HD
ATOM     61 HH21 ARG B   7      79.020 -12.899  49.161  1.00 14.07     0.174 HD
ATOM     62 HH22 ARG B   7      77.828 -12.184  49.695  1.00 14.07     0.174 HD
ATOM     63  HE  ARG B   7      79.166 -13.387  46.977  1.00 16.94     0.177 HD
ENDBRANCH  54  55
ENDBRANCH  53  54
ENDBRANCH  52  53
ENDBRANCH  49  52
ENDBRANCH  47  49
ENDBRANCH  41  45
ENDBRANCH   4  38
TORSDOF 16
