REMARK  15 active torsions:
REMARK  status: ('A' for Active; 'I' for Inactive)
REMARK    1  A    between atoms: N_1  and  CA_2 
REMARK    2  A    between atoms: CA_2  and  CB_5 
REMARK    3  A    between atoms: CA_2  and  C_3 
REMARK       I    between atoms: C_3  and  N_17 
REMARK    4  A    between atoms: CB_5  and  CG_6 
REMARK    5  A    between atoms: CZ_11  and  OH_12 
REMARK    6  A    between atoms: N_17  and  CA_18 
REMARK    7  A    between atoms: CA_18  and  CB_21 
REMARK    8  A    between atoms: CA_18  and  C_19 
REMARK       I    between atoms: C_19  and  N_31 
REMARK    9  A    between atoms: CB_21  and  CG_22 
REMARK   10  A    between atoms: CZ_27  and  OH_28 
REMARK   11  A    between atoms: N_31  and  CA_32 
REMARK   12  A    between atoms: CA_32  and  C_33 
REMARK   13  A    between atoms: CA_32  and  CB_35 
REMARK   14  A    between atoms: CB_35  and  CG_36 
REMARK   15  A    between atoms: CZ_41  and  OH_42 
ROOT
ATOM      1  CA  TYR B   2      58.720 147.283   2.842  1.00 28.44     0.180 C 
ENDROOT
BRANCH   1   2
ATOM      2  CB  TYR B   2      58.882 146.319   4.024  1.00 30.17     0.073 C 
BRANCH   2   3
ATOM      3  CG  TYR B   2      57.590 145.738   4.576  1.00 31.12    -0.056 A 
ATOM      4  CD2 TYR B   2      56.981 144.630   3.970  1.00 31.81     0.010 A 
ATOM      5  CE2 TYR B   2      55.801 144.090   4.477  1.00 33.15     0.037 A 
ATOM      6  CZ  TYR B   2      55.215 144.658   5.602  1.00 33.29     0.065 A 
ATOM      7  CE1 TYR B   2      55.800 145.759   6.231  1.00 33.06     0.037 A 
ATOM      8  CD1 TYR B   2      56.981 146.290   5.717  1.00 32.67     0.010 A 
BRANCH   6   9
ATOM      9  OH  TYR B   2      54.050 144.128   6.095  1.00 34.60    -0.361 OA
ATOM     10  HH  TYR B   2      53.816 143.476   5.620  1.00 34.60     0.217 HD
ENDBRANCH   6   9
ENDBRANCH   2   3
ENDBRANCH   1   2
BRANCH   1  11
ATOM     11  C   TYR B   2      57.981 148.530   3.280  1.00 30.52     0.241 C 
ATOM     12  N   TYR B   3      56.659 148.487   3.143  1.00 32.89    -0.347 N 
ATOM     13  H   TYR B   3      56.240 147.821   2.796  1.00 32.89     0.163 HD
ATOM     14  O   TYR B   2      58.596 149.505   3.725  1.00 30.24    -0.271 OA
BRANCH  12  15
ATOM     15  CA  TYR B   3      55.788 149.573   3.572  1.00 36.06     0.166 C 
BRANCH  15  16
ATOM     16  C   TYR B   3      54.570 149.039   4.325  1.00 37.31     0.219 C 
ATOM     17  O   TYR B   3      53.905 148.107   3.864  1.00 39.71    -0.287 OA
ENDBRANCH  15  16
BRANCH  15  18
ATOM     18  CB  TYR B   3      55.354 150.412   2.366  1.00 37.43     0.072 C 
BRANCH  18  19
ATOM     19  CG  TYR B   3      54.684 151.712   2.741  1.00 38.24    -0.056 A 
ATOM     20  CD2 TYR B   3      53.297 151.869   2.620  1.00 38.70     0.010 A 
ATOM     21  CE2 TYR B   3      52.680 153.066   2.971  1.00 39.79     0.037 A 
ATOM     22  CZ  TYR B   3      53.452 154.121   3.445  1.00 40.15     0.065 A 
ATOM     23  CE1 TYR B   3      54.832 153.991   3.573  1.00 39.97     0.037 A 
ATOM     24  CD1 TYR B   3      55.438 152.793   3.223  1.00 39.23     0.010 A 
BRANCH  22  25
ATOM     25  OH  TYR B   3      52.863 155.314   3.795  1.00 40.04    -0.361 OA
ATOM     26  HH  TYR B   3      52.034 155.264   3.671  1.00 40.04     0.217 HD
ENDBRANCH  22  25
ENDBRANCH  18  19
ENDBRANCH  15  18
ENDBRANCH  12  15
ENDBRANCH   1  11
BRANCH   1  27
ATOM     27  N   TYR B   2      60.027 147.659   2.329  1.00 25.33    -0.346 N 
ATOM     28  C   TYR B   1      60.581 147.088   1.263  1.00 22.87     0.249 C 
ATOM     29  O   TYR B   1      60.002 146.259   0.555  1.00 21.86    -0.271 OA
ATOM     30  H   TYR B   2      60.408 148.285   2.779  1.00 25.33     0.163 HD
BRANCH  28  31
ATOM     31  CA  TYR B   1      62.008 147.529   0.945  1.00 21.88     0.278 C 
BRANCH  31  32
ATOM     32  CB  TYR B   1      62.918 146.301   0.873  1.00 21.24     0.081 C 
BRANCH  32  33
ATOM     33  CG  TYR B   1      64.347 146.597   0.488  1.00 20.81    -0.056 A 
ATOM     34  CD1 TYR B   1      65.376 146.526   1.437  1.00 20.37     0.010 A 
ATOM     35  CE1 TYR B   1      66.694 146.797   1.084  1.00 19.95     0.037 A 
ATOM     36  CZ  TYR B   1      66.989 147.145  -0.236  1.00 20.32     0.065 A 
ATOM     37  CE2 TYR B   1      65.985 147.221  -1.192  1.00 20.63     0.037 A 
ATOM     38  CD2 TYR B   1      64.674 146.949  -0.828  1.00 20.57     0.010 A 
BRANCH  36  39
ATOM     39  OH  TYR B   1      68.281 147.414  -0.617  1.00 20.56    -0.361 OA
ATOM     40  HH  TYR B   1      68.607 147.999  -0.110  1.00 20.56     0.217 HD
ENDBRANCH  36  39
ENDBRANCH  32  33
ENDBRANCH  31  32
BRANCH  31  41
ATOM     41  N   TYR B   1      62.530 148.505   1.950  1.00 21.11    -0.066 N 
ATOM     42  H2  TYR B   1      62.094 149.277   1.869  1.00 21.11     0.275 HD
ATOM     43  H1  TYR B   1      63.399 148.639   1.810  1.00 21.11     0.275 HD
ATOM     44  H3  TYR B   1      62.408 148.181   2.770  1.00 21.11     0.275 HD
ENDBRANCH  31  41
ENDBRANCH  28  31
ENDBRANCH   1  27
TORSDOF 15
