REMARK  28 active torsions:
REMARK  status: ('A' for Active; 'I' for Inactive)
REMARK    1  A    between atoms: CA_2  and  CB_5 
REMARK    2  A    between atoms: CA_2  and  C_3 
REMARK       I    between atoms: C_3  and  N_9 
REMARK    3  A    between atoms: CB_5  and  CG1_6 
REMARK    4  A    between atoms: N_9  and  CA_10 
REMARK    5  A    between atoms: CA_10  and  CB_13 
REMARK    6  A    between atoms: CA_10  and  C_11 
REMARK       I    between atoms: C_11  and  N_18 
REMARK    7  A    between atoms: CB_13  and  CG_14 
REMARK    8  A    between atoms: N_18  and  CA_19 
REMARK    9  A    between atoms: CA_19  and  C_20 
REMARK   10  A    between atoms: CA_19  and  CB_22 
REMARK       I    between atoms: C_20  and  N_27 
REMARK   11  A    between atoms: CB_22  and  CG_23 
REMARK   12  A    between atoms: N_27  and  CA_28 
REMARK   13  A    between atoms: CA_28  and  CB_31 
REMARK   14  A    between atoms: CA_28  and  C_29 
REMARK       I    between atoms: C_29  and  N_36 
REMARK   15  A    between atoms: CB_31  and  OG1_32 
REMARK   16  A    between atoms: CA_37  and  C_38 
REMARK       I    between atoms: C_38  and  N_43 
REMARK   17  A    between atoms: N_43  and  CA_44 
REMARK   18  A    between atoms: CA_44  and  C_45 
REMARK   19  A    between atoms: CA_44  and  CB_47 
REMARK       I    between atoms: C_45  and  N_60 
REMARK   20  A    between atoms: CB_47  and  CG_48 
REMARK   21  A    between atoms: CG_48  and  CD_49 
REMARK   22  A    between atoms: CD_49  and  NE_50 
REMARK       I    between atoms: NE_50  and  CZ_51 
REMARK       I    between atoms: CZ_51  and  NH1_52 
REMARK       I    between atoms: CZ_51  and  NH2_53 
REMARK   23  A    between atoms: N_60  and  CA_61 
REMARK   24  A    between atoms: CA_61  and  C_62 
REMARK   25  A    between atoms: CA_61  and  CB_64 
REMARK   26  A    between atoms: CB_64  and  CG_65 
REMARK   27  A    between atoms: CG_65  and  CD_66 
REMARK   28  A    between atoms: CD_66  and  NE_67 
REMARK       I    between atoms: NE_67  and  CZ_68 
REMARK       I    between atoms: CZ_68  and  NH1_69 
ROOT
ATOM      1  C   THR D 648     -63.245   9.482  -5.257  1.00 57.47     0.245 C 
ATOM      2  O   THR D 648     -62.196   9.620  -5.890  1.00 58.33    -0.271 OA
ATOM      3  N   PRO D 649     -64.228   8.655  -5.652  1.00 55.77    -0.337 N 
ATOM      4  CA  PRO D 649     -64.080   7.751  -6.802  1.00 54.43     0.179 C 
ATOM      5  CB  PRO D 649     -65.210   6.739  -6.582  1.00 56.30     0.037 C 
ATOM      6  CG  PRO D 649     -66.252   7.500  -5.828  1.00 52.90     0.022 C 
ATOM      7  CD  PRO D 649     -65.471   8.390  -4.900  1.00 52.65     0.127 C 
ENDROOT
BRANCH   4   8
ATOM      8  C   PRO D 649     -64.227   8.388  -8.189  1.00 62.44     0.241 C 
ATOM      9  N   ARG D 650     -63.588   7.775  -9.185  1.00 65.13    -0.346 N 
ATOM     10  H   ARG D 650     -62.964   7.196  -9.061  1.00 65.13     0.163 HD
ATOM     11  O   PRO D 649     -64.905   9.404  -8.340  1.00 64.48    -0.271 OA
BRANCH   9  12
ATOM     12  CA  ARG D 650     -63.889   8.030 -10.596  1.00 68.90     0.176 C 
BRANCH  12  13
ATOM     13  C   ARG D 650     -65.176   7.293 -10.971  1.00 70.53     0.241 C 
ATOM     14  N   ARG D 651     -65.823   7.710 -12.055  1.00 72.55    -0.347 N 
ATOM     15  H   ARG D 651     -65.539   8.320 -12.591  1.00 72.55     0.163 HD
ATOM     16  O   ARG D 650     -65.587   6.361 -10.276  1.00 68.24    -0.271 OA
BRANCH  14  17
ATOM     17  CA  ARG D 651     -67.114   7.126 -12.410  1.00 72.50     0.162 C 
BRANCH  17  18
ATOM     18  C   ARG D 651     -67.013   6.324 -13.709  1.00 69.52     0.219 C 
ATOM     19  O   ARG D 651     -66.833   5.101 -13.692  1.00 68.10    -0.287 OA
ENDBRANCH  17  18
BRANCH  17  20
ATOM     20  CB  ARG D 651     -68.207   8.207 -12.548  1.00 76.74     0.035 C 
BRANCH  20  21
ATOM     21  CG  ARG D 651     -68.387   9.268 -11.404  1.00 75.60     0.023 C 
BRANCH  21  22
ATOM     22  CD  ARG D 651     -67.800   8.908 -10.012  1.00 74.66     0.138 C 
BRANCH  22  23
ATOM     23  NE  ARG D 651     -68.572   7.922  -9.246  1.00 75.25    -0.227 N 
ATOM     24  HE  ARG D 651     -68.268   7.118  -9.224  1.00 75.25     0.177 HD
ATOM     25  CZ  ARG D 651     -69.701   8.163  -8.582  1.00 78.75     0.665 C 
ATOM     26  NH2 ARG D 651     -70.307   7.179  -7.926  1.00 79.25    -0.235 N 
ATOM     27  NH1 ARG D 651     -70.215   9.379  -8.554  1.00 78.43    -0.235 N 
ATOM     28 HH22 ARG D 651     -71.036   7.333  -7.497  1.00 79.25     0.174 HD
ATOM     29 HH21 ARG D 651     -69.970   6.388  -7.931  1.00 79.25     0.174 HD
ATOM     30 HH12 ARG D 651     -70.944   9.528  -8.123  1.00 78.43     0.174 HD
ATOM     31 HH11 ARG D 651     -69.820  10.022  -8.966  1.00 78.43     0.174 HD
ENDBRANCH  22  23
ENDBRANCH  21  22
ENDBRANCH  20  21
ENDBRANCH  17  20
ENDBRANCH  14  17
ENDBRANCH  12  13
BRANCH  12  32
ATOM     32  CB  ARG D 650     -62.731   7.581 -11.500  1.00 66.96     0.036 C 
BRANCH  32  33
ATOM     33  CG  ARG D 650     -61.444   8.390 -11.355  1.00 73.73     0.023 C 
BRANCH  33  34
ATOM     34  CD  ARG D 650     -60.285   7.743 -12.127  1.00 75.05     0.138 C 
BRANCH  34  35
ATOM     35  NE  ARG D 650     -60.484   7.698 -13.566  1.00 81.10    -0.227 N 
ATOM     36  HE  ARG D 650     -61.159   8.118 -13.894  1.00 81.10     0.177 HD
ATOM     37  CZ  ARG D 650     -59.685   7.046 -14.408  1.00 84.47     0.665 C 
ATOM     38  NH1 ARG D 650     -58.637   6.376 -13.946  1.00 76.84    -0.235 N 
ATOM     39  NH2 ARG D 650     -59.931   7.056 -15.719  1.00 84.76    -0.235 N 
ATOM     40 HH11 ARG D 650     -58.473   6.363 -13.102  1.00 76.84     0.174 HD
ATOM     41 HH12 ARG D 650     -58.121   5.955 -14.491  1.00 76.84     0.174 HD
ATOM     42 HH21 ARG D 650     -60.610   7.486 -16.026  1.00 84.76     0.174 HD
ATOM     43 HH22 ARG D 650     -59.411   6.633 -16.257  1.00 84.76     0.174 HD
ENDBRANCH  34  35
ENDBRANCH  33  34
ENDBRANCH  32  33
ENDBRANCH  12  32
ENDBRANCH   9  12
ENDBRANCH   4   8
BRANCH   1  44
ATOM     44  CA  THR D 648     -63.463  10.234  -3.943  1.00 55.33     0.205 C 
BRANCH  44  45
ATOM     45  CB  THR D 648     -63.777  11.736  -4.208  1.00 57.91     0.146 C 
ATOM     46  CG2 THR D 648     -65.163  11.907  -4.845  1.00 54.65     0.042 C 
BRANCH  45  47
ATOM     47  OG1 THR D 648     -63.731  12.464  -2.970  1.00 51.58    -0.393 OA
ATOM     48  HG1 THR D 648     -62.931  12.566  -2.734  1.00 51.58     0.210 HD
ENDBRANCH  45  47
ENDBRANCH  44  45
BRANCH  44  49
ATOM     49  N   THR D 648     -62.283  10.074  -3.100  1.00 49.85    -0.344 N 
ATOM     50  H   THR D 648     -61.623  10.584  -3.310  1.00 49.85     0.163 HD
ATOM     51  C   LEU D 647     -62.261   9.203  -2.098  1.00 48.49     0.241 C 
ATOM     52  O   LEU D 647     -63.193   8.433  -1.857  1.00 50.57    -0.271 OA
BRANCH  51  53
ATOM     53  CA  LEU D 647     -61.015   9.211  -1.227  1.00 48.52     0.177 C 
BRANCH  53  54
ATOM     54  CB  LEU D 647     -61.237  10.160  -0.049  1.00 42.08     0.038 C 
BRANCH  54  55
ATOM     55  CG  LEU D 647     -60.086  10.375   0.934  1.00 43.63    -0.020 C 
ATOM     56  CD1 LEU D 647     -60.524  11.323   2.057  1.00 34.09     0.009 C 
ATOM     57  CD2 LEU D 647     -59.623   9.052   1.491  1.00 37.87     0.009 C 
ENDBRANCH  54  55
ENDBRANCH  53  54
BRANCH  53  58
ATOM     58  N   LEU D 647     -59.817   9.592  -1.973  1.00 49.21    -0.346 N 
ATOM     59  C   LEU D 646     -58.906   8.695  -2.348  1.00 51.75     0.241 C 
ATOM     60  O   LEU D 646     -59.044   7.482  -2.180  1.00 46.22    -0.271 OA
ATOM     61  H   LEU D 647     -59.759  10.433  -2.143  1.00 49.21     0.163 HD
BRANCH  59  62
ATOM     62  CA  LEU D 646     -57.659   9.243  -3.029  1.00 53.11     0.177 C 
BRANCH  62  63
ATOM     63  N   LEU D 646     -57.835   9.322  -4.474  1.00 56.32    -0.346 N 
ATOM     64  C   ILE D 645     -57.183   8.503  -5.294  1.00 63.27     0.257 C 
ATOM     65  O   ILE D 645     -56.376   7.655  -4.893  1.00 63.46    -0.271 OA
ATOM     66  H   LEU D 646     -58.384   9.930  -4.735  1.00 56.32     0.163 HD
BRANCH  64  67
ATOM     67  CA  ILE D 645     -57.497   8.638  -6.786  1.00 63.54     0.403 C 
ATOM     68  N   ILE D 645     -56.306   8.937  -7.580  1.00 63.63     0.615 N 
BRANCH  67  69
ATOM     69  CB  ILE D 645     -58.181   7.332  -7.232  1.00 61.73     0.029 C 
ATOM     70  CG2 ILE D 645     -59.458   7.108  -6.415  1.00 57.36     0.012 C 
BRANCH  69  71
ATOM     71  CG1 ILE D 645     -58.468   7.339  -8.738  1.00 65.03     0.002 C 
ATOM     72  CD1 ILE D 645     -59.271   6.133  -9.207  1.00 60.49     0.005 C 
ENDBRANCH  69  71
ENDBRANCH  67  69
ENDBRANCH  64  67
ENDBRANCH  62  63
BRANCH  62  73
ATOM     73  CB  LEU D 646     -57.306  10.614  -2.460  1.00 52.76     0.038 C 
BRANCH  73  74
ATOM     74  CG  LEU D 646     -55.869  11.062  -2.713  1.00 58.95    -0.020 C 
ATOM     75  CD1 LEU D 646     -55.790  12.589  -2.786  1.00 55.02     0.009 C 
ATOM     76  CD2 LEU D 646     -54.954  10.511  -1.623  1.00 54.54     0.009 C 
ENDBRANCH  73  74
ENDBRANCH  62  73
ENDBRANCH  59  62
ENDBRANCH  53  58
ENDBRANCH  51  53
ENDBRANCH  44  49
ENDBRANCH   1  44
TORSDOF 28
