REMARK  17 active torsions:
REMARK  status: ('A' for Active; 'I' for Inactive)
REMARK    1  A    between atoms: CA_2  and  C_3 
REMARK       I    between atoms: C_3  and  N_5 
REMARK    2  A    between atoms: N_5  and  CA_6 
REMARK    3  A    between atoms: CA_6  and  C_7 
REMARK    4  A    between atoms: CA_6  and  CB_9 
REMARK       I    between atoms: C_7  and  N_19 
REMARK    5  A    between atoms: CB_9  and  CG_10 
REMARK    6  A    between atoms: CZ_15  and  OH_16 
REMARK    7  A    between atoms: CA_20  and  C_21 
REMARK       I    between atoms: C_21  and  N_26 
REMARK    8  A    between atoms: N_26  and  CA_27 
REMARK    9  A    between atoms: CA_27  and  C_28 
REMARK       I    between atoms: C_28  and  N_31 
REMARK   10  A    between atoms: N_31  and  CA_32 
REMARK   11  A    between atoms: CA_32  and  C_33 
REMARK   12  A    between atoms: CA_32  and  CB_35 
REMARK       I    between atoms: C_33  and  N_43 
REMARK   13  A    between atoms: CB_35  and  CG_36 
REMARK   14  A    between atoms: CG_36  and  CD_37 
REMARK       I    between atoms: CD_37  and  NE2_39 
REMARK   15  A    between atoms: N_43  and  CA_44 
REMARK   16  A    between atoms: CA_44  and  C_45 
REMARK   17  A    between atoms: CA_44  and  CB_47 
ROOT
ATOM      1  C   PRO F   5      27.071 -25.142  33.292  1.00 22.19     0.241 C 
ATOM      2  O   PRO F   5      26.858 -25.848  34.269  1.00 23.65    -0.271 OA
ATOM      3  N   GLY F   6      26.112 -24.711  32.482  1.00 19.88    -0.351 N 
ATOM      4  H   GLY F   6      26.250 -24.167  31.830  1.00 19.88     0.163 HD
ENDROOT
BRANCH   3   5
ATOM      5  CA  GLY F   6      24.718 -25.125  32.624  1.00 18.82     0.225 C 
BRANCH   5   6
ATOM      6  C   GLY F   6      24.425 -26.551  32.233  1.00 19.38     0.236 C 
ATOM      7  N   GLN F   7      23.208 -26.975  32.535  1.00 19.21    -0.346 N 
ATOM      8  H   GLN F   7      22.589 -26.474  32.858  1.00 19.21     0.163 HD
ATOM      9  O   GLY F   6      25.281 -27.298  31.703  1.00 20.81    -0.272 OA
BRANCH   7  10
ATOM     10  CA  GLN F   7      22.822 -28.357  32.336  1.00 20.89     0.177 C 
BRANCH  10  11
ATOM     11  C   GLN F   7      22.246 -28.465  30.935  1.00 21.73     0.241 C 
ATOM     12  N   VAL F   8      23.079 -28.902  29.990  1.00 23.67    -0.344 N 
ATOM     13  H   VAL F   8      23.892 -29.130  30.152  1.00 23.67     0.163 HD
ATOM     14  O   GLN F   7      21.087 -28.164  30.713  1.00 20.56    -0.271 OA
BRANCH  12  15
ATOM     15  CA  VAL F   8      22.703 -29.041  28.584  1.00 26.59     0.189 C 
BRANCH  15  16
ATOM     16  C   VAL F   8      23.024 -30.451  28.125  1.00 31.87     0.197 C 
ATOM     17  O   VAL F   8      24.096 -30.984  28.421  1.00 34.57    -0.646 OA
ATOM     18  OXT VAL F   8      22.246 -31.078  27.408  1.00 35.27    -0.646 OA
ENDBRANCH  15  16
BRANCH  15  19
ATOM     19  CB  VAL F   8      23.506 -28.061  27.685  1.00 27.17     0.010 C 
ATOM     20  CG1 VAL F   8      23.060 -28.132  26.222  1.00 30.44     0.012 C 
ATOM     21  CG2 VAL F   8      23.375 -26.641  28.166  1.00 24.96     0.012 C 
ENDBRANCH  15  19
ENDBRANCH  12  15
ENDBRANCH  10  11
BRANCH  10  22
ATOM     22  CB  GLN F   7      21.801 -28.763  33.399  1.00 21.57     0.044 C 
BRANCH  22  23
ATOM     23  CG  GLN F   7      21.352 -30.218  33.344  1.00 23.35     0.105 C 
BRANCH  23  24
ATOM     24  CD  GLN F   7      20.039 -30.443  34.064  1.00 24.40     0.215 C 
ATOM     25  NE2 GLN F   7      19.584 -31.682  34.073  1.00 26.54    -0.370 N 
ATOM     26 2HE2 GLN F   7      18.839 -31.864  34.462  1.00 26.54     0.159 HD
ATOM     27 1HE2 GLN F   7      20.033 -32.308  33.690  1.00 26.54     0.159 HD
ATOM     28  OE1 GLN F   7      19.444 -29.508  34.594  1.00 22.98    -0.274 OA
ENDBRANCH  23  24
ENDBRANCH  22  23
ENDBRANCH  10  22
ENDBRANCH   7  10
ENDBRANCH   5   6
ENDBRANCH   3   5
BRANCH   1  29
ATOM     29  CA  PRO F   5      28.506 -24.732  32.996  1.00 24.01     0.179 C 
ATOM     30  CB  PRO F   5      29.062 -23.895  34.146  1.00 26.63     0.037 C 
ATOM     31  CG  PRO F   5      29.037 -22.501  33.678  1.00 25.90     0.022 C 
ATOM     32  CD  PRO F   5      28.966 -22.482  32.180  1.00 24.07     0.127 C 
ATOM     33  N   PRO F   5      28.701 -23.882  31.811  1.00 22.96    -0.337 N 
ATOM     34  C   TYR F   4      28.854 -24.426  30.579  1.00 22.64     0.243 C 
ATOM     35  O   TYR F   4      28.709 -25.615  30.347  1.00 22.73    -0.271 OA
BRANCH  34  36
ATOM     36  CA  TYR F   4      29.234 -23.508  29.426  1.00 23.00     0.181 C 
BRANCH  36  37
ATOM     37  N   TYR F   4      30.430 -24.061  28.767  1.00 26.39    -0.346 N 
ATOM     38  H   TYR F   4      30.273 -24.485  28.036  1.00 26.39     0.163 HD
ATOM     39  C   GLY F   3      31.632 -23.898  29.288  1.00 29.77     0.252 C 
ATOM     40  O   GLY F   3      31.796 -23.359  30.375  1.00 31.07    -0.271 OA
BRANCH  39  41
ATOM     41  CA  GLY F   3      32.826 -24.451  28.506  1.00 33.82     0.466 C 
ATOM     42  N   GLY F   3      33.933 -24.805  29.433  1.00 37.49     0.609 N 
ENDBRANCH  39  41
ENDBRANCH  36  37
BRANCH  36  43
ATOM     43  CB  TYR F   4      28.103 -23.435  28.443  1.00 21.26     0.073 C 
BRANCH  43  44
ATOM     44  CG  TYR F   4      26.823 -22.984  29.020  1.00 18.65    -0.056 A 
ATOM     45  CD2 TYR F   4      25.753 -23.860  29.151  1.00 17.47     0.010 A 
ATOM     46  CE2 TYR F   4      24.541 -23.445  29.693  1.00 16.54     0.037 A 
ATOM     47  CZ  TYR F   4      24.393 -22.132  30.112  1.00 17.16     0.065 A 
ATOM     48  CE1 TYR F   4      25.452 -21.250  29.998  1.00 18.26     0.037 A 
ATOM     49  CD1 TYR F   4      26.656 -21.666  29.434  1.00 19.09     0.010 A 
BRANCH  47  50
ATOM     50  OH  TYR F   4      23.175 -21.654  30.633  1.00 17.27    -0.361 OA
ATOM     51  HH  TYR F   4      22.821 -22.249  31.109  1.00 17.27     0.217 HD
ENDBRANCH  47  50
ENDBRANCH  43  44
ENDBRANCH  36  43
ENDBRANCH  34  36
ENDBRANCH   1  29
TORSDOF 17
