REMARK  22 active torsions:
REMARK  status: ('A' for Active; 'I' for Inactive)
REMARK    1  A    between atoms: CA_2  and  CB_5 
REMARK    2  A    between atoms: CA_2  and  C_3 
REMARK       I    between atoms: C_3  and  N_9 
REMARK    3  A    between atoms: CB_5  and  CG1_6 
REMARK    4  A    between atoms: N_9  and  CA_10 
REMARK    5  A    between atoms: CA_10  and  C_11 
REMARK    6  A    between atoms: CA_10  and  CB_13 
REMARK       I    between atoms: C_11  and  N_18 
REMARK    7  A    between atoms: CB_13  and  CG_14 
REMARK    8  A    between atoms: N_18  and  CA_19 
REMARK    9  A    between atoms: CA_19  and  C_20 
REMARK   10  A    between atoms: CA_19  and  CB_22 
REMARK       I    between atoms: C_20  and  N_27 
REMARK   11  A    between atoms: CB_22  and  CG_23 
REMARK   12  A    between atoms: N_27  and  CA_28 
REMARK   13  A    between atoms: CA_28  and  CB_31 
REMARK   14  A    between atoms: CA_28  and  C_29 
REMARK       I    between atoms: C_29  and  N_36 
REMARK   15  A    between atoms: CB_31  and  OG1_32 
REMARK   16  A    between atoms: CA_37  and  C_38 
REMARK       I    between atoms: C_38  and  N_43 
REMARK   17  A    between atoms: N_43  and  CA_44 
REMARK   18  A    between atoms: CA_44  and  C_45 
REMARK   19  A    between atoms: CA_44  and  CB_47 
REMARK   20  A    between atoms: CB_47  and  CG_48 
REMARK   21  A    between atoms: CG_48  and  CD_49 
REMARK   22  A    between atoms: CD_49  and  NE_50 
REMARK       I    between atoms: NE_50  and  CZ_51 
REMARK       I    between atoms: CZ_51  and  NH1_52 
ROOT
ATOM      1  CA  THR D 648     -64.839  10.374  -5.870  1.00 62.87     0.205 C 
ENDROOT
BRANCH   1   2
ATOM      2  N   THR D 648     -63.532  10.261  -5.227  1.00 56.91    -0.344 N 
ATOM      3  C   LEU D 647     -63.269   9.320  -4.325  1.00 59.35     0.241 C 
ATOM      4  O   LEU D 647     -64.095   8.474  -3.979  1.00 56.20    -0.271 OA
ATOM      5  H   THR D 648     -62.960  10.850  -5.483  1.00 56.91     0.163 HD
BRANCH   3   6
ATOM      6  CA  LEU D 647     -61.868   9.333  -3.741  1.00 55.15     0.177 C 
BRANCH   6   7
ATOM      7  CB  LEU D 647     -61.826  10.323  -2.533  1.00 49.69     0.038 C 
BRANCH   7   8
ATOM      8  CG  LEU D 647     -60.581  10.448  -1.646  1.00 48.41    -0.020 C 
ATOM      9  CD2 LEU D 647     -60.044   9.102  -1.184  1.00 46.46     0.009 C 
ATOM     10  CD1 LEU D 647     -60.891  11.320  -0.439  1.00 42.39     0.009 C 
ENDBRANCH   7   8
ENDBRANCH   6   7
BRANCH   6  11
ATOM     11  N   LEU D 647     -60.853   9.598  -4.737  1.00 57.83    -0.346 N 
ATOM     12  C   LEU D 646     -60.029   8.633  -5.150  1.00 69.64     0.241 C 
ATOM     13  O   LEU D 646     -60.065   7.491  -4.685  1.00 59.31    -0.271 OA
ATOM     14  H   LEU D 647     -60.834  10.408  -5.025  1.00 57.83     0.163 HD
BRANCH  12  15
ATOM     15  CA  LEU D 646     -59.012   8.973  -6.285  1.00 75.89     0.177 C 
BRANCH  15  16
ATOM     16  N   LEU D 646     -59.531   9.168  -7.605  1.00 90.15    -0.346 N 
ATOM     17  H   LEU D 646     -60.226   9.673  -7.646  1.00 90.15     0.163 HD
ATOM     18  C   ILE D 645     -58.958   8.597  -8.664  1.00 94.17     0.257 C 
ATOM     19  O   ILE D 645     -57.931   7.913  -8.588  1.00104.89    -0.271 OA
BRANCH  18  20
ATOM     20  CA  ILE D 645     -59.634   8.835 -10.010  1.00 87.61     0.403 C 
ATOM     21  N   ILE D 645     -58.677   9.186 -11.103  1.00 97.17     0.615 N 
BRANCH  20  22
ATOM     22  CB  ILE D 645     -60.368   7.488 -10.257  1.00 83.91     0.029 C 
ATOM     23  CG2 ILE D 645     -61.858   7.626  -9.956  1.00 71.96     0.012 C 
BRANCH  22  24
ATOM     24  CG1 ILE D 645     -60.108   6.930 -11.669  1.00 78.38     0.002 C 
ATOM     25  CD1 ILE D 645     -58.924   5.982 -11.761  1.00 60.94     0.005 C 
ENDBRANCH  22  24
ENDBRANCH  20  22
ENDBRANCH  18  20
ENDBRANCH  15  16
BRANCH  15  26
ATOM     26  CB  LEU D 646     -58.252  10.256  -5.891  1.00 77.70     0.038 C 
BRANCH  26  27
ATOM     27  CG  LEU D 646     -56.904  10.057  -5.191  1.00 75.60    -0.020 C 
ATOM     28  CD1 LEU D 646     -55.763   9.885  -6.186  1.00 71.06     0.009 C 
ATOM     29  CD2 LEU D 646     -56.636  11.223  -4.260  1.00 73.48     0.009 C 
ENDBRANCH  26  27
ENDBRANCH  15  26
ENDBRANCH  12  15
ENDBRANCH   6  11
ENDBRANCH   3   6
ENDBRANCH   1   2
BRANCH   1  30
ATOM     30  CB  THR D 648     -65.176  11.856  -6.176  1.00 65.76     0.146 C 
ATOM     31  CG2 THR D 648     -66.542  12.009  -6.847  1.00 59.42     0.042 C 
BRANCH  30  32
ATOM     32  OG1 THR D 648     -65.176  12.602  -4.951  1.00 66.48    -0.393 OA
ATOM     33  HG1 THR D 648     -64.563  13.176  -4.972  1.00 66.48     0.210 HD
ENDBRANCH  30  32
ENDBRANCH   1  30
BRANCH   1  34
ATOM     34  C   THR D 648     -64.892   9.479  -7.125  1.00 62.56     0.245 C 
ATOM     35  O   THR D 648     -63.936   9.454  -7.909  1.00 59.73    -0.271 OA
ATOM     36  N   PRO D 649     -65.992   8.712  -7.292  1.00 65.34    -0.337 N 
ATOM     37  CA  PRO D 649     -66.175   7.847  -8.467  1.00 70.60     0.179 C 
ATOM     38  CD  PRO D 649     -67.046   8.495  -6.278  1.00 66.58     0.127 C 
ATOM     39  CB  PRO D 649     -67.338   6.936  -8.056  1.00 67.49     0.037 C 
ATOM     40  CG  PRO D 649     -68.084   7.703  -7.016  1.00 65.73     0.022 C 
BRANCH  37  41
ATOM     41  C   PRO D 649     -66.537   8.599  -9.753  1.00 77.20     0.241 C 
ATOM     42  N   ARG D 650     -66.270   7.966 -10.895  1.00 83.37    -0.347 N 
ATOM     43  H   ARG D 650     -65.880   7.200 -10.930  1.00 83.37     0.163 HD
ATOM     44  O   PRO D 649     -67.056   9.720  -9.697  1.00 68.92    -0.271 OA
BRANCH  42  45
ATOM     45  CA  ARG D 650     -66.615   8.514 -12.206  1.00 76.40     0.162 C 
BRANCH  45  46
ATOM     46  C   ARG D 650     -67.866   7.857 -12.777  1.00 81.79     0.219 C 
ATOM     47  O   ARG D 650     -68.944   8.451 -12.777  1.00 80.18    -0.287 OA
ENDBRANCH  45  46
BRANCH  45  48
ATOM     48  CB  ARG D 650     -65.443   8.349 -13.171  1.00 77.84     0.035 C 
BRANCH  48  49
ATOM     49  CG  ARG D 650     -64.465   9.512 -13.140  1.00 87.31     0.023 C 
BRANCH  49  50
ATOM     50  CD  ARG D 650     -63.019   9.071 -13.323  1.00 89.00     0.138 C 
BRANCH  50  51
ATOM     51  NE  ARG D 650     -62.829   8.159 -14.451  1.00 88.84    -0.227 N 
ATOM     52  HE  ARG D 650     -63.521   7.749 -14.755  1.00 88.84     0.177 HD
ATOM     53  CZ  ARG D 650     -61.658   7.920 -15.040  1.00 89.69     0.665 C 
ATOM     54  NH2 ARG D 650     -60.555   8.536 -14.627  1.00 88.97    -0.235 N 
ATOM     55  NH1 ARG D 650     -61.590   7.067 -16.055  1.00 77.77    -0.235 N 
ATOM     56 HH22 ARG D 650     -59.803   8.376 -15.013  1.00 88.97     0.174 HD
ATOM     57 HH21 ARG D 650     -60.593   9.094 -13.974  1.00 88.97     0.174 HD
ATOM     58 HH11 ARG D 650     -62.301   6.670 -16.331  1.00 77.77     0.174 HD
ATOM     59 HH12 ARG D 650     -60.835   6.912 -16.436  1.00 77.77     0.174 HD
ENDBRANCH  50  51
ENDBRANCH  49  50
ENDBRANCH  48  49
ENDBRANCH  45  48
ENDBRANCH  42  45
ENDBRANCH  37  41
ENDBRANCH   1  34
TORSDOF 22
