REMARK WARNING: 32 MAX_TORS EXCEEDED!!!
REMARK  35 active torsions:
REMARK  status: ('A' for Active; 'I' for Inactive)
REMARK    1  A    between atoms: CA_2  and  C_3 
REMARK    2  A    between atoms: CA_2  and  CB_5 
REMARK       I    between atoms: C_3  and  N_9 
REMARK    3  A    between atoms: CB_5  and  OG1_6 
REMARK    4  A    between atoms: N_9  and  CA_10 
REMARK    5  A    between atoms: CA_10  and  CB_13 
REMARK    6  A    between atoms: CA_10  and  C_11 
REMARK       I    between atoms: C_11  and  N_18 
REMARK    7  A    between atoms: CB_13  and  OG1_14 
REMARK    8  A    between atoms: N_18  and  CA_19 
REMARK    9  A    between atoms: CA_19  and  C_20 
REMARK   10  A    between atoms: CA_19  and  CB_22 
REMARK       I    between atoms: C_20  and  N_30 
REMARK   11  A    between atoms: CB_22  and  CG_23 
REMARK   12  A    between atoms: CG_23  and  CD_24 
REMARK       I    between atoms: CD_24  and  NE2_26 
REMARK   13  A    between atoms: N_30  and  CA_31 
REMARK   14  A    between atoms: CA_31  and  C_32 
REMARK   15  A    between atoms: CA_31  and  CB_34 
REMARK       I    between atoms: C_32  and  N_47 
REMARK   16  A    between atoms: CB_34  and  CG_35 
REMARK   17  A    between atoms: CG_35  and  CD_36 
REMARK   18  A    between atoms: CD_36  and  NE_37 
REMARK       I    between atoms: NE_37  and  CZ_38 
REMARK       I    between atoms: CZ_38  and  NH2_40 
REMARK       I    between atoms: CZ_38  and  NH1_39 
REMARK   19  A    between atoms: N_47  and  CA_48 
REMARK   20  A    between atoms: CA_48  and  CB_51 
REMARK   21  A    between atoms: CA_48  and  C_49 
REMARK       I    between atoms: C_49  and  N_60 
REMARK   22  A    between atoms: CB_51  and  CG_52 
REMARK   23  A    between atoms: CG_52  and  CD_53 
REMARK   24  A    between atoms: CD_53  and  CE_54 
REMARK   25  A    between atoms: CE_54  and  NZ_55 
REMARK   26  A    between atoms: N_60  and  CA_61 
REMARK   27  A    between atoms: CA_61  and  C_62 
REMARK   28  A    between atoms: CA_61  and  CB_64 
REMARK       I    between atoms: C_62  and  N_77 
REMARK   29  A    between atoms: CB_64  and  CG_65 
REMARK   30  A    between atoms: CG_65  and  CD_66 
REMARK   31  A    between atoms: CD_66  and  NE_67 
REMARK       I    between atoms: NE_67  and  CZ_68 
REMARK       I    between atoms: CZ_68  and  NH1_69 
REMARK   32  A    between atoms: N_77  and  CA_78 
REMARK   33  A    between atoms: CA_78  and  C_79 
REMARK   34  A    between atoms: CA_78  and  CB_81 
REMARK   35  A    between atoms: CB_81  and  OG_82 
ROOT
ATOM      1  CA  ARG F 167      -2.292  19.811  39.272  1.00 38.85     0.176 C 
ENDROOT
BRANCH   1   2
ATOM      2  C   ARG F 167      -2.910  18.506  39.742  1.00 41.97     0.241 C 
ATOM      3  N   LYS F 168      -4.048  18.618  40.429  1.00 42.42    -0.346 N 
ATOM      4  H   LYS F 168      -4.396  19.362  40.684  1.00 42.42     0.163 HD
ATOM      5  O   ARG F 167      -2.367  17.424  39.502  1.00 34.60    -0.271 OA
BRANCH   3   6
ATOM      6  CA  LYS F 168      -4.797  17.425  40.800  1.00 39.35     0.176 C 
BRANCH   6   7
ATOM      7  CB  LYS F 168      -6.103  17.798  41.505  1.00 43.51     0.035 C 
BRANCH   7   8
ATOM      8  CG  LYS F 168      -5.918  18.562  42.802  1.00 39.69     0.004 C 
BRANCH   8   9
ATOM      9  CD  LYS F 168      -7.247  18.841  43.500  1.00 48.24     0.027 C 
BRANCH   9  10
ATOM     10  CE  LYS F 168      -7.830  17.580  44.142  1.00 54.37     0.229 C 
BRANCH  10  11
ATOM     11  NZ  LYS F 168      -8.586  16.711  43.184  1.00 52.23    -0.079 N 
ATOM     12  HZ3 LYS F 168      -8.051  16.067  42.881  1.00 52.23     0.274 HD
ATOM     13  HZ1 LYS F 168      -9.283  16.346  43.600  1.00 52.23     0.274 HD
ATOM     14  HZ2 LYS F 168      -8.874  17.203  42.500  1.00 52.23     0.274 HD
ENDBRANCH  10  11
ENDBRANCH   9  10
ENDBRANCH   8   9
ENDBRANCH   7   8
ENDBRANCH   6   7
BRANCH   6  15
ATOM     15  C   LYS F 168      -5.087  16.593  39.556  1.00 30.99     0.241 C 
ATOM     16  O   LYS F 168      -5.422  17.129  38.494  1.00 32.09    -0.271 OA
ATOM     17  N   ARG F 169      -4.919  15.279  39.679  1.00 23.74    -0.346 N 
ATOM     18  H   ARG F 169      -4.648  14.885  40.394  1.00 23.74     0.163 HD
BRANCH  17  19
ATOM     19  CA  ARG F 169      -5.199  14.397  38.556  1.00 28.77     0.176 C 
BRANCH  19  20
ATOM     20  C   ARG F 169      -6.655  14.546  38.126  1.00 37.10     0.241 C 
ATOM     21  N   SER F 170      -6.894  14.308  36.838  1.00 32.48    -0.345 N 
ATOM     22  H   SER F 170      -6.314  13.963  36.305  1.00 32.48     0.163 HD
ATOM     23  O   ARG F 169      -7.533  14.898  38.926  1.00 33.53    -0.271 OA
BRANCH  21  24
ATOM     24  CA  SER F 170      -8.176  14.613  36.201  1.00 32.11     0.186 C 
BRANCH  24  25
ATOM     25  C   SER F 170      -9.236  13.533  36.452  1.00 36.47     0.221 C 
ATOM     26  O   SER F 170      -8.920  12.416  36.863  1.00 35.83    -0.287 OA
ENDBRANCH  24  25
BRANCH  24  27
ATOM     27  CB  SER F 170      -7.970  14.808  34.695  1.00 36.26     0.197 C 
BRANCH  27  28
ATOM     28  OG  SER F 170      -6.924  15.740  34.446  1.00 19.66    -0.398 OA
ATOM     29  HG  SER F 170      -7.226  16.391  34.010  1.00 19.66     0.209 HD
ENDBRANCH  27  28
ENDBRANCH  24  27
ENDBRANCH  21  24
ENDBRANCH  19  20
BRANCH  19  30
ATOM     30  CB  ARG F 169      -4.868  12.941  38.911  1.00 32.99     0.036 C 
BRANCH  30  31
ATOM     31  CG  ARG F 169      -5.909  12.173  39.710  1.00 34.51     0.023 C 
BRANCH  31  32
ATOM     32  CD  ARG F 169      -5.541  10.677  39.713  1.00 39.71     0.138 C 
BRANCH  32  33
ATOM     33  NE  ARG F 169      -4.113  10.502  39.972  1.00 37.23    -0.227 N 
ATOM     34  CZ  ARG F 169      -3.327   9.594  39.396  1.00 33.71     0.665 C 
ATOM     35  NH2 ARG F 169      -2.043   9.559  39.730  1.00 35.73    -0.235 N 
ATOM     36  NH1 ARG F 169      -3.810   8.729  38.497  1.00 22.18    -0.235 N 
ATOM     37 HH22 ARG F 169      -1.520   8.980  39.368  1.00 35.73     0.174 HD
ATOM     38 HH21 ARG F 169      -1.734  10.116  40.308  1.00 35.73     0.174 HD
ATOM     39 HH11 ARG F 169      -4.642   8.753  38.281  1.00 22.18     0.174 HD
ATOM     40 HH12 ARG F 169      -3.288   8.149  38.135  1.00 22.18     0.174 HD
ATOM     41  HE  ARG F 169      -3.749  11.030  40.545  1.00 37.23     0.177 HD
ENDBRANCH  32  33
ENDBRANCH  31  32
ENDBRANCH  30  31
ENDBRANCH  19  30
ENDBRANCH  17  19
ENDBRANCH   6  15
ENDBRANCH   3   6
ENDBRANCH   1   2
BRANCH   1  42
ATOM     42  CB  ARG F 167      -2.989  20.289  37.992  1.00 34.27     0.036 C 
BRANCH  42  43
ATOM     43  CG  ARG F 167      -2.411  21.577  37.441  1.00 36.76     0.023 C 
BRANCH  43  44
ATOM     44  CD  ARG F 167      -3.509  22.548  37.107  1.00 47.53     0.138 C 
BRANCH  44  45
ATOM     45  NE  ARG F 167      -4.451  21.969  36.159  1.00 46.15    -0.227 N 
ATOM     46  HE  ARG F 167      -5.097  21.492  36.466  1.00 46.15     0.177 HD
ATOM     47  CZ  ARG F 167      -4.363  22.140  34.847  1.00 54.25     0.665 C 
ATOM     48  NH2 ARG F 167      -5.260  21.587  34.036  1.00 44.38    -0.235 N 
ATOM     49  NH1 ARG F 167      -3.366  22.867  34.352  1.00 45.80    -0.235 N 
ATOM     50 HH21 ARG F 167      -5.901  21.116  34.362  1.00 44.38     0.174 HD
ATOM     51 HH22 ARG F 167      -5.199  21.701  33.186  1.00 44.38     0.174 HD
ATOM     52 HH12 ARG F 167      -3.300  22.984  33.503  1.00 45.80     0.174 HD
ATOM     53 HH11 ARG F 167      -2.787  23.220  34.881  1.00 45.80     0.174 HD
ENDBRANCH  44  45
ENDBRANCH  43  44
ENDBRANCH  42  43
ENDBRANCH   1  42
BRANCH   1  54
ATOM     54  N   ARG F 167      -0.867  19.602  39.067  1.00 32.00    -0.346 N 
ATOM     55  H   ARG F 167      -0.675  18.853  38.690  1.00 32.00     0.163 HD
ATOM     56  C   GLN F 166       0.051  20.495  39.433  1.00 42.00     0.241 C 
ATOM     57  O   GLN F 166      -0.223  21.608  39.894  1.00 37.97    -0.271 OA
BRANCH  56  58
ATOM     58  CA  GLN F 166       1.493  20.062  39.234  1.00 41.36     0.177 C 
BRANCH  58  59
ATOM     59  CB  GLN F 166       1.972  19.316  40.485  1.00 34.92     0.044 C 
BRANCH  59  60
ATOM     60  CG  GLN F 166       3.219  18.489  40.297  1.00 32.73     0.105 C 
BRANCH  60  61
ATOM     61  CD  GLN F 166       3.555  17.686  41.539  1.00 43.28     0.215 C 
ATOM     62  NE2 GLN F 166       4.065  16.474  41.344  1.00 36.91    -0.370 N 
ATOM     63 1HE2 GLN F 166       4.191  16.184  40.544  1.00 36.91     0.159 HD
ATOM     64 2HE2 GLN F 166       4.269  15.980  42.018  1.00 36.91     0.159 HD
ATOM     65  OE1 GLN F 166       3.354  18.151  42.665  1.00 42.55    -0.274 OA
ENDBRANCH  60  61
ENDBRANCH  59  60
ENDBRANCH  58  59
BRANCH  58  66
ATOM     66  N   GLN F 166       2.304  21.235  38.943  1.00 35.11    -0.346 N 
ATOM     67  C   THR F 165       3.314  21.203  38.079  1.00 35.16     0.243 C 
ATOM     68  O   THR F 165       3.676  20.158  37.523  1.00 30.91    -0.271 OA
ATOM     69  H   GLN F 166       2.071  21.940  39.377  1.00 35.11     0.163 HD
BRANCH  67  70
ATOM     70  CA  THR F 165       4.040  22.507  37.777  1.00 44.00     0.205 C 
BRANCH  70  71
ATOM     71  CB  THR F 165       5.555  22.275  37.790  1.00 46.85     0.146 C 
ATOM     72  CG2 THR F 165       6.267  23.354  36.972  1.00 37.95     0.042 C 
BRANCH  71  73
ATOM     73  OG1 THR F 165       6.030  22.284  39.143  1.00 45.14    -0.393 OA
ATOM     74  HG1 THR F 165       6.860  22.155  39.150  1.00 45.14     0.210 HD
ENDBRANCH  71  73
ENDBRANCH  70  71
BRANCH  70  75
ATOM     75  N   THR F 165       3.677  23.571  38.706  1.00 38.01    -0.343 N 
ATOM     76  H   THR F 165       3.867  23.401  39.527  1.00 38.01     0.163 HD
ATOM     77  C   THR F 164       3.101  24.703  38.299  1.00 57.69     0.260 C 
ATOM     78  O   THR F 164       2.836  24.931  37.114  1.00 49.67    -0.271 OA
BRANCH  77  79
ATOM     79  CA  THR F 164       2.772  25.726  39.391  1.00 56.73     0.427 C 
ATOM     80  N   THR F 164       2.678  25.079  40.697  1.00 65.32     0.618 N 
BRANCH  79  81
ATOM     81  CB  THR F 164       3.837  26.855  39.389  1.00 58.05     0.162 C 
ATOM     82  CG2 THR F 164       3.661  27.753  40.612  1.00 51.52     0.042 C 
BRANCH  81  83
ATOM     83  OG1 THR F 164       5.155  26.289  39.402  1.00 58.15    -0.393 OA
ATOM     84  HG1 THR F 164       5.725  26.906  39.399  1.00 58.15     0.210 HD
ENDBRANCH  81  83
ENDBRANCH  79  81
ENDBRANCH  77  79
ENDBRANCH  70  75
ENDBRANCH  67  70
ENDBRANCH  58  66
ENDBRANCH  56  58
ENDBRANCH   1  54
TORSDOF 35
