USER: ADFR SOLUTION from run 0
USER: SCORE 10.356426 LL:  -1.804 LR:  -8.859 RR:   0.000 FEB:  -5.279
USER: RMSD 1.836505
USER: STATUS Locally minimized using BFGS
USER: GENES 14
USER: genes 0 Translation |==|  0.50175 0.54803 0.61004
USER: genes 1 Rotation |==|  0.40425 0.58597 0.40485 0.97370
USER: genes 2 Torsion [C]-CA--N-[C] |==|  0.60000
USER: genes 3 Torsion [N]-C--CA-[N] |==|  0.39910
USER: genes 4 Torsion [C]-CA--CB-[CG] |==|  0.92144
USER: genes 5 Torsion [CA]-CB--CG-[CD] |==|  0.54155
USER: genes 6 Torsion [CB]-CG--CD-[OE1] |==|  0.08344
USER: genes 7 Torsion [N]-CA--C-[N] |==|  0.34411
USER: genes 8 Torsion [C]-N--CA-[CB] |==|  0.47768
USER: genes 9 Torsion [N]-CA--CB-[CG] |==|  0.76598
USER: genes 10 Torsion [CA]-CB--CG-[CD1] |==|  0.32604
USER: genes 11 Torsion [N]-CA--C-[O] |==|  0.42661
USER: genes 12 Torsion [N]-CA--CB-[CG] |==|  0.96120
USER: genes 13 Torsion [CA]-CB--CG-[OD2] |==|  0.26373
ROOT
ATOM      1  CA  ASP C 507       9.254  25.956   6.586  1.00 33.68 LIG 0.19  C 
ENDROOT
BRANCH 1 2
ATOM      2  N   ASP C 507       7.829  26.244   6.685  1.00 35.05 LIG-0.34  N 
ATOM      3  C   GLU C 506       7.290  27.338   6.160  1.00 36.98 LIG 0.26  C 
ATOM      4 O    GLU C 506       7.954  28.211   5.591  1.00 35.33 LIG-0.27  OA
ATOM      5 H    ASP C 507       7.379  25.647   7.109  1.00 35.05 LIG 0.16  HD
BRANCH 3 6
ATOM      6  CA  GLU C 506       5.783  27.496   6.353  1.00 38.62 LIG 0.40  C 
ATOM      7  N   GLU C 506       5.436  28.927   6.563  1.00 38.98 LIG 0.61  N 
BRANCH 6 8
ATOM      8  CB  GLU C 506       5.016  26.926   5.157  1.00 41.41 LIG 0.06  C 
BRANCH 8 9
ATOM      9  CG  GLU C 506       5.785  26.974   3.852  1.00 54.63 LIG 0.12  C 
BRANCH 9 10
ATOM     10  CD  GLU C 506       4.908  26.751   2.636  1.00 71.07 LIG 0.17  C 
ATOM     11 OE1  GLU C 506       3.709  27.111   2.685  1.00 74.77 LIG-0.65  OA
ATOM     12 OE2  GLU C 506       5.427  26.226   1.625  1.00 73.38 LIG-0.65  OA
ENDBRANCH 9 10
ENDBRANCH 8 9
ENDBRANCH 6 8
ENDBRANCH 3 6
ENDBRANCH 1 2
BRANCH 1 13
ATOM     13  C   ASP C 507       9.442  24.459   6.422  1.00 33.47 LIG 0.24  C 
ATOM     14 O    ASP C 507       8.940  23.668   7.225  1.00 34.83 LIG-0.27  OA
ATOM     15  N   LEU C 508      10.128  24.081   5.347  1.00 31.65 LIG-0.34  N 
ATOM     16 H    LEU C 508      10.470  24.632   4.782  1.00 31.65 LIG 0.16  HD
BRANCH 15 17
ATOM     17  CA  LEU C 508      10.364  22.681   5.030  1.00 32.20 LIG 0.18  C 
BRANCH 17 18
ATOM     18  CB  LEU C 508      10.997  22.580   3.650  1.00 32.28 LIG 0.04  C 
BRANCH 18 19
ATOM     19  CG  LEU C 508       9.903  22.606   2.588  1.00 33.09 LIG-0.02  C 
ATOM     20  CD1 LEU C 508      10.058  23.809   1.709  1.00 32.61 LIG 0.01  C 
ATOM     21  CD2 LEU C 508       9.919  21.301   1.805  1.00 34.13 LIG 0.01  C 
ENDBRANCH 18 19
ENDBRANCH 17 18
BRANCH 17 22
ATOM     22  C   LEU C 508      11.231  21.975   6.057  1.00 33.63 LIG 0.20  C 
ATOM     23 O    LEU C 508      11.099  20.740   6.189  0.50 32.81 LIG-0.65  OA
ATOM     24 OXT  LEU C 508      12.033  22.665   6.720  0.50 35.17 LIG-0.65  OA
ENDBRANCH 17 22
ENDBRANCH 15 17
ENDBRANCH 1 13
BRANCH 1 25
ATOM     25  CB  ASP C 507       9.973  26.477   7.829  1.00 31.02 LIG 0.15  C 
BRANCH 25 26
ATOM     26  CG  ASP C 507       9.104  27.421   8.633  1.00 34.22 LIG 0.17  C 
ATOM     27 OD2  ASP C 507       8.438  26.974   9.595  1.00 32.29 LIG-0.65  OA
ATOM     28 OD1  ASP C 507       9.055  28.611   8.270  1.00 33.73 LIG-0.65  OA
ENDBRANCH 25 26
ENDBRANCH 1 25
TORSDOF 12
