USER: ADFR SOLUTION from run 0
USER: SCORE 19.001565 LL:  -2.593 LR: -19.502 RR:   0.000 FEB: -14.431
USER: RMSD 0.153038
USER: STATUS Locally minimized using BFGS
USER: GENES 19
USER: genes 0 Translation |==|  0.55674 0.50695 0.58581
USER: genes 1 Rotation |==|  0.49673 0.50348 0.50019 0.99998
USER: genes 2 Torsion [C]-N--CA-[CB] |==|  0.25504
USER: genes 3 Torsion [N]-CA--C-[N] |==|  0.41667
USER: genes 4 Torsion [C]-N--CA-[C] |==|  0.58777
USER: genes 5 Torsion [N]-CA--C-[N] |==|  0.41629
USER: genes 6 Torsion [C]-N--CA-[CB] |==|  0.28900
USER: genes 7 Torsion [N]-CA--CB-[OG] |==|  0.49131
USER: genes 8 Torsion [CA]-CB--OG-[HG] |==|  0.72395
USER: genes 9 Torsion [N]-CA--C-[N] |==|  0.35623
USER: genes 10 Torsion [N]-CA--CB-[OG] |==|  0.78721
USER: genes 11 Torsion [CA]-CB--OG-[HG] |==|  0.29562
USER: genes 12 Torsion [N]-C--CA-[N] |==|  0.35432
USER: genes 13 Torsion [C]-CA--CB-[CG1] |==|  0.18412
USER: genes 14 Torsion [C]-CA--N-[C] |==|  0.64642
USER: genes 15 Torsion [N]-C--CA-[N] |==|  0.37192
USER: genes 16 Torsion [C]-CA--CB-[CG2] |==|  0.14702
USER: genes 17 Torsion [CA]-CB--OG1-[HG1] |==|  0.42490
USER: genes 18 Torsion [C]-CA--N-[C] |==|  0.58533
ROOT
ATOM      1  C   VAL B 902      17.200  18.355  30.735  1.00 24.89 LIG 0.24  C 
ATOM      2 O    VAL B 902      17.949  17.373  30.663  1.00 25.21 LIG-0.27  OA
ATOM      3  N   ALA B 903      16.657  18.922  29.662  1.00 23.62 LIG-0.35  N 
ATOM      4 H    ALA B 903      16.115  19.589  29.689  1.00 23.62 LIG 0.16  HD
ENDROOT
BRANCH 3 5
ATOM      5  CA  ALA B 903      16.958  18.432  28.320  1.00 23.36 LIG 0.17  C 
ATOM      6  CB  ALA B 903      15.933  17.384  27.899  1.00 21.10 LIG 0.04  C 
BRANCH 5 7
ATOM      7  C   ALA B 903      17.003  19.557  27.304  1.00 23.23 LIG 0.24  C 
ATOM      8  N   SER B 904      17.821  19.373  26.276  1.00 24.88 LIG-0.34  N 
ATOM      9 H    SER B 904      18.305  18.669  26.174  1.00 24.88 LIG 0.16  HD
ATOM     10 O    ALA B 903      16.321  20.566  27.451  1.00 23.91 LIG-0.27  OA
BRANCH 8 11
ATOM     11  CA  SER B 904      17.978  20.358  25.213  1.00 25.49 LIG 0.20  C 
BRANCH 11 12
ATOM     12  C   SER B 904      18.283  19.659  23.915  1.00 23.47 LIG 0.24  C 
ATOM     13 O    SER B 904      18.915  18.604  23.900  1.00 24.04 LIG-0.27  OA
ATOM     14  N   SER B 905      17.850  20.280  22.828  1.00 22.08 LIG-0.34  N 
ATOM     15 H    SER B 905      17.417  21.023  22.849  1.00 22.08 LIG 0.16  HD
BRANCH 14 16
ATOM     16  CA  SER B 905      18.067  19.767  21.487  1.00 21.44 LIG 0.20  C 
BRANCH 16 17
ATOM     17  CB  SER B 905      16.778  19.155  20.950  1.00 20.37 LIG 0.20  C 
BRANCH 17 18
ATOM     18 OG   SER B 905      16.968  18.721  19.621  1.00 31.40 LIG-0.40  OA
ATOM     19 HG   SER B 905      16.659  19.295  19.091  1.00 31.40 LIG 0.21  HD
ENDBRANCH 17 18
ENDBRANCH 16 17
BRANCH 16 20
ATOM     20  C   SER B 905      18.504  20.919  20.590  1.00 23.32 LIG 0.29  C 
ATOM     21 O    SER B 905      18.048  22.057  20.846  1.00 21.70 LIG-0.27  OA
ATOM     22  N   NH2 B 906      19.586  20.870  19.829  1.00 25.92 LIG-0.11  N 
ENDBRANCH 16 20
ENDBRANCH 14 16
ENDBRANCH 11 12
BRANCH 11 23
ATOM     23  CB  SER B 904      19.124  21.328  25.513  1.00 30.40 LIG 0.20  C 
BRANCH 23 24
ATOM     24 OG   SER B 904      18.749  22.290  26.479  1.00 44.87 LIG-0.40  OA
ATOM     25 HG   SER B 904      19.122  22.114  27.210  1.00 44.87 LIG 0.21  HD
ENDBRANCH 23 24
ENDBRANCH 11 23
ENDBRANCH 8 11
ENDBRANCH 5 7
ENDBRANCH 3 5
BRANCH 1 26
ATOM     26  CA  VAL B 902      16.804  18.934  32.098  1.00 24.94 LIG 0.18  C 
BRANCH 26 27
ATOM     27  CB  VAL B 902      18.025  19.642  32.744  1.00 27.11 LIG 0.01  C 
ATOM     28  CG1 VAL B 902      18.408  20.864  31.926  1.00 30.95 LIG 0.01  C 
ATOM     29  CG2 VAL B 902      17.708  20.055  34.173  1.00 30.50 LIG 0.01  C 
ENDBRANCH 26 27
BRANCH 26 30
ATOM     30  N   VAL B 902      16.357  17.782  32.869  1.00 21.31 LIG-0.35  N 
ATOM     31  C   THR B 901      15.181  17.754  33.478  1.00 21.82 LIG 0.24  C 
ATOM     32 O    THR B 901      14.421  18.721  33.514  1.00 23.34 LIG-0.27  OA
ATOM     33 H    VAL B 902      16.920  17.132  32.890  1.00 21.31 LIG 0.16  HD
BRANCH 31 34
ATOM     34  CA  THR B 901      14.837  16.449  34.190  1.00 22.53 LIG 0.20  C 
BRANCH 34 35
ATOM     35  CB  THR B 901      13.827  15.663  33.302  1.00 20.33 LIG 0.15  C 
ATOM     36  CG2 THR B 901      14.352  15.497  31.878  1.00 17.30 LIG 0.04  C 
BRANCH 35 37
ATOM     37 OG1  THR B 901      13.595  14.368  33.866  1.00 21.41 LIG-0.39  OA
ATOM     38 HG1  THR B 901      12.832  14.098  33.643  1.00 21.41 LIG 0.21  HD
ENDBRANCH 35 37
ENDBRANCH 34 35
BRANCH 34 39
ATOM     39  N   THR B 901      14.306  16.680  35.530  1.00 24.74 LIG-0.35  N 
ATOM     40 H    THR B 901      13.870  17.416  35.618  1.00 24.74 LIG 0.16  HD
ATOM     41  C   ACE B 900      14.492  15.809  36.517  1.00 23.90 LIG 0.21  C 
ATOM     42  CH3 ACE B 900      13.883  16.181  37.855  1.00 24.26 LIG 0.12  C 
ATOM     43 O    ACE B 900      15.122  14.759  36.377  1.00 24.84 LIG-0.27  OA
ENDBRANCH 34 39
ENDBRANCH 31 34
ENDBRANCH 26 30
ENDBRANCH 1 26
TORSDOF 17
