REMARK  14 active torsions:
REMARK  status: ('A' for Active; 'I' for Inactive)
REMARK    1  A    between atoms: CA_2  and  C_3 
REMARK    2  A    between atoms: CA_2  and  CB_5 
REMARK       I    between atoms: C_3  and  N_11 
REMARK    3  A    between atoms: CB_5  and  CG_6 
REMARK    4  A    between atoms: N_11  and  CA_12 
REMARK    5  A    between atoms: CA_12  and  C_13 
REMARK       I    between atoms: C_13  and  N_17 
REMARK    6  A    between atoms: N_17  and  CA_18 
REMARK    7  A    between atoms: CA_18  and  C_19 
REMARK       I    between atoms: C_19  and  N_22 
REMARK    8  A    between atoms: CA_23  and  C_24 
REMARK       I    between atoms: C_24  and  N_29 
REMARK    9  A    between atoms: N_29  and  CA_30 
REMARK   10  A    between atoms: CA_30  and  CB_33 
REMARK   11  A    between atoms: CA_30  and  C_31 
REMARK       I    between atoms: C_31  and  N_38 
REMARK   12  A    between atoms: CB_33  and  CG1_34 
REMARK   13  A    between atoms: N_38  and  CA_39 
REMARK   14  A    between atoms: CA_39  and  C_40 
ROOT
ATOM      1  C   GLY J 103      56.347  56.353 -10.962  1.00 12.08     0.238 C 
ATOM      2  O   GLY J 103      56.359  56.505 -12.224  1.00  8.68    -0.272 OA
ATOM      3  N   PRO J 104      57.350  56.784 -10.182  1.00 11.63    -0.337 N 
ATOM      4  CA  PRO J 104      58.488  57.558 -10.692  1.00 13.37     0.179 C 
ATOM      5  CB  PRO J 104      59.152  58.039  -9.397  1.00 10.19     0.037 C 
ATOM      6  CG  PRO J 104      59.001  56.816  -8.503  1.00 11.82     0.022 C 
ATOM      7  CD  PRO J 104      57.529  56.446  -8.757  1.00  8.53     0.127 C 
ENDROOT
BRANCH   1   8
ATOM      8  CA  GLY J 103      55.272  55.580 -10.221  1.00  6.72     0.225 C 
BRANCH   8   9
ATOM      9  N   GLY J 103      53.922  55.686 -10.717  1.00  9.69    -0.351 N 
ATOM     10  C   ALA J 102      53.267  54.623 -11.162  1.00  5.22     0.240 C 
ATOM     11  O   ALA J 102      53.758  53.498 -11.182  1.00 12.11    -0.271 OA
ATOM     12  H   GLY J 103      53.595  56.481 -10.696  1.00  9.69     0.163 HD
BRANCH  10  13
ATOM     13  CA  ALA J 102      51.828  54.880 -11.640  1.00  8.22     0.172 C 
ATOM     14  CB  ALA J 102      50.939  55.291 -10.445  1.00 14.95     0.042 C 
BRANCH  13  15
ATOM     15  N   ALA J 102      51.205  53.773 -12.334  1.00  4.21    -0.346 N 
ATOM     16  C   HIS J 101      51.031  53.744 -13.655  1.00  9.96     0.257 C 
ATOM     17  O   HIS J 101      51.384  54.669 -14.405  1.00  8.34    -0.271 OA
ATOM     18  H   ALA J 102      50.957  53.135 -11.813  1.00  4.21     0.163 HD
BRANCH  16  19
ATOM     19  CA  HIS J 101      50.333  52.468 -14.200  1.00  9.34     0.405 C 
ATOM     20  N   HIS J 101      49.061  52.723 -14.957  1.00 12.44     0.615 N 
BRANCH  19  21
ATOM     21  CB  HIS J 101      51.312  51.647 -15.043  1.00 10.29     0.112 C 
BRANCH  21  22
ATOM     22  CG  HIS J 101      51.920  50.504 -14.303  1.00 11.59     0.056 A 
ATOM     23  CD2 HIS J 101      52.716  50.471 -13.211  1.00 10.25     0.145 A 
ATOM     24  NE2 HIS J 101      52.932  49.151 -12.904  1.00 11.46    -0.252 NA
ATOM     25  CE1 HIS J 101      52.300  48.395 -13.781  1.00 15.99     0.232 A 
ATOM     26  ND1 HIS J 101      51.683  49.188 -14.641  1.00 17.50    -0.245 NA
ENDBRANCH  21  22
ENDBRANCH  19  21
ENDBRANCH  16  19
ENDBRANCH  13  15
ENDBRANCH  10  13
ENDBRANCH   8   9
ENDBRANCH   1   8
BRANCH   4  27
ATOM     27  C   PRO J 104      59.466  56.734 -11.554  1.00  7.89     0.241 C 
ATOM     28  O   PRO J 104      59.478  55.499 -11.505  1.00  6.40    -0.271 OA
ATOM     29  N   ILE J 105      60.260  57.421 -12.378  1.00 10.49    -0.346 N 
ATOM     30  H   ILE J 105      60.238  58.273 -12.492  1.00 10.49     0.163 HD
BRANCH  29  31
ATOM     31  CA  ILE J 105      61.259  56.706 -13.166  1.00  9.44     0.180 C 
BRANCH  31  32
ATOM     32  CB  ILE J 105      60.970  56.704 -14.663  1.00  9.59     0.013 C 
ATOM     33  CG2 ILE J 105      59.938  55.677 -14.953  1.00  7.65     0.012 C 
BRANCH  32  34
ATOM     34  CG1 ILE J 105      60.551  58.075 -15.165  1.00  8.07     0.002 C 
ATOM     35  CD1 ILE J 105      60.281  58.068 -16.623  1.00 10.10     0.005 C 
ENDBRANCH  32  34
ENDBRANCH  31  32
BRANCH  31  36
ATOM     36  C   ILE J 105      62.691  57.135 -12.882  1.00 12.77     0.241 C 
ATOM     37  N   ALA J 106      63.625  56.392 -13.481  1.00 12.70    -0.345 N 
ATOM     38  H   ALA J 106      63.408  55.722 -13.975  1.00 12.70     0.163 HD
ATOM     39  O   ILE J 105      62.917  58.049 -12.094  1.00 10.65    -0.271 OA
BRANCH  37  40
ATOM     40  CA  ALA J 106      65.064  56.565 -13.414  1.00 16.79     0.181 C 
ATOM     41  CB  ALA J 106      65.467  58.047 -13.328  1.00 18.33     0.043 C 
BRANCH  40  42
ATOM     42  C   ALA J 106      65.731  55.729 -12.337  1.00 17.57     0.196 C 
ATOM     43  O   ALA J 106      65.849  54.505 -12.585  1.00 21.44    -0.646 OA
ATOM     44  OXT ALA J 106      66.156  56.286 -11.297  1.00 20.61    -0.646 OA
ENDBRANCH  40  42
ENDBRANCH  37  40
ENDBRANCH  31  36
ENDBRANCH  29  31
ENDBRANCH   4  27
TORSDOF 14
