USER: ADFR SOLUTION from run 0
USER: SCORE 13.127673 LL:  -2.706 LR: -11.231 RR:   0.000 FEB:  -7.055
USER: RMSD 0.698728
USER: STATUS Locally minimized using BFGS
USER: GENES 16
USER: genes 0 Translation |==|  0.45629 0.67832 0.62556
USER: genes 1 Rotation |==|  0.54102 0.51029 0.48425 0.99796
USER: genes 2 Torsion [N]-C--CA-[N] |==|  0.41978
USER: genes 3 Torsion [C]-CA--N-[C] |==|  0.35441
USER: genes 4 Torsion [N]-C--CA-[N] |==|  0.48333
USER: genes 5 Torsion [C]-CA--N-[C] |==|  0.71289
USER: genes 6 Torsion [N]-C--CA-[N] |==|  0.32083
USER: genes 7 Torsion [C]-CA--CB-[CG] |==|  0.27478
USER: genes 8 Torsion [CA]-CB--CG-[ND1] |==|  0.29785
USER: genes 9 Torsion [N]-CA--C-[O] |==|  0.93958
USER: genes 10 Torsion [C]-N--CA-[C] |==|  0.67121
USER: genes 11 Torsion [N]-CA--CB-[CG1] |==|  0.12627
USER: genes 12 Torsion [CA]-CB--CG1-[CD1] |==|  0.49762
USER: genes 13 Torsion [N]-CA--C-[N] |==|  0.45566
USER: genes 14 Torsion [C]-N--CA-[CB] |==|  0.86828
USER: genes 15 Torsion [N]-CA--C-[O] |==|  0.18914
ROOT
ATOM      1  C   GLY J 103      56.494  56.544 -10.491  1.00 12.08 LIG 0.24  C 
ATOM      2 O    GLY J 103      56.471  56.901 -11.711  1.00  8.68 LIG-0.27  OA
ATOM      3  N   PRO J 104      57.551  56.780  -9.699  1.00 11.63 LIG-0.34  N 
ATOM      4  CA  PRO J 104      58.719  57.559 -10.129  1.00 13.37 LIG 0.18  C 
ATOM      5  CB  PRO J 104      59.459  57.780  -8.805  1.00 10.19 LIG 0.04  C 
ATOM      6  CG  PRO J 104      59.259  56.437  -8.115  1.00 11.82 LIG 0.02  C 
ATOM      7  CD  PRO J 104      57.758  56.202  -8.357  1.00  8.53 LIG 0.13  C 
ENDROOT
BRANCH 1 8
ATOM      8  CA  GLY J 103      55.398  55.725  -9.837  1.00  6.72 LIG 0.23  C 
BRANCH 8 9
ATOM      9  N   GLY J 103      54.048  55.944 -10.294  1.00  9.69 LIG-0.35  N 
ATOM     10  C   ALA J 102      53.281  54.935 -10.685  1.00  5.22 LIG 0.24  C 
ATOM     11 O    ALA J 102      53.664  53.769 -10.685  1.00 12.11 LIG-0.27  OA
ATOM     12 H    GLY J 103      53.797  56.766 -10.287  1.00  9.69 LIG 0.16  HD
BRANCH 10 13
ATOM     13  CA  ALA J 102      51.857  55.313 -11.126  1.00  8.22 LIG 0.17  C 
ATOM     14  CB  ALA J 102      51.086  55.939  -9.942  1.00 14.95 LIG 0.04  C 
BRANCH 13 15
ATOM     15  N   ALA J 102      51.077  54.227 -11.678  1.00  4.21 LIG-0.35  N 
ATOM     16  C   HIS J 101      50.855  54.076 -12.983  1.00  9.96 LIG 0.26  C 
ATOM     17 O    HIS J 101      51.295  54.861 -13.840  1.00  8.34 LIG-0.27  OA
ATOM     18 H    ALA J 102      50.769  53.686 -11.084  1.00  4.21 LIG 0.16  HD
BRANCH 16 19
ATOM     19  CA  HIS J 101      49.984  52.849 -13.367  1.00  9.34 LIG 0.41  C 
ATOM     20  N   HIS J 101      48.663  53.188 -13.996  1.00 12.44 LIG 0.61  N 
BRANCH 19 21
ATOM     21  CB  HIS J 101      50.780  51.891 -14.257  1.00 10.29 LIG 0.11  C 
BRANCH 21 22
ATOM     22  CG  HIS J 101      51.361  50.735 -13.515  1.00 11.59 LIG 0.06  A 
ATOM     23  CD2 HIS J 101      52.362  50.669 -12.610  1.00 10.25 LIG 0.14  A 
ATOM     24 NE2  HIS J 101      52.445  49.365 -12.188  1.00 11.46 LIG-0.25  NA
ATOM     25  CE1 HIS J 101      51.534  48.649 -12.818  1.00 15.99 LIG 0.23  A 
ATOM     26 ND1  HIS J 101      50.867  49.452 -13.630  1.00 17.50 LIG-0.24  NA
ENDBRANCH 21 22
ENDBRANCH 19 21
ENDBRANCH 16 19
ENDBRANCH 13 15
ENDBRANCH 10 13
ENDBRANCH 8 9
ENDBRANCH 1 8
BRANCH 4 27
ATOM     27  C   PRO J 104      59.608  56.831 -11.157  1.00  7.89 LIG 0.24  C 
ATOM     28 O    PRO J 104      59.585  55.600 -11.267  1.00  6.40 LIG-0.27  OA
ATOM     29  N   ILE J 105      60.365  57.601 -11.942  1.00 10.49 LIG-0.35  N 
ATOM     30 H    ILE J 105      60.363  58.461 -11.944  1.00 10.49 LIG 0.16  HD
BRANCH 29 31
ATOM     31  CA  ILE J 105      61.285  56.972 -12.885  1.00  9.44 LIG 0.18  C 
BRANCH 31 32
ATOM     32  CB  ILE J 105      60.908  57.192 -14.345  1.00  9.59 LIG 0.01  C 
ATOM     33  CG2 ILE J 105      59.806  56.264 -14.703  1.00  7.65 LIG 0.01  C 
BRANCH 32 34
ATOM     34  CG1 ILE J 105      60.535  58.637 -14.627  1.00  8.07 LIG 0.00  C 
ATOM     35  CD1 ILE J 105      60.190  58.848 -16.054  1.00 10.10 LIG 0.01  C 
ENDBRANCH 32 34
ENDBRANCH 31 32
BRANCH 31 36
ATOM     36  C   ILE J 105      62.748  57.308 -12.637  1.00 12.77 LIG 0.24  C 
ATOM     37  N   ALA J 106      63.617  56.502 -13.252  1.00 12.70 LIG-0.34  N 
ATOM     38 H    ALA J 106      63.345  55.845 -13.737  1.00 12.70 LIG 0.16  HD
ATOM     39 O    ILE J 105      63.052  58.209 -11.860  1.00 10.65 LIG-0.27  OA
BRANCH 37 40
ATOM     40  CA  ALA J 106      65.066  56.581 -13.220  1.00 16.79 LIG 0.18  C 
ATOM     41  CB  ALA J 106      65.575  58.011 -13.472  1.00 18.33 LIG 0.04  C 
BRANCH 40 42
ATOM     42  C   ALA J 106      65.684  55.967 -11.977  1.00 17.57 LIG 0.20  C 
ATOM     43 O    ALA J 106      65.586  54.721 -11.873  1.00 21.44 LIG-0.65  OA
ATOM     44 OXT  ALA J 106      66.280  56.703 -11.155  1.00 20.61 LIG-0.65  OA
ENDBRANCH 40 42
ENDBRANCH 37 40
ENDBRANCH 31 36
ENDBRANCH 29 31
ENDBRANCH 4 27
TORSDOF 14
