USER: ADFR SOLUTION from run 0
USER: SCORE 21.675230 LL:  -1.488 LR: -20.241 RR:   0.000 FEB: -14.573
USER: RMSD 0.382417
USER: STATUS Locally minimized using BFGS
USER: GENES 21
USER: genes 0 Translation |==|  0.60087 0.60239 0.55973
USER: genes 1 Rotation |==|  0.50697 0.51772 0.49305 0.99959
USER: genes 2 Torsion [N]-CA--C-[N] |==|  0.37958
USER: genes 3 Torsion [C]-N--CA-[CB] |==|  0.29851
USER: genes 4 Torsion [N]-CA--CB-[CG] |==|  0.57475
USER: genes 5 Torsion [CA]-CB--CG-[CD] |==|  0.50772
USER: genes 6 Torsion [CB]-CG--CD-[CE] |==|  0.47151
USER: genes 7 Torsion [CG]-CD--CE-[NZ] |==|  0.24232
USER: genes 8 Torsion [CD]-CE--NZ-[HZ3] |==|  0.17882
USER: genes 9 Torsion [N]-CA--C-[O] |==|  0.43123
USER: genes 10 Torsion [C]-CA--CB-[CG] |==|  0.48266
USER: genes 11 Torsion [CA]-CB--CG-[SD] |==|  0.81140
USER: genes 12 Torsion [CB]-CG--SD-[CE] |==|  0.63389
USER: genes 13 Torsion [C]-CA--N-[C] |==|  0.78012
USER: genes 14 Torsion [N]-C--CA-[N] |==|  0.38857
USER: genes 15 Torsion [C]-CA--CB-[CG] |==|  0.80206
USER: genes 16 Torsion [CA]-CB--CG-[CD] |==|  0.54011
USER: genes 17 Torsion [CB]-CG--CD-[CE] |==|  0.18851
USER: genes 18 Torsion [CG]-CD--CE-[NZ] |==|  0.14474
USER: genes 19 Torsion [CD]-CE--NZ-[HZ1] |==|  0.48558
USER: genes 20 Torsion [C]-CA--N-[H3] |==|  0.11141
ROOT
ATOM      1  CA  MET B   2       3.937  20.333  16.065  1.00  6.97 LIG 0.18  C 
ENDROOT
BRANCH 1 2
ATOM      2  C   MET B   2       2.587  20.236  15.388  1.00  8.68 LIG 0.24  C 
ATOM      3 O    MET B   2       2.483  20.510  14.191  1.00  9.39 LIG-0.27  OA
ATOM      4  N   LYS B   3       1.554  19.924  16.189  1.00  6.67 LIG-0.34  N 
ATOM      5 H    LYS B   3       1.619  19.737  17.026  1.00  6.67 LIG 0.16  HD
BRANCH 4 6
ATOM      6  CA  LYS B   3       0.201  19.886  15.646  1.00  9.86 LIG 0.18  C 
BRANCH 6 7
ATOM      7  CB  LYS B   3      -0.369  18.471  15.492  1.00 11.74 LIG 0.04  C 
BRANCH 7 8
ATOM      8  CG  LYS B   3      -1.393  18.617  14.333  1.00 14.43 LIG 0.00  C 
BRANCH 8 9
ATOM      9  CD  LYS B   3      -2.119  17.330  14.069  1.00 17.61 LIG 0.03  C 
BRANCH 9 10
ATOM     10  CE  LYS B   3      -3.286  17.568  13.110  1.00 19.20 LIG 0.23  C 
BRANCH 10 11
ATOM     11  NZ  LYS B   3      -2.697  17.435  11.737  1.00 20.87 LIG-0.08  N 
ATOM     12 HZ3  LYS B   3      -2.411  16.601  11.616  1.00 20.87 LIG 0.27  HD
ATOM     13 HZ1  LYS B   3      -3.318  17.626  11.128  1.00 20.87 LIG 0.27  HD
ATOM     14 HZ2  LYS B   3      -2.014  17.999  11.651  1.00 20.87 LIG 0.27  HD
ENDBRANCH 10 11
ENDBRANCH 9 10
ENDBRANCH 8 9
ENDBRANCH 7 8
ENDBRANCH 6 7
BRANCH 6 15
ATOM     15  C   LYS B   3      -0.766  20.679  16.540  1.00 12.85 LIG 0.20  C 
ATOM     16 O    LYS B   3      -1.794  21.117  15.951  1.00 12.91 LIG-0.65  OA
ATOM     17 OXT  LYS B   3      -0.443  20.961  17.698  1.00 11.49 LIG-0.65  OA
ENDBRANCH 6 15
ENDBRANCH 4 6
ENDBRANCH 1 2
BRANCH 1 18
ATOM     18  CB  MET B   2       4.299  21.843  16.117  1.00  8.88 LIG 0.04  C 
BRANCH 18 19
ATOM     19  CG  MET B   2       5.592  22.047  16.934  1.00 12.36 LIG 0.08  C 
BRANCH 19 20
ATOM     20 SD   MET B   2       5.285  21.657  18.672  1.00 15.55 LIG-0.17  SA
ATOM     21  CE  MET B   2       6.000  23.078  19.483  1.00 16.27 LIG 0.09  C 
ENDBRANCH 19 20
ENDBRANCH 18 19
ENDBRANCH 1 18
BRANCH 1 22
ATOM     22  N   MET B   2       4.997  19.681  15.276  1.00  7.01 LIG-0.35  N 
ATOM     23  C   LYS B   1       5.174  18.367  15.269  1.00  7.04 LIG 0.25  C 
ATOM     24 O    LYS B   1       4.527  17.578  15.975  1.00  8.63 LIG-0.27  OA
ATOM     25 H    MET B   2       5.484  20.228  14.825  1.00  7.01 LIG 0.16  HD
BRANCH 23 26
ATOM     26  CA  LYS B   1       6.321  17.860  14.412  1.00  7.11 LIG 0.27  C 
BRANCH 26 27
ATOM     27  CB  LYS B   1       5.888  17.484  12.984  1.00  9.17 LIG 0.04  C 
BRANCH 27 28
ATOM     28  CG  LYS B   1       5.047  16.227  12.842  1.00  9.41 LIG 0.00  C 
BRANCH 28 29
ATOM     29  CD  LYS B   1       4.980  15.759  11.372  1.00  9.76 LIG 0.03  C 
BRANCH 29 30
ATOM     30  CE  LYS B   1       6.297  15.248  10.806  1.00 11.82 LIG 0.23  C 
BRANCH 30 31
ATOM     31  NZ  LYS B   1       6.967  14.197  11.628  1.00 12.32 LIG-0.08  N 
ATOM     32 HZ1  LYS B   1       7.686  13.897  11.198  1.00 12.32 LIG 0.27  HD
ATOM     33 HZ2  LYS B   1       7.213  14.543  12.410  1.00 12.32 LIG 0.27  HD
ATOM     34 HZ3  LYS B   1       6.402  13.523  11.767  1.00 12.32 LIG 0.27  HD
ENDBRANCH 30 31
ENDBRANCH 29 30
ENDBRANCH 28 29
ENDBRANCH 27 28
ENDBRANCH 26 27
BRANCH 26 35
ATOM     35  N   LYS B   1       7.051  16.745  15.107  1.00  7.84 LIG-0.07  N 
ATOM     36 H1   LYS B   1       7.513  16.274  14.508  1.00  7.84 LIG 0.28  HD
ATOM     37 H3   LYS B   1       6.464  16.213  15.513  1.00  7.84 LIG 0.28  HD
ATOM     38 H2   LYS B   1       7.610  17.085  15.710  1.00  7.84 LIG 0.28  HD
ENDBRANCH 26 35
ENDBRANCH 23 26
ENDBRANCH 1 22
TORSDOF 19
