REMARK  18 active torsions:
REMARK  status: ('A' for Active; 'I' for Inactive)
REMARK    1  A    between atoms: N_1  and  CA_2 
REMARK    2  A    between atoms: CA_2  and  C_3 
REMARK    3  A    between atoms: CA_2  and  CB_5 
REMARK       I    between atoms: C_3  and  N_16 
REMARK    4  A    between atoms: CB_5  and  CG_6 
REMARK    5  A    between atoms: CG_6  and  CD_7 
REMARK    6  A    between atoms: CD_7  and  CE_8 
REMARK    7  A    between atoms: CE_8  and  NZ_9 
REMARK    8  A    between atoms: N_16  and  CA_17 
REMARK    9  A    between atoms: CA_17  and  C_18 
REMARK   10  A    between atoms: CA_17  and  CB_20 
REMARK       I    between atoms: C_18  and  N_25 
REMARK   11  A    between atoms: CB_20  and  CG1_21 
REMARK   12  A    between atoms: N_25  and  CA_26 
REMARK   13  A    between atoms: CA_26  and  CB_29 
REMARK   14  A    between atoms: CA_26  and  C_27 
REMARK   15  A    between atoms: CB_29  and  CG_30 
REMARK   16  A    between atoms: CG_30  and  CD_31 
REMARK   17  A    between atoms: CD_31  and  CE_32 
REMARK   18  A    between atoms: CE_32  and  NZ_33 
ROOT
ATOM      1  CA  ILE B   2       3.987  20.505  16.149  1.00 17.45     0.180 C 
ENDROOT
BRANCH   1   2
ATOM      2  C   ILE B   2       2.700  20.513  15.308  1.00 17.77     0.241 C 
ATOM      3  O   ILE B   2       2.666  20.904  14.151  1.00 17.30    -0.271 OA
ATOM      4  N   LYS B   3       1.620  20.018  15.974  1.00 18.03    -0.345 N 
ATOM      5  H   LYS B   3       1.653  19.703  16.774  1.00 18.03     0.163 HD
BRANCH   4   6
ATOM      6  CA  LYS B   3       0.314  19.984  15.377  1.00 18.65     0.185 C 
BRANCH   6   7
ATOM      7  CB  LYS B   3      -0.303  18.592  15.249  1.00 18.38     0.036 C 
BRANCH   7   8
ATOM      8  CG  LYS B   3      -1.427  18.679  14.174  1.00 17.78     0.004 C 
BRANCH   8   9
ATOM      9  CD  LYS B   3      -2.202  17.358  14.179  1.00 19.84     0.027 C 
BRANCH   9  10
ATOM     10  CE  LYS B   3      -3.030  17.291  12.862  1.00 23.06     0.229 C 
BRANCH  10  11
ATOM     11  NZ  LYS B   3      -3.665  18.622  12.616  1.00 27.49    -0.079 N 
ATOM     12  HZ3 LYS B   3      -3.105  19.138  12.155  1.00 27.49     0.274 HD
ATOM     13  HZ2 LYS B   3      -3.853  19.010  13.395  1.00 27.49     0.274 HD
ATOM     14  HZ1 LYS B   3      -4.416  18.512  12.151  1.00 27.49     0.274 HD
ENDBRANCH  10  11
ENDBRANCH   9  10
ENDBRANCH   8   9
ENDBRANCH   7   8
ENDBRANCH   6   7
BRANCH   6  15
ATOM     15  C   LYS B   3      -0.677  20.803  16.253  1.00 19.41     0.196 C 
ATOM     16  O   LYS B   3      -1.574  21.382  15.657  1.00 18.76    -0.646 OA
ATOM     17  OXT LYS B   3      -0.528  20.938  17.469  1.00 17.05    -0.646 OA
ENDBRANCH   6  15
ENDBRANCH   4   6
ENDBRANCH   1   2
BRANCH   1  18
ATOM     18  CB  ILE B   2       4.247  21.915  16.654  1.00 18.07     0.013 C 
ATOM     19  CG2 ILE B   2       3.041  22.523  17.416  1.00 16.68     0.012 C 
BRANCH  18  20
ATOM     20  CG1 ILE B   2       5.406  21.822  17.698  1.00 16.61     0.002 C 
ATOM     21  CD1 ILE B   2       5.939  23.206  18.032  1.00 19.99     0.005 C 
ENDBRANCH  18  20
ENDBRANCH   1  18
BRANCH   1  22
ATOM     22  N   ILE B   2       5.117  19.887  15.463  1.00 14.52    -0.346 N 
ATOM     23  C   LYS B   1       5.313  18.605  15.393  1.00 13.52     0.249 C 
ATOM     24  O   LYS B   1       4.605  17.820  16.022  1.00 12.92    -0.271 OA
ATOM     25  H   ILE B   2       5.650  20.459  15.104  1.00 14.52     0.163 HD
BRANCH  23  26
ATOM     26  CA  LYS B   1       6.583  18.080  14.691  1.00 10.84     0.274 C 
BRANCH  26  27
ATOM     27  N   LYS B   1       7.019  16.767  15.290  1.00 11.78    -0.067 N 
ATOM     28  H3  LYS B   1       6.303  16.302  15.541  1.00 11.78     0.275 HD
ATOM     29  H2  LYS B   1       7.535  16.921  15.999  1.00 11.78     0.275 HD
ATOM     30  H1  LYS B   1       7.477  16.302  14.685  1.00 11.78     0.275 HD
ENDBRANCH  26  27
BRANCH  26  31
ATOM     31  CB  LYS B   1       6.351  17.964  13.191  1.00 14.95     0.042 C 
BRANCH  31  32
ATOM     32  CG  LYS B   1       5.309  16.979  12.698  1.00 16.40     0.004 C 
BRANCH  32  33
ATOM     33  CD  LYS B   1       5.250  16.776  11.199  1.00 17.75     0.027 C 
BRANCH  33  34
ATOM     34  CE  LYS B   1       6.556  16.189  10.603  1.00 20.84     0.229 C 
BRANCH  34  35
ATOM     35  NZ  LYS B   1       6.603  14.704  10.923  1.00 18.68    -0.079 N 
ATOM     36  HZ1 LYS B   1       7.276  14.326  10.480  1.00 18.68     0.274 HD
ATOM     37  HZ3 LYS B   1       5.837  14.323  10.679  1.00 18.68     0.274 HD
ATOM     38  HZ2 LYS B   1       6.724  14.592  11.798  1.00 18.68     0.274 HD
ENDBRANCH  34  35
ENDBRANCH  33  34
ENDBRANCH  32  33
ENDBRANCH  31  32
ENDBRANCH  26  31
ENDBRANCH  23  26
ENDBRANCH   1  22
TORSDOF 18
