USER: ADFR SOLUTION from run 0
USER: SCORE 21.218233 LL:  -1.764 LR: -19.535 RR:   0.000 FEB: -14.166
USER: RMSD 0.346755
USER: STATUS Locally minimized using BFGS
USER: GENES 20
USER: genes 0 Translation |==|  0.61809 0.59692 0.61481
USER: genes 1 Rotation |==|  0.50133 0.51321 0.49715 0.99982
USER: genes 2 Torsion [N]-CA--C-[N] |==|  0.35785
USER: genes 3 Torsion [C]-N--CA-[CB] |==|  0.33386
USER: genes 4 Torsion [N]-CA--CB-[CG] |==|  0.56010
USER: genes 5 Torsion [CA]-CB--CG-[CD] |==|  0.51898
USER: genes 6 Torsion [CB]-CG--CD-[CE] |==|  0.54439
USER: genes 7 Torsion [CG]-CD--CE-[NZ] |==|  0.87158
USER: genes 8 Torsion [CD]-CE--NZ-[HZ3] |==|  0.24534
USER: genes 9 Torsion [N]-CA--C-[O] |==|  0.40409
USER: genes 10 Torsion [C]-CA--CB-[CG1] |==|  0.47507
USER: genes 11 Torsion [CA]-CB--CG1-[CD1] |==|  0.46616
USER: genes 12 Torsion [C]-CA--N-[C] |==|  0.76528
USER: genes 13 Torsion [N]-C--CA-[N] |==|  0.39635
USER: genes 14 Torsion [C]-CA--N-[H1] |==|  0.42459
USER: genes 15 Torsion [C]-CA--CB-[CG] |==|  0.81135
USER: genes 16 Torsion [CA]-CB--CG-[CD] |==|  0.54077
USER: genes 17 Torsion [CB]-CG--CD-[CE] |==|  0.15826
USER: genes 18 Torsion [CG]-CD--CE-[NZ] |==|  0.18563
USER: genes 19 Torsion [CD]-CE--NZ-[HZ1] |==|  0.46974
ROOT
ATOM      1  CA  ILE B   2       3.950  20.436  16.064  1.00 17.45 LIG 0.18  C 
ENDROOT
BRANCH 1 2
ATOM      2  C   ILE B   2       2.621  20.463  15.292  1.00 17.77 LIG 0.24  C 
ATOM      3 O    ILE B   2       2.529  20.868  14.144  1.00 17.30 LIG-0.27  OA
ATOM      4  N   LYS B   3       1.574  19.967  16.009  1.00 18.03 LIG-0.34  N 
ATOM      5 H    LYS B   3       1.647  19.642  16.802  1.00 18.03 LIG 0.16  HD
BRANCH 4 6
ATOM      6  CA  LYS B   3       0.238  19.950  15.481  1.00 18.65 LIG 0.18  C 
BRANCH 6 7
ATOM      7  CB  LYS B   3      -0.395  18.564  15.369  1.00 18.38 LIG 0.04  C 
BRANCH 7 8
ATOM      8  CG  LYS B   3      -1.538  18.659  14.315  1.00 17.78 LIG 0.00  C 
BRANCH 8 9
ATOM      9  CD  LYS B   3      -2.300  17.330  14.308  1.00 19.84 LIG 0.03  C 
BRANCH 9 10
ATOM     10  CE  LYS B   3      -3.149  17.278  13.004  1.00 23.06 LIG 0.23  C 
BRANCH 10 11
ATOM     11  NZ  LYS B   3      -3.853  18.585  12.828  1.00 27.49 LIG-0.08  N 
ATOM     12 HZ3  LYS B   3      -3.330  19.147  12.376  1.00 27.49 LIG 0.27  HD
ATOM     13 HZ2  LYS B   3      -4.041  18.932  13.626  1.00 27.49 LIG 0.27  HD
ATOM     14 HZ1  LYS B   3      -4.609  18.458  12.375  1.00 27.49 LIG 0.27  HD
ENDBRANCH 10 11
ENDBRANCH 9 10
ENDBRANCH 8 9
ENDBRANCH 7 8
ENDBRANCH 6 7
BRANCH 6 15
ATOM     15  C   LYS B   3      -0.699  20.765  16.418  1.00 19.41 LIG 0.20  C 
ATOM     16 O    LYS B   3      -1.602  21.384  15.874  1.00 18.76 LIG-0.65  OA
ATOM     17 OXT  LYS B   3      -0.503  20.857  17.631  1.00 17.05 LIG-0.65  OA
ENDBRANCH 6 15
ENDBRANCH 4 6
ENDBRANCH 1 2
BRANCH 1 18
ATOM     18  CB  ILE B   2       4.253  21.840  16.562  1.00 18.07 LIG 0.01  C 
ATOM     19  CG2 ILE B   2       3.103  22.450  17.405  1.00 16.68 LIG 0.01  C 
BRANCH 18 20
ATOM     20  CG1 ILE B   2       5.476  21.731  17.528  1.00 16.61 LIG 0.00  C 
ATOM     21  CD1 ILE B   2       6.038  23.109  17.840  1.00 19.99 LIG 0.01  C 
ENDBRANCH 18 20
ENDBRANCH 1 18
BRANCH 1 22
ATOM     22  N   ILE B   2       5.035  19.809  15.316  1.00 14.52 LIG-0.35  N 
ATOM     23  C   LYS B   1       5.250  18.529  15.282  1.00 13.52 LIG 0.25  C 
ATOM     24 O    LYS B   1       4.609  17.758  15.995  1.00 12.92 LIG-0.27  OA
ATOM     25 H    ILE B   2       5.527  20.375  14.894  1.00 14.52 LIG 0.16  HD
BRANCH 23 26
ATOM     26  CA  LYS B   1       6.472  17.996  14.503  1.00 10.84 LIG 0.27  C 
BRANCH 26 27
ATOM     27  N   LYS B   1       7.092  16.824  15.220  1.00 11.78 LIG-0.07  N 
ATOM     28 H3   LYS B   1       6.457  16.361  15.638  1.00 11.78 LIG 0.28  HD
ATOM     29 H2   LYS B   1       7.683  17.120  15.817  1.00 11.78 LIG 0.28  HD
ATOM     30 H1   LYS B   1       7.502  16.298  14.631  1.00 11.78 LIG 0.28  HD
ENDBRANCH 26 27
BRANCH 26 31
ATOM     31  CB  LYS B   1       6.078  17.639  13.077  1.00 14.95 LIG 0.04  C 
BRANCH 31 32
ATOM     32  CG  LYS B   1       5.149  16.459  12.862  1.00 16.40 LIG 0.00  C 
BRANCH 32 33
ATOM     33  CD  LYS B   1       5.065  15.936  11.443  1.00 17.75 LIG 0.03  C 
BRANCH 33 34
ATOM     34  CE  LYS B   1       6.438  15.513  10.858  1.00 20.84 LIG 0.23  C 
BRANCH 34 35
ATOM     35  NZ  LYS B   1       6.933  14.300  11.629  1.00 18.68 LIG-0.08  N 
ATOM     36 HZ1  LYS B   1       7.636  13.949  11.210  1.00 18.68 LIG 0.27  HD
ATOM     37 HZ3  LYS B   1       6.285  13.694  11.677  1.00 18.68 LIG 0.27  HD
ATOM     38 HZ2  LYS B   1       7.171  14.547  12.451  1.00 18.68 LIG 0.27  HD
ENDBRANCH 34 35
ENDBRANCH 33 34
ENDBRANCH 32 33
ENDBRANCH 31 32
ENDBRANCH 26 31
ENDBRANCH 23 26
ENDBRANCH 1 22
TORSDOF 18
