REMARK  16 active torsions:
REMARK  status: ('A' for Active; 'I' for Inactive)
REMARK    1  A    between atoms: N_1  and  CA_2 
REMARK    2  A    between atoms: CA_2  and  C_3 
REMARK    3  A    between atoms: CA_2  and  CB_5 
REMARK       I    between atoms: C_3  and  N_16 
REMARK    4  A    between atoms: CB_5  and  CG_6 
REMARK    5  A    between atoms: CG_6  and  CD_7 
REMARK    6  A    between atoms: CD_7  and  CE_8 
REMARK    7  A    between atoms: CE_8  and  NZ_9 
REMARK    8  A    between atoms: N_16  and  CA_17 
REMARK    9  A    between atoms: CA_17  and  C_18 
REMARK       I    between atoms: C_18  and  N_21 
REMARK   10  A    between atoms: N_21  and  CA_22 
REMARK   11  A    between atoms: CA_22  and  C_23 
REMARK   12  A    between atoms: CA_22  and  CB_25 
REMARK   13  A    between atoms: CB_25  and  CG_26 
REMARK   14  A    between atoms: CG_26  and  CD_27 
REMARK   15  A    between atoms: CD_27  and  CE_28 
REMARK   16  A    between atoms: CE_28  and  NZ_29 
ROOT
ATOM      1  C   LYS B   1      55.790   4.144  93.025  1.00 15.79     0.248 C 
ATOM      2  O   LYS B   1      56.222   4.833  92.079  1.00 16.21    -0.271 OA
ATOM      3  N   GLY B   2      56.052   2.870  93.242  1.00 14.89    -0.351 N 
ATOM      4  H   GLY B   2      55.710   2.393  93.871  1.00 14.89     0.163 HD
ENDROOT
BRANCH   3   5
ATOM      5  CA  GLY B   2      56.998   2.173  92.360  1.00 20.83     0.225 C 
BRANCH   5   6
ATOM      6  C   GLY B   2      56.334   1.781  91.049  1.00 21.80     0.236 C 
ATOM      7  O   GLY B   2      55.159   1.403  91.095  1.00 22.80    -0.272 OA
ATOM      8  N   LYS B   3      57.054   1.845  89.937  1.00 24.68    -0.345 N 
ATOM      9  H   LYS B   3      57.855   2.158  89.917  1.00 24.68     0.163 HD
BRANCH   8  10
ATOM     10  CA  LYS B   3      56.576   1.398  88.636  1.00 23.24     0.185 C 
BRANCH  10  11
ATOM     11  C   LYS B   3      57.493   0.369  87.953  1.00 25.01     0.196 C 
ATOM     12  OXT LYS B   3      58.736   0.354  88.141  1.00 24.27    -0.646 OA
ATOM     13  O   LYS B   3      56.974  -0.433  87.121  1.00 24.62    -0.646 OA
ENDBRANCH  10  11
BRANCH  10  14
ATOM     14  CB  LYS B   3      56.411   2.545  87.656  1.00 24.40     0.036 C 
BRANCH  14  15
ATOM     15  CG  LYS B   3      55.369   2.092  86.541  1.00 26.49     0.004 C 
BRANCH  15  16
ATOM     16  CD  LYS B   3      55.346   3.213  85.528  1.00 30.21     0.027 C 
BRANCH  16  17
ATOM     17  CE  LYS B   3      54.627   2.779  84.234  1.00 33.43     0.229 C 
BRANCH  17  18
ATOM     18  NZ  LYS B   3      53.440   1.976  84.575  1.00 35.75    -0.079 N 
ATOM     19  HZ2 LYS B   3      53.686   1.135  84.733  1.00 35.75     0.274 HD
ATOM     20  HZ1 LYS B   3      52.864   1.994  83.896  1.00 35.75     0.274 HD
ATOM     21  HZ3 LYS B   3      53.052   2.313  85.302  1.00 35.75     0.274 HD
ENDBRANCH  17  18
ENDBRANCH  16  17
ENDBRANCH  15  16
ENDBRANCH  14  15
ENDBRANCH  10  14
ENDBRANCH   8  10
ENDBRANCH   5   6
ENDBRANCH   3   5
BRANCH   1  22
ATOM     22  CA  LYS B   1      54.887   4.800  94.099  1.00 14.35     0.274 C 
BRANCH  22  23
ATOM     23  CB  LYS B   1      53.407   4.640  93.723  1.00 17.58     0.042 C 
BRANCH  23  24
ATOM     24  CG  LYS B   1      52.997   5.502  92.531  1.00 22.18     0.004 C 
BRANCH  24  25
ATOM     25  CD  LYS B   1      51.518   5.216  92.142  1.00 23.04     0.027 C 
BRANCH  25  26
ATOM     26  CE  LYS B   1      50.632   6.110  92.996  1.00 24.58     0.229 C 
BRANCH  26  27
ATOM     27  NZ  LYS B   1      50.936   7.537  92.854  1.00 25.06    -0.079 N 
ATOM     28  HZ2 LYS B   1      51.628   7.746  93.372  1.00 25.06     0.274 HD
ATOM     29  HZ1 LYS B   1      50.228   8.017  93.098  1.00 25.06     0.274 HD
ATOM     30  HZ3 LYS B   1      51.137   7.715  92.005  1.00 25.06     0.274 HD
ENDBRANCH  26  27
ENDBRANCH  25  26
ENDBRANCH  24  25
ENDBRANCH  23  24
ENDBRANCH  22  23
BRANCH  22  31
ATOM     31  N   LYS B   1      55.242   6.245  94.252  1.00 11.88    -0.067 N 
ATOM     32  H1  LYS B   1      54.535   6.695  94.551  1.00 11.88     0.275 HD
ATOM     33  H2  LYS B   1      55.912   6.327  94.832  1.00 11.88     0.275 HD
ATOM     34  H3  LYS B   1      55.491   6.575  93.464  1.00 11.88     0.275 HD
ENDBRANCH  22  31
ENDBRANCH   1  22
TORSDOF 16
