USER: ADFR SOLUTION from run 0
USER: SCORE 18.185575 LL:  -1.256 LR: -17.233 RR:   0.000 FEB: -12.460
USER: RMSD 0.466288
USER: STATUS Locally minimized using BFGS
USER: GENES 18
USER: genes 0 Translation |==|  0.57092 0.52788 0.68484
USER: genes 1 Rotation |==|  0.50733 0.47004 0.48817 0.99891
USER: genes 2 Torsion [C]-N--CA-[C] |==|  0.76520
USER: genes 3 Torsion [N]-CA--C-[N] |==|  0.38889
USER: genes 4 Torsion [C]-N--CA-[C] |==|  0.62846
USER: genes 5 Torsion [N]-CA--C-[OXT] |==|  0.91660
USER: genes 6 Torsion [N]-CA--CB-[CG] |==|  0.57450
USER: genes 7 Torsion [CA]-CB--CG-[CD] |==|  0.50013
USER: genes 8 Torsion [CB]-CG--CD-[CE] |==|  0.46570
USER: genes 9 Torsion [CG]-CD--CE-[NZ] |==|  0.10635
USER: genes 10 Torsion [CD]-CE--NZ-[HZ1] |==|  0.43106
USER: genes 11 Torsion [N]-C--CA-[N] |==|  0.39636
USER: genes 12 Torsion [C]-CA--CB-[CG] |==|  0.79052
USER: genes 13 Torsion [CA]-CB--CG-[CD] |==|  0.50747
USER: genes 14 Torsion [CB]-CG--CD-[CE] |==|  0.23545
USER: genes 15 Torsion [CG]-CD--CE-[NZ] |==|  0.14754
USER: genes 16 Torsion [CD]-CE--NZ-[HZ2] |==|  0.77054
USER: genes 17 Torsion [C]-CA--N-[H2] |==|  0.75740
ROOT
ATOM      1  C   LYS B   1      55.705   4.252  92.968  1.00 15.79 LIG 0.25  C 
ATOM      2 O    LYS B   1      56.279   4.944  92.103  1.00 16.21 LIG-0.27  OA
ATOM      3  N   GLY B   2      55.881   2.961  93.174  1.00 14.89 LIG-0.35  N 
ATOM      4 H    GLY B   2      55.445   2.485  93.742  1.00 14.89 LIG 0.16  HD
ENDROOT
BRANCH 3 5
ATOM      5  CA  GLY B   2      56.894   2.242  92.389  1.00 20.83 LIG 0.23  C 
BRANCH 5 6
ATOM      6  C   GLY B   2      56.331   1.801  91.047  1.00 21.80 LIG 0.24  C 
ATOM      7 O    GLY B   2      55.179   1.355  91.029  1.00 22.80 LIG-0.27  OA
ATOM      8  N   LYS B   3      57.109   1.898  89.977  1.00 24.68 LIG-0.34  N 
ATOM      9 H    LYS B   3      57.890   2.257  89.999  1.00 24.68 LIG 0.16  HD
BRANCH 8 10
ATOM     10  CA  LYS B   3      56.734   1.413  88.656  1.00 23.24 LIG 0.18  C 
BRANCH 10 11
ATOM     11  C   LYS B   3      57.836   0.603  87.952  1.00 25.01 LIG 0.20  C 
ATOM     12 OXT  LYS B   3      59.058   0.819  88.156  1.00 24.27 LIG-0.65  OA
ATOM     13 O    LYS B   3      57.487  -0.254  87.087  1.00 24.62 LIG-0.65  OA
ENDBRANCH 10 11
BRANCH 10 14
ATOM     14  CB  LYS B   3      56.359   2.540  87.712  1.00 24.40 LIG 0.04  C 
BRANCH 14 15
ATOM     15  CG  LYS B   3      55.348   1.957  86.629  1.00 26.49 LIG 0.00  C 
BRANCH 15 16
ATOM     16  CD  LYS B   3      55.012   3.117  85.722  1.00 30.21 LIG 0.03  C 
BRANCH 16 17
ATOM     17  CE  LYS B   3      54.286   2.636  84.448  1.00 33.43 LIG 0.23  C 
BRANCH 17 18
ATOM     18  NZ  LYS B   3      53.358   1.545  84.793  1.00 35.75 LIG-0.08  N 
ATOM     19 HZ2  LYS B   3      53.799   0.771  84.800  1.00 35.75 LIG 0.27  HD
ATOM     20 HZ1  LYS B   3      52.705   1.508  84.188  1.00 35.75 LIG 0.27  HD
ATOM     21 HZ3  LYS B   3      53.009   1.694  85.598  1.00 35.75 LIG 0.27  HD
ENDBRANCH 17 18
ENDBRANCH 16 17
ENDBRANCH 15 16
ENDBRANCH 14 15
ENDBRANCH 10 14
ENDBRANCH 8 10
ENDBRANCH 5 6
ENDBRANCH 3 5
BRANCH 1 22
ATOM     22  CA  LYS B   1      54.710   4.923  93.948  1.00 14.35 LIG 0.27  C 
BRANCH 22 23
ATOM     23  CB  LYS B   1      53.305   4.970  93.333  1.00 17.58 LIG 0.04  C 
BRANCH 23 24
ATOM     24  CG  LYS B   1      53.160   6.042  92.255  1.00 22.18 LIG 0.00  C 
BRANCH 24 25
ATOM     25  CD  LYS B   1      51.698   6.080  91.725  1.00 23.04 LIG 0.03  C 
BRANCH 25 26
ATOM     26  CE  LYS B   1      50.887   6.963  92.660  1.00 24.58 LIG 0.23  C 
BRANCH 26 27
ATOM     27  NZ  LYS B   1      51.476   8.290  92.865  1.00 25.06 LIG-0.08  N 
ATOM     28 HZ2  LYS B   1      52.108   8.241  93.489  1.00 25.06 LIG 0.27  HD
ATOM     29 HZ1  LYS B   1      50.844   8.858  93.127  1.00 25.06 LIG 0.27  HD
ATOM     30 HZ3  LYS B   1      51.835   8.576  92.102  1.00 25.06 LIG 0.27  HD
ENDBRANCH 26 27
ENDBRANCH 25 26
ENDBRANCH 24 25
ENDBRANCH 23 24
ENDBRANCH 22 23
BRANCH 22 31
ATOM     31  N   LYS B   1      55.184   6.299  94.295  1.00 11.88 LIG-0.07  N 
ATOM     32 H1   LYS B   1      54.486   6.810  94.504  1.00 11.88 LIG 0.28  HD
ATOM     33 H2   LYS B   1      55.738   6.256  94.990  1.00 11.88 LIG 0.28  HD
ATOM     34 H3   LYS B   1      55.610   6.651  93.598  1.00 11.88 LIG 0.28  HD
ENDBRANCH 22 31
ENDBRANCH 1 22
TORSDOF 16
