USER: ADFR SOLUTION from run 0
USER: SCORE 21.187656 LL:  -1.374 LR: -19.814 RR:   0.000 FEB: -15.340
USER: RMSD 0.489400
USER: STATUS Locally minimized using BFGS
USER: GENES 17
USER: genes 0 Translation |==|  0.66385 0.52948 0.58920
USER: genes 1 Rotation |==|  0.50358 0.52459 0.50318 0.99937
USER: genes 2 Torsion [N]-CA--C-[N] |==|  0.42226
USER: genes 3 Torsion [C]-N--CA-[CB] |==|  0.26356
USER: genes 4 Torsion [N]-CA--CB-[CG] |==|  0.58492
USER: genes 5 Torsion [CA]-CB--CG-[CD] |==|  0.53130
USER: genes 6 Torsion [CB]-CG--CD-[CE] |==|  0.47245
USER: genes 7 Torsion [CG]-CD--CE-[NZ] |==|  0.21159
USER: genes 8 Torsion [CD]-CE--NZ-[HZ3] |==|  0.14092
USER: genes 9 Torsion [N]-CA--C-[O] |==|  0.40100
USER: genes 10 Torsion [N]-C--CA-[N] |==|  0.34103
USER: genes 11 Torsion [C]-CA--N-[H2] |==|  0.77075
USER: genes 12 Torsion [C]-CA--CB-[CG] |==|  0.81175
USER: genes 13 Torsion [CA]-CB--CG-[CD] |==|  0.52860
USER: genes 14 Torsion [CB]-CG--CD-[CE] |==|  0.19255
USER: genes 15 Torsion [CG]-CD--CE-[NZ] |==|  0.15135
USER: genes 16 Torsion [CD]-CE--NZ-[HZ1] |==|  0.46142
ROOT
ATOM      1  C   LYS B   1       4.948  18.106  15.147  1.00 18.50 LIG 0.25  C 
ATOM      2 O    LYS B   1       4.047  17.315  15.464  1.00 18.58 LIG-0.27  OA
ATOM      3  N   PRO B   2       4.860  19.358  15.575  1.00 19.42 LIG-0.34  N 
ATOM      4  CA  PRO B   2       3.686  19.839  16.309  1.00 19.20 LIG 0.18  C 
ATOM      5  CB  PRO B   2       4.036  21.313  16.591  1.00 19.17 LIG 0.04  C 
ATOM      6  CG  PRO B   2       5.549  21.275  16.611  1.00 20.21 LIG 0.02  C 
ATOM      7  CD  PRO B   2       5.882  20.411  15.393  1.00 19.76 LIG 0.13  C 
ENDROOT
BRANCH 4 8
ATOM      8  C   PRO B   2       2.410  19.777  15.482  1.00 20.15 LIG 0.24  C 
ATOM      9 O    PRO B   2       2.394  19.904  14.239  1.00 19.46 LIG-0.27  OA
ATOM     10  N   LYS B   3       1.275  19.627  16.168  1.00 19.22 LIG-0.34  N 
ATOM     11 H    LYS B   3       1.257  19.547  17.024  1.00 19.22 LIG 0.16  HD
BRANCH 10 12
ATOM     12  CA  LYS B   3      -0.031  19.582  15.563  1.00 21.62 LIG 0.18  C 
BRANCH 12 13
ATOM     13  CB  LYS B   3      -0.523  18.153  15.288  1.00 23.55 LIG 0.04  C 
BRANCH 13 14
ATOM     14  CG  LYS B   3      -1.439  18.205  14.038  1.00 23.98 LIG 0.00  C 
BRANCH 14 15
ATOM     15  CD  LYS B   3      -2.141  16.861  13.939  1.00 25.73 LIG 0.03  C 
BRANCH 15 16
ATOM     16  CE  LYS B   3      -3.238  16.947  12.870  1.00 24.69 LIG 0.23  C 
BRANCH 16 17
ATOM     17  NZ  LYS B   3      -2.543  16.892  11.560  1.00 23.73 LIG-0.08  N 
ATOM     18 HZ3  LYS B   3      -1.987  16.197  11.548  1.00 23.73 LIG 0.27  HD
ATOM     19 HZ2  LYS B   3      -2.081  17.643  11.437  1.00 23.73 LIG 0.27  HD
ATOM     20 HZ1  LYS B   3      -3.142  16.803  10.909  1.00 23.73 LIG 0.27  HD
ENDBRANCH 16 17
ENDBRANCH 15 16
ENDBRANCH 14 15
ENDBRANCH 13 14
ENDBRANCH 12 13
BRANCH 12 21
ATOM     21  C   LYS B   3      -1.062  20.239  16.500  1.00 21.19 LIG 0.20  C 
ATOM     22 O    LYS B   3      -1.976  20.880  15.977  1.00 21.92 LIG-0.65  OA
ATOM     23 OXT  LYS B   3      -0.872  20.227  17.728  1.00 20.91 LIG-0.65  OA
ENDBRANCH 12 21
ENDBRANCH 10 12
ENDBRANCH 4 8
BRANCH 1 24
ATOM     24  CA  LYS B   1       6.103  17.704  14.264  1.00 16.81 LIG 0.28  C 
BRANCH 24 25
ATOM     25  N   LYS B   1       6.856  16.577  14.892  1.00 16.33 LIG-0.07  N 
ATOM     26 H2   LYS B   1       7.427  16.899  15.494  1.00 16.33 LIG 0.28  HD
ATOM     27 H1   LYS B   1       7.305  16.133  14.265  1.00 16.33 LIG 0.28  HD
ATOM     28 H3   LYS B   1       6.284  16.025  15.292  1.00 16.33 LIG 0.28  HD
ENDBRANCH 24 25
BRANCH 24 29
ATOM     29  CB  LYS B   1       5.618  17.234  12.857  1.00 20.04 LIG 0.04  C 
BRANCH 29 30
ATOM     30  CG  LYS B   1       4.832  15.928  12.819  1.00 22.28 LIG 0.00  C 
BRANCH 30 31
ATOM     31  CD  LYS B   1       4.617  15.416  11.374  1.00 23.07 LIG 0.03  C 
BRANCH 31 32
ATOM     32  CE  LYS B   1       5.903  14.934  10.720  1.00 23.39 LIG 0.23  C 
BRANCH 32 33
ATOM     33  NZ  LYS B   1       6.617  13.892  11.532  1.00 22.37 LIG-0.08  N 
ATOM     34 HZ3  LYS B   1       6.033  13.281  11.812  1.00 22.37 LIG 0.27  HD
ATOM     35 HZ1  LYS B   1       7.240  13.499  11.032  1.00 22.37 LIG 0.27  HD
ATOM     36 HZ2  LYS B   1       7.003  14.277  12.236  1.00 22.37 LIG 0.27  HD
ENDBRANCH 32 33
ENDBRANCH 31 32
ENDBRANCH 30 31
ENDBRANCH 29 30
ENDBRANCH 24 29
ENDBRANCH 1 24
TORSDOF 15
