USER: ADFR SOLUTION from run 0
USER: SCORE 19.698586 LL:  -1.443 LR: -18.332 RR:   0.000 FEB: -12.963
USER: RMSD 0.481965
USER: STATUS Locally minimized using BFGS
USER: GENES 20
USER: genes 0 Translation |==|  0.59479 0.61658 0.58357
USER: genes 1 Rotation |==|  0.50056 0.52586 0.50689 0.99928
USER: genes 2 Torsion [N]-CA--C-[N] |==|  0.36893
USER: genes 3 Torsion [C]-N--CA-[CB] |==|  0.31148
USER: genes 4 Torsion [N]-CA--CB-[CG] |==|  0.55636
USER: genes 5 Torsion [CA]-CB--CG-[CD] |==|  0.52245
USER: genes 6 Torsion [CB]-CG--CD-[CE] |==|  0.45166
USER: genes 7 Torsion [CG]-CD--CE-[NZ] |==|  0.24225
USER: genes 8 Torsion [CD]-CE--NZ-[HZ3] |==|  0.15480
USER: genes 9 Torsion [N]-CA--C-[O] |==|  0.43429
USER: genes 10 Torsion [C]-CA--CB-[CG] |==|  0.42647
USER: genes 11 Torsion [CA]-CB--CG-[OD2] |==|  0.31722
USER: genes 12 Torsion [C]-CA--N-[C] |==|  0.76640
USER: genes 13 Torsion [N]-C--CA-[N] |==|  0.39128
USER: genes 14 Torsion [C]-CA--N-[H1] |==|  0.43562
USER: genes 15 Torsion [C]-CA--CB-[CG] |==|  0.80698
USER: genes 16 Torsion [CA]-CB--CG-[CD] |==|  0.53340
USER: genes 17 Torsion [CB]-CG--CD-[CE] |==|  0.19498
USER: genes 18 Torsion [CG]-CD--CE-[NZ] |==|  0.15412
USER: genes 19 Torsion [CD]-CE--NZ-[HZ2] |==|  0.80785
ROOT
ATOM      1  CA  ASP B   2       3.670  19.956  16.010  1.00 12.46 LIG 0.19  C 
ENDROOT
BRANCH 1 2
ATOM      2  C   ASP B   2       2.320  19.866  15.324  1.00 13.53 LIG 0.24  C 
ATOM      3 O    ASP B   2       2.179  20.208  14.156  1.00 12.22 LIG-0.27  OA
ATOM      4  N   LYS B   3       1.318  19.339  16.052  1.00 12.18 LIG-0.34  N 
ATOM      5 H    LYS B   3       1.405  19.026  16.848  1.00 12.18 LIG 0.16  HD
BRANCH 4 6
ATOM      6  CA  LYS B   3      -0.019  19.268  15.510  1.00 15.26 LIG 0.18  C 
BRANCH 6 7
ATOM      7  CB  LYS B   3      -0.430  17.813  15.262  1.00 17.81 LIG 0.04  C 
BRANCH 7 8
ATOM      8  CG  LYS B   3      -1.600  17.878  14.233  1.00 19.62 LIG 0.00  C 
BRANCH 8 9
ATOM      9  CD  LYS B   3      -2.160  16.480  14.120  1.00 20.64 LIG 0.03  C 
BRANCH 9 10
ATOM     10  CE  LYS B   3      -3.559  16.503  13.484  1.00 20.59 LIG 0.23  C 
BRANCH 10 11
ATOM     11  NZ  LYS B   3      -3.348  16.449  12.012  1.00 21.98 LIG-0.08  N 
ATOM     12 HZ3  LYS B   3      -2.860  15.733  11.808  1.00 21.98 LIG 0.27  HD
ATOM     13 HZ1  LYS B   3      -4.136  16.397  11.601  1.00 21.98 LIG 0.27  HD
ATOM     14 HZ2  LYS B   3      -2.923  17.183  11.745  1.00 21.98 LIG 0.27  HD
ENDBRANCH 10 11
ENDBRANCH 9 10
ENDBRANCH 8 9
ENDBRANCH 7 8
ENDBRANCH 6 7
BRANCH 6 15
ATOM     15  C   LYS B   3      -1.029  19.875  16.493  1.00 16.28 LIG 0.20  C 
ATOM     16 O    LYS B   3      -2.094  20.285  15.972  1.00 16.01 LIG-0.65  OA
ATOM     17 OXT  LYS B   3      -0.714  20.101  17.678  1.00 15.00 LIG-0.65  OA
ENDBRANCH 6 15
ENDBRANCH 4 6
ENDBRANCH 1 2
BRANCH 1 18
ATOM     18  CB  ASP B   2       3.937  21.439  16.323  1.00 14.65 LIG 0.15  C 
BRANCH 18 19
ATOM     19  CG  ASP B   2       4.871  21.569  17.523  1.00 19.32 LIG 0.17  C 
ATOM     20 OD2  ASP B   2       5.984  22.054  17.304  1.00 20.30 LIG-0.65  OA
ATOM     21 OD1  ASP B   2       4.597  21.164  18.656  1.00 19.73 LIG-0.65  OA
ENDBRANCH 18 19
ENDBRANCH 1 18
BRANCH 1 22
ATOM     22  N   ASP B   2       4.754  19.449  15.143  1.00 11.86 LIG-0.34  N 
ATOM     23  C   LYS B   1       5.020  18.159  15.090  1.00 11.94 LIG 0.25  C 
ATOM     24 O    LYS B   1       4.361  17.312  15.709  1.00 10.64 LIG-0.27  OA
ATOM     25 H    ASP B   2       5.175  20.053  14.697  1.00 11.86 LIG 0.16  HD
BRANCH 23 26
ATOM     26  CA  LYS B   1       6.181  17.732  14.203  1.00 10.01 LIG 0.27  C 
BRANCH 26 27
ATOM     27  N   LYS B   1       6.942  16.631  14.882  1.00 10.36 LIG-0.07  N 
ATOM     28 H3   LYS B   1       6.373  16.100  15.315  1.00 10.36 LIG 0.28  HD
ATOM     29 H2   LYS B   1       7.519  16.982  15.462  1.00 10.36 LIG 0.28  HD
ATOM     30 H1   LYS B   1       7.386  16.157  14.273  1.00 10.36 LIG 0.28  HD
ENDBRANCH 26 27
BRANCH 26 31
ATOM     31  CB  LYS B   1       5.742  17.302  12.789  1.00 13.39 LIG 0.04  C 
BRANCH 31 32
ATOM     32  CG  LYS B   1       4.963  15.994  12.712  1.00 12.86 LIG 0.00  C 
BRANCH 32 33
ATOM     33  CD  LYS B   1       4.842  15.515  11.239  1.00 14.44 LIG 0.03  C 
BRANCH 33 34
ATOM     34  CE  LYS B   1       6.202  15.042  10.703  1.00 17.41 LIG 0.23  C 
BRANCH 34 35
ATOM     35  NZ  LYS B   1       6.822  13.984  11.539  1.00 17.68 LIG-0.08  N 
ATOM     36 HZ1  LYS B   1       7.534  13.654  11.119  1.00 17.68 LIG 0.27  HD
ATOM     37 HZ2  LYS B   1       7.072  14.330  12.319  1.00 17.68 LIG 0.27  HD
ATOM     38 HZ3  LYS B   1       6.232  13.332  11.679  1.00 17.68 LIG 0.27  HD
ENDBRANCH 34 35
ENDBRANCH 33 34
ENDBRANCH 32 33
ENDBRANCH 31 32
ENDBRANCH 26 31
ENDBRANCH 23 26
ENDBRANCH 1 22
TORSDOF 18
