USER: ADFR SOLUTION from run 0
USER: SCORE 19.204722 LL:  -1.205 LR: -18.084 RR:   0.000 FEB: -12.715
USER: RMSD 0.512548
USER: STATUS Locally minimized using BFGS
USER: GENES 20
USER: genes 0 Translation |==|  0.61696 0.61372 0.60920
USER: genes 1 Rotation |==|  0.49510 0.52819 0.49699 0.99917
USER: genes 2 Torsion [N]-CA--C-[N] |==|  0.39357
USER: genes 3 Torsion [C]-N--CA-[CB] |==|  0.29383
USER: genes 4 Torsion [N]-CA--CB-[CG] |==|  0.57375
USER: genes 5 Torsion [CA]-CB--CG-[CD] |==|  0.51219
USER: genes 6 Torsion [CB]-CG--CD-[CE] |==|  0.53118
USER: genes 7 Torsion [CG]-CD--CE-[NZ] |==|  0.90649
USER: genes 8 Torsion [CD]-CE--NZ-[HZ1] |==|  0.57145
USER: genes 9 Torsion [N]-CA--C-[OXT] |==|  0.43677
USER: genes 10 Torsion [C]-CA--CB-[OG] |==|  0.23256
USER: genes 11 Torsion [CA]-CB--OG-[HG] |==|  0.37015
USER: genes 12 Torsion [C]-CA--N-[C] |==|  0.75000
USER: genes 13 Torsion [N]-C--CA-[N] |==|  0.39775
USER: genes 14 Torsion [C]-CA--N-[H2] |==|  0.78326
USER: genes 15 Torsion [C]-CA--CB-[CG] |==|  0.78893
USER: genes 16 Torsion [CA]-CB--CG-[CD] |==|  0.53226
USER: genes 17 Torsion [CB]-CG--CD-[CE] |==|  0.18828
USER: genes 18 Torsion [CG]-CD--CE-[NZ] |==|  0.15160
USER: genes 19 Torsion [CD]-CE--NZ-[HZ1] |==|  0.48028
ROOT
ATOM      1  CA  SER B   2       3.848  20.235  15.973  1.00 10.18 LIG 0.20  C 
ENDROOT
BRANCH 1 2
ATOM      2  C   SER B   2       2.433  20.262  15.443  1.00  8.90 LIG 0.24  C 
ATOM      3  N   LYS B   3       1.408  20.081  16.318  1.00  6.95 LIG-0.34  N 
ATOM      4 H    LYS B   3       1.470  20.003  17.172  1.00  6.95 LIG 0.16  HD
ATOM      5 O    SER B   2       2.250  20.487  14.250  1.00  8.68 LIG-0.27  OA
BRANCH 3 6
ATOM      6  CA  LYS B   3       0.072  20.015  15.747  1.00 11.00 LIG 0.18  C 
BRANCH 6 7
ATOM      7  CB  LYS B   3      -0.525  18.599  15.720  1.00 14.39 LIG 0.04  C 
BRANCH 7 8
ATOM      8  CG  LYS B   3      -1.557  18.522  14.553  1.00 14.11 LIG 0.00  C 
BRANCH 8 9
ATOM      9  CD  LYS B   3      -2.274  17.201  14.511  1.00 17.93 LIG 0.03  C 
BRANCH 9 10
ATOM     10  CE  LYS B   3      -3.097  16.959  13.242  1.00 22.23 LIG 0.23  C 
BRANCH 10 11
ATOM     11  NZ  LYS B   3      -3.667  18.237  12.745  1.00 28.78 LIG-0.08  N 
ATOM     12 HZ1  LYS B   3      -4.404  18.071  12.274  1.00 28.78 LIG 0.27  HD
ATOM     13 HZ2  LYS B   3      -3.868  18.761  13.436  1.00 28.78 LIG 0.27  HD
ATOM     14 HZ3  LYS B   3      -3.070  18.646  12.226  1.00 28.78 LIG 0.27  HD
ENDBRANCH 10 11
ENDBRANCH 9 10
ENDBRANCH 8 9
ENDBRANCH 7 8
ENDBRANCH 6 7
BRANCH 6 15
ATOM     15  C   LYS B   3      -0.916  20.896  16.540  1.00 14.57 LIG 0.20  C 
ATOM     16 OXT  LYS B   3      -1.916  21.242  15.889  1.00 12.12 LIG-0.65  OA
ATOM     17 O    LYS B   3      -0.654  21.235  17.693  1.00  9.76 LIG-0.65  OA
ENDBRANCH 6 15
ENDBRANCH 3 6
ENDBRANCH 1 2
BRANCH 1 18
ATOM     18  CB  SER B   2       4.358  21.677  16.111  1.00 16.17 LIG 0.20  C 
BRANCH 18 19
ATOM     19 OG   SER B   2       3.927  22.231  17.351  1.00 18.91 LIG-0.40  OA
ATOM     20 HG   SER B   2       4.574  22.611  17.729  1.00 18.91 LIG 0.21  HD
ENDBRANCH 18 19
ENDBRANCH 1 18
BRANCH 1 21
ATOM     21  N   SER B   2       4.800  19.575  15.082  1.00 10.11 LIG-0.34  N 
ATOM     22 H    SER B   2       5.171  20.106  14.517  1.00 10.11 LIG 0.16  HD
ATOM     23  C   LYS B   1       5.064  18.281  15.142  1.00  8.46 LIG 0.25  C 
ATOM     24 O    LYS B   1       4.476  17.517  15.899  1.00  8.56 LIG-0.27  OA
BRANCH 23 25
ATOM     25  CA  LYS B   1       6.166  17.786  14.229  1.00  4.26 LIG 0.27  C 
BRANCH 25 26
ATOM     26  N   LYS B   1       6.982  16.712  14.877  1.00  4.35 LIG-0.07  N 
ATOM     27 H1   LYS B   1       7.435  16.266  14.254  1.00  4.35 LIG 0.28  HD
ATOM     28 H3   LYS B   1       6.444  16.151  15.310  1.00  4.35 LIG 0.28  HD
ATOM     29 H2   LYS B   1       7.553  17.080  15.453  1.00  4.35 LIG 0.28  HD
ENDBRANCH 25 26
BRANCH 25 30
ATOM     30  CB  LYS B   1       5.606  17.322  12.872  1.00  8.53 LIG 0.04  C 
BRANCH 30 31
ATOM     31  CG  LYS B   1       4.924  15.965  12.959  1.00  9.48 LIG 0.00  C 
BRANCH 31 32
ATOM     32  CD  LYS B   1       4.650  15.435  11.535  1.00 13.21 LIG 0.03  C 
BRANCH 32 33
ATOM     33  CE  LYS B   1       5.956  15.101  10.823  1.00 18.73 LIG 0.23  C 
BRANCH 33 34
ATOM     34  NZ  LYS B   1       6.792  14.148  11.627  1.00 15.92 LIG-0.08  N 
ATOM     35 HZ3  LYS B   1       6.305  13.436  11.843  1.00 15.92 LIG 0.27  HD
ATOM     36 HZ1  LYS B   1       7.495  13.892  11.145  1.00 15.92 LIG 0.27  HD
ATOM     37 HZ2  LYS B   1       7.072  14.552  12.369  1.00 15.92 LIG 0.27  HD
ENDBRANCH 33 34
ENDBRANCH 32 33
ENDBRANCH 31 32
ENDBRANCH 30 31
ENDBRANCH 25 30
ENDBRANCH 23 25
ENDBRANCH 1 21
TORSDOF 18
