USER: ADFR SOLUTION from run 0
USER: SCORE 23.431979 LL:  -1.594 LR: -21.909 RR:   0.000 FEB: -16.241
USER: RMSD 0.500543
USER: STATUS Locally minimized using BFGS
USER: GENES 21
USER: genes 0 Translation |==|  0.57586 0.61355 0.53375
USER: genes 1 Rotation |==|  0.50609 0.52351 0.48722 0.99925
USER: genes 2 Torsion [N]-CA--C-[N] |==|  0.38980
USER: genes 3 Torsion [C]-N--CA-[CB] |==|  0.29589
USER: genes 4 Torsion [N]-CA--CB-[CG] |==|  0.59080
USER: genes 5 Torsion [CA]-CB--CG-[CD] |==|  0.50705
USER: genes 6 Torsion [CB]-CG--CD-[CE] |==|  0.47196
USER: genes 7 Torsion [CG]-CD--CE-[NZ] |==|  0.24687
USER: genes 8 Torsion [CD]-CE--NZ-[HZ2] |==|  0.80217
USER: genes 9 Torsion [N]-CA--C-[OXT] |==|  0.92592
USER: genes 10 Torsion [C]-CA--CB-[CG] |==|  0.47515
USER: genes 11 Torsion [CA]-CB--CG-[CD1] |==|  0.75987
USER: genes 12 Torsion [CE1]-CZ--OH-[HH] |==|  0.14365
USER: genes 13 Torsion [C]-CA--N-[C] |==|  0.76622
USER: genes 14 Torsion [N]-C--CA-[N] |==|  0.40955
USER: genes 15 Torsion [C]-CA--CB-[CG] |==|  0.80864
USER: genes 16 Torsion [CA]-CB--CG-[CD] |==|  0.54479
USER: genes 17 Torsion [CB]-CG--CD-[CE] |==|  0.18226
USER: genes 18 Torsion [CG]-CD--CE-[NZ] |==|  0.14865
USER: genes 19 Torsion [CD]-CE--NZ-[HZ1] |==|  0.46476
USER: genes 20 Torsion [C]-CA--N-[H2] |==|  0.76415
ROOT
ATOM      1  CA  TYR B   2       3.971  20.726  16.311  1.00 10.27 LIG 0.18  C 
ENDROOT
BRANCH 1 2
ATOM      2  C   TYR B   2       2.639  20.730  15.574  1.00 12.73 LIG 0.24  C 
ATOM      3 O    TYR B   2       2.542  21.010  14.368  1.00 10.11 LIG-0.27  OA
ATOM      4  N   LYS B   3       1.576  20.478  16.338  1.00 12.59 LIG-0.34  N 
ATOM      5 H    LYS B   3       1.613  20.315  17.182  1.00 12.59 LIG 0.16  HD
BRANCH 4 6
ATOM      6  CA  LYS B   3       0.242  20.463  15.778  1.00 15.60 LIG 0.18  C 
BRANCH 6 7
ATOM      7  CB  LYS B   3      -0.370  19.068  15.631  1.00 14.29 LIG 0.04  C 
BRANCH 7 8
ATOM      8  CG  LYS B   3      -1.279  19.146  14.353  1.00 13.96 LIG 0.00  C 
BRANCH 8 9
ATOM      9  CD  LYS B   3      -2.007  17.847  14.110  1.00 18.12 LIG 0.03  C 
BRANCH 9 10
ATOM     10  CE  LYS B   3      -3.078  18.024  13.008  1.00 16.83 LIG 0.23  C 
BRANCH 10 11
ATOM     11  NZ  LYS B   3      -2.376  17.741  11.732  1.00 27.08 LIG-0.08  N 
ATOM     12 HZ3  LYS B   3      -1.920  16.980  11.807  1.00 27.08 LIG 0.27  HD
ATOM     13 HZ2  LYS B   3      -1.814  18.406  11.549  1.00 27.08 LIG 0.27  HD
ATOM     14 HZ1  LYS B   3      -2.972  17.666  11.076  1.00 27.08 LIG 0.27  HD
ENDBRANCH 10 11
ENDBRANCH 9 10
ENDBRANCH 8 9
ENDBRANCH 7 8
ENDBRANCH 6 7
BRANCH 6 15
ATOM     15  C   LYS B   3      -0.706  21.323  16.641  1.00 15.27 LIG 0.20  C 
ATOM     16 OXT  LYS B   3      -0.489  21.501  17.842  1.00 10.74 LIG-0.65  OA
ATOM     17 O    LYS B   3      -1.657  21.847  16.053  1.00 14.41 LIG-0.65  OA
ENDBRANCH 6 15
ENDBRANCH 4 6
ENDBRANCH 1 2
BRANCH 1 18
ATOM     18  CB  TYR B   2       4.271  22.210  16.684  1.00 10.39 LIG 0.07  C 
BRANCH 18 19
ATOM     19  CG  TYR B   2       5.466  22.301  17.613  1.00 11.96 LIG-0.06  A 
ATOM     20  CD1 TYR B   2       5.347  22.185  18.979  1.00 11.67 LIG 0.01  A 
ATOM     21  CE1 TYR B   2       6.424  22.248  19.847  1.00 13.01 LIG 0.04  A 
ATOM     22  CZ  TYR B   2       7.649  22.454  19.301  1.00 17.78 LIG 0.07  A 
ATOM     23  CE2 TYR B   2       7.814  22.590  17.932  1.00 20.17 LIG 0.04  A 
ATOM     24  CD2 TYR B   2       6.735  22.508  17.088  1.00 16.60 LIG 0.01  A 
BRANCH 22 25
ATOM     25 OH   TYR B   2       8.776  22.518  20.078  1.00 26.76 LIG-0.36  OA
ATOM     26 HH   TYR B   2       8.810  21.844  20.577  1.00 26.76 LIG 0.22  HD
ENDBRANCH 22 25
ENDBRANCH 18 19
ENDBRANCH 1 18
BRANCH 1 27
ATOM     27  N   TYR B   2       5.063  20.100  15.551  1.00  6.22 LIG-0.35  N 
ATOM     28 H    TYR B   2       5.547  20.662  15.117  1.00  6.22 LIG 0.16  HD
ATOM     29  C   LYS B   1       5.280  18.802  15.536  1.00  7.19 LIG 0.25  C 
ATOM     30 O    LYS B   1       4.544  17.975  16.135  1.00 11.44 LIG-0.27  OA
BRANCH 29 31
ATOM     31  CA  LYS B   1       6.429  18.304  14.677  1.00 10.22 LIG 0.27  C 
BRANCH 31 32
ATOM     32  CB  LYS B   1       5.922  18.048  13.234  1.00 11.18 LIG 0.04  C 
BRANCH 32 33
ATOM     33  CG  LYS B   1       4.971  16.882  13.073  1.00 13.69 LIG 0.00  C 
BRANCH 33 34
ATOM     34  CD  LYS B   1       4.784  16.402  11.640  1.00 14.37 LIG 0.03  C 
BRANCH 34 35
ATOM     35  CE  LYS B   1       6.054  15.797  11.016  1.00 18.49 LIG 0.23  C 
BRANCH 35 36
ATOM     36  NZ  LYS B   1       6.560  14.727  11.928  1.00 20.11 LIG-0.08  N 
ATOM     37 HZ1  LYS B   1       7.178  14.245  11.506  1.00 20.11 LIG 0.27  HD
ATOM     38 HZ2  LYS B   1       6.918  15.099  12.652  1.00 20.11 LIG 0.27  HD
ATOM     39 HZ3  LYS B   1       5.885  14.199  12.169  1.00 20.11 LIG 0.27  HD
ENDBRANCH 35 36
ENDBRANCH 34 35
ENDBRANCH 33 34
ENDBRANCH 32 33
ENDBRANCH 31 32
BRANCH 31 40
ATOM     40  N   LYS B   1       7.053  17.090  15.302  1.00 11.01 LIG-0.07  N 
ATOM     41 H1   LYS B   1       7.450  16.602  14.672  1.00 11.01 LIG 0.28  HD
ATOM     42 H2   LYS B   1       7.656  17.343  15.905  1.00 11.01 LIG 0.28  HD
ATOM     43 H3   LYS B   1       6.422  16.604  15.699  1.00 11.01 LIG 0.28  HD
ENDBRANCH 31 40
ENDBRANCH 29 31
ENDBRANCH 1 27
TORSDOF 19
