USER: ADFR SOLUTION from run 0
USER: SCORE 20.348905 LL:  -1.428 LR: -18.988 RR:   0.000 FEB: -13.619
USER: RMSD 0.650750
USER: STATUS Locally minimized using BFGS
USER: GENES 20
USER: genes 0 Translation |==|  0.63042 0.60637 0.59068
USER: genes 1 Rotation |==|  0.49305 0.52901 0.48759 0.99896
USER: genes 2 Torsion [N]-CA--C-[N] |==|  0.38412
USER: genes 3 Torsion [C]-N--CA-[CB] |==|  0.31556
USER: genes 4 Torsion [N]-CA--CB-[CG] |==|  0.54521
USER: genes 5 Torsion [CA]-CB--CG-[CD] |==|  0.44009
USER: genes 6 Torsion [CB]-CG--CD-[CE] |==|  0.54801
USER: genes 7 Torsion [CG]-CD--CE-[NZ] |==|  0.78246
USER: genes 8 Torsion [CD]-CE--NZ-[HZ3] |==|  0.26389
USER: genes 9 Torsion [N]-CA--C-[OXT] |==|  0.95279
USER: genes 10 Torsion [C]-CA--CB-[CG] |==|  0.41986
USER: genes 11 Torsion [CA]-CB--CG-[ND2] |==|  0.37766
USER: genes 12 Torsion [C]-CA--N-[C] |==|  0.76667
USER: genes 13 Torsion [N]-C--CA-[N] |==|  0.37780
USER: genes 14 Torsion [C]-CA--N-[H1] |==|  0.44770
USER: genes 15 Torsion [C]-CA--CB-[CG] |==|  0.76742
USER: genes 16 Torsion [CA]-CB--CG-[CD] |==|  0.54787
USER: genes 17 Torsion [CB]-CG--CD-[CE] |==|  0.17709
USER: genes 18 Torsion [CG]-CD--CE-[NZ] |==|  0.17466
USER: genes 19 Torsion [CD]-CE--NZ-[HZ2] |==|  0.76023
ROOT
ATOM      1  CA  ASN B   2       4.102  20.411  16.081  1.00 12.64 LIG 0.18  C 
ENDROOT
BRANCH 1 2
ATOM      2  C   ASN B   2       2.734  20.438  15.416  1.00 10.07 LIG 0.24  C 
ATOM      3 O    ASN B   2       2.601  20.629  14.210  1.00  8.89 LIG-0.27  OA
ATOM      4  N   LYS B   3       1.670  20.231  16.192  1.00 10.73 LIG-0.34  N 
ATOM      5 H    LYS B   3       1.715  20.092  17.040  1.00 10.73 LIG 0.16  HD
BRANCH 4 6
ATOM      6  CA  LYS B   3       0.333  20.224  15.660  1.00 12.20 LIG 0.18  C 
BRANCH 6 7
ATOM      7  CB  LYS B   3      -0.332  18.833  15.747  1.00 14.58 LIG 0.04  C 
BRANCH 7 8
ATOM      8  CG  LYS B   3      -1.549  18.821  14.813  1.00 22.14 LIG 0.00  C 
BRANCH 8 9
ATOM      9  CD  LYS B   3      -1.955  17.412  14.418  1.00 26.32 LIG 0.03  C 
BRANCH 9 10
ATOM     10  CE  LYS B   3      -2.866  17.437  13.182  1.00 28.31 LIG 0.23  C 
BRANCH 10 11
ATOM     11  NZ  LYS B   3      -4.229  17.826  13.672  1.00 33.82 LIG-0.08  N 
ATOM     12 HZ3  LYS B   3      -4.338  18.704  13.580  1.00 33.82 LIG 0.27  HD
ATOM     13 HZ2  LYS B   3      -4.309  17.607  14.531  1.00 33.82 LIG 0.27  HD
ATOM     14 HZ1  LYS B   3      -4.848  17.398  13.198  1.00 33.82 LIG 0.27  HD
ENDBRANCH 10 11
ENDBRANCH 9 10
ENDBRANCH 8 9
ENDBRANCH 7 8
ENDBRANCH 6 7
BRANCH 6 15
ATOM     15  C   LYS B   3      -0.559  21.185  16.471  1.00 15.69 LIG 0.20  C 
ATOM     16 OXT  LYS B   3      -0.207  21.576  17.578  1.00 12.46 LIG-0.65  OA
ATOM     17 O    LYS B   3      -1.638  21.554  16.030  1.00 19.93 LIG-0.65  OA
ENDBRANCH 6 15
ENDBRANCH 4 6
ENDBRANCH 1 2
BRANCH 1 18
ATOM     18  CB  ASN B   2       4.513  21.878  16.299  1.00 13.38 LIG 0.14  C 
BRANCH 18 19
ATOM     19  CG  ASN B   2       5.429  21.909  17.535  1.00 20.51 LIG 0.22  C 
ATOM     20  ND2 ASN B   2       6.529  22.617  17.530  1.00 23.58 LIG-0.37  N 
ATOM     21 21HD ASN B   2       7.041  22.622  18.222  1.00 23.58 LIG 0.16  HD
ATOM     22 22HD ASN B   2       6.741  23.079  16.836  1.00 23.58 LIG 0.16  HD
ATOM     23 OD1  ASN B   2       5.131  21.252  18.528  1.00 25.05 LIG-0.27  OA
ENDBRANCH 18 19
ENDBRANCH 1 18
BRANCH 1 24
ATOM     24  N   ASN B   2       5.100  19.702  15.279  1.00  8.35 LIG-0.35  N 
ATOM     25  C   LYS B   1       5.224  18.391  15.328  1.00  9.80 LIG 0.25  C 
ATOM     26 O    LYS B   1       4.571  17.686  16.089  1.00  9.20 LIG-0.27  OA
ATOM     27 H    ASN B   2       5.586  20.212  14.785  1.00  8.35 LIG 0.16  HD
BRANCH 25 28
ATOM     28  CA  LYS B   1       6.273  17.757  14.415  1.00  8.32 LIG 0.27  C 
BRANCH 28 29
ATOM     29  N   LYS B   1       7.050  16.715  15.164  1.00  7.62 LIG-0.07  N 
ATOM     30 H3   LYS B   1       6.497  16.243  15.676  1.00  7.62 LIG 0.28  HD
ATOM     31 H2   LYS B   1       7.662  17.111  15.674  1.00  7.62 LIG 0.28  HD
ATOM     32 H1   LYS B   1       7.454  16.173  14.585  1.00  7.62 LIG 0.28  HD
ENDBRANCH 28 29
BRANCH 28 33
ATOM     33  CB  LYS B   1       5.612  17.278  13.130  1.00 15.26 LIG 0.04  C 
BRANCH 33 34
ATOM     34  CG  LYS B   1       4.944  15.920  13.130  1.00 21.45 LIG 0.00  C 
BRANCH 34 35
ATOM     35  CD  LYS B   1       4.700  15.384  11.709  1.00 24.43 LIG 0.03  C 
BRANCH 35 36
ATOM     36  CE  LYS B   1       5.988  15.134  10.937  1.00 26.22 LIG 0.23  C 
BRANCH 36 37
ATOM     37  NZ  LYS B   1       6.834  14.078  11.585  1.00 19.44 LIG-0.08  N 
ATOM     38 HZ1  LYS B   1       7.345  13.688  10.970  1.00 19.44 LIG 0.27  HD
ATOM     39 HZ2  LYS B   1       7.350  14.451  12.206  1.00 19.44 LIG 0.27  HD
ATOM     40 HZ3  LYS B   1       6.308  13.468  11.964  1.00 19.44 LIG 0.27  HD
ENDBRANCH 36 37
ENDBRANCH 35 36
ENDBRANCH 34 35
ENDBRANCH 33 34
ENDBRANCH 28 33
ENDBRANCH 25 28
ENDBRANCH 1 24
TORSDOF 18
