REMARK  25 active torsions:
REMARK  status: ('A' for Active; 'I' for Inactive)
REMARK       I    between atoms: C_1  and  N_4 
REMARK    1  A    between atoms: CA_5  and  C_6 
REMARK       I    between atoms: C_6  and  N_11 
REMARK    2  A    between atoms: N_11  and  CA_12 
REMARK    3  A    between atoms: CA_12  and  CB_15 
REMARK    4  A    between atoms: CA_12  and  C_13 
REMARK       I    between atoms: C_13  and  N_23 
REMARK    5  A    between atoms: CB_15  and  CG_16 
REMARK    6  A    between atoms: CG_16  and  CD_17 
REMARK       I    between atoms: CD_17  and  NE2_19 
REMARK    7  A    between atoms: N_23  and  CA_24 
REMARK    8  A    between atoms: CA_24  and  C_25 
REMARK    9  A    between atoms: CA_24  and  CB_27 
REMARK       I    between atoms: C_25  and  N_35 
REMARK   10  A    between atoms: CB_27  and  CG_28 
REMARK   11  A    between atoms: CG_28  and  CD_29 
REMARK       I    between atoms: CD_29  and  NE2_31 
REMARK   12  A    between atoms: N_35  and  CA_36 
REMARK   13  A    between atoms: CA_36  and  C_37 
REMARK       I    between atoms: C_37  and  N_41 
REMARK   14  A    between atoms: N_41  and  CA_42 
REMARK   15  A    between atoms: CA_42  and  C_43 
REMARK   16  A    between atoms: CA_42  and  CB_45 
REMARK       I    between atoms: C_43  and  N_50 
REMARK   17  A    between atoms: CB_45  and  OG1_46 
REMARK   18  A    between atoms: N_50  and  CA_51 
REMARK   19  A    between atoms: CA_51  and  C_52 
REMARK   20  A    between atoms: CA_51  and  CB_54 
REMARK       I    between atoms: C_52  and  N_59 
REMARK   21  A    between atoms: CB_54  and  CG_55 
REMARK   22  A    between atoms: N_59  and  CA_60 
REMARK   23  A    between atoms: CA_60  and  C_61 
REMARK   24  A    between atoms: CA_60  and  CB_63 
REMARK   25  A    between atoms: CB_63  and  CG_64 
ROOT
ATOM      1  C   GLN D 206     -22.225  12.697  28.091  1.00 23.02     0.241 C 
ATOM      2  O   GLN D 206     -22.812  13.709  28.472  1.00 23.21    -0.271 OA
ATOM      3  N   ALA D 207     -21.844  12.503  26.831  1.00 22.72    -0.346 N 
ATOM      4  H   ALA D 207     -21.405  11.812  26.566  1.00 22.72     0.163 HD
ENDROOT
BRANCH   1   5
ATOM      5  CA  GLN D 206     -21.880  11.581  29.064  1.00 22.90     0.177 C 
BRANCH   5   6
ATOM      6  CB  GLN D 206     -22.988  10.520  29.014  1.00 23.00     0.044 C 
BRANCH   6   7
ATOM      7  CG  GLN D 206     -22.713   9.262  29.839  1.00 22.87     0.105 C 
BRANCH   7   8
ATOM      8  CD  GLN D 206     -23.796   8.212  29.658  1.00 23.72     0.215 C 
ATOM      9  NE2 GLN D 206     -23.391   6.982  29.348  1.00 23.17    -0.370 N 
ATOM     10 1HE2 GLN D 206     -22.552   6.816  29.257  1.00 23.17     0.159 HD
ATOM     11 2HE2 GLN D 206     -23.968   6.354  29.239  1.00 23.17     0.159 HD
ATOM     12  OE1 GLN D 206     -24.981   8.503  29.800  1.00 23.11    -0.274 OA
ENDBRANCH   7   8
ENDBRANCH   6   7
ENDBRANCH   5   6
BRANCH   5  13
ATOM     13  N   GLN D 206     -21.673  12.029  30.434  1.00 22.83    -0.346 N 
ATOM     14  H   GLN D 206     -22.333  11.872  30.962  1.00 22.83     0.163 HD
ATOM     15  C   GLN D 205     -20.548  12.628  30.811  1.00 23.49     0.241 C 
ATOM     16  O   GLN D 205     -19.621  12.873  30.037  1.00 22.46    -0.271 OA
BRANCH  15  17
ATOM     17  CA  GLN D 205     -20.452  13.012  32.277  1.00 24.37     0.177 C 
BRANCH  17  18
ATOM     18  N   GLN D 205     -19.083  12.768  32.709  1.00 25.17    -0.346 N 
ATOM     19  H   GLN D 205     -18.495  13.229  32.283  1.00 25.17     0.163 HD
ATOM     20  C   PRO D 204     -18.780  11.909  33.676  1.00 27.23     0.241 C 
ATOM     21  O   PRO D 204     -19.624  11.267  34.295  1.00 27.18    -0.271 OA
BRANCH  20  22
ATOM     22  CA  PRO D 204     -17.294  11.732  33.981  1.00 28.49     0.179 C 
ATOM     23  N   PRO D 204     -17.086  11.276  35.358  1.00 30.00    -0.339 N 
ATOM     24  CD  PRO D 204     -16.890   9.823  35.360  1.00 30.13     0.127 C 
HETATM   25  C   ACE D 203     -17.048  12.091  36.423  1.00 30.58     0.216 C 
ATOM     26  CG  PRO D 204     -15.996   9.686  34.184  1.00 30.43     0.022 C 
ATOM     27  CB  PRO D 204     -16.710  10.583  33.149  1.00 28.78     0.037 C 
HETATM   28  CH3 ACE D 203     -16.826  11.466  37.786  1.00 31.20     0.117 C 
HETATM   29  O   ACE D 203     -17.181  13.309  36.312  1.00 31.12    -0.274 OA
ENDBRANCH  20  22
ENDBRANCH  17  18
BRANCH  17  30
ATOM     30  CB  GLN D 205     -20.828  14.481  32.459  1.00 24.72     0.044 C 
BRANCH  30  31
ATOM     31  CG  GLN D 205     -20.923  14.897  33.910  1.00 27.03     0.105 C 
BRANCH  31  32
ATOM     32  CD  GLN D 205     -21.317  16.347  34.076  1.00 28.11     0.215 C 
ATOM     33  NE2 GLN D 205     -22.510  16.575  34.609  1.00 29.45    -0.370 N 
ATOM     34 1HE2 GLN D 205     -23.009  15.915  34.845  1.00 29.45     0.159 HD
ATOM     35 2HE2 GLN D 205     -22.785  17.383  34.719  1.00 29.45     0.159 HD
ATOM     36  OE1 GLN D 205     -20.564  17.253  33.722  1.00 29.17    -0.274 OA
ENDBRANCH  31  32
ENDBRANCH  30  31
ENDBRANCH  17  30
ENDBRANCH  15  17
ENDBRANCH   5  13
ENDBRANCH   1   5
BRANCH   3  37
ATOM     37  CA  ALA D 207     -22.143  13.461  25.775  1.00 22.93     0.172 C 
ATOM     38  CB  ALA D 207     -21.395  13.084  24.512  1.00 22.72     0.042 C 
BRANCH  37  39
ATOM     39  C   ALA D 207     -23.658  13.377  25.549  1.00 23.32     0.240 C 
ATOM     40  N   THR D 208     -24.255  14.400  24.945  1.00 24.11    -0.344 N 
ATOM     41  H   THR D 208     -23.849  15.098  24.650  1.00 24.11     0.163 HD
ATOM     42  O   ALA D 207     -24.277  12.379  25.913  1.00 22.54    -0.271 OA
BRANCH  40  43
ATOM     43  CA  THR D 208     -25.702  14.392  24.741  1.00 25.74     0.205 C 
BRANCH  43  44
ATOM     44  C   THR D 208     -26.235  13.869  23.408  1.00 27.84     0.243 C 
ATOM     45  N   ASP D 209     -25.420  13.872  22.359  1.00 27.84    -0.345 N 
ATOM     46  H   ASP D 209     -24.598  14.125  22.372  1.00 27.84     0.163 HD
ATOM     47  O   THR D 208     -27.393  13.455  23.334  1.00 27.83    -0.271 OA
BRANCH  45  48
ATOM     48  CA  ASP D 209     -25.918  13.418  21.063  1.00 29.52     0.186 C 
BRANCH  48  49
ATOM     49  C   ASP D 209     -25.197  12.264  20.374  1.00 30.14     0.241 C 
ATOM     50  O   ASP D 209     -25.191  12.206  19.147  1.00 31.34    -0.271 OA
ATOM     51  N   ASP D 210     -24.595  11.353  21.130  1.00 30.20    -0.344 N 
ATOM     52  H   ASP D 210     -24.582  11.363  21.990  1.00 30.20     0.163 HD
BRANCH  51  53
ATOM     53  CA  ASP D 210     -23.887  10.229  20.515  1.00 30.95     0.195 C 
BRANCH  53  54
ATOM     54  C   ASP D 210     -24.673   8.917  20.553  1.00 31.44     0.197 C 
ATOM     55  O   ASP D 210     -25.797   8.916  21.094  1.00 30.73    -0.646 OA
ATOM     56  OXT ASP D 210     -24.157   7.904  20.034  1.00 31.53    -0.646 OA
ENDBRANCH  53  54
BRANCH  53  57
ATOM     57  CB  ASP D 210     -22.519  10.036  21.181  1.00 31.88     0.149 C 
BRANCH  57  58
ATOM     58  CG  ASP D 210     -22.603   9.980  22.689  1.00 32.06     0.175 C 
ATOM     59  OD2 ASP D 210     -23.711  10.130  23.249  1.00 32.64    -0.648 OA
ATOM     60  OD1 ASP D 210     -21.544   9.791  23.316  1.00 34.58    -0.648 OA
ENDBRANCH  57  58
ENDBRANCH  53  57
ENDBRANCH  51  53
ENDBRANCH  48  49
BRANCH  48  61
ATOM     61  CB  ASP D 209     -25.953  14.589  20.081  1.00 29.28     0.147 C 
BRANCH  61  62
ATOM     62  CG  ASP D 209     -24.582  15.180  19.838  1.00 30.36     0.175 C 
ATOM     63  OD2 ASP D 209     -24.503  16.372  19.478  1.00 30.91    -0.648 OA
ATOM     64  OD1 ASP D 209     -23.583  14.442  19.981  1.00 31.75    -0.648 OA
ENDBRANCH  61  62
ENDBRANCH  48  61
ENDBRANCH  45  48
ENDBRANCH  43  44
BRANCH  43  65
ATOM     65  CB  THR D 208     -26.311  15.800  24.938  1.00 25.82     0.146 C 
ATOM     66  CG2 THR D 208     -25.909  16.376  26.288  1.00 25.57     0.042 C 
BRANCH  65  67
ATOM     67  OG1 THR D 208     -25.853  16.672  23.899  1.00 26.97    -0.393 OA
ATOM     68  HG1 THR D 208     -25.026  16.572  23.794  1.00 26.97     0.210 HD
ENDBRANCH  65  67
ENDBRANCH  43  65
ENDBRANCH  40  43
ENDBRANCH  37  39
ENDBRANCH   3  37
TORSDOF 25
