USER: ADFR SOLUTION from run 0
USER: SCORE 14.568493 LL:  -3.127 LR: -14.004 RR:   0.000 FEB:  -8.635
USER: RMSD 0.480162
USER: STATUS Locally minimized using BFGS
USER: GENES 20
USER: genes 0 Translation |==|  0.52078 0.43244 0.52401
USER: genes 1 Rotation |==|  0.49832 0.52049 0.50383 0.99956
USER: genes 2 Torsion [C]-CA--N-[C] |==|  0.84279
USER: genes 3 Torsion [N]-C--CA-[N] |==|  0.32222
USER: genes 4 Torsion [C]-CA--N-[C] |==|  0.67557
USER: genes 5 Torsion [N]-C--CA-[CB] |==|  0.75366
USER: genes 6 Torsion [C]-CA--CB-[CG2] |==|  0.47947
USER: genes 7 Torsion [N]-CA--C-[N] |==|  0.41286
USER: genes 8 Torsion [C]-N--CA-[CB] |==|  0.46289
USER: genes 9 Torsion [N]-CA--CB-[CG] |==|  0.20249
USER: genes 10 Torsion [CA]-CB--CG-[CD] |==|  0.53089
USER: genes 11 Torsion [CB]-CG--CD-[OE2] |==|  0.39910
USER: genes 12 Torsion [N]-CA--C-[N] |==|  0.43335
USER: genes 13 Torsion [C]-N--CA-[CB] |==|  0.38707
USER: genes 14 Torsion [N]-CA--CB-[CG2] |==|  0.40648
USER: genes 15 Torsion [CA]-CB--OG1-[HG1] |==|  0.49913
USER: genes 16 Torsion [N]-CA--C-[N] |==|  0.87120
USER: genes 17 Torsion [N]-CA--CB-[CG] |==|  0.81974
USER: genes 18 Torsion [CA]-CB--CG-[CD] |==|  0.54788
USER: genes 19 Torsion [CB]-CG--CD-[NE2] |==|  0.36704
ROOT
ATOM      1  CA  GLN I 252      24.459   5.297 -18.830  1.00 16.23 LIG 0.18  C 
ENDROOT
BRANCH 1 2
ATOM      2  N   GLN I 252      24.055   5.015 -20.204  1.00 16.34 LIG-0.35  N 
ATOM      3  C   VAL I 251      22.938   5.546 -20.703  1.00 18.16 LIG 0.24  C 
ATOM      4 O    VAL I 251      22.194   6.285 -20.046  1.00 14.74 LIG-0.27  OA
ATOM      5 H    GLN I 252      24.585   4.495 -20.639  1.00 16.34 LIG 0.16  HD
BRANCH 3 6
ATOM      6  CA  VAL I 251      22.591   5.193 -22.155  1.00 17.69 LIG 0.18  C 
BRANCH 6 7
ATOM      7  N   VAL I 251      21.344   4.448 -22.111  1.00 18.42 LIG-0.35  N 
ATOM      8  C   PRO I 250      21.227   3.186 -22.501  1.00 18.71 LIG 0.24  C 
ATOM      9 O    PRO I 250      22.165   2.518 -22.939  1.00 17.39 LIG-0.27  OA
ATOM     10 H    VAL I 251      20.683   4.906 -21.806  1.00 18.42 LIG 0.16  HD
BRANCH 8 11
ATOM     11  CA  PRO I 250      19.840   2.573 -22.344  1.00 18.98 LIG 0.18  C 
ATOM     12  CB  PRO I 250      19.687   1.946 -20.951  1.00 18.07 LIG 0.04  C 
ATOM     13  CG  PRO I 250      19.193   0.526 -21.228  1.00 16.66 LIG 0.02  C 
ATOM     14  CD  PRO I 250      19.867   0.184 -22.500  1.00 18.50 LIG 0.13  C 
ATOM     15  N   PRO I 250      19.669   1.430 -23.248  1.00 18.66 LIG-0.34  N 
ATOM     16  C   ACE I 249      19.398   1.543 -24.556  1.00 19.73 LIG 0.22  C 
ATOM     17 O    ACE I 249      19.284   2.646 -25.109  1.00 18.17 LIG-0.27  OA
ATOM     18  CH3 ACE I 249      19.248   0.261 -25.352  1.00 18.86 LIG 0.12  C 
ENDBRANCH 8 11
ENDBRANCH 6 7
BRANCH 6 19
ATOM     19  CB  VAL I 251      22.417   6.491 -22.993  1.00 19.17 LIG 0.01  C 
ATOM     20  CG2 VAL I 251      22.254   6.130 -24.463  1.00 18.02 LIG 0.01  C 
ATOM     21  CG1 VAL I 251      23.615   7.416 -22.818  1.00 18.69 LIG 0.01  C 
ENDBRANCH 6 19
ENDBRANCH 3 6
ENDBRANCH 1 2
BRANCH 1 22
ATOM     22  C   GLN I 252      24.595   6.782 -18.587  1.00 16.56 LIG 0.24  C 
ATOM     23 O    GLN I 252      24.946   7.543 -19.492  1.00 16.02 LIG-0.27  OA
ATOM     24  N   GLU I 253      24.315   7.192 -17.353  1.00 16.36 LIG-0.35  N 
ATOM     25 H    GLU I 253      24.060   6.675 -16.716  1.00 16.36 LIG 0.16  HD
BRANCH 24 26
ATOM     26  CA  GLU I 253      24.428   8.594 -16.993  1.00 16.29 LIG 0.18  C 
BRANCH 26 27
ATOM     27  CB  GLU I 253      23.751   8.877 -15.648  1.00 17.20 LIG 0.04  C 
BRANCH 27 28
ATOM     28  CG  GLU I 253      24.507   8.351 -14.451  1.00 17.14 LIG 0.12  C 
BRANCH 28 29
ATOM     29  CD  GLU I 253      23.694   8.403 -13.162  1.00 16.40 LIG 0.17  C 
ATOM     30 OE2  GLU I 253      23.831   7.475 -12.332  1.00 15.77 LIG-0.65  OA
ATOM     31 OE1  GLU I 253      22.943   9.383 -12.968  1.00 15.17 LIG-0.65  OA
ENDBRANCH 28 29
ENDBRANCH 27 28
ENDBRANCH 26 27
BRANCH 26 32
ATOM     32  C   GLU I 253      25.908   8.893 -16.872  1.00 17.65 LIG 0.24  C 
ATOM     33 O    GLU I 253      26.719   8.005 -16.610  1.00 15.54 LIG-0.27  OA
ATOM     34  N   THR I 254      26.227  10.168 -17.045  1.00 18.98 LIG-0.34  N 
ATOM     35 H    THR I 254      25.638  10.772 -17.212  1.00 18.98 LIG 0.16  HD
BRANCH 34 36
ATOM     36  CA  THR I 254      27.579  10.697 -16.975  1.00 17.93 LIG 0.21  C 
BRANCH 36 37
ATOM     37  CB  THR I 254      27.765  11.741 -18.096  1.00 16.77 LIG 0.15  C 
ATOM     38  CG2 THR I 254      28.673  12.832 -17.668  1.00 17.84 LIG 0.04  C 
BRANCH 37 39
ATOM     39 OG1  THR I 254      28.249  11.101 -19.284  1.00 18.79 LIG-0.39  OA
ATOM     40 HG1  THR I 254      28.345  11.673 -19.892  1.00 18.79 LIG 0.21  HD
ENDBRANCH 37 39
ENDBRANCH 36 37
BRANCH 36 41
ATOM     41  C   THR I 254      27.869  11.325 -15.599  1.00 19.04 LIG 0.29  C 
ATOM     42 O    THR I 254      28.952  11.051 -15.048  1.00 18.19 LIG-0.27  OA
ATOM     43  N   NH2 I 255      27.029  12.099 -15.087  1.00 17.54 LIG-0.11  N 
ENDBRANCH 36 41
ENDBRANCH 34 36
ENDBRANCH 26 32
ENDBRANCH 24 26
ENDBRANCH 1 22
BRANCH 1 44
ATOM     44  CB  GLN I 252      25.792   4.638 -18.474  1.00 17.05 LIG 0.04  C 
BRANCH 44 45
ATOM     45  CG  GLN I 252      25.787   3.117 -18.473  1.00 16.15 LIG 0.10  C 
BRANCH 45 46
ATOM     46  CD  GLN I 252      26.977   2.551 -17.724  1.00 17.21 LIG 0.21  C 
ATOM     47  NE2 GLN I 252      26.723   1.590 -16.839  1.00 17.56 LIG-0.37  N 
ATOM     48 21HE GLN I 252      25.915   1.320 -16.718  1.00 17.56 LIG 0.16  HD
ATOM     49 22HE GLN I 252      27.366   1.240 -16.389  1.00 17.56 LIG 0.16  HD
ATOM     50 OE1  GLN I 252      28.108   2.972 -17.936  1.00 16.83 LIG-0.27  OA
ENDBRANCH 45 46
ENDBRANCH 44 45
ENDBRANCH 1 44
TORSDOF 18
