REMARK  20 active torsions:
REMARK  status: ('A' for Active; 'I' for Inactive)
REMARK       I    between atoms: C_1  and  N_4 
REMARK    1  A    between atoms: CA_5  and  C_6 
REMARK       I    between atoms: C_6  and  N_11 
REMARK    2  A    between atoms: N_11  and  CA_12 
REMARK    3  A    between atoms: CA_12  and  C_13 
REMARK    4  A    between atoms: CA_12  and  CB_15 
REMARK       I    between atoms: C_13  and  N_20 
REMARK    5  A    between atoms: CB_15  and  CG1_16 
REMARK    6  A    between atoms: N_20  and  CA_21 
REMARK    7  A    between atoms: CA_21  and  C_22 
REMARK    8  A    between atoms: CA_21  and  CB_24 
REMARK       I    between atoms: C_22  and  N_32 
REMARK    9  A    between atoms: CB_24  and  CG_25 
REMARK   10  A    between atoms: CG_25  and  CD_26 
REMARK       I    between atoms: CD_26  and  NE2_28 
REMARK   11  A    between atoms: N_32  and  CA_33 
REMARK   12  A    between atoms: CA_33  and  C_34 
REMARK   13  A    between atoms: CA_33  and  CB_36 
REMARK       I    between atoms: C_34  and  N_42 
REMARK   14  A    between atoms: CB_36  and  CG_37 
REMARK   15  A    between atoms: CG_37  and  CD_38 
REMARK   16  A    between atoms: N_42  and  CA_43 
REMARK   17  A    between atoms: CA_43  and  C_44 
REMARK   18  A    between atoms: CA_43  and  CB_46 
REMARK   19  A    between atoms: CB_46  and  CG_47 
REMARK   20  A    between atoms: CG_47  and  CD_48 
ROOT
ATOM      1  CA  GLN G 264      25.011  39.727  62.698  1.00 24.93     0.177 C 
ENDROOT
BRANCH   1   2
ATOM      2  N   GLN G 264      24.117  39.229  63.736  1.00 24.45    -0.346 N 
ATOM      3  H   GLN G 264      24.364  39.397  64.542  1.00 24.45     0.163 HD
ATOM      4  C   ILE G 263      23.013  38.569  63.405  1.00 25.21     0.241 C 
ATOM      5  O   ILE G 263      22.708  38.336  62.234  1.00 24.71    -0.271 OA
BRANCH   4   6
ATOM      6  CA  ILE G 263      22.114  38.098  64.546  1.00 25.39     0.180 C 
BRANCH   6   7
ATOM      7  N   ILE G 263      20.741  38.436  64.194  1.00 26.84    -0.346 N 
ATOM      8  H   ILE G 263      20.474  38.082  63.457  1.00 26.84     0.163 HD
ATOM      9  C   PRO G 262      19.978  39.219  64.947  1.00 27.66     0.241 C 
ATOM     10  O   PRO G 262      20.355  39.702  66.011  1.00 28.28    -0.271 OA
BRANCH   9  11
ATOM     11  CA  PRO G 262      18.573  39.492  64.417  1.00 28.51     0.179 C 
ATOM     12  CB  PRO G 262      18.532  40.693  63.473  1.00 28.21     0.037 C 
ATOM     13  CG  PRO G 262      18.319  41.850  64.458  1.00 28.36     0.022 C 
ATOM     14  CD  PRO G 262      17.160  41.262  65.231  1.00 29.26     0.127 C 
ATOM     15  N   PRO G 262      17.646  39.893  65.478  1.00 29.83    -0.339 N 
HETATM   16  C   ACE G 261      17.340  39.057  66.479  1.00 31.20     0.216 C 
HETATM   17  O   ACE G 261      17.823  37.925  66.542  1.00 31.65    -0.274 OA
HETATM   18  CH3 ACE G 261      16.373  39.540  67.543  1.00 31.68     0.117 C 
ENDBRANCH   9  11
ENDBRANCH   6   7
BRANCH   6  19
ATOM     19  CB  ILE G 263      22.274  36.572  64.726  1.00 25.89     0.013 C 
ATOM     20  CG2 ILE G 263      23.742  36.222  64.941  1.00 25.32     0.012 C 
BRANCH  19  21
ATOM     21  CG1 ILE G 263      21.410  36.096  65.901  1.00 25.77     0.002 C 
ATOM     22  CD1 ILE G 263      21.424  34.587  66.121  1.00 27.45     0.005 C 
ENDBRANCH  19  21
ENDBRANCH   6  19
ENDBRANCH   4   6
ENDBRANCH   1   2
BRANCH   1  23
ATOM     23  C   GLN G 264      25.776  38.621  61.994  1.00 25.80     0.241 C 
ATOM     24  N   GLU G 265      26.092  38.869  60.730  1.00 25.54    -0.346 N 
ATOM     25  H   GLU G 265      25.871  39.588  60.313  1.00 25.54     0.163 HD
ATOM     26  O   GLN G 264      26.072  37.574  62.575  1.00 23.91    -0.271 OA
BRANCH  24  27
ATOM     27  CA  GLU G 265      26.853  37.926  59.934  1.00 27.50     0.177 C 
BRANCH  27  28
ATOM     28  C   GLU G 265      28.256  37.921  60.534  1.00 28.95     0.241 C 
ATOM     29  N   GLU G 266      28.949  36.790  60.452  1.00 30.90    -0.345 N 
ATOM     30  H   GLU G 266      28.659  36.061  60.101  1.00 30.90     0.163 HD
ATOM     31  O   GLU G 265      28.704  38.935  61.075  1.00 27.90    -0.271 OA
BRANCH  29  32
ATOM     32  CA  GLU G 266      30.304  36.728  60.980  1.00 33.40     0.186 C 
BRANCH  32  33
ATOM     33  C   GLU G 266      31.289  36.922  59.840  1.00 34.22     0.196 C 
ATOM     34  O   GLU G 266      30.839  36.894  58.674  1.00 35.29    -0.646 OA
ATOM     35  OXT GLU G 266      32.495  37.081  60.129  1.00 35.25    -0.646 OA
ENDBRANCH  32  33
BRANCH  32  36
ATOM     36  CB  GLU G 266      30.577  35.380  61.653  1.00 34.59     0.046 C 
BRANCH  36  37
ATOM     37  CG  GLU G 266      29.726  35.104  62.879  1.00 35.99     0.116 C 
BRANCH  37  38
ATOM     38  CD  GLU G 266      30.149  33.836  63.601  1.00 37.74     0.172 C 
ATOM     39  OE1 GLU G 266      29.490  33.478  64.603  1.00 38.97    -0.648 OA
ATOM     40  OE2 GLU G 266      31.142  33.205  63.170  1.00 36.82    -0.648 OA
ENDBRANCH  37  38
ENDBRANCH  36  37
ENDBRANCH  32  36
ENDBRANCH  29  32
ENDBRANCH  27  28
BRANCH  27  41
ATOM     41  CB  GLU G 265      26.921  38.404  58.479  1.00 27.49     0.045 C 
BRANCH  41  42
ATOM     42  CG  GLU G 265      27.778  39.650  58.284  1.00 27.71     0.116 C 
BRANCH  42  43
ATOM     43  CD  GLU G 265      27.756  40.186  56.858  1.00 28.38     0.172 C 
ATOM     44  OE1 GLU G 265      27.874  39.379  55.908  1.00 27.39    -0.648 OA
ATOM     45  OE2 GLU G 265      27.646  41.423  56.693  1.00 28.48    -0.648 OA
ENDBRANCH  42  43
ENDBRANCH  41  42
ENDBRANCH  27  41
ENDBRANCH  24  27
ENDBRANCH   1  23
BRANCH   1  46
ATOM     46  CB  GLN G 264      26.026  40.723  63.270  1.00 25.62     0.044 C 
BRANCH  46  47
ATOM     47  CG  GLN G 264      25.433  41.976  63.901  1.00 26.81     0.105 C 
BRANCH  47  48
ATOM     48  CD  GLN G 264      26.504  43.008  64.239  1.00 28.09     0.215 C 
ATOM     49  NE2 GLN G 264      26.308  44.244  63.785  1.00 27.12    -0.370 N 
ATOM     50 1HE2 GLN G 264      25.605  44.427  63.325  1.00 27.12     0.159 HD
ATOM     51 2HE2 GLN G 264      26.884  44.860  63.952  1.00 27.12     0.159 HD
ATOM     52  OE1 GLN G 264      27.494  42.694  64.903  1.00 28.52    -0.274 OA
ENDBRANCH  47  48
ENDBRANCH  46  47
ENDBRANCH   1  46
TORSDOF 20
