USER: ADFR SOLUTION from run 0
USER: SCORE 10.633112 LL:  -4.630 LR:  -6.947 RR:   0.000 FEB:  -2.771
USER: RMSD 0.556758
USER: STATUS Locally minimized using BFGS
USER: GENES 16
USER: genes 0 Translation |==|  0.38261 0.42704 0.40626
USER: genes 1 Rotation |==|  0.48168 0.48273 0.50774 0.99931
USER: genes 2 Torsion [CB]-CA--N-[C] |==|  0.46903
USER: genes 3 Torsion [N]-C--CA-[N] |==|  0.41485
USER: genes 4 Torsion [N]-C--CA-[N] |==|  0.43278
USER: genes 5 Torsion [N]-C--CA-[N] |==|  0.39263
USER: genes 6 Torsion [C]-CA--CB-[CG2] |==|  0.49563
USER: genes 7 Torsion [CA]-CB--OG1-[HG1] |==|  0.90553
USER: genes 8 Torsion [N]-CA--C-[N] |==|  0.41135
USER: genes 9 Torsion [N]-CA--C-[N] |==|  0.09555
USER: genes 10 Torsion [C]-N--CA-[CB] |==|  0.43777
USER: genes 11 Torsion [N]-CA--CB-[CG] |==|  0.85124
USER: genes 12 Torsion [CA]-CB--CG-[CD1] |==|  0.30634
USER: genes 13 Torsion [N]-CA--C-[O] |==|  0.45948
USER: genes 14 Torsion [N]-CA--CB-[OG] |==|  0.14894
USER: genes 15 Torsion [CA]-CB--OG-[HG] |==|  0.49974
ROOT
ATOM      1  CA  SER B1004       9.785  18.456  -2.345  1.00 32.51 LIG 0.20  C 
ENDROOT
BRANCH 1 2
ATOM      2  N   SER B1004      11.115  18.477  -2.932  1.00 30.80 LIG-0.34  N 
ATOM      3 H    SER B1004      11.137  18.530  -3.791  1.00 30.80 LIG 0.16  HD
ATOM      4  C   PRO B1003      12.181  18.417  -2.147  1.00 29.50 LIG 0.24  C 
ATOM      5 O    PRO B1003      12.087  18.353  -0.920  1.00 26.59 LIG-0.27  OA
BRANCH 4 6
ATOM      6  CA  PRO B1003      13.557  18.433  -2.822  1.00 29.25 LIG 0.18  C 
ATOM      7  CB  PRO B1003      14.123  17.016  -2.938  1.00 27.80 LIG 0.04  C 
ATOM      8  CG  PRO B1003      15.552  17.150  -2.487  1.00 32.17 LIG 0.02  C 
ATOM      9  CD  PRO B1003      15.462  18.144  -1.356  1.00 30.31 LIG 0.13  C 
ATOM     10  N   PRO B1003      14.453  19.087  -1.864  1.00 27.10 LIG-0.34  N 
ATOM     11  C   PRO B1002      14.348  20.404  -1.636  1.00 28.33 LIG 0.24  C 
ATOM     12 O    PRO B1002      13.538  21.104  -2.230  1.00 27.60 LIG-0.27  OA
BRANCH 11 13
ATOM     13  CA  PRO B1002      15.301  21.003  -0.609  1.00 29.68 LIG 0.18  C 
ATOM     14  N   PRO B1002      15.574  22.435  -0.752  1.00 30.07 LIG-0.34  N 
ATOM     15  CD  PRO B1002      15.251  23.146   0.500  1.00 30.93 LIG 0.13  C 
ATOM     16  C   THR B1001      16.125  23.022  -1.855  1.00 31.77 LIG 0.26  C 
ATOM     17  CG  PRO B1002      15.339  22.046   1.517  1.00 29.32 LIG 0.02  C 
ATOM     18  CB  PRO B1002      14.713  20.902   0.797  1.00 30.61 LIG 0.04  C 
ATOM     19 O    THR B1001      16.414  22.336  -2.841  1.00 28.08 LIG-0.27  OA
BRANCH 16 20
ATOM     20  CA  THR B1001      16.338  24.524  -1.810  1.00 31.25 LIG 0.43  C 
ATOM     21  N   THR B1001      17.590  24.882  -2.451  1.00 31.78 LIG 0.62  N 
BRANCH 20 22
ATOM     22  CB  THR B1001      15.150  25.234  -2.461  1.00 33.83 LIG 0.16  C 
ATOM     23  CG2 THR B1001      15.328  26.742  -2.390  1.00 26.93 LIG 0.04  C 
BRANCH 22 24
ATOM     24 OG1  THR B1001      15.037  24.824  -3.829  1.00 35.47 LIG-0.39  OA
ATOM     25 HG1  THR B1001      15.803  24.687  -4.145  1.00 35.47 LIG 0.21  HD
ENDBRANCH 22 24
ENDBRANCH 20 22
ENDBRANCH 16 20
ENDBRANCH 11 13
ENDBRANCH 4 6
ENDBRANCH 1 2
BRANCH 1 26
ATOM     26  C   SER B1004       9.540  17.052  -1.797  1.00 31.12 LIG 0.24  C 
ATOM     27 O    SER B1004      10.059  16.079  -2.326  1.00 31.43 LIG-0.27  OA
ATOM     28  N   PRO B1005       8.767  16.930  -0.712  1.00 32.50 LIG-0.34  N 
ATOM     29  CA  PRO B1005       8.088  17.981   0.051  1.00 31.67 LIG 0.18  C 
ATOM     30  CD  PRO B1005       8.278  15.599  -0.300  1.00 32.99 LIG 0.13  C 
ATOM     31  CB  PRO B1005       6.775  17.318   0.417  1.00 32.97 LIG 0.04  C 
ATOM     32  CG  PRO B1005       7.230  15.934   0.773  1.00 32.33 LIG 0.02  C 
BRANCH 29 33
ATOM     33  C   PRO B1005       8.875  18.386   1.301  1.00 31.95 LIG 0.24  C 
ATOM     34  N   PHE B1006      10.202  18.361   1.213  1.00 29.16 LIG-0.34  N 
ATOM     35 H    PHE B1006      10.637  18.154   0.500  1.00 29.16 LIG 0.16  HD
ATOM     36 O    PRO B1005       8.281  18.720   2.327  1.00 29.71 LIG-0.27  OA
BRANCH 34 37
ATOM     37  CA  PHE B1006      11.034  18.693   2.361  1.00 29.49 LIG 0.19  C 
BRANCH 37 38
ATOM     38  CB  PHE B1006      12.422  18.075   2.195  1.00 24.64 LIG 0.07  C 
BRANCH 38 39
ATOM     39  CG  PHE B1006      12.396  16.598   1.929  1.00 23.14 LIG-0.06  A 
ATOM     40  CD2 PHE B1006      12.011  15.707   2.923  1.00 22.25 LIG 0.01  A 
ATOM     41  CE2 PHE B1006      11.985  14.323   2.675  1.00 23.88 LIG 0.00  A 
ATOM     42  CZ  PHE B1006      12.347  13.839   1.424  1.00 22.95 LIG 0.00  A 
ATOM     43  CE1 PHE B1006      12.735  14.732   0.423  1.00 21.15 LIG 0.00  A 
ATOM     44  CD1 PHE B1006      12.756  16.096   0.681  1.00 23.85 LIG 0.01  A 
ENDBRANCH 38 39
ENDBRANCH 37 38
BRANCH 37 45
ATOM     45  C   PHE B1006      11.157  20.188   2.620  1.00 30.13 LIG 0.20  C 
ATOM     46 O    PHE B1006      11.611  20.549   3.726  1.00 31.00 LIG-0.65  OA
ATOM     47 OXT  PHE B1006      10.808  20.980   1.721  1.00 32.43 LIG-0.65  OA
ENDBRANCH 37 45
ENDBRANCH 34 37
ENDBRANCH 29 33
ENDBRANCH 1 26
BRANCH 1 48
ATOM     48  CB  SER B1004       8.736  18.811  -3.399  1.00 35.03 LIG 0.20  C 
BRANCH 48 49
ATOM     49 OG   SER B1004       8.879  17.967  -4.524  1.00 42.75 LIG-0.40  OA
ATOM     50 HG   SER B1004       8.300  18.165  -5.099  1.00 42.75 LIG 0.21  HD
ENDBRANCH 48 49
ENDBRANCH 1 48
TORSDOF 14
