REMARK  14 active torsions:
REMARK  status: ('A' for Active; 'I' for Inactive)
REMARK    1  A    between atoms: CA_2  and  CB_5 
REMARK    2  A    between atoms: CA_2  and  C_3 
REMARK       I    between atoms: C_3  and  N_9 
REMARK    3  A    between atoms: CB_5  and  OG1_6 
REMARK    4  A    between atoms: CA_10  and  C_11 
REMARK       I    between atoms: C_11  and  N_16 
REMARK    5  A    between atoms: CA_17  and  C_18 
REMARK       I    between atoms: C_18  and  N_23 
REMARK    6  A    between atoms: N_23  and  CA_24 
REMARK    7  A    between atoms: CA_24  and  C_25 
REMARK    8  A    between atoms: CA_24  and  CB_27 
REMARK       I    between atoms: C_25  and  N_31 
REMARK    9  A    between atoms: CB_27  and  OG_28 
REMARK   10  A    between atoms: CA_32  and  C_33 
REMARK       I    between atoms: C_33  and  N_38 
REMARK   11  A    between atoms: N_38  and  CA_39 
REMARK   12  A    between atoms: CA_39  and  CB_42 
REMARK   13  A    between atoms: CA_39  and  C_40 
REMARK   14  A    between atoms: CB_42  and  CG_43 
ROOT
ATOM      1  CA  SER B1004       9.729  18.458  -2.402  1.00 32.51     0.200 C 
ENDROOT
BRANCH   1   2
ATOM      2  N   SER B1004      11.016  18.485  -3.078  1.00 30.80    -0.344 N 
ATOM      3  H   SER B1004      10.980  18.537  -3.936  1.00 30.80     0.163 HD
ATOM      4  C   PRO B1003      12.133  18.430  -2.367  1.00 29.50     0.241 C 
ATOM      5  O   PRO B1003      12.123  18.367  -1.136  1.00 26.59    -0.271 OA
BRANCH   4   6
ATOM      6  CA  PRO B1003      13.460  18.452  -3.133  1.00 29.25     0.179 C 
ATOM      7  CB  PRO B1003      14.067  17.050  -3.212  1.00 27.80     0.037 C 
ATOM      8  CG  PRO B1003      15.517  17.253  -2.866  1.00 32.17     0.022 C 
ATOM      9  CD  PRO B1003      15.467  18.305  -1.787  1.00 30.31     0.127 C 
ATOM     10  N   PRO B1003      14.394  19.186  -2.274  1.00 27.10    -0.337 N 
ATOM     11  C   PRO B1002      14.258  20.510  -2.110  1.00 28.33     0.243 C 
ATOM     12  O   PRO B1002      13.386  21.150  -2.684  1.00 27.60    -0.271 OA
BRANCH  11  13
ATOM     13  CA  PRO B1002      15.255  21.195  -1.184  1.00 29.68     0.179 C 
ATOM     14  N   PRO B1002      15.425  22.636  -1.383  1.00 30.07    -0.337 N 
ATOM     15  CD  PRO B1002      15.165  23.362  -0.125  1.00 30.93     0.127 C 
ATOM     16  C   THR B1001      15.843  23.223  -2.543  1.00 31.77     0.262 C 
ATOM     17  CG  PRO B1002      15.407  22.299   0.906  1.00 29.32     0.022 C 
ATOM     18  CB  PRO B1002      14.795  21.099   0.270  1.00 30.61     0.037 C 
ATOM     19  O   THR B1001      16.090  22.528  -3.534  1.00 28.08    -0.271 OA
BRANCH  16  20
ATOM     20  CA  THR B1001      15.964  24.736  -2.552  1.00 31.25     0.428 C 
ATOM     21  N   THR B1001      17.139  25.150  -3.298  1.00 31.78     0.618 N 
BRANCH  20  22
ATOM     22  CB  THR B1001      14.688  25.353  -3.126  1.00 33.83     0.162 C 
ATOM     23  CG2 THR B1001      14.773  26.871  -3.098  1.00 26.93     0.042 C 
BRANCH  22  24
ATOM     24  OG1 THR B1001      14.502  24.904  -4.474  1.00 35.47    -0.393 OA
ATOM     25  HG1 THR B1001      15.250  24.808  -4.843  1.00 35.47     0.210 HD
ENDBRANCH  22  24
ENDBRANCH  20  22
ENDBRANCH  16  20
ENDBRANCH  11  13
ENDBRANCH   4   6
ENDBRANCH   1   2
BRANCH   1  26
ATOM     26  C   SER B1004       9.475  17.025  -1.941  1.00 31.12     0.245 C 
ATOM     27  O   SER B1004       9.941  16.080  -2.562  1.00 31.43    -0.271 OA
ATOM     28  N   PRO B1005       8.755  16.844  -0.828  1.00 32.50    -0.337 N 
ATOM     29  CA  PRO B1005       8.143  17.853   0.040  1.00 31.67     0.179 C 
ATOM     30  CD  PRO B1005       8.252  15.498  -0.485  1.00 32.99     0.127 C 
ATOM     31  CB  PRO B1005       6.833  17.196   0.427  1.00 32.97     0.037 C 
ATOM     32  CG  PRO B1005       7.268  15.781   0.662  1.00 32.33     0.022 C 
BRANCH  29  33
ATOM     33  C   PRO B1005       9.002  18.151   1.273  1.00 31.95     0.241 C 
ATOM     34  N   PHE B1006      10.317  18.004   1.141  1.00 29.16    -0.344 N 
ATOM     35  H   PHE B1006      10.709  17.776   0.410  1.00 29.16     0.163 HD
ATOM     36  O   PRO B1005       8.473  18.513   2.325  1.00 29.71    -0.271 OA
BRANCH  34  37
ATOM     37  CA  PHE B1006      11.211  18.228   2.268  1.00 29.49     0.189 C 
BRANCH  37  38
ATOM     38  CB  PHE B1006      12.504  17.435   2.074  1.00 24.64     0.074 C 
BRANCH  38  39
ATOM     39  CG  PHE B1006      12.284  15.964   1.873  1.00 23.14    -0.056 A 
ATOM     40  CD2 PHE B1006      11.865  15.161   2.927  1.00 22.25     0.007 A 
ATOM     41  CE2 PHE B1006      11.658  13.783   2.740  1.00 23.88     0.001 A 
ATOM     42  CZ  PHE B1006      11.872  13.216   1.490  1.00 22.95     0.000 A 
ATOM     43  CE1 PHE B1006      12.293  14.020   0.429  1.00 21.15     0.001 A 
ATOM     44  CD1 PHE B1006      12.494  15.379   0.627  1.00 23.85     0.007 A 
ENDBRANCH  38  39
ENDBRANCH  37  38
BRANCH  37  45
ATOM     45  C   PHE B1006      11.533  19.695   2.518  1.00 30.13     0.197 C 
ATOM     46  O   PHE B1006      12.083  19.991   3.599  1.00 31.00    -0.646 OA
ATOM     47  OXT PHE B1006      11.240  20.528   1.636  1.00 32.43    -0.646 OA
ENDBRANCH  37  45
ENDBRANCH  34  37
ENDBRANCH  29  33
ENDBRANCH   1  26
BRANCH   1  48
ATOM     48  CB  SER B1004       8.623  18.920  -3.351  1.00 35.03     0.199 C 
BRANCH  48  49
ATOM     49  OG  SER B1004       8.656  18.152  -4.538  1.00 42.75    -0.398 OA
ATOM     50  HG  SER B1004       8.046  18.409  -5.055  1.00 42.75     0.209 HD
ENDBRANCH  48  49
ENDBRANCH   1  48
TORSDOF 14
