REMARK  26 active torsions:
REMARK  status: ('A' for Active; 'I' for Inactive)
REMARK    1  A    between atoms: N_1  and  CA_2 
REMARK    2  A    between atoms: CA_2  and  CB_5 
REMARK    3  A    between atoms: CA_2  and  C_3 
REMARK       I    between atoms: C_3  and  N_11 
REMARK    4  A    between atoms: N_11  and  CA_12 
REMARK    5  A    between atoms: CA_12  and  CB_15 
REMARK    6  A    between atoms: CA_12  and  C_13 
REMARK       I    between atoms: C_13  and  N_19 
REMARK    7  A    between atoms: N_19  and  CA_20 
REMARK    8  A    between atoms: CA_20  and  C_21 
REMARK    9  A    between atoms: CA_20  and  CB_23 
REMARK       I    between atoms: C_21  and  N_27 
REMARK   10  A    between atoms: CB_23  and  OG_24 
REMARK   11  A    between atoms: N_27  and  CA_28 
REMARK   12  A    between atoms: CA_28  and  C_29 
REMARK   13  A    between atoms: CA_28  and  CB_31 
REMARK       I    between atoms: C_29  and  N_38 
REMARK   14  A    between atoms: CB_31  and  CG_32 
REMARK   15  A    between atoms: N_38  and  CA_39 
REMARK   16  A    between atoms: CA_39  and  CB_42 
REMARK   17  A    between atoms: CA_39  and  C_40 
REMARK       I    between atoms: C_40  and  N_50 
REMARK   18  A    between atoms: CB_42  and  CG_43 
REMARK   19  A    between atoms: N_50  and  CA_51 
REMARK   20  A    between atoms: CA_51  and  C_52 
REMARK   21  A    between atoms: CA_51  and  CB_54 
REMARK       I    between atoms: C_52  and  N_61 
REMARK   22  A    between atoms: CB_54  and  CG_55 
REMARK       I    between atoms: CG_55  and  ND2_57 
REMARK   23  A    between atoms: N_61  and  CA_62 
REMARK   24  A    between atoms: CA_62  and  C_63 
REMARK   25  A    between atoms: CA_62  and  CB_65 
REMARK   26  A    between atoms: CB_65  and  CG_66 
ROOT
ATOM      1  CA  HIS P   4     -17.112   9.672  12.134  1.00 23.76     0.182 C 
ENDROOT
BRANCH   1   2
ATOM      2  C   HIS P   4     -18.150  10.171  11.119  1.00 25.01     0.241 C 
ATOM      3  O   HIS P   4     -17.999  11.253  10.536  1.00 23.35    -0.271 OA
ATOM      4  N   PHE P   5     -19.242   9.425  10.962  1.00 23.15    -0.346 N 
ATOM      5  H   PHE P   5     -19.400   8.716  11.423  1.00 23.15     0.163 HD
BRANCH   4   6
ATOM      6  CA  PHE P   5     -20.276   9.737   9.994  1.00 24.23     0.180 C 
BRANCH   6   7
ATOM      7  CB  PHE P   5     -21.375   8.633  10.060  1.00 25.15     0.073 C 
BRANCH   7   8
ATOM      8  CG  PHE P   5     -22.275   8.836  11.236  1.00 25.22    -0.056 A 
ATOM      9  CD2 PHE P   5     -23.502   9.447  11.000  1.00 26.21     0.007 A 
ATOM     10  CE2 PHE P   5     -24.345   9.735  12.035  1.00 26.58     0.001 A 
ATOM     11  CZ  PHE P   5     -23.998   9.368  13.323  1.00 27.68     0.000 A 
ATOM     12  CE1 PHE P   5     -22.797   8.750  13.571  1.00 26.50     0.001 A 
ATOM     13  CD1 PHE P   5     -21.932   8.481  12.518  1.00 25.73     0.007 A 
ENDBRANCH   7   8
ENDBRANCH   6   7
BRANCH   6  14
ATOM     14  C   PHE P   5     -20.863  11.123  10.140  1.00 25.59     0.241 C 
ATOM     15  O   PHE P   5     -21.331  11.741   9.162  1.00 25.82    -0.271 OA
ATOM     16  N   ASN P   6     -20.928  11.602  11.368  1.00 24.53    -0.346 N 
ATOM     17  H   ASN P   6     -20.641  11.188  12.065  1.00 24.53     0.163 HD
BRANCH  16  18
ATOM     18  CA  ASN P   6     -21.510  12.910  11.635  1.00 25.84     0.185 C 
BRANCH  18  19
ATOM     19  C   ASN P   6     -20.491  14.023  11.717  1.00 25.26     0.241 C 
ATOM     20  N   ASP P   7     -19.242  13.766  11.280  1.00 26.59    -0.344 N 
ATOM     21  H   ASP P   7     -18.974  13.005  10.982  1.00 26.59     0.163 HD
ATOM     22  O   ASN P   6     -20.814  15.107  12.208  1.00 25.72    -0.271 OA
BRANCH  20  23
ATOM     23  CA  ASP P   7     -18.240  14.808  11.291  1.00 25.93     0.195 C 
BRANCH  23  24
ATOM     24  C   ASP P   7     -18.375  15.674  10.029  1.00 27.07     0.197 C 
ATOM     25  O   ASP P   7     -17.886  16.788  10.103  1.00 28.96    -0.646 OA
ATOM     26  OXT ASP P   7     -18.920  15.151   8.953  1.00 29.63    -0.646 OA
ENDBRANCH  23  24
BRANCH  23  27
ATOM     27  CB  ASP P   7     -16.784  14.304  11.330  1.00 25.41     0.149 C 
BRANCH  27  28
ATOM     28  CG  ASP P   7     -16.378  13.758  12.675  1.00 25.37     0.175 C 
ATOM     29  OD1 ASP P   7     -16.861  14.152  13.760  1.00 26.66    -0.648 OA
ATOM     30  OD2 ASP P   7     -15.515  12.816  12.651  1.00 23.76    -0.648 OA
ENDBRANCH  27  28
ENDBRANCH  23  27
ENDBRANCH  20  23
ENDBRANCH  18  19
BRANCH  18  31
ATOM     31  CB  ASN P   6     -22.385  12.854  12.889  1.00 24.75     0.137 C 
BRANCH  31  32
ATOM     32  CG  ASN P   6     -21.564  12.601  14.135  1.00 27.24     0.217 C 
ATOM     33  ND2 ASN P   6     -22.230  12.987  15.222  1.00 23.85    -0.370 N 
ATOM     34 1HD2 ASN P   6     -21.859  12.931  15.996  1.00 23.85     0.159 HD
ATOM     35 2HD2 ASN P   6     -23.031  13.292  15.150  1.00 23.85     0.159 HD
ATOM     36  OD1 ASN P   6     -20.393  12.132  14.045  1.00 24.90    -0.274 OA
ENDBRANCH  31  32
ENDBRANCH  18  31
ENDBRANCH  16  18
ENDBRANCH   6  14
ENDBRANCH   4   6
ENDBRANCH   1   2
BRANCH   1  37
ATOM     37  CB  HIS P   4     -17.495  10.218  13.509  1.00 21.80     0.095 C 
BRANCH  37  38
ATOM     38  CG  HIS P   4     -16.470   9.950  14.569  1.00 23.01     0.056 A 
ATOM     39  CD2 HIS P   4     -16.313   8.977  15.466  1.00 23.26     0.145 A 
ATOM     40  NE2 HIS P   4     -15.075   9.146  16.032  1.00 21.45    -0.252 NA
ATOM     41  CE1 HIS P   4     -14.461  10.188  15.479  1.00 22.12     0.232 A 
ATOM     42  ND1 HIS P   4     -15.263  10.680  14.589  1.00 22.83    -0.245 NA
ENDBRANCH  37  38
ENDBRANCH   1  37
BRANCH   1  43
ATOM     43  N   HIS P   4     -15.775  10.120  11.655  1.00 22.02    -0.346 N 
ATOM     44  C   SER P   3     -14.740   9.294  11.807  1.00 24.42     0.243 C 
ATOM     45  O   SER P   3     -14.878   8.192  12.362  1.00 24.72    -0.271 OA
ATOM     46  H   HIS P   4     -15.744  10.903  11.300  1.00 22.02     0.163 HD
BRANCH  44  47
ATOM     47  CA  SER P   3     -13.361   9.773  11.383  1.00 22.14     0.200 C 
BRANCH  47  48
ATOM     48  CB  SER P   3     -12.475  10.157  12.586  1.00 23.32     0.199 C 
BRANCH  48  49
ATOM     49  OG  SER P   3     -12.904  11.434  13.107  1.00 23.11    -0.398 OA
ATOM     50  HG  SER P   3     -12.539  11.570  13.851  1.00 23.11     0.209 HD
ENDBRANCH  48  49
ENDBRANCH  47  48
BRANCH  47  51
ATOM     51  N   SER P   3     -13.388  10.914  10.466  1.00 22.53    -0.344 N 
ATOM     52  H   SER P   3     -13.317  11.683  10.845  1.00 22.53     0.163 HD
ATOM     53  C   VAL P   2     -13.514  10.734   9.155  1.00 22.76     0.241 C 
ATOM     54  O   VAL P   2     -13.776   9.612   8.666  1.00 25.85    -0.271 OA
BRANCH  53  55
ATOM     55  CA  VAL P   2     -13.497  11.999   8.293  1.00 24.07     0.180 C 
BRANCH  55  56
ATOM     56  N   VAL P   2     -13.401  11.665   6.871  1.00 24.29    -0.346 N 
ATOM     57  H   VAL P   2     -13.919  11.034   6.601  1.00 24.29     0.163 HD
ATOM     58  C   VAL P   1     -12.531  12.347   6.092  1.00 26.39     0.249 C 
ATOM     59  O   VAL P   1     -11.811  13.272   6.571  1.00 26.90    -0.271 OA
BRANCH  58  60
ATOM     60  CA  VAL P   1     -12.477  12.005   4.610  1.00 27.40     0.278 C 
BRANCH  60  61
ATOM     61  CB  VAL P   1     -11.087  11.408   4.220  1.00 27.20     0.017 C 
ATOM     62  CG2 VAL P   1     -11.111  11.057   2.728  1.00 28.02     0.012 C 
ATOM     63  CG1 VAL P   1     -10.958  10.176   5.089  1.00 27.17     0.012 C 
ENDBRANCH  60  61
BRANCH  60  64
ATOM     64  N   VAL P   1     -12.722  13.140   3.777  1.00 29.12    -0.066 N 
ATOM     65  H2  VAL P   1     -13.381  13.627   4.124  1.00 29.12     0.275 HD
ATOM     66  H1  VAL P   1     -12.954  12.866   2.962  1.00 29.12     0.275 HD
ATOM     67  H3  VAL P   1     -11.984  13.635   3.725  1.00 29.12     0.275 HD
ENDBRANCH  60  64
ENDBRANCH  58  60
ENDBRANCH  55  56
BRANCH  55  68
ATOM     68  CB  VAL P   2     -14.752  12.842   8.666  1.00 25.03     0.009 C 
ATOM     69  CG2 VAL P   2     -16.000  12.213   8.016  1.00 23.99     0.012 C 
ATOM     70  CG1 VAL P   2     -14.638  14.292   8.233  1.00 25.56     0.012 C 
ENDBRANCH  55  68
ENDBRANCH  53  55
ENDBRANCH  47  51
ENDBRANCH  44  47
ENDBRANCH   1  43
TORSDOF 26
