USER: ADFR SOLUTION from run 0
USER: SCORE 17.852638 LL:  -2.308 LR: -17.437 RR:   0.000 FEB: -10.874
USER: RMSD 0.304163
USER: STATUS Locally minimized using BFGS
USER: GENES 24
USER: genes 0 Translation |==|  0.47942 0.53572 0.48988
USER: genes 1 Rotation |==|  0.50841 0.49747 0.49517 0.99990
USER: genes 2 Torsion [N]-CA--C-[N] |==|  0.36471
USER: genes 3 Torsion [C]-N--CA-[CB] |==|  0.37309
USER: genes 4 Torsion [N]-CA--CB-[CG1] |==|  0.79588
USER: genes 5 Torsion [N]-CA--C-[N] |==|  0.42056
USER: genes 6 Torsion [C]-N--CA-[C] |==|  0.70939
USER: genes 7 Torsion [N]-CA--CB-[CG] |==|  0.83933
USER: genes 8 Torsion [CA]-CB--CG-[OD2] |==|  0.29781
USER: genes 9 Torsion [N]-CA--C-[OXT] |==|  0.45835
USER: genes 10 Torsion [C]-CA--CB-[CG] |==|  0.45792
USER: genes 11 Torsion [CA]-CB--CG-[CD] |==|  0.48104
USER: genes 12 Torsion [CB]-CG--CD-[OE2] |==|  0.62485
USER: genes 13 Torsion [C]-CA--N-[C] |==|  0.76701
USER: genes 14 Torsion [N]-C--CA-[N] |==|  0.41543
USER: genes 15 Torsion [C]-CA--N-[C] |==|  0.84064
USER: genes 16 Torsion [N]-C--CA-[N] |==|  0.43003
USER: genes 17 Torsion [C]-CA--N-[C] |==|  0.79774
USER: genes 18 Torsion [C]-CA--CB-[CG] |==|  0.50674
USER: genes 19 Torsion [CA]-CB--CG-[SD] |==|  0.48192
USER: genes 20 Torsion [CB]-CG--SD-[CE] |==|  0.21403
USER: genes 21 Torsion [C]-CA--CB-[CG] |==|  0.46103
USER: genes 22 Torsion [CA]-CB--CG-[CD] |==|  0.81304
USER: genes 23 Torsion [CB]-CG--CD-[OE1] |==|  0.80540
ROOT
ATOM      1  CA  GLU B   3      22.502   8.473  14.525  1.00 16.51 LIG 0.18  C 
ENDROOT
BRANCH 1 2
ATOM      2  C   GLU B   3      21.062   8.095  14.850  1.00 15.77 LIG 0.24  C 
ATOM      3 O    GLU B   3      20.307   7.735  13.957  1.00 14.97 LIG-0.27  OA
ATOM      4  N   VAL B   4      20.676   8.181  16.123  1.00 15.94 LIG-0.35  N 
ATOM      5 H    VAL B   4      21.192   8.394  16.777  1.00 15.94 LIG 0.16  HD
BRANCH 4 6
ATOM      6  CA  VAL B   4      19.288   7.903  16.492  1.00 14.46 LIG 0.18  C 
BRANCH 6 7
ATOM      7  CB  VAL B   4      19.144   6.990  17.733  1.00 12.41 LIG 0.01  C 
ATOM      8  CG1 VAL B   4      19.509   5.549  17.363  1.00 11.08 LIG 0.01  C 
ATOM      9  CG2 VAL B   4      20.001   7.495  18.876  1.00 12.26 LIG 0.01  C 
ENDBRANCH 6 7
BRANCH 6 10
ATOM     10  C   VAL B   4      18.594   9.233  16.758  1.00 16.25 LIG 0.24  C 
ATOM     11 O    VAL B   4      19.235  10.210  17.165  1.00 16.95 LIG-0.27  OA
ATOM     12  N   ASP B   5      17.285   9.262  16.527  1.00 16.26 LIG-0.34  N 
ATOM     13 H    ASP B   5      16.833   8.578  16.266  1.00 16.26 LIG 0.16  HD
BRANCH 12 14
ATOM     14  CA  ASP B   5      16.487  10.468  16.695  1.00 17.99 LIG 0.20  C 
BRANCH 14 15
ATOM     15  CB  ASP B   5      15.588  10.632  15.470  1.00 19.95 LIG 0.15  C 
BRANCH 15 16
ATOM     16  CG  ASP B   5      16.380  10.704  14.180  1.00 23.79 LIG 0.17  C 
ATOM     17 OD2  ASP B   5      16.364   9.722  13.394  1.00 26.04 LIG-0.65  OA
ATOM     18 OD1  ASP B   5      17.035  11.739  13.959  1.00 23.66 LIG-0.65  OA
ENDBRANCH 15 16
ENDBRANCH 14 15
BRANCH 14 19
ATOM     19  C   ASP B   5      15.631  10.446  17.965  1.00 17.70 LIG 0.20  C 
ATOM     20 OXT  ASP B   5      15.136  11.524  18.356  1.00 18.22 LIG-0.65  OA
ATOM     21 O    ASP B   5      15.455   9.358  18.537  1.00 17.62 LIG-0.65  OA
ENDBRANCH 14 19
ENDBRANCH 12 14
ENDBRANCH 6 10
ENDBRANCH 4 6
ENDBRANCH 1 2
BRANCH 1 22
ATOM     22  CB  GLU B   3      22.475   9.832  13.808  1.00 19.71 LIG 0.04  C 
BRANCH 22 23
ATOM     23  CG  GLU B   3      23.817  10.540  13.724  1.00 25.47 LIG 0.12  C 
BRANCH 23 24
ATOM     24  CD  GLU B   3      23.762  11.800  12.860  1.00 29.25 LIG 0.17  C 
ATOM     25 OE1  GLU B   3      22.805  12.599  13.010  1.00 30.05 LIG-0.65  OA
ATOM     26 OE2  GLU B   3      24.685  11.990  12.034  1.00 32.05 LIG-0.65  OA
ENDBRANCH 23 24
ENDBRANCH 22 23
ENDBRANCH 1 22
BRANCH 1 27
ATOM     27  N   GLU B   3      23.190   7.480  13.694  1.00 15.41 LIG-0.35  N 
ATOM     28 H    GLU B   3      23.182   7.658  12.853  1.00 15.41 LIG 0.16  HD
ATOM     29  C   GLU B   2      23.768   6.405  14.218  1.00 15.20 LIG 0.24  C 
ATOM     30 O    GLU B   2      23.754   6.166  15.423  1.00 15.89 LIG-0.27  OA
BRANCH 29 31
ATOM     31  CA  GLU B   2      24.466   5.445  13.252  1.00 14.92 LIG 0.18  C 
BRANCH 31 32
ATOM     32  N   GLU B   2      25.566   4.841  13.994  1.00 15.61 LIG-0.35  N 
ATOM     33 H    GLU B   2      25.544   3.982  14.030  1.00 15.61 LIG 0.16  HD
ATOM     34  C   MET B   1      26.514   5.586  14.559  1.00 15.57 LIG 0.24  C 
ATOM     35 O    MET B   1      26.546   6.818  14.461  1.00 13.81 LIG-0.27  OA
BRANCH 34 36
ATOM     36  CA  MET B   1      27.577   4.829  15.365  1.00 16.08 LIG 0.18  C 
BRANCH 36 37
ATOM     37  N   MET B   1      28.837   5.562  15.445  1.00 16.60 LIG-0.35  N 
ATOM     38  C   ACE B   0      29.651   5.678  14.404  1.00 26.43 LIG 0.21  C 
ATOM     39 O    ACE B   0      29.396   5.202  13.297  1.00 27.07 LIG-0.27  OA
ATOM     40  CH3 ACE B   0      30.925   6.446  14.642  1.00 28.67 LIG 0.12  C 
ATOM     41 H    MET B   1      28.998   5.904  16.217  1.00 16.60 LIG 0.16  HD
ENDBRANCH 36 37
BRANCH 36 42
ATOM     42  CB  MET B   1      27.018   4.595  16.778  1.00 17.95 LIG 0.04  C 
BRANCH 42 43
ATOM     43  CG  MET B   1      27.944   3.908  17.751  1.00 19.71 LIG 0.08  C 
BRANCH 43 44
ATOM     44 SD   MET B   1      27.205   3.886  19.401  1.00 23.85 LIG-0.17  SA
ATOM     45  CE  MET B   1      26.015   2.573  19.207  1.00 19.76 LIG 0.09  C 
ENDBRANCH 43 44
ENDBRANCH 42 43
ENDBRANCH 36 42
ENDBRANCH 34 36
ENDBRANCH 31 32
BRANCH 31 46
ATOM     46  CB  GLU B   2      23.476   4.361  12.790  1.00 14.50 LIG 0.04  C 
BRANCH 46 47
ATOM     47  CG  GLU B   2      23.947   3.561  11.587  1.00 15.26 LIG 0.12  C 
BRANCH 47 48
ATOM     48  CD  GLU B   2      24.007   4.420  10.342  1.00 15.63 LIG 0.17  C 
ATOM     49 OE1  GLU B   2      22.938   4.807   9.830  1.00 15.54 LIG-0.65  OA
ATOM     50 OE2  GLU B   2      25.123   4.729   9.884  1.00 15.63 LIG-0.65  OA
ENDBRANCH 47 48
ENDBRANCH 46 47
ENDBRANCH 31 46
ENDBRANCH 29 31
ENDBRANCH 1 27
TORSDOF 22
