REMARK  8 active torsions:
REMARK  status: ('A' for Active; 'I' for Inactive)
REMARK       I    between atoms: C_1  and  N_4 
REMARK    1  A    between atoms: N_4  and  CA_5 
REMARK    2  A    between atoms: CA_5  and  CB_8 
REMARK    3  A    between atoms: CA_5  and  C_6 
REMARK       I    between atoms: C_6  and  N_16 
REMARK    4  A    between atoms: CB_8  and  CG_9 
REMARK    5  A    between atoms: CA_17  and  C_18 
REMARK       I    between atoms: C_18  and  N_23 
REMARK    6  A    between atoms: CA_24  and  C_25 
REMARK       I    between atoms: C_25  and  N_30 
REMARK    7  A    between atoms: CA_31  and  C_32 
REMARK       I    between atoms: C_32  and  N_37 
REMARK    8  A    between atoms: CA_38  and  C_39 
ROOT
ATOM      1  C   PRO B1002      19.516  21.762  19.642  1.00 33.09     0.243 C 
ATOM      2  O   PRO B1002      19.316  21.152  18.587  1.00 32.82    -0.271 OA
ATOM      3  N   PRO B1003      19.882  23.050  19.656  1.00 33.61    -0.337 N 
ATOM      4  CA  PRO B1003      20.065  23.777  18.399  1.00 34.05     0.179 C 
ATOM      5  CB  PRO B1003      20.274  25.214  18.867  1.00 34.65     0.037 C 
ATOM      6  CG  PRO B1003      20.972  25.034  20.175  1.00 34.15     0.022 C 
ATOM      7  CD  PRO B1003      20.178  23.914  20.812  1.00 34.31     0.127 C 
ENDROOT
BRANCH   1   8
ATOM      8  CA  PRO B1002      19.347  21.068  20.988  1.00 32.09     0.179 C 
ATOM      9  N   PRO B1002      18.552  19.857  20.794  1.00 31.87    -0.337 N 
ATOM     10  C   PHE B1001      17.220  19.950  20.671  1.00 31.39     0.243 C 
ATOM     11  CD  PRO B1002      19.398  18.654  20.900  1.00 31.65     0.127 C 
ATOM     12  O   PHE B1001      16.631  21.033  20.728  1.00 31.36    -0.271 OA
ATOM     13  CG  PRO B1002      20.802  19.233  20.798  1.00 31.59     0.022 C 
ATOM     14  CB  PRO B1002      20.666  20.527  21.533  1.00 32.35     0.037 C 
BRANCH  10  15
ATOM     15  CA  PHE B1001      16.451  18.656  20.461  1.00 30.70     0.181 C 
BRANCH  15  16
ATOM     16  N   PHE B1001      15.068  18.787  20.912  1.00 31.26    -0.348 N 
HETATM   17  C   ACE B1000      14.480  17.857  21.662  1.00 32.54     0.214 C 
HETATM   18  CH3 ACE B1000      12.957  17.987  21.712  1.00 32.86     0.117 C 
HETATM   19  O   ACE B1000      15.035  16.800  21.985  1.00 32.71    -0.274 OA
ATOM     20  H   PHE B1001      14.678  19.508  20.652  1.00 31.26     0.163 HD
ENDBRANCH  15  16
BRANCH  15  21
ATOM     21  CB  PHE B1001      16.519  18.318  18.967  1.00 29.45     0.073 C 
BRANCH  21  22
ATOM     22  CG  PHE B1001      15.898  17.006  18.606  1.00 29.10    -0.056 A 
ATOM     23  CD2 PHE B1001      16.685  15.867  18.473  1.00 29.14     0.007 A 
ATOM     24  CE2 PHE B1001      16.114  14.646  18.132  1.00 28.22     0.001 A 
ATOM     25  CZ  PHE B1001      14.748  14.558  17.920  1.00 28.72     0.000 A 
ATOM     26  CE1 PHE B1001      13.953  15.691  18.052  1.00 29.15     0.001 A 
ATOM     27  CD1 PHE B1001      14.530  16.906  18.394  1.00 28.88     0.007 A 
ENDBRANCH  21  22
ENDBRANCH  15  21
ENDBRANCH  10  15
ENDBRANCH   1   8
BRANCH   4  28
ATOM     28  C   PRO B1003      21.258  23.240  17.609  1.00 33.85     0.243 C 
ATOM     29  O   PRO B1003      22.209  22.713  18.187  1.00 33.94    -0.271 OA
ATOM     30  N   PRO B1004      21.211  23.349  16.273  1.00 34.14    -0.337 N 
ATOM     31  CA  PRO B1004      22.316  22.865  15.444  1.00 34.66     0.179 C 
ATOM     32  CD  PRO B1004      20.104  23.846  15.436  1.00 34.36     0.127 C 
ATOM     33  CB  PRO B1004      21.740  22.939  14.030  1.00 34.44     0.037 C 
ATOM     34  CG  PRO B1004      20.789  24.089  14.115  1.00 34.41     0.022 C 
BRANCH  31  35
ATOM     35  C   PRO B1004      23.560  23.737  15.631  1.00 35.04     0.243 C 
ATOM     36  N   PRO B1005      24.717  23.280  15.131  1.00 35.67    -0.338 N 
ATOM     37  CD  PRO B1005      24.920  21.982  14.465  1.00 35.53     0.127 C 
ATOM     38  CA  PRO B1005      25.989  24.005  15.237  1.00 36.27     0.165 C 
ATOM     39  CG  PRO B1005      26.404  21.770  14.630  1.00 36.24     0.022 C 
ATOM     40  CB  PRO B1005      26.946  23.139  14.424  1.00 36.11     0.035 C 
ATOM     41  O   PRO B1004      23.489  24.810  16.232  1.00 35.22    -0.271 OA
BRANCH  38  42
ATOM     42  C   PRO B1005      25.911  25.435  14.705  1.00 36.62     0.219 C 
ATOM     43  O   PRO B1005      26.325  26.356  15.441  1.00 36.45    -0.287 OA
ENDBRANCH  38  42
ENDBRANCH  31  35
ENDBRANCH   4  28
TORSDOF 8
