REMARK  5 active torsions:
REMARK  status: ('A' for Active; 'I' for Inactive)
REMARK    1  A    between atoms: CA_2  and  C_3 
REMARK       I    between atoms: C_3  and  N_8 
REMARK    2  A    between atoms: N_8  and  CA_9 
REMARK    3  A    between atoms: CA_9  and  C_10 
REMARK       I    between atoms: C_10  and  N_13 
REMARK    4  A    between atoms: N_13  and  CA_14 
REMARK    5  A    between atoms: CA_14  and  C_15 
ROOT
ATOM      1  CA  GLY P 572      34.900  71.971  92.005  0.73  6.50     0.225 C 
ENDROOT
BRANCH   1   2
ATOM      2  N   GLY P 572      33.686  72.058  91.207  0.73  9.23    -0.350 N 
ATOM      3  C   PRO P 571      32.561  71.373  91.451  0.73  8.22     0.254 C 
ATOM      4  O   PRO P 571      32.394  70.619  92.412  0.73  7.23    -0.271 OA
ATOM      5  H   GLY P 572      33.758  72.604  90.546  0.73  9.23     0.163 HD
BRANCH   3   6
ATOM      6  CA  PRO P 571      31.418  71.614  90.456  0.73  9.03     0.352 C 
ATOM      7  N   PRO P 571      30.100  71.093  90.942  0.73 10.09     0.318 N 
ATOM      8  CD  PRO P 571      29.210  72.237  90.655  0.73  9.16     0.315 C 
ATOM      9  CG  PRO P 571      29.941  73.150  89.663  0.73  9.15     0.035 C 
ATOM     10  CB  PRO P 571      31.284  73.102  90.141  0.73  9.69     0.050 C 
ENDBRANCH   3   6
ENDBRANCH   1   2
BRANCH   1  11
ATOM     11  C   GLY P 572      35.983  72.586  91.121  0.73  5.30     0.236 C 
ATOM     12  N   ALA P 573      35.755  72.462  89.816  0.73  5.43    -0.346 N 
ATOM     13  H   ALA P 573      35.068  72.050  89.503  0.73  5.43     0.163 HD
ATOM     14  O   GLY P 572      37.004  73.098  91.588  0.73  3.60    -0.272 OA
BRANCH  12  15
ATOM     15  CA  ALA P 573      36.623  72.999  88.778  0.73  6.34     0.181 C 
ATOM     16  CB  ALA P 573      36.899  71.952  87.726  0.73  5.76     0.043 C 
BRANCH  15  17
ATOM     17  C   ALA P 573      35.884  74.182  88.156  0.73  7.45     0.196 C 
ATOM     18  OXT ALA P 573      36.470  74.865  87.290  0.73  4.81    -0.646 OA
ATOM     19  O   ALA P 573      34.713  74.402  88.537  0.73  9.82    -0.646 OA
ENDBRANCH  15  17
ENDBRANCH  12  15
ENDBRANCH   1  11
TORSDOF 5
