USER: ADFR SOLUTION from run 0
USER: SCORE 6.376867 LL:  -1.404 LR:  -5.496 RR:   0.000 FEB:  -4.005
USER: RMSD 1.329455
USER: STATUS Locally minimized using BFGS
USER: GENES 7
USER: genes 0 Translation |==|  0.64661 0.45625 0.68600
USER: genes 1 Rotation |==|  0.51060 0.53738 0.56261 0.99454
USER: genes 2 Torsion [C]-CA--N-[C] |==|  0.41106
USER: genes 3 Torsion [N]-C--CA-[N] |==|  0.49061
USER: genes 4 Torsion [N]-CA--C-[N] |==|  0.92973
USER: genes 5 Torsion [C]-N--CA-[CB] |==|  0.31776
USER: genes 6 Torsion [N]-CA--C-[OXT] |==|  0.53101
ROOT
ATOM      1  CA  GLY P 572      35.526  72.184  92.362  0.73  6.50 LIG 0.23  C 
ENDROOT
BRANCH 1 2
ATOM      2  N   GLY P 572      34.220  71.982  91.752  0.73  9.23 LIG-0.35  N 
ATOM      3  C   PRO P 571      33.478  70.875  91.885  0.73  8.22 LIG 0.25  C 
ATOM      4 O    PRO P 571      33.785  69.905  92.582  0.73  7.23 LIG-0.27  OA
ATOM      5 H    GLY P 572      33.961  72.657  91.285  0.73  9.23 LIG 0.16  HD
BRANCH 3 6
ATOM      6  CA  PRO P 571      32.143  70.886  91.128  0.73  9.03 LIG 0.35  C 
ATOM      7  N   PRO P 571      31.393  69.594  91.247  0.73 10.09 LIG 0.32  N 
ATOM      8  CD  PRO P 571      30.033  70.074  91.567  0.73  9.16 LIG 0.32  C 
ATOM      9  CG  PRO P 571      29.974  71.563  91.202  0.73  9.15 LIG 0.04  C 
ATOM     10  CB  PRO P 571      31.256  72.028  91.619  0.73  9.69 LIG 0.05  C 
ENDBRANCH 3 6
ENDBRANCH 1 2
BRANCH 1 11
ATOM     11  C   GLY P 572      36.277  73.071  91.372  0.73  5.30 LIG 0.24  C 
ATOM     12  N   ALA P 573      35.845  72.973  90.117  0.73  5.43 LIG-0.35  N 
ATOM     13 H    ALA P 573      35.214  72.437  89.885  0.73  5.43 LIG 0.16  HD
ATOM     14 O    GLY P 572      37.237  73.770  91.708  0.73  3.60 LIG-0.27  OA
BRANCH 12 15
ATOM     15  CA  ALA P 573      36.378  73.745  89.004  0.73  6.34 LIG 0.18  C 
ATOM     16  CB  ALA P 573      37.065  72.838  88.012  0.73  5.76 LIG 0.04  C 
BRANCH 15 17
ATOM     17  C   ALA P 573      35.189  74.438  88.342  0.73  7.45 LIG 0.20  C 
ATOM     18 OXT  ALA P 573      35.360  74.992  87.235  0.73  4.81 LIG-0.65  OA
ATOM     19 O    ALA P 573      34.090  74.405  88.938  0.73  9.82 LIG-0.65  OA
ENDBRANCH 15 17
ENDBRANCH 12 15
ENDBRANCH 1 11
TORSDOF 5
