REMARK  15 active torsions:
REMARK  status: ('A' for Active; 'I' for Inactive)
REMARK    1  A    between atoms: CA_2  and  C_3 
REMARK       I    between atoms: C_3  and  N_5 
REMARK    2  A    between atoms: N_5  and  CA_6 
REMARK    3  A    between atoms: CA_6  and  C_7 
REMARK    4  A    between atoms: CA_6  and  CB_9 
REMARK       I    between atoms: C_7  and  N_17 
REMARK    5  A    between atoms: CB_9  and  CG_10 
REMARK    6  A    between atoms: N_17  and  CA_18 
REMARK    7  A    between atoms: CA_18  and  CB_21 
REMARK    8  A    between atoms: CA_18  and  C_19 
REMARK       I    between atoms: C_19  and  N_25 
REMARK    9  A    between atoms: CB_21  and  OG_22 
REMARK   10  A    between atoms: N_25  and  CA_26 
REMARK   11  A    between atoms: CA_26  and  C_27 
REMARK   12  A    between atoms: CA_26  and  CB_29 
REMARK       I    between atoms: C_27  and  N_37 
REMARK   13  A    between atoms: CB_29  and  CG_30 
REMARK   14  A    between atoms: N_37  and  CA_38 
REMARK   15  A    between atoms: CA_38  and  C_39 
ROOT
ATOM      1  CA  SER E  44      27.725  -7.959  18.266  1.00 44.79     0.200 C 
ENDROOT
BRANCH   1   2
ATOM      2  CB  SER E  44      28.735  -9.016  17.823  1.00 46.10     0.199 C 
BRANCH   2   3
ATOM      3  OG  SER E  44      28.664  -9.206  16.425  1.00 47.85    -0.398 OA
ATOM      4  HG  SER E  44      29.224  -9.787  16.192  1.00 47.85     0.209 HD
ENDBRANCH   2   3
ENDBRANCH   1   2
BRANCH   1   5
ATOM      5  C   SER E  44      28.109  -6.612  17.696  1.00 42.78     0.243 C 
ATOM      6  N   PHE E  45      29.170  -6.049  18.254  1.00 43.36    -0.346 N 
ATOM      7  H   PHE E  45      29.615  -6.397  18.903  1.00 43.36     0.163 HD
ATOM      8  O   SER E  44      27.453  -6.080  16.799  1.00 37.54    -0.271 OA
BRANCH   6   9
ATOM      9  CA  PHE E  45      29.675  -4.765  17.797  1.00 46.68     0.180 C 
BRANCH   9  10
ATOM     10  C   PHE E  45      31.189  -4.862  17.674  1.00 48.11     0.241 C 
ATOM     11  O   PHE E  45      31.815  -5.725  18.292  1.00 49.85    -0.271 OA
ATOM     12  N   GLY E  46      31.784  -3.984  16.877  1.00 50.71    -0.352 N 
ATOM     13  H   GLY E  46      31.383  -3.367  16.432  1.00 50.71     0.162 HD
BRANCH  12  14
ATOM     14  CA  GLY E  46      33.224  -4.036  16.716  1.00 54.23     0.209 C 
BRANCH  14  15
ATOM     15  C   GLY E  46      33.898  -2.731  17.075  1.00 55.55     0.213 C 
ATOM     16  O   GLY E  46      33.741  -1.770  16.298  1.00 59.11    -0.287 OA
ENDBRANCH  14  15
ENDBRANCH  12  14
ENDBRANCH   9  10
BRANCH   9  17
ATOM     17  CB  PHE E  45      29.293  -3.653  18.780  1.00 43.03     0.073 C 
BRANCH  17  18
ATOM     18  CG  PHE E  45      27.877  -3.750  19.287  1.00 41.93    -0.056 A 
ATOM     19  CD2 PHE E  45      26.836  -3.092  18.633  1.00 42.38     0.007 A 
ATOM     20  CE2 PHE E  45      25.519  -3.206  19.087  1.00 42.73     0.001 A 
ATOM     21  CZ  PHE E  45      25.236  -3.983  20.206  1.00 42.74     0.000 A 
ATOM     22  CE1 PHE E  45      26.266  -4.646  20.867  1.00 41.89     0.001 A 
ATOM     23  CD1 PHE E  45      27.579  -4.526  20.405  1.00 42.01     0.007 A 
ENDBRANCH  17  18
ENDBRANCH   9  17
ENDBRANCH   6   9
ENDBRANCH   1   5
BRANCH   1  24
ATOM     24  N   SER E  44      26.386  -8.360  17.889  1.00 46.50    -0.344 N 
ATOM     25  C   PHE E  43      25.600  -8.851  18.822  1.00 47.40     0.241 C 
ATOM     26  O   PHE E  43      25.984  -9.006  19.978  1.00 45.80    -0.271 OA
ATOM     27  H   SER E  44      26.178  -8.252  17.062  1.00 46.50     0.163 HD
BRANCH  25  28
ATOM     28  CA  PHE E  43      24.209  -9.268  18.399  1.00 47.87     0.180 C 
BRANCH  28  29
ATOM     29  CB  PHE E  43      23.207  -8.751  19.427  1.00 42.32     0.073 C 
BRANCH  29  30
ATOM     30  CG  PHE E  43      21.754  -8.780  18.990  1.00 35.12    -0.056 A 
ATOM     31  CD2 PHE E  43      21.360  -8.821  17.646  1.00 32.72     0.007 A 
ATOM     32  CE2 PHE E  43      19.979  -8.808  17.305  1.00 30.40     0.001 A 
ATOM     33  CZ  PHE E  43      19.009  -8.759  18.315  1.00 28.92     0.000 A 
ATOM     34  CE1 PHE E  43      19.411  -8.718  19.645  1.00 29.46     0.001 A 
ATOM     35  CD1 PHE E  43      20.771  -8.728  19.966  1.00 34.02     0.007 A 
ENDBRANCH  29  30
ENDBRANCH  28  29
BRANCH  28  36
ATOM     36  N   PHE E  43      24.389 -10.687  18.502  1.00 51.92    -0.346 N 
ATOM     37  C   GLY E  42      23.682 -11.623  17.896  1.00 55.92     0.252 C 
ATOM     38  O   GLY E  42      22.723 -11.434  17.135  1.00 57.26    -0.271 OA
ATOM     39  H   PHE E  43      25.040 -10.890  19.027  1.00 51.92     0.163 HD
BRANCH  37  40
ATOM     40  CA  GLY E  42      24.193 -13.000  18.239  1.00 58.33     0.466 C 
ATOM     41  N   GLY E  42      24.203 -13.309  19.641  1.00 60.94     0.609 N 
ENDBRANCH  37  40
ENDBRANCH  28  36
ENDBRANCH  25  28
ENDBRANCH   1  24
TORSDOF 15
