USER: ADFR SOLUTION from run 0
USER: SCORE 14.376218 LL:  -4.844 LR: -11.472 RR:   0.000 FEB:  -5.506
USER: RMSD 2.111942
USER: STATUS Locally minimized using BFGS
USER: GENES 22
USER: genes 0 Translation |==|  0.53206 0.39816 0.47016
USER: genes 1 Rotation |==|  0.44017 0.53569 0.47987 0.99471
USER: genes 2 Torsion [CB]-CA--N-[C] |==|  0.31616
USER: genes 3 Torsion [N]-C--CA-[N] |==|  0.38948
USER: genes 4 Torsion [C]-CA--CB-[CG] |==|  0.17643
USER: genes 5 Torsion [CA]-CB--CG-[ND2] |==|  0.31095
USER: genes 6 Torsion [C]-CA--N-[C] |==|  0.79037
USER: genes 7 Torsion [N]-C--CA-[N] |==|  0.34079
USER: genes 8 Torsion [C]-CA--CB-[CG] |==|  0.08340
USER: genes 9 Torsion [CA]-CB--CG-[CD] |==|  0.40057
USER: genes 10 Torsion [CB]-CG--CD-[NE] |==|  0.14765
USER: genes 11 Torsion [CG]-CD--NE-[HE] |==|  0.79117
USER: genes 12 Torsion [N]-CA--CB-[CG] |==|  0.81758
USER: genes 13 Torsion [CA]-CB--CG-[CD2] |==|  0.85116
USER: genes 14 Torsion [N]-CA--C-[N] |==|  0.73009
USER: genes 15 Torsion [C]-N--CA-[C] |==|  0.72330
USER: genes 16 Torsion [N]-CA--CB-[CG] |==|  0.94354
USER: genes 17 Torsion [CA]-CB--CG-[CD2] |==|  0.76604
USER: genes 18 Torsion [N]-CA--C-[N] |==|  0.97222
USER: genes 19 Torsion [C]-N--CA-[C] |==|  0.74805
USER: genes 20 Torsion [N]-CA--C-[N] |==|  0.50668
USER: genes 21 Torsion [N]-CA--C-[OXT] |==|  0.83872
ROOT
ATOM      1  CA  LEU E  32      14.240 151.693  70.720  1.00142.86 LIG 0.18  C 
ENDROOT
BRANCH 1 2
ATOM      2  N   LEU E  32      12.811 151.687  70.409  1.00142.97 LIG-0.35  N 
ATOM      3 H    LEU E  32      12.623 151.412  69.616  1.00142.97 LIG 0.16  HD
ATOM      4  C   ASN E  31      11.896 152.076  71.293  1.00143.13 LIG 0.24  C 
ATOM      5 O    ASN E  31      12.188 152.546  72.390  1.00142.70 LIG-0.27  OA
BRANCH 4 6
ATOM      6  CA  ASN E  31      10.431 151.907  70.878  1.00143.53 LIG 0.18  C 
BRANCH 6 7
ATOM      7  CB  ASN E  31       9.868 153.230  70.355  1.00143.35 LIG 0.14  C 
BRANCH 7 8
ATOM      8  CG  ASN E  31      10.562 153.709  69.100  1.00142.31 LIG 0.22  C 
ATOM      9  ND2 ASN E  31       9.840 153.700  67.986  1.00140.74 LIG-0.37  N 
ATOM     10 21HD ASN E  31      10.175 154.003  67.254  1.00140.74 LIG 0.16  HD
ATOM     11 22HD ASN E  31       9.038 153.390  67.996  1.00140.74 LIG 0.16  HD
ATOM     12 OD1  ASN E  31      11.712 154.139  69.141  1.00141.61 LIG-0.27  OA
ENDBRANCH 7 8
ENDBRANCH 6 7
BRANCH 6 13
ATOM     13  N   ASN E  31       9.613 151.450  71.995  1.00144.28 LIG-0.34  N 
ATOM     14  C   ARG E  30       9.640 150.194  72.427  1.00145.24 LIG 0.26  C 
ATOM     15 O    ARG E  30      10.156 149.282  71.786  1.00145.16 LIG-0.27  OA
ATOM     16 H    ASN E  31       9.118 152.063  72.341  1.00144.28 LIG 0.16  HD
BRANCH 14 17
ATOM     17  CA  ARG E  30       8.928 149.920  73.756  1.00146.00 LIG 0.40  C 
ATOM     18  N   ARG E  30       7.867 148.881  73.626  1.00146.11 LIG 0.61  N 
BRANCH 17 19
ATOM     19  CB  ARG E  30       9.955 149.496  74.808  1.00146.54 LIG 0.05  C 
BRANCH 19 20
ATOM     20  CG  ARG E  30      11.334 150.107  74.593  1.00147.66 LIG 0.02  C 
BRANCH 20 21
ATOM     21  CD  ARG E  30      12.066 150.454  75.875  1.00149.13 LIG 0.14  C 
BRANCH 21 22
ATOM     22  NE  ARG E  30      12.145 149.320  76.793  1.00150.31 LIG-0.23  N 
ATOM     23 HE   ARG E  30      11.434 149.103  77.225  1.00150.31 LIG 0.18  HD
ATOM     24  CZ  ARG E  30      13.239 148.601  77.006  1.00151.12 LIG 0.67  C 
ATOM     25  NH1 ARG E  30      14.357 148.876  76.348  1.00151.59 LIG-0.23  N 
ATOM     26  NH2 ARG E  30      13.218 147.601  77.875  1.00151.52 LIG-0.23  N 
ATOM     27 1HH1 ARG E  30      14.375 149.522  75.781  1.00151.59 LIG 0.17  HD
ATOM     28 2HH1 ARG E  30      15.065 148.409  76.488  1.00151.59 LIG 0.17  HD
ATOM     29 1HH2 ARG E  30      12.495 147.417  78.302  1.00151.52 LIG 0.17  HD
ATOM     30 2HH2 ARG E  30      13.928 147.136  78.013  1.00151.52 LIG 0.17  HD
ENDBRANCH 21 22
ENDBRANCH 20 21
ENDBRANCH 19 20
ENDBRANCH 17 19
ENDBRANCH 14 17
ENDBRANCH 6 13
ENDBRANCH 4 6
ENDBRANCH 1 2
BRANCH 1 31
ATOM     31  CB  LEU E  32      14.781 150.261  70.749  1.00142.51 LIG 0.04  C 
BRANCH 31 32
ATOM     32  CG  LEU E  32      14.249 149.346  71.851  1.00140.78 LIG-0.02  C 
ATOM     33  CD1 LEU E  32      14.950 148.006  71.792  1.00139.49 LIG 0.01  C 
ATOM     34  CD2 LEU E  32      14.427 149.981  73.213  1.00139.97 LIG 0.01  C 
ENDBRANCH 31 32
ENDBRANCH 1 31
BRANCH 1 35
ATOM     35  C   LEU E  32      15.078 152.533  69.750  1.00143.34 LIG 0.24  C 
ATOM     36  N   PHE E  33      15.682 151.879  68.759  1.00143.72 LIG-0.35  N 
ATOM     37 H    PHE E  33      15.535 151.053  68.570  1.00143.72 LIG 0.16  HD
ATOM     38 O    LEU E  32      15.217 153.741  69.927  1.00143.58 LIG-0.27  OA
BRANCH 36 39
ATOM     39  CA  PHE E  33      16.665 152.528  67.894  1.00144.11 LIG 0.18  C 
BRANCH 39 40
ATOM     40  CB  PHE E  33      17.841 151.593  67.644  1.00143.74 LIG 0.07  C 
BRANCH 40 41
ATOM     41  CG  PHE E  33      17.963 150.509  68.660  1.00143.08 LIG-0.06  A 
ATOM     42  CD2 PHE E  33      18.618 150.734  69.855  1.00142.72 LIG 0.01  A 
ATOM     43  CE2 PHE E  33      18.721 149.735  70.799  1.00141.76 LIG 0.00  A 
ATOM     44  CZ  PHE E  33      18.153 148.507  70.562  1.00141.29 LIG 0.00  A 
ATOM     45  CE1 PHE E  33      17.485 148.274  69.381  1.00141.79 LIG 0.00  A 
ATOM     46  CD1 PHE E  33      17.390 149.271  68.438  1.00142.36 LIG 0.01  A 
ENDBRANCH 40 41
ENDBRANCH 39 40
BRANCH 39 47
ATOM     47  C   PHE E  33      16.091 152.973  66.557  1.00145.05 LIG 0.24  C 
ATOM     48 O    PHE E  33      16.758 153.668  65.794  1.00145.07 LIG-0.27  OA
ATOM     49  N   GLY E  34      14.868 152.548  66.259  1.00146.17 LIG-0.35  N 
ATOM     50 H    GLY E  34      14.416 152.001  66.745  1.00146.17 LIG 0.16  HD
BRANCH 49 51
ATOM     51  CA  GLY E  34      14.186 152.987  65.054  1.00147.07 LIG 0.23  C 
BRANCH 51 52
ATOM     52  C   GLY E  34      13.363 154.235  65.318  1.00147.85 LIG 0.24  C 
ATOM     53  N   PRO E  35      12.649 154.709  64.301  1.00148.70 LIG-0.34  N 
ATOM     54  CA  PRO E  35      11.823 155.912  64.442  1.00149.01 LIG 0.19  C 
ATOM     55  CD  PRO E  35      12.527 154.109  62.960  1.00148.94 LIG 0.13  C 
ATOM     56  CB  PRO E  35      11.074 155.984  63.101  1.00149.16 LIG 0.04  C 
ATOM     57  CG  PRO E  35      11.178 154.603  62.524  1.00149.11 LIG 0.02  C 
ATOM     58 O    GLY E  34      13.355 154.756  66.436  1.00147.94 LIG-0.27  OA
BRANCH 54 59
ATOM     59  C   PRO E  35      10.844 155.794  65.614  1.00149.03 LIG 0.20  C 
ATOM     60 OXT  PRO E  35      10.018 154.885  65.678  1.00149.10 LIG-0.65  OA
ATOM     61 O    PRO E  35      10.870 156.571  66.571  1.00148.99 LIG-0.65  OA
ENDBRANCH 54 59
ENDBRANCH 51 52
ENDBRANCH 49 51
ENDBRANCH 39 47
ENDBRANCH 36 39
ENDBRANCH 1 35
TORSDOF 20
