REMARK  20 active torsions:
REMARK  status: ('A' for Active; 'I' for Inactive)
REMARK    1  A    between atoms: CA_2  and  C_3 
REMARK    2  A    between atoms: CA_2  and  CB_5 
REMARK       I    between atoms: C_3  and  N_17 
REMARK    3  A    between atoms: CB_5  and  CG_6 
REMARK    4  A    between atoms: CG_6  and  CD_7 
REMARK    5  A    between atoms: CD_7  and  NE_8 
REMARK       I    between atoms: NE_8  and  CZ_9 
REMARK       I    between atoms: CZ_9  and  NH1_10 
REMARK    6  A    between atoms: N_17  and  CA_18 
REMARK    7  A    between atoms: CA_18  and  CB_21 
REMARK    8  A    between atoms: CA_18  and  C_19 
REMARK       I    between atoms: C_19  and  N_28 
REMARK    9  A    between atoms: CB_21  and  CG_22 
REMARK       I    between atoms: CG_22  and  ND2_24 
REMARK   10  A    between atoms: N_28  and  CA_29 
REMARK   11  A    between atoms: CA_29  and  CB_32 
REMARK   12  A    between atoms: CA_29  and  C_30 
REMARK       I    between atoms: C_30  and  N_37 
REMARK   13  A    between atoms: CB_32  and  CG_33 
REMARK   14  A    between atoms: N_37  and  CA_38 
REMARK   15  A    between atoms: CA_38  and  CB_41 
REMARK   16  A    between atoms: CA_38  and  C_39 
REMARK       I    between atoms: C_39  and  N_49 
REMARK   17  A    between atoms: CB_41  and  CG_42 
REMARK   18  A    between atoms: N_49  and  CA_50 
REMARK   19  A    between atoms: CA_50  and  C_51 
REMARK       I    between atoms: C_51  and  N_54 
REMARK   20  A    between atoms: CA_55  and  C_56 
ROOT
ATOM      1  CA  LEU E  32      14.242 152.004  70.806  1.00142.86     0.177 C 
ENDROOT
BRANCH   1   2
ATOM      2  N   LEU E  32      12.874 151.984  70.290  1.00142.97    -0.346 N 
ATOM      3  H   LEU E  32      12.786 151.578  69.537  1.00142.97     0.163 HD
ATOM      4  C   ASN E  31      11.865 152.552  70.946  1.00143.13     0.241 C 
ATOM      5  O   ASN E  31      12.023 153.201  71.977  1.00142.70    -0.271 OA
BRANCH   4   6
ATOM      6  CA  ASN E  31      10.467 152.354  70.352  1.00143.53     0.185 C 
BRANCH   6   7
ATOM      7  CB  ASN E  31      10.040 153.596  69.566  1.00143.35     0.137 C 
BRANCH   7   8
ATOM      8  CG  ASN E  31      10.977 153.920  68.425  1.00142.31     0.217 C 
ATOM      9  ND2 ASN E  31      10.460 153.868  67.204  1.00140.74    -0.370 N 
ATOM     10 1HD2 ASN E  31      10.940 154.086  66.524  1.00140.74     0.159 HD
ATOM     11 2HD2 ASN E  31       9.645 153.616  67.092  1.00140.74     0.159 HD
ATOM     12  OD1 ASN E  31      12.134 154.272  68.640  1.00141.61    -0.274 OA
ENDBRANCH   7   8
ENDBRANCH   6   7
BRANCH   6  13
ATOM     13  N   ASN E  31       9.481 152.087  71.392  1.00144.28    -0.345 N 
ATOM     14  C   ARG E  30       9.411 150.918  72.020  1.00145.24     0.257 C 
ATOM     15  O   ARG E  30       9.992 149.913  71.619  1.00145.16    -0.271 OA
ATOM     16  H   ASN E  31       8.957 152.749  71.557  1.00144.28     0.163 HD
BRANCH  14  17
ATOM     17  CA  ARG E  30       8.504 150.866  73.254  1.00146.00     0.400 C 
ATOM     18  N   ARG E  30       7.469 149.798  73.151  1.00146.11     0.615 N 
BRANCH  17  19
ATOM     19  CB  ARG E  30       9.356 150.655  74.506  1.00146.54     0.053 C 
BRANCH  19  20
ATOM     20  CG  ARG E  30      10.756 151.245  74.396  1.00147.66     0.023 C 
BRANCH  20  21
ATOM     21  CD  ARG E  30      11.432 151.493  75.731  1.00149.13     0.138 C 
BRANCH  21  22
ATOM     22  NE  ARG E  30      11.406 150.314  76.594  1.00150.31    -0.227 N 
ATOM     23  HE  ARG E  30      10.777 150.258  77.177  1.00150.31     0.177 HD
ATOM     24  CZ  ARG E  30      12.287 149.324  76.539  1.00151.12     0.665 C 
ATOM     25  NH1 ARG E  30      13.263 149.348  75.642  1.00151.59    -0.235 N 
ATOM     26  NH2 ARG E  30      12.192 148.303  77.379  1.00151.52    -0.235 N 
ATOM     27 HH11 ARG E  30      13.327 150.007  75.093  1.00151.59     0.174 HD
ATOM     28 HH12 ARG E  30      13.833 148.705  75.609  1.00151.59     0.174 HD
ATOM     29 HH21 ARG E  30      11.559 148.282  77.960  1.00151.52     0.174 HD
ATOM     30 HH22 ARG E  30      12.764 147.662  77.343  1.00151.52     0.174 HD
ENDBRANCH  21  22
ENDBRANCH  20  21
ENDBRANCH  19  20
ENDBRANCH  17  19
ENDBRANCH  14  17
ENDBRANCH   6  13
ENDBRANCH   4   6
ENDBRANCH   1   2
BRANCH   1  31
ATOM     31  CB  LEU E  32      14.910 150.645  70.585  1.00142.51     0.038 C 
BRANCH  31  32
ATOM     32  CG  LEU E  32      14.391 149.477  71.422  1.00140.78    -0.020 C 
ATOM     33  CD1 LEU E  32      15.238 148.248  71.176  1.00139.49     0.009 C 
ATOM     34  CD2 LEU E  32      14.380 149.831  72.894  1.00139.97     0.009 C 
ENDBRANCH  31  32
ENDBRANCH   1  31
BRANCH   1  35
ATOM     35  C   LEU E  32      15.115 153.105  70.194  1.00143.34     0.241 C 
ATOM     36  N   PHE E  33      15.872 152.760  69.154  1.00143.72    -0.346 N 
ATOM     37  H   PHE E  33      15.810 152.006  68.745  1.00143.72     0.163 HD
ATOM     38  O   LEU E  32      15.141 154.230  70.688  1.00143.58    -0.271 OA
BRANCH  36  39
ATOM     39  CA  PHE E  33      16.892 153.656  68.613  1.00144.11     0.180 C 
BRANCH  39  40
ATOM     40  CB  PHE E  33      18.010 152.848  67.968  1.00143.74     0.073 C 
BRANCH  40  41
ATOM     41  CG  PHE E  33      18.347 151.602  68.713  1.00143.08    -0.056 A 
ATOM     42  CD2 PHE E  33      19.408 151.575  69.598  1.00142.72     0.007 A 
ATOM     43  CE2 PHE E  33      19.712 150.426  70.295  1.00141.76     0.001 A 
ATOM     44  CZ  PHE E  33      18.946 149.298  70.127  1.00141.29     0.000 A 
ATOM     45  CE1 PHE E  33      17.877 149.316  69.259  1.00141.79     0.001 A 
ATOM     46  CD1 PHE E  33      17.580 150.463  68.559  1.00142.36     0.007 A 
ENDBRANCH  40  41
ENDBRANCH  39  40
BRANCH  39  47
ATOM     47  C   PHE E  33      16.345 154.647  67.596  1.00145.05     0.241 C 
ATOM     48  O   PHE E  33      17.089 155.473  67.070  1.00145.07    -0.271 OA
ATOM     49  N   GLY E  34      15.055 154.547  67.295  1.00146.17    -0.351 N 
ATOM     50  H   GLY E  34      14.537 153.930  67.596  1.00146.17     0.163 HD
BRANCH  49  51
ATOM     51  CA  GLY E  34      14.407 155.499  66.410  1.00147.07     0.225 C 
BRANCH  51  52
ATOM     52  C   GLY E  34      13.898 156.702  67.183  1.00147.85     0.238 C 
ATOM     53  N   PRO E  35      13.528 157.761  66.469  1.00148.70    -0.336 N 
ATOM     54  CA  PRO E  35      13.027 158.980  67.112  1.00149.01     0.188 C 
ATOM     55  CD  PRO E  35      13.503 157.863  64.998  1.00148.94     0.127 C 
ATOM     56  CB  PRO E  35      12.580 159.847  65.923  1.00149.16     0.038 C 
ATOM     57  CG  PRO E  35      12.429 158.888  64.779  1.00149.11     0.022 C 
ATOM     58  O   GLY E  34      13.820 156.670  68.414  1.00147.94    -0.272 OA
BRANCH  54  59
ATOM     59  C   PRO E  35      11.854 158.685  68.051  1.00149.03     0.196 C 
ATOM     60  OXT PRO E  35      10.806 158.189  67.640  1.00149.10    -0.646 OA
ATOM     61  O   PRO E  35      11.921 158.881  69.266  1.00148.99    -0.646 OA
ENDBRANCH  54  59
ENDBRANCH  51  52
ENDBRANCH  49  51
ENDBRANCH  39  47
ENDBRANCH  36  39
ENDBRANCH   1  35
TORSDOF 20
