USER: ADFR SOLUTION from run 0
USER: SCORE 10.001168 LL:  -1.448 LR:  -8.611 RR:   0.000 FEB:  -6.523
USER: RMSD 0.137216
USER: STATUS Locally minimized using BFGS
USER: GENES 9
USER: genes 0 Translation |==|  0.52639 0.46182 0.48072
USER: genes 1 Rotation |==|  0.49722 0.49440 0.49262 0.99991
USER: genes 2 Torsion [N]-CA--C-[N] |==|  0.42831
USER: genes 3 Torsion [C]-N--CA-[CB] |==|  0.49081
USER: genes 4 Torsion [N]-CA--C-[O] |==|  0.90608
USER: genes 5 Torsion [C]-CA--CB-[CG1] |==|  0.46190
USER: genes 6 Torsion [C]-CA--N-[C] |==|  0.82778
USER: genes 7 Torsion [N]-C--CA-[N] |==|  0.35339
USER: genes 8 Torsion [C]-CA--N-[H2] |==|  0.82696
ROOT
ATOM      1  CA  VAL C   2      58.577  29.946 101.342  1.00 18.98 LIG 0.18  C 
ENDROOT
BRANCH 1 2
ATOM      2  C   VAL C   2      58.170  29.259 102.642  1.00 19.28 LIG 0.24  C 
ATOM      3  N   ALA C   3      56.963  28.711 102.724  1.00 19.49 LIG-0.35  N 
ATOM      4 H    ALA C   3      56.394  28.748 102.080  1.00 19.49 LIG 0.16  HD
ATOM      5 O    VAL C   2      58.969  29.223 103.567  1.00 19.03 LIG-0.27  OA
BRANCH 3 6
ATOM      6  CA  ALA C   3      56.463  27.993 103.888  1.00 19.91 LIG 0.16  C 
ATOM      7  CB  ALA C   3      55.023  27.562 103.692  1.00 20.02 LIG 0.04  C 
BRANCH 6 8
ATOM      8  C   ALA C   3      57.251  26.725 104.185  1.00 20.51 LIG 0.22  C 
ATOM      9 O    ALA C   3      57.731  26.057 103.263  1.00 21.40 LIG-0.29  OA
ENDBRANCH 6 8
ENDBRANCH 3 6
ENDBRANCH 1 2
BRANCH 1 10
ATOM     10  CB  VAL C   2      59.048  28.855 100.379  1.00 18.88 LIG 0.01  C 
ATOM     11  CG2 VAL C   2      60.391  28.355 100.864  1.00 18.45 LIG 0.01  C 
ATOM     12  CG1 VAL C   2      59.161  29.362  98.968  1.00 18.43 LIG 0.01  C 
ENDBRANCH 1 10
BRANCH 1 13
ATOM     13  N   VAL C   2      59.584  30.996 101.422  1.00 19.26 LIG-0.35  N 
ATOM     14  C   ALA C   1      59.459  32.127 102.091  1.00 19.51 LIG 0.25  C 
ATOM     15 O    ALA C   1      58.425  32.495 102.655  1.00 19.32 LIG-0.27  OA
ATOM     16 H    VAL C   2      60.295  30.806 100.978  1.00 19.26 LIG 0.16  HD
BRANCH 14 17
ATOM     17  CA  ALA C   1      60.635  33.109 102.016  1.00 19.89 LIG 0.27  C 
ATOM     18  CB  ALA C   1      61.263  33.217 103.406  1.00 20.07 LIG 0.05  C 
BRANCH 17 19
ATOM     19  N   ALA C   1      60.066  34.382 101.603  1.00 19.80 LIG-0.07  N 
ATOM     20 H2   ALA C   1      59.702  34.297 100.795  1.00 19.80 LIG 0.28  HD
ATOM     21 H3   ALA C   1      59.440  34.630 102.184  1.00 19.80 LIG 0.28  HD
ATOM     22 H1   ALA C   1      60.706  34.999 101.576  1.00 19.80 LIG 0.28  HD
ENDBRANCH 17 19
ENDBRANCH 14 17
ENDBRANCH 1 13
TORSDOF 7
