REMARK  7 active torsions:
REMARK  status: ('A' for Active; 'I' for Inactive)
REMARK    1  A    between atoms: N_1  and  CA_2 
REMARK    2  A    between atoms: CA_2  and  C_3 
REMARK       I    between atoms: C_3  and  N_9 
REMARK    3  A    between atoms: N_9  and  CA_10 
REMARK    4  A    between atoms: CA_10  and  C_11 
REMARK    5  A    between atoms: CA_10  and  CB_13 
REMARK       I    between atoms: C_11  and  N_17 
REMARK    6  A    between atoms: N_17  and  CA_18 
REMARK    7  A    between atoms: CA_18  and  C_19 
ROOT
ATOM      1  CA  VAL C   2      58.592  30.010 101.377  1.00 18.98     0.180 C 
ENDROOT
BRANCH   1   2
ATOM      2  C   VAL C   2      58.235  29.297 102.678  1.00 19.28     0.241 C 
ATOM      3  N   ALA C   3      57.053  28.699 102.775  1.00 19.49    -0.348 N 
ATOM      4  H   ALA C   3      56.472  28.718 102.141  1.00 19.49     0.163 HD
ATOM      5  O   VAL C   2      59.050  29.287 103.590  1.00 19.03    -0.271 OA
BRANCH   3   6
ATOM      6  CA  ALA C   3      56.601  27.953 103.941  1.00 19.91     0.158 C 
ATOM      7  CB  ALA C   3      55.181  27.456 103.761  1.00 20.02     0.041 C 
BRANCH   6   8
ATOM      8  C   ALA C   3      57.451  26.721 104.221  1.00 20.51     0.219 C 
ATOM      9  O   ALA C   3      57.945  26.078 103.289  1.00 21.40    -0.287 OA
ENDBRANCH   6   8
ENDBRANCH   3   6
ENDBRANCH   1   2
BRANCH   1  10
ATOM     10  CB  VAL C   2      59.073  28.944 100.392  1.00 18.88     0.009 C 
ATOM     11  CG2 VAL C   2      60.447  28.488 100.833  1.00 18.45     0.012 C 
ATOM     12  CG1 VAL C   2      59.126  29.465  98.982  1.00 18.43     0.012 C 
ENDBRANCH   1  10
BRANCH   1  13
ATOM     13  N   VAL C   2      59.569  31.088 101.447  1.00 19.26    -0.346 N 
ATOM     14  C   ALA C   1      59.417  32.217 102.114  1.00 19.51     0.248 C 
ATOM     15  O   ALA C   1      58.377  32.557 102.684  1.00 19.32    -0.271 OA
ATOM     16  H   VAL C   2      60.282  30.917 100.998  1.00 19.26     0.163 HD
BRANCH  14  17
ATOM     17  CA  ALA C   1      60.564  33.232 102.027  1.00 19.89     0.270 C 
ATOM     18  CB  ALA C   1      61.221  33.336 103.404  1.00 20.07     0.050 C 
BRANCH  17  19
ATOM     19  N   ALA C   1      59.951  34.495 101.647  1.00 19.80    -0.067 N 
ATOM     20  H2  ALA C   1      59.580  34.415 100.842  1.00 19.80     0.275 HD
ATOM     21  H3  ALA C   1      59.325  34.712 102.241  1.00 19.80     0.275 HD
ATOM     22  H1  ALA C   1      60.572  35.132 101.625  1.00 19.80     0.275 HD
ENDBRANCH  17  19
ENDBRANCH  14  17
ENDBRANCH   1  13
TORSDOF 7
