USER: ADFR SOLUTION from run 0
USER: SCORE 13.414584 LL:  -3.850 LR:  -9.771 RR:   0.000 FEB:  -4.103
USER: RMSD 0.891606
USER: STATUS Locally minimized using BFGS
USER: GENES 21
USER: genes 0 Translation |==|  0.57756 0.47275 0.51646
USER: genes 1 Rotation |==|  0.50085 0.47375 0.50416 0.99929
USER: genes 2 Torsion [N]-CA--C-[N] |==|  0.38821
USER: genes 3 Torsion [C]-N--CA-[C] |==|  0.75962
USER: genes 4 Torsion [N]-CA--C-[N] |==|  0.30858
USER: genes 5 Torsion [C]-N--CA-[CB] |==|  0.78640
USER: genes 6 Torsion [N]-CA--CB-[CG1] |==|  0.48897
USER: genes 7 Torsion [CA]-CB--CG1-[CD1] |==|  0.53871
USER: genes 8 Torsion [N]-CA--C-[OXT] |==|  0.26586
USER: genes 9 Torsion [N]-CA--CB-[CG] |==|  0.50890
USER: genes 10 Torsion [CA]-CB--CG-[CD2] |==|  0.07043
USER: genes 11 Torsion [C]-CA--CB-[CG] |==|  0.26874
USER: genes 12 Torsion [CA]-CB--CG-[CD1] |==|  0.60179
USER: genes 13 Torsion [C]-CA--N-[C] |==|  0.78889
USER: genes 14 Torsion [N]-C--CA-[N] |==|  0.41537
USER: genes 15 Torsion [C]-CA--CB-[CG] |==|  0.17023
USER: genes 16 Torsion [CA]-CB--CG-[CD2] |==|  0.46888
USER: genes 17 Torsion [C]-CA--N-[C] |==|  0.79901
USER: genes 18 Torsion [N]-C--CA-[N] |==|  0.82993
USER: genes 19 Torsion [C]-CA--CB-[CG] |==|  0.28428
USER: genes 20 Torsion [CA]-CB--CG-[OD1] |==|  0.00425
ROOT
ATOM      1  CA  LEU D  11      20.294   6.518  63.261  1.00 47.89 LIG 0.18  C 
ENDROOT
BRANCH 1 2
ATOM      2  C   LEU D  11      18.925   6.375  62.610  1.00 48.14 LIG 0.24  C 
ATOM      3 O    LEU D  11      18.080   5.624  63.079  1.00 47.13 LIG-0.27  OA
ATOM      4  N   HIS D  12      18.729   7.073  61.497  1.00 49.28 LIG-0.35  N 
ATOM      5 H    HIS D  12      19.304   7.613  61.155  1.00 49.28 LIG 0.16  HD
BRANCH 4 6
ATOM      6  CA  HIS D  12      17.474   6.963  60.760  1.00 50.49 LIG 0.18  C 
BRANCH 6 7
ATOM      7  C   HIS D  12      17.500   5.802  59.769  1.00 51.38 LIG 0.24  C 
ATOM      8  N   ILE D  13      16.700   4.795  60.081  1.00 53.16 LIG-0.34  N 
ATOM      9 H    ILE D  13      16.235   4.801  60.804  1.00 53.16 LIG 0.16  HD
ATOM     10 O    HIS D  12      18.206   5.834  58.771  1.00 51.57 LIG-0.27  OA
BRANCH 8 11
ATOM     11  CA  ILE D  13      16.481   3.569  59.295  1.00 55.12 LIG 0.19  C 
BRANCH 11 12
ATOM     12  CB  ILE D  13      15.544   3.774  58.050  1.00 55.01 LIG 0.01  C 
ATOM     13  CG2 ILE D  13      15.989   4.946  57.155  1.00 56.15 LIG 0.01  C 
BRANCH 12 14
ATOM     14  CG1 ILE D  13      15.453   2.477  57.241  1.00 55.50 LIG 0.00  C 
ATOM     15  CD1 ILE D  13      14.841   2.648  55.824  1.00 55.45 LIG 0.01  C 
ENDBRANCH 12 14
ENDBRANCH 11 12
BRANCH 11 16
ATOM     16  C   ILE D  13      17.678   2.664  58.989  1.00 55.63 LIG 0.20  C 
ATOM     17 O    ILE D  13      18.404   2.872  58.015  1.00 56.94 LIG-0.65  OA
ATOM     18 OXT  ILE D  13      17.876   1.698  59.739  1.00 55.86 LIG-0.65  OA
ENDBRANCH 11 16
ENDBRANCH 8 11
ENDBRANCH 6 7
BRANCH 6 19
ATOM     19  CB  HIS D  12      17.140   8.268  60.035  1.00 50.55 LIG 0.10  C 
BRANCH 19 20
ATOM     20  CG  HIS D  12      15.826   8.242  59.321  1.00 49.61 LIG 0.06  A 
ATOM     21  CD2 HIS D  12      14.706   7.512  59.537  1.00 48.49 LIG 0.14  A 
ATOM     22 NE2  HIS D  12      13.789   7.889  58.588  1.00 48.62 LIG-0.25  NA
ATOM     23  CE1 HIS D  12      14.316   8.834  57.832  1.00 49.12 LIG 0.23  A 
ATOM     24 ND1  HIS D  12      15.547   9.063  58.250  1.00 49.92 LIG-0.24  NA
ENDBRANCH 19 20
ENDBRANCH 6 19
ENDBRANCH 4 6
ENDBRANCH 1 2
BRANCH 1 25
ATOM     25  CB  LEU D  11      21.137   5.318  62.843  1.00 47.69 LIG 0.04  C 
BRANCH 25 26
ATOM     26  CG  LEU D  11      22.105   5.458  61.662  1.00 48.05 LIG-0.02  C 
ATOM     27  CD1 LEU D  11      22.140   4.166  60.858  1.00 46.53 LIG 0.01  C 
ATOM     28  CD2 LEU D  11      21.780   6.636  60.775  1.00 50.43 LIG 0.01  C 
ENDBRANCH 25 26
ENDBRANCH 1 25
BRANCH 1 29
ATOM     29  N   LEU D  11      20.240   6.590  64.714  1.00 47.51 LIG-0.35  N 
ATOM     30  C   LEU D  10      19.856   7.687  65.370  1.00 47.80 LIG 0.24  C 
ATOM     31 O    LEU D  10      19.440   8.713  64.813  1.00 47.07 LIG-0.27  OA
ATOM     32 H    LEU D  11      20.477   5.864  65.108  1.00 47.51 LIG 0.16  HD
BRANCH 30 33
ATOM     33  CA  LEU D  10      19.966   7.615  66.888  1.00 47.63 LIG 0.18  C 
BRANCH 33 34
ATOM     34  CB  LEU D  10      18.717   6.990  67.502  1.00 47.29 LIG 0.04  C 
BRANCH 34 35
ATOM     35  CG  LEU D  10      18.456   5.550  67.049  1.00 46.92 LIG-0.02  C 
ATOM     36  CD1 LEU D  10      19.722   4.697  67.098  1.00 46.83 LIG 0.01  C 
ATOM     37  CD2 LEU D  10      17.393   4.905  67.875  1.00 45.50 LIG 0.01  C 
ENDBRANCH 34 35
ENDBRANCH 33 34
BRANCH 33 38
ATOM     38  N   LEU D  10      20.232   8.938  67.428  1.00 47.82 LIG-0.35  N 
ATOM     39 H    LEU D  10      19.571   9.301  67.840  1.00 47.82 LIG 0.16  HD
ATOM     40  C   ASP D   9      21.423   9.503  67.272  1.00 48.63 LIG 0.26  C 
ATOM     41 O    ASP D   9      22.349   8.970  66.666  1.00 48.10 LIG-0.27  OA
BRANCH 40 42
ATOM     42  CA  ASP D   9      21.589  10.871  67.879  1.00 49.27 LIG 0.41  C 
ATOM     43  N   ASP D   9      20.610  11.776  67.223  1.00 49.86 LIG 0.61  N 
BRANCH 42 44
ATOM     44  CB  ASP D   9      21.317  10.782  69.375  1.00 50.02 LIG 0.16  C 
BRANCH 44 45
ATOM     45  CG  ASP D   9      22.575  10.781  70.192  1.00 50.84 LIG 0.17  C 
ATOM     46 OD1  ASP D   9      23.664  10.879  69.601  1.00 53.44 LIG-0.65  OA
ATOM     47 OD2  ASP D   9      22.576  10.713  71.442  1.00 53.75 LIG-0.65  OA
ENDBRANCH 44 45
ENDBRANCH 42 44
ENDBRANCH 40 42
ENDBRANCH 33 38
ENDBRANCH 30 33
ENDBRANCH 1 29
TORSDOF 19
