REMARK  25 active torsions:
REMARK  status: ('A' for Active; 'I' for Inactive)
REMARK    1  A    between atoms: CA_2  and  C_3 
REMARK    2  A    between atoms: CA_2  and  CB_5 
REMARK       I    between atoms: C_3  and  N_11 
REMARK    3  A    between atoms: CB_5  and  CG_6 
REMARK    4  A    between atoms: CA_12  and  C_13 
REMARK       I    between atoms: C_13  and  N_18 
REMARK    5  A    between atoms: N_18  and  CA_19 
REMARK    6  A    between atoms: CA_19  and  C_20 
REMARK    7  A    between atoms: CA_19  and  CB_22 
REMARK       I    between atoms: C_20  and  N_30 
REMARK    8  A    between atoms: CB_22  and  CG_23 
REMARK    9  A    between atoms: CG_23  and  CD_24 
REMARK       I    between atoms: CD_24  and  NE2_26 
REMARK   10  A    between atoms: N_30  and  CA_31 
REMARK   11  A    between atoms: CA_31  and  C_32 
REMARK   12  A    between atoms: CA_31  and  CB_34 
REMARK       I    between atoms: C_32  and  N_42 
REMARK   13  A    between atoms: CB_34  and  CG_35 
REMARK   14  A    between atoms: N_42  and  CA_43 
REMARK   15  A    between atoms: CA_43  and  CB_46 
REMARK   16  A    between atoms: CA_43  and  C_44 
REMARK       I    between atoms: C_44  and  N_52 
REMARK   17  A    between atoms: CB_46  and  CG_47 
REMARK   18  A    between atoms: CG_47  and  CD_48 
REMARK   19  A    between atoms: N_52  and  CA_53 
REMARK   20  A    between atoms: CA_53  and  C_54 
REMARK   21  A    between atoms: CA_53  and  CB_56 
REMARK   22  A    between atoms: CB_56  and  CG_57 
REMARK   23  A    between atoms: CG_57  and  CD_58 
REMARK   24  A    between atoms: CD_58  and  CE_59 
REMARK   25  A    between atoms: CE_59  and  NZ_60 
ROOT
ATOM      1  CA  PHE G   7      -1.018   5.586   0.613  1.00 26.45     0.180 C 
ENDROOT
BRANCH   1   2
ATOM      2  N   PHE G   7      -1.022   4.159   0.363  1.00 22.76    -0.346 N 
ATOM      3  C   GLN G   6      -1.636   3.306   1.181  1.00 25.23     0.241 C 
ATOM      4  O   GLN G   6      -2.374   3.612   2.114  1.00 25.88    -0.271 OA
ATOM      5  H   PHE G   7      -0.600   3.922  -0.348  1.00 22.76     0.163 HD
BRANCH   3   6
ATOM      6  CA  GLN G   6      -1.404   1.846   0.903  1.00 22.93     0.177 C 
BRANCH   6   7
ATOM      7  CB  GLN G   6      -0.238   1.341   1.759  1.00 23.17     0.044 C 
BRANCH   7   8
ATOM      8  CG  GLN G   6      -0.536   1.403   3.255  1.00 21.39     0.105 C 
BRANCH   8   9
ATOM      9  CD  GLN G   6       0.534   0.736   4.166  1.00 22.17     0.215 C 
ATOM     10  NE2 GLN G   6       1.357  -0.096   3.562  1.00 17.24    -0.370 N 
ATOM     11 1HE2 GLN G   6       1.239  -0.292   2.733  1.00 17.24     0.159 HD
ATOM     12 2HE2 GLN G   6       2.013  -0.443   3.997  1.00 17.24     0.159 HD
ATOM     13  OE1 GLN G   6       0.691   1.041   5.396  1.00 25.29    -0.274 OA
ENDBRANCH   8   9
ENDBRANCH   7   8
ENDBRANCH   6   7
BRANCH   6  14
ATOM     14  N   GLN G   6      -1.176   1.626  -0.512  1.00 22.68    -0.346 N 
ATOM     15  C   PRO G   5      -2.088   2.009  -1.395  1.00 24.61     0.241 C 
ATOM     16  O   PRO G   5      -3.175   2.525  -1.101  1.00 25.71    -0.271 OA
ATOM     17  H   GLN G   6      -0.431   1.244  -0.709  1.00 22.68     0.163 HD
BRANCH  15  18
ATOM     18  CA  PRO G   5      -1.819   1.707  -2.843  1.00 27.09     0.179 C 
ATOM     19  CB  PRO G   5      -2.278   0.266  -3.130  1.00 27.99     0.037 C 
ATOM     20  CG  PRO G   5      -1.193  -0.311  -3.843  1.00 29.73     0.022 C 
ATOM     21  CD  PRO G   5       0.043   0.517  -3.912  1.00 26.76     0.127 C 
ATOM     22  N   PRO G   5      -0.423   1.744  -3.262  1.00 24.34    -0.337 N 
ATOM     23  C   HIS G   4       0.318   2.833  -3.046  1.00 27.57     0.260 C 
ATOM     24  O   HIS G   4      -0.116   3.803  -2.440  1.00 27.10    -0.271 OA
BRANCH  23  25
ATOM     25  CA  HIS G   4       1.750   2.890  -3.536  1.00 26.03     0.405 C 
ATOM     26  N   HIS G   4       1.812   4.327  -4.060  1.00 28.06     0.615 N 
BRANCH  25  27
ATOM     27  CB  HIS G   4       2.722   2.579  -2.398  1.00 24.96     0.112 C 
BRANCH  27  28
ATOM     28  CG  HIS G   4       2.584   1.158  -1.937  1.00 22.46     0.056 A 
ATOM     29  CD2 HIS G   4       3.336   0.062  -2.195  1.00 23.95     0.145 A 
ATOM     30  NE2 HIS G   4       2.768  -0.985  -1.511  1.00 25.16    -0.252 NA
ATOM     31  CE1 HIS G   4       1.721  -0.525  -0.853  1.00 26.12     0.232 A 
ATOM     32  ND1 HIS G   4       1.563   0.766  -1.096  1.00 23.55    -0.245 NA
ENDBRANCH  27  28
ENDBRANCH  25  27
ENDBRANCH  23  25
ENDBRANCH  15  18
ENDBRANCH   6  14
ENDBRANCH   3   6
ENDBRANCH   1   2
BRANCH   1  33
ATOM     33  C   PHE G   7      -1.697   6.419  -0.453  1.00 26.79     0.241 C 
ATOM     34  N   GLU G   8      -2.438   5.771  -1.341  1.00 28.87    -0.346 N 
ATOM     35  H   GLU G   8      -2.634   4.934  -1.318  1.00 28.87     0.163 HD
ATOM     36  O   PHE G   7      -1.507   7.626  -0.478  1.00 31.74    -0.271 OA
BRANCH  34  37
ATOM     37  CA  GLU G   8      -2.986   6.535  -2.478  1.00 32.81     0.177 C 
BRANCH  37  38
ATOM     38  CB  GLU G   8      -3.378   5.600  -3.586  1.00 32.33     0.045 C 
BRANCH  38  39
ATOM     39  CG  GLU G   8      -4.593   4.771  -3.266  1.00 32.73     0.116 C 
BRANCH  39  40
ATOM     40  CD  GLU G   8      -4.760   3.677  -4.316  1.00 35.15     0.172 C 
ATOM     41  OE1 GLU G   8      -5.642   2.794  -4.131  1.00 38.54    -0.648 OA
ATOM     42  OE2 GLU G   8      -4.031   3.724  -5.336  1.00 38.35    -0.648 OA
ENDBRANCH  39  40
ENDBRANCH  38  39
ENDBRANCH  37  38
BRANCH  37  43
ATOM     43  C   GLU G   8      -4.193   7.353  -2.082  1.00 36.20     0.241 C 
ATOM     44  N   LYS G   9      -4.499   8.414  -2.822  1.00 41.18    -0.347 N 
ATOM     45  H   LYS G   9      -4.077   8.654  -3.532  1.00 41.18     0.163 HD
ATOM     46  O   GLU G   8      -4.846   7.041  -1.099  1.00 35.28    -0.271 OA
BRANCH  44  47
ATOM     47  CA  LYS G   9      -5.630   9.276  -2.449  1.00 46.03     0.162 C 
BRANCH  47  48
ATOM     48  C   LYS G   9      -6.791   9.092  -3.447  1.00 47.77     0.219 C 
ATOM     49  O   LYS G   9      -7.959   9.141  -3.046  1.00 48.68    -0.287 OA
ENDBRANCH  47  48
BRANCH  47  50
ATOM     50  CB  LYS G   9      -5.170  10.744  -2.381  1.00 48.34     0.033 C 
BRANCH  50  51
ATOM     51  CG  LYS G   9      -3.795  10.922  -1.727  1.00 50.79     0.004 C 
BRANCH  51  52
ATOM     52  CD  LYS G   9      -3.769  11.179  -0.215  1.00 52.72     0.027 C 
BRANCH  52  53
ATOM     53  CE  LYS G   9      -2.420  11.754   0.264  1.00 54.14     0.229 C 
BRANCH  53  54
ATOM     54  NZ  LYS G   9      -2.148  13.207  -0.046  1.00 55.34    -0.079 N 
ATOM     55  HZ3 LYS G   9      -2.773  13.714   0.334  1.00 55.34     0.274 HD
ATOM     56  HZ1 LYS G   9      -1.349  13.434   0.272  1.00 55.34     0.274 HD
ATOM     57  HZ2 LYS G   9      -2.162  13.330  -0.927  1.00 55.34     0.274 HD
ENDBRANCH  53  54
ENDBRANCH  52  53
ENDBRANCH  51  52
ENDBRANCH  50  51
ENDBRANCH  47  50
ENDBRANCH  44  47
ENDBRANCH  37  43
ENDBRANCH  34  37
ENDBRANCH   1  33
BRANCH   1  58
ATOM     58  CB  PHE G   7       0.454   5.991   0.731  1.00 27.87     0.073 C 
BRANCH  58  59
ATOM     59  CG  PHE G   7       1.161   5.095   1.731  1.00 29.51    -0.056 A 
ATOM     60  CD2 PHE G   7       2.191   4.222   1.516  1.00 31.96     0.007 A 
ATOM     61  CE2 PHE G   7       2.696   3.509   2.615  1.00 32.27     0.001 A 
ATOM     62  CZ  PHE G   7       2.209   3.765   3.888  1.00 29.14     0.000 A 
ATOM     63  CE1 PHE G   7       1.250   4.639   4.080  1.00 32.29     0.001 A 
ATOM     64  CD1 PHE G   7       0.739   5.307   3.004  1.00 29.45     0.007 A 
ENDBRANCH  58  59
ENDBRANCH   1  58
TORSDOF 25
