USER: ADFR SOLUTION from run 0
USER: SCORE 10.474649 LL:  -3.924 LR:  -7.109 RR:   0.000 FEB:  -1.441
USER: RMSD 0.734794
USER: STATUS Locally minimized using BFGS
USER: GENES 21
USER: genes 0 Translation |==|  0.41839 0.50380 0.52889
USER: genes 1 Rotation |==|  0.51119 0.48760 0.50983 0.99962
USER: genes 2 Torsion [C]-CA--N-[C] |==|  0.78395
USER: genes 3 Torsion [N]-C--CA-[N] |==|  0.95738
USER: genes 4 Torsion [N]-C--CA-[N] |==|  0.29946
USER: genes 5 Torsion [C]-CA--CB-[CG] |==|  0.17842
USER: genes 6 Torsion [CA]-CB--CG-[OD1] |==|  0.00374
USER: genes 7 Torsion [C]-CA--N-[C] |==|  0.76422
USER: genes 8 Torsion [N]-C--CA-[N] |==|  0.80467
USER: genes 9 Torsion [C]-CA--CB-[OG] |==|  0.15536
USER: genes 10 Torsion [CA]-CB--OG-[HG] |==|  0.49985
USER: genes 11 Torsion [N]-CA--C-[N] |==|  0.03333
USER: genes 12 Torsion [C]-N--CA-[C] |==|  0.56963
USER: genes 13 Torsion [N]-CA--C-[O] |==|  0.10034
USER: genes 14 Torsion [N]-CA--CB-[CG] |==|  0.55266
USER: genes 15 Torsion [CA]-CB--CG-[CD] |==|  0.18249
USER: genes 16 Torsion [CB]-CG--CD-[CE] |==|  0.55639
USER: genes 17 Torsion [CG]-CD--CE-[NZ] |==|  0.51718
USER: genes 18 Torsion [CD]-CE--NZ-[HZ2] |==|  0.83335
USER: genes 19 Torsion [N]-CA--CB-[CG] |==|  0.82217
USER: genes 20 Torsion [CA]-CB--CG-[CD2] |==|  0.80580
ROOT
ATOM      1  CA  TRP P 344      24.409   8.637 -15.896  1.00 32.15 LIG 0.18  C 
ENDROOT
BRANCH 1 2
ATOM      2  N   TRP P 344      25.340   9.747 -15.955  1.00 31.29 LIG-0.35  N 
ATOM      3 H    TRP P 344      25.047  10.444 -16.365  1.00 31.29 LIG 0.16  HD
ATOM      4  C   PRO P 343      26.544   9.650 -15.403  1.00 32.37 LIG 0.24  C 
ATOM      5 O    PRO P 343      26.958   8.617 -14.875  1.00 31.41 LIG-0.27  OA
BRANCH 4 6
ATOM      6  CA  PRO P 343      27.421  10.893 -15.465  1.00 33.03 LIG 0.18  C 
ATOM      7  N   PRO P 343      26.948  11.891 -16.429  1.00 34.38 LIG-0.34  N 
ATOM      8  C   ASP P 342      26.868  11.634 -17.742  1.00 36.67 LIG 0.24  C 
ATOM      9  CD  PRO P 343      26.344  13.039 -15.729  1.00 33.21 LIG 0.13  C 
ATOM     10 O    ASP P 342      27.173  10.538 -18.212  1.00 37.60 LIG-0.27  OA
ATOM     11  CG  PRO P 343      26.165  12.505 -14.318  1.00 33.09 LIG 0.02  C 
ATOM     12  CB  PRO P 343      27.398  11.658 -14.155  1.00 32.10 LIG 0.04  C 
BRANCH 8 13
ATOM     13  CA  ASP P 342      26.366  12.759 -18.644  1.00 38.79 LIG 0.19  C 
BRANCH 13 14
ATOM     14  CB  ASP P 342      25.290  12.228 -19.593  1.00 38.78 LIG 0.15  C 
BRANCH 14 15
ATOM     15  CG  ASP P 342      24.052  11.757 -18.860  1.00 39.37 LIG 0.17  C 
ATOM     16 OD2  ASP P 342      23.113  11.273 -19.524  1.00 39.72 LIG-0.65  OA
ATOM     17 OD1  ASP P 342      24.019  11.865 -17.618  1.00 40.57 LIG-0.65  OA
ENDBRANCH 14 15
ENDBRANCH 13 14
BRANCH 13 18
ATOM     18  N   ASP P 342      27.503  13.258 -19.400  1.00 40.71 LIG-0.34  N 
ATOM     19 H    ASP P 342      27.593  12.909 -20.182  1.00 40.71 LIG 0.16  HD
ATOM     20  C   SER P 341      28.317  14.177 -18.897  1.00 42.75 LIG 0.26  C 
ATOM     21 O    SER P 341      28.150  14.679 -17.784  1.00 44.14 LIG-0.27  OA
BRANCH 20 22
ATOM     22  CA  SER P 341      29.487  14.608 -19.787  1.00 43.56 LIG 0.42  C 
ATOM     23  N   SER P 341      30.505  13.519 -19.916  1.00 43.48 LIG 0.62  N 
BRANCH 22 24
ATOM     24  CB  SER P 341      28.958  15.000 -21.172  1.00 43.44 LIG 0.21  C 
BRANCH 24 25
ATOM     25 OG   SER P 341      27.968  16.013 -21.066  1.00 45.13 LIG-0.40  OA
ATOM     26 HG   SER P 341      27.691  16.215 -21.834  1.00 45.13 LIG 0.21  HD
ENDBRANCH 24 25
ENDBRANCH 22 24
ENDBRANCH 20 22
ENDBRANCH 13 18
ENDBRANCH 8 13
ENDBRANCH 4 6
ENDBRANCH 1 2
BRANCH 1 27
ATOM     27  C   TRP P 344      24.657   7.501 -16.865  1.00 32.97 LIG 0.24  C 
ATOM     28 O    TRP P 344      23.800   6.640 -17.031  1.00 31.81 LIG-0.27  OA
ATOM     29  N   LYS P 345      25.819   7.488 -17.508  1.00 34.20 LIG-0.34  N 
ATOM     30 H    LYS P 345      26.433   8.086 -17.430  1.00 34.20 LIG 0.16  HD
BRANCH 29 31
ATOM     31  CA  LYS P 345      26.123   6.398 -18.427  1.00 35.76 LIG 0.18  C 
BRANCH 31 32
ATOM     32  C   LYS P 345      27.621   6.181 -18.601  1.00 35.89 LIG 0.20  C 
ATOM     33 O    LYS P 345      28.344   6.350 -17.595  1.00 35.39 LIG-0.65  OA
ATOM     34 OXT  LYS P 345      28.044   5.823 -19.727  1.00 36.91 LIG-0.65  OA
ENDBRANCH 31 32
BRANCH 31 35
ATOM     35  CB  LYS P 345      25.461   6.638 -19.786  1.00 34.89 LIG 0.04  C 
BRANCH 35 36
ATOM     36  CG  LYS P 345      25.338   5.370 -20.637  1.00 33.69 LIG 0.00  C 
BRANCH 36 37
ATOM     37  CD  LYS P 345      24.398   4.337 -20.031  1.00 29.41 LIG 0.03  C 
BRANCH 37 38
ATOM     38  CE  LYS P 345      24.665   2.942 -20.593  1.00 29.69 LIG 0.23  C 
BRANCH 38 39
ATOM     39  NZ  LYS P 345      23.686   1.903 -20.153  1.00 27.83 LIG-0.08  N 
ATOM     40 HZ3  LYS P 345      22.868   2.137 -20.415  1.00 27.83 LIG 0.27  HD
ATOM     41 HZ1  LYS P 345      23.901   1.120 -20.516  1.00 27.83 LIG 0.27  HD
ATOM     42 HZ2  LYS P 345      23.704   1.834 -19.266  1.00 27.83 LIG 0.27  HD
ENDBRANCH 38 39
ENDBRANCH 37 38
ENDBRANCH 36 37
ENDBRANCH 35 36
ENDBRANCH 31 35
ENDBRANCH 29 31
ENDBRANCH 1 27
BRANCH 1 43
ATOM     43  CB  TRP P 344      22.972   9.145 -16.035  1.00 30.74 LIG 0.07  C 
BRANCH 43 44
ATOM     44  CG  TRP P 344      22.573  10.030 -14.896  1.00 29.17 LIG-0.03  A 
ATOM     45  CD2 TRP P 344      22.345   9.627 -13.538  1.00 26.66 LIG-0.00  A 
ATOM     46  CE3 TRP P 344      22.384   8.397 -12.870  1.00 26.53 LIG 0.01  A 
ATOM     47  CE2 TRP P 344      22.020  10.789 -12.808  1.00 26.53 LIG 0.04  A 
ATOM     48  CZ3 TRP P 344      22.099   8.365 -11.503  1.00 24.28 LIG 0.00  A 
ATOM     49  CH2 TRP P 344      21.777   9.543 -10.809  1.00 25.87 LIG 0.00  A 
ATOM     50  CZ2 TRP P 344      21.733  10.761 -11.443  1.00 24.89 LIG 0.03  A 
ATOM     51  NE1 TRP P 344      22.052  11.844 -13.681  1.00 27.39 LIG-0.36  N 
ATOM     52  CD1 TRP P 344      22.382  11.379 -14.932  1.00 29.08 LIG 0.10  A 
ATOM     53 HE1  TRP P 344      21.892  12.664 -13.480  1.00 27.39 LIG 0.17  HD
ENDBRANCH 43 44
ENDBRANCH 1 43
TORSDOF 19
