REMARK  19 active torsions:
REMARK  status: ('A' for Active; 'I' for Inactive)
REMARK    1  A    between atoms: CA_2  and  C_3 
REMARK    2  A    between atoms: CA_2  and  CB_5 
REMARK       I    between atoms: C_3  and  N_8 
REMARK    3  A    between atoms: CB_5  and  OG_6 
REMARK    4  A    between atoms: N_8  and  CA_9 
REMARK    5  A    between atoms: CA_9  and  CB_12 
REMARK    6  A    between atoms: CA_9  and  C_10 
REMARK       I    between atoms: C_10  and  N_17 
REMARK    7  A    between atoms: CB_12  and  CG_13 
REMARK    8  A    between atoms: CA_18  and  C_19 
REMARK       I    between atoms: C_19  and  N_24 
REMARK    9  A    between atoms: N_24  and  CA_25 
REMARK   10  A    between atoms: CA_25  and  C_26 
REMARK   11  A    between atoms: CA_25  and  CB_28 
REMARK       I    between atoms: C_26  and  N_40 
REMARK   12  A    between atoms: CB_28  and  CG_29 
REMARK   13  A    between atoms: N_40  and  CA_41 
REMARK   14  A    between atoms: CA_41  and  C_42 
REMARK   15  A    between atoms: CA_41  and  CB_44 
REMARK   16  A    between atoms: CB_44  and  CG_45 
REMARK   17  A    between atoms: CG_45  and  CD_46 
REMARK   18  A    between atoms: CD_46  and  CE_47 
REMARK   19  A    between atoms: CE_47  and  NZ_48 
ROOT
ATOM      1  CA  TRP P 344      24.221   8.664 -16.193  1.00 32.15     0.181 C 
ENDROOT
BRANCH   1   2
ATOM      2  N   TRP P 344      25.189   9.732 -16.348  1.00 31.29    -0.346 N 
ATOM      3  H   TRP P 344      24.896  10.431 -16.754  1.00 31.29     0.163 HD
ATOM      4  C   PRO P 343      26.425   9.596 -15.882  1.00 32.37     0.241 C 
ATOM      5  O   PRO P 343      26.834   8.559 -15.358  1.00 31.41    -0.271 OA
BRANCH   4   6
ATOM      6  CA  PRO P 343      27.345  10.799 -16.040  1.00 33.03     0.179 C 
ATOM      7  N   PRO P 343      26.779  11.858 -16.881  1.00 34.38    -0.337 N 
ATOM      8  C   ASP P 342      26.481  11.661 -18.173  1.00 36.67     0.243 C 
ATOM      9  CD  PRO P 343      26.353  13.002 -16.055  1.00 33.21     0.127 C 
ATOM     10  O   ASP P 342      26.651  10.573 -18.723  1.00 37.60    -0.271 OA
ATOM     11  CG  PRO P 343      26.371  12.417 -14.653  1.00 33.09     0.022 C 
ATOM     12  CB  PRO P 343      27.568  11.508 -14.717  1.00 32.10     0.037 C 
BRANCH   8  13
ATOM     13  CA  ASP P 342      25.903  12.845 -18.944  1.00 38.79     0.186 C 
BRANCH  13  14
ATOM     14  CB  ASP P 342      24.776  12.371 -19.863  1.00 38.78     0.147 C 
BRANCH  14  15
ATOM     15  CG  ASP P 342      23.586  11.838 -19.093  1.00 39.37     0.175 C 
ATOM     16  OD2 ASP P 342      22.593  11.434 -19.732  1.00 39.72    -0.648 OA
ATOM     17  OD1 ASP P 342      23.644  11.818 -17.847  1.00 40.57    -0.648 OA
ENDBRANCH  14  15
ENDBRANCH  13  14
BRANCH  13  18
ATOM     18  N   ASP P 342      26.980  13.428 -19.728  1.00 40.71    -0.345 N 
ATOM     19  H   ASP P 342      27.026  13.144 -20.539  1.00 40.71     0.163 HD
ATOM     20  C   SER P 341      27.808  14.323 -19.205  1.00 42.75     0.259 C 
ATOM     21  O   SER P 341      27.704  14.731 -18.047  1.00 44.14    -0.271 OA
BRANCH  20  22
ATOM     22  CA  SER P 341      28.910  14.850 -20.129  1.00 43.56     0.423 C 
ATOM     23  N   SER P 341      29.921  13.789 -20.433  1.00 43.48     0.617 N 
BRANCH  22  24
ATOM     24  CB  SER P 341      28.283  15.367 -21.429  1.00 43.44     0.215 C 
BRANCH  24  25
ATOM     25  OG  SER P 341      27.292  16.347 -21.157  1.00 45.13    -0.398 OA
ATOM     26  HG  SER P 341      26.961  16.619 -21.880  1.00 45.13     0.209 HD
ENDBRANCH  24  25
ENDBRANCH  22  24
ENDBRANCH  20  22
ENDBRANCH  13  18
ENDBRANCH   8  13
ENDBRANCH   4   6
ENDBRANCH   1   2
BRANCH   1  27
ATOM     27  C   TRP P 344      24.376   7.477 -17.120  1.00 32.97     0.241 C 
ATOM     28  O   TRP P 344      23.621   6.516 -17.016  1.00 31.81    -0.271 OA
ATOM     29  N   LYS P 345      25.344   7.532 -18.027  1.00 34.20    -0.345 N 
ATOM     30  H   LYS P 345      25.877   8.198 -18.140  1.00 34.20     0.163 HD
BRANCH  29  31
ATOM     31  CA  LYS P 345      25.559   6.402 -18.923  1.00 35.76     0.185 C 
BRANCH  31  32
ATOM     32  C   LYS P 345      26.857   6.521 -19.713  1.00 35.89     0.196 C 
ATOM     33  O   LYS P 345      27.832   7.047 -19.134  1.00 35.39    -0.646 OA
ATOM     34  OXT LYS P 345      26.886   6.067 -20.882  1.00 36.91    -0.646 OA
ENDBRANCH  31  32
BRANCH  31  35
ATOM     35  CB  LYS P 345      24.372   6.235 -19.875  1.00 34.89     0.036 C 
BRANCH  35  36
ATOM     36  CG  LYS P 345      24.297   4.846 -20.517  1.00 33.69     0.004 C 
BRANCH  36  37
ATOM     37  CD  LYS P 345      24.004   3.742 -19.511  1.00 29.41     0.027 C 
BRANCH  37  38
ATOM     38  CE  LYS P 345      24.421   2.374 -20.047  1.00 29.69     0.229 C 
BRANCH  38  39
ATOM     39  NZ  LYS P 345      24.058   1.228 -19.160  1.00 27.83    -0.079 N 
ATOM     40  HZ3 LYS P 345      23.175   1.206 -19.050  1.00 27.83     0.274 HD
ATOM     41  HZ1 LYS P 345      24.330   0.467 -19.532  1.00 27.83     0.274 HD
ATOM     42  HZ2 LYS P 345      24.453   1.328 -18.369  1.00 27.83     0.274 HD
ENDBRANCH  38  39
ENDBRANCH  37  38
ENDBRANCH  36  37
ENDBRANCH  35  36
ENDBRANCH  31  35
ENDBRANCH  29  31
ENDBRANCH   1  27
BRANCH   1  43
ATOM     43  CB  TRP P 344      22.799   9.223 -16.285  1.00 30.74     0.075 C 
BRANCH  43  44
ATOM     44  CG  TRP P 344      22.405   9.971 -15.050  1.00 29.17    -0.028 A 
ATOM     45  CD2 TRP P 344      22.191   9.416 -13.745  1.00 26.66    -0.002 A 
ATOM     46  CE3 TRP P 344      22.242   8.118 -13.221  1.00 26.53     0.014 A 
ATOM     47  CE2 TRP P 344      21.866  10.486 -12.885  1.00 26.53     0.042 A 
ATOM     48  CZ3 TRP P 344      21.969   7.930 -11.864  1.00 24.28     0.001 A 
ATOM     49  CH2 TRP P 344      21.647   9.020 -11.038  1.00 25.87     0.002 A 
ATOM     50  CZ2 TRP P 344      21.591  10.302 -11.530  1.00 24.89     0.030 A 
ATOM     51  NE1 TRP P 344      21.885  11.633 -13.634  1.00 27.39    -0.365 N 
ATOM     52  CD1 TRP P 344      22.207  11.314 -14.932  1.00 29.08     0.096 A 
ATOM     53  HE1 TRP P 344      21.722  12.424 -13.340  1.00 27.39     0.165 HD
ENDBRANCH  43  44
ENDBRANCH   1  43
TORSDOF 19
