REMARK  27 active torsions:
REMARK  status: ('A' for Active; 'I' for Inactive)
REMARK       I    between atoms: C_1  and  N_4 
REMARK    1  A    between atoms: N_4  and  CA_5 
REMARK    2  A    between atoms: CA_5  and  CB_8 
REMARK    3  A    between atoms: CA_5  and  C_6 
REMARK       I    between atoms: C_6  and  N_14 
REMARK    4  A    between atoms: CB_8  and  CG_9 
REMARK    5  A    between atoms: CG_9  and  CD_10 
REMARK    6  A    between atoms: N_14  and  CA_15 
REMARK    7  A    between atoms: CA_15  and  CB_18 
REMARK    8  A    between atoms: CA_15  and  C_16 
REMARK       I    between atoms: C_16  and  N_25 
REMARK    9  A    between atoms: CB_18  and  CG_19 
REMARK       I    between atoms: CG_19  and  ND2_21 
REMARK   10  A    between atoms: N_25  and  CA_26 
REMARK   11  A    between atoms: CA_26  and  CB_29 
REMARK   12  A    between atoms: CA_26  and  C_27 
REMARK       I    between atoms: C_27  and  N_34 
REMARK   13  A    between atoms: CB_29  and  CG_30 
REMARK   14  A    between atoms: N_34  and  CA_35 
REMARK   15  A    between atoms: CA_35  and  C_36 
REMARK   16  A    between atoms: CA_35  and  CB_38 
REMARK       I    between atoms: C_36  and  N_48 
REMARK   17  A    between atoms: CB_38  and  CG_39 
REMARK   18  A    between atoms: CZ_44  and  OH_45 
REMARK   19  A    between atoms: N_48  and  CA_49 
REMARK   20  A    between atoms: CA_49  and  C_50 
REMARK   21  A    between atoms: CA_49  and  CB_52 
REMARK       I    between atoms: C_50  and  N_60 
REMARK   22  A    between atoms: CB_52  and  CG_53 
REMARK   23  A    between atoms: N_60  and  CA_61 
REMARK   24  A    between atoms: CA_61  and  CB_64 
REMARK   25  A    between atoms: CA_61  and  C_62 
REMARK   26  A    between atoms: CB_64  and  CG_65 
REMARK   27  A    between atoms: CG_65  and  CD_66 
REMARK       I    between atoms: CD_66  and  NE2_68 
ROOT
ATOM      1  CA  TYR C 305       4.629  92.443  10.521  1.00 17.70     0.180 C 
ENDROOT
BRANCH   1   2
ATOM      2  N   TYR C 305       5.367  92.100   9.320  1.00 18.26    -0.346 N 
ATOM      3  C   LEU C 304       5.632  93.053   8.456  1.00 22.06     0.241 C 
ATOM      4  O   LEU C 304       5.219  94.181   8.603  1.00 19.49    -0.271 OA
ATOM      5  H   TYR C 305       5.594  91.274   9.240  1.00 18.26     0.163 HD
BRANCH   3   6
ATOM      6  CA  LEU C 304       6.452  92.656   7.216  1.00 20.64     0.177 C 
BRANCH   6   7
ATOM      7  CB  LEU C 304       7.913  92.416   7.631  1.00 15.74     0.038 C 
BRANCH   7   8
ATOM      8  CG  LEU C 304       8.977  92.140   6.519  1.00 18.57    -0.020 C 
ATOM      9  CD2 LEU C 304       8.660  90.866   5.813  1.00 21.94     0.009 C 
ATOM     10  CD1 LEU C 304      10.381  92.127   7.185  1.00 20.21     0.009 C 
ENDBRANCH   7   8
ENDBRANCH   6   7
BRANCH   6  11
ATOM     11  N   LEU C 304       6.389  93.713   6.228  1.00 19.38    -0.346 N 
ATOM     12  H   LEU C 304       6.612  94.498   6.498  1.00 19.38     0.163 HD
ATOM     13  C   ASN C 303       6.000  93.397   5.005  1.00 24.27     0.241 C 
ATOM     14  O   ASN C 303       5.641  92.262   4.708  1.00 22.60    -0.271 OA
BRANCH  13  15
ATOM     15  CA  ASN C 303       5.951  94.529   3.979  1.00 31.24     0.185 C 
BRANCH  15  16
ATOM     16  CB  ASN C 303       4.514  95.019   3.846  1.00 21.65     0.137 C 
BRANCH  16  17
ATOM     17  CG  ASN C 303       4.431  96.344   3.039  1.00 16.90     0.217 C 
ATOM     18  OD1 ASN C 303       5.416  97.103   2.943  1.00 28.96    -0.274 OA
ATOM     19  ND2 ASN C 303       3.253  96.605   2.476  1.00 28.67    -0.370 N 
ATOM     20 2HD2 ASN C 303       2.600  96.053   2.568  1.00 28.67     0.159 HD
ATOM     21 1HD2 ASN C 303       3.145  97.326   2.020  1.00 28.67     0.159 HD
ENDBRANCH  16  17
ENDBRANCH  15  16
BRANCH  15  22
ATOM     22  N   ASN C 303       6.437  94.031   2.694  1.00 31.60    -0.346 N 
ATOM     23  C   GLU C 302       7.712  93.684   2.551  1.00 42.93     0.241 C 
ATOM     24  O   GLU C 302       8.553  93.824   3.474  1.00 23.80    -0.271 OA
ATOM     25  H   ASN C 303       5.845  93.987   2.072  1.00 31.60     0.163 HD
BRANCH  23  26
ATOM     26  CA  GLU C 302       8.092  93.138   1.157  1.00 34.08     0.177 C 
BRANCH  26  27
ATOM     27  N   GLU C 302       9.510  93.135   0.947  1.00 23.23    -0.348 N 
HETATM   28  C   ACE C 301      10.165  94.276   0.939  1.00 22.46     0.214 C 
HETATM   29  O   ACE C 301       9.604  95.347   1.104  1.00 29.32    -0.274 OA
HETATM   30  CH3 ACE C 301      11.667  94.219   0.724  1.00 21.44     0.117 C 
ATOM     31  H   GLU C 302       9.865  92.360   0.834  1.00 23.23     0.163 HD
ENDBRANCH  26  27
BRANCH  26  32
ATOM     32  CB  GLU C 302       7.556  91.721   0.953  1.00 20.79     0.045 C 
BRANCH  32  33
ATOM     33  CG  GLU C 302       8.048  90.707   2.047  1.00 23.79     0.116 C 
BRANCH  33  34
ATOM     34  CD  GLU C 302       7.748  89.245   1.760  1.00 40.63     0.172 C 
ATOM     35  OE1 GLU C 302       6.762  88.909   1.082  1.00 32.87    -0.648 OA
ATOM     36  OE2 GLU C 302       8.494  88.395   2.270  1.00 33.51    -0.648 OA
ENDBRANCH  33  34
ENDBRANCH  32  33
ENDBRANCH  26  32
ENDBRANCH  23  26
ENDBRANCH  15  22
ENDBRANCH  13  15
ENDBRANCH   6  11
ENDBRANCH   3   6
ENDBRANCH   1   2
BRANCH   1  37
ATOM     37  C   TYR C 305       5.337  91.754  11.676  1.00 20.52     0.241 C 
ATOM     38  O   TYR C 305       5.724  90.589  11.557  1.00 23.93    -0.271 OA
ATOM     39  N   PHE C 306       5.519  92.473  12.768  1.00 17.96    -0.346 N 
ATOM     40  H   PHE C 306       5.283  93.294  12.870  1.00 17.96     0.163 HD
BRANCH  39  41
ATOM     41  CA  PHE C 306       6.191  91.833  13.948  1.00 18.04     0.180 C 
BRANCH  41  42
ATOM     42  C   PHE C 306       5.270  90.751  14.443  1.00 31.34     0.241 C 
ATOM     43  N   GLN C 307       5.824  89.567  14.689  1.00 26.23    -0.347 N 
ATOM     44  H   GLN C 307       6.667  89.405  14.642  1.00 26.23     0.163 HD
ATOM     45  O   PHE C 306       4.074  90.970  14.598  1.00 30.18    -0.271 OA
BRANCH  43  46
ATOM     46  CA  GLN C 307       4.996  88.421  15.071  1.00 27.99     0.163 C 
BRANCH  46  47
ATOM     47  CB  GLN C 307       5.559  87.195  14.363  1.00 36.24     0.043 C 
BRANCH  47  48
ATOM     48  CG  GLN C 307       4.576  86.087  14.169  1.00 42.27     0.105 C 
BRANCH  48  49
ATOM     49  CD  GLN C 307       5.183  84.966  13.344  1.00 30.08     0.215 C 
ATOM     50  NE2 GLN C 307       4.370  83.920  13.099  1.00 33.32    -0.370 N 
ATOM     51 1HE2 GLN C 307       3.569  83.916  13.412  1.00 33.32     0.159 HD
ATOM     52 2HE2 GLN C 307       4.652  83.257  12.630  1.00 33.32     0.159 HD
ATOM     53  OE1 GLN C 307       6.361  85.038  12.920  1.00 31.63    -0.274 OA
ENDBRANCH  48  49
ENDBRANCH  47  48
ENDBRANCH  46  47
BRANCH  46  54
ATOM     54  C   GLN C 307       4.790  88.143  16.553  1.00 39.25     0.219 C 
ATOM     55  O   GLN C 307       4.795  89.113  17.330  1.00 55.00    -0.287 OA
ENDBRANCH  46  54
ENDBRANCH  43  46
ENDBRANCH  41  42
BRANCH  41  56
ATOM     56  CB  PHE C 306       6.460  92.855  15.044  1.00 20.53     0.073 C 
BRANCH  56  57
ATOM     57  CG  PHE C 306       7.447  93.871  14.665  1.00 20.37    -0.056 A 
ATOM     58  CD2 PHE C 306       7.106  95.195  14.606  1.00 17.20     0.007 A 
ATOM     59  CE2 PHE C 306       8.048  96.165  14.296  1.00 19.90     0.001 A 
ATOM     60  CZ  PHE C 306       9.379  95.805  14.033  1.00 23.32     0.000 A 
ATOM     61  CE1 PHE C 306       9.729  94.453  14.089  1.00 27.54     0.001 A 
ATOM     62  CD1 PHE C 306       8.782  93.499  14.399  1.00 19.02     0.007 A 
ENDBRANCH  56  57
ENDBRANCH  41  56
ENDBRANCH  39  41
ENDBRANCH   1  37
BRANCH   1  63
ATOM     63  CB  TYR C 305       3.180  91.981  10.422  1.00 23.59     0.073 C 
BRANCH  63  64
ATOM     64  CG  TYR C 305       2.946  90.541  10.740  1.00 90.40    -0.056 A 
ATOM     65  CD2 TYR C 305       2.927  89.598   9.727  1.00 31.11     0.010 A 
ATOM     66  CE2 TYR C 305       2.708  88.235  10.003  1.00 55.34     0.037 A 
ATOM     67  CZ  TYR C 305       2.510  87.833  11.319  1.00 93.94     0.065 A 
ATOM     68  CE1 TYR C 305       2.525  88.765  12.356  1.00 56.99     0.037 A 
ATOM     69  CD1 TYR C 305       2.742  90.112  12.063  1.00 51.39     0.010 A 
BRANCH  67  70
ATOM     70  OH  TYR C 305       2.295  86.505  11.600  1.00 93.94    -0.361 OA
ATOM     71  HH  TYR C 305       1.615  86.428  12.087  1.00 93.94     0.217 HD
ENDBRANCH  67  70
ENDBRANCH  63  64
ENDBRANCH   1  63
TORSDOF 27
