USER: ADFR SOLUTION from run 0
USER: SCORE 11.386387 LL:  -3.604 LR:  -9.563 RR:   0.000 FEB:  -5.387
USER: RMSD 1.285421
USER: STATUS Locally minimized using BFGS
USER: GENES 16
USER: genes 0 Translation |==|  0.47342 0.43703 0.53108
USER: genes 1 Rotation |==|  0.52059 0.54345 0.51913 0.99732
USER: genes 2 Torsion [C]-CA--CB-[CG2] |==|  0.49971
USER: genes 3 Torsion [N]-CA--C-[N] |==|  0.28755
USER: genes 4 Torsion [N]-CA--C-[O] |==|  0.91684
USER: genes 5 Torsion [C]-N--CA-[C] |==|  0.61921
USER: genes 6 Torsion [N]-CA--C-[O] |==|  0.41625
USER: genes 7 Torsion [N]-CA--CB-[CG1] |==|  0.78766
USER: genes 8 Torsion [CB]-CA--N-[C] |==|  0.37781
USER: genes 9 Torsion [N]-C--CA-[N] |==|  0.47110
USER: genes 10 Torsion [C]-CA--N-[C] |==|  0.78596
USER: genes 11 Torsion [N]-C--CA-[N] |==|  0.36213
USER: genes 12 Torsion [C]-CA--CB-[CG] |==|  0.14477
USER: genes 13 Torsion [CA]-CB--CG-[CD2] |==|  0.47531
USER: genes 14 Torsion [C]-CA--CB-[CG] |==|  0.70449
USER: genes 15 Torsion [CA]-CB--CG-[OD1] |==|  0.07582
ROOT
ATOM      1  CA  VAL B1253      10.980  -0.231   1.590  1.00 16.87 LIG 0.18  C 
ENDROOT
BRANCH 1 2
ATOM      2  CB  VAL B1253       9.987  -1.317   1.974  1.00 16.98 LIG 0.01  C 
ATOM      3  CG2 VAL B1253      10.080  -2.517   1.007  1.00 17.49 LIG 0.01  C 
ATOM      4  CG1 VAL B1253       8.583  -0.727   2.015  1.00 17.27 LIG 0.01  C 
ENDBRANCH 1 2
BRANCH 1 5
ATOM      5  C   VAL B1253      10.814   0.900   2.589  1.00 15.50 LIG 0.24  C 
ATOM      6 O    VAL B1253      10.728   0.659   3.795  1.00 14.12 LIG-0.27  OA
ATOM      7  N   PRO B1254      10.755   2.127   2.110  1.00 15.47 LIG-0.34  N 
ATOM      8  CD  PRO B1254      11.039   2.549   0.731  1.00 15.59 LIG 0.13  C 
ATOM      9  CA  PRO B1254      10.438   3.272   2.997  1.00 15.20 LIG 0.18  C 
ATOM     10  CG  PRO B1254      11.204   4.038   0.815  1.00 16.22 LIG 0.02  C 
ATOM     11  CB  PRO B1254      10.678   4.518   2.116  1.00 15.83 LIG 0.04  C 
BRANCH 9 12
ATOM     12  C   PRO B1254       8.991   3.240   3.543  1.00 15.00 LIG 0.24  C 
ATOM     13 O    PRO B1254       8.027   2.734   2.927  1.00 15.08 LIG-0.27  OA
ATOM     14  N   VAL B1255       8.858   3.748   4.764  1.00 14.75 LIG-0.34  N 
ATOM     15 H    VAL B1255       9.521   4.014   5.243  1.00 14.75 LIG 0.16  HD
BRANCH 14 16
ATOM     16  CA  VAL B1255       7.561   3.901   5.408  1.00 15.14 LIG 0.19  C 
BRANCH 16 17
ATOM     17  C   VAL B1255       7.455   5.258   6.117  1.00 15.86 LIG 0.20  C 
ATOM     18 O    VAL B1255       6.369   5.825   6.236  1.00 17.42 LIG-0.65  OA
ATOM     19 OXT  VAL B1255       8.446   5.813   6.586  1.00 14.43 LIG-0.65  OA
ENDBRANCH 16 17
BRANCH 16 20
ATOM     20  CB  VAL B1255       7.278   2.742   6.420  1.00 15.34 LIG 0.01  C 
ATOM     21  CG1 VAL B1255       6.891   1.479   5.680  1.00 14.42 LIG 0.01  C 
ATOM     22  CG2 VAL B1255       8.472   2.480   7.336  1.00 13.28 LIG 0.01  C 
ENDBRANCH 16 20
ENDBRANCH 14 16
ENDBRANCH 9 12
ENDBRANCH 1 5
BRANCH 1 23
ATOM     23  N   VAL B1253      12.342  -0.708   1.602  1.00 17.12 LIG-0.35  N 
ATOM     24  C   ASP B1252      13.188  -0.404   0.626  1.00 19.01 LIG 0.24  C 
ATOM     25 O    ASP B1252      12.916   0.345  -0.288  1.00 18.72 LIG-0.27  OA
ATOM     26 H    VAL B1253      12.545  -1.194   2.282  1.00 17.12 LIG 0.16  HD
BRANCH 24 27
ATOM     27  CA  ASP B1252      14.543  -1.038   0.698  1.00 20.50 LIG 0.19  C 
BRANCH 27 28
ATOM     28  N   ASP B1252      15.297  -0.832  -0.538  1.00 21.10 LIG-0.34  N 
ATOM     29  C   LEU B1251      15.048  -1.538  -1.636  1.00 22.51 LIG 0.26  C 
ATOM     30 O    LEU B1251      14.251  -2.471  -1.654  1.00 22.36 LIG-0.27  OA
ATOM     31 H    ASP B1252      15.903  -0.224  -0.487  1.00 21.10 LIG 0.16  HD
BRANCH 29 32
ATOM     32  CA  LEU B1251      15.766  -1.106  -2.917  1.00 23.47 LIG 0.40  C 
ATOM     33  N   LEU B1251      16.414  -2.260  -3.579  1.00 25.02 LIG 0.61  N 
BRANCH 32 34
ATOM     34  CB  LEU B1251      14.772  -0.482  -3.895  1.00 24.34 LIG 0.06  C 
BRANCH 34 35
ATOM     35  CG  LEU B1251      13.864   0.639  -3.431  1.00 26.35 LIG-0.02  C 
ATOM     36  CD2 LEU B1251      13.153   1.214  -4.620  1.00 28.22 LIG 0.01  C 
ATOM     37  CD1 LEU B1251      14.539   1.755  -2.638  1.00 26.24 LIG 0.01  C 
ENDBRANCH 34 35
ENDBRANCH 32 34
ENDBRANCH 29 32
ENDBRANCH 27 28
BRANCH 27 38
ATOM     38  CB  ASP B1252      15.295  -0.572   1.950  1.00 20.08 LIG 0.15  C 
BRANCH 38 39
ATOM     39  CG  ASP B1252      16.442   0.431   1.691  1.00 25.61 LIG 0.17  C 
ATOM     40 OD1  ASP B1252      16.435   1.197   0.704  1.00 33.05 LIG-0.65  OA
ATOM     41 OD2  ASP B1252      17.461   0.489   2.461  1.00 30.53 LIG-0.65  OA
ENDBRANCH 38 39
ENDBRANCH 27 38
ENDBRANCH 24 27
ENDBRANCH 1 23
TORSDOF 14
