REMARK  14 active torsions:
REMARK  status: ('A' for Active; 'I' for Inactive)
REMARK    1  A    between atoms: CA_2  and  C_3 
REMARK       I    between atoms: C_3  and  N_6 
REMARK    2  A    between atoms: N_6  and  CA_7 
REMARK    3  A    between atoms: CA_7  and  CB_10 
REMARK    4  A    between atoms: CA_7  and  C_8 
REMARK       I    between atoms: C_8  and  N_14 
REMARK    5  A    between atoms: CB_10  and  OG_11 
REMARK    6  A    between atoms: N_14  and  CA_15 
REMARK    7  A    between atoms: CA_15  and  CB_18 
REMARK    8  A    between atoms: CA_15  and  C_16 
REMARK       I    between atoms: C_16  and  N_22 
REMARK    9  A    between atoms: N_22  and  CA_23 
REMARK   10  A    between atoms: CA_23  and  CB_26 
REMARK   11  A    between atoms: CA_23  and  C_24 
REMARK       I    between atoms: C_24  and  N_30 
REMARK   12  A    between atoms: CB_26  and  OG_27 
REMARK   13  A    between atoms: N_30  and  CA_31 
REMARK   14  A    between atoms: CA_31  and  C_32 
ROOT
ATOM      1  CA  VAL B 303      13.646   3.641  32.243  1.00 37.13     0.180 C 
ENDROOT
BRANCH   1   2
ATOM      2  N   VAL B 303      12.379   3.377  32.913  1.00 37.20    -0.346 N 
ATOM      3  C   SER B 302      11.964   2.140  33.165  1.00 37.39     0.243 C 
ATOM      4  O   SER B 302      12.606   1.138  32.838  1.00 37.76    -0.271 OA
ATOM      5  H   VAL B 303      11.936   4.083  33.125  1.00 37.20     0.163 HD
BRANCH   3   6
ATOM      6  CA  SER B 302      10.624   2.014  33.882  1.00 37.09     0.200 C 
BRANCH   6   7
ATOM      7  N   SER B 302      10.087   0.667  33.740  1.00 36.48    -0.344 N 
ATOM      8  H   SER B 302      10.684   0.052  33.669  1.00 36.48     0.163 HD
ATOM      9  C   ALA B 301       8.778   0.436  33.725  1.00 36.26     0.257 C 
ATOM     10  O   ALA B 301       7.940   1.331  33.836  1.00 35.88    -0.271 OA
BRANCH   9  11
ATOM     11  CA  ALA B 301       8.349  -1.019  33.562  1.00 36.43     0.396 C 
ATOM     12  CB  ALA B 301       8.306  -1.387  32.082  1.00 36.70     0.059 C 
ATOM     13  N   ALA B 301       7.010  -1.253  34.179  1.00 36.51     0.614 N 
ENDBRANCH   9  11
ENDBRANCH   6   7
BRANCH   6  14
ATOM     14  CB  SER B 302      10.802   2.367  35.362  1.00 37.65     0.199 C 
BRANCH  14  15
ATOM     15  OG  SER B 302      11.771   1.534  35.972  1.00 38.63    -0.398 OA
ATOM     16  HG  SER B 302      11.853   1.745  36.781  1.00 38.63     0.209 HD
ENDBRANCH  14  15
ENDBRANCH   6  14
ENDBRANCH   3   6
ENDBRANCH   1   2
BRANCH   1  17
ATOM     17  CB  VAL B 303      13.452   3.858  30.720  1.00 37.28     0.009 C 
ATOM     18  CG1 VAL B 303      12.895   2.599  30.083  1.00 36.92     0.012 C 
ATOM     19  CG2 VAL B 303      12.518   5.035  30.473  1.00 37.06     0.012 C 
ENDBRANCH   1  17
BRANCH   1  20
ATOM     20  C   VAL B 303      14.284   4.889  32.837  1.00 37.27     0.241 C 
ATOM     21  O   VAL B 303      13.599   5.726  33.428  1.00 36.92    -0.271 OA
ATOM     22  N   SER B 304      15.598   5.008  32.689  1.00 37.37    -0.344 N 
ATOM     23  H   SER B 304      16.093   4.428  32.291  1.00 37.37     0.163 HD
BRANCH  22  24
ATOM     24  CA  SER B 304      16.319   6.165  33.205  1.00 37.74     0.200 C 
BRANCH  24  25
ATOM     25  CB  SER B 304      17.493   5.714  34.077  1.00 37.88     0.199 C 
BRANCH  25  26
ATOM     26  OG  SER B 304      18.408   4.932  33.327  1.00 38.36    -0.398 OA
ATOM     27  HG  SER B 304      19.045   4.695  33.821  1.00 38.36     0.209 HD
ENDBRANCH  25  26
ENDBRANCH  24  25
BRANCH  24  28
ATOM     28  C   SER B 304      16.830   7.002  32.036  1.00 37.93     0.243 C 
ATOM     29  O   SER B 304      17.239   6.459  31.009  1.00 38.21    -0.271 OA
ATOM     30  N   ALA B 305      16.804   8.321  32.193  1.00 38.06    -0.348 N 
ATOM     31  H   ALA B 305      16.524   8.715  32.904  1.00 38.06     0.163 HD
BRANCH  30  32
ATOM     32  CA  ALA B 305      17.261   9.223  31.142  1.00 38.30     0.158 C 
ATOM     33  CB  ALA B 305      16.427  10.503  31.162  1.00 38.13     0.041 C 
BRANCH  32  34
ATOM     34  C   ALA B 305      18.738   9.563  31.305  1.00 38.47     0.219 C 
ATOM     35  O   ALA B 305      19.140  10.660  30.864  1.00 38.58    -0.287 OA
ENDBRANCH  32  34
ENDBRANCH  30  32
ENDBRANCH  24  28
ENDBRANCH  22  24
ENDBRANCH   1  20
TORSDOF 14
