REMARK  24 active torsions:
REMARK  status: ('A' for Active; 'I' for Inactive)
REMARK    1  A    between atoms: N_1  and  CA_2 
REMARK    2  A    between atoms: CA_2  and  C_3 
REMARK    3  A    between atoms: CA_2  and  CB_5 
REMARK       I    between atoms: C_3  and  N_12 
REMARK    4  A    between atoms: CB_5  and  OG1_6 
REMARK    5  A    between atoms: N_12  and  CA_13 
REMARK    6  A    between atoms: CA_13  and  C_14 
REMARK    7  A    between atoms: CA_13  and  CB_16 
REMARK       I    between atoms: C_14  and  N_23 
REMARK    8  A    between atoms: CB_16  and  CG_17 
REMARK       I    between atoms: CG_17  and  ND2_19 
REMARK    9  A    between atoms: N_23  and  CA_24 
REMARK   10  A    between atoms: CA_24  and  C_25 
REMARK   11  A    between atoms: CA_24  and  CB_27 
REMARK       I    between atoms: C_25  and  N_33 
REMARK   12  A    between atoms: CB_27  and  CG_28 
REMARK   13  A    between atoms: CG_28  and  CD_29 
REMARK   14  A    between atoms: N_33  and  CA_34 
REMARK   15  A    between atoms: CA_34  and  CB_37 
REMARK   16  A    between atoms: CA_34  and  C_35 
REMARK       I    between atoms: C_35  and  N_45 
REMARK   17  A    between atoms: CB_37  and  CG_38 
REMARK   18  A    between atoms: N_45  and  CA_46 
REMARK   19  A    between atoms: CA_46  and  C_47 
REMARK   20  A    between atoms: CA_46  and  CB_49 
REMARK       I    between atoms: C_47  and  N_59 
REMARK   21  A    between atoms: CB_49  and  CG_50 
REMARK   22  A    between atoms: CZ_55  and  OH_56 
REMARK   23  A    between atoms: N_59  and  CA_60 
REMARK   24  A    between atoms: CA_60  and  C_61 
ROOT
ATOM      1  C   GLU Q   3      15.056 -14.419  16.504  1.00 28.90     0.241 C 
ATOM      2  O   GLU Q   3      15.951 -13.774  15.945  1.00 28.99    -0.271 OA
ATOM      3  N   PHE Q   4      14.516 -15.508  15.957  1.00 26.46    -0.346 N 
ATOM      4  H   PHE Q   4      13.948 -16.004  16.371  1.00 26.46     0.163 HD
ENDROOT
BRANCH   3   5
ATOM      5  CA  PHE Q   4      14.821 -15.978  14.612  1.00 24.91     0.180 C 
BRANCH   5   6
ATOM      6  CB  PHE Q   4      15.447 -17.377  14.607  1.00 23.71     0.073 C 
BRANCH   6   7
ATOM      7  CG  PHE Q   4      16.878 -17.401  15.104  1.00 27.82    -0.056 A 
ATOM      8  CD1 PHE Q   4      17.940 -17.566  14.225  1.00 28.27     0.007 A 
ATOM      9  CE1 PHE Q   4      19.258 -17.594  14.694  1.00 33.51     0.001 A 
ATOM     10  CZ  PHE Q   4      19.511 -17.413  16.042  1.00 29.48     0.000 A 
ATOM     11  CE2 PHE Q   4      18.482 -17.208  16.914  1.00 30.45     0.001 A 
ATOM     12  CD2 PHE Q   4      17.149 -17.227  16.453  1.00 30.03     0.007 A 
ENDBRANCH   6   7
ENDBRANCH   5   6
BRANCH   5  13
ATOM     13  C   PHE Q   4      13.547 -16.001  13.774  1.00 24.46     0.241 C 
ATOM     14  O   PHE Q   4      12.475 -16.396  14.238  1.00 21.72    -0.271 OA
ATOM     15  N   TYR Q   5      13.719 -15.603  12.515  1.00 25.68    -0.346 N 
ATOM     16  H   TYR Q   5      14.482 -15.338  12.220  1.00 25.68     0.163 HD
BRANCH  15  17
ATOM     17  CA  TYR Q   5      12.672 -15.561  11.493  1.00 24.76     0.180 C 
BRANCH  17  18
ATOM     18  C   TYR Q   5      12.919 -16.723  10.576  1.00 23.71     0.241 C 
ATOM     19  N   ALA Q   6      11.884 -17.526  10.373  1.00 23.95    -0.345 N 
ATOM     20  H   ALA Q   6      11.115 -17.432  10.747  1.00 23.95     0.163 HD
ATOM     21  O   TYR Q   5      14.002 -16.866   9.998  1.00 22.91    -0.271 OA
BRANCH  19  22
ATOM     22  CA  ALA Q   6      11.989 -18.658   9.472  1.00 23.91     0.181 C 
ATOM     23  CB  ALA Q   6      12.090 -19.942  10.267  1.00 25.24     0.043 C 
BRANCH  22  24
ATOM     24  C   ALA Q   6      10.863 -18.756   8.450  1.00 23.52     0.196 C 
ATOM     25  O   ALA Q   6       9.866 -18.054   8.507  1.00 23.09    -0.646 OA
ATOM     26  OXT ALA Q   6      10.953 -19.604   7.556  1.00 23.23    -0.646 OA
ENDBRANCH  22  24
ENDBRANCH  19  22
ENDBRANCH  17  18
BRANCH  17  27
ATOM     27  CB  TYR Q   5      12.747 -14.231  10.706  1.00 25.21     0.073 C 
BRANCH  27  28
ATOM     28  CG  TYR Q   5      11.824 -14.136   9.501  1.00 26.66    -0.056 A 
ATOM     29  CD1 TYR Q   5      10.530 -14.633   9.525  1.00 25.58     0.010 A 
ATOM     30  CE1 TYR Q   5       9.701 -14.547   8.391  1.00 26.73     0.037 A 
ATOM     31  CZ  TYR Q   5      10.172 -13.946   7.231  1.00 25.10     0.065 A 
ATOM     32  CE2 TYR Q   5      11.431 -13.419   7.198  1.00 24.98     0.037 A 
ATOM     33  CD2 TYR Q   5      12.260 -13.521   8.325  1.00 25.59     0.010 A 
BRANCH  31  34
ATOM     34  OH  TYR Q   5       9.372 -13.847   6.105  1.00 28.49    -0.361 OA
ATOM     35  HH  TYR Q   5       9.738 -13.340   5.544  1.00 28.49     0.217 HD
ENDBRANCH  31  34
ENDBRANCH  27  28
ENDBRANCH  17  27
ENDBRANCH  15  17
ENDBRANCH   5  13
ENDBRANCH   3   5
BRANCH   1  36
ATOM     36  CA  GLU Q   3      14.565 -14.037  17.904  1.00 29.75     0.177 C 
BRANCH  36  37
ATOM     37  CB  GLU Q   3      13.238 -13.264  17.840  1.00 29.86     0.045 C 
BRANCH  37  38
ATOM     38  CG  GLU Q   3      12.503 -12.940  19.131  1.00 30.70     0.116 C 
BRANCH  38  39
ATOM     39  CD  GLU Q   3      13.032 -11.663  19.768  1.00 35.33     0.172 C 
ATOM     40  OE1 GLU Q   3      13.857 -11.008  19.087  1.00 35.34    -0.648 OA
ATOM     41  OE2 GLU Q   3      12.647 -11.335  20.926  1.00 35.74    -0.648 OA
ENDBRANCH  38  39
ENDBRANCH  37  38
ENDBRANCH  36  37
BRANCH  36  42
ATOM     42  N   GLU Q   3      15.607 -13.274  18.598  1.00 32.75    -0.346 N 
ATOM     43  C   ASN Q   2      16.615 -13.882  19.229  1.00 36.04     0.241 C 
ATOM     44  O   ASN Q   2      16.704 -15.119  19.296  1.00 34.76    -0.271 OA
ATOM     45  H   GLU Q   3      15.508 -12.421  18.560  1.00 32.75     0.163 HD
BRANCH  43  46
ATOM     46  CA  ASN Q   2      17.703 -12.968  19.831  1.00 38.34     0.185 C 
BRANCH  46  47
ATOM     47  CB  ASN Q   2      18.390 -13.629  21.037  1.00 38.76     0.137 C 
BRANCH  47  48
ATOM     48  CG  ASN Q   2      19.613 -12.843  21.529  1.00 42.06     0.217 C 
ATOM     49  ND2 ASN Q   2      19.736 -12.705  22.842  1.00 46.27    -0.370 N 
ATOM     50 2HD2 ASN Q   2      19.142 -13.038  23.367  1.00 46.27     0.159 HD
ATOM     51 1HD2 ASN Q   2      20.410 -12.282  23.169  1.00 46.27     0.159 HD
ATOM     52  OD1 ASN Q   2      20.441 -12.381  20.740  1.00 44.45    -0.274 OA
ENDBRANCH  47  48
ENDBRANCH  46  47
BRANCH  46  53
ATOM     53  N   ASN Q   2      17.237 -11.618  20.159  1.00 39.54    -0.345 N 
ATOM     54  C   THR Q   1      16.298 -11.339  21.056  1.00 41.49     0.251 C 
ATOM     55  O   THR Q   1      15.817 -12.185  21.811  1.00 41.78    -0.271 OA
ATOM     56  H   ASN Q   2      17.637 -11.006  19.706  1.00 39.54     0.163 HD
BRANCH  54  57
ATOM     57  CA  THR Q   1      15.864  -9.870  21.155  1.00 43.16     0.302 C 
BRANCH  57  58
ATOM     58  CB  THR Q   1      16.949  -8.980  21.814  1.00 43.89     0.153 C 
ATOM     59  CG2 THR Q   1      17.486  -9.648  23.065  1.00 45.05     0.042 C 
BRANCH  58  60
ATOM     60  OG1 THR Q   1      18.095  -8.837  20.953  1.00 46.29    -0.393 OA
ATOM     61  HG1 THR Q   1      18.669  -8.351  21.328  1.00 46.29     0.210 HD
ENDBRANCH  58  60
ENDBRANCH  57  58
BRANCH  57  62
ATOM     62  N   THR Q   1      14.581  -9.728  21.922  1.00 43.28    -0.064 N 
ATOM     63  H2  THR Q   1      14.050 -10.420  21.744  1.00 43.28     0.275 HD
ATOM     64  H1  THR Q   1      14.174  -8.973  21.683  1.00 43.28     0.275 HD
ATOM     65  H3  THR Q   1      14.757  -9.707  22.794  1.00 43.28     0.275 HD
ENDBRANCH  57  62
ENDBRANCH  54  57
ENDBRANCH  46  53
ENDBRANCH  43  46
ENDBRANCH  36  42
ENDBRANCH   1  36
TORSDOF 24
