USER: ADFR SOLUTION from run 0
USER: SCORE 18.542939 LL:  -6.403 LR: -14.287 RR:   0.000 FEB:  -7.128
USER: RMSD 0.711969
USER: STATUS Locally minimized using BFGS
USER: GENES 26
USER: genes 0 Translation |==|  0.49614 0.47700 0.58162
USER: genes 1 Rotation |==|  0.50229 0.50770 0.51011 0.99983
USER: genes 2 Torsion [C]-N--CA-[CB] |==|  0.32325
USER: genes 3 Torsion [N]-CA--CB-[CG] |==|  0.85215
USER: genes 4 Torsion [CA]-CB--CG-[CD1] |==|  0.69891
USER: genes 5 Torsion [N]-CA--C-[N] |==|  0.39047
USER: genes 6 Torsion [C]-N--CA-[C] |==|  0.70832
USER: genes 7 Torsion [N]-CA--C-[N] |==|  0.37200
USER: genes 8 Torsion [C]-N--CA-[CB] |==|  0.29482
USER: genes 9 Torsion [N]-CA--C-[O] |==|  0.98067
USER: genes 10 Torsion [N]-CA--CB-[CG] |==|  0.49083
USER: genes 11 Torsion [CA]-CB--CG-[CD2] |==|  0.60722
USER: genes 12 Torsion [CE1]-CZ--OH-[HH] |==|  0.46996
USER: genes 13 Torsion [N]-C--CA-[N] |==|  0.43722
USER: genes 14 Torsion [C]-CA--CB-[CG] |==|  0.48699
USER: genes 15 Torsion [CA]-CB--CG-[CD] |==|  0.23431
USER: genes 16 Torsion [CB]-CG--CD-[OE1] |==|  0.05314
USER: genes 17 Torsion [C]-CA--N-[C] |==|  0.73889
USER: genes 18 Torsion [N]-C--CA-[N] |==|  0.05273
USER: genes 19 Torsion [C]-CA--CB-[CG] |==|  0.48755
USER: genes 20 Torsion [CA]-CB--CG-[ND2] |==|  0.38133
USER: genes 21 Torsion [C]-CA--N-[C] |==|  0.18733
USER: genes 22 Torsion [N]-C--CA-[N] |==|  0.42599
USER: genes 23 Torsion [C]-CA--CB-[CG2] |==|  0.87544
USER: genes 24 Torsion [CA]-CB--OG1-[HG1] |==|  0.49979
USER: genes 25 Torsion [C]-CA--N-[H1] |==|  0.57176
ROOT
ATOM      1  C   GLU Q   3      14.831 -14.612  16.598  1.00 28.90 LIG 0.24  C 
ATOM      2 O    GLU Q   3      15.681 -13.926  16.019  1.00 28.99 LIG-0.27  OA
ATOM      3  N   PHE Q   4      14.318 -15.717  16.058  1.00 26.46 LIG-0.35  N 
ATOM      4 H    PHE Q   4      13.784 -16.239  16.484  1.00 26.46 LIG 0.16  HD
ENDROOT
BRANCH 3 5
ATOM      5  CA  PHE Q   4      14.600 -16.163  14.699  1.00 24.91 LIG 0.18  C 
BRANCH 5 6
ATOM      6  CB  PHE Q   4      15.332 -17.509  14.663  1.00 23.71 LIG 0.07  C 
BRANCH 6 7
ATOM      7  CG  PHE Q   4      16.589 -17.536  15.509  1.00 27.82 LIG-0.06  A 
ATOM      8  CD1 PHE Q   4      17.848 -17.554  14.923  1.00 28.27 LIG 0.01  A 
ATOM      9  CE1 PHE Q   4      19.003 -17.586  15.712  1.00 33.51 LIG 0.00  A 
ATOM     10  CZ  PHE Q   4      18.894 -17.558  17.091  1.00 29.48 LIG 0.00  A 
ATOM     11  CE2 PHE Q   4      17.666 -17.499  17.683  1.00 30.45 LIG 0.00  A 
ATOM     12  CD2 PHE Q   4      16.498 -17.514  16.893  1.00 30.03 LIG 0.01  A 
ENDBRANCH 6 7
ENDBRANCH 5 6
BRANCH 5 13
ATOM     13  C   PHE Q   4      13.297 -16.286  13.917  1.00 24.46 LIG 0.24  C 
ATOM     14 O    PHE Q   4      12.281 -16.766  14.425  1.00 21.72 LIG-0.27  OA
ATOM     15  N   TYR Q   5      13.381 -15.872  12.654  1.00 25.68 LIG-0.35  N 
ATOM     16 H    TYR Q   5      14.107 -15.546  12.328  1.00 25.68 LIG 0.16  HD
BRANCH 15 17
ATOM     17  CA  TYR Q   5      12.290 -15.912  11.679  1.00 24.76 LIG 0.18  C 
BRANCH 17 18
ATOM     18  C   TYR Q   5      12.589 -17.048  10.745  1.00 23.71 LIG 0.24  C 
ATOM     19  N   ALA Q   6      11.572 -17.854  10.476  1.00 23.95 LIG-0.34  N 
ATOM     20 H    ALA Q   6      10.787 -17.777  10.818  1.00 23.95 LIG 0.16  HD
ATOM     21 O    TYR Q   5      13.698 -17.166  10.212  1.00 22.91 LIG-0.27  OA
BRANCH 19 22
ATOM     22  CA  ALA Q   6      11.728 -18.962   9.553  1.00 23.91 LIG 0.18  C 
ATOM     23  CB  ALA Q   6      11.776 -20.268  10.317  1.00 25.24 LIG 0.04  C 
BRANCH 22 24
ATOM     24  C   ALA Q   6      10.667 -19.026   8.462  1.00 23.52 LIG 0.20  C 
ATOM     25 O    ALA Q   6       9.696 -18.286   8.450  1.00 23.09 LIG-0.65  OA
ATOM     26 OXT  ALA Q   6      10.781 -19.885   7.581  1.00 23.23 LIG-0.65  OA
ENDBRANCH 22 24
ENDBRANCH 19 22
ENDBRANCH 17 18
BRANCH 17 27
ATOM     27  CB  TYR Q   5      12.224 -14.578  10.898  1.00 25.21 LIG 0.07  C 
BRANCH 27 28
ATOM     28  CG  TYR Q   5      11.178 -14.521   9.796  1.00 26.66 LIG-0.06  A 
ATOM     29  CD1 TYR Q   5       9.920 -15.084   9.947  1.00 25.58 LIG 0.01  A 
ATOM     30  CE1 TYR Q   5       8.974 -15.032   8.906  1.00 26.73 LIG 0.04  A 
ATOM     31  CZ  TYR Q   5       9.292 -14.400   7.711  1.00 25.10 LIG 0.07  A 
ATOM     32  CE2 TYR Q   5      10.513 -13.809   7.555  1.00 24.98 LIG 0.04  A 
ATOM     33  CD2 TYR Q   5      11.458 -13.877   8.589  1.00 25.59 LIG 0.01  A 
BRANCH 31 34
ATOM     34 OH   TYR Q   5       8.375 -14.334   6.675  1.00 28.49 LIG-0.36  OA
ATOM     35 HH   TYR Q   5       8.653 -13.802   6.087  1.00 28.49 LIG 0.22  HD
ENDBRANCH 31 34
ENDBRANCH 27 28
ENDBRANCH 17 27
ENDBRANCH 15 17
ENDBRANCH 5 13
ENDBRANCH 3 5
BRANCH 1 36
ATOM     36  CA  GLU Q   3      14.368 -14.262  18.017  1.00 29.75 LIG 0.18  C 
BRANCH 36 37
ATOM     37  CB  GLU Q   3      12.973 -13.618  18.007  1.00 29.86 LIG 0.04  C 
BRANCH 37 38
ATOM     38  CG  GLU Q   3      12.293 -13.297  19.329  1.00 30.70 LIG 0.12  C 
BRANCH 38 39
ATOM     39  CD  GLU Q   3      12.745 -11.950  19.875  1.00 35.33 LIG 0.17  C 
ATOM     40 OE1  GLU Q   3      13.269 -11.167  19.047  1.00 35.34 LIG-0.65  OA
ATOM     41 OE2  GLU Q   3      12.597 -11.690  21.102  1.00 35.74 LIG-0.65  OA
ENDBRANCH 38 39
ENDBRANCH 37 38
ENDBRANCH 36 37
BRANCH 36 42
ATOM     42  N   GLU Q   3      15.363 -13.397  18.657  1.00 32.75 LIG-0.35  N 
ATOM     43  C   ASN Q   2      16.331 -13.898  19.430  1.00 36.04 LIG 0.24  C 
ATOM     44 O    ASN Q   2      16.418 -15.112  19.678  1.00 34.76 LIG-0.27  OA
ATOM     45 H    GLU Q   3      15.265 -12.559  18.492  1.00 32.75 LIG 0.16  HD
BRANCH 43 46
ATOM     46  CA  ASN Q   2      17.377 -12.896  19.961  1.00 38.34 LIG 0.18  C 
BRANCH 46 47
ATOM     47  CB  ASN Q   2      17.869 -13.286  21.365  1.00 38.76 LIG 0.14  C 
BRANCH 47 48
ATOM     48  CG  ASN Q   2      18.990 -12.372  21.878  1.00 42.06 LIG 0.22  C 
ATOM     49  ND2 ASN Q   2      18.906 -11.989  23.144  1.00 46.27 LIG-0.37  N 
ATOM     50 22HD ASN Q   2      18.242 -12.244  23.628  1.00 46.27 LIG 0.16  HD
ATOM     51 21HD ASN Q   2      19.515 -11.485  23.483  1.00 46.27 LIG 0.16  HD
ATOM     52 OD1  ASN Q   2      19.924 -12.028  21.149  1.00 44.45 LIG-0.27  OA
ENDBRANCH 47 48
ENDBRANCH 46 47
BRANCH 46 53
ATOM     53  N   ASN Q   2      16.942 -11.497  19.920  1.00 39.54 LIG-0.34  N 
ATOM     54  C   THR Q   1      15.968 -10.986  20.663  1.00 41.49 LIG 0.25  C 
ATOM     55 O    THR Q   1      15.418 -11.609  21.572  1.00 41.78 LIG-0.27  OA
ATOM     56 H    ASN Q   2      17.387 -11.024  19.356  1.00 39.54 LIG 0.16  HD
BRANCH 54 57
ATOM     57  CA  THR Q   1      15.581  -9.529  20.373  1.00 43.16 LIG 0.30  C 
BRANCH 57 58
ATOM     58  CB  THR Q   1      16.499  -8.520  21.109  1.00 43.89 LIG 0.15  C 
ATOM     59  CG2 THR Q   1      16.707  -8.953  22.547  1.00 45.05 LIG 0.04  C 
BRANCH 58 60
ATOM     60 OG1  THR Q   1      17.820  -8.507  20.534  1.00 46.29 LIG-0.39  OA
ATOM     61 HG1  THR Q   1      18.300  -7.954  20.947  1.00 46.29 LIG 0.21  HD
ENDBRANCH 58 60
ENDBRANCH 57 58
BRANCH 57 62
ATOM     62  N   THR Q   1      14.153  -9.256  20.748  1.00 43.28 LIG-0.06  N 
ATOM     63 H2   THR Q   1      13.662  -9.983  20.597  1.00 43.28 LIG 0.28  HD
ATOM     64 H1   THR Q   1      13.841  -8.581  20.258  1.00 43.28 LIG 0.28  HD
ATOM     65 H3   THR Q   1      14.108  -9.042  21.610  1.00 43.28 LIG 0.28  HD
ENDBRANCH 57 62
ENDBRANCH 54 57
ENDBRANCH 46 53
ENDBRANCH 43 46
ENDBRANCH 36 42
ENDBRANCH 1 36
TORSDOF 24
