REMARK  14 active torsions:
REMARK  status: ('A' for Active; 'I' for Inactive)
REMARK    1  A    between atoms: CA_2  and  CB_5 
REMARK    2  A    between atoms: CA_2  and  C_3 
REMARK       I    between atoms: C_3  and  N_9 
REMARK    3  A    between atoms: CB_5  and  CG_6 
REMARK    4  A    between atoms: N_9  and  CA_10 
REMARK    5  A    between atoms: CA_10  and  CB_13 
REMARK    6  A    between atoms: CA_10  and  C_11 
REMARK       I    between atoms: C_11  and  N_17 
REMARK    7  A    between atoms: CB_13  and  OG_14 
REMARK    8  A    between atoms: N_17  and  CA_18 
REMARK    9  A    between atoms: CA_18  and  CB_21 
REMARK   10  A    between atoms: CA_18  and  C_19 
REMARK       I    between atoms: C_19  and  N_25 
REMARK   11  A    between atoms: N_25  and  CA_26 
REMARK   12  A    between atoms: CA_26  and  C_27 
REMARK   13  A    between atoms: CA_26  and  CB_29 
REMARK   14  A    between atoms: CB_29  and  CG_30 
ROOT
ATOM      1  CA  VAL P   7      -1.168   4.943   7.958  1.00 26.10     0.180 C 
ENDROOT
BRANCH   1   2
ATOM      2  N   VAL P   7      -1.539   4.877   6.534  1.00 27.30    -0.346 N 
ATOM      3  H   VAL P   7      -2.273   5.284   6.348  1.00 27.30     0.163 HD
ATOM      4  C   SER P   6      -0.800   4.242   5.617  1.00 30.00     0.243 C 
ATOM      5  O   SER P   6       0.321   3.750   5.855  1.00 30.13    -0.271 OA
BRANCH   4   6
ATOM      6  CA  SER P   6      -1.394   4.141   4.198  1.00 31.39     0.200 C 
BRANCH   6   7
ATOM      7  N   SER P   6      -0.510   3.271   3.407  1.00 32.16    -0.344 N 
ATOM      8  H   SER P   6      -0.798   2.465   3.324  1.00 32.16     0.163 HD
ATOM      9  C   ASP P   5       0.631   3.700   2.872  1.00 32.26     0.258 C 
ATOM     10  O   ASP P   5       0.860   4.895   2.629  1.00 33.33    -0.271 OA
BRANCH   9  11
ATOM     11  CA  ASP P   5       1.643   2.631   2.454  1.00 32.51     0.409 C 
ATOM     12  N   ASP P   5       3.014   3.254   2.501  1.00 31.92     0.615 N 
BRANCH  11  13
ATOM     13  CB  ASP P   5       1.556   1.344   3.311  1.00 31.74     0.164 C 
BRANCH  13  14
ATOM     14  CG  ASP P   5       2.407   0.187   2.753  1.00 33.37     0.175 C 
ATOM     15  OD2 ASP P   5       3.663   0.246   2.610  1.00 29.82    -0.648 OA
ATOM     16  OD1 ASP P   5       1.826  -0.885   2.419  1.00 33.72    -0.648 OA
ENDBRANCH  13  14
ENDBRANCH  11  13
ENDBRANCH   9  11
ENDBRANCH   6   7
BRANCH   6  17
ATOM     17  CB  SER P   6      -2.836   3.586   4.239  1.00 32.22     0.199 C 
BRANCH  17  18
ATOM     18  OG  SER P   6      -2.901   2.152   4.161  1.00 35.50    -0.398 OA
ATOM     19  HG  SER P   6      -3.704   1.906   4.189  1.00 35.50     0.209 HD
ENDBRANCH  17  18
ENDBRANCH   6  17
ENDBRANCH   4   6
ENDBRANCH   1   2
BRANCH   1  20
ATOM     20  CB  VAL P   7      -1.895   6.102   8.693  1.00 25.92     0.009 C 
ATOM     21  CG1 VAL P   7      -1.612   6.065  10.218  1.00 24.78     0.012 C 
ATOM     22  CG2 VAL P   7      -1.507   7.462   8.114  1.00 25.91     0.012 C 
ENDBRANCH   1  20
BRANCH   1  23
ATOM     23  C   VAL P   7      -1.514   3.645   8.671  1.00 24.27     0.241 C 
ATOM     24  O   VAL P   7      -2.587   3.090   8.450  1.00 24.36    -0.271 OA
ATOM     25  N   PHE P   8      -0.574   3.197   9.518  1.00 23.44    -0.344 N 
ATOM     26  H   PHE P   8       0.189   3.588   9.591  1.00 23.44     0.163 HD
BRANCH  25  27
ATOM     27  CA  PHE P   8      -0.687   2.037  10.405  1.00 22.28     0.189 C 
BRANCH  27  28
ATOM     28  C   PHE P   8      -0.499   2.447  11.846  1.00 22.41     0.197 C 
ATOM     29  O   PHE P   8      -0.827   1.627  12.702  1.00 23.29    -0.646 OA
ATOM     30  OXT PHE P   8      -0.032   3.558  12.075  1.00 22.20    -0.646 OA
ENDBRANCH  27  28
BRANCH  27  31
ATOM     31  CB  PHE P   8       0.355   0.974  10.053  1.00 21.82     0.074 C 
BRANCH  31  32
ATOM     32  CG  PHE P   8      -0.023   0.203   8.850  1.00 22.14    -0.056 A 
ATOM     33  CD1 PHE P   8      -0.974  -0.819   8.945  1.00 20.15     0.007 A 
ATOM     34  CE1 PHE P   8      -1.388  -1.467   7.894  1.00 18.93     0.001 A 
ATOM     35  CZ  PHE P   8      -0.901  -1.105   6.612  1.00 24.98     0.000 A 
ATOM     36  CE2 PHE P   8       0.034  -0.069   6.489  1.00 24.51     0.001 A 
ATOM     37  CD2 PHE P   8       0.468   0.565   7.627  1.00 22.87     0.007 A 
ENDBRANCH  31  32
ENDBRANCH  27  31
ENDBRANCH  25  27
ENDBRANCH   1  23
TORSDOF 14
