USER: ADFR SOLUTION from run 0
USER: SCORE 10.622029 LL:  -2.138 LR:  -9.240 RR:   0.000 FEB:  -5.661
USER: RMSD 0.748951
USER: STATUS Locally minimized using BFGS
USER: GENES 14
USER: genes 0 Translation |==|  0.44565 0.49677 0.39407
USER: genes 1 Rotation |==|  0.48003 0.48934 0.51759 0.99918
USER: genes 2 Torsion [C]-CA--N-[C] |==|  0.63779
USER: genes 3 Torsion [N]-C--CA-[N] |==|  0.43575
USER: genes 4 Torsion [C]-CA--N-[H3] |==|  0.21745
USER: genes 5 Torsion [N]-CA--C-[N] |==|  0.39985
USER: genes 6 Torsion [C]-N--CA-[CB] |==|  0.47778
USER: genes 7 Torsion [N]-CA--C-[N] |==|  0.41851
USER: genes 8 Torsion [C]-N--CA-[C] |==|  0.74968
USER: genes 9 Torsion [N]-CA--C-[O] |==|  0.89854
USER: genes 10 Torsion [N]-CA--CB-[CG2] |==|  0.53286
USER: genes 11 Torsion [N]-CA--CB-[CG] |==|  0.09830
USER: genes 12 Torsion [CA]-CB--CG-[CD] |==|  0.35884
USER: genes 13 Torsion [CB]-CG--CD-[OE1] |==|  0.78802
ROOT
ATOM      1  CA  GLU F   2      22.130  45.023  -4.427  1.00 52.54 LIG 0.18  C 
ENDROOT
BRANCH 1 2
ATOM      2  N   GLU F   2      22.612  46.260  -5.028  1.00 44.23 LIG-0.35  N 
ATOM      3 H    GLU F   2      23.347  46.553  -4.689  1.00 44.23 LIG 0.16  HD
ATOM      4  C   ALA F   1      21.960  46.871  -6.014  1.00 45.21 LIG 0.25  C 
ATOM      5 O    ALA F   1      20.991  46.382  -6.597  1.00 45.22 LIG-0.27  OA
BRANCH 4 6
ATOM      6  CA  ALA F   1      22.481  48.237  -6.409  1.00 42.24 LIG 0.27  C 
ATOM      7  CB  ALA F   1      21.952  49.289  -5.455  1.00 40.09 LIG 0.05  C 
BRANCH 6 8
ATOM      8  N   ALA F   1      22.072  48.545  -7.800  1.00 42.78 LIG-0.07  N 
ATOM      9 H3   ALA F   1      21.220  48.801  -7.810  1.00 42.78 LIG 0.28  HD
ATOM     10 H1   ALA F   1      22.582  49.201  -8.121  1.00 42.78 LIG 0.28  HD
ATOM     11 H2   ALA F   1      22.171  47.820  -8.306  1.00 42.78 LIG 0.28  HD
ENDBRANCH 6 8
ENDBRANCH 4 6
ENDBRANCH 1 2
BRANCH 1 12
ATOM     12  C   GLU F   2      22.110  45.121  -2.900  1.00 53.63 LIG 0.24  C 
ATOM     13  N   ALA F   3      21.102  44.498  -2.291  1.00 57.59 LIG-0.35  N 
ATOM     14 H    ALA F   3      20.478  44.080  -2.710  1.00 57.59 LIG 0.16  HD
ATOM     15 O    GLU F   2      22.985  45.756  -2.296  1.00 45.91 LIG-0.27  OA
BRANCH 13 16
ATOM     16  CA  ALA F   3      20.966  44.470  -0.837  1.00 61.34 LIG 0.17  C 
ATOM     17  CB  ALA F   3      19.630  43.863  -0.444  1.00 61.11 LIG 0.04  C 
BRANCH 16 18
ATOM     18  C   ALA F   3      22.113  43.690  -0.213  1.00 63.72 LIG 0.24  C 
ATOM     19 O    ALA F   3      22.675  42.794  -0.843  1.00 65.69 LIG-0.27  OA
ATOM     20  N   VAL F   4      22.482  44.050   1.011  1.00 69.00 LIG-0.35  N 
ATOM     21 H    VAL F   4      22.145  44.712   1.443  1.00 69.00 LIG 0.16  HD
BRANCH 20 22
ATOM     22  CA  VAL F   4      23.522  43.318   1.732  1.00 74.07 LIG 0.17  C 
BRANCH 22 23
ATOM     23  C   VAL F   4      22.902  42.181   2.555  1.00 77.88 LIG 0.22  C 
ATOM     24 O    VAL F   4      21.807  42.311   3.110  1.00 81.03 LIG-0.29  OA
ENDBRANCH 22 23
BRANCH 22 25
ATOM     25  CB  VAL F   4      24.419  44.258   2.601  1.00 74.22 LIG 0.01  C 
ATOM     26  CG2 VAL F   4      25.665  43.524   3.109  1.00 73.71 LIG 0.01  C 
ATOM     27  CG1 VAL F   4      23.637  44.875   3.755  1.00 74.72 LIG 0.01  C 
ENDBRANCH 22 25
ENDBRANCH 20 22
ENDBRANCH 16 18
ENDBRANCH 13 16
ENDBRANCH 1 12
BRANCH 1 28
ATOM     28  CB  GLU F   2      22.963  43.820  -4.879  1.00 59.29 LIG 0.04  C 
BRANCH 28 29
ATOM     29  CG  GLU F   2      24.440  44.105  -5.076  1.00 68.31 LIG 0.12  C 
BRANCH 29 30
ATOM     30  CD  GLU F   2      25.324  43.112  -4.349  1.00 74.94 LIG 0.17  C 
ATOM     31 OE1  GLU F   2      25.453  43.227  -3.107  1.00 77.70 LIG-0.65  OA
ATOM     32 OE2  GLU F   2      25.885  42.216  -5.024  1.00 77.31 LIG-0.65  OA
ENDBRANCH 29 30
ENDBRANCH 28 29
ENDBRANCH 1 28
TORSDOF 12
