USER: ADFR SOLUTION from run 0
USER: SCORE 23.730274 LL:  -1.434 LR: -22.329 RR:   0.000 FEB: -16.363
USER: RMSD 0.459858
USER: STATUS Locally minimized using BFGS
USER: GENES 22
USER: genes 0 Translation |==|  0.58684 0.60911 0.49719
USER: genes 1 Rotation |==|  0.49518 0.52078 0.50188 0.99954
USER: genes 2 Torsion [N]-CA--C-[N] |==|  0.38125
USER: genes 3 Torsion [C]-N--CA-[CB] |==|  0.26163
USER: genes 4 Torsion [N]-CA--CB-[CG] |==|  0.57710
USER: genes 5 Torsion [CA]-CB--CG-[CD] |==|  0.50571
USER: genes 6 Torsion [CB]-CG--CD-[CE] |==|  0.48628
USER: genes 7 Torsion [CG]-CD--CE-[NZ] |==|  0.90426
USER: genes 8 Torsion [CD]-CE--NZ-[HZ2] |==|  0.90550
USER: genes 9 Torsion [N]-CA--C-[OXT] |==|  0.06977
USER: genes 10 Torsion [C]-CA--CB-[CG] |==|  0.48589
USER: genes 11 Torsion [CA]-CB--CG-[CD] |==|  0.77230
USER: genes 12 Torsion [CB]-CG--CD-[NE] |==|  0.47268
USER: genes 13 Torsion [CG]-CD--NE-[CZ] |==|  0.56740
USER: genes 14 Torsion [C]-CA--N-[C] |==|  0.79444
USER: genes 15 Torsion [N]-C--CA-[N] |==|  0.40288
USER: genes 16 Torsion [C]-CA--CB-[CG] |==|  0.76660
USER: genes 17 Torsion [CA]-CB--CG-[CD] |==|  0.53989
USER: genes 18 Torsion [CB]-CG--CD-[CE] |==|  0.20945
USER: genes 19 Torsion [CG]-CD--CE-[NZ] |==|  0.17659
USER: genes 20 Torsion [CD]-CE--NZ-[HZ1] |==|  0.48066
USER: genes 21 Torsion [C]-CA--N-[H3] |==|  0.12101
ROOT
ATOM      1  CA  ARG B   2       3.960  20.402  16.097  1.00 11.61 LIG 0.18  C 
ENDROOT
BRANCH 1 2
ATOM      2  C   ARG B   2       2.559  20.208  15.494  1.00 11.69 LIG 0.24  C 
ATOM      3 O    ARG B   2       2.373  20.429  14.283  1.00 13.49 LIG-0.27  OA
ATOM      4  N   LYS B   3       1.621  19.974  16.403  1.00 11.79 LIG-0.34  N 
ATOM      5 H    LYS B   3       1.779  19.864  17.242  1.00 11.79 LIG 0.16  HD
BRANCH 4 6
ATOM      6  CA  LYS B   3       0.215  19.885  16.036  1.00 12.23 LIG 0.18  C 
BRANCH 6 7
ATOM      7  CB  LYS B   3      -0.325  18.488  15.759  1.00 16.61 LIG 0.04  C 
BRANCH 7 8
ATOM      8  CG  LYS B   3      -1.507  18.650  14.754  1.00 15.25 LIG 0.00  C 
BRANCH 8 9
ATOM      9  CD  LYS B   3      -2.116  17.302  14.480  1.00 19.49 LIG 0.03  C 
BRANCH 9 10
ATOM     10  CE  LYS B   3      -3.346  17.303  13.614  1.00 20.50 LIG 0.23  C 
BRANCH 10 11
ATOM     11  NZ  LYS B   3      -4.284  18.437  13.726  1.00 17.12 LIG-0.08  N 
ATOM     12 HZ3  LYS B   3      -4.017  19.097  13.192  1.00 17.12 LIG 0.27  HD
ATOM     13 HZ2  LYS B   3      -4.302  18.726  14.568  1.00 17.12 LIG 0.27  HD
ATOM     14 HZ1  LYS B   3      -5.099  18.172  13.486  1.00 17.12 LIG 0.27  HD
ENDBRANCH 10 11
ENDBRANCH 9 10
ENDBRANCH 8 9
ENDBRANCH 7 8
ENDBRANCH 6 7
BRANCH 6 15
ATOM     15  C   LYS B   3      -0.687  20.549  17.092  1.00 15.15 LIG 0.20  C 
ATOM     16 OXT  LYS B   3      -0.255  21.452  17.840  1.00 13.10 LIG-0.65  OA
ATOM     17 O    LYS B   3      -1.910  20.299  17.075  1.00 18.27 LIG-0.65  OA
ENDBRANCH 6 15
ENDBRANCH 4 6
ENDBRANCH 1 2
BRANCH 1 18
ATOM     18  CB  ARG B   2       4.130  21.946  16.135  1.00  9.62 LIG 0.04  C 
BRANCH 18 19
ATOM     19  CG  ARG B   2       5.441  22.380  16.832  1.00 12.84 LIG 0.02  C 
BRANCH 19 20
ATOM     20  CD  ARG B   2       5.352  22.411  18.366  1.00 14.09 LIG 0.14  C 
BRANCH 20 21
ATOM     21  NE  ARG B   2       6.709  22.603  18.887  1.00 12.97 LIG-0.23  N 
ATOM     22  CZ  ARG B   2       7.227  22.282  20.067  1.00 16.36 LIG 0.67  C 
ATOM     23  NH1 ARG B   2       6.483  21.737  21.015  1.00 13.20 LIG-0.23  N 
ATOM     24  NH2 ARG B   2       8.536  22.483  20.298  1.00 14.54 LIG-0.23  N 
ATOM     25 2HH1 ARG B   2       6.833  21.535  21.773  1.00 13.20 LIG 0.17  HD
ATOM     26 1HH1 ARG B   2       5.649  21.584  20.872  1.00 13.20 LIG 0.17  HD
ATOM     27 2HH2 ARG B   2       8.874  22.276  21.061  1.00 14.54 LIG 0.17  HD
ATOM     28 1HH2 ARG B   2       9.034  22.818  19.682  1.00 14.54 LIG 0.17  HD
ATOM     29 HE   ARG B   2       7.255  22.983  18.342  1.00 12.97 LIG 0.18  HD
ENDBRANCH 20 21
ENDBRANCH 19 20
ENDBRANCH 18 19
ENDBRANCH 1 18
BRANCH 1 30
ATOM     30  N   ARG B   2       4.994  19.732  15.370  1.00 10.63 LIG-0.35  N 
ATOM     31 H    ARG B   2       5.484  20.269  14.911  1.00 10.63 LIG 0.16  HD
ATOM     32  C   LYS B   1       5.197  18.429  15.384  1.00 11.74 LIG 0.25  C 
ATOM     33 O    LYS B   1       4.563  17.643  16.108  1.00 12.52 LIG-0.27  OA
BRANCH 32 34
ATOM     34  CA  LYS B   1       6.352  17.891  14.541  1.00  9.37 LIG 0.27  C 
BRANCH 34 35
ATOM     35  CB  LYS B   1       5.827  17.541  13.134  1.00 13.51 LIG 0.04  C 
BRANCH 35 36
ATOM     36  CG  LYS B   1       5.190  16.148  13.029  1.00 12.33 LIG 0.00  C 
BRANCH 36 37
ATOM     37  CD  LYS B   1       5.057  15.813  11.524  1.00 17.49 LIG 0.03  C 
BRANCH 37 38
ATOM     38  CE  LYS B   1       6.443  15.444  10.980  1.00 17.87 LIG 0.23  C 
BRANCH 38 39
ATOM     39  NZ  LYS B   1       6.939  14.211  11.652  1.00 17.55 LIG-0.08  N 
ATOM     40 HZ1  LYS B   1       7.694  13.944  11.264  1.00 17.55 LIG 0.27  HD
ATOM     41 HZ2  LYS B   1       7.093  14.383  12.511  1.00 17.55 LIG 0.27  HD
ATOM     42 HZ3  LYS B   1       6.327  13.568  11.582  1.00 17.55 LIG 0.27  HD
ENDBRANCH 38 39
ENDBRANCH 37 38
ENDBRANCH 36 37
ENDBRANCH 35 36
ENDBRANCH 34 35
BRANCH 34 43
ATOM     43  N   LYS B   1       6.984  16.722  15.232  1.00  9.31 LIG-0.07  N 
ATOM     44 H1   LYS B   1       7.483  16.269  14.652  1.00  9.31 LIG 0.28  HD
ATOM     45 H3   LYS B   1       6.349  16.189  15.557  1.00  9.31 LIG 0.28  HD
ATOM     46 H2   LYS B   1       7.495  17.014  15.900  1.00  9.31 LIG 0.28  HD
ENDBRANCH 34 43
ENDBRANCH 32 34
ENDBRANCH 1 30
TORSDOF 20
