REMARK  26 active torsions:
REMARK  status: ('A' for Active; 'I' for Inactive)
REMARK       I    between atoms: C_1  and  N_4 
REMARK    1  A    between atoms: N_4  and  CA_5 
REMARK    2  A    between atoms: CA_5  and  CB_8 
REMARK    3  A    between atoms: CA_5  and  C_6 
REMARK       I    between atoms: C_6  and  N_12 
REMARK    4  A    between atoms: N_12  and  CA_13 
REMARK    5  A    between atoms: CA_13  and  CB_16 
REMARK    6  A    between atoms: CA_13  and  C_14 
REMARK       I    between atoms: C_14  and  N_25 
REMARK    7  A    between atoms: CB_16  and  CG_17 
REMARK    8  A    between atoms: CG_17  and  CD_18 
REMARK    9  A    between atoms: CD_18  and  CE_19 
REMARK   10  A    between atoms: CE_19  and  NZ_20 
REMARK   11  A    between atoms: N_25  and  CA_26 
REMARK   12  A    between atoms: CA_26  and  CB_29 
REMARK   13  A    between atoms: CA_26  and  C_27 
REMARK       I    between atoms: C_27  and  N_35 
REMARK   14  A    between atoms: CB_29  and  CG_30 
REMARK   15  A    between atoms: CG_30  and  CD_31 
REMARK   16  A    between atoms: N_35  and  CA_36 
REMARK   17  A    between atoms: CA_36  and  CB_39 
REMARK   18  A    between atoms: CA_36  and  C_37 
REMARK       I    between atoms: C_37  and  N_43 
REMARK   19  A    between atoms: CB_39  and  OG_40 
REMARK   20  A    between atoms: N_43  and  CA_44 
REMARK   21  A    between atoms: CA_44  and  CB_47 
REMARK   22  A    between atoms: CA_44  and  C_45 
REMARK       I    between atoms: C_45  and  N_52 
REMARK   23  A    between atoms: CB_47  and  CG_48 
REMARK   24  A    between atoms: N_52  and  CA_53 
REMARK   25  A    between atoms: CA_53  and  CB_56 
REMARK   26  A    between atoms: CA_53  and  C_54 
ROOT
ATOM      1  CA  GLU B   4      12.244  27.672   0.948  1.00 36.20     0.177 C 
ENDROOT
BRANCH   1   2
ATOM      2  N   GLU B   4      10.973  27.331   0.326  1.00 38.17    -0.346 N 
ATOM      3  C   LYS B   3      10.835  27.353  -0.993  1.00 41.21     0.241 C 
ATOM      4  O   LYS B   3      11.744  27.683  -1.745  1.00 41.12    -0.271 OA
ATOM      5  H   GLU B   4      10.346  27.122   0.877  1.00 38.17     0.163 HD
BRANCH   3   6
ATOM      6  CA  LYS B   3       9.474  26.965  -1.554  1.00 44.69     0.176 C 
BRANCH   6   7
ATOM      7  N   LYS B   3       8.949  28.102  -2.299  1.00 47.57    -0.346 N 
ATOM      8  H   LYS B   3       9.246  28.167  -3.104  1.00 47.57     0.163 HD
ATOM      9  C   VAL B   2       8.085  28.953  -1.758  1.00 51.36     0.241 C 
ATOM     10  O   VAL B   2       7.649  28.827  -0.613  1.00 50.65    -0.271 OA
BRANCH   9  11
ATOM     11  CA  VAL B   2       7.639  30.114  -2.646  1.00 54.60     0.179 C 
BRANCH  11  12
ATOM     12  CB  VAL B   2       8.468  31.362  -2.272  1.00 55.00     0.009 C 
ATOM     13  CG2 VAL B   2       7.951  32.574  -3.030  1.00 55.89     0.012 C 
ATOM     14  CG1 VAL B   2       9.939  31.124  -2.578  1.00 55.16     0.012 C 
ENDBRANCH  11  12
BRANCH  11  15
ATOM     15  N   VAL B   2       6.212  30.368  -2.495  1.00 57.28    -0.348 N 
HETATM   16  C   ACE B   1       5.305  29.513  -2.953  1.00 59.28     0.214 C 
HETATM   17  CH3 ACE B   1       3.992  30.218  -3.298  1.00 59.28     0.117 C 
HETATM   18  O   ACE B   1       5.330  28.307  -2.693  1.00 59.66    -0.274 OA
ATOM     19  H   VAL B   2       6.021  31.104  -2.092  1.00 57.28     0.163 HD
ENDBRANCH  11  15
ENDBRANCH   9  11
ENDBRANCH   6   7
BRANCH   6  20
ATOM     20  CB  LYS B   3       9.627  25.751  -2.472  1.00 46.54     0.035 C 
BRANCH  20  21
ATOM     21  CG  LYS B   3      10.330  24.554  -1.831  1.00 48.43     0.004 C 
BRANCH  21  22
ATOM     22  CD  LYS B   3       9.464  23.877  -0.781  1.00 51.26     0.027 C 
BRANCH  22  23
ATOM     23  CE  LYS B   3      10.144  22.621  -0.235  1.00 52.85     0.229 C 
BRANCH  23  24
ATOM     24  NZ  LYS B   3       9.225  21.807   0.619  1.00 53.96    -0.079 N 
ATOM     25  HZ1 LYS B   3       9.656  21.087   0.917  1.00 53.96     0.274 HD
ATOM     26  HZ2 LYS B   3       8.951  22.296   1.311  1.00 53.96     0.274 HD
ATOM     27  HZ3 LYS B   3       8.520  21.553   0.139  1.00 53.96     0.274 HD
ENDBRANCH  23  24
ENDBRANCH  22  23
ENDBRANCH  21  22
ENDBRANCH  20  21
ENDBRANCH   6  20
ENDBRANCH   3   6
ENDBRANCH   1   2
BRANCH   1  28
ATOM     28  CB  GLU B   4      12.148  29.021   1.676  1.00 35.98     0.045 C 
BRANCH  28  29
ATOM     29  CG  GLU B   4      11.180  29.068   2.831  1.00 37.93     0.116 C 
BRANCH  29  30
ATOM     30  CD  GLU B   4      10.613  30.464   3.047  1.00 39.47     0.172 C 
ATOM     31  OE2 GLU B   4       9.404  30.576   3.341  1.00 43.33    -0.648 OA
ATOM     32  OE1 GLU B   4      11.370  31.452   2.934  1.00 37.30    -0.648 OA
ENDBRANCH  29  30
ENDBRANCH  28  29
ENDBRANCH   1  28
BRANCH   1  33
ATOM     33  C   GLU B   4      12.690  26.564   1.885  1.00 33.76     0.241 C 
ATOM     34  N   SER B   5      13.997  26.495   2.112  1.00 31.01    -0.344 N 
ATOM     35  H   SER B   5      14.566  27.049   1.780  1.00 31.01     0.163 HD
ATOM     36  O   GLU B   4      11.874  25.790   2.378  1.00 33.71    -0.271 OA
BRANCH  34  37
ATOM     37  CA  SER B   5      14.595  25.465   2.952  1.00 29.36     0.200 C 
BRANCH  37  38
ATOM     38  CB  SER B   5      15.432  24.527   2.068  1.00 29.82     0.199 C 
BRANCH  38  39
ATOM     39  OG  SER B   5      16.260  23.675   2.839  1.00 30.14    -0.398 OA
ATOM     40  HG  SER B   5      16.948  23.478   2.398  1.00 30.14     0.209 HD
ENDBRANCH  38  39
ENDBRANCH  37  38
BRANCH  37  41
ATOM     41  C   SER B   5      15.459  26.079   4.050  1.00 27.47     0.243 C 
ATOM     42  N   LEU B   6      15.170  25.713   5.298  1.00 25.92    -0.346 N 
ATOM     43  H   LEU B   6      14.547  25.155   5.500  1.00 25.92     0.163 HD
ATOM     44  O   SER B   5      16.355  26.879   3.767  1.00 25.56    -0.271 OA
BRANCH  42  45
ATOM     45  CA  LEU B   6      15.899  26.237   6.449  1.00 26.46     0.177 C 
BRANCH  45  46
ATOM     46  CB  LEU B   6      15.074  26.042   7.719  1.00 26.39     0.038 C 
BRANCH  46  47
ATOM     47  CG  LEU B   6      15.744  26.365   9.059  1.00 27.12    -0.020 C 
ATOM     48  CD2 LEU B   6      14.858  25.909  10.225  1.00 29.87     0.009 C 
ATOM     49  CD1 LEU B   6      15.982  27.869   9.141  1.00 28.95     0.009 C 
ENDBRANCH  46  47
ENDBRANCH  45  46
BRANCH  45  50
ATOM     50  C   LEU B   6      17.252  25.546   6.644  1.00 25.78     0.241 C 
ATOM     51  O   LEU B   6      17.383  24.331   6.490  1.00 25.66    -0.271 OA
ATOM     52  N   VAL B   7      18.256  26.337   6.981  1.00 26.68    -0.344 N 
ATOM     53  H   VAL B   7      18.191  27.191   7.059  1.00 26.68     0.163 HD
BRANCH  52  54
ATOM     54  CA  VAL B   7      19.583  25.807   7.252  1.00 27.56     0.189 C 
BRANCH  54  55
ATOM     55  CB  VAL B   7      20.566  26.133   6.100  1.00 27.96     0.010 C 
ATOM     56  CG1 VAL B   7      20.087  25.459   4.812  1.00 28.38     0.012 C 
ATOM     57  CG2 VAL B   7      20.684  27.623   5.892  1.00 27.67     0.012 C 
ENDBRANCH  54  55
BRANCH  54  58
ATOM     58  C   VAL B   7      20.038  26.463   8.558  1.00 29.18     0.197 C 
ATOM     59  OXT VAL B   7      20.815  25.840   9.322  1.00 29.88    -0.646 OA
ATOM     60  O   VAL B   7      19.584  27.606   8.799  1.00 27.49    -0.646 OA
ENDBRANCH  54  58
ENDBRANCH  52  54
ENDBRANCH  45  50
ENDBRANCH  42  45
ENDBRANCH  37  41
ENDBRANCH  34  37
ENDBRANCH   1  33
TORSDOF 26
