USER: ADFR SOLUTION from run 0
USER: SCORE 16.330544 LL:  -4.475 LR: -14.916 RR:   0.000 FEB:  -7.160
USER: RMSD 0.380136
USER: STATUS Locally minimized using BFGS
USER: GENES 28
USER: genes 0 Translation |==|  0.49526 0.54593 0.38908
USER: genes 1 Rotation |==|  0.51221 0.49603 0.51955 0.99945
USER: genes 2 Torsion [CB]-CA--N-[C] |==|  0.30420
USER: genes 3 Torsion [N]-C--CA-[N] |==|  0.33059
USER: genes 4 Torsion [C]-CA--N-[C] |==|  0.73240
USER: genes 5 Torsion [N]-C--CA-[N] |==|  0.38570
USER: genes 6 Torsion [C]-CA--CB-[CG2] |==|  0.51601
USER: genes 7 Torsion [C]-CA--N-[C] |==|  0.80461
USER: genes 8 Torsion [C]-CA--CB-[CG] |==|  0.14294
USER: genes 9 Torsion [CA]-CB--CG-[CD] |==|  0.19490
USER: genes 10 Torsion [CB]-CG--CD-[CE] |==|  0.48881
USER: genes 11 Torsion [CG]-CD--CE-[NZ] |==|  0.52762
USER: genes 12 Torsion [CD]-CE--NZ-[HZ1] |==|  0.49999
USER: genes 13 Torsion [N]-CA--CB-[CG] |==|  0.19799
USER: genes 14 Torsion [CA]-CB--CG-[CD] |==|  0.56362
USER: genes 15 Torsion [CB]-CG--CD-[OE2] |==|  0.38586
USER: genes 16 Torsion [N]-CA--C-[N] |==|  0.43182
USER: genes 17 Torsion [C]-N--CA-[CB] |==|  0.30107
USER: genes 18 Torsion [N]-CA--CB-[OG] |==|  0.46761
USER: genes 19 Torsion [CA]-CB--OG-[HG] |==|  0.58091
USER: genes 20 Torsion [N]-CA--C-[N] |==|  0.32741
USER: genes 21 Torsion [C]-N--CA-[C] |==|  0.77084
USER: genes 22 Torsion [N]-CA--CB-[CG] |==|  0.47987
USER: genes 23 Torsion [CA]-CB--CG-[CD2] |==|  0.52148
USER: genes 24 Torsion [N]-CA--C-[N] |==|  0.37631
USER: genes 25 Torsion [C]-N--CA-[CB] |==|  0.28427
USER: genes 26 Torsion [N]-CA--CB-[CG2] |==|  0.15676
USER: genes 27 Torsion [N]-CA--C-[OXT] |==|  0.41225
ROOT
ATOM      1  CA  GLU B   4      12.283  27.727   1.050  1.00 36.20 LIG 0.18  C 
ENDROOT
BRANCH 1 2
ATOM      2  N   GLU B   4      11.052  27.319   0.390  1.00 38.17 LIG-0.35  N 
ATOM      3  C   LYS B   3      10.930  27.397  -0.928  1.00 41.21 LIG 0.24  C 
ATOM      4 O    LYS B   3      11.821  27.834  -1.647  1.00 41.12 LIG-0.27  OA
ATOM      5 H    GLU B   4      10.436  27.034   0.919  1.00 38.17 LIG 0.16  HD
BRANCH 3 6
ATOM      6  CA  LYS B   3       9.612  26.932  -1.532  1.00 44.69 LIG 0.18  C 
BRANCH 6 7
ATOM      7  N   LYS B   3       9.003  28.064  -2.218  1.00 47.57 LIG-0.35  N 
ATOM      8 H    LYS B   3       9.292  28.191  -3.019  1.00 47.57 LIG 0.16  HD
ATOM      9  C   VAL B   2       8.081  28.821  -1.635  1.00 51.36 LIG 0.24  C 
ATOM     10 O    VAL B   2       7.660  28.606  -0.498  1.00 50.65 LIG-0.27  OA
BRANCH 9 11
ATOM     11  CA  VAL B   2       7.549  29.990  -2.464  1.00 54.60 LIG 0.18  C 
BRANCH 11 12
ATOM     12  CB  VAL B   2       8.282  31.276  -2.023  1.00 55.00 LIG 0.01  C 
ATOM     13  CG2 VAL B   2       7.680  32.482  -2.725  1.00 55.89 LIG 0.01  C 
ATOM     14  CG1 VAL B   2       9.768  31.162  -2.330  1.00 55.16 LIG 0.01  C 
ENDBRANCH 11 12
BRANCH 11 15
ATOM     15  N   VAL B   2       6.107  30.128  -2.305  1.00 57.28 LIG-0.35  N 
ATOM     16  C   ACE B   1       5.266  29.239  -2.819  1.00 59.28 LIG 0.21  C 
ATOM     17  CH3 ACE B   1       3.905  29.865  -3.127  1.00 59.28 LIG 0.12  C 
ATOM     18 O    ACE B   1       5.380  28.024  -2.634  1.00 59.66 LIG-0.27  OA
ATOM     19 H    VAL B   2       5.862  30.822  -1.858  1.00 57.28 LIG 0.16  HD
ENDBRANCH 11 15
ENDBRANCH 9 11
ENDBRANCH 6 7
BRANCH 6 20
ATOM     20  CB  LYS B   3       9.874  25.790  -2.515  1.00 46.54 LIG 0.04  C 
BRANCH 20 21
ATOM     21  CG  LYS B   3      10.717  24.646  -1.950  1.00 48.43 LIG 0.00  C 
BRANCH 21 22
ATOM     22  CD  LYS B   3       9.960  23.838  -0.908  1.00 51.26 LIG 0.03  C 
BRANCH 22 23
ATOM     23  CE  LYS B   3      10.787  22.643  -0.433  1.00 52.85 LIG 0.23  C 
BRANCH 23 24
ATOM     24  NZ  LYS B   3       9.987  21.701   0.409  1.00 53.96 LIG-0.08  N 
ATOM     25 HZ1  LYS B   3      10.501  21.021   0.665  1.00 53.96 LIG 0.27  HD
ATOM     26 HZ2  LYS B   3       9.682  22.130   1.127  1.00 53.96 LIG 0.27  HD
ATOM     27 HZ3  LYS B   3       9.299  21.391  -0.064  1.00 53.96 LIG 0.27  HD
ENDBRANCH 23 24
ENDBRANCH 22 23
ENDBRANCH 21 22
ENDBRANCH 20 21
ENDBRANCH 6 20
ENDBRANCH 3 6
ENDBRANCH 1 2
BRANCH 1 28
ATOM     28  CB  GLU B   4      12.071  29.026   1.841  1.00 35.98 LIG 0.04  C 
BRANCH 28 29
ATOM     29  CG  GLU B   4      11.234  28.899   3.088  1.00 37.93 LIG 0.12  C 
BRANCH 29 30
ATOM     30  CD  GLU B   4      10.609  30.225   3.497  1.00 39.47 LIG 0.17  C 
ATOM     31 OE2  GLU B   4       9.427  30.227   3.901  1.00 43.33 LIG-0.65  OA
ATOM     32 OE1  GLU B   4      11.295  31.268   3.426  1.00 37.30 LIG-0.65  OA
ENDBRANCH 29 30
ENDBRANCH 28 29
ENDBRANCH 1 28
BRANCH 1 33
ATOM     33  C   GLU B   4      12.802  26.612   1.941  1.00 33.76 LIG 0.24  C 
ATOM     34  N   SER B   5      14.107  26.632   2.186  1.00 31.01 LIG-0.34  N 
ATOM     35 H    SER B   5      14.636  27.244   1.891  1.00 31.01 LIG 0.16  HD
ATOM     36 O    GLU B   4      12.042  25.754   2.382  1.00 33.71 LIG-0.27  OA
BRANCH 34 37
ATOM     37  CA  SER B   5      14.772  25.612   2.986  1.00 29.36 LIG 0.20  C 
BRANCH 37 38
ATOM     38  CB  SER B   5      15.626  24.732   2.059  1.00 29.82 LIG 0.20  C 
BRANCH 38 39
ATOM     39 OG   SER B   5      16.502  23.892   2.788  1.00 30.14 LIG-0.40  OA
ATOM     40 HG   SER B   5      17.190  23.738   2.329  1.00 30.14 LIG 0.21  HD
ENDBRANCH 38 39
ENDBRANCH 37 38
BRANCH 37 41
ATOM     41  C   SER B   5      15.637  26.239   4.076  1.00 27.47 LIG 0.24  C 
ATOM     42  N   LEU B   6      15.297  25.954   5.332  1.00 25.92 LIG-0.35  N 
ATOM     43 H    LEU B   6      14.641  25.438   5.544  1.00 25.92 LIG 0.16  HD
ATOM     44 O    SER B   5      16.580  26.977   3.778  1.00 25.56 LIG-0.27  OA
BRANCH 42 45
ATOM     45  CA  LEU B   6      16.021  26.500   6.475  1.00 26.46 LIG 0.18  C 
BRANCH 45 46
ATOM     46  CB  LEU B   6      15.123  26.495   7.710  1.00 26.39 LIG 0.04  C 
BRANCH 46 47
ATOM     47  CG  LEU B   6      15.757  26.873   9.053  1.00 27.12 LIG-0.02  C 
ATOM     48  CD2 LEU B   6      14.769  26.630  10.200  1.00 29.87 LIG 0.01  C 
ATOM     49  CD1 LEU B   6      16.157  28.344   9.011  1.00 28.95 LIG 0.01  C 
ENDBRANCH 46 47
ENDBRANCH 45 46
BRANCH 45 50
ATOM     50  C   LEU B   6      17.287  25.701   6.798  1.00 25.78 LIG 0.24  C 
ATOM     51 O    LEU B   6      17.285  24.469   6.814  1.00 25.66 LIG-0.27  OA
ATOM     52  N   VAL B   7      18.368  26.418   7.051  1.00 26.68 LIG-0.34  N 
ATOM     53 H    VAL B   7      18.397  27.276   7.010  1.00 26.68 LIG 0.16  HD
BRANCH 52 54
ATOM     54  CA  VAL B   7      19.626  25.790   7.427  1.00 27.56 LIG 0.19  C 
BRANCH 54 55
ATOM     55  CB  VAL B   7      20.613  25.749   6.234  1.00 27.96 LIG 0.01  C 
ATOM     56  CG1 VAL B   7      20.054  24.838   5.138  1.00 28.38 LIG 0.01  C 
ATOM     57  CG2 VAL B   7      20.858  27.132   5.683  1.00 27.67 LIG 0.01  C 
ENDBRANCH 54 55
BRANCH 54 58
ATOM     58  C   VAL B   7      20.190  26.634   8.572  1.00 29.18 LIG 0.20  C 
ATOM     59 OXT  VAL B   7      20.879  26.081   9.463  1.00 29.88 LIG-0.65  OA
ATOM     60 O    VAL B   7      19.911  27.856   8.558  1.00 27.49 LIG-0.65  OA
ENDBRANCH 54 58
ENDBRANCH 52 54
ENDBRANCH 45 50
ENDBRANCH 42 45
ENDBRANCH 37 41
ENDBRANCH 34 37
ENDBRANCH 1 33
TORSDOF 26
