REMARK  10 active torsions:
REMARK  status: ('A' for Active; 'I' for Inactive)
REMARK    1  A    between atoms: N_1  and  CA_2 
REMARK    2  A    between atoms: CA_2  and  C_3 
REMARK       I    between atoms: C_3  and  N_9 
REMARK    3  A    between atoms: N_9  and  CA_10 
REMARK    4  A    between atoms: CA_10  and  C_11 
REMARK    5  A    between atoms: CA_10  and  CB_13 
REMARK       I    between atoms: C_11  and  N_18 
REMARK    6  A    between atoms: CB_13  and  CG1_14 
REMARK    7  A    between atoms: N_18  and  CA_19 
REMARK    8  A    between atoms: CA_19  and  CB_22 
REMARK    9  A    between atoms: CA_19  and  C_20 
REMARK   10  A    between atoms: CB_22  and  CG_23 
ROOT
ATOM      1  CA  ILE B   2      76.313  47.115  17.726  1.00 64.17     0.180 C 
ENDROOT
BRANCH   1   2
ATOM      2  N   ILE B   2      75.559  48.077  16.932  1.00 64.56    -0.346 N 
ATOM      3  C   ALA B   1      76.141  48.825  15.999  1.00 64.53     0.248 C 
ATOM      4  O   ALA B   1      77.343  48.753  15.736  1.00 64.21    -0.271 OA
ATOM      5  H   ILE B   2      74.721  48.113  17.121  1.00 64.56     0.163 HD
BRANCH   3   6
ATOM      6  CA  ALA B   1      75.227  49.794  15.248  1.00 64.34     0.270 C 
ATOM      7  CB  ALA B   1      75.278  49.509  13.751  1.00 65.15     0.050 C 
BRANCH   6   8
ATOM      8  N   ALA B   1      75.599  51.215  15.507  1.00 63.44    -0.067 N 
ATOM      9  H2  ALA B   1      75.533  51.385  16.378  1.00 63.44     0.275 HD
ATOM     10  H3  ALA B   1      76.436  51.356  15.240  1.00 63.44     0.275 HD
ATOM     11  H1  ALA B   1      75.050  51.752  15.057  1.00 63.44     0.275 HD
ENDBRANCH   6   8
ENDBRANCH   3   6
ENDBRANCH   1   2
BRANCH   1  12
ATOM     12  C   ILE B   2      75.612  45.761  17.775  1.00 63.93     0.241 C 
ATOM     13  N   HIS B   3      76.339  44.711  17.409  1.00 63.34    -0.344 N 
ATOM     14  H   HIS B   3      77.159  44.757  17.153  1.00 63.34     0.163 HD
ATOM     15  O   ILE B   2      74.438  45.670  18.139  1.00 63.64    -0.271 OA
BRANCH  13  16
ATOM     16  CA  HIS B   3      75.780  43.366  17.417  1.00 63.18     0.191 C 
BRANCH  16  17
ATOM     17  CB  HIS B   3      75.975  42.701  16.052  1.00 62.24     0.097 C 
BRANCH  17  18
ATOM     18  CG  HIS B   3      75.565  43.559  14.895  1.00 63.21     0.056 A 
ATOM     19  CD2 HIS B   3      74.481  43.506  14.084  1.00 62.69     0.145 A 
ATOM     20  NE2 HIS B   3      74.599  44.534  13.181  1.00 63.05    -0.252 NA
ATOM     21  CE1 HIS B   3      75.715  45.197  13.428  1.00 63.79     0.232 A 
ATOM     22  ND1 HIS B   3      76.317  44.629  14.458  1.00 63.44    -0.245 NA
ENDBRANCH  17  18
ENDBRANCH  16  17
BRANCH  16  23
ATOM     23  C   HIS B   3      76.454  42.529  18.497  1.00 63.55     0.197 C 
ATOM     24  OXT HIS B   3      76.038  41.369  18.689  1.00 62.89    -0.646 OA
ATOM     25  O   HIS B   3      77.397  43.044  19.137  1.00 64.85    -0.646 OA
ENDBRANCH  16  23
ENDBRANCH  13  16
ENDBRANCH   1  12
BRANCH   1  26
ATOM     26  CB  ILE B   2      76.509  47.621  19.169  1.00 64.73     0.013 C 
ATOM     27  CG2 ILE B   2      77.252  46.574  19.995  1.00 64.62     0.012 C 
BRANCH  26  28
ATOM     28  CG1 ILE B   2      77.277  48.944  19.151  1.00 64.82     0.002 C 
ATOM     29  CD1 ILE B   2      77.492  49.550  20.519  1.00 66.82     0.005 C 
ENDBRANCH  26  28
ENDBRANCH   1  26
TORSDOF 10
