REMARK  14 active torsions:
REMARK  status: ('A' for Active; 'I' for Inactive)
REMARK       I    between atoms: C_1  and  N_4 
REMARK    1  A    between atoms: CA_5  and  C_6 
REMARK       I    between atoms: C_6  and  N_11 
REMARK    2  A    between atoms: CA_12  and  C_13 
REMARK       I    between atoms: C_13  and  N_18 
REMARK    3  A    between atoms: CA_19  and  C_20 
REMARK       I    between atoms: C_20  and  N_25 
REMARK    4  A    between atoms: N_25  and  CA_26 
REMARK    5  A    between atoms: CA_26  and  CB_29 
REMARK    6  A    between atoms: CA_26  and  C_27 
REMARK       I    between atoms: C_27  and  N_33 
REMARK    7  A    between atoms: CA_34  and  C_35 
REMARK       I    between atoms: C_35  and  N_40 
REMARK    8  A    between atoms: CA_41  and  C_42 
REMARK       I    between atoms: C_42  and  N_47 
REMARK    9  A    between atoms: N_47  and  CA_48 
REMARK   10  A    between atoms: CA_48  and  C_49 
REMARK   11  A    between atoms: CA_48  and  CB_51 
REMARK   12  A    between atoms: CB_51  and  CG_52 
REMARK   13  A    between atoms: CG_52  and  CD_53 
REMARK   14  A    between atoms: CD_53  and  NE_54 
REMARK       I    between atoms: NE_54  and  CZ_55 
REMARK       I    between atoms: CZ_55  and  NH1_56 
ROOT
ATOM      1  C   VAL C   5       1.970   9.660  25.069  1.00 42.36     0.243 C 
ATOM      2  O   VAL C   5       1.707  10.835  25.344  1.00 45.24    -0.271 OA
ATOM      3  N   PRO C   6       3.234   9.198  24.980  1.00 47.11    -0.337 N 
ATOM      4  CA  PRO C   6       4.462   9.969  25.216  1.00 46.93     0.179 C 
ATOM      5  CB  PRO C   6       5.533   9.068  24.621  1.00 48.77     0.037 C 
ATOM      6  CG  PRO C   6       5.005   7.707  24.907  1.00 47.44     0.022 C 
ATOM      7  CD  PRO C   6       3.573   7.852  24.484  1.00 45.48     0.127 C 
ENDROOT
BRANCH   1   8
ATOM      8  CA  VAL C   5       0.846   8.678  24.785  1.00 35.80     0.180 C 
BRANCH   8   9
ATOM      9  N   VAL C   5      -0.056   8.701  25.910  1.00 29.23    -0.346 N 
ATOM     10  H   VAL C   5      -0.775   9.150  25.766  1.00 29.23     0.163 HD
ATOM     11  C   PRO C   4       0.196   8.091  27.056  1.00 26.62     0.241 C 
ATOM     12  O   PRO C   4       1.184   7.376  27.264  1.00 27.50    -0.271 OA
BRANCH  11  13
ATOM     13  CA  PRO C   4      -0.884   8.249  28.096  1.00 24.57     0.179 C 
ATOM     14  N   PRO C   4      -0.856   7.047  28.913  1.00 25.19    -0.337 N 
ATOM     15  C   PRO C   3      -1.194   5.849  28.394  1.00 26.73     0.243 C 
ATOM     16  CD  PRO C   4      -0.566   7.397  30.311  1.00 25.69     0.127 C 
ATOM     17  O   PRO C   3      -1.617   5.721  27.244  1.00 25.36    -0.271 OA
ATOM     18  CG  PRO C   4      -1.044   8.820  30.370  1.00 24.59     0.022 C 
ATOM     19  CB  PRO C   4      -0.539   9.356  29.096  1.00 22.47     0.037 C 
BRANCH  15  20
ATOM     20  CA  PRO C   3      -1.127   4.642  29.325  1.00 28.16     0.179 C 
ATOM     21  N   PRO C   3      -1.859   3.496  28.781  1.00 24.30    -0.337 N 
ATOM     22  CD  PRO C   3      -0.925   2.474  28.289  1.00 25.18     0.127 C 
ATOM     23  C   PRO C   2      -3.191   3.502  28.664  1.00 26.75     0.243 C 
ATOM     24  CG  PRO C   3       0.415   3.213  28.287  1.00 22.51     0.022 C 
ATOM     25  CB  PRO C   3       0.305   4.105  29.448  1.00 21.93     0.037 C 
ATOM     26  O   PRO C   2      -3.880   4.473  28.998  1.00 25.20    -0.271 OA
BRANCH  23  27
ATOM     27  CA  PRO C   2      -3.843   2.252  28.094  1.00 29.29     0.179 C 
ATOM     28  N   PRO C   2      -5.089   1.955  28.815  1.00 27.80    -0.339 N 
HETATM   29  C   ACE C   1      -5.104   1.518  30.089  1.00 31.50     0.216 C 
ATOM     30  CD  PRO C   2      -6.255   2.122  27.931  1.00 33.03     0.127 C 
HETATM   31  O   ACE C   1      -4.066   1.271  30.701  1.00 38.95    -0.274 OA
HETATM   32  CH3 ACE C   1      -6.433   1.245  30.762  1.00 34.05     0.117 C 
ATOM     33  CG  PRO C   2      -5.709   3.001  26.833  1.00 32.34     0.022 C 
ATOM     34  CB  PRO C   2      -4.323   2.473  26.656  1.00 28.70     0.037 C 
ENDBRANCH  23  27
ENDBRANCH  15  20
ENDBRANCH  11  13
ENDBRANCH   8   9
BRANCH   8  35
ATOM     35  CB  VAL C   5       0.089   9.078  23.524  1.00 35.33     0.009 C 
ATOM     36  CG2 VAL C   5      -0.783   7.903  23.060  1.00 35.45     0.012 C 
ATOM     37  CG1 VAL C   5       1.040   9.510  22.452  1.00 28.19     0.012 C 
ENDBRANCH   8  35
ENDBRANCH   1   8
BRANCH   4  38
ATOM     38  C   PRO C   6       4.458  11.350  24.554  1.00 48.62     0.243 C 
ATOM     39  O   PRO C   6       3.789  11.547  23.531  1.00 45.97    -0.271 OA
ATOM     40  N   PRO C   7       5.220  12.314  25.123  1.00 50.57    -0.337 N 
ATOM     41  CA  PRO C   7       5.308  13.679  24.598  1.00 53.29     0.179 C 
ATOM     42  CD  PRO C   7       6.169  12.138  26.243  1.00 52.97     0.127 C 
ATOM     43  CB  PRO C   7       6.575  14.213  25.267  1.00 53.80     0.037 C 
ATOM     44  CG  PRO C   7       6.523  13.568  26.615  1.00 51.48     0.022 C 
BRANCH  41  45
ATOM     45  C   PRO C   7       5.430  13.659  23.084  1.00 55.55     0.241 C 
ATOM     46  O   PRO C   7       6.493  13.312  22.544  1.00 56.05    -0.271 OA
ATOM     47  N   ARG C   8       4.299  13.926  22.427  1.00 55.98    -0.347 N 
ATOM     48  H   ARG C   8       3.556  14.103  22.823  1.00 55.98     0.163 HD
BRANCH  47  49
ATOM     49  CA  ARG C   8       4.206  13.946  20.972  1.00 59.84     0.162 C 
BRANCH  49  50
ATOM     50  C   ARG C   8       5.059  15.043  20.341  1.00 63.97     0.219 C 
ATOM     51  O   ARG C   8       6.216  14.726  19.980  1.00 69.17    -0.287 OA
ENDBRANCH  49  50
BRANCH  49  52
ATOM     52  CB  ARG C   8       2.746  14.100  20.532  1.00 59.33     0.035 C 
BRANCH  52  53
ATOM     53  CG  ARG C   8       2.068  12.797  20.137  1.00 56.20     0.023 C 
BRANCH  53  54
ATOM     54  CD  ARG C   8       0.606  12.989  19.799  1.00 50.77     0.138 C 
BRANCH  54  55
ATOM     55  NE  ARG C   8      -0.039  11.718  19.488  1.00 55.07    -0.227 N 
ATOM     56  CZ  ARG C   8      -1.246  11.352  19.924  1.00 55.92     0.665 C 
ATOM     57  NH1 ARG C   8      -1.975  12.179  20.663  1.00 58.39    -0.235 N 
ATOM     58  NH2 ARG C   8      -1.750  10.168  19.588  1.00 49.54    -0.235 N 
ATOM     59 HH11 ARG C   8      -1.670  12.958  20.864  1.00 58.39     0.174 HD
ATOM     60 HH12 ARG C   8      -2.752  11.936  20.940  1.00 58.39     0.174 HD
ATOM     61 HH21 ARG C   8      -1.298   9.634  19.088  1.00 49.54     0.174 HD
ATOM     62 HH22 ARG C   8      -2.528   9.936  19.871  1.00 49.54     0.174 HD
ATOM     63  HE  ARG C   8       0.389  11.165  18.988  1.00 55.07     0.177 HD
ENDBRANCH  54  55
ENDBRANCH  53  54
ENDBRANCH  52  53
ENDBRANCH  49  52
ENDBRANCH  47  49
ENDBRANCH  41  45
ENDBRANCH   4  38
TORSDOF 14
