USER: ADFR SOLUTION from run 0
USER: SCORE 16.665185 LL:  -4.707 LR: -12.044 RR:   0.000 FEB:  -7.868
USER: RMSD 0.627211
USER: STATUS Locally minimized using BFGS
USER: GENES 16
USER: genes 0 Translation |==|  0.59126 0.56870 0.49978
USER: genes 1 Rotation |==|  0.50765 0.51741 0.47798 0.99915
USER: genes 2 Torsion [N]-C--CA-[N] |==|  0.33891
USER: genes 3 Torsion [C]-CA--N-[C] |==|  0.79451
USER: genes 4 Torsion [N]-C--CA-[N] |==|  0.40783
USER: genes 5 Torsion [N]-C--CA-[CB] |==|  0.80753
USER: genes 6 Torsion [N]-C--CA-[N] |==|  0.37692
USER: genes 7 Torsion [C]-CA--CB-[CG2] |==|  0.44263
USER: genes 8 Torsion [N]-CA--C-[O] |==|  0.93882
USER: genes 9 Torsion [N]-CA--C-[O] |==|  0.79562
USER: genes 10 Torsion [C]-N--CA-[C] |==|  0.79015
USER: genes 11 Torsion [N]-CA--C-[O] |==|  0.25874
USER: genes 12 Torsion [N]-CA--CB-[CG] |==|  0.69558
USER: genes 13 Torsion [CA]-CB--CG-[CD] |==|  0.46606
USER: genes 14 Torsion [CB]-CG--CD-[NE] |==|  0.47404
USER: genes 15 Torsion [CG]-CD--NE-[CZ] |==|  0.37535
ROOT
ATOM      1  C   VAL C   5       2.056   9.690  24.870  1.00 42.36 LIG 0.24  C 
ATOM      2 O    VAL C   5       1.918  10.873  25.196  1.00 45.24 LIG-0.27  OA
ATOM      3  N   PRO C   6       3.265   9.123  24.679  1.00 47.11 LIG-0.34  N 
ATOM      4  CA  PRO C   6       4.570   9.776  24.849  1.00 46.93 LIG 0.18  C 
ATOM      5  CB  PRO C   6       5.513   8.806  24.155  1.00 48.77 LIG 0.04  C 
ATOM      6  CG  PRO C   6       4.887   7.487  24.440  1.00 47.44 LIG 0.02  C 
ATOM      7  CD  PRO C   6       3.448   7.770  24.124  1.00 45.48 LIG 0.13  C 
ENDROOT
BRANCH 1 8
ATOM      8  CA  VAL C   5       0.832   8.819  24.640  1.00 35.80 LIG 0.18  C 
BRANCH 8 9
ATOM      9  N   VAL C   5       0.068   8.798  25.863  1.00 29.23 LIG-0.35  N 
ATOM     10 H    VAL C   5      -0.649   9.271  25.829  1.00 29.23 LIG 0.16  HD
ATOM     11  C   PRO C   4       0.433   8.118  26.936  1.00 26.62 LIG 0.24  C 
ATOM     12 O    PRO C   4       1.418   7.370  26.988  1.00 27.50 LIG-0.27  OA
BRANCH 11 13
ATOM     13  CA  PRO C   4      -0.514   8.240  28.103  1.00 24.57 LIG 0.18  C 
ATOM     14  N   PRO C   4      -0.479   6.968  28.805  1.00 25.19 LIG-0.34  N 
ATOM     15  C   PRO C   3      -0.952   5.845  28.226  1.00 26.73 LIG 0.24  C 
ATOM     16  CD  PRO C   4      -0.015   7.168  30.185  1.00 25.69 LIG 0.13  C 
ATOM     17 O    PRO C   3      -1.506   5.850  27.126  1.00 25.36 LIG-0.27  OA
ATOM     18  CG  PRO C   4      -0.386   8.605  30.421  1.00 24.59 LIG 0.02  C 
ATOM     19  CB  PRO C   4       0.013   9.227  29.149  1.00 22.47 LIG 0.04  C 
BRANCH 15 20
ATOM     20  CA  PRO C   3      -0.866   4.555  29.036  1.00 28.16 LIG 0.18  C 
ATOM     21  N   PRO C   3      -1.492   3.432  28.334  1.00 24.30 LIG-0.34  N 
ATOM     22  CD  PRO C   3      -0.468   2.519  27.806  1.00 25.18 LIG 0.13  C 
ATOM     23  C   PRO C   2      -2.812   3.375  28.130  1.00 26.75 LIG 0.24  C 
ATOM     24  CG  PRO C   3       0.821   3.328  27.966  1.00 22.51 LIG 0.02  C 
ATOM     25  CB  PRO C   3       0.586   4.088  29.200  1.00 21.93 LIG 0.04  C 
ATOM     26 O    PRO C   2      -3.579   4.267  28.513  1.00 25.20 LIG-0.27  OA
BRANCH 23 27
ATOM     27  CA  PRO C   2      -3.350   2.156  27.398  1.00 29.29 LIG 0.18  C 
ATOM     28  N   PRO C   2      -4.556   1.651  28.069  1.00 27.80 LIG-0.34  N 
ATOM     29  C   ACE C   1      -4.519   1.050  29.274  1.00 31.50 LIG 0.22  C 
ATOM     30  CD  PRO C   2      -5.741   1.823  27.211  1.00 33.03 LIG 0.13  C 
ATOM     31 O    ACE C   1      -3.457   0.823  29.851  1.00 38.95 LIG-0.27  OA
ATOM     32  CH3 ACE C   1      -5.810   0.567  29.900  1.00 34.05 LIG 0.12  C 
ATOM     33  CG  PRO C   2      -5.289   2.887  26.241  1.00 32.34 LIG 0.02  C 
ATOM     34  CB  PRO C   2      -3.861   2.519  26.000  1.00 28.70 LIG 0.04  C 
ENDBRANCH 23 27
ENDBRANCH 15 20
ENDBRANCH 11 13
ENDBRANCH 8 9
BRANCH 8 35
ATOM     35  CB  VAL C   5      -0.028   9.388  23.518  1.00 35.33 LIG 0.01  C 
ATOM     36  CG2 VAL C   5      -0.932   8.281  22.959  1.00 35.45 LIG 0.01  C 
ATOM     37  CG1 VAL C   5       0.829   9.987  22.447  1.00 28.19 LIG 0.01  C 
ENDBRANCH 8 35
ENDBRANCH 1 8
BRANCH 4 38
ATOM     38  C   PRO C   6       4.644  11.174  24.227  1.00 48.62 LIG 0.24  C 
ATOM     39 O    PRO C   6       3.857  11.496  23.327  1.00 45.97 LIG-0.27  OA
ATOM     40  N   PRO C   7       5.602  12.010  24.691  1.00 50.57 LIG-0.34  N 
ATOM     41  CA  PRO C   7       5.785  13.374  24.189  1.00 53.29 LIG 0.18  C 
ATOM     42  CD  PRO C   7       6.681  11.670  25.643  1.00 52.97 LIG 0.13  C 
ATOM     43  CB  PRO C   7       7.198  13.717  24.662  1.00 53.80 LIG 0.04  C 
ATOM     44  CG  PRO C   7       7.270  13.027  25.987  1.00 51.48 LIG 0.02  C 
BRANCH 41 45
ATOM     45  C   PRO C   7       5.670  13.404  22.675  1.00 55.55 LIG 0.24  C 
ATOM     46 O    PRO C   7       6.585  12.952  21.967  1.00 56.05 LIG-0.27  OA
ATOM     47  N   ARG C   8       4.495  13.835  22.210  1.00 55.98 LIG-0.35  N 
ATOM     48 H    ARG C   8       3.851  14.085  22.722  1.00 55.98 LIG 0.16  HD
BRANCH 47 49
ATOM     49  CA  ARG C   8       4.184  13.928  20.789  1.00 59.84 LIG 0.16  C 
BRANCH 49 50
ATOM     50  C   ARG C   8       4.855  15.121  20.114  1.00 63.97 LIG 0.22  C 
ATOM     51 O    ARG C   8       5.967  14.917  19.574  1.00 69.17 LIG-0.29  OA
ENDBRANCH 49 50
BRANCH 49 52
ATOM     52  CB  ARG C   8       2.667  13.992  20.577  1.00 59.33 LIG 0.04  C 
BRANCH 52 53
ATOM     53  CG  ARG C   8       2.066  12.741  19.956  1.00 56.20 LIG 0.02  C 
BRANCH 53 54
ATOM     54  CD  ARG C   8       0.555  12.727  20.038  1.00 50.77 LIG 0.14  C 
BRANCH 54 55
ATOM     55  NE  ARG C   8      -0.010  11.637  19.250  1.00 55.07 LIG-0.23  N 
ATOM     56  CZ  ARG C   8      -0.983  10.824  19.666  1.00 55.92 LIG 0.67  C 
ATOM     57  NH1 ARG C   8      -1.542  10.997  20.857  1.00 58.39 LIG-0.23  N 
ATOM     58  NH2 ARG C   8      -1.431   9.854  18.874  1.00 49.54 LIG-0.23  N 
ATOM     59 1HH1 ARG C   8      -1.278  11.638  21.367  1.00 58.39 LIG 0.17  HD
ATOM     60 2HH1 ARG C   8      -2.169  10.469  21.118  1.00 58.39 LIG 0.17  HD
ATOM     61 1HH2 ARG C   8      -1.094   9.749  18.090  1.00 49.54 LIG 0.17  HD
ATOM     62 2HH2 ARG C   8      -2.058   9.333  19.146  1.00 49.54 LIG 0.17  HD
ATOM     63 HE   ARG C   8       0.306  11.510  18.461  1.00 55.07 LIG 0.18  HD
ENDBRANCH 54 55
ENDBRANCH 53 54
ENDBRANCH 52 53
ENDBRANCH 49 52
ENDBRANCH 47 49
ENDBRANCH 41 45
ENDBRANCH 4 38
TORSDOF 14
