USER: ADFR SOLUTION from run 0
USER: SCORE 13.045337 LL:  -4.881 LR: -10.198 RR:   0.000 FEB:  -3.636
USER: RMSD 1.197993
USER: STATUS Locally minimized using BFGS
USER: GENES 24
USER: genes 0 Translation |==|  0.43996 0.52545 0.68686
USER: genes 1 Rotation |==|  0.45652 0.50415 0.50558 0.99806
USER: genes 2 Torsion [C]-CA--N-[C] |==|  0.81411
USER: genes 3 Torsion [N]-C--CA-[N] |==|  0.99436
USER: genes 4 Torsion [N]-C--CA-[N] |==|  0.37690
USER: genes 5 Torsion [C]-CA--CB-[CG] |==|  0.20719
USER: genes 6 Torsion [CA]-CB--CG-[CD2] |==|  0.24494
USER: genes 7 Torsion [C]-CA--N-[C] |==|  0.80244
USER: genes 8 Torsion [N]-C--CA-[N] |==|  0.28889
USER: genes 9 Torsion [C]-CA--CB-[SG] |==|  0.25644
USER: genes 10 Torsion [CA]-CB--SG-[HG] |==|  0.49979
USER: genes 11 Torsion [C]-CA--N-[C] |==|  0.13208
USER: genes 12 Torsion [N]-CA--CB-[CG] |==|  0.50243
USER: genes 13 Torsion [CA]-CB--CG-[CD] |==|  0.48439
USER: genes 14 Torsion [CB]-CG--CD-[NE2] |==|  0.40176
USER: genes 15 Torsion [N]-CA--C-[N] |==|  0.83668
USER: genes 16 Torsion [C]-N--CA-[C] |==|  0.62891
USER: genes 17 Torsion [N]-CA--CB-[CG] |==|  0.79636
USER: genes 18 Torsion [CA]-CB--CG-[ND2] |==|  0.35125
USER: genes 19 Torsion [N]-CA--C-[N] |==|  0.47178
USER: genes 20 Torsion [C]-N--CA-[C] |==|  0.75243
USER: genes 21 Torsion [N]-CA--C-[N] |==|  0.36058
USER: genes 22 Torsion [N]-CA--CB-[OG1] |==|  0.53185
USER: genes 23 Torsion [CA]-CB--OG1-[HG1] |==|  0.49980
ROOT
ATOM      1  CA  GLN M   4      34.495  14.189  -6.737  1.00 40.00 LIG 0.18  C 
ENDROOT
BRANCH 1 2
ATOM      2  N   GLN M   4      34.047  14.645  -8.016  1.00 41.31 LIG-0.35  N 
ATOM      3 H    GLN M   4      33.426  14.179  -8.385  1.00 41.31 LIG 0.16  HD
ATOM      4  C   PRO M   3      34.610  15.737  -8.532  1.00 42.91 LIG 0.24  C 
ATOM      5 O    PRO M   3      35.490  16.380  -7.920  1.00 42.50 LIG-0.27  OA
BRANCH 4 6
ATOM      6  CA  PRO M   3      34.092  16.189  -9.902  1.00 43.35 LIG 0.18  C 
ATOM      7  N   PRO M   3      33.071  15.366 -10.532  1.00 44.79 LIG-0.34  N 
ATOM      8  C   HIS M   2      33.295  14.142 -11.084  1.00 46.46 LIG 0.24  C 
ATOM      9  CD  PRO M   3      31.840  16.167 -10.690  1.00 43.94 LIG 0.13  C 
ATOM     10 O    HIS M   2      34.377  13.536 -11.034  1.00 45.68 LIG-0.27  OA
ATOM     11  CG  PRO M   3      31.996  17.253  -9.668  1.00 40.61 LIG 0.02  C 
ATOM     12  CB  PRO M   3      33.430  17.557  -9.913  1.00 40.36 LIG 0.04  C 
BRANCH 8 13
ATOM     13  CA  HIS M   2      32.118  13.495 -11.780  1.00 46.79 LIG 0.18  C 
BRANCH 13 14
ATOM     14  CB  HIS M   2      31.496  12.405 -10.846  1.00 44.05 LIG 0.10  C 
BRANCH 14 15
ATOM     15  CG  HIS M   2      30.691  13.032  -9.702  1.00 42.32 LIG 0.06  A 
ATOM     16  CD2 HIS M   2      29.362  13.367  -9.767  1.00 41.49 LIG 0.14  A 
ATOM     17 NE2  HIS M   2      29.193  14.069  -8.680  1.00 41.41 LIG-0.25  NA
ATOM     18  CE1 HIS M   2      30.329  14.148  -8.003  1.00 41.50 LIG 0.23  A 
ATOM     19 ND1  HIS M   2      31.293  13.502  -8.617  1.00 40.17 LIG-0.24  NA
ENDBRANCH 14 15
ENDBRANCH 13 14
BRANCH 13 20
ATOM     20  N   HIS M   2      32.570  12.932 -13.047  1.00 53.14 LIG-0.35  N 
ATOM     21 H    HIS M   2      32.595  12.073 -13.058  1.00 53.14 LIG 0.16  HD
ATOM     22  C   CYS M   1      32.913  13.695 -14.090  0.42 52.47 LIG 0.24  C 
ATOM     23 O    CYS M   1      32.927  14.929 -14.060  0.42 50.41 LIG-0.27  OA
BRANCH 22 24
ATOM     24  CA  CYS M   1      33.301  12.894 -15.333  0.42 53.64 LIG 0.18  C 
BRANCH 24 25
ATOM     25  CB  CYS M   1      34.569  13.459 -15.930  0.42 54.18 LIG 0.10  C 
BRANCH 25 26
ATOM     26 SG   CYS M   1      35.942  12.538 -15.206  0.42 57.26 LIG-0.18  SA
ATOM     27 HG   CYS M   1      36.978  12.949 -15.650  0.42 57.26 LIG 0.10  HD
ENDBRANCH 25 26
ENDBRANCH 24 25
BRANCH 24 28
ATOM     28  N   CYS M   1      32.238  12.911 -16.327  0.42 53.99 LIG-0.38  N 
ATOM     29  C   ACE M   0      31.622  14.036 -16.690  0.42 54.55 LIG 0.04  C 
ATOM     30  CH3 ACE M   0      30.534  14.015 -17.755  0.42 54.45 LIG 0.05  C 
ATOM     31 H    CYS M   1      32.048  12.138 -16.651  0.42 53.99 LIG 0.16  HD
ENDBRANCH 24 28
ENDBRANCH 22 24
ENDBRANCH 13 20
ENDBRANCH 8 13
ENDBRANCH 4 6
ENDBRANCH 1 2
BRANCH 1 32
ATOM     32  CB  GLN M   4      33.609  13.058  -6.252  1.00 35.03 LIG 0.04  C 
BRANCH 32 33
ATOM     33  CG  GLN M   4      34.098  12.605  -4.873  1.00 28.64 LIG 0.10  C 
BRANCH 33 34
ATOM     34  CD  GLN M   4      33.206  11.567  -4.226  1.00 28.38 LIG 0.21  C 
ATOM     35  NE2 GLN M   4      33.857  10.653  -3.503  1.00 21.52 LIG-0.37  N 
ATOM     36 22HE GLN M   4      33.421  10.025  -3.109  1.00 21.52 LIG 0.16  HD
ATOM     37 21HE GLN M   4      34.713  10.692  -3.431  1.00 21.52 LIG 0.16  HD
ATOM     38 OE1  GLN M   4      31.966  11.583  -4.382  1.00 23.11 LIG-0.27  OA
ENDBRANCH 33 34
ENDBRANCH 32 33
ENDBRANCH 1 32
BRANCH 1 39
ATOM     39  C   GLN M   4      35.929  13.711  -6.869  1.00 43.11 LIG 0.24  C 
ATOM     40  N   ASN M   5      36.115  12.735  -7.740  1.00 48.15 LIG-0.35  N 
ATOM     41 H    ASN M   5      35.505  12.398  -8.244  1.00 48.15 LIG 0.16  HD
ATOM     42 O    GLN M   4      36.861  14.238  -6.257  1.00 42.77 LIG-0.27  OA
BRANCH 40 43
ATOM     43  CA  ASN M   5      37.438  12.159  -7.887  1.00 54.08 LIG 0.18  C 
BRANCH 43 44
ATOM     44  CB  ASN M   5      37.439  10.779  -7.157  1.00 57.18 LIG 0.14  C 
BRANCH 44 45
ATOM     45  CG  ASN M   5      37.442  10.789  -5.601  1.00 60.38 LIG 0.22  C 
ATOM     46  ND2 ASN M   5      36.544  10.129  -4.868  1.00 60.67 LIG-0.37  N 
ATOM     47 22HD ASN M   5      35.918   9.684  -5.253  1.00 60.67 LIG 0.16  HD
ATOM     48 21HD ASN M   5      36.593  10.149  -4.010  1.00 60.67 LIG 0.16  HD
ATOM     49 OD1  ASN M   5      38.296  11.393  -4.945  1.00 60.50 LIG-0.27  OA
ENDBRANCH 44 45
ENDBRANCH 43 44
BRANCH 43 50
ATOM     50  C   ASN M   5      37.764  12.045  -9.362  1.00 53.60 LIG 0.24  C 
ATOM     51 O    ASN M   5      36.889  12.322 -10.181  1.00 54.31 LIG-0.27  OA
ATOM     52  N   THR M   6      38.998  11.735  -9.740  0.00 53.23 LIG-0.34  N 
ATOM     53 H    THR M   6      39.654  11.596  -9.200  0.00 53.23 LIG 0.16  HD
BRANCH 52 54
ATOM     54  CA  THR M   6      39.325  11.609 -11.142  0.00 52.61 LIG 0.21  C 
BRANCH 54 55
ATOM     55  C   THR M   6      39.081  10.167 -11.593  0.00 52.44 LIG 0.29  C 
ATOM     56  N   NH2 M   7      38.353   9.991 -12.687  0.00 52.35 LIG-0.11  N 
ATOM     57 O    THR M   6      39.469   9.191 -10.953  0.00 52.24 LIG-0.27  OA
ENDBRANCH 54 55
BRANCH 54 58
ATOM     58  CB  THR M   6      40.801  12.088 -11.319  0.00 52.38 LIG 0.15  C 
ATOM     59  CG2 THR M   6      41.870  11.185 -10.705  0.00 52.30 LIG 0.04  C 
BRANCH 58 60
ATOM     60 OG1  THR M   6      40.965  12.198 -12.727  0.00 52.26 LIG-0.39  OA
ATOM     61 HG1  THR M   6      41.745  12.456 -12.899  0.00 52.26 LIG 0.21  HD
ENDBRANCH 58 60
ENDBRANCH 54 58
ENDBRANCH 52 54
ENDBRANCH 43 50
ENDBRANCH 40 43
ENDBRANCH 1 39
TORSDOF 22
