USER: ADFR SOLUTION from run 0
USER: SCORE 12.504022 LL:  -6.110 LR: -10.494 RR:   0.000 FEB:  -2.738
USER: RMSD 1.189717
USER: STATUS Locally minimized using BFGS
USER: GENES 28
USER: genes 0 Translation |==|  0.62382 0.57648 0.56361
USER: genes 1 Rotation |==|  0.51951 0.49397 0.47743 0.99907
USER: genes 2 Torsion [N]-CA--C-[O] |==|  0.44620
USER: genes 3 Torsion [C]-N--CA-[C] |==|  0.83505
USER: genes 4 Torsion [N]-CA--C-[N] |==|  0.87289
USER: genes 5 Torsion [C]-N--CA-[CB] |==|  0.31066
USER: genes 6 Torsion [N]-CA--CB-[CG] |==|  0.76031
USER: genes 7 Torsion [CA]-CB--CG-[ND2] |==|  0.32414
USER: genes 8 Torsion [N]-CA--C-[N] |==|  0.42069
USER: genes 9 Torsion [C]-N--CA-[CB] |==|  0.74319
USER: genes 10 Torsion [N]-CA--CB-[CG2] |==|  0.23795
USER: genes 11 Torsion [CA]-CB--OG1-[HG1] |==|  0.86915
USER: genes 12 Torsion [N]-CA--C-[N] |==|  0.53162
USER: genes 13 Torsion [N]-CA--CB-[CG] |==|  0.50707
USER: genes 14 Torsion [CA]-CB--CG-[CD] |==|  0.47166
USER: genes 15 Torsion [CB]-CG--CD-[OE1] |==|  0.91430
USER: genes 16 Torsion [N]-C--CA-[N] |==|  0.37787
USER: genes 17 Torsion [C]-CA--N-[C] |==|  0.54593
USER: genes 18 Torsion [N]-C--CA-[N] |==|  0.09574
USER: genes 19 Torsion [C]-CA--N-[C] |==|  0.48146
USER: genes 20 Torsion [N]-C--CA-[N] |==|  0.38324
USER: genes 21 Torsion [C]-CA--CB-[CG] |==|  0.55338
USER: genes 22 Torsion [CA]-CB--CG-[CD1] |==|  0.01722
USER: genes 23 Torsion [C]-CA--N-[H3] |==|  0.30747
USER: genes 24 Torsion [C]-CA--CB-[SG] |==|  0.27998
USER: genes 25 Torsion [CA]-CB--SG-[HG] |==|  0.49975
USER: genes 26 Torsion [C]-CA--CB-[CG] |==|  0.19335
USER: genes 27 Torsion [CA]-CB--CG-[ND1] |==|  0.73928
ROOT
ATOM      1  C   HIS P   3      19.866   3.209  18.475  1.00 29.14 LIG 0.24  C 
ATOM      2 O    HIS P   3      18.666   3.018  18.206  1.00 31.23 LIG-0.27  OA
ATOM      3  N   PRO P   4      20.320   4.434  18.795  1.00 24.67 LIG-0.34  N 
ATOM      4  CA  PRO P   4      19.476   5.606  18.763  1.00 22.95 LIG 0.18  C 
ATOM      5  CB  PRO P   4      20.363   6.741  19.252  1.00 20.99 LIG 0.04  C 
ATOM      6  CG  PRO P   4      21.620   6.106  19.803  1.00 22.70 LIG 0.02  C 
ATOM      7  CD  PRO P   4      21.722   4.782  19.133  1.00 21.81 LIG 0.13  C 
ENDROOT
BRANCH 4 8
ATOM      8  C   PRO P   4      18.830   5.964  17.432  1.00 19.64 LIG 0.24  C 
ATOM      9 O    PRO P   4      17.847   6.708  17.427  1.00 20.88 LIG-0.27  OA
ATOM     10  N   GLN P   5      19.391   5.503  16.301  1.00 22.98 LIG-0.35  N 
ATOM     11 H    GLN P   5      20.074   4.981  16.290  1.00 22.98 LIG 0.16  HD
BRANCH 10 12
ATOM     12  CA  GLN P   5      18.890   5.846  14.974  1.00 16.98 LIG 0.18  C 
BRANCH 12 13
ATOM     13  C   GLN P   5      17.451   5.444  14.723  1.00 21.89 LIG 0.24  C 
ATOM     14  N   ASN P   6      16.978   4.239  15.053  1.00 22.75 LIG-0.35  N 
ATOM     15 H    ASN P   6      17.418   3.595  15.414  1.00 22.75 LIG 0.16  HD
ATOM     16 O    GLN P   5      16.707   6.273  14.183  1.00 24.56 LIG-0.27  OA
BRANCH 14 17
ATOM     17  CA  ASN P   6      15.582   4.003  14.769  1.00 29.16 LIG 0.18  C 
BRANCH 17 18
ATOM     18  CB  ASN P   6      15.329   2.973  13.660  1.00 24.89 LIG 0.14  C 
BRANCH 18 19
ATOM     19  CG  ASN P   6      15.341   3.586  12.272  1.00 26.77 LIG 0.22  C 
ATOM     20 OD1  ASN P   6      14.545   4.455  11.874  1.00 24.78 LIG-0.27  OA
ATOM     21  ND2 ASN P   6      16.304   3.131  11.500  1.00 25.10 LIG-0.37  N 
ATOM     22 22HD ASN P   6      16.844   2.530  11.795  1.00 25.10 LIG 0.16  HD
ATOM     23 21HD ASN P   6      16.394   3.434  10.701  1.00 25.10 LIG 0.16  HD
ENDBRANCH 18 19
ENDBRANCH 17 18
BRANCH 17 24
ATOM     24  C   ASN P   6      14.872   3.517  15.970  1.00 33.65 LIG 0.24  C 
ATOM     25 O    ASN P   6      15.454   2.980  16.906  1.00 34.15 LIG-0.27  OA
ATOM     26  N   THR P   7      13.616   3.928  15.816  1.00 46.42 LIG-0.34  N 
ATOM     27 H    THR P   7      13.401   4.398  15.128  1.00 46.42 LIG 0.16  HD
BRANCH 26 28
ATOM     28  CA  THR P   7      12.458   3.707  16.667  1.00 55.98 LIG 0.21  C 
BRANCH 28 29
ATOM     29  CB  THR P   7      11.827   2.403  16.044  1.00 59.10 LIG 0.15  C 
ATOM     30  CG2 THR P   7      12.449   1.106  16.595  1.00 61.71 LIG 0.04  C 
BRANCH 29 31
ATOM     31 OG1  THR P   7      10.418   2.483  16.273  1.00 60.27 LIG-0.39  OA
ATOM     32 HG1  THR P   7      10.276   2.698  17.073  1.00 60.27 LIG 0.21  HD
ENDBRANCH 29 31
ENDBRANCH 28 29
BRANCH 28 33
ATOM     33  C   THR P   7      12.552   3.675  18.198  1.00 57.95 LIG 0.29  C 
ATOM     34  N   NH2 P   8      11.460   3.231  18.809  1.00 58.98 LIG-0.11  N 
ATOM     35 O    THR P   7      13.522   4.085  18.843  1.00 60.38 LIG-0.27  OA
ENDBRANCH 28 33
ENDBRANCH 26 28
ENDBRANCH 17 24
ENDBRANCH 14 17
ENDBRANCH 12 13
BRANCH 12 36
ATOM     36  CB  GLN P   5      19.796   5.229  13.926  1.00 11.38 LIG 0.04  C 
BRANCH 36 37
ATOM     37  CG  GLN P   5      19.371   5.597  12.506  1.00 11.43 LIG 0.10  C 
BRANCH 37 38
ATOM     38  CD  GLN P   5      20.368   5.217  11.422  1.00 11.64 LIG 0.21  C 
ATOM     39  NE2 GLN P   5      19.988   4.888  10.204  1.00  7.77 LIG-0.37  N 
ATOM     40 21HE GLN P   5      19.153   4.889  10.000  1.00  7.77 LIG 0.16  HD
ATOM     41 22HE GLN P   5      20.575   4.671   9.614  1.00  7.77 LIG 0.16  HD
ATOM     42 OE1  GLN P   5      21.561   5.206  11.687  1.00 11.36 LIG-0.27  OA
ENDBRANCH 37 38
ENDBRANCH 36 37
ENDBRANCH 12 36
ENDBRANCH 10 12
ENDBRANCH 4 8
BRANCH 1 43
ATOM     43  CA  HIS P   3      20.821   2.020  18.559  1.00 30.34 LIG 0.18  C 
BRANCH 43 44
ATOM     44  N   HIS P   3      19.893   1.119  19.205  1.00 35.71 LIG-0.35  N 
ATOM     45  C   CYS P   2      20.214   0.004  19.826  0.17 38.31 LIG 0.24  C 
ATOM     46 O    CYS P   2      21.354  -0.471  19.786  0.17 38.29 LIG-0.27  OA
ATOM     47 H    HIS P   3      19.078   1.387  19.144  1.00 35.71 LIG 0.16  HD
BRANCH 45 48
ATOM     48  CA  CYS P   2      19.004  -0.642  20.501  0.17 40.64 LIG 0.18  C 
BRANCH 48 49
ATOM     49  N   CYS P   2      17.709  -0.504  19.817  0.17 43.25 LIG-0.34  N 
ATOM     50  C   PHE P   1      16.580  -1.111  20.196  0.36 44.98 LIG 0.25  C 
ATOM     51 O    PHE P   1      16.560  -1.982  21.064  0.36 46.44 LIG-0.27  OA
ATOM     52 H    CYS P   2      17.746   0.015  19.132  0.17 43.25 LIG 0.16  HD
BRANCH 50 53
ATOM     53  CA  PHE P   1      15.241  -0.894  19.497  0.36 46.68 LIG 0.28  C 
BRANCH 53 54
ATOM     54  CB  PHE P   1      14.472   0.061  20.432  0.36 47.92 LIG 0.08  C 
BRANCH 54 55
ATOM     55  CG  PHE P   1      12.957   0.248  20.401  0.36 47.93 LIG-0.06  A 
ATOM     56  CD1 PHE P   1      12.100  -0.521  19.606  0.36 48.98 LIG 0.01  A 
ATOM     57  CE1 PHE P   1      10.720  -0.292  19.646  0.36 50.12 LIG 0.00  A 
ATOM     58  CZ  PHE P   1      10.190   0.698  20.473  0.36 48.72 LIG 0.00  A 
ATOM     59  CE2 PHE P   1      11.046   1.460  21.266  0.36 48.48 LIG 0.00  A 
ATOM     60  CD2 PHE P   1      12.424   1.237  21.231  0.36 48.25 LIG 0.01  A 
ENDBRANCH 54 55
ENDBRANCH 53 54
BRANCH 53 61
ATOM     61  N   PHE P   1      14.746  -2.259  19.466  0.36 46.83 LIG-0.07  N 
ATOM     62 H3   PHE P   1      14.053  -2.337  20.019  0.36 46.83 LIG 0.28  HD
ATOM     63 H1   PHE P   1      14.490  -2.463  18.638  0.36 46.83 LIG 0.28  HD
ATOM     64 H2   PHE P   1      15.393  -2.815  19.722  0.36 46.83 LIG 0.28  HD
ENDBRANCH 53 61
ENDBRANCH 50 53
ENDBRANCH 48 49
BRANCH 48 65
ATOM     65  CB  CYS P   2      19.422  -2.082  20.794  0.17 41.02 LIG 0.10  C 
BRANCH 65 66
ATOM     66 SG   CYS P   2      19.841  -2.041  22.553  0.17 41.68 LIG-0.18  SA
ATOM     67 HG   CYS P   2      20.188  -3.134  22.907  0.17 41.68 LIG 0.10  HD
ENDBRANCH 65 66
ENDBRANCH 48 65
ENDBRANCH 45 48
ENDBRANCH 43 44
BRANCH 43 68
ATOM     68  CB  HIS P   3      21.324   1.720  17.111  1.00 25.21 LIG 0.10  C 
BRANCH 68 69
ATOM     69  CG  HIS P   3      22.262   2.893  16.675  1.00 21.50 LIG 0.06  A 
ATOM     70 ND1  HIS P   3      21.799   3.937  15.988  1.00 15.93 LIG-0.24  NA
ATOM     71  CE1 HIS P   3      22.796   4.809  16.009  1.00 14.31 LIG 0.23  A 
ATOM     72 NE2  HIS P   3      23.826   4.326  16.687  1.00 14.39 LIG-0.25  NA
ATOM     73  CD2 HIS P   3      23.556   3.117  17.125  1.00 20.69 LIG 0.14  A 
ENDBRANCH 68 69
ENDBRANCH 43 68
ENDBRANCH 1 43
TORSDOF 26
