USER: ADFR SOLUTION from run 0
USER: SCORE 11.584817 LL:  -2.046 LR: -10.428 RR:   0.000 FEB:  -7.146
USER: RMSD 0.490940
USER: STATUS Locally minimized using BFGS
USER: GENES 13
USER: genes 0 Translation |==|  0.48750 0.52009 0.44997
USER: genes 1 Rotation |==|  0.52929 0.52138 0.47456 0.99803
USER: genes 2 Torsion [C]-N--CA-[CB] |==|  0.47021
USER: genes 3 Torsion [N]-CA--C-[N] |==|  0.38112
USER: genes 4 Torsion [C]-N--CA-[C] |==|  0.77037
USER: genes 5 Torsion [N]-CA--C-[O] |==|  0.59964
USER: genes 6 Torsion [N]-CA--CB-[CG] |==|  0.80400
USER: genes 7 Torsion [CA]-CB--CG-[CD1] |==|  0.50397
USER: genes 8 Torsion [N]-C--CA-[N] |==|  0.43349
USER: genes 9 Torsion [C]-CA--CB-[CG] |==|  0.19137
USER: genes 10 Torsion [CA]-CB--CG-[CD1] |==|  0.23019
USER: genes 11 Torsion [C]-CA--N-[C] |==|  0.63936
USER: genes 12 Torsion [N]-C--CA-[N] |==|  0.40721
ROOT
ATOM      1  C   LEU C 675      25.972   3.690  19.762  1.00 14.56 LIG 0.24  C 
ATOM      2 O    LEU C 675      26.700   3.810  20.766  0.66 14.97 LIG-0.27  OA
ATOM      3  N   ALA C 676      24.664   3.462  19.879  0.83 13.84 LIG-0.35  N 
ATOM      4 H    ALA C 676      24.150   3.377  19.195  0.83 13.84 LIG 0.16  HD
ENDROOT
BRANCH 3 5
ATOM      5  CA  ALA C 676      23.945   3.327  21.154  1.00 13.04 LIG 0.17  C 
ATOM      6  CB  ALA C 676      22.449   3.336  20.925  0.89 13.68 LIG 0.04  C 
BRANCH 5 7
ATOM      7  C   ALA C 676      24.457   2.153  21.957  0.69 12.60 LIG 0.24  C 
ATOM      8 O    ALA C 676      24.778   1.067  21.432  0.52 12.22 LIG-0.27  OA
ATOM      9  N   LEU C 677      24.614   2.395  23.264  0.89 12.12 LIG-0.34  N 
ATOM     10 H    LEU C 677      24.401   3.141  23.636  0.89 12.12 LIG 0.16  HD
BRANCH 9 11
ATOM     11  CA  LEU C 677      25.160   1.418  24.186  0.93 11.78 LIG 0.18  C 
BRANCH 11 12
ATOM     12  C   LEU C 677      24.294   0.374  24.754  0.42 11.73 LIG 0.20  C 
ATOM     13 O    LEU C 677      24.440  -0.044  25.950  0.84 11.50 LIG-0.65  OA
ATOM     14 OXT  LEU C 677      23.393  -0.159  24.044  0.55 11.71 LIG-0.65  OA
ENDBRANCH 11 12
BRANCH 11 15
ATOM     15  CB  LEU C 677      26.391   1.961  24.857  1.00 11.60 LIG 0.04  C 
BRANCH 15 16
ATOM     16  CG  LEU C 677      27.706   2.181  24.173  0.82 11.89 LIG-0.02  C 
ATOM     17  CD2 LEU C 677      28.292   0.895  23.573  0.78 11.63 LIG 0.01  C 
ATOM     18  CD1 LEU C 677      28.741   2.717  25.200  1.00 11.42 LIG 0.01  C 
ENDBRANCH 15 16
ENDBRANCH 11 15
ENDBRANCH 9 11
ENDBRANCH 5 7
ENDBRANCH 3 5
BRANCH 1 19
ATOM     19  CA  LEU C 675      26.474   3.766  18.341  0.78 15.17 LIG 0.18  C 
BRANCH 19 20
ATOM     20  CB  LEU C 675      26.755   2.408  17.659  0.53 15.14 LIG 0.04  C 
BRANCH 20 21
ATOM     21  CG  LEU C 675      25.692   1.443  17.280  0.32 15.05 LIG-0.02  C 
ATOM     22  CD1 LEU C 675      25.013   1.740  15.942  0.18 15.17 LIG 0.01  C 
ATOM     23  CD2 LEU C 675      26.363   0.049  17.176  0.37 15.02 LIG 0.01  C 
ENDBRANCH 20 21
ENDBRANCH 19 20
BRANCH 19 24
ATOM     24  N   LEU C 675      27.697   4.524  18.191  0.88 15.36 LIG-0.35  N 
ATOM     25 H    LEU C 675      28.297   4.269  18.752  0.88 15.36 LIG 0.16  HD
ATOM     26  C   ALA C 674      27.946   5.502  17.329  0.61 16.05 LIG 0.26  C 
ATOM     27 O    ALA C 674      27.075   5.950  16.575  0.70 15.91 LIG-0.27  OA
BRANCH 26 28
ATOM     28  CA  ALA C 674      29.367   6.014  17.400  0.67 16.10 LIG 0.40  C 
ATOM     29  CB  ALA C 674      29.627   6.967  18.521  0.67 16.22 LIG 0.06  C 
ATOM     30  N   ALA C 674      29.918   6.454  16.121  0.74 16.71 LIG 0.61  N 
ENDBRANCH 26 28
ENDBRANCH 19 24
ENDBRANCH 1 19
TORSDOF 11
