USER: ADFR SOLUTION from run 0
USER: SCORE 14.252865 LL:  -2.337 LR: -12.001 RR:   0.000 FEB:  -9.018
USER: RMSD 0.593485
USER: STATUS Locally minimized using BFGS
USER: GENES 12
USER: genes 0 Translation |==|  0.52591 0.50905 0.41739
USER: genes 1 Rotation |==|  0.50117 0.51609 0.49923 0.99974
USER: genes 2 Torsion [N]-CA--C-[O] |==|  0.90368
USER: genes 3 Torsion [C]-N--CA-[C] |==|  0.81241
USER: genes 4 Torsion [N]-CA--C-[O] |==|  0.91389
USER: genes 5 Torsion [N]-CA--CB-[CG2] |==|  0.46313
USER: genes 6 Torsion [CA]-CB--CG1-[CD1] |==|  0.46729
USER: genes 7 Torsion [N]-C--CA-[N] |==|  0.42911
USER: genes 8 Torsion [C]-CA--CB-[CG1] |==|  0.48810
USER: genes 9 Torsion [C]-CA--N-[C] |==|  0.63321
USER: genes 10 Torsion [N]-C--CA-[N] |==|  0.45235
USER: genes 11 Torsion [C]-CA--N-[H2] |==|  0.85047
ROOT
ATOM      1  C   VAL C   2      81.301  62.726  14.722  1.00  9.13 LIG 0.24  C 
ATOM      2 O    VAL C   2      81.055  62.475  15.899  1.00  8.39 LIG-0.27  OA
ATOM      3  N   PRO C   3      80.615  63.643  14.040  1.00  8.40 LIG-0.34  N 
ATOM      4  CA  PRO C   3      79.488  64.342  14.672  1.00  9.15 LIG 0.18  C 
ATOM      5  CB  PRO C   3      79.010  65.305  13.582  1.00 10.26 LIG 0.04  C 
ATOM      6  CG  PRO C   3      80.179  65.460  12.676  1.00 11.14 LIG 0.02  C 
ATOM      7  CD  PRO C   3      80.852  64.122  12.667  1.00 11.16 LIG 0.13  C 
ENDROOT
BRANCH 4 8
ATOM      8  C   PRO C   3      78.362  63.395  15.112  1.00  9.70 LIG 0.24  C 
ATOM      9 O    PRO C   3      78.102  62.395  14.446  1.00  8.21 LIG-0.27  OA
ATOM     10  N   ILE C   4      77.706  63.717  16.222  1.00 10.20 LIG-0.35  N 
ATOM     11 H    ILE C   4      77.859  64.431  16.677  1.00 10.20 LIG 0.16  HD
BRANCH 10 12
ATOM     12  CA  ILE C   4      76.647  62.870  16.773  1.00 11.44 LIG 0.17  C 
BRANCH 12 13
ATOM     13  C   ILE C   4      75.428  62.851  15.852  1.00 10.89 LIG 0.22  C 
ATOM     14 O    ILE C   4      75.154  63.830  15.169  1.00  9.55 LIG-0.29  OA
ENDBRANCH 12 13
BRANCH 12 15
ATOM     15  CB  ILE C   4      76.254  63.350  18.194  1.00 10.54 LIG 0.01  C 
ATOM     16  CG2 ILE C   4      74.939  62.698  18.656  1.00 11.57 LIG 0.01  C 
BRANCH 15 17
ATOM     17  CG1 ILE C   4      77.390  63.046  19.177  1.00  9.08 LIG 0.00  C 
ATOM     18  CD1 ILE C   4      77.238  63.723  20.537  1.00  9.00 LIG 0.01  C 
ENDBRANCH 15 17
ENDBRANCH 12 15
ENDBRANCH 10 12
ENDBRANCH 4 8
BRANCH 1 19
ATOM     19  CA  VAL C   2      82.417  61.975  14.001  1.00  9.18 LIG 0.18  C 
BRANCH 19 20
ATOM     20  CB  VAL C   2      81.801  60.803  13.194  1.00  9.29 LIG 0.01  C 
ATOM     21  CG1 VAL C   2      82.870  60.091  12.376  1.00 10.46 LIG 0.01  C 
ATOM     22  CG2 VAL C   2      81.067  59.818  14.113  1.00 10.38 LIG 0.01  C 
ENDBRANCH 19 20
BRANCH 19 23
ATOM     23  N   VAL C   2      83.409  61.501  14.966  1.00 10.44 LIG-0.35  N 
ATOM     24 H    VAL C   2      83.069  61.103  15.649  1.00 10.44 LIG 0.16  HD
ATOM     25  C   ALA C   1      84.713  61.675  14.797  1.00  9.27 LIG 0.25  C 
ATOM     26 O    ALA C   1      85.200  62.206  13.799  1.00  8.72 LIG-0.27  OA
BRANCH 25 27
ATOM     27  CA  ALA C   1      85.606  61.143  15.908  1.00  8.36 LIG 0.27  C 
ATOM     28  CB  ALA C   1      85.547  62.046  17.130  1.00 10.14 LIG 0.05  C 
BRANCH 27 29
ATOM     29  N   ALA C   1      87.003  61.029  15.406  1.00  5.51 LIG-0.07  N 
ATOM     30 H1   ALA C   1      87.510  60.636  16.023  1.00  5.51 LIG 0.28  HD
ATOM     31 H2   ALA C   1      87.012  60.542  14.661  1.00  5.51 LIG 0.28  HD
ATOM     32 H3   ALA C   1      87.324  61.841  15.232  1.00  5.51 LIG 0.28  HD
ENDBRANCH 27 29
ENDBRANCH 25 27
ENDBRANCH 19 23
ENDBRANCH 1 19
TORSDOF 10
