REMARK  10 active torsions:
REMARK  status: ('A' for Active; 'I' for Inactive)
REMARK    1  A    between atoms: N_1  and  CA_2 
REMARK    2  A    between atoms: CA_2  and  C_3 
REMARK       I    between atoms: C_3  and  N_9 
REMARK    3  A    between atoms: N_9  and  CA_10 
REMARK    4  A    between atoms: CA_10  and  CB_13 
REMARK    5  A    between atoms: CA_10  and  C_11 
REMARK       I    between atoms: C_11  and  N_17 
REMARK    6  A    between atoms: CA_18  and  C_19 
REMARK       I    between atoms: C_19  and  N_24 
REMARK    7  A    between atoms: N_24  and  CA_25 
REMARK    8  A    between atoms: CA_25  and  C_26 
REMARK    9  A    between atoms: CA_25  and  CB_28 
REMARK   10  A    between atoms: CB_28  and  CG1_29 
ROOT
ATOM      1  C   VAL C   2      81.061  62.685  14.398  1.00  9.13     0.243 C 
ATOM      2  O   VAL C   2      80.740  62.439  15.558  1.00  8.39    -0.271 OA
ATOM      3  N   PRO C   3      80.418  63.597  13.669  1.00  8.40    -0.337 N 
ATOM      4  CA  PRO C   3      79.250  64.295  14.224  1.00  9.15     0.179 C 
ATOM      5  CB  PRO C   3      78.840  65.251  13.101  1.00 10.26     0.037 C 
ATOM      6  CG  PRO C   3      80.065  65.406  12.271  1.00 11.14     0.022 C 
ATOM      7  CD  PRO C   3      80.741  64.070  12.312  1.00 11.16     0.127 C 
ENDROOT
BRANCH   4   8
ATOM      8  C   PRO C   3      78.101  63.346  14.595  1.00  9.70     0.241 C 
ATOM      9  O   PRO C   3      77.916  62.319  13.946  1.00  8.21    -0.271 OA
ATOM     10  N   ILE C   4      77.342  63.698  15.628  1.00 10.20    -0.347 N 
ATOM     11  H   ILE C   4      77.444  64.430  16.068  1.00 10.20     0.163 HD
BRANCH  10  12
ATOM     12  CA  ILE C   4      76.248  62.854  16.112  1.00 11.44     0.166 C 
BRANCH  12  13
ATOM     13  C   ILE C   4      75.122  62.775  15.082  1.00 10.89     0.219 C 
ATOM     14  O   ILE C   4      74.908  63.716  14.327  1.00  9.55    -0.287 OA
ENDBRANCH  12  13
BRANCH  12  15
ATOM     15  CB  ILE C   4      75.716  63.384  17.468  1.00 10.54     0.012 C 
ATOM     16  CG2 ILE C   4      74.383  62.711  17.841  1.00 11.57     0.012 C 
BRANCH  15  17
ATOM     17  CG1 ILE C   4      76.766  63.159  18.562  1.00  9.08     0.002 C 
ATOM     18  CD1 ILE C   4      76.443  63.841  19.889  1.00  9.00     0.005 C 
ENDBRANCH  15  17
ENDBRANCH  12  15
ENDBRANCH  10  12
ENDBRANCH   4   8
BRANCH   1  19
ATOM     19  CA  VAL C   2      82.223  61.934  13.754  1.00  9.18     0.180 C 
BRANCH  19  20
ATOM     20  CB  VAL C   2      81.663  60.772  12.895  1.00  9.29     0.009 C 
ATOM     21  CG1 VAL C   2      82.786  60.057  12.156  1.00 10.46     0.012 C 
ATOM     22  CG2 VAL C   2      80.853  59.787  13.748  1.00 10.38     0.012 C 
ENDBRANCH  19  20
BRANCH  19  23
ATOM     23  N   VAL C   2      83.140  61.448  14.785  1.00 10.44    -0.346 N 
ATOM     24  H   VAL C   2      82.746  61.129  15.480  1.00 10.44     0.163 HD
ATOM     25  C   ALA C   1      84.459  61.499  14.652  1.00  9.27     0.248 C 
ATOM     26  O   ALA C   1      85.021  61.916  13.640  1.00  8.72    -0.271 OA
BRANCH  25  27
ATOM     27  CA  ALA C   1      85.268  60.974  15.829  1.00  8.36     0.270 C 
ATOM     28  CB  ALA C   1      85.198  61.933  17.006  1.00 10.14     0.050 C 
BRANCH  27  29
ATOM     29  N   ALA C   1      86.680  60.766  15.403  1.00  5.51    -0.067 N 
ATOM     30  H1  ALA C   1      87.132  60.365  16.057  1.00  5.51     0.275 HD
ATOM     31  H2  ALA C   1      86.698  60.256  14.674  1.00  5.51     0.275 HD
ATOM     32  H3  ALA C   1      87.055  61.553  15.223  1.00  5.51     0.275 HD
ENDBRANCH  27  29
ENDBRANCH  25  27
ENDBRANCH  19  23
ENDBRANCH   1  19
TORSDOF 10
