USER: ADFR SOLUTION from run 0
USER: SCORE 15.922561 LL:  -4.550 LR: -11.772 RR:   0.000 FEB:  -4.016
USER: RMSD 0.918416
USER: STATUS Locally minimized using BFGS
USER: GENES 28
USER: genes 0 Translation |==|  0.45463 0.59521 0.46468
USER: genes 1 Rotation |==|  0.50100 0.48205 0.49332 0.99963
USER: genes 2 Torsion [C]-N--CA-[C] |==|  0.75055
USER: genes 3 Torsion [N]-CA--C-[N] |==|  0.36244
USER: genes 4 Torsion [C]-N--CA-[C] |==|  0.74298
USER: genes 5 Torsion [N]-CA--C-[N] |==|  0.36666
USER: genes 6 Torsion [C]-N--CA-[C] |==|  0.70390
USER: genes 7 Torsion [N]-CA--CB-[OG] |==|  0.80015
USER: genes 8 Torsion [CA]-CB--OG-[HG] |==|  0.77221
USER: genes 9 Torsion [N]-CA--C-[N] |==|  0.45555
USER: genes 10 Torsion [C]-N--CA-[C] |==|  0.64374
USER: genes 11 Torsion [N]-CA--C-[O] |==|  0.94294
USER: genes 12 Torsion [N]-CA--CB-[CG] |==|  0.52626
USER: genes 13 Torsion [CA]-CB--CG-[CD2] |==|  0.49839
USER: genes 14 Torsion [N]-CA--CB-[CG] |==|  0.90433
USER: genes 15 Torsion [CA]-CB--CG-[CD2] |==|  0.83115
USER: genes 16 Torsion [N]-CA--CB-[CG2] |==|  0.47809
USER: genes 17 Torsion [CA]-CB--CG1-[CD1] |==|  0.47716
USER: genes 18 Torsion [O]-C--CA-[CB] |==|  0.24878
USER: genes 19 Torsion [N]-C--CA-[N] |==|  0.43684
USER: genes 20 Torsion [C]-CA--CB-[CG] |==|  0.84840
USER: genes 21 Torsion [CA]-CB--CG-[CD] |==|  0.53143
USER: genes 22 Torsion [CB]-CG--CD-[NE] |==|  0.49824
USER: genes 23 Torsion [CG]-CD--NE-[CZ] |==|  0.50609
USER: genes 24 Torsion [C]-CA--N-[C] |==|  0.79517
USER: genes 25 Torsion [N]-C--CA-[N] |==|  0.38466
USER: genes 26 Torsion [C]-CA--CB-[CG] |==|  0.45553
USER: genes 27 Torsion [CA]-CB--CG-[ND2] |==|  0.97736
ROOT
ATOM      1  C   PRO C  36      46.124  56.793  12.375  1.00 34.41 LIG 0.24  C 
ATOM      2 O    PRO C  36      46.035  56.099  13.392  1.00 29.89 LIG-0.27  OA
ATOM      3  N   ILE C  37      46.800  56.421  11.291  1.00 30.61 LIG-0.35  N 
ATOM      4 H    ILE C  37      46.838  56.894  10.574  1.00 30.61 LIG 0.16  HD
ENDROOT
BRANCH 3 5
ATOM      5  CA  ILE C  37      47.548  55.173  11.212  1.00 31.48 LIG 0.18  C 
BRANCH 5 6
ATOM      6  C   ILE C  37      48.943  55.510  11.705  1.00 31.96 LIG 0.24  C 
ATOM      7 O    ILE C  37      49.555  56.478  11.250  1.00 31.93 LIG-0.27  OA
ATOM      8  N   LEU C  38      49.450  54.704  12.630  1.00 30.89 LIG-0.35  N 
ATOM      9 H    LEU C  38      49.053  54.001  12.929  1.00 30.89 LIG 0.16  HD
BRANCH 8 10
ATOM     10  CA  LEU C  38      50.754  54.962  13.220  1.00 34.88 LIG 0.18  C 
BRANCH 10 11
ATOM     11  C   LEU C  38      51.960  54.295  12.569  1.00 39.33 LIG 0.24  C 
ATOM     12 O    LEU C  38      51.951  53.098  12.287  1.00 37.11 LIG-0.27  OA
ATOM     13  N   SER C  39      52.996  55.095  12.334  1.00 40.29 LIG-0.34  N 
ATOM     14 H    SER C  39      52.992  55.939  12.502  1.00 40.29 LIG 0.16  HD
BRANCH 13 15
ATOM     15  CA  SER C  39      54.247  54.609  11.766  1.00 42.99 LIG 0.20  C 
BRANCH 15 16
ATOM     16  CB  SER C  39      54.752  55.546  10.662  1.00 41.70 LIG 0.20  C 
BRANCH 16 17
ATOM     17 OG   SER C  39      53.958  55.452   9.491  1.00 43.46 LIG-0.40  OA
ATOM     18 HG   SER C  39      54.204  54.788   9.038  1.00 43.46 LIG 0.21  HD
ENDBRANCH 16 17
ENDBRANCH 15 16
BRANCH 15 19
ATOM     19  C   SER C  39      55.229  54.615  12.933  1.00 43.99 LIG 0.24  C 
ATOM     20  N   LEU C  40      56.351  53.918  12.787  1.00 44.48 LIG-0.34  N 
ATOM     21 H    LEU C  40      56.554  53.469  12.082  1.00 44.48 LIG 0.16  HD
ATOM     22 O    SER C  39      54.964  55.245  13.957  1.00 44.86 LIG-0.27  OA
BRANCH 20 23
ATOM     23  CA  LEU C  40      57.348  53.867  13.850  1.00 50.99 LIG 0.18  C 
BRANCH 23 24
ATOM     24  C   LEU C  40      58.731  54.231  13.309  1.00 53.79 LIG 0.20  C 
ATOM     25 O    LEU C  40      58.926  54.129  12.078  1.00 58.34 LIG-0.65  OA
ATOM     26 OXT  LEU C  40      59.605  54.603  14.119  1.00 54.01 LIG-0.65  OA
ENDBRANCH 23 24
BRANCH 23 27
ATOM     27  CB  LEU C  40      57.376  52.464  14.464  1.00 48.71 LIG 0.04  C 
BRANCH 27 28
ATOM     28  CG  LEU C  40      58.189  52.237  15.739  1.00 48.98 LIG-0.02  C 
ATOM     29  CD2 LEU C  40      58.053  50.787  16.161  1.00 51.62 LIG 0.01  C 
ATOM     30  CD1 LEU C  40      57.695  53.157  16.846  1.00 51.55 LIG 0.01  C 
ENDBRANCH 27 28
ENDBRANCH 23 27
ENDBRANCH 20 23
ENDBRANCH 15 19
ENDBRANCH 13 15
ENDBRANCH 10 11
BRANCH 10 31
ATOM     31  CB  LEU C  38      50.716  54.590  14.700  1.00 30.69 LIG 0.04  C 
BRANCH 31 32
ATOM     32  CG  LEU C  38      49.386  54.843  15.413  1.00 36.50 LIG-0.02  C 
ATOM     33  CD2 LEU C  38      49.042  56.330  15.360  1.00 35.12 LIG 0.01  C 
ATOM     34  CD1 LEU C  38      49.488  54.364  16.856  1.00 37.99 LIG 0.01  C 
ENDBRANCH 31 32
ENDBRANCH 10 31
ENDBRANCH 8 10
ENDBRANCH 5 6
BRANCH 5 35
ATOM     35  CB  ILE C  37      47.633  54.674   9.763  1.00 37.32 LIG 0.01  C 
ATOM     36  CG2 ILE C  37      48.576  53.484   9.679  1.00 35.15 LIG 0.01  C 
BRANCH 35 37
ATOM     37  CG1 ILE C  37      46.233  54.314   9.265  1.00 33.54 LIG 0.00  C 
ATOM     38  CD1 ILE C  37      46.174  53.998   7.788  1.00 46.98 LIG 0.01  C 
ENDBRANCH 35 37
ENDBRANCH 5 35
ENDBRANCH 3 5
BRANCH 1 39
ATOM     39  CA  PRO C  36      45.431  58.151  12.281  1.00 32.35 LIG 0.18  C 
ATOM     40  CB  PRO C  36      46.319  59.291  12.783  1.00 32.18 LIG 0.04  C 
ATOM     41  CG  PRO C  36      45.908  59.437  14.216  1.00 32.63 LIG 0.02  C 
ATOM     42  CD  PRO C  36      44.405  59.298  14.155  1.00 32.64 LIG 0.13  C 
ATOM     43  N   PRO C  36      44.229  58.274  13.110  1.00 32.06 LIG-0.34  N 
ATOM     44  C   ARG C  35      43.148  57.538  12.830  1.00 32.74 LIG 0.24  C 
ATOM     45 O    ARG C  35      43.125  56.755  11.883  1.00 32.93 LIG-0.27  OA
BRANCH 44 46
ATOM     46  CA  ARG C  35      41.932  57.712  13.728  1.00 37.56 LIG 0.18  C 
BRANCH 46 47
ATOM     47  CB  ARG C  35      42.094  56.875  14.997  1.00 40.42 LIG 0.04  C 
BRANCH 47 48
ATOM     48  CG  ARG C  35      42.369  55.419  14.729  1.00 36.41 LIG 0.02  C 
BRANCH 48 49
ATOM     49  CD  ARG C  35      42.248  54.587  15.995  1.00 39.80 LIG 0.14  C 
BRANCH 49 50
ATOM     50  NE  ARG C  35      42.503  53.177  15.717  1.00 32.60 LIG-0.23  N 
ATOM     51 HE   ARG C  35      42.717  52.960  14.913  1.00 32.60 LIG 0.18  HD
ATOM     52  CZ  ARG C  35      42.427  52.206  16.620  1.00 32.33 LIG 0.67  C 
ATOM     53  NH2 ARG C  35      42.104  52.486  17.874  1.00 28.83 LIG-0.23  N 
ATOM     54  NH1 ARG C  35      42.678  50.953  16.264  1.00 30.81 LIG-0.23  N 
ATOM     55 2HH2 ARG C  35      42.056  51.855  18.457  1.00 28.83 LIG 0.17  HD
ATOM     56 1HH2 ARG C  35      41.943  53.298  18.106  1.00 28.83 LIG 0.17  HD
ATOM     57 1HH1 ARG C  35      42.889  50.772  15.450  1.00 30.81 LIG 0.17  HD
ATOM     58 2HH1 ARG C  35      42.630  50.323  16.846  1.00 30.81 LIG 0.17  HD
ENDBRANCH 49 50
ENDBRANCH 48 49
ENDBRANCH 47 48
ENDBRANCH 46 47
BRANCH 46 59
ATOM     59  N   ARG C  35      40.755  57.285  12.986  1.00 36.73 LIG-0.35  N 
ATOM     60  C   ASN C  34      40.261  58.041  12.012  1.00 40.82 LIG 0.26  C 
ATOM     61 O    ASN C  34      40.754  59.123  11.696  1.00 33.40 LIG-0.27  OA
ATOM     62 H    ARG C  35      40.426  56.529  13.231  1.00 36.73 LIG 0.16  HD
BRANCH 60 63
ATOM     63  CA  ASN C  34      39.035  57.502  11.286  1.00 41.08 LIG 0.41  C 
ATOM     64  N   ASN C  34      38.061  58.604  11.046  1.00 44.32 LIG 0.61  N 
BRANCH 63 65
ATOM     65  CB  ASN C  34      39.478  56.877   9.958  1.00 43.19 LIG 0.15  C 
BRANCH 65 66
ATOM     66  CG  ASN C  34      38.416  55.978   9.341  1.00 48.82 LIG 0.22  C 
ATOM     67  ND2 ASN C  34      37.344  55.718  10.086  1.00 46.77 LIG-0.37  N 
ATOM     68 21HD ASN C  34      36.717  55.218   9.777  1.00 46.77 LIG 0.16  HD
ATOM     69 22HD ASN C  34      37.280  56.049  10.877  1.00 46.77 LIG 0.16  HD
ATOM     70 OD1  ASN C  34      38.558  55.529   8.204  1.00 54.33 LIG-0.27  OA
ENDBRANCH 65 66
ENDBRANCH 63 65
ENDBRANCH 60 63
ENDBRANCH 46 59
ENDBRANCH 44 46
ENDBRANCH 1 39
TORSDOF 26
