REMARK  11 active torsions:
REMARK  status: ('A' for Active; 'I' for Inactive)
REMARK    1  A    between atoms: CA_2  and  C_3 
REMARK       I    between atoms: C_3  and  N_5 
REMARK    2  A    between atoms: N_5  and  CA_6 
REMARK    3  A    between atoms: CA_6  and  C_7 
REMARK    4  A    between atoms: CA_6  and  CB_9 
REMARK       I    between atoms: C_7  and  N_17 
REMARK    5  A    between atoms: CB_9  and  CG_10 
REMARK    6  A    between atoms: N_17  and  CA_18 
REMARK    7  A    between atoms: CA_18  and  CB_21 
REMARK    8  A    between atoms: CA_18  and  C_19 
REMARK       I    between atoms: C_19  and  N_27 
REMARK    9  A    between atoms: CB_21  and  CG_22 
REMARK   10  A    between atoms: CG_22  and  CD_23 
REMARK   11  A    between atoms: CA_28  and  C_29 
ROOT
ATOM      1  C   PHE B 724      42.177  37.709  85.353  1.00 20.38     0.241 C 
ATOM      2  O   PHE B 724      42.595  37.417  84.234  1.00 19.94    -0.271 OA
ATOM      3  N   GLU B 725      40.966  37.378  85.779  1.00 20.55    -0.346 N 
ATOM      4  H   GLU B 725      40.687  37.506  86.582  1.00 20.55     0.163 HD
ENDROOT
BRANCH   3   5
ATOM      5  CA  GLU B 725      39.993  36.756  84.895  1.00 20.80     0.177 C 
BRANCH   5   6
ATOM      6  CB  GLU B 725      38.854  36.143  85.722  1.00 21.18     0.045 C 
BRANCH   6   7
ATOM      7  CG  GLU B 725      37.769  37.120  86.161  1.00 23.39     0.116 C 
BRANCH   7   8
ATOM      8  CD  GLU B 725      38.130  37.915  87.409  1.00 26.43     0.172 C 
ATOM      9  OE1 GLU B 725      39.203  37.672  88.010  1.00 27.49    -0.648 OA
ATOM     10  OE2 GLU B 725      37.322  38.790  87.799  1.00 27.53    -0.648 OA
ENDBRANCH   7   8
ENDBRANCH   6   7
ENDBRANCH   5   6
BRANCH   5  11
ATOM     11  C   GLU B 725      39.488  37.823  83.909  1.00 20.17     0.243 C 
ATOM     12  N   PRO B 726      38.916  37.403  82.777  1.00 19.83    -0.336 N 
ATOM     13  CD  PRO B 726      38.755  36.017  82.297  1.00 19.46     0.127 C 
ATOM     14  CA  PRO B 726      38.321  38.363  81.852  1.00 19.64     0.188 C 
ATOM     15  CG  PRO B 726      38.091  36.166  80.954  1.00 19.20     0.022 C 
ATOM     16  CB  PRO B 726      38.244  37.581  80.540  1.00 19.97     0.038 C 
ATOM     17  O   GLU B 725      39.620  39.029  84.183  1.00 19.41    -0.271 OA
BRANCH  14  18
ATOM     18  C   PRO B 726      36.936  38.698  82.394  1.00 19.81     0.196 C 
ATOM     19  OXT PRO B 726      36.839  39.673  83.162  1.00 20.16    -0.646 OA
ATOM     20  O   PRO B 726      35.977  37.974  82.095  1.00 18.50    -0.646 OA
ENDBRANCH  14  18
ENDBRANCH   5  11
ENDBRANCH   3   5
BRANCH   1  21
ATOM     21  CA  PHE B 724      43.042  38.486  86.347  1.00 20.36     0.180 C 
BRANCH  21  22
ATOM     22  N   PHE B 724      42.521  38.389  87.715  1.00 20.75    -0.346 N 
ATOM     23  C   GLY B 723      42.272  39.467  88.451  1.00 21.06     0.252 C 
ATOM     24  O   GLY B 723      42.447  40.615  88.037  1.00 21.29    -0.271 OA
ATOM     25  H   PHE B 724      42.395  37.584  87.989  1.00 20.75     0.163 HD
BRANCH  23  26
ATOM     26  CA  GLY B 723      41.746  39.219  89.857  1.00 21.22     0.466 C 
ATOM     27  N   GLY B 723      42.828  38.917  90.840  1.00 21.24     0.609 N 
ENDBRANCH  23  26
ENDBRANCH  21  22
BRANCH  21  28
ATOM     28  CB  PHE B 724      44.496  38.013  86.280  1.00 20.22     0.073 C 
BRANCH  28  29
ATOM     29  CG  PHE B 724      44.776  36.794  87.105  1.00 20.05    -0.056 A 
ATOM     30  CD1 PHE B 724      44.529  35.528  86.599  1.00 20.54     0.007 A 
ATOM     31  CE1 PHE B 724      44.782  34.394  87.368  1.00 21.50     0.001 A 
ATOM     32  CZ  PHE B 724      45.280  34.530  88.663  1.00 21.54     0.000 A 
ATOM     33  CE2 PHE B 724      45.530  35.793  89.176  1.00 21.44     0.001 A 
ATOM     34  CD2 PHE B 724      45.275  36.918  88.397  1.00 20.20     0.007 A 
ENDBRANCH  28  29
ENDBRANCH  21  28
ENDBRANCH   1  21
TORSDOF 11
