USER: ADFR SOLUTION from run 0
USER: SCORE 11.165134 LL:  -3.616 LR:  -9.876 RR:   0.000 FEB:  -3.612
USER: RMSD 0.988850
USER: STATUS Locally minimized using BFGS
USER: GENES 23
USER: genes 0 Translation |==|  0.42991 0.52094 0.68170
USER: genes 1 Rotation |==|  0.49466 0.48739 0.50262 0.99981
USER: genes 2 Torsion [C]-CA--N-[C] |==|  0.81533
USER: genes 3 Torsion [N]-C--CA-[CB] |==|  0.33263
USER: genes 4 Torsion [N]-C--CA-[N] |==|  0.37485
USER: genes 5 Torsion [C]-CA--N-[C] |==|  0.65520
USER: genes 6 Torsion [N]-C--CA-[N] |==|  0.43950
USER: genes 7 Torsion [C]-CA--CB-[OG] |==|  0.77268
USER: genes 8 Torsion [CA]-CB--OG-[HG] |==|  0.93196
USER: genes 9 Torsion [C]-CA--CB-[CG] |==|  0.20373
USER: genes 10 Torsion [CA]-CB--CG-[CD2] |==|  0.22570
USER: genes 11 Torsion [N]-CA--CB-[CG] |==|  0.49155
USER: genes 12 Torsion [CA]-CB--CG-[CD] |==|  0.45963
USER: genes 13 Torsion [CB]-CG--CD-[NE2] |==|  0.42743
USER: genes 14 Torsion [N]-CA--C-[N] |==|  0.81111
USER: genes 15 Torsion [C]-N--CA-[CB] |==|  0.27801
USER: genes 16 Torsion [N]-CA--C-[N] |==|  0.50889
USER: genes 17 Torsion [C]-N--CA-[C] |==|  0.68497
USER: genes 18 Torsion [N]-CA--C-[O] |==|  0.95283
USER: genes 19 Torsion [N]-CA--CB-[CG2] |==|  0.19471
USER: genes 20 Torsion [CA]-CB--OG1-[HG1] |==|  0.50096
USER: genes 21 Torsion [N]-CA--CB-[CG] |==|  0.80087
USER: genes 22 Torsion [CA]-CB--CG-[OD1] |==|  0.83015
ROOT
ATOM      1  CA  GLN M   5      34.145  14.198  -6.635  1.00 40.28 LIG 0.18  C 
ENDROOT
BRANCH 1 2
ATOM      2  N   GLN M   5      33.690  14.813  -7.858  1.00 45.46 LIG-0.35  N 
ATOM      3 H    GLN M   5      33.107  14.367  -8.306  1.00 45.46 LIG 0.16  HD
ATOM      4  C   PRO M   4      34.189  16.007  -8.207  1.00 50.59 LIG 0.24  C 
ATOM      5 O    PRO M   4      34.968  16.605  -7.447  1.00 50.33 LIG-0.27  OA
BRANCH 4 6
ATOM      6  CA  PRO M   4      33.773  16.646  -9.530  1.00 53.72 LIG 0.18  C 
ATOM      7  N   PRO M   4      32.841  15.896 -10.376  1.00 55.45 LIG-0.34  N 
ATOM      8  CD  PRO M   4      31.683  16.739 -10.696  1.00 56.03 LIG 0.13  C 
ATOM      9  C   HIS M   3      33.122  14.702 -10.944  1.00 54.96 LIG 0.24  C 
ATOM     10  CG  PRO M   4      31.622  17.674  -9.515  1.00 55.72 LIG 0.02  C 
ATOM     11  CB  PRO M   4      33.087  17.998  -9.350  1.00 52.77 LIG 0.04  C 
ATOM     12 O    HIS M   3      34.243  14.180 -10.849  1.00 54.31 LIG-0.27  OA
BRANCH 9 13
ATOM     13  CA  HIS M   3      32.041  13.951 -11.727  1.00 53.95 LIG 0.18  C 
BRANCH 13 14
ATOM     14  N   HIS M   3      32.645  13.474 -12.956  1.00 55.94 LIG-0.34  N 
ATOM     15  C   SER M   2      32.128  13.789 -14.138  0.19 53.43 LIG 0.26  C 
ATOM     16 O    SER M   2      31.040  14.369 -14.252  0.19 53.78 LIG-0.27  OA
ATOM     17 H    HIS M   3      33.345  12.985 -12.847  1.00 55.94 LIG 0.16  HD
BRANCH 15 18
ATOM     18  CA  SER M   2      32.850  13.373 -15.411  0.19 52.30 LIG 0.42  C 
ATOM     19  N   SER M   2      31.800  13.395 -16.402  0.19 52.36 LIG 0.62  N 
BRANCH 18 20
ATOM     20  CB  SER M   2      33.898  14.395 -15.836  0.19 51.64 LIG 0.21  C 
BRANCH 20 21
ATOM     21 OG   SER M   2      33.229  15.443 -16.541  0.19 50.47 LIG-0.40  OA
ATOM     22 HG   SER M   2      32.511  15.150 -16.866  0.19 50.47 LIG 0.21  HD
ENDBRANCH 20 21
ENDBRANCH 18 20
ENDBRANCH 15 18
ENDBRANCH 13 14
BRANCH 13 23
ATOM     23  CB  HIS M   3      31.521  12.789 -10.889  1.00 50.96 LIG 0.10  C 
BRANCH 23 24
ATOM     24  CG  HIS M   3      30.645  13.318  -9.764  1.00 47.24 LIG 0.06  A 
ATOM     25  CD2 HIS M   3      29.333  13.678  -9.879  1.00 45.19 LIG 0.14  A 
ATOM     26 NE2  HIS M   3      29.092  14.150  -8.691  1.00 45.41 LIG-0.25  NA
ATOM     27  CE1 HIS M   3      30.165  14.078  -7.928  1.00 46.27 LIG 0.23  A 
ATOM     28 ND1  HIS M   3      31.171  13.553  -8.583  1.00 45.18 LIG-0.24  NA
ENDBRANCH 23 24
ENDBRANCH 13 23
ENDBRANCH 9 13
ENDBRANCH 4 6
ENDBRANCH 1 2
BRANCH 1 29
ATOM     29  CB  GLN M   5      33.392  12.935  -6.328  1.00 37.25 LIG 0.04  C 
BRANCH 29 30
ATOM     30  CG  GLN M   5      33.941  12.260  -5.069  1.00 28.05 LIG 0.10  C 
BRANCH 30 31
ATOM     31  CD  GLN M   5      32.996  11.204  -4.546  1.00 28.89 LIG 0.21  C 
ATOM     32  NE2 GLN M   5      33.530  10.211  -3.836  1.00 21.10 LIG-0.37  N 
ATOM     33 22HE GLN M   5      33.024   9.601  -3.503  1.00 21.10 LIG 0.16  HD
ATOM     34 21HE GLN M   5      34.380  10.180  -3.711  1.00 21.10 LIG 0.16  HD
ATOM     35 OE1  GLN M   5      31.780  11.295  -4.755  1.00 23.17 LIG-0.27  OA
ENDBRANCH 30 31
ENDBRANCH 29 30
ENDBRANCH 1 29
BRANCH 1 36
ATOM     36  C   GLN M   5      35.603  13.846  -6.797  1.00 41.58 LIG 0.24  C 
ATOM     37  N   ASN M   6      35.935  12.885  -7.660  1.00 44.37 LIG-0.35  N 
ATOM     38 H    ASN M   6      35.377  12.482  -8.175  1.00 44.37 LIG 0.16  HD
ATOM     39 O    GLN M   5      36.441  14.447  -6.130  1.00 41.62 LIG-0.27  OA
BRANCH 37 40
ATOM     40  CA  ASN M   6      37.316  12.441  -7.789  1.00 43.99 LIG 0.18  C 
BRANCH 40 41
ATOM     41  C   ASN M   6      37.640  12.232  -9.250  1.00 43.58 LIG 0.24  C 
ATOM     42  N   THR M   7      38.857  11.761  -9.482  0.00 42.61 LIG-0.34  N 
ATOM     43 H    THR M   7      39.415  11.585  -8.851  0.00 42.61 LIG 0.16  HD
ATOM     44 O    ASN M   6      36.805  12.518 -10.113  1.00 43.76 LIG-0.27  OA
BRANCH 42 45
ATOM     45  CA  THR M   7      39.380  11.493 -10.794  0.00 41.90 LIG 0.21  C 
BRANCH 45 46
ATOM     46  C   THR M   7      39.581   9.976 -10.922  0.00 41.61 LIG 0.20  C 
ATOM     47 O    THR M   7      39.606   9.263  -9.914  0.00 41.59 LIG-0.65  OA
ATOM     48 OXT  THR M   7      39.714   9.499 -12.043  0.00 41.57 LIG-0.65  OA
ENDBRANCH 45 46
BRANCH 45 49
ATOM     49  CB  THR M   7      40.705  12.302 -10.930  0.00 41.89 LIG 0.15  C 
ATOM     50  CG2 THR M   7      41.852  11.773 -10.066  0.00 41.51 LIG 0.04  C 
BRANCH 49 51
ATOM     51 OG1  THR M   7      41.063  12.248 -12.304  0.00 41.42 LIG-0.39  OA
ATOM     52 HG1  THR M   7      41.780  12.671 -12.424  0.00 41.42 LIG 0.21  HD
ENDBRANCH 49 51
ENDBRANCH 45 49
ENDBRANCH 42 45
ENDBRANCH 40 41
BRANCH 40 53
ATOM     53  CB  ASN M   6      37.533  11.134  -7.009  1.00 43.29 LIG 0.14  C 
BRANCH 53 54
ATOM     54  CG  ASN M   6      37.538  11.231  -5.472  1.00 43.53 LIG 0.22  C 
ATOM     55 OD1  ASN M   6      38.345  11.899  -4.824  1.00 39.33 LIG-0.27  OA
ATOM     56  ND2 ASN M   6      36.663  10.537  -4.760  1.00 45.48 LIG-0.37  N 
ATOM     57 22HD ASN M   6      36.074  10.051  -5.156  1.00 45.48 LIG 0.16  HD
ATOM     58 21HD ASN M   6      36.684  10.572  -3.900  1.00 45.48 LIG 0.16  HD
ENDBRANCH 53 54
ENDBRANCH 40 53
ENDBRANCH 37 40
ENDBRANCH 1 36
TORSDOF 21
