USER: ADFR SOLUTION from run 0
USER: SCORE 17.559157 LL:  -4.367 LR: -13.628 RR:   0.000 FEB:  -7.364
USER: RMSD 0.609331
USER: STATUS Locally minimized using BFGS
USER: GENES 23
USER: genes 0 Translation |==|  0.54121 0.51061 0.47991
USER: genes 1 Rotation |==|  0.51723 0.51287 0.52946 0.99867
USER: genes 2 Torsion [C]-CA--N-[C] |==|  0.72339
USER: genes 3 Torsion [N]-C--CA-[N] |==|  0.38135
USER: genes 4 Torsion [C]-CA--CB-[CG] |==|  0.52187
USER: genes 5 Torsion [CA]-CB--CG-[CD] |==|  0.52022
USER: genes 6 Torsion [CB]-CG--CD-[OE2] |==|  0.36835
USER: genes 7 Torsion [C]-CA--N-[C] |==|  0.73620
USER: genes 8 Torsion [N]-C--CA-[N] |==|  0.06577
USER: genes 9 Torsion [C]-CA--CB-[CG] |==|  0.44029
USER: genes 10 Torsion [CA]-CB--CG-[OD1] |==|  0.00539
USER: genes 11 Torsion [N]-CA--C-[N] |==|  0.44149
USER: genes 12 Torsion [C]-N--CA-[C] |==|  0.68336
USER: genes 13 Torsion [N]-CA--C-[N] |==|  0.32205
USER: genes 14 Torsion [C]-N--CA-[C] |==|  0.71316
USER: genes 15 Torsion [N]-CA--C-[O] |==|  0.94276
USER: genes 16 Torsion [N]-CA--CB-[CG] |==|  0.82279
USER: genes 17 Torsion [CA]-CB--CG-[CD2] |==|  0.47085
USER: genes 18 Torsion [N]-CA--CB-[CG] |==|  0.47944
USER: genes 19 Torsion [CA]-CB--CG-[CD2] |==|  0.57179
USER: genes 20 Torsion [CE1]-CZ--OH-[HH] |==|  0.00782
USER: genes 21 Torsion [N]-CA--CB-[CG] |==|  0.81526
USER: genes 22 Torsion [CA]-CB--CG-[CD1] |==|  0.68839
ROOT
ATOM      1  CA  PHE S   4      44.663  54.149  53.308  1.00 21.41 LIG 0.18  C 
ENDROOT
BRANCH 1 2
ATOM      2  N   PHE S   4      44.366  53.685  54.656  1.00 22.57 LIG-0.35  N 
ATOM      3 H    PHE S   4      44.528  52.849  54.782  1.00 22.57 LIG 0.16  HD
ATOM      4  C   GLU S   3      43.889  54.491  55.604  1.00 26.46 LIG 0.24  C 
ATOM      5 O    GLU S   3      43.654  55.690  55.418  1.00 26.71 LIG-0.27  OA
BRANCH 4 6
ATOM      6  CA  GLU S   3      43.569  53.838  56.938  1.00 28.27 LIG 0.18  C 
BRANCH 6 7
ATOM      7  CB  GLU S   3      42.053  53.731  56.961  1.00 28.84 LIG 0.04  C 
BRANCH 7 8
ATOM      8  CG  GLU S   3      41.410  53.289  58.231  1.00 31.31 LIG 0.12  C 
BRANCH 8 9
ATOM      9  CD  GLU S   3      39.934  53.075  58.000  1.00 32.39 LIG 0.17  C 
ATOM     10 OE2  GLU S   3      39.435  52.033  58.425  1.00 38.97 LIG-0.65  OA
ATOM     11 OE1  GLU S   3      39.281  53.948  57.367  1.00 34.38 LIG-0.65  OA
ENDBRANCH 8 9
ENDBRANCH 7 8
ENDBRANCH 6 7
BRANCH 6 12
ATOM     12  N   GLU S   3      44.050  54.719  58.022  1.00 29.65 LIG-0.35  N 
ATOM     13 H    GLU S   3      43.489  55.334  58.241  1.00 29.65 LIG 0.16  HD
ATOM     14  C   ASN S   2      45.229  54.576  58.603  1.00 31.60 LIG 0.26  C 
ATOM     15 O    ASN S   2      45.938  53.588  58.467  1.00 31.89 LIG-0.27  OA
BRANCH 14 16
ATOM     16  CA  ASN S   2      45.680  55.768  59.466  1.00 33.47 LIG 0.41  C 
ATOM     17  N   ASN S   2      44.562  56.612  59.963  1.00 34.35 LIG 0.61  N 
BRANCH 16 18
ATOM     18  CB  ASN S   2      46.542  55.345  60.641  1.00 34.36 LIG 0.15  C 
BRANCH 18 19
ATOM     19  CG  ASN S   2      47.394  56.497  61.160  1.00 36.60 LIG 0.22  C 
ATOM     20 OD1  ASN S   2      47.320  57.652  60.658  1.00 40.55 LIG-0.27  OA
ATOM     21  ND2 ASN S   2      48.209  56.203  62.164  1.00 40.03 LIG-0.37  N 
ATOM     22 22HD ASN S   2      48.231  55.403  62.479  1.00 40.03 LIG 0.16  HD
ATOM     23 21HD ASN S   2      48.715  56.812  62.499  1.00 40.03 LIG 0.16  HD
ENDBRANCH 18 19
ENDBRANCH 16 18
ENDBRANCH 14 16
ENDBRANCH 6 12
ENDBRANCH 4 6
ENDBRANCH 1 2
BRANCH 1 24
ATOM     24  C   PHE S   4      43.527  53.789  52.352  1.00 20.14 LIG 0.24  C 
ATOM     25  N   TYR S   5      43.470  54.512  51.241  1.00 19.70 LIG-0.35  N 
ATOM     26 H    TYR S   5      43.991  55.178  51.081  1.00 19.70 LIG 0.16  HD
ATOM     27 O    PHE S   4      42.761  52.863  52.593  1.00 18.43 LIG-0.27  OA
BRANCH 25 28
ATOM     28  CA  TYR S   5      42.508  54.243  50.174  1.00 19.15 LIG 0.18  C 
BRANCH 28 29
ATOM     29  C   TYR S   5      43.317  53.795  48.967  1.00 19.17 LIG 0.24  C 
ATOM     30  N   PHE S   6      43.107  52.547  48.558  1.00 19.00 LIG-0.34  N 
ATOM     31 H    PHE S   6      42.565  52.008  48.952  1.00 19.00 LIG 0.16  HD
ATOM     32 O    TYR S   5      44.147  54.542  48.442  1.00 19.39 LIG-0.27  OA
BRANCH 30 33
ATOM     33  CA  PHE S   6      43.775  51.962  47.402  1.00 19.20 LIG 0.19  C 
BRANCH 33 34
ATOM     34  C   PHE S   6      42.887  51.876  46.168  1.00 19.81 LIG 0.20  C 
ATOM     35 O    PHE S   6      41.649  51.912  46.287  1.00 18.53 LIG-0.65  OA
ATOM     36 OXT  PHE S   6      43.484  51.751  45.066  1.00 20.48 LIG-0.65  OA
ENDBRANCH 33 34
BRANCH 33 37
ATOM     37  CB  PHE S   6      44.296  50.570  47.768  1.00 19.81 LIG 0.07  C 
BRANCH 37 38
ATOM     38  CG  PHE S   6      45.370  50.576  48.862  1.00 21.45 LIG-0.06  A 
ATOM     39  CD2 PHE S   6      45.780  49.396  49.451  1.00 24.56 LIG 0.01  A 
ATOM     40  CE2 PHE S   6      46.759  49.396  50.455  1.00 25.95 LIG 0.00  A 
ATOM     41  CZ  PHE S   6      47.344  50.577  50.824  1.00 23.46 LIG 0.00  A 
ATOM     42  CE1 PHE S   6      46.968  51.754  50.228  1.00 24.74 LIG 0.00  A 
ATOM     43  CD1 PHE S   6      46.000  51.762  49.261  1.00 22.31 LIG 0.01  A 
ENDBRANCH 37 38
ENDBRANCH 33 37
ENDBRANCH 30 33
ENDBRANCH 28 29
BRANCH 28 44
ATOM     44  CB  TYR S   5      41.697  55.518  49.881  1.00 19.45 LIG 0.07  C 
BRANCH 44 45
ATOM     45  CG  TYR S   5      40.774  55.481  48.692  1.00 19.88 LIG-0.06  A 
ATOM     46  CD1 TYR S   5      40.241  54.292  48.206  1.00 18.15 LIG 0.01  A 
ATOM     47  CE1 TYR S   5      39.422  54.274  47.107  1.00 18.26 LIG 0.04  A 
ATOM     48  CZ  TYR S   5      39.096  55.467  46.480  1.00 18.69 LIG 0.07  A 
ATOM     49  CE2 TYR S   5      39.592  56.648  46.948  1.00 19.96 LIG 0.04  A 
ATOM     50  CD2 TYR S   5      40.437  56.656  48.046  1.00 21.89 LIG 0.01  A 
BRANCH 48 51
ATOM     51 OH   TYR S   5      38.278  55.473  45.383  1.00 21.24 LIG-0.36  OA
ATOM     52 HH   TYR S   5      38.017  54.690  45.224  1.00 21.24 LIG 0.22  HD
ENDBRANCH 48 51
ENDBRANCH 44 45
ENDBRANCH 28 44
ENDBRANCH 25 28
ENDBRANCH 1 24
BRANCH 1 53
ATOM     53  CB  PHE S   4      45.940  53.485  52.839  1.00 21.76 LIG 0.07  C 
BRANCH 53 54
ATOM     54  CG  PHE S   4      47.146  53.912  53.606  1.00 21.60 LIG-0.06  A 
ATOM     55  CD2 PHE S   4      47.294  53.561  54.929  1.00 23.13 LIG 0.01  A 
ATOM     56  CE2 PHE S   4      48.375  53.976  55.646  1.00 23.23 LIG 0.00  A 
ATOM     57  CZ  PHE S   4      49.365  54.681  55.033  1.00 22.51 LIG 0.00  A 
ATOM     58  CE1 PHE S   4      49.239  55.047  53.710  1.00 22.53 LIG 0.00  A 
ATOM     59  CD1 PHE S   4      48.133  54.665  52.993  1.00 22.71 LIG 0.01  A 
ENDBRANCH 53 54
ENDBRANCH 1 53
TORSDOF 21
