REMARK  11 active torsions:
REMARK  status: ('A' for Active; 'I' for Inactive)
REMARK    1  A    between atoms: CA_2  and  C_3 
REMARK       I    between atoms: C_3  and  N_6 
REMARK    2  A    between atoms: N_6  and  CA_7 
REMARK    3  A    between atoms: CA_7  and  CB_10 
REMARK    4  A    between atoms: CA_7  and  C_8 
REMARK       I    between atoms: C_8  and  N_14 
REMARK    5  A    between atoms: CA_15  and  C_16 
REMARK       I    between atoms: C_16  and  N_21 
REMARK    6  A    between atoms: N_21  and  CA_22 
REMARK    7  A    between atoms: CA_22  and  C_23 
REMARK    8  A    between atoms: CA_22  and  CB_25 
REMARK       I    between atoms: C_23  and  N_30 
REMARK    9  A    between atoms: CB_25  and  CG1_26 
REMARK   10  A    between atoms: N_30  and  CA_31 
REMARK   11  A    between atoms: CA_31  and  C_32 
ROOT
ATOM      1  C   VAL J 902     119.760  77.768 -20.381  1.00 24.50     0.243 C 
ATOM      2  O   VAL J 902     120.640  78.147 -19.610  1.00 24.73    -0.271 OA
ATOM      3  N   PRO J 903     118.543  77.410 -19.942  1.00 25.43    -0.337 N 
ATOM      4  CA  PRO J 903     118.237  77.452 -18.507  1.00 29.14     0.179 C 
ATOM      5  CB  PRO J 903     116.722  77.241 -18.464  1.00 28.66     0.037 C 
ATOM      6  CG  PRO J 903     116.438  76.482 -19.717  1.00 26.54     0.022 C 
ATOM      7  CD  PRO J 903     117.328  77.144 -20.730  1.00 24.21     0.127 C 
ENDROOT
BRANCH   4   8
ATOM      8  C   PRO J 903     118.982  76.417 -17.670  1.00 32.58     0.241 C 
ATOM      9  O   PRO J 903     119.319  75.330 -18.149  1.00 31.49    -0.271 OA
ATOM     10  N   ILE J 904     119.238  76.774 -16.415  1.00 35.09    -0.346 N 
ATOM     11  H   ILE J 904     119.018  77.536 -16.083  1.00 35.09     0.163 HD
BRANCH  10  12
ATOM     12  CA  ILE J 904     119.925  75.893 -15.476  1.00 39.23     0.180 C 
BRANCH  12  13
ATOM     13  C   ILE J 904     118.867  75.107 -14.706  1.00 42.17     0.241 C 
ATOM     14  O   ILE J 904     118.083  75.691 -13.955  1.00 43.90    -0.271 OA
ATOM     15  N   ALA J 905     118.845  73.791 -14.886  1.00 45.29    -0.348 N 
ATOM     16  H   ALA J 905     119.382  73.364 -15.404  1.00 45.29     0.163 HD
BRANCH  15  17
ATOM     17  CA  ALA J 905     117.871  72.953 -14.190  1.00 47.78     0.158 C 
ATOM     18  CB  ALA J 905     117.685  71.631 -14.936  1.00 47.43     0.041 C 
BRANCH  17  19
ATOM     19  C   ALA J 905     118.309  72.688 -12.749  1.00 48.37     0.219 C 
ATOM     20  O   ALA J 905     118.099  73.521 -11.861  1.00 49.70    -0.287 OA
ENDBRANCH  17  19
ENDBRANCH  15  17
ENDBRANCH  12  13
BRANCH  12  21
ATOM     21  CB  ILE J 904     120.739  76.693 -14.444  1.00 39.00     0.013 C 
ATOM     22  CG2 ILE J 904     121.555  75.742 -13.581  1.00 39.92     0.012 C 
BRANCH  21  23
ATOM     23  CG1 ILE J 904     121.648  77.699 -15.146  1.00 38.87     0.002 C 
ATOM     24  CD1 ILE J 904     122.306  78.668 -14.192  1.00 39.28     0.005 C 
ENDBRANCH  21  23
ENDBRANCH  12  21
ENDBRANCH  10  12
ENDBRANCH   4   8
BRANCH   1  25
ATOM     25  CA  VAL J 902     120.014  77.698 -21.888  1.00 23.95     0.180 C 
BRANCH  25  26
ATOM     26  CB  VAL J 902     120.485  76.266 -22.288  1.00 25.73     0.009 C 
ATOM     27  CG1 VAL J 902     119.636  75.216 -21.628  1.00 28.26     0.012 C 
ATOM     28  CG2 VAL J 902     120.404  76.105 -23.800  1.00 25.58     0.012 C 
ENDBRANCH  25  26
BRANCH  25  29
ATOM     29  N   VAL J 902     120.989  78.675 -22.350  1.00 22.50    -0.345 N 
ATOM     30  C   ALA J 901     120.822  79.309 -23.505  1.00 20.52     0.257 C 
ATOM     31  O   ALA J 901     119.835  79.153 -24.207  1.00 24.49    -0.271 OA
ATOM     32  H   VAL J 902     121.657  78.796 -21.822  1.00 22.50     0.163 HD
BRANCH  30  33
ATOM     33  CA  ALA J 901     121.904  80.285 -23.930  1.00 20.76     0.396 C 
ATOM     34  CB  ALA J 901     122.100  81.356 -22.834  1.00 20.79     0.059 C 
ATOM     35  N   ALA J 901     121.472  80.896 -25.201  1.00 14.38     0.614 N 
ENDBRANCH  30  33
ENDBRANCH  25  29
ENDBRANCH   1  25
TORSDOF 11
