USER: ADFR SOLUTION from run 0
USER: SCORE 11.994160 LL:  -2.489 LR:  -9.854 RR:   0.000 FEB:  -6.573
USER: RMSD 1.236599
USER: STATUS Locally minimized using BFGS
USER: GENES 13
USER: genes 0 Translation |==|  0.53032 0.57949 0.41110
USER: genes 1 Rotation |==|  0.47842 0.43901 0.49529 0.99577
USER: genes 2 Torsion [N]-CA--C-[N] |==|  0.38557
USER: genes 3 Torsion [C]-N--CA-[C] |==|  0.71732
USER: genes 4 Torsion [N]-CA--C-[N] |==|  0.31575
USER: genes 5 Torsion [C]-N--CA-[CB] |==|  0.43555
USER: genes 6 Torsion [N]-CA--C-[O] |==|  0.22484
USER: genes 7 Torsion [N]-CA--CB-[CG2] |==|  0.50546
USER: genes 8 Torsion [CA]-CB--CG1-[CD1] |==|  0.48159
USER: genes 9 Torsion [N]-C--CA-[N] |==|  0.39444
USER: genes 10 Torsion [C]-CA--CB-[CG1] |==|  0.11582
USER: genes 11 Torsion [C]-CA--N-[C] |==|  0.61319
USER: genes 12 Torsion [N]-C--CA-[N] |==|  0.48715
ROOT
ATOM      1  C   VAL J 902     119.804  77.924 -20.465  1.00 24.50 LIG 0.24  C 
ATOM      2 O    VAL J 902     120.483  78.362 -19.537  1.00 24.73 LIG-0.27  OA
ATOM      3  N   PRO J 903     118.507  77.616 -20.306  1.00 25.43 LIG-0.34  N 
ATOM      4  CA  PRO J 903     117.866  77.786 -18.997  1.00 29.14 LIG 0.18  C 
ATOM      5  CB  PRO J 903     116.379  77.592 -19.305  1.00 28.66 LIG 0.04  C 
ATOM      6  CG  PRO J 903     116.384  76.728 -20.522  1.00 26.54 LIG 0.02  C 
ATOM      7  CD  PRO J 903     117.511  77.291 -21.340  1.00 24.21 LIG 0.13  C 
ENDROOT
BRANCH 4 8
ATOM      8  C   PRO J 903     118.356  76.823 -17.921  1.00 32.58 LIG 0.24  C 
ATOM      9 O    PRO J 903     118.572  75.634 -18.177  1.00 31.49 LIG-0.27  OA
ATOM     10  N   ILE J 904     118.534  77.355 -16.715  1.00 35.09 LIG-0.35  N 
ATOM     11 H    ILE J 904     118.400  78.185 -16.537  1.00 35.09 LIG 0.16  HD
BRANCH 10 12
ATOM     12  CA  ILE J 904     118.981  76.567 -15.571  1.00 39.23 LIG 0.18  C 
BRANCH 12 13
ATOM     13  C   ILE J 904     117.763  76.264 -14.702  1.00 42.17 LIG 0.24  C 
ATOM     14 O    ILE J 904     117.175  77.175 -14.116  1.00 43.90 LIG-0.27  OA
ATOM     15  N   ALA J 905     117.386  74.993 -14.616  1.00 45.29 LIG-0.35  N 
ATOM     16 H    ALA J 905     117.781  74.343 -15.017  1.00 45.29 LIG 0.16  HD
BRANCH 15 17
ATOM     17  CA  ALA J 905     116.234  74.603 -13.807  1.00 47.78 LIG 0.16  C 
ATOM     18  CB  ALA J 905     115.668  73.272 -14.302  1.00 47.43 LIG 0.04  C 
BRANCH 17 19
ATOM     19  C   ALA J 905     116.614  74.498 -12.330  1.00 48.37 LIG 0.22  C 
ATOM     20 O    ALA J 905     116.683  75.507 -11.620  1.00 49.70 LIG-0.29  OA
ENDBRANCH 17 19
ENDBRANCH 15 17
ENDBRANCH 12 13
BRANCH 12 21
ATOM     21  CB  ILE J 904     119.977  77.352 -14.700  1.00 39.00 LIG 0.01  C 
ATOM     22  CG2 ILE J 904     120.454  76.480 -13.548  1.00 39.92 LIG 0.01  C 
BRANCH 21 23
ATOM     23  CG1 ILE J 904     121.159  77.829 -15.540  1.00 38.87 LIG 0.00  C 
ATOM     24  CD1 ILE J 904     122.095  78.741 -14.781  1.00 39.28 LIG 0.01  C 
ENDBRANCH 21 23
ENDBRANCH 12 21
ENDBRANCH 10 12
ENDBRANCH 4 8
BRANCH 1 25
ATOM     25  CA  VAL J 902     120.412  77.720 -21.854  1.00 23.95 LIG 0.18  C 
BRANCH 25 26
ATOM     26  CB  VAL J 902     121.110  76.327 -21.936  1.00 25.73 LIG 0.01  C 
ATOM     27  CG1 VAL J 902     120.280  75.269 -21.264  1.00 28.26 LIG 0.01  C 
ATOM     28  CG2 VAL J 902     121.326  75.950 -23.395  1.00 25.58 LIG 0.01  C 
ENDBRANCH 25 26
BRANCH 25 29
ATOM     29  N   VAL J 902     121.361  78.760 -22.221  1.00 22.50 LIG-0.34  N 
ATOM     30  C   ALA J 901     121.385  79.255 -23.454  1.00 20.52 LIG 0.26  C 
ATOM     31 O    ALA J 901     120.593  78.913 -24.318  1.00 24.49 LIG-0.27  OA
ATOM     32 H    VAL J 902     121.885  79.011 -21.587  1.00 22.50 LIG 0.16  HD
BRANCH 30 33
ATOM     33  CA  ALA J 901     122.431  80.310 -23.763  1.00 20.76 LIG 0.40  C 
ATOM     34  CB  ALA J 901     122.172  81.568 -22.905  1.00 20.79 LIG 0.06  C 
ATOM     35  N   ALA J 901     122.333  80.618 -25.203  1.00 14.38 LIG 0.61  N 
ENDBRANCH 30 33
ENDBRANCH 25 29
ENDBRANCH 1 25
TORSDOF 11
