REMARK  16 active torsions:
REMARK  status: ('A' for Active; 'I' for Inactive)
REMARK       I    between atoms: C_1  and  N_4 
REMARK    1  A    between atoms: N_4  and  CA_5 
REMARK    2  A    between atoms: CA_5  and  C_6 
REMARK    3  A    between atoms: CA_5  and  CB_8 
REMARK       I    between atoms: C_6  and  N_12 
REMARK    4  A    between atoms: CB_8  and  OG_9 
REMARK    5  A    between atoms: N_12  and  CA_13 
REMARK    6  A    between atoms: CA_13  and  CB_16 
REMARK    7  A    between atoms: CA_13  and  C_14 
REMARK       I    between atoms: C_14  and  N_21 
REMARK    8  A    between atoms: CB_16  and  CG_17 
REMARK    9  A    between atoms: N_21  and  CA_22 
REMARK   10  A    between atoms: CA_22  and  C_23 
REMARK   11  A    between atoms: CA_22  and  CB_25 
REMARK       I    between atoms: C_23  and  N_32 
REMARK   12  A    between atoms: CB_25  and  CG_26 
REMARK       I    between atoms: CG_26  and  ND2_28 
REMARK   13  A    between atoms: N_32  and  CA_33 
REMARK   14  A    between atoms: CA_33  and  C_34 
REMARK   15  A    between atoms: CA_33  and  CB_36 
REMARK   16  A    between atoms: CB_36  and  CG_37 
ROOT
ATOM      1  C   LEU I   2       3.575   3.157  10.414  1.00 17.40     0.241 C 
ATOM      2  O   LEU I   2       3.308   4.054  11.191  1.00 17.46    -0.271 OA
ATOM      3  N   ASN I   3       3.544   1.873  10.719  1.00 16.24    -0.346 N 
ATOM      4  H   ASN I   3       3.809   1.249  10.189  1.00 16.24     0.163 HD
ENDROOT
BRANCH   3   5
ATOM      5  CA  ASN I   3       3.055   1.403  11.988  1.00 15.86     0.185 C 
BRANCH   5   6
ATOM      6  C   ASN I   3       3.974   0.321  12.518  1.00 15.05     0.241 C 
ATOM      7  N   PHE I   4       4.894   0.746  13.394  1.00 14.49    -0.344 N 
ATOM      8  H   PHE I   4       4.977   1.568  13.634  1.00 14.49     0.163 HD
ATOM      9  O   ASN I   3       3.853  -0.860  12.111  1.00 16.10    -0.271 OA
BRANCH   7  10
ATOM     10  CA  PHE I   4       5.850  -0.158  14.027  1.00 12.92     0.189 C 
BRANCH  10  11
ATOM     11  C   PHE I   4       5.377  -0.459  15.427  1.00 14.32     0.197 C 
ATOM     12  OXT PHE I   4       4.185  -0.330  15.664  1.00 16.91    -0.646 OA
ATOM     13  O   PHE I   4       6.151  -0.922  16.267  1.00 15.04    -0.646 OA
ENDBRANCH  10  11
BRANCH  10  14
ATOM     14  CB  PHE I   4       7.225   0.486  14.057  1.00 13.46     0.074 C 
BRANCH  14  15
ATOM     15  CG  PHE I   4       7.679   0.836  12.662  1.00 17.43    -0.056 A 
ATOM     16  CD1 PHE I   4       7.986  -0.190  11.757  1.00 19.70     0.007 A 
ATOM     17  CE1 PHE I   4       8.381   0.128  10.470  1.00 18.46     0.001 A 
ATOM     18  CZ  PHE I   4       8.471   1.459  10.082  1.00 20.27     0.000 A 
ATOM     19  CE2 PHE I   4       8.168   2.486  10.973  1.00 19.92     0.001 A 
ATOM     20  CD2 PHE I   4       7.770   2.179  12.275  1.00 19.48     0.007 A 
ENDBRANCH  14  15
ENDBRANCH  10  14
ENDBRANCH   7  10
ENDBRANCH   5   6
BRANCH   5  21
ATOM     21  CB  ASN I   3       1.647   0.865  11.786  1.00 15.02     0.137 C 
BRANCH  21  22
ATOM     22  CG  ASN I   3       0.742   1.992  11.294  1.00 21.09     0.217 C 
ATOM     23  ND2 ASN I   3       0.498   2.121   9.999  1.00 19.37    -0.370 N 
ATOM     24 2HD2 ASN I   3       0.787   1.530   9.446  1.00 19.37     0.159 HD
ATOM     25 1HD2 ASN I   3       0.050   2.796   9.711  1.00 19.37     0.159 HD
ATOM     26  OD1 ASN I   3       0.310   2.860  12.049  1.00 22.58    -0.274 OA
ENDBRANCH  21  22
ENDBRANCH   5  21
ENDBRANCH   3   5
BRANCH   1  27
ATOM     27  CA  LEU I   2       3.898   3.505   9.020  1.00 19.34     0.177 C 
BRANCH  27  28
ATOM     28  N   LEU I   2       2.957   4.547   8.675  1.00 20.62    -0.346 N 
ATOM     29  H   LEU I   2       2.961   5.238   9.187  1.00 20.62     0.163 HD
ATOM     30  C   SER I   1       2.168   4.377   7.619  1.00 28.29     0.243 C 
ATOM     31  O   SER I   1       2.156   3.315   6.957  1.00 21.19    -0.271 OA
BRANCH  30  32
ATOM     32  CA  SER I   1       1.337   5.603   7.257  1.00 32.71     0.200 C 
BRANCH  32  33
ATOM     33  CB  SER I   1       0.285   5.160   6.281  1.00 35.86     0.199 C 
BRANCH  33  34
ATOM     34  OG  SER I   1      -0.696   4.804   7.214  1.00 39.84    -0.398 OA
ATOM     35  HG  SER I   1      -0.389   4.893   7.991  1.00 39.84     0.209 HD
ENDBRANCH  33  34
ENDBRANCH  32  33
BRANCH  32  36
ATOM     36  N   SER I   1       2.347   6.490   6.690  1.00 41.50    -0.346 N 
HETATM   37  C   ACE I   0       2.381   7.144   5.512  1.00 42.61     0.214 C 
HETATM   38  O   ACE I   0       1.486   7.177   4.666  0.00 41.61    -0.274 OA
HETATM   39  CH3 ACE I   0       3.660   7.941   5.310  0.00 41.50     0.117 C 
ATOM     40  H   SER I   1       3.005   6.575   7.237  1.00 41.50     0.163 HD
ENDBRANCH  32  36
ENDBRANCH  30  32
ENDBRANCH  27  28
BRANCH  27  41
ATOM     41  CB  LEU I   2       5.304   3.990   8.931  1.00 22.58     0.038 C 
BRANCH  41  42
ATOM     42  CG  LEU I   2       5.676   4.281   7.472  1.00 27.49    -0.020 C 
ATOM     43  CD2 LEU I   2       5.613   3.003   6.620  1.00 25.10     0.009 C 
ATOM     44  CD1 LEU I   2       7.038   4.941   7.463  1.00 31.16     0.009 C 
ENDBRANCH  41  42
ENDBRANCH  27  41
ENDBRANCH   1  27
TORSDOF 16
