USER: ADFR SOLUTION from run 0
USER: SCORE 13.298049 LL:  -3.062 LR: -12.575 RR:   0.000 FEB:  -7.802
USER: RMSD 1.547965
USER: STATUS Locally minimized using BFGS
USER: GENES 18
USER: genes 0 Translation |==|  0.45576 0.45622 0.51630
USER: genes 1 Rotation |==|  0.55500 0.48833 0.47634 0.99627
USER: genes 2 Torsion [C]-N--CA-[C] |==|  0.60000
USER: genes 3 Torsion [N]-CA--C-[N] |==|  0.28501
USER: genes 4 Torsion [C]-N--CA-[C] |==|  0.78469
USER: genes 5 Torsion [N]-CA--C-[O] |==|  0.53743
USER: genes 6 Torsion [N]-CA--CB-[CG] |==|  0.83614
USER: genes 7 Torsion [CA]-CB--CG-[CD1] |==|  0.80752
USER: genes 8 Torsion [N]-CA--CB-[CG] |==|  0.83436
USER: genes 9 Torsion [CA]-CB--CG-[OD1] |==|  0.81375
USER: genes 10 Torsion [N]-C--CA-[N] |==|  0.33438
USER: genes 11 Torsion [C]-CA--N-[C] |==|  0.66919
USER: genes 12 Torsion [N]-C--CA-[N] |==|  0.18395
USER: genes 13 Torsion [C]-CA--CB-[OG] |==|  0.33654
USER: genes 14 Torsion [CA]-CB--OG-[HG] |==|  0.99258
USER: genes 15 Torsion [C]-CA--N-[C] |==|  0.33059
USER: genes 16 Torsion [C]-CA--CB-[CG] |==|  0.43374
USER: genes 17 Torsion [CA]-CB--CG-[CD2] |==|  0.88207
ROOT
ATOM      1  C   LEU I   2       3.125   2.755  10.796  1.00 17.40 LIG 0.24  C 
ATOM      2 O    LEU I   2       2.895   3.485  11.742  1.00 17.46 LIG-0.27  OA
ATOM      3  N   ASN I   3       2.963   1.445  10.809  1.00 16.24 LIG-0.35  N 
ATOM      4 H    ASN I   3       3.201   0.927  10.164  1.00 16.24 LIG 0.16  HD
ENDROOT
BRANCH 3 5
ATOM      5  CA  ASN I   3       2.363   0.762  11.925  1.00 15.86 LIG 0.18  C 
BRANCH 5 6
ATOM      6  C   ASN I   3       3.041  -0.578  12.125  1.00 15.05 LIG 0.24  C 
ATOM      7  N   PHE I   4       3.917  -0.617  13.138  1.00 14.49 LIG-0.34  N 
ATOM      8 H    PHE I   4       4.101   0.061  13.633  1.00 14.49 LIG 0.16  HD
ATOM      9 O    ASN I   3       2.781  -1.534  11.354  1.00 16.10 LIG-0.27  OA
BRANCH 7 10
ATOM     10  CA  PHE I   4       4.648  -1.830  13.495  1.00 12.92 LIG 0.19  C 
BRANCH 10 11
ATOM     11  C   PHE I   4       3.723  -2.745  14.258  1.00 14.32 LIG 0.20  C 
ATOM     12 OXT  PHE I   4       2.520  -2.555  14.151  1.00 16.91 LIG-0.65  OA
ATOM     13 O    PHE I   4       4.166  -3.713  14.878  1.00 15.04 LIG-0.65  OA
ENDBRANCH 10 11
BRANCH 10 14
ATOM     14  CB  PHE I   4       5.858  -1.472  14.339  1.00 13.46 LIG 0.07  C 
BRANCH 14 15
ATOM     15  CG  PHE I   4       6.772  -0.535  13.589  1.00 17.43 LIG-0.06  A 
ATOM     16  CD1 PHE I   4       7.486  -1.008  12.479  1.00 19.70 LIG 0.01  A 
ATOM     17  CE1 PHE I   4       8.307  -0.145  11.775  1.00 18.46 LIG 0.00  A 
ATOM     18  CZ  PHE I   4       8.420   1.182  12.172  1.00 20.27 LIG 0.00  A 
ATOM     19  CE2 PHE I   4       7.714   1.662  13.273  1.00 19.92 LIG 0.00  A 
ATOM     20  CD2 PHE I   4       6.883   0.801  13.992  1.00 19.48 LIG 0.01  A 
ENDBRANCH 14 15
ENDBRANCH 10 14
ENDBRANCH 7 10
ENDBRANCH 5 6
BRANCH 5 21
ATOM     21  CB  ASN I   3       0.882   0.581  11.631  1.00 15.02 LIG 0.14  C 
BRANCH 21 22
ATOM     22  CG  ASN I   3       0.235   1.949  11.432  1.00 21.09 LIG 0.22  C 
ATOM     23  ND2 ASN I   3      -0.120   2.338  10.217  1.00 19.37 LIG-0.37  N 
ATOM     24 22HD ASN I   3      -0.054   1.793   9.555  1.00 19.37 LIG 0.16  HD
ATOM     25 21HD ASN I   3      -0.416   3.135  10.089  1.00 19.37 LIG 0.16  HD
ATOM     26 OD1  ASN I   3       0.125   2.760  12.349  1.00 22.58 LIG-0.27  OA
ENDBRANCH 21 22
ENDBRANCH 5 21
ENDBRANCH 3 5
BRANCH 1 27
ATOM     27  CA  LEU I   2       3.556   3.362   9.526  1.00 19.34 LIG 0.18  C 
BRANCH 27 28
ATOM     28  N   LEU I   2       2.502   4.292   9.188  1.00 20.62 LIG-0.35  N 
ATOM     29 H    LEU I   2       2.365   4.923   9.755  1.00 20.62 LIG 0.16  HD
ATOM     30  C   SER I   1       1.831   4.118   8.054  1.00 28.29 LIG 0.24  C 
ATOM     31 O    SER I   1       2.026   3.135   7.304  1.00 21.19 LIG-0.27  OA
BRANCH 30 32
ATOM     32  CA  SER I   1       0.859   5.246   7.724  1.00 32.71 LIG 0.20  C 
BRANCH 32 33
ATOM     33  CB  SER I   1       0.073   4.823   6.517  1.00 35.86 LIG 0.20  C 
BRANCH 33 34
ATOM     34 OG   SER I   1      -1.202   4.894   7.091  1.00 39.84 LIG-0.40  OA
ATOM     35 HG   SER I   1      -1.133   5.103   7.902  1.00 39.84 LIG 0.21  HD
ENDBRANCH 33 34
ENDBRANCH 32 33
BRANCH 32 36
ATOM     36  N   SER I   1       1.768   6.362   7.488  1.00 41.50 LIG-0.35  N 
ATOM     37  C   ACE I   0       1.971   7.114   6.388  1.00 42.61 LIG 0.21  C 
ATOM     38 O    ACE I   0       1.345   7.045   5.329  0.00 41.61 LIG-0.27  OA
ATOM     39  CH3 ACE I   0       3.056   8.162   6.574  0.00 41.50 LIG 0.12  C 
ATOM     40 H    SER I   1       2.225   6.526   8.199  1.00 41.50 LIG 0.16  HD
ENDBRANCH 32 36
ENDBRANCH 30 32
ENDBRANCH 27 28
BRANCH 27 41
ATOM     41  CB  LEU I   2       4.859   4.061   9.714  1.00 22.58 LIG 0.04  C 
BRANCH 41 42
ATOM     42  CG  LEU I   2       5.600   4.175   8.376  1.00 27.49 LIG-0.02  C 
ATOM     43  CD2 LEU I   2       5.503   2.866   7.577  1.00 25.10 LIG 0.01  C 
ATOM     44  CD1 LEU I   2       7.025   4.594   8.670  1.00 31.16 LIG 0.01  C 
ENDBRANCH 41 42
ENDBRANCH 27 41
ENDBRANCH 1 27
TORSDOF 16
