USER: ADFR SOLUTION from run 0
USER: SCORE 10.155963 LL:  -1.444 LR:  -8.802 RR:   0.000 FEB:  -5.819
USER: RMSD 0.793552
USER: STATUS Locally minimized using BFGS
USER: GENES 12
USER: genes 0 Translation |==|  0.52189 0.56173 0.61101
USER: genes 1 Rotation |==|  0.47615 0.52744 0.45748 0.99686
USER: genes 2 Torsion [C]-CA--N-[C] |==|  0.82116
USER: genes 3 Torsion [N]-C--CA-[N] |==|  0.46411
USER: genes 4 Torsion [C]-CA--N-[H2] |==|  0.83704
USER: genes 5 Torsion [C]-CA--CB-[CG] |==|  0.38248
USER: genes 6 Torsion [CA]-CB--CG-[SD] |==|  0.59918
USER: genes 7 Torsion [CB]-CG--SD-[CE] |==|  0.57759
USER: genes 8 Torsion [N]-CA--CB-[CG] |==|  0.93007
USER: genes 9 Torsion [CA]-CB--CG-[OD1] |==|  0.80608
USER: genes 10 Torsion [N]-CA--C-[N] |==|  0.33889
USER: genes 11 Torsion [N]-CA--C-[O] |==|  0.28566
ROOT
ATOM      1  CA  ASP Y   2      39.821  52.225  38.901  1.00 68.86 LIG 0.19  C 
ENDROOT
BRANCH 1 2
ATOM      2  N   ASP Y   2      38.957  51.889  37.773  1.00 67.90 LIG-0.34  N 
ATOM      3 H    ASP Y   2      38.272  51.428  38.017  1.00 67.90 LIG 0.16  HD
ATOM      4  C   MET Y   1      39.149  52.223  36.499  1.00 66.89 LIG 0.25  C 
ATOM      5 O    MET Y   1      40.155  52.818  36.059  1.00 66.99 LIG-0.27  OA
BRANCH 4 6
ATOM      6  CA  MET Y   1      37.956  51.836  35.604  1.00 65.69 LIG 0.28  C 
BRANCH 6 7
ATOM      7  N   MET Y   1      37.931  52.419  34.237  1.00 65.08 LIG-0.07  N 
ATOM      8 H2   MET Y   1      37.932  53.307  34.293  1.00 65.08 LIG 0.28  HD
ATOM      9 H1   MET Y   1      37.196  52.150  33.813  1.00 65.08 LIG 0.28  HD
ATOM     10 H3   MET Y   1      38.648  52.149  33.786  1.00 65.08 LIG 0.28  HD
ENDBRANCH 6 7
BRANCH 6 11
ATOM     11  CB  MET Y   1      37.810  50.304  35.554  1.00 64.83 LIG 0.05  C 
BRANCH 11 12
ATOM     12  CG  MET Y   1      36.375  49.856  35.655  1.00 63.52 LIG 0.08  C 
BRANCH 12 13
ATOM     13 SD   MET Y   1      36.076  48.343  36.557  1.00 62.62 LIG-0.17  SA
ATOM     14  CE  MET Y   1      34.584  47.790  35.739  1.00 61.34 LIG 0.09  C 
ENDBRANCH 12 13
ENDBRANCH 11 12
ENDBRANCH 6 11
ENDBRANCH 4 6
ENDBRANCH 1 2
BRANCH 1 15
ATOM     15  CB  ASP Y   2      39.124  51.733  40.178  1.00 68.96 LIG 0.15  C 
BRANCH 15 16
ATOM     16  CG  ASP Y   2      37.600  51.638  40.017  1.00 68.92 LIG 0.17  C 
ATOM     17 OD2  ASP Y   2      36.982  50.551  39.941  1.00 65.64 LIG-0.65  OA
ATOM     18 OD1  ASP Y   2      36.933  52.698  39.919  1.00 70.23 LIG-0.65  OA
ENDBRANCH 15 16
ENDBRANCH 1 15
BRANCH 1 19
ATOM     19  C   ASP Y   2      41.202  51.574  38.783  1.00 69.95 LIG 0.24  C 
ATOM     20 O    ASP Y   2      41.306  50.344  38.730  1.00 70.67 LIG-0.27  OA
ATOM     21  N   PRO Y   3      42.264  52.379  38.780  1.00 71.01 LIG-0.34  N 
ATOM     22  CA  PRO Y   3      43.621  51.862  38.506  1.00 71.12 LIG 0.17  C 
ATOM     23  CD  PRO Y   3      42.246  53.820  39.091  1.00 71.07 LIG 0.13  C 
ATOM     24  CB  PRO Y   3      44.496  53.119  38.438  1.00 71.47 LIG 0.04  C 
ATOM     25  CG  PRO Y   3      43.691  54.223  39.090  1.00 71.67 LIG 0.02  C 
BRANCH 22 26
ATOM     26  C   PRO Y   3      44.150  50.910  39.580  1.00 71.77 LIG 0.22  C 
ATOM     27 O    PRO Y   3      44.153  49.691  39.373  1.00 72.45 LIG-0.29  OA
ENDBRANCH 22 26
ENDBRANCH 1 19
TORSDOF 10
