USER: ADFR SOLUTION from run 0
USER: SCORE 18.502673 LL:  -5.815 LR: -14.282 RR:   0.000 FEB:  -8.614
USER: RMSD 0.794708
USER: STATUS Locally minimized using BFGS
USER: GENES 21
USER: genes 0 Translation |==|  0.55563 0.51122 0.47776
USER: genes 1 Rotation |==|  0.54077 0.49613 0.50823 0.99825
USER: genes 2 Torsion [CB]-CA--N-[C] |==|  0.29993
USER: genes 3 Torsion [N]-C--CA-[N] |==|  0.32389
USER: genes 4 Torsion [C]-CA--N-[C] |==|  0.80902
USER: genes 5 Torsion [N]-C--CA-[N] |==|  0.37700
USER: genes 6 Torsion [C]-CA--CB-[CG] |==|  0.26370
USER: genes 7 Torsion [CA]-CB--CG-[SD] |==|  0.22520
USER: genes 8 Torsion [CB]-CG--SD-[CE] |==|  0.78911
USER: genes 9 Torsion [C]-CA--CB-[CG] |==|  0.09893
USER: genes 10 Torsion [CA]-CB--CG-[CD2] |==|  0.69903
USER: genes 11 Torsion [N]-CA--CB-[CG] |==|  0.81945
USER: genes 12 Torsion [CA]-CB--CG-[CD] |==|  0.50709
USER: genes 13 Torsion [CB]-CG--CD-[NE] |==|  0.45051
USER: genes 14 Torsion [CG]-CD--NE-[CZ] |==|  0.43647
USER: genes 15 Torsion [N]-CA--C-[N] |==|  0.27275
USER: genes 16 Torsion [N]-CA--C-[O] |==|  0.46702
USER: genes 17 Torsion [C]-N--CA-[CB] |==|  0.43071
USER: genes 18 Torsion [N]-CA--CB-[CG] |==|  0.14096
USER: genes 19 Torsion [CA]-CB--CG-[CD2] |==|  0.75334
USER: genes 20 Torsion [N]-CA--C-[O] |==|  0.00339
ROOT
ATOM      1  CA  ARG X   4     -20.197 -12.257  38.277  1.00 29.51 LIG 0.18  C 
ENDROOT
BRANCH 1 2
ATOM      2  N   ARG X   4     -20.391 -12.070  36.842  1.00 29.26 LIG-0.35  N 
ATOM      3  C   TRP X   3     -21.216 -11.139  36.329  1.00 30.37 LIG 0.24  C 
ATOM      4 O    TRP X   3     -21.862 -10.329  37.027  1.00 30.38 LIG-0.27  OA
ATOM      5 H    ARG X   4     -19.930 -12.610  36.356  1.00 29.26 LIG 0.16  HD
BRANCH 3 6
ATOM      6  CA  TRP X   3     -21.322 -11.094  34.790  1.00 30.62 LIG 0.18  C 
BRANCH 6 7
ATOM      7  N   TRP X   3     -22.678 -11.410  34.309  1.00 31.45 LIG-0.34  N 
ATOM      8 H    TRP X   3     -23.110 -10.756  33.955  1.00 31.45 LIG 0.16  HD
ATOM      9  C   MET X   2     -23.138 -12.652  34.449  1.00 32.92 LIG 0.26  C 
ATOM     10 O    MET X   2     -22.450 -13.556  34.883  1.00 32.35 LIG-0.27  OA
BRANCH 9 11
ATOM     11  CA  MET X   2     -24.547 -12.948  34.015  1.00 34.28 LIG 0.40  C 
ATOM     12  N   MET X   2     -24.629 -14.243  33.231  1.00 35.36 LIG 0.61  N 
BRANCH 11 13
ATOM     13  CB  MET X   2     -25.431 -13.027  35.249  1.00 35.71 LIG 0.06  C 
BRANCH 13 14
ATOM     14  CG  MET X   2     -26.141 -11.746  35.595  1.00 37.62 LIG 0.08  C 
BRANCH 14 15
ATOM     15 SD   MET X   2     -27.659 -11.355  34.684  1.00 39.06 LIG-0.17  SA
ATOM     16  CE  MET X   2     -26.980 -10.808  33.086  1.00 45.88 LIG 0.09  C 
ENDBRANCH 14 15
ENDBRANCH 13 14
ENDBRANCH 11 13
ENDBRANCH 9 11
ENDBRANCH 6 7
BRANCH 6 17
ATOM     17  CB  TRP X   3     -20.806  -9.763  34.241  1.00 29.85 LIG 0.07  C 
BRANCH 17 18
ATOM     18  CG  TRP X   3     -19.637  -9.233  35.027  1.00 29.58 LIG-0.03  A 
ATOM     19  CD1 TRP X   3     -18.364  -9.736  35.032  1.00 26.84 LIG 0.10  A 
ATOM     20  NE1 TRP X   3     -17.577  -8.996  35.874  1.00 29.47 LIG-0.36  N 
ATOM     21 HE1  TRP X   3     -16.744  -9.142  36.031  1.00 29.47 LIG 0.17  HD
ATOM     22  CE2 TRP X   3     -18.323  -7.982  36.432  1.00 27.62 LIG 0.04  A 
ATOM     23  CZ2 TRP X   3     -17.955  -6.963  37.362  1.00 28.85 LIG 0.03  A 
ATOM     24  CD2 TRP X   3     -19.633  -8.100  35.921  1.00 25.33 LIG-0.00  A 
ATOM     25  CH2 TRP X   3     -18.946  -6.056  37.758  1.00 28.18 LIG 0.00  A 
ATOM     26  CZ3 TRP X   3     -20.260  -6.168  37.269  1.00 26.79 LIG 0.00  A 
ATOM     27  CE3 TRP X   3     -20.617  -7.198  36.360  1.00 25.86 LIG 0.01  A 
ENDBRANCH 17 18
ENDBRANCH 6 17
ENDBRANCH 3 6
ENDBRANCH 1 2
BRANCH 1 28
ATOM     28  CB  ARG X   4     -20.863 -13.556  38.777  1.00 29.55 LIG 0.04  C 
BRANCH 28 29
ATOM     29  CG  ARG X   4     -22.385 -13.569  38.662  1.00 28.17 LIG 0.02  C 
BRANCH 29 30
ATOM     30  CD  ARG X   4     -22.952 -14.874  39.242  1.00 27.09 LIG 0.14  C 
BRANCH 30 31
ATOM     31  NE  ARG X   4     -24.376 -14.713  39.519  1.00 25.46 LIG-0.23  N 
ATOM     32 HE   ARG X   4     -24.682 -13.918  39.636  1.00 25.46 LIG 0.18  HD
ATOM     33  CZ  ARG X   4     -25.229 -15.736  39.601  1.00 27.27 LIG 0.67  C 
ATOM     34  NH2 ARG X   4     -26.519 -15.527  39.848  1.00 24.12 LIG-0.23  N 
ATOM     35  NH1 ARG X   4     -24.774 -16.978  39.448  1.00 21.32 LIG-0.23  N 
ATOM     36 1HH2 ARG X   4     -26.811 -14.726  39.957  1.00 24.12 LIG 0.17  HD
ATOM     37 2HH2 ARG X   4     -27.061 -16.193  39.898  1.00 24.12 LIG 0.17  HD
ATOM     38 2HH1 ARG X   4     -25.316 -17.643  39.500  1.00 21.32 LIG 0.17  HD
ATOM     39 1HH1 ARG X   4     -23.938 -17.114  39.299  1.00 21.32 LIG 0.17  HD
ENDBRANCH 30 31
ENDBRANCH 29 30
ENDBRANCH 28 29
ENDBRANCH 1 28
BRANCH 1 40
ATOM     40  C   ARG X   4     -18.714 -12.339  38.532  1.00 30.38 LIG 0.24  C 
ATOM     41 O    ARG X   4     -18.143 -13.405  38.369  1.00 31.87 LIG-0.27  OA
ATOM     42  N   PRO X   5     -18.086 -11.229  38.950  1.00 30.60 LIG-0.34  N 
ATOM     43  CA  PRO X   5     -16.609 -11.180  39.036  1.00 31.31 LIG 0.18  C 
ATOM     44  CD  PRO X   5     -18.730  -9.933  39.301  1.00 29.99 LIG 0.13  C 
ATOM     45  CB  PRO X   5     -16.320  -9.679  39.147  1.00 30.70 LIG 0.04  C 
ATOM     46  CG  PRO X   5     -17.598  -9.068  39.794  1.00 29.42 LIG 0.02  C 
BRANCH 43 47
ATOM     47  C   PRO X   5     -15.915 -11.926  40.209  1.00 32.23 LIG 0.24  C 
ATOM     48 O    PRO X   5     -14.659 -12.102  40.199  1.00 32.23 LIG-0.27  OA
ATOM     49  N   TRP X   6     -16.694 -12.338  41.205  1.00 33.50 LIG-0.34  N 
ATOM     50 H    TRP X   6     -17.554 -12.302  41.195  1.00 33.50 LIG 0.16  HD
BRANCH 49 51
ATOM     51  CA  TRP X   6     -16.118 -12.904  42.433  1.00 34.66 LIG 0.19  C 
BRANCH 51 52
ATOM     52  CB  TRP X   6     -17.101 -12.717  43.607  1.00 34.41 LIG 0.08  C 
BRANCH 52 53
ATOM     53  CG  TRP X   6     -18.514 -13.191  43.321  1.00 32.39 LIG-0.03  A 
ATOM     54  CD2 TRP X   6     -19.593 -12.426  42.740  1.00 31.68 LIG-0.00  A 
ATOM     55  CE2 TRP X   6     -20.717 -13.275  42.685  1.00 33.29 LIG 0.04  A 
ATOM     56  CE3 TRP X   6     -19.711 -11.117  42.254  1.00 33.66 LIG 0.01  A 
ATOM     57  CZ2 TRP X   6     -21.941 -12.865  42.138  1.00 33.18 LIG 0.03  A 
ATOM     58  NE1 TRP X   6     -20.336 -14.494  43.194  1.00 30.87 LIG-0.36  N 
ATOM     59  CH2 TRP X   6     -22.032 -11.593  41.672  1.00 32.36 LIG 0.00  A 
ATOM     60  CZ3 TRP X   6     -20.936 -10.705  41.737  1.00 32.37 LIG 0.00  A 
ATOM     61 HE1  TRP X   6     -20.840 -15.188  43.257  1.00 30.87 LIG 0.17  HD
ATOM     62  CD1 TRP X   6     -19.025 -14.426  43.582  1.00 30.01 LIG 0.10  A 
ENDBRANCH 52 53
ENDBRANCH 51 52
BRANCH 51 63
ATOM     63  C   TRP X   6     -15.710 -14.383  42.282  1.00 36.76 LIG 0.20  C 
ATOM     64 O    TRP X   6     -15.825 -15.043  41.234  1.00 37.86 LIG-0.65  OA
ATOM     65 OXT  TRP X   6     -15.249 -15.008  43.245  1.00 39.11 LIG-0.65  OA
ENDBRANCH 51 63
ENDBRANCH 49 51
ENDBRANCH 43 47
ENDBRANCH 1 40
TORSDOF 19
