USER: ADFR SOLUTION from run 0
USER: SCORE 23.098021 LL:  -3.324 LR: -20.527 RR:   0.000 FEB: -12.473
USER: RMSD 0.383958
USER: STATUS Locally minimized using BFGS
USER: GENES 29
USER: genes 0 Translation |==|  0.44659 0.39271 0.47977
USER: genes 1 Rotation |==|  0.50187 0.48747 0.49852 0.99984
USER: genes 2 Torsion [C]-CA--N-[C] |==|  0.67483
USER: genes 3 Torsion [N]-C--CA-[N] |==|  0.33986
USER: genes 4 Torsion [C]-CA--CB-[CG] |==|  0.52231
USER: genes 5 Torsion [CA]-CB--CG-[CD] |==|  0.42541
USER: genes 6 Torsion [CB]-CG--CD-[NE] |==|  0.83673
USER: genes 7 Torsion [CG]-CD--NE-[HE] |==|  0.26940
USER: genes 8 Torsion [C]-CA--N-[C] |==|  0.66292
USER: genes 9 Torsion [N]-C--CA-[N] |==|  0.37487
USER: genes 10 Torsion [C]-CA--N-[C] |==|  0.69259
USER: genes 11 Torsion [N]-C--CA-[N] |==|  0.34986
USER: genes 12 Torsion [C]-CA--CB-[CG] |==|  0.27687
USER: genes 13 Torsion [CA]-CB--CG-[CD2] |==|  0.53085
USER: genes 14 Torsion [N]-CA--C-[N] |==|  0.32128
USER: genes 15 Torsion [C]-N--CA-[C] |==|  0.79808
USER: genes 16 Torsion [N]-CA--C-[N] |==|  0.38863
USER: genes 17 Torsion [C]-N--CA-[C] |==|  0.80645
USER: genes 18 Torsion [N]-CA--C-[O] |==|  0.42205
USER: genes 19 Torsion [N]-CA--CB-[CG] |==|  0.77194
USER: genes 20 Torsion [CA]-CB--CG-[CD] |==|  0.74673
USER: genes 21 Torsion [CB]-CG--CD-[NE] |==|  0.49530
USER: genes 22 Torsion [CG]-CD--NE-[CZ] |==|  0.41179
USER: genes 23 Torsion [N]-CA--CB-[CG] |==|  0.78809
USER: genes 24 Torsion [CA]-CB--CG-[CD1] |==|  0.45854
USER: genes 25 Torsion [N]-CA--CB-[CG] |==|  0.47381
USER: genes 26 Torsion [CA]-CB--CG-[CD] |==|  0.41083
USER: genes 27 Torsion [CB]-CG--CD-[NE] |==|  0.21205
USER: genes 28 Torsion [CG]-CD--NE-[HE] |==|  0.82354
ROOT
ATOM      1  CA  ARG X 129       0.914  11.847  -7.631  1.00 23.09 LIG 0.18  C 
ENDROOT
BRANCH 1 2
ATOM      2  N   ARG X 129       2.194  12.438  -8.000  1.00 20.82 LIG-0.35  N 
ATOM      3  C   ARG X 128       3.091  11.871  -8.807  1.00 20.67 LIG 0.24  C 
ATOM      4 O    ARG X 128       2.961  10.734  -9.329  1.00 18.99 LIG-0.27  OA
ATOM      5 H    ARG X 129       2.322  13.209  -7.640  1.00 20.82 LIG 0.16  HD
BRANCH 3 6
ATOM      6  CA  ARG X 128       4.337  12.708  -9.092  1.00 21.45 LIG 0.18  C 
BRANCH 6 7
ATOM      7  CB  ARG X 128       4.450  13.023 -10.572  1.00 22.98 LIG 0.04  C 
BRANCH 7 8
ATOM      8  CG  ARG X 128       5.803  13.693 -10.887  1.00 26.06 LIG 0.02  C 
BRANCH 8 9
ATOM      9  CD  ARG X 128       6.370  13.499 -12.359  1.00 28.46 LIG 0.14  C 
BRANCH 9 10
ATOM     10  NE  ARG X 128       6.647  12.194 -12.944  1.00 34.87 LIG-0.23  N 
ATOM     11 HE   ARG X 128       6.037  11.857 -13.449  1.00 34.87 LIG 0.18  HD
ATOM     12  CZ  ARG X 128       7.759  11.468 -12.772  1.00 35.06 LIG 0.67  C 
ATOM     13  NH1 ARG X 128       8.736  11.853 -11.972  1.00 38.28 LIG-0.23  N 
ATOM     14  NH2 ARG X 128       7.869  10.324 -13.383  1.00 41.06 LIG-0.23  N 
ATOM     15 1HH1 ARG X 128       8.672  12.593 -11.539  1.00 38.28 LIG 0.17  HD
ATOM     16 2HH1 ARG X 128       9.438  11.363 -11.883  1.00 38.28 LIG 0.17  HD
ATOM     17 1HH2 ARG X 128       7.233  10.043 -13.889  1.00 41.06 LIG 0.17  HD
ATOM     18 2HH2 ARG X 128       8.578   9.847 -13.281  1.00 41.06 LIG 0.17  HD
ENDBRANCH 9 10
ENDBRANCH 8 9
ENDBRANCH 7 8
ENDBRANCH 6 7
BRANCH 6 19
ATOM     19  N   ARG X 128       5.531  12.004  -8.707  1.00 22.62 LIG-0.35  N 
ATOM     20 H    ARG X 128       5.636  11.248  -9.103  1.00 22.62 LIG 0.16  HD
ATOM     21  C   ALA X 127       6.384  12.494  -7.817  1.00 23.78 LIG 0.24  C 
ATOM     22 O    ALA X 127       6.257  13.604  -7.306  1.00 22.39 LIG-0.27  OA
BRANCH 21 23
ATOM     23  CA  ALA X 127       7.641  11.650  -7.553  1.00 25.08 LIG 0.17  C 
ATOM     24  CB  ALA X 127       7.532  10.840  -6.267  1.00 24.37 LIG 0.04  C 
BRANCH 23 25
ATOM     25  N   ALA X 127       8.783  12.556  -7.545  1.00 27.78 LIG-0.35  N 
ATOM     26  C   LEU X 126       9.628  12.441  -8.569  1.00 33.19 LIG 0.26  C 
ATOM     27 O    LEU X 126       9.427  11.658  -9.549  1.00 34.96 LIG-0.27  OA
ATOM     28 H    ALA X 127       8.842  13.106  -6.886  1.00 27.78 LIG 0.16  HD
BRANCH 26 29
ATOM     29  CA  LEU X 126      10.869  13.283  -8.522  1.00 34.21 LIG 0.40  C 
ATOM     30  N   LEU X 126      12.088  12.465  -8.679  1.00 36.42 LIG 0.61  N 
BRANCH 29 31
ATOM     31  CB  LEU X 126      10.759  14.341  -9.639  1.00 35.53 LIG 0.06  C 
BRANCH 31 32
ATOM     32  CG  LEU X 126      10.306  15.736  -9.189  1.00 35.00 LIG-0.02  C 
ATOM     33  CD2 LEU X 126       9.975  16.600 -10.434  1.00 38.18 LIG 0.01  C 
ATOM     34  CD1 LEU X 126      11.355  16.411  -8.365  1.00 36.44 LIG 0.01  C 
ENDBRANCH 31 32
ENDBRANCH 29 31
ENDBRANCH 26 29
ENDBRANCH 23 25
ENDBRANCH 21 23
ENDBRANCH 6 19
ENDBRANCH 3 6
ENDBRANCH 1 2
BRANCH 1 35
ATOM     35  C   ARG X 129      -0.291  12.693  -8.123  1.00 22.72 LIG 0.24  C 
ATOM     36  N   LEU X 130      -1.150  12.203  -9.032  1.00 24.32 LIG-0.35  N 
ATOM     37 H    LEU X 130      -1.043  11.468  -9.465  1.00 24.32 LIG 0.16  HD
ATOM     38 O    ARG X 129      -0.443  13.818  -7.645  1.00 21.19 LIG-0.27  OA
BRANCH 36 39
ATOM     39  CA  LEU X 130      -2.393  12.951  -9.346  1.00 26.11 LIG 0.18  C 
BRANCH 39 40
ATOM     40  C   LEU X 130      -3.398  12.864  -8.222  1.00 29.66 LIG 0.24  C 
ATOM     41 O    LEU X 130      -3.583  11.782  -7.643  1.00 28.98 LIG-0.27  OA
ATOM     42  N   ARG X 131      -4.077  13.970  -7.934  1.00 30.67 LIG-0.34  N 
ATOM     43 H    ARG X 131      -3.910  14.742  -8.274  1.00 30.67 LIG 0.16  HD
BRANCH 42 44
ATOM     44  CA  ARG X 131      -5.181  13.950  -6.998  1.00 33.89 LIG 0.18  C 
BRANCH 44 45
ATOM     45  C   ARG X 131      -6.392  13.201  -7.557  1.00 35.66 LIG 0.20  C 
ATOM     46 OXT  ARG X 131      -6.631  13.152  -8.784  1.00 35.07 LIG-0.65  OA
ATOM     47 O    ARG X 131      -7.214  12.620  -6.787  1.00 37.10 LIG-0.65  OA
ENDBRANCH 44 45
BRANCH 44 48
ATOM     48  CB  ARG X 131      -5.572  15.388  -6.641  1.00 35.20 LIG 0.04  C 
BRANCH 48 49
ATOM     49  CG  ARG X 131      -4.689  16.019  -5.549  1.00 40.01 LIG 0.02  C 
BRANCH 49 50
ATOM     50  CD  ARG X 131      -5.223  15.816  -4.106  1.00 47.84 LIG 0.14  C 
BRANCH 50 51
ATOM     51  NE  ARG X 131      -4.312  16.407  -3.126  1.00 52.72 LIG-0.23  N 
ATOM     52  CZ  ARG X 131      -4.678  16.943  -1.959  1.00 57.07 LIG 0.67  C 
ATOM     53  NH1 ARG X 131      -5.966  16.952  -1.577  1.00 58.64 LIG-0.23  N 
ATOM     54  NH2 ARG X 131      -3.744  17.467  -1.161  1.00 59.02 LIG-0.23  N 
ATOM     55 2HH1 ARG X 131      -6.189  17.300  -0.823  1.00 58.64 LIG 0.17  HD
ATOM     56 1HH1 ARG X 131      -6.568  16.609  -2.086  1.00 58.64 LIG 0.17  HD
ATOM     57 2HH2 ARG X 131      -3.969  17.816  -0.407  1.00 59.02 LIG 0.17  HD
ATOM     58 1HH2 ARG X 131      -2.919  17.456  -1.401  1.00 59.02 LIG 0.17  HD
ATOM     59 HE   ARG X 131      -3.473  16.410  -3.317  1.00 52.72 LIG 0.18  HD
ENDBRANCH 50 51
ENDBRANCH 49 50
ENDBRANCH 48 49
ENDBRANCH 44 48
ENDBRANCH 42 44
ENDBRANCH 39 40
BRANCH 39 60
ATOM     60  CB  LEU X 130      -3.092  12.454 -10.615  1.00 27.29 LIG 0.04  C 
BRANCH 60 61
ATOM     61  CG  LEU X 130      -2.555  12.812 -11.991  1.00 26.34 LIG-0.02  C 
ATOM     62  CD1 LEU X 130      -3.163  11.928 -13.129  1.00 29.54 LIG 0.01  C 
ATOM     63  CD2 LEU X 130      -2.857  14.253 -12.248  1.00 21.56 LIG 0.01  C 
ENDBRANCH 60 61
ENDBRANCH 39 60
ENDBRANCH 36 39
ENDBRANCH 1 35
BRANCH 1 64
ATOM     64  CB  ARG X 129       0.969  11.876  -6.087  1.00 24.17 LIG 0.04  C 
BRANCH 64 65
ATOM     65  CG  ARG X 129      -0.254  11.545  -5.353  1.00 28.32 LIG 0.02  C 
BRANCH 65 66
ATOM     66  CD  ARG X 129      -0.023  10.860  -4.019  1.00 31.43 LIG 0.14  C 
BRANCH 66 67
ATOM     67  NE  ARG X 129       0.422  11.726  -2.918  1.00 29.42 LIG-0.23  N 
ATOM     68  CZ  ARG X 129      -0.260  11.962  -1.803  1.00 30.66 LIG 0.67  C 
ATOM     69  NH1 ARG X 129      -1.492  11.488  -1.635  1.00 33.32 LIG-0.23  N 
ATOM     70  NH2 ARG X 129       0.286  12.724  -0.848  1.00 29.67 LIG-0.23  N 
ATOM     71 2HH1 ARG X 129      -1.920  11.649  -0.907  1.00 33.32 LIG 0.17  HD
ATOM     72 1HH1 ARG X 129      -1.861  11.019  -2.255  1.00 33.32 LIG 0.17  HD
ATOM     73 2HH2 ARG X 129      -0.148  12.881  -0.123  1.00 29.67 LIG 0.17  HD
ATOM     74 1HH2 ARG X 129       1.072  13.056  -0.959  1.00 29.67 LIG 0.17  HD
ATOM     75 HE   ARG X 129       1.186  12.112  -3.003  1.00 29.42 LIG 0.18  HD
ENDBRANCH 66 67
ENDBRANCH 65 66
ENDBRANCH 64 65
ENDBRANCH 1 64
TORSDOF 27
