REMARK  30 active torsions:
REMARK  status: ('A' for Active; 'I' for Inactive)
REMARK    1  A    between atoms: N_1  and  CA_2 
REMARK    2  A    between atoms: CA_2  and  CB_5 
REMARK    3  A    between atoms: CA_2  and  C_3 
REMARK       I    between atoms: C_3  and  N_13 
REMARK    4  A    between atoms: CB_5  and  CG_6 
REMARK    5  A    between atoms: CG_6  and  CD_7 
REMARK    6  A    between atoms: N_13  and  CA_14 
REMARK    7  A    between atoms: CA_14  and  C_15 
REMARK    8  A    between atoms: CA_14  and  CB_17 
REMARK       I    between atoms: C_15  and  N_22 
REMARK    9  A    between atoms: CB_17  and  CG_18 
REMARK   10  A    between atoms: N_22  and  CA_23 
REMARK   11  A    between atoms: CA_23  and  C_24 
REMARK   12  A    between atoms: CA_23  and  CB_26 
REMARK       I    between atoms: C_24  and  N_31 
REMARK   13  A    between atoms: CB_26  and  CG_27 
REMARK   14  A    between atoms: N_31  and  CA_32 
REMARK   15  A    between atoms: CA_32  and  CB_35 
REMARK   16  A    between atoms: CA_32  and  C_33 
REMARK       I    between atoms: C_33  and  N_44 
REMARK   17  A    between atoms: CB_35  and  CG_36 
REMARK   18  A    between atoms: CG_36  and  CD_37 
REMARK   19  A    between atoms: CD_37  and  CE_38 
REMARK   20  A    between atoms: CE_38  and  NZ_39 
REMARK   21  A    between atoms: N_44  and  CA_45 
REMARK   22  A    between atoms: CA_45  and  C_46 
REMARK   23  A    between atoms: CA_45  and  CB_48 
REMARK       I    between atoms: C_46  and  N_60 
REMARK   24  A    between atoms: CB_48  and  CG_49 
REMARK   25  A    between atoms: N_60  and  CA_61 
REMARK   26  A    between atoms: CA_61  and  C_62 
REMARK       I    between atoms: C_62  and  N_66 
REMARK   27  A    between atoms: N_66  and  CA_67 
REMARK   28  A    between atoms: CA_67  and  CB_70 
REMARK   29  A    between atoms: CA_67  and  C_68 
REMARK   30  A    between atoms: CB_70  and  OG_71 
ROOT
ATOM      1  CA  LYS P   4       1.768  55.797  82.785  1.00 24.08     0.176 C 
ENDROOT
BRANCH   1   2
ATOM      2  N   LYS P   4       2.371  55.505  81.488  1.00 23.78    -0.346 N 
ATOM      3  H   LYS P   4       2.202  54.717  81.189  1.00 23.78     0.163 HD
ATOM      4  C   ASP P   3       3.115  56.399  80.842  1.00 23.78     0.241 C 
ATOM      5  O   ASP P   3       3.367  57.517  81.298  1.00 23.70    -0.271 OA
BRANCH   4   6
ATOM      6  CA  ASP P   3       3.679  55.956  79.498  1.00 23.69     0.186 C 
BRANCH   6   7
ATOM      7  CB  ASP P   3       4.875  55.026  79.730  1.00 23.04     0.147 C 
BRANCH   7   8
ATOM      8  CG  ASP P   3       4.535  53.834  80.611  1.00 22.74     0.175 C 
ATOM      9  OD2 ASP P   3       5.178  53.669  81.672  1.00 21.45    -0.648 OA
ATOM     10  OD1 ASP P   3       3.619  53.062  80.239  1.00 22.26    -0.648 OA
ENDBRANCH   7   8
ENDBRANCH   6   7
BRANCH   6  11
ATOM     11  N   ASP P   3       4.088  57.109  78.698  1.00 24.40    -0.346 N 
ATOM     12  C   LEU P   2       3.233  58.051  78.311  1.00 25.13     0.241 C 
ATOM     13  O   LEU P   2       2.035  58.030  78.592  1.00 24.84    -0.271 OA
ATOM     14  H   ASP P   3       4.926  57.120  78.504  1.00 24.40     0.163 HD
BRANCH  12  15
ATOM     15  CA  LEU P   2       3.827  59.192  77.489  1.00 25.73     0.177 C 
BRANCH  15  16
ATOM     16  N   LEU P   2       2.883  59.761  76.529  1.00 26.50    -0.346 N 
ATOM     17  H   LEU P   2       2.631  60.562  76.716  1.00 26.50     0.163 HD
ATOM     18  C   GLU P   1       2.460  59.086  75.463  1.00 27.13     0.249 C 
ATOM     19  O   GLU P   1       2.816  57.933  75.210  1.00 26.76    -0.271 OA
BRANCH  18  20
ATOM     20  CA  GLU P   1       1.482  59.819  74.542  1.00 27.85     0.275 C 
BRANCH  20  21
ATOM     21  N   GLU P   1       1.227  59.008  73.319  1.00 27.86    -0.066 N 
ATOM     22  H2  GLU P   1       1.905  58.446  73.188  1.00 27.86     0.275 HD
ATOM     23  H3  GLU P   1       0.474  58.545  73.421  1.00 27.86     0.275 HD
ATOM     24  H1  GLU P   1       1.150  59.548  72.615  1.00 27.86     0.275 HD
ENDBRANCH  20  21
BRANCH  20  25
ATOM     25  CB  GLU P   1       0.168  60.084  75.288  1.00 28.74     0.053 C 
BRANCH  25  26
ATOM     26  CG  GLU P   1      -0.393  58.880  76.039  1.00 29.95     0.115 C 
BRANCH  26  27
ATOM     27  CD  GLU P   1      -1.139  57.906  75.144  1.00 30.73     0.172 C 
ATOM     28  OE2 GLU P   1      -2.267  57.521  75.504  1.00 30.75    -0.648 OA
ATOM     29  OE1 GLU P   1      -0.601  57.513  74.088  1.00 31.83    -0.648 OA
ENDBRANCH  26  27
ENDBRANCH  25  26
ENDBRANCH  20  25
ENDBRANCH  18  20
ENDBRANCH  15  16
BRANCH  15  30
ATOM     30  CB  LEU P   2       4.336  60.280  78.440  1.00 26.14     0.038 C 
BRANCH  30  31
ATOM     31  CG  LEU P   2       5.333  61.303  77.884  1.00 26.56    -0.020 C 
ATOM     32  CD2 LEU P   2       6.655  60.615  77.590  1.00 26.97     0.009 C 
ATOM     33  CD1 LEU P   2       5.529  62.434  78.901  1.00 26.91     0.009 C 
ENDBRANCH  30  31
ENDBRANCH  15  30
ENDBRANCH  12  15
ENDBRANCH   6  11
ENDBRANCH   4   6
ENDBRANCH   1   2
BRANCH   1  34
ATOM     34  CB  LYS P   4       1.063  54.550  83.332  1.00 23.66     0.035 C 
BRANCH  34  35
ATOM     35  CG  LYS P   4       0.266  54.757  84.630  1.00 23.42     0.004 C 
BRANCH  35  36
ATOM     36  CD  LYS P   4      -0.494  53.477  84.996  1.00 22.86     0.027 C 
BRANCH  36  37
ATOM     37  CE  LYS P   4      -1.512  53.691  86.128  1.00 22.94     0.229 C 
BRANCH  37  38
ATOM     38  NZ  LYS P   4      -2.545  54.717  85.772  1.00 22.16    -0.079 N 
ATOM     39  HZ3 LYS P   4      -2.804  54.597  84.929  1.00 22.16     0.274 HD
ATOM     40  HZ1 LYS P   4      -3.247  54.632  86.313  1.00 22.16     0.274 HD
ATOM     41  HZ2 LYS P   4      -2.198  55.532  85.862  1.00 22.16     0.274 HD
ENDBRANCH  37  38
ENDBRANCH  36  37
ENDBRANCH  35  36
ENDBRANCH  34  35
ENDBRANCH   1  34
BRANCH   1  42
ATOM     42  C   LYS P   4       2.792  56.264  83.815  1.00 24.65     0.241 C 
ATOM     43  O   LYS P   4       2.501  57.127  84.636  1.00 24.26    -0.271 OA
ATOM     44  N   TRP P   5       3.994  55.703  83.761  1.00 25.14    -0.346 N 
ATOM     45  H   TRP P   5       4.239  55.131  83.168  1.00 25.14     0.163 HD
BRANCH  44  46
ATOM     46  CA  TRP P   5       5.011  56.040  84.748  1.00 26.12     0.181 C 
BRANCH  46  47
ATOM     47  C   TRP P   5       6.122  56.991  84.301  1.00 26.95     0.241 C 
ATOM     48  O   TRP P   5       7.091  57.187  85.026  1.00 26.69    -0.271 OA
ATOM     49  N   ALA P   6       5.972  57.587  83.122  1.00 28.22    -0.346 N 
ATOM     50  H   ALA P   6       5.296  57.468  82.604  1.00 28.22     0.163 HD
BRANCH  49  51
ATOM     51  CA  ALA P   6       6.975  58.513  82.607  1.00 29.75     0.172 C 
ATOM     52  CB  ALA P   6       6.794  58.701  81.108  1.00 29.57     0.042 C 
BRANCH  51  53
ATOM     53  C   ALA P   6       6.915  59.866  83.301  1.00 31.01     0.240 C 
ATOM     54  N   SER P   7       8.034  60.584  83.252  1.00 32.38    -0.343 N 
ATOM     55  H   SER P   7       8.751  60.306  82.866  1.00 32.38     0.163 HD
ATOM     56  O   ALA P   6       5.884  60.244  83.856  1.00 31.33    -0.271 OA
BRANCH  54  57
ATOM     57  CA  SER P   7       8.170  61.911  83.842  1.00 33.79     0.209 C 
BRANCH  57  58
ATOM     58  CB  SER P   7       6.974  62.790  83.457  1.00 34.23     0.200 C 
BRANCH  58  59
ATOM     59  OG  SER P   7       6.954  63.013  82.057  1.00 34.80    -0.398 OA
ATOM     60  HG  SER P   7       6.294  63.494  81.859  1.00 34.80     0.209 HD
ENDBRANCH  58  59
ENDBRANCH  57  58
BRANCH  57  61
ATOM     61  C   SER P   7       8.308  61.868  85.351  1.00 34.43     0.198 C 
ATOM     62  O   SER P   7       9.462  61.963  85.839  1.00 34.68    -0.646 OA
ATOM     63  OXT SER P   7       7.261  61.731  86.020  1.00 35.29    -0.646 OA
ENDBRANCH  57  61
ENDBRANCH  54  57
ENDBRANCH  51  53
ENDBRANCH  49  51
ENDBRANCH  46  47
BRANCH  46  64
ATOM     64  CB  TRP P   5       5.616  54.737  85.286  1.00 25.45     0.075 C 
BRANCH  64  65
ATOM     65  CG  TRP P   5       4.554  53.747  85.660  1.00 25.18    -0.028 A 
ATOM     66  CD1 TRP P   5       4.227  52.594  84.997  1.00 25.03     0.096 A 
ATOM     67  NE1 TRP P   5       3.149  51.989  85.601  1.00 24.37    -0.365 N 
ATOM     68  CE2 TRP P   5       2.759  52.747  86.673  1.00 24.69     0.042 A 
ATOM     69  HE1 TRP P   5       2.780  51.255  85.347  1.00 24.37     0.165 HD
ATOM     70  CZ2 TRP P   5       1.719  52.547  87.588  1.00 24.50     0.030 A 
ATOM     71  CD2 TRP P   5       3.626  53.865  86.740  1.00 24.80    -0.002 A 
ATOM     72  CH2 TRP P   5       1.555  53.487  88.581  1.00 24.87     0.002 A 
ATOM     73  CZ3 TRP P   5       2.399  54.609  88.676  1.00 24.98     0.001 A 
ATOM     74  CE3 TRP P   5       3.439  54.807  87.761  1.00 25.01     0.014 A 
ENDBRANCH  64  65
ENDBRANCH  46  64
ENDBRANCH  44  46
ENDBRANCH   1  42
TORSDOF 30
