USER: ADFR SOLUTION from run 0
USER: SCORE 10.953811 LL:  -3.480 LR: -10.021 RR:   0.000 FEB:  -3.160
USER: RMSD 0.953947
USER: STATUS Locally minimized using BFGS
USER: GENES 25
USER: genes 0 Translation |==|  0.45455 0.55074 0.55923
USER: genes 1 Rotation |==|  0.52444 0.51029 0.48554 0.99909
USER: genes 2 Torsion [CB]-CA--N-[C] |==|  0.45006
USER: genes 3 Torsion [N]-C--CA-[N] |==|  0.20517
USER: genes 4 Torsion [C]-CA--CB-[CG] |==|  0.15094
USER: genes 5 Torsion [CA]-CB--CG-[CD] |==|  0.48321
USER: genes 6 Torsion [CB]-CG--CD-[NE] |==|  0.48540
USER: genes 7 Torsion [CG]-CD--NE-[HE] |==|  0.97939
USER: genes 8 Torsion [C]-CA--N-[C] |==|  0.17629
USER: genes 9 Torsion [N]-C--CA-[N] |==|  0.22877
USER: genes 10 Torsion [C]-CA--N-[C] |==|  0.59230
USER: genes 11 Torsion [N]-C--CA-[N] |==|  0.27238
USER: genes 12 Torsion [N]-CA--C-[N] |==|  0.43333
USER: genes 13 Torsion [C]-N--CA-[C] |==|  0.53630
USER: genes 14 Torsion [N]-CA--C-[N] |==|  0.50017
USER: genes 15 Torsion [C]-N--CA-[C] |==|  0.78658
USER: genes 16 Torsion [N]-CA--C-[N] |==|  0.44562
USER: genes 17 Torsion [C]-N--CA-[CB] |==|  0.48500
USER: genes 18 Torsion [N]-CA--CB-[OG] |==|  0.19103
USER: genes 19 Torsion [CA]-CB--OG-[HG] |==|  0.77248
USER: genes 20 Torsion [N]-CA--C-[OXT] |==|  0.91486
USER: genes 21 Torsion [N]-CA--CB-[OG] |==|  0.84478
USER: genes 22 Torsion [CA]-CB--OG-[HG] |==|  0.00410
USER: genes 23 Torsion [N]-CA--CB-[CG] |==|  0.12207
USER: genes 24 Torsion [CA]-CB--CG-[CD2] |==|  0.28377
ROOT
ATOM      1  CA  ALA B 364      31.451 -13.808  -6.851  1.00 28.10 LIG 0.17  C 
ATOM      2  CB  ALA B 364      30.611 -12.544  -6.923  1.00 26.12 LIG 0.04  C 
ENDROOT
BRANCH 1 3
ATOM      3  N   ALA B 364      31.025 -14.628  -5.721  1.00 32.12 LIG-0.35  N 
ATOM      4 H    ALA B 364      30.562 -14.210  -5.130  1.00 32.12 LIG 0.16  HD
ATOM      5  C   ARG B 363      31.345 -15.916  -5.645  1.00 35.84 LIG 0.24  C 
ATOM      6 O    ARG B 363      31.996 -16.488  -6.517  1.00 34.68 LIG-0.27  OA
BRANCH 5 7
ATOM      7  CA  ARG B 363      30.864 -16.671  -4.401  1.00 40.75 LIG 0.18  C 
BRANCH 7 8
ATOM      8  CB  ARG B 363      31.671 -17.967  -4.242  1.00 43.30 LIG 0.04  C 
BRANCH 8 9
ATOM      9  CG  ARG B 363      33.178 -17.744  -4.219  1.00 48.42 LIG 0.02  C 
BRANCH 9 10
ATOM     10  CD  ARG B 363      33.962 -19.014  -3.915  1.00 50.65 LIG 0.14  C 
BRANCH 10 11
ATOM     11  NE  ARG B 363      35.403 -18.782  -4.025  1.00 53.91 LIG-0.23  N 
ATOM     12 HE   ARG B 363      35.662 -18.023  -4.334  1.00 53.91 LIG 0.18  HD
ATOM     13  CZ  ARG B 363      36.339 -19.663  -3.681  1.00 54.64 LIG 0.67  C 
ATOM     14  NH2 ARG B 363      37.623 -19.359  -3.823  1.00 53.91 LIG-0.23  N 
ATOM     15  NH1 ARG B 363      35.994 -20.850  -3.196  1.00 54.84 LIG-0.23  N 
ATOM     16 1HH2 ARG B 363      37.851 -18.592  -4.138  1.00 53.91 LIG 0.17  HD
ATOM     17 2HH2 ARG B 363      38.227 -19.929  -3.600  1.00 53.91 LIG 0.17  HD
ATOM     18 1HH1 ARG B 363      35.163 -21.051  -3.104  1.00 54.84 LIG 0.17  HD
ATOM     19 2HH1 ARG B 363      36.601 -21.417  -2.975  1.00 54.84 LIG 0.17  HD
ENDBRANCH 10 11
ENDBRANCH 9 10
ENDBRANCH 8 9
ENDBRANCH 7 8
BRANCH 7 20
ATOM     20  N   ARG B 363      29.435 -16.963  -4.389  1.00 43.94 LIG-0.35  N 
ATOM     21  C   ALA B 362      28.846 -17.752  -5.284  1.00 45.99 LIG 0.24  C 
ATOM     22 O    ALA B 362      29.448 -18.295  -6.213  1.00 46.10 LIG-0.27  OA
ATOM     23 H    ARG B 363      29.009 -16.578  -3.749  1.00 43.94 LIG 0.16  HD
BRANCH 21 24
ATOM     24  CA  ALA B 362      27.344 -17.945  -5.104  1.00 47.39 LIG 0.17  C 
ATOM     25  CB  ALA B 362      26.899 -19.254  -5.749  1.00 48.25 LIG 0.04  C 
BRANCH 24 26
ATOM     26  N   ALA B 362      26.621 -16.826  -5.692  1.00 48.90 LIG-0.35  N 
ATOM     27  C   GLY B 361      25.480 -16.378  -5.179  1.00 49.70 LIG 0.25  C 
ATOM     28 O    GLY B 361      24.950 -16.875  -4.181  1.00 50.52 LIG-0.27  OA
ATOM     29 H    ALA B 362      26.996 -16.490  -6.390  1.00 48.90 LIG 0.16  HD
BRANCH 27 30
ATOM     30  CA  GLY B 361      24.840 -15.206  -5.894  1.00 49.65 LIG 0.47  C 
ATOM     31  N   GLY B 361      23.765 -15.645  -6.820  1.00 49.05 LIG 0.61  N 
ENDBRANCH 27 30
ENDBRANCH 24 26
ENDBRANCH 21 24
ENDBRANCH 7 20
ENDBRANCH 5 7
ENDBRANCH 1 3
BRANCH 1 32
ATOM     32  C   ALA B 364      32.928 -13.463  -6.648  1.00 26.37 LIG 0.24  C 
ATOM     33  N   HIS B 365      33.633 -13.164  -7.737  1.00 23.61 LIG-0.35  N 
ATOM     34 H    HIS B 365      33.305 -13.142  -8.531  1.00 23.61 LIG 0.16  HD
ATOM     35 O    ALA B 364      33.421 -13.475  -5.521  1.00 24.80 LIG-0.27  OA
BRANCH 33 36
ATOM     36  CA  HIS B 365      35.056 -12.842  -7.659  1.00 22.03 LIG 0.18  C 
BRANCH 36 37
ATOM     37  C   HIS B 365      35.573 -12.229  -8.958  1.00 20.85 LIG 0.24  C 
ATOM     38 O    HIS B 365      34.826 -12.061  -9.918  1.00 18.88 LIG-0.27  OA
ATOM     39  N   SER B 366      36.862 -11.906  -8.975  1.00 20.61 LIG-0.34  N 
ATOM     40 H    SER B 366      37.391 -12.020  -8.306  1.00 20.61 LIG 0.16  HD
BRANCH 39 41
ATOM     41  CA  SER B 366      37.504 -11.320 -10.146  1.00 22.02 LIG 0.20  C 
BRANCH 41 42
ATOM     42  C   SER B 366      37.768 -12.390 -11.197  1.00 20.47 LIG 0.24  C 
ATOM     43 O    SER B 366      37.795 -13.581 -10.885  1.00 18.56 LIG-0.27  OA
ATOM     44  N   SER B 367      37.966 -11.958 -12.439  1.00 19.80 LIG-0.34  N 
ATOM     45 H    SER B 367      37.944 -11.129 -12.669  1.00 19.80 LIG 0.16  HD
BRANCH 44 46
ATOM     46  CA  SER B 367      38.244 -12.880 -13.537  1.00 20.54 LIG 0.21  C 
BRANCH 46 47
ATOM     47  CB  SER B 367      38.298 -12.133 -14.874  1.00 20.61 LIG 0.20  C 
BRANCH 47 48
ATOM     48 OG   SER B 367      39.430 -11.286 -14.953  1.00 20.78 LIG-0.40  OA
ATOM     49 HG   SER B 367      39.268 -10.564 -14.555  1.00 20.78 LIG 0.21  HD
ENDBRANCH 47 48
ENDBRANCH 46 47
BRANCH 46 50
ATOM     50  C   SER B 367      39.566 -13.606 -13.306  1.00 22.30 LIG 0.20  C 
ATOM     51 O    SER B 367      39.694 -14.760 -13.774  1.00 20.52 LIG-0.65  OA
ATOM     52 OXT  SER B 367      40.463 -13.003 -12.675  1.00 22.33 LIG-0.65  OA
ENDBRANCH 46 50
ENDBRANCH 44 46
ENDBRANCH 41 42
BRANCH 41 53
ATOM     53  CB  SER B 366      38.837 -10.674  -9.751  1.00 25.29 LIG 0.20  C 
BRANCH 53 54
ATOM     54 OG   SER B 366      38.654  -9.715  -8.723  1.00 34.76 LIG-0.40  OA
ATOM     55 HG   SER B 366      37.843  -9.691  -8.504  1.00 34.76 LIG 0.21  HD
ENDBRANCH 53 54
ENDBRANCH 41 53
ENDBRANCH 39 41
ENDBRANCH 36 37
BRANCH 36 56
ATOM     56  CB  HIS B 365      35.857 -14.108  -7.358  1.00 23.96 LIG 0.10  C 
BRANCH 56 57
ATOM     57  CG  HIS B 365      35.419 -15.293  -8.162  1.00 26.34 LIG 0.06  A 
ATOM     58 ND1  HIS B 365      34.250 -15.976  -7.903  1.00 28.92 LIG-0.24  NA
ATOM     59  CE1 HIS B 365      34.089 -16.927  -8.805  1.00 27.03 LIG 0.23  A 
ATOM     60 NE2  HIS B 365      35.113 -16.887  -9.639  1.00 28.88 LIG-0.25  NA
ATOM     61  CD2 HIS B 365      35.960 -15.874  -9.258  1.00 26.83 LIG 0.14  A 
ENDBRANCH 56 57
ENDBRANCH 36 56
ENDBRANCH 33 36
ENDBRANCH 1 32
TORSDOF 23
