USER: ADFR SOLUTION from run 0
USER: SCORE 11.714358 LL:  -3.413 LR:  -9.801 RR:   0.000 FEB:  -4.133
USER: RMSD 2.687530
USER: STATUS Locally minimized using BFGS
USER: GENES 21
USER: genes 0 Translation |==|  0.47720 0.54431 0.42312
USER: genes 1 Rotation |==|  0.51921 0.48342 0.46185 0.99790
USER: genes 2 Torsion [N]-C--CA-[N] |==|  0.46208
USER: genes 3 Torsion [C]-CA--N-[C] |==|  0.81167
USER: genes 4 Torsion [N]-C--CA-[N] |==|  0.49101
USER: genes 5 Torsion [C]-CA--N-[C] |==|  0.55645
USER: genes 6 Torsion [N]-C--CA-[N] |==|  0.45738
USER: genes 7 Torsion [N]-C--CA-[N] |==|  0.42981
USER: genes 8 Torsion [C]-CA--CB-[CG] |==|  0.45581
USER: genes 9 Torsion [CA]-CB--CG-[CD] |==|  0.16496
USER: genes 10 Torsion [CB]-CG--CD-[OE2] |==|  0.64920
USER: genes 11 Torsion [C]-N--CA-[CB] |==|  0.52778
USER: genes 12 Torsion [N]-CA--CB-[OG] |==|  0.11744
USER: genes 13 Torsion [CA]-CB--OG-[HG] |==|  0.73741
USER: genes 14 Torsion [N]-CA--C-[N] |==|  0.93283
USER: genes 15 Torsion [C]-N--CA-[CB] |==|  0.44000
USER: genes 16 Torsion [N]-CA--C-[OXT] |==|  0.13492
USER: genes 17 Torsion [N]-CA--CB-[CG] |==|  0.85397
USER: genes 18 Torsion [CA]-CB--CG-[CD] |==|  0.50064
USER: genes 19 Torsion [CB]-CG--CD-[NE] |==|  0.53943
USER: genes 20 Torsion [CG]-CD--NE-[HE] |==|  0.01599
ROOT
ATOM      1  C   GLY B 361      37.655 -12.083 -11.179  1.00 26.32 LIG 0.24  C 
ATOM      2 O    GLY B 361      37.636 -13.270 -10.853  1.00 25.16 LIG-0.27  OA
ATOM      3  N   SER B 362      37.947 -11.677 -12.410  1.00 27.60 LIG-0.34  N 
ATOM      4 H    SER B 362      37.979 -10.852 -12.650  1.00 27.60 LIG 0.16  HD
ENDROOT
BRANCH 1 5
ATOM      5  CA  GLY B 361      37.347 -11.004 -10.156  1.00 24.90 LIG 0.23  C 
BRANCH 5 6
ATOM      6  N   GLY B 361      36.742 -11.579  -8.967  1.00 24.70 LIG-0.35  N 
ATOM      7  C   GLY B 360      35.525 -12.114  -9.010  1.00 25.98 LIG 0.23  C 
ATOM      8 O    GLY B 360      34.828 -12.135 -10.034  1.00 23.45 LIG-0.27  OA
ATOM      9 H    GLY B 361      37.231 -11.542  -8.261  1.00 24.70 LIG 0.16  HD
BRANCH 7 10
ATOM     10  CA  GLY B 360      35.001 -12.701  -7.717  1.00 26.97 LIG 0.23  C 
BRANCH 10 11
ATOM     11  N   GLY B 360      33.643 -13.176  -7.891  1.00 32.20 LIG-0.35  N 
ATOM     12  C   PRO B 359      32.843 -13.356  -6.846  1.00 35.92 LIG 0.24  C 
ATOM     13 O    PRO B 359      33.193 -13.140  -5.688  1.00 37.04 LIG-0.27  OA
ATOM     14 H    GLY B 360      33.415 -13.324  -8.707  1.00 32.20 LIG 0.16  HD
BRANCH 12 15
ATOM     15  CA  PRO B 359      31.436 -13.856  -7.156  1.00 39.21 LIG 0.18  C 
ATOM     16  CB  PRO B 359      30.514 -12.738  -7.635  1.00 38.88 LIG 0.04  C 
ATOM     17  CG  PRO B 359      29.924 -12.229  -6.359  1.00 39.81 LIG 0.02  C 
ATOM     18  CD  PRO B 359      29.587 -13.515  -5.636  1.00 41.55 LIG 0.13  C 
ATOM     19  N   PRO B 359      30.741 -14.368  -5.970  1.00 42.03 LIG-0.34  N 
ATOM     20  C   GLU B 358      31.195 -15.423  -5.278  1.00 44.90 LIG 0.26  C 
ATOM     21 O    GLU B 358      32.225 -16.020  -5.599  1.00 45.02 LIG-0.27  OA
BRANCH 20 22
ATOM     22  CA  GLU B 358      30.384 -15.862  -4.061  1.00 48.47 LIG 0.40  C 
ATOM     23  N   GLU B 358      30.615 -17.310  -3.778  1.00 49.88 LIG 0.61  N 
BRANCH 22 24
ATOM     24  CB  GLU B 358      30.786 -15.014  -2.848  1.00 52.00 LIG 0.06  C 
BRANCH 24 25
ATOM     25  CG  GLU B 358      29.811 -15.071  -1.675  1.00 56.00 LIG 0.12  C 
BRANCH 25 26
ATOM     26  CD  GLU B 358      29.624 -16.481  -1.136  1.00 58.41 LIG 0.17  C 
ATOM     27 OE1  GLU B 358      30.642 -17.130  -0.806  1.00 59.40 LIG-0.65  OA
ATOM     28 OE2  GLU B 358      28.463 -16.936  -1.043  1.00 59.45 LIG-0.65  OA
ENDBRANCH 25 26
ENDBRANCH 24 25
ENDBRANCH 22 24
ENDBRANCH 20 22
ENDBRANCH 12 15
ENDBRANCH 10 11
ENDBRANCH 7 10
ENDBRANCH 5 6
ENDBRANCH 1 5
BRANCH 3 29
ATOM     29  CA  SER B 362      38.242 -12.630 -13.476  1.00 31.63 LIG 0.20  C 
BRANCH 29 30
ATOM     30  CB  SER B 362      38.782 -11.894 -14.712  1.00 29.14 LIG 0.20  C 
BRANCH 30 31
ATOM     31 OG   SER B 362      39.707 -10.885 -14.352  1.00 25.13 LIG-0.40  OA
ATOM     32 HG   SER B 362      39.308 -10.149 -14.288  1.00 25.13 LIG 0.21  HD
ENDBRANCH 30 31
ENDBRANCH 29 30
BRANCH 29 33
ATOM     33  C   SER B 362      39.200 -13.767 -13.114  1.00 35.65 LIG 0.24  C 
ATOM     34 O    SER B 362      39.167 -14.821 -13.747  1.00 37.77 LIG-0.27  OA
ATOM     35  N   ARG B 363      40.050 -13.566 -12.109  1.00 40.10 LIG-0.34  N 
ATOM     36 H    ARG B 363      40.089 -12.844 -11.643  1.00 40.10 LIG 0.16  HD
BRANCH 35 37
ATOM     37  CA  ARG B 363      41.010 -14.603 -11.717  1.00 45.15 LIG 0.18  C 
BRANCH 37 38
ATOM     38  C   ARG B 363      40.385 -15.711 -10.870  1.00 46.43 LIG 0.20  C 
ATOM     39 O    ARG B 363      40.971 -16.050  -9.819  1.00 47.78 LIG-0.65  OA
ATOM     40 OXT  ARG B 363      39.319 -16.231 -11.266  1.00 47.46 LIG-0.65  OA
ENDBRANCH 37 38
BRANCH 37 41
ATOM     41  CB  ARG B 363      42.186 -13.987 -10.951  1.00 48.51 LIG 0.04  C 
BRANCH 41 42
ATOM     42  CG  ARG B 363      42.862 -12.831 -11.665  1.00 53.09 LIG 0.02  C 
BRANCH 42 43
ATOM     43  CD  ARG B 363      44.017 -12.281 -10.845  1.00 56.16 LIG 0.14  C 
BRANCH 43 44
ATOM     44  NE  ARG B 363      44.467 -10.981 -11.338  1.00 60.73 LIG-0.23  N 
ATOM     45 HE   ARG B 363      44.015 -10.612 -11.970  1.00 60.73 LIG 0.18  HD
ATOM     46  CZ  ARG B 363      45.531 -10.331 -10.871  1.00 63.15 LIG 0.67  C 
ATOM     47  NH2 ARG B 363      45.865  -9.148 -11.375  1.00 63.96 LIG-0.23  N 
ATOM     48  NH1 ARG B 363      46.262 -10.862  -9.899  1.00 63.92 LIG-0.23  N 
ATOM     49 1HH2 ARG B 363      45.394  -8.798 -12.004  1.00 63.96 LIG 0.17  HD
ATOM     50 2HH2 ARG B 363      46.553  -8.731 -11.071  1.00 63.96 LIG 0.17  HD
ATOM     51 1HH1 ARG B 363      46.050 -11.628  -9.570  1.00 63.92 LIG 0.17  HD
ATOM     52 2HH1 ARG B 363      46.949 -10.441  -9.598  1.00 63.92 LIG 0.17  HD
ENDBRANCH 43 44
ENDBRANCH 42 43
ENDBRANCH 41 42
ENDBRANCH 37 41
ENDBRANCH 35 37
ENDBRANCH 29 33
ENDBRANCH 3 29
TORSDOF 19
