REMARK  24 active torsions:
REMARK  status: ('A' for Active; 'I' for Inactive)
REMARK    1  A    between atoms: N_1  and  CA_2 
REMARK    2  A    between atoms: CA_2  and  C_3 
REMARK       I    between atoms: C_3  and  N_9 
REMARK    3  A    between atoms: N_9  and  CA_10 
REMARK    4  A    between atoms: CA_10  and  C_11 
REMARK    5  A    between atoms: CA_10  and  CB_13 
REMARK       I    between atoms: C_11  and  N_26 
REMARK    6  A    between atoms: CB_13  and  CG_14 
REMARK    7  A    between atoms: CG_14  and  CD_15 
REMARK    8  A    between atoms: CD_15  and  NE_16 
REMARK       I    between atoms: NE_16  and  CZ_17 
REMARK       I    between atoms: CZ_17  and  NH1_18 
REMARK    9  A    between atoms: N_26  and  CA_27 
REMARK   10  A    between atoms: CA_27  and  C_28 
REMARK   11  A    between atoms: CA_27  and  CB_30 
REMARK       I    between atoms: C_28  and  N_35 
REMARK   12  A    between atoms: CB_30  and  OG1_31 
REMARK   13  A    between atoms: N_35  and  CA_36 
REMARK   14  A    between atoms: CA_36  and  C_37 
REMARK   15  A    between atoms: CA_36  and  CB_39 
REMARK       I    between atoms: C_37  and  N_48 
REMARK   16  A    between atoms: CB_39  and  CG_40 
REMARK   17  A    between atoms: CG_40  and  CD_41 
REMARK   18  A    between atoms: CD_41  and  CE_42 
REMARK   19  A    between atoms: CE_42  and  NZ_43 
REMARK   20  A    between atoms: N_48  and  CA_49 
REMARK   21  A    between atoms: CA_49  and  C_50 
REMARK   22  A    between atoms: CA_49  and  CB_52 
REMARK   23  A    between atoms: CB_52  and  CG_53 
REMARK   24  A    between atoms: CG_53  and  CD_54 
REMARK       I    between atoms: CD_54  and  NE2_56 
ROOT
ATOM      1  CA  THR D   3      16.148 -17.607  17.985  1.00 16.13     0.205 C 
ENDROOT
BRANCH   1   2
ATOM      2  C   THR D   3      15.911 -17.580  16.467  1.00 16.95     0.243 C 
ATOM      3  O   THR D   3      14.891 -18.087  15.990  1.00 16.12    -0.271 OA
ATOM      4  N   LYS D   4      16.857 -16.989  15.731  1.00 18.15    -0.346 N 
ATOM      5  H   LYS D   4      17.542 -16.604  16.079  1.00 18.15     0.163 HD
BRANCH   4   6
ATOM      6  CA  LYS D   4      16.841 -16.927  14.261  1.00 19.65     0.176 C 
BRANCH   6   7
ATOM      7  C   LYS D   4      18.075 -17.610  13.710  1.00 20.62     0.241 C 
ATOM      8  O   LYS D   4      19.157 -17.505  14.296  1.00 20.86    -0.271 OA
ATOM      9  N   GLN D   5      17.922 -18.296  12.581  1.00 21.55    -0.347 N 
ATOM     10  H   GLN D   5      17.177 -18.368  12.158  1.00 21.55     0.163 HD
BRANCH   9  11
ATOM     11  CA  GLN D   5      19.048 -19.002  11.956  1.00 22.83     0.163 C 
BRANCH  11  12
ATOM     12  C   GLN D   5      19.811 -18.117  10.972  1.00 22.91     0.219 C 
ATOM     13  O   GLN D   5      19.423 -16.978  10.707  1.00 23.29    -0.287 OA
ENDBRANCH  11  12
BRANCH  11  14
ATOM     14  CB  GLN D   5      18.579 -20.286  11.267  1.00 22.86     0.043 C 
BRANCH  14  15
ATOM     15  CG  GLN D   5      17.313 -20.134  10.442  1.00 24.40     0.105 C 
BRANCH  15  16
ATOM     16  CD  GLN D   5      16.945 -21.391   9.676  1.00 24.21     0.215 C 
ATOM     17  NE2 GLN D   5      15.697 -21.836   9.834  1.00 25.13    -0.370 N 
ATOM     18 2HE2 GLN D   5      15.437 -22.542   9.418  1.00 25.13     0.159 HD
ATOM     19 1HE2 GLN D   5      15.153 -21.416  10.351  1.00 25.13     0.159 HD
ATOM     20  OE1 GLN D   5      17.768 -21.955   8.945  1.00 25.71    -0.274 OA
ENDBRANCH  15  16
ENDBRANCH  14  15
ENDBRANCH  11  14
ENDBRANCH   9  11
ENDBRANCH   6   7
BRANCH   6  21
ATOM     21  CB  LYS D   4      16.868 -15.476  13.772  1.00 19.73     0.035 C 
BRANCH  21  22
ATOM     22  CG  LYS D   4      15.569 -14.724  13.871  1.00 20.49     0.004 C 
BRANCH  22  23
ATOM     23  CD  LYS D   4      15.767 -13.298  13.382  1.00 20.73     0.027 C 
BRANCH  23  24
ATOM     24  CE  LYS D   4      14.478 -12.518  13.474  1.00 20.46     0.229 C 
BRANCH  24  25
ATOM     25  NZ  LYS D   4      14.720 -11.061  13.350  1.00 20.02    -0.079 N 
ATOM     26  HZ3 LYS D   4      14.906 -10.862  12.503  1.00 20.02     0.274 HD
ATOM     27  HZ1 LYS D   4      13.993 -10.616  13.606  1.00 20.02     0.274 HD
ATOM     28  HZ2 LYS D   4      15.407 -10.829  13.866  1.00 20.02     0.274 HD
ENDBRANCH  24  25
ENDBRANCH  23  24
ENDBRANCH  22  23
ENDBRANCH  21  22
ENDBRANCH   6  21
ENDBRANCH   4   6
ENDBRANCH   1   2
BRANCH   1  29
ATOM     29  CB  THR D   3      14.980 -16.913  18.712  1.00 15.86     0.146 C 
ATOM     30  CG2 THR D   3      15.065 -17.151  20.217  1.00 16.15     0.042 C 
BRANCH  29  31
ATOM     31  OG1 THR D   3      15.027 -15.503  18.460  1.00 16.19    -0.393 OA
ATOM     32  HG1 THR D   3      14.248 -15.214  18.338  1.00 16.19     0.210 HD
ENDBRANCH  29  31
ENDBRANCH   1  29
BRANCH   1  33
ATOM     33  N   THR D   3      17.445 -17.052  18.402  1.00 15.75    -0.344 N 
ATOM     34  C   ARG D   2      18.586 -17.724  18.244  1.00 15.31     0.241 C 
ATOM     35  O   ARG D   2      18.648 -18.820  17.691  1.00 15.17    -0.271 OA
ATOM     36  H   THR D   3      17.397 -16.267  18.751  1.00 15.75     0.163 HD
BRANCH  34  37
ATOM     37  CA  ARG D   2      19.849 -17.070  18.806  1.00 15.15     0.176 C 
BRANCH  37  38
ATOM     38  N   ARG D   2      19.732 -15.611  18.897  1.00 15.89    -0.346 N 
ATOM     39  C   ALA D   1      19.283 -14.828  17.914  1.00 16.91     0.248 C 
ATOM     40  O   ALA D   1      19.034 -15.238  16.773  1.00 17.32    -0.271 OA
ATOM     41  H   ARG D   2      19.984 -15.299  19.658  1.00 15.89     0.163 HD
BRANCH  39  42
ATOM     42  CA  ALA D   1      19.098 -13.351  18.266  1.00 17.08     0.270 C 
ATOM     43  CB  ALA D   1      17.950 -13.169  19.284  1.00 17.48     0.050 C 
BRANCH  42  44
ATOM     44  N   ALA D   1      18.840 -12.537  17.042  1.00 17.36    -0.067 N 
ATOM     45  H3  ALA D   1      17.962 -12.451  16.922  1.00 17.36     0.275 HD
ATOM     46  H2  ALA D   1      19.198 -12.942  16.335  1.00 17.36     0.275 HD
ATOM     47  H1  ALA D   1      19.206 -11.731  17.138  1.00 17.36     0.275 HD
ENDBRANCH  42  44
ENDBRANCH  39  42
ENDBRANCH  37  38
BRANCH  37  48
ATOM     48  CB  ARG D   2      20.135 -17.625  20.209  1.00 15.08     0.036 C 
BRANCH  48  49
ATOM     49  CG  ARG D   2      20.386 -19.122  20.327  1.00 14.63     0.023 C 
BRANCH  49  50
ATOM     50  CD  ARG D   2      20.579 -19.524  21.795  1.00 13.91     0.138 C 
BRANCH  50  51
ATOM     51  NE  ARG D   2      21.749 -18.883  22.395  1.00 10.79    -0.227 N 
ATOM     52  HE  ARG D   2      21.650 -18.095  22.726  1.00 10.79     0.177 HD
ATOM     53  CZ  ARG D   2      22.959 -19.438  22.463  1.00 10.30     0.665 C 
ATOM     54  NH2 ARG D   2      23.171 -20.662  21.979  1.00  9.50    -0.235 N 
ATOM     55  NH1 ARG D   2      23.960 -18.766  23.014  1.00  9.44    -0.235 N 
ATOM     56 HH22 ARG D   2      23.954 -21.013  22.026  1.00  9.50     0.174 HD
ATOM     57 HH21 ARG D   2      22.524 -21.100  21.619  1.00  9.50     0.174 HD
ATOM     58 HH11 ARG D   2      23.827 -17.976  23.326  1.00  9.44     0.174 HD
ATOM     59 HH12 ARG D   2      24.742 -19.121  23.060  1.00  9.44     0.174 HD
ENDBRANCH  50  51
ENDBRANCH  49  50
ENDBRANCH  48  49
ENDBRANCH  37  48
ENDBRANCH  34  37
ENDBRANCH   1  33
TORSDOF 24
