USER: ADFR SOLUTION from run 0
USER: SCORE 15.819628 LL:  -3.018 LR: -13.198 RR:   0.000 FEB:  -6.039
USER: RMSD 0.896264
USER: STATUS Locally minimized using BFGS
USER: GENES 26
USER: genes 0 Translation |==|  0.33082 0.44821 0.58567
USER: genes 1 Rotation |==|  0.46677 0.47136 0.48654 0.99789
USER: genes 2 Torsion [N]-CA--C-[N] |==|  0.98733
USER: genes 3 Torsion [C]-N--CA-[C] |==|  0.69091
USER: genes 4 Torsion [N]-CA--C-[N] |==|  0.43355
USER: genes 5 Torsion [C]-N--CA-[C] |==|  0.76928
USER: genes 6 Torsion [N]-CA--C-[O] |==|  0.98864
USER: genes 7 Torsion [N]-CA--CB-[CG] |==|  0.08011
USER: genes 8 Torsion [CA]-CB--CG-[CD] |==|  0.54061
USER: genes 9 Torsion [CB]-CG--CD-[OE1] |==|  0.79666
USER: genes 10 Torsion [N]-CA--CB-[CG] |==|  0.78928
USER: genes 11 Torsion [CA]-CB--CG-[CD] |==|  0.52010
USER: genes 12 Torsion [CB]-CG--CD-[CE] |==|  0.48368
USER: genes 13 Torsion [CG]-CD--CE-[NZ] |==|  0.47853
USER: genes 14 Torsion [CD]-CE--NZ-[HZ3] |==|  0.20529
USER: genes 15 Torsion [C]-CA--CB-[CG2] |==|  0.47249
USER: genes 16 Torsion [CA]-CB--OG1-[HG1] |==|  0.38303
USER: genes 17 Torsion [C]-CA--N-[C] |==|  0.82179
USER: genes 18 Torsion [N]-C--CA-[N] |==|  0.92204
USER: genes 19 Torsion [C]-CA--N-[C] |==|  0.81770
USER: genes 20 Torsion [N]-C--CA-[N] |==|  0.43103
USER: genes 21 Torsion [C]-CA--N-[H1] |==|  0.67596
USER: genes 22 Torsion [C]-CA--CB-[CG] |==|  0.15075
USER: genes 23 Torsion [CA]-CB--CG-[CD] |==|  0.47649
USER: genes 24 Torsion [CB]-CG--CD-[NE] |==|  0.86080
USER: genes 25 Torsion [CG]-CD--NE-[HE] |==|  0.27114
ROOT
ATOM      1  CA  THR D   3      16.195 -17.628  18.064  1.00 16.13 LIG 0.20  C 
ENDROOT
BRANCH 1 2
ATOM      2  C   THR D   3      16.129 -17.796  16.538  1.00 16.95 LIG 0.24  C 
ATOM      3 O    THR D   3      15.143 -18.324  16.014  1.00 16.12 LIG-0.27  OA
ATOM      4  N   LYS D   4      17.181 -17.345  15.847  1.00 18.15 LIG-0.35  N 
ATOM      5 H    LYS D   4      17.842 -16.942  16.220  1.00 18.15 LIG 0.16  HD
BRANCH 4 6
ATOM      6  CA  LYS D   4      17.331 -17.480  14.389  1.00 19.65 LIG 0.18  C 
BRANCH 6 7
ATOM      7  C   LYS D   4      18.452 -18.450  14.082  1.00 20.62 LIG 0.24  C 
ATOM      8 O    LYS D   4      19.353 -18.639  14.905  1.00 20.86 LIG-0.27  OA
ATOM      9  N   GLN D   5      18.409 -19.054  12.898  1.00 21.55 LIG-0.35  N 
ATOM     10 H    GLN D   5      17.793 -18.924  12.313  1.00 21.55 LIG 0.16  HD
BRANCH 9 11
ATOM     11  CA  GLN D   5      19.440 -20.017  12.492  1.00 22.83 LIG 0.16  C 
BRANCH 11 12
ATOM     12  C   GLN D   5      20.680 -19.331  11.922  1.00 22.91 LIG 0.22  C 
ATOM     13 O    GLN D   5      20.717 -18.109  11.768  1.00 23.29 LIG-0.29  OA
ENDBRANCH 11 12
BRANCH 11 14
ATOM     14  CB  GLN D   5      18.883 -21.032  11.491  1.00 22.86 LIG 0.04  C 
BRANCH 14 15
ATOM     15  CG  GLN D   5      17.748 -20.510  10.627  1.00 24.40 LIG 0.10  C 
BRANCH 15 16
ATOM     16  CD  GLN D   5      16.990 -21.610   9.908  1.00 24.21 LIG 0.21  C 
ATOM     17  NE2 GLN D   5      15.768 -21.886  10.369  1.00 25.13 LIG-0.37  N 
ATOM     18 22HE GLN D   5      15.295 -22.497   9.993  1.00 25.13 LIG 0.16  HD
ATOM     19 21HE GLN D   5      15.454 -21.450  11.041  1.00 25.13 LIG 0.16  HD
ATOM     20 OE1  GLN D   5      17.491 -22.204   8.946  1.00 25.71 LIG-0.27  OA
ENDBRANCH 15 16
ENDBRANCH 14 15
ENDBRANCH 11 14
ENDBRANCH 9 11
ENDBRANCH 6 7
BRANCH 6 21
ATOM     21  CB  LYS D   4      17.701 -16.139  13.749  1.00 19.73 LIG 0.04  C 
BRANCH 21 22
ATOM     22  CG  LYS D   4      16.582 -15.143  13.614  1.00 20.49 LIG 0.00  C 
BRANCH 22 23
ATOM     23  CD  LYS D   4      17.060 -13.946  12.806  1.00 20.73 LIG 0.03  C 
BRANCH 23 24
ATOM     24  CE  LYS D   4      15.919 -12.997  12.533  1.00 20.46 LIG 0.23  C 
BRANCH 24 25
ATOM     25  NZ  LYS D   4      16.400 -11.742  11.909  1.00 20.02 LIG-0.08  N 
ATOM     26 HZ3  LYS D   4      16.618 -11.896  11.061  1.00 20.02 LIG 0.27  HD
ATOM     27 HZ1  LYS D   4      15.757 -11.127  11.942  1.00 20.02 LIG 0.27  HD
ATOM     28 HZ2  LYS D   4      17.115 -11.446  12.349  1.00 20.02 LIG 0.27  HD
ENDBRANCH 24 25
ENDBRANCH 23 24
ENDBRANCH 22 23
ENDBRANCH 21 22
ENDBRANCH 6 21
ENDBRANCH 4 6
ENDBRANCH 1 2
BRANCH 1 29
ATOM     29  CB  THR D   3      14.998 -16.789  18.552  1.00 15.86 LIG 0.15  C 
ATOM     30  CG2 THR D   3      14.909 -16.815  20.075  1.00 16.15 LIG 0.04  C 
BRANCH 29 31
ATOM     31 OG1  THR D   3      15.154 -15.432  18.118  1.00 16.19 LIG-0.39  OA
ATOM     32 HG1  THR D   3      14.415 -15.138  17.847  1.00 16.19 LIG 0.21  HD
ENDBRANCH 29 31
ENDBRANCH 1 29
BRANCH 1 33
ATOM     33  N   THR D   3      17.469 -17.082  18.555  1.00 15.75 LIG-0.34  N 
ATOM     34  C   ARG D   2      18.621 -17.739  18.417  1.00 15.31 LIG 0.24  C 
ATOM     35 O    ARG D   2      18.715 -18.812  17.823  1.00 15.17 LIG-0.27  OA
ATOM     36 H    THR D   3      17.401 -16.312  18.933  1.00 15.75 LIG 0.16  HD
BRANCH 34 37
ATOM     37  CA  ARG D   2      19.855 -17.100  19.056  1.00 15.15 LIG 0.18  C 
BRANCH 37 38
ATOM     38  N   ARG D   2      19.752 -15.640  19.137  1.00 15.89 LIG-0.35  N 
ATOM     39  C   ALA D   1      19.714 -14.826  18.080  1.00 16.91 LIG 0.25  C 
ATOM     40 O    ALA D   1      19.890 -15.209  16.916  1.00 17.32 LIG-0.27  OA
ATOM     41 H    ARG D   2      19.716 -15.349  19.946  1.00 15.89 LIG 0.16  HD
BRANCH 39 42
ATOM     42  CA  ALA D   1      19.452 -13.350  18.380  1.00 17.08 LIG 0.27  C 
ATOM     43  CB  ALA D   1      17.941 -13.087  18.565  1.00 17.48 LIG 0.05  C 
BRANCH 42 44
ATOM     44  N   ALA D   1      20.003 -12.478  17.301  1.00 17.36 LIG-0.07  N 
ATOM     45 H3   ALA D   1      19.352 -11.969  16.969  1.00 17.36 LIG 0.28  HD
ATOM     46 H2   ALA D   1      20.342 -12.985  16.654  1.00 17.36 LIG 0.28  HD
ATOM     47 H1   ALA D   1      20.643 -11.958  17.636  1.00 17.36 LIG 0.28  HD
ENDBRANCH 42 44
ENDBRANCH 39 42
ENDBRANCH 37 38
BRANCH 37 48
ATOM     48  CB  ARG D   2      20.046 -17.656  20.474  1.00 15.08 LIG 0.04  C 
BRANCH 48 49
ATOM     49  CG  ARG D   2      20.117 -19.170  20.625  1.00 14.63 LIG 0.02  C 
BRANCH 49 50
ATOM     50  CD  ARG D   2      20.517 -19.553  22.056  1.00 13.91 LIG 0.14  C 
BRANCH 50 51
ATOM     51  NE  ARG D   2      21.704 -18.830  22.511  1.00 10.79 LIG-0.23  N 
ATOM     52 HE   ARG D   2      21.587 -18.128  22.994  1.00 10.79 LIG 0.18  HD
ATOM     53  CZ  ARG D   2      22.957 -19.187  22.226  1.00 10.30 LIG 0.67  C 
ATOM     54  NH2 ARG D   2      23.202 -20.272  21.492  1.00  9.50 LIG-0.23  N 
ATOM     55  NH1 ARG D   2      23.966 -18.454  22.674  1.00  9.44 LIG-0.23  N 
ATOM     56 2HH2 ARG D   2      24.012 -20.495  21.312  1.00  9.50 LIG 0.17  HD
ATOM     57 1HH2 ARG D   2      22.549 -20.749  21.198  1.00  9.50 LIG 0.17  HD
ATOM     58 1HH1 ARG D   2      23.812 -17.753  23.147  1.00  9.44 LIG 0.17  HD
ATOM     59 2HH1 ARG D   2      24.776 -18.681  22.493  1.00  9.44 LIG 0.17  HD
ENDBRANCH 50 51
ENDBRANCH 49 50
ENDBRANCH 48 49
ENDBRANCH 37 48
ENDBRANCH 34 37
ENDBRANCH 1 33
TORSDOF 24
