USER: ADFR SOLUTION from run 0
USER: SCORE 16.275859 LL:  -2.805 LR: -13.574 RR:   0.000 FEB: -10.591
USER: RMSD 0.528888
USER: STATUS Locally minimized using BFGS
USER: GENES 12
USER: genes 0 Translation |==|  0.53839 0.50923 0.39225
USER: genes 1 Rotation |==|  0.49876 0.50494 0.48686 0.99980
USER: genes 2 Torsion [N]-CA--C-[O] |==|  0.93355
USER: genes 3 Torsion [C]-N--CA-[C] |==|  0.60467
USER: genes 4 Torsion [N]-CA--C-[O] |==|  0.39589
USER: genes 5 Torsion [N]-CA--CB-[CG] |==|  0.17390
USER: genes 6 Torsion [CA]-CB--CG-[CD2] |==|  0.28181
USER: genes 7 Torsion [N]-C--CA-[N] |==|  0.41653
USER: genes 8 Torsion [C]-CA--CB-[CG1] |==|  0.47467
USER: genes 9 Torsion [C]-CA--N-[C] |==|  0.63816
USER: genes 10 Torsion [N]-C--CA-[N] |==|  0.47863
USER: genes 11 Torsion [C]-CA--N-[H3] |==|  0.15426
ROOT
ATOM      1  C   VAL C   2      80.798  62.519  14.594  1.00 19.81 LIG 0.24  C 
ATOM      2 O    VAL C   2      80.447  62.235  15.736  1.00 19.32 LIG-0.27  OA
ATOM      3  N   PRO C   3      80.232  63.512  13.908  1.00 21.82 LIG-0.34  N 
ATOM      4  CA  PRO C   3      79.143  64.308  14.495  1.00 23.90 LIG 0.18  C 
ATOM      5  CB  PRO C   3      78.925  65.432  13.466  1.00 24.45 LIG 0.04  C 
ATOM      6  CG  PRO C   3      80.106  65.390  12.563  1.00 24.10 LIG 0.02  C 
ATOM      7  CD  PRO C   3      80.573  63.969  12.549  1.00 23.24 LIG 0.13  C 
ENDROOT
BRANCH 4 8
ATOM      8  C   PRO C   3      77.841  63.523  14.712  1.00 26.32 LIG 0.24  C 
ATOM      9  N   TRP C   4      77.007  63.979  15.647  1.00 29.14 LIG-0.34  N 
ATOM     10 H    TRP C   4      77.197  64.621  16.186  1.00 29.14 LIG 0.16  HD
ATOM     11 O    PRO C   3      77.614  62.521  14.035  1.00 26.12 LIG-0.27  OA
BRANCH 9 12
ATOM     12  CA  TRP C   4      75.663  63.406  15.836  1.00 31.86 LIG 0.19  C 
BRANCH 12 13
ATOM     13  C   TRP C   4      74.597  64.450  16.183  1.00 33.47 LIG 0.20  C 
ATOM     14 O    TRP C   4      73.441  64.394  15.755  1.00 35.20 LIG-0.65  OA
ATOM     15 OXT  TRP C   4      74.821  65.404  16.922  1.00 33.15 LIG-0.65  OA
ENDBRANCH 12 13
BRANCH 12 16
ATOM     16  CB  TRP C   4      75.692  62.332  16.921  1.00 32.27 LIG 0.08  C 
BRANCH 16 17
ATOM     17  CG  TRP C   4      76.078  62.849  18.258  1.00 32.30 LIG-0.03  A 
ATOM     18  CD2 TRP C   4      75.201  63.143  19.347  1.00 33.19 LIG-0.00  A 
ATOM     19  CE3 TRP C   4      73.816  63.057  19.532  1.00 34.05 LIG 0.01  A 
ATOM     20  CE2 TRP C   4      75.998  63.609  20.414  1.00 33.34 LIG 0.04  A 
ATOM     21  CZ3 TRP C   4      73.283  63.433  20.754  1.00 34.92 LIG 0.00  A 
ATOM     22  CH2 TRP C   4      74.107  63.888  21.791  1.00 35.06 LIG 0.00  A 
ATOM     23  CZ2 TRP C   4      75.461  63.988  21.639  1.00 34.21 LIG 0.03  A 
ATOM     24  NE1 TRP C   4      77.299  63.594  19.989  1.00 32.63 LIG-0.36  N 
ATOM     25  CD1 TRP C   4      77.336  63.138  18.692  1.00 32.29 LIG 0.10  A 
ATOM     26 HE1  TRP C   4      77.981  63.831  20.456  1.00 32.63 LIG 0.17  HD
ENDBRANCH 16 17
ENDBRANCH 12 16
ENDBRANCH 9 12
ENDBRANCH 4 8
BRANCH 1 27
ATOM     27  CA  VAL C   2      81.906  61.716  13.913  1.00 19.23 LIG 0.18  C 
BRANCH 27 28
ATOM     28  CB  VAL C   2      81.248  60.570  13.102  1.00 20.17 LIG 0.01  C 
ATOM     29  CG1 VAL C   2      82.276  59.870  12.220  1.00 20.92 LIG 0.01  C 
ATOM     30  CG2 VAL C   2      80.541  59.571  14.023  1.00 19.95 LIG 0.01  C 
ENDBRANCH 27 28
BRANCH 27 31
ATOM     31  N   VAL C   2      82.865  61.210  14.894  1.00 18.74 LIG-0.35  N 
ATOM     32  C   ALA C   1      84.178  61.366  14.753  1.00 18.58 LIG 0.25  C 
ATOM     33 O    ALA C   1      84.688  61.917  13.782  1.00 20.40 LIG-0.27  OA
ATOM     34 H    VAL C   2      82.503  60.807  15.562  1.00 18.74 LIG 0.16  HD
BRANCH 32 35
ATOM     35  CA  ALA C   1      85.048  60.804  15.866  1.00 18.17 LIG 0.27  C 
ATOM     36  CB  ALA C   1      84.800  61.560  17.175  1.00 17.10 LIG 0.05  C 
BRANCH 35 37
ATOM     37  N   ALA C   1      86.485  60.888  15.479  1.00 16.54 LIG-0.07  N 
ATOM     38 H2   ALA C   1      86.634  60.367  14.773  1.00 16.54 LIG 0.28  HD
ATOM     39 H3   ALA C   1      86.689  61.729  15.274  1.00 16.54 LIG 0.28  HD
ATOM     40 H1   ALA C   1      86.992  60.618  16.159  1.00 16.54 LIG 0.28  HD
ENDBRANCH 35 37
ENDBRANCH 32 35
ENDBRANCH 27 31
ENDBRANCH 1 27
TORSDOF 10
