USER: ADFR SOLUTION from run 0
USER: SCORE 12.408995 LL:  -2.326 LR: -11.165 RR:   0.000 FEB:  -6.392
USER: RMSD 0.736930
USER: STATUS Locally minimized using BFGS
USER: GENES 18
USER: genes 0 Translation |==|  0.47378 0.47616 0.44868
USER: genes 1 Rotation |==|  0.50036 0.48942 0.51762 0.99958
USER: genes 2 Torsion [N]-CA--C-[N] |==|  0.81533
USER: genes 3 Torsion [C]-N--CA-[CB] |==|  0.47536
USER: genes 4 Torsion [N]-CA--CB-[CG] |==|  0.57315
USER: genes 5 Torsion [CA]-CB--CG-[OD2] |==|  0.43658
USER: genes 6 Torsion [N]-CA--C-[O] |==|  0.27303
USER: genes 7 Torsion [C]-CA--CB-[CG] |==|  0.39940
USER: genes 8 Torsion [CA]-CB--CG-[CD2] |==|  0.66372
USER: genes 9 Torsion [C]-CA--N-[C] |==|  0.77554
USER: genes 10 Torsion [N]-C--CA-[N] |==|  0.97277
USER: genes 11 Torsion [C]-CA--N-[C] |==|  0.61388
USER: genes 12 Torsion [N]-C--CA-[N] |==|  0.44350
USER: genes 13 Torsion [C]-CA--CB-[CG] |==|  0.32007
USER: genes 14 Torsion [CA]-CB--CG-[OD2] |==|  0.32966
USER: genes 15 Torsion [C]-CA--CB-[CG] |==|  0.52985
USER: genes 16 Torsion [CA]-CB--CG-[CD] |==|  0.53844
USER: genes 17 Torsion [CB]-CG--CD-[OE2] |==|  0.05551
ROOT
ATOM      1  CA  TRP G 500     -10.226 -42.812  19.278  1.00 57.70 LIG 0.18  C 
ENDROOT
BRANCH 1 2
ATOM      2  C   TRP G 500     -10.910 -44.084  19.772  1.00 58.91 LIG 0.24  C 
ATOM      3 O    TRP G 500     -11.920 -44.501  19.205  1.00 59.13 LIG-0.27  OA
ATOM      4  N   ASP G 501     -10.365 -44.703  20.815  1.00 60.05 LIG-0.35  N 
ATOM      5 H    ASP G 501      -9.664 -44.429  21.231  1.00 60.05 LIG 0.16  HD
BRANCH 4 6
ATOM      6  CA  ASP G 501     -10.949 -45.934  21.340  1.00 61.20 LIG 0.17  C 
BRANCH 6 7
ATOM      7  CB  ASP G 501     -10.028 -46.564  22.386  1.00 62.64 LIG 0.15  C 
BRANCH 7 8
ATOM      8  CG  ASP G 501     -10.215 -48.068  22.497  1.00 64.46 LIG 0.17  C 
ATOM      9 OD2  ASP G 501      -9.279 -48.756  22.961  1.00 65.00 LIG-0.65  OA
ATOM     10 OD1  ASP G 501     -11.304 -48.563  22.131  1.00 64.87 LIG-0.65  OA
ENDBRANCH 7 8
ENDBRANCH 6 7
BRANCH 6 11
ATOM     11  C   ASP G 501     -12.317 -45.664  21.967  1.00 61.58 LIG 0.22  C 
ATOM     12 O    ASP G 501     -13.328 -45.903  21.270  1.00 60.92 LIG-0.29  OA
ENDBRANCH 6 11
ENDBRANCH 4 6
ENDBRANCH 1 2
BRANCH 1 13
ATOM     13  CB  TRP G 500      -8.773 -43.114  18.901  1.00 52.85 LIG 0.07  C 
BRANCH 13 14
ATOM     14  CG  TRP G 500      -8.304 -42.333  17.710  1.00 47.47 LIG-0.03  A 
ATOM     15  CD2 TRP G 500      -7.807 -42.868  16.477  1.00 44.29 LIG-0.00  A 
ATOM     16  CE3 TRP G 500      -7.593 -44.168  15.996  1.00 42.43 LIG 0.01  A 
ATOM     17  CE2 TRP G 500      -7.495 -41.770  15.640  1.00 43.87 LIG 0.04  A 
ATOM     18  CZ3 TRP G 500      -7.079 -44.331  14.707  1.00 40.94 LIG 0.00  A 
ATOM     19  CH2 TRP G 500      -6.778 -43.217  13.899  1.00 40.39 LIG 0.00  A 
ATOM     20  CZ2 TRP G 500      -6.979 -41.934  14.344  1.00 41.47 LIG 0.03  A 
ATOM     21  NE1 TRP G 500      -7.792 -40.626  16.334  1.00 44.24 LIG-0.36  N 
ATOM     22  CD1 TRP G 500      -8.275 -40.972  17.576  1.00 45.90 LIG 0.10  A 
ATOM     23 HE1  TRP G 500      -7.694 -39.823  16.042  1.00 44.24 LIG 0.17  HD
ENDBRANCH 13 14
ENDBRANCH 1 13
BRANCH 1 24
ATOM     24  N   TRP G 500     -10.277 -41.697  20.212  1.00 59.87 LIG-0.35  N 
ATOM     25  C   GLU G 499     -11.355 -40.926  20.319  1.00 62.14 LIG 0.24  C 
ATOM     26 O    GLU G 499     -12.380 -41.104  19.655  1.00 62.68 LIG-0.27  OA
ATOM     27 H    TRP G 500      -9.561 -41.589  20.676  1.00 59.87 LIG 0.16  HD
BRANCH 25 28
ATOM     28  CA  GLU G 499     -11.265 -39.786  21.330  1.00 62.75 LIG 0.18  C 
BRANCH 28 29
ATOM     29  N   GLU G 499     -10.065 -39.923  22.148  1.00 64.36 LIG-0.35  N 
ATOM     30 H    GLU G 499      -9.364 -40.168  21.714  1.00 64.36 LIG 0.16  HD
ATOM     31  C   ASP G 498     -10.087 -39.682  23.456  1.00 65.69 LIG 0.26  C 
ATOM     32 O    ASP G 498     -11.106 -39.332  24.054  1.00 66.78 LIG-0.27  OA
BRANCH 31 33
ATOM     33  CA  ASP G 498      -8.767 -39.857  24.205  1.00 65.54 LIG 0.41  C 
ATOM     34  N   ASP G 498      -8.823 -39.102  25.489  1.00 65.34 LIG 0.61  N 
BRANCH 33 35
ATOM     35  CB  ASP G 498      -8.522 -41.345  24.481  1.00 65.84 LIG 0.16  C 
BRANCH 35 36
ATOM     36  CG  ASP G 498      -7.302 -41.882  23.755  1.00 65.00 LIG 0.17  C 
ATOM     37 OD2  ASP G 498      -6.362 -42.337  24.442  1.00 65.16 LIG-0.65  OA
ATOM     38 OD1  ASP G 498      -7.278 -41.849  22.505  1.00 63.97 LIG-0.65  OA
ENDBRANCH 35 36
ENDBRANCH 33 35
ENDBRANCH 31 33
ENDBRANCH 28 29
BRANCH 28 39
ATOM     39  CB  GLU G 499     -11.245 -38.447  20.587  1.00 61.39 LIG 0.04  C 
BRANCH 39 40
ATOM     40  CG  GLU G 499     -10.899 -37.255  21.465  1.00 60.98 LIG 0.12  C 
BRANCH 40 41
ATOM     41  CD  GLU G 499     -11.210 -35.928  20.797  1.00 61.07 LIG 0.17  C 
ATOM     42 OE2  GLU G 499     -12.019 -35.917  19.847  1.00 60.51 LIG-0.65  OA
ATOM     43 OE1  GLU G 499     -10.653 -34.895  21.227  1.00 60.30 LIG-0.65  OA
ENDBRANCH 40 41
ENDBRANCH 39 40
ENDBRANCH 28 39
ENDBRANCH 25 28
ENDBRANCH 1 24
TORSDOF 16
