USER: ADFR SOLUTION from run 0
USER: SCORE 4.015811 LL:  -1.627 LR:  -4.844 RR:   0.000 FEB:   0.227
USER: RMSD 1.204678
USER: STATUS Locally minimized using BFGS
USER: GENES 19
USER: genes 0 Translation |==|  0.49438 0.48016 0.48985
USER: genes 1 Rotation |==|  0.51021 0.52030 0.51549 0.99924
USER: genes 2 Torsion [C]-CA--CB-[CG] |==|  0.37325
USER: genes 3 Torsion [CA]-CB--CG-[CD2] |==|  0.73340
USER: genes 4 Torsion [N]-CA--C-[N] |==|  0.43192
USER: genes 5 Torsion [C]-N--CA-[C] |==|  0.57869
USER: genes 6 Torsion [N]-CA--C-[N] |==|  0.42408
USER: genes 7 Torsion [C]-N--CA-[CB] |==|  0.44617
USER: genes 8 Torsion [N]-CA--CB-[CG] |==|  0.82278
USER: genes 9 Torsion [CA]-CB--CG-[CD] |==|  0.53334
USER: genes 10 Torsion [CB]-CG--CD-[OE2] |==|  0.65284
USER: genes 11 Torsion [N]-CA--C-[OXT] |==|  0.14600
USER: genes 12 Torsion [CB]-CA--N-[C] |==|  0.42779
USER: genes 13 Torsion [N]-C--CA-[N] |==|  0.32715
USER: genes 14 Torsion [C]-CA--N-[C] |==|  0.63575
USER: genes 15 Torsion [N]-C--CA-[N] |==|  0.56586
USER: genes 16 Torsion [C]-CA--CB-[CG] |==|  0.33017
USER: genes 17 Torsion [CA]-CB--CG-[CD] |==|  0.26414
USER: genes 18 Torsion [CB]-CG--CD-[NE2] |==|  0.97646
ROOT
ATOM      1  CA  HIS G 812     -26.154  33.401  21.482  1.00 98.11 LIG 0.18  C 
ENDROOT
BRANCH 1 2
ATOM      2  CB  HIS G 812     -25.777  31.948  21.161  1.00 96.29 LIG 0.10  C 
BRANCH 2 3
ATOM      3  CG  HIS G 812     -26.626  31.278  20.116  1.00 94.00 LIG 0.06  A 
ATOM      4  CD2 HIS G 812     -27.700  30.473  20.227  1.00 93.71 LIG 0.14  A 
ATOM      5 NE2  HIS G 812     -27.972  29.973  18.970  1.00 93.19 LIG-0.25  NA
ATOM      6  CE1 HIS G 812     -27.092  30.476  18.121  1.00 92.78 LIG 0.23  A 
ATOM      7 ND1  HIS G 812     -26.273  31.268  18.781  1.00 93.58 LIG-0.24  NA
ENDBRANCH 2 3
ENDBRANCH 1 2
BRANCH 1 8
ATOM      8  C   HIS G 812     -26.155  33.518  23.003  1.00 99.25 LIG 0.24  C 
ATOM      9  N   GLY G 813     -27.286  33.242  23.639  1.00100.26 LIG-0.35  N 
ATOM     10 H    GLY G 813     -28.021  33.010  23.259  1.00100.26 LIG 0.16  HD
ATOM     11 O    HIS G 812     -25.121  33.834  23.595  1.00 99.52 LIG-0.27  OA
BRANCH 9 12
ATOM     12  CA  GLY G 813     -27.335  33.324  25.089  1.00101.48 LIG 0.23  C 
BRANCH 12 13
ATOM     13  C   GLY G 813     -28.359  32.387  25.705  1.00102.44 LIG 0.24  C 
ATOM     14 O    GLY G 813     -29.346  32.044  25.056  1.00102.98 LIG-0.27  OA
ATOM     15  N   GLU G 814     -28.130  31.961  26.947  1.00102.70 LIG-0.34  N 
ATOM     16 H    GLU G 814     -27.439  32.176  27.412  1.00102.70 LIG 0.16  HD
BRANCH 15 17
ATOM     17  CA  GLU G 814     -29.071  31.069  27.628  1.00102.89 LIG 0.19  C 
BRANCH 17 18
ATOM     18  CB  GLU G 814     -28.392  30.352  28.803  1.00101.97 LIG 0.05  C 
BRANCH 18 19
ATOM     19  CG  GLU G 814     -27.261  29.420  28.416  1.00100.63 LIG 0.12  C 
BRANCH 19 20
ATOM     20  CD  GLU G 814     -26.820  28.524  29.564  1.00100.36 LIG 0.17  C 
ATOM     21 OE1  GLU G 814     -27.679  27.812  30.129  1.00 99.71 LIG-0.65  OA
ATOM     22 OE2  GLU G 814     -25.617  28.526  29.900  1.00 99.42 LIG-0.65  OA
ENDBRANCH 19 20
ENDBRANCH 18 19
ENDBRANCH 17 18
BRANCH 17 23
ATOM     23  C   GLU G 814     -30.277  31.853  28.154  1.00103.78 LIG 0.20  C 
ATOM     24 OXT  GLU G 814     -30.909  32.589  27.361  1.00104.07 LIG-0.65  OA
ATOM     25 O    GLU G 814     -30.583  31.717  29.359  1.00104.32 LIG-0.65  OA
ENDBRANCH 17 23
ENDBRANCH 15 17
ENDBRANCH 12 13
ENDBRANCH 9 12
ENDBRANCH 1 8
BRANCH 1 26
ATOM     26  N   HIS G 812     -25.060  34.311  21.119  1.00 98.48 LIG-0.35  N 
ATOM     27  C   GLY G 811     -25.194  35.600  20.800  1.00 98.46 LIG 0.24  C 
ATOM     28 O    GLY G 811     -26.278  36.191  20.728  1.00 98.78 LIG-0.27  OA
ATOM     29 H    HIS G 812     -24.292  33.924  21.131  1.00 98.48 LIG 0.16  HD
BRANCH 27 30
ATOM     30  CA  GLY G 811     -23.886  36.320  20.510  1.00 98.06 LIG 0.23  C 
BRANCH 30 31
ATOM     31  N   GLY G 811     -23.720  36.856  19.170  1.00 97.66 LIG-0.35  N 
ATOM     32 H    GLY G 811     -24.383  37.320  18.880  1.00 97.66 LIG 0.16  HD
ATOM     33  C   GLN G 810     -22.605  36.618  18.482  1.00 97.43 LIG 0.26  C 
ATOM     34 O    GLN G 810     -21.682  35.931  18.920  1.00 97.76 LIG-0.27  OA
BRANCH 33 35
ATOM     35  CA  GLN G 810     -22.520  37.233  17.085  1.00 96.79 LIG 0.40  C 
ATOM     36  N   GLN G 810     -21.561  36.468  16.234  1.00 96.61 LIG 0.61  N 
BRANCH 35 37
ATOM     37  CB  GLN G 810     -23.911  37.223  16.456  1.00 96.38 LIG 0.06  C 
BRANCH 37 38
ATOM     38  CG  GLN G 810     -24.481  38.588  16.104  1.00 95.56 LIG 0.10  C 
BRANCH 38 39
ATOM     39  CD  GLN G 810     -24.223  38.957  14.660  1.00 95.11 LIG 0.21  C 
ATOM     40  NE2 GLN G 810     -23.412  38.150  13.984  1.00 94.31 LIG-0.37  N 
ATOM     41 21HE GLN G 810     -23.066  37.464  14.372  1.00 94.31 LIG 0.16  HD
ATOM     42 22HE GLN G 810     -23.232  38.313  13.159  1.00 94.31 LIG 0.16  HD
ATOM     43 OE1  GLN G 810     -24.744  39.952  14.154  1.00 94.65 LIG-0.27  OA
ENDBRANCH 38 39
ENDBRANCH 37 38
ENDBRANCH 35 37
ENDBRANCH 33 35
ENDBRANCH 30 31
ENDBRANCH 27 30
ENDBRANCH 1 26
TORSDOF 17
