REMARK  17 active torsions:
REMARK  status: ('A' for Active; 'I' for Inactive)
REMARK    1  A    between atoms: CA_2  and  C_3 
REMARK    2  A    between atoms: CA_2  and  CB_5 
REMARK       I    between atoms: C_3  and  N_12 
REMARK    3  A    between atoms: CB_5  and  CG_6 
REMARK    4  A    between atoms: CG_6  and  CD_7 
REMARK       I    between atoms: CD_7  and  NE2_9 
REMARK    5  A    between atoms: N_12  and  CA_13 
REMARK    6  A    between atoms: CA_13  and  C_14 
REMARK       I    between atoms: C_14  and  N_17 
REMARK    7  A    between atoms: N_17  and  CA_18 
REMARK    8  A    between atoms: CA_18  and  CB_21 
REMARK    9  A    between atoms: CA_18  and  C_19 
REMARK       I    between atoms: C_19  and  N_28 
REMARK   10  A    between atoms: CB_21  and  CG_22 
REMARK   11  A    between atoms: N_28  and  CA_29 
REMARK   12  A    between atoms: CA_29  and  C_30 
REMARK       I    between atoms: C_30  and  N_33 
REMARK   13  A    between atoms: N_33  and  CA_34 
REMARK   14  A    between atoms: CA_34  and  CB_37 
REMARK   15  A    between atoms: CA_34  and  C_35 
REMARK   16  A    between atoms: CB_37  and  CG_38 
REMARK   17  A    between atoms: CG_38  and  CD_39 
ROOT
ATOM      1  CA  HIS G 812     -26.058  33.437  21.646  1.00 98.11     0.182 C 
ENDROOT
BRANCH   1   2
ATOM      2  CB  HIS G 812     -25.750  31.951  21.413  1.00 96.29     0.095 C 
BRANCH   2   3
ATOM      3  CG  HIS G 812     -26.582  31.279  20.356  1.00 94.00     0.056 A 
ATOM      4  CD2 HIS G 812     -27.714  30.554  20.445  1.00 93.71     0.145 A 
ATOM      5  NE2 HIS G 812     -27.948  30.001  19.203  1.00 93.19    -0.252 NA
ATOM      6  CE1 HIS G 812     -26.988  30.394  18.383  1.00 92.78     0.232 A 
ATOM      7  ND1 HIS G 812     -26.155  31.168  19.048  1.00 93.58    -0.245 NA
ENDBRANCH   2   3
ENDBRANCH   1   2
BRANCH   1   8
ATOM      8  C   HIS G 812     -26.173  33.620  23.156  1.00 99.25     0.241 C 
ATOM      9  N   GLY G 813     -27.391  33.627  23.683  1.00100.26    -0.351 N 
ATOM     10  H   GLY G 813     -28.121  33.545  23.237  1.00100.26     0.163 HD
ATOM     11  O   HIS G 812     -25.154  33.728  23.841  1.00 99.52    -0.271 OA
BRANCH   9  12
ATOM     12  CA  GLY G 813     -27.554  33.783  25.118  1.00101.48     0.225 C 
BRANCH  12  13
ATOM     13  C   GLY G 813     -28.881  33.250  25.629  1.00102.44     0.236 C 
ATOM     14  O   GLY G 813     -29.912  33.455  24.990  1.00102.98    -0.272 OA
ATOM     15  N   GLU G 814     -28.866  32.561  26.769  1.00102.70    -0.345 N 
ATOM     16  H   GLU G 814     -28.155  32.393  27.223  1.00102.70     0.163 HD
BRANCH  15  17
ATOM     17  CA  GLU G 814     -30.100  32.024  27.347  1.00102.89     0.186 C 
BRANCH  17  18
ATOM     18  CB  GLU G 814     -29.793  31.114  28.544  1.00101.97     0.046 C 
BRANCH  18  19
ATOM     19  CG  GLU G 814     -29.065  29.829  28.200  1.00100.63     0.116 C 
BRANCH  19  20
ATOM     20  CD  GLU G 814     -29.049  28.837  29.354  1.00100.36     0.172 C 
ATOM     21  OE1 GLU G 814     -30.142  28.456  29.828  1.00 99.71    -0.648 OA
ATOM     22  OE2 GLU G 814     -27.948  28.433  29.784  1.00 99.42    -0.648 OA
ENDBRANCH  19  20
ENDBRANCH  18  19
ENDBRANCH  17  18
BRANCH  17  23
ATOM     23  C   GLU G 814     -31.021  33.158  27.808  1.00103.78     0.196 C 
ATOM     24  OXT GLU G 814     -31.282  34.085  27.007  1.00104.07    -0.646 OA
ATOM     25  O   GLU G 814     -31.479  33.104  28.971  1.00104.32    -0.646 OA
ENDBRANCH  17  23
ENDBRANCH  15  17
ENDBRANCH  12  13
ENDBRANCH   9  12
ENDBRANCH   1   8
BRANCH   1  26
ATOM     26  N   HIS G 812     -24.883  34.263  21.340  1.00 98.48    -0.346 N 
ATOM     27  C   GLY G 811     -24.909  35.544  20.966  1.00 98.46     0.236 C 
ATOM     28  O   GLY G 811     -25.944  36.197  20.787  1.00 98.78    -0.272 OA
ATOM     29  H   HIS G 812     -24.145  33.830  21.427  1.00 98.48     0.163 HD
BRANCH  27  30
ATOM     30  CA  GLY G 811     -23.539  36.170  20.756  1.00 98.06     0.225 C 
BRANCH  30  31
ATOM     31  N   GLY G 811     -23.181  36.513  19.391  1.00 97.66    -0.350 N 
ATOM     32  H   GLY G 811     -23.785  36.941  18.954  1.00 97.66     0.163 HD
ATOM     33  C   GLN G 810     -21.993  36.168  18.898  1.00 97.43     0.257 C 
ATOM     34  O   GLN G 810     -21.158  35.536  19.546  1.00 97.76    -0.271 OA
BRANCH  33  35
ATOM     35  CA  GLN G 810     -21.705  36.582  17.455  1.00 96.79     0.400 C 
ATOM     36  N   GLN G 810     -20.610  35.747  16.880  1.00 96.61     0.615 N 
BRANCH  35  37
ATOM     37  CB  GLN G 810     -22.981  36.422  16.632  1.00 96.38     0.060 C 
BRANCH  37  38
ATOM     38  CG  GLN G 810     -23.618  37.717  16.152  1.00 95.56     0.105 C 
BRANCH  38  39
ATOM     39  CD  GLN G 810     -23.046  38.175  14.829  1.00 95.11     0.215 C 
ATOM     40  NE2 GLN G 810     -21.984  37.510  14.387  1.00 94.31    -0.370 N 
ATOM     41 1HE2 GLN G 810     -21.660  36.861  14.849  1.00 94.31     0.159 HD
ATOM     42 2HE2 GLN G 810     -21.620  37.729  13.639  1.00 94.31     0.159 HD
ATOM     43  OE1 GLN G 810     -23.550  39.112  14.208  1.00 94.65    -0.274 OA
ENDBRANCH  38  39
ENDBRANCH  37  38
ENDBRANCH  35  37
ENDBRANCH  33  35
ENDBRANCH  30  31
ENDBRANCH  27  30
ENDBRANCH   1  26
TORSDOF 17
