USER: ADFR SOLUTION from run 0
USER: SCORE 9.212376 LL:  -3.411 LR:  -9.377 RR:   0.000 FEB:  -3.709
USER: RMSD 0.661285
USER: STATUS Locally minimized using BFGS
USER: GENES 21
USER: genes 0 Translation |==|  0.56093 0.41507 0.57649
USER: genes 1 Rotation |==|  0.53930 0.55417 0.48728 0.99534
USER: genes 2 Torsion [C]-N--CA-[CB] |==|  0.36695
USER: genes 3 Torsion [N]-CA--C-[N] |==|  0.42431
USER: genes 4 Torsion [C]-N--CA-[C] |==|  0.77543
USER: genes 5 Torsion [N]-CA--CB-[SG] |==|  0.63351
USER: genes 6 Torsion [CA]-CB--SG-[HG] |==|  0.48022
USER: genes 7 Torsion [N]-CA--C-[N] |==|  0.37271
USER: genes 8 Torsion [C]-N--CA-[CB] |==|  0.39167
USER: genes 9 Torsion [N]-CA--C-[N] |==|  0.36693
USER: genes 10 Torsion [C]-N--CA-[CB] |==|  0.34169
USER: genes 11 Torsion [N]-CA--C-[O] |==|  0.90331
USER: genes 12 Torsion [N]-CA--CB-[CG2] |==|  0.79434
USER: genes 13 Torsion [O]-C--CA-[N] |==|  0.04551
USER: genes 14 Torsion [N]-C--CA-[N] |==|  0.35800
USER: genes 15 Torsion [C]-CA--N-[C] |==|  0.74706
USER: genes 16 Torsion [N]-C--CA-[N] |==|  0.89283
USER: genes 17 Torsion [C]-CA--CB-[OG] |==|  0.15367
USER: genes 18 Torsion [CA]-CB--OG-[HG] |==|  0.49854
USER: genes 19 Torsion [C]-CA--CB-[CG] |==|  0.93661
USER: genes 20 Torsion [CA]-CB--CG-[ND2] |==|  0.19505
ROOT
ATOM      1  C   PRO X1002      17.591  35.988  28.026  1.00 98.27 LIG 0.24  C 
ATOM      2 O    PRO X1002      16.888  36.811  27.455  1.00 97.40 LIG-0.27  OA
ATOM      3  N   ALA X1003      18.871  36.200  28.322  1.00 97.43 LIG-0.35  N 
ATOM      4 H    ALA X1003      19.309  35.736  28.898  1.00 97.43 LIG 0.16  HD
ENDROOT
BRANCH 3 5
ATOM      5  CA  ALA X1003      19.658  37.257  27.685  1.00 96.73 LIG 0.17  C 
ATOM      6  CB  ALA X1003      20.414  38.053  28.724  1.00 96.74 LIG 0.04  C 
BRANCH 5 7
ATOM      7  C   ALA X1003      20.613  36.532  26.736  1.00 95.66 LIG 0.24  C 
ATOM      8 O    ALA X1003      20.954  35.389  26.996  1.00 95.14 LIG-0.27  OA
ATOM      9  N   CYS X1004      21.073  37.137  25.647  1.00 94.40 LIG-0.34  N 
ATOM     10 H    CYS X1004      21.444  36.689  25.014  1.00 94.40 LIG 0.16  HD
BRANCH 9 11
ATOM     11  CA  CYS X1004      21.037  38.570  25.349  1.00 94.17 LIG 0.18  C 
BRANCH 11 12
ATOM     12  CB  CYS X1004      22.129  38.848  24.291  1.00 94.12 LIG 0.10  C 
BRANCH 12 13
ATOM     13 SG   CYS X1004      23.244  40.201  24.548  1.00 91.26 LIG-0.18  SA
ATOM     14 HG   CYS X1004      24.100  40.181  23.708  1.00 91.26 LIG 0.10  HD
ENDBRANCH 12 13
ENDBRANCH 11 12
BRANCH 11 15
ATOM     15  C   CYS X1004      19.670  39.028  24.809  1.00 93.84 LIG 0.24  C 
ATOM     16 O    CYS X1004      19.109  38.421  23.910  1.00 93.01 LIG-0.27  OA
ATOM     17  N   VAL X1005      19.170  40.136  25.335  1.00 93.78 LIG-0.35  N 
ATOM     18 H    VAL X1005      19.610  40.648  25.867  1.00 93.78 LIG 0.16  HD
BRANCH 17 19
ATOM     19  CA  VAL X1005      17.807  40.600  25.058  1.00 93.73 LIG 0.18  C 
BRANCH 19 20
ATOM     20  C   VAL X1005      17.759  41.611  23.904  1.00 93.48 LIG 0.24  C 
ATOM     21  N   ALA X1006      16.839  41.397  22.965  1.00 93.27 LIG-0.35  N 
ATOM     22 H    ALA X1006      16.295  40.732  22.980  1.00 93.27 LIG 0.16  HD
ATOM     23 O    VAL X1005      18.546  42.550  23.865  1.00 93.20 LIG-0.27  OA
BRANCH 21 24
ATOM     24  CA  ALA X1006      16.664  42.277  21.811  1.00 93.01 LIG 0.16  C 
ATOM     25  CB  ALA X1006      16.806  41.495  20.538  1.00 92.79 LIG 0.04  C 
BRANCH 24 26
ATOM     26  C   ALA X1006      15.311  42.969  21.853  1.00 92.71 LIG 0.22  C 
ATOM     27 O    ALA X1006      14.318  42.402  22.300  1.00 91.80 LIG-0.29  OA
ENDBRANCH 24 26
ENDBRANCH 21 24
ENDBRANCH 19 20
BRANCH 19 28
ATOM     28  CB  VAL X1005      17.188  41.182  26.363  1.00 93.65 LIG 0.01  C 
ATOM     29  CG2 VAL X1005      16.834  40.049  27.297  1.00 92.72 LIG 0.01  C 
ATOM     30  CG1 VAL X1005      15.997  42.086  26.089  1.00 92.97 LIG 0.01  C 
ENDBRANCH 19 28
ENDBRANCH 17 19
ENDBRANCH 11 15
ENDBRANCH 9 11
ENDBRANCH 5 7
ENDBRANCH 3 5
BRANCH 1 31
ATOM     31  CA  PRO X1002      17.006  34.655  28.501  1.00 99.31 LIG 0.18  C 
ATOM     32  N   PRO X1002      15.716  34.285  27.913  1.00 99.88 LIG-0.34  N 
ATOM     33  CD  PRO X1002      15.876  33.216  26.923  1.00 99.70 LIG 0.13  C 
ATOM     34  C   ASN X1001      14.600  34.880  28.369  1.00100.64 LIG 0.24  C 
ATOM     35  CG  PRO X1002      17.007  32.462  27.485  1.00 99.65 LIG 0.02  C 
ATOM     36  CB  PRO X1002      17.918  33.500  28.076  1.00 99.37 LIG 0.04  C 
ATOM     37 O    ASN X1001      14.635  35.700  29.278  1.00100.22 LIG-0.27  OA
BRANCH 34 38
ATOM     38  CA  ASN X1001      13.244  34.420  27.792  1.00101.23 LIG 0.18  C 
BRANCH 38 39
ATOM     39  N   ASN X1001      12.375  34.123  28.940  1.00101.62 LIG-0.34  N 
ATOM     40  C   SER X1000      12.332  32.890  29.450  1.00101.89 LIG 0.26  C 
ATOM     41 O    SER X1000      12.644  31.886  28.795  1.00101.60 LIG-0.27  OA
ATOM     42 H    ASN X1001      11.919  34.790  29.236  1.00101.62 LIG 0.16  HD
BRANCH 40 43
ATOM     43  CA  SER X1000      11.865  32.746  30.906  1.00101.91 LIG 0.42  C 
ATOM     44  N   SER X1000      12.377  33.845  31.767  1.00101.55 LIG 0.62  N 
BRANCH 43 45
ATOM     45  CB  SER X1000      10.343  32.663  31.000  1.00101.96 LIG 0.21  C 
BRANCH 45 46
ATOM     46 OG   SER X1000       9.814  31.619  30.201  1.00101.15 LIG-0.40  OA
ATOM     47 HG   SER X1000       8.978  31.599  30.283  1.00101.15 LIG 0.21  HD
ENDBRANCH 45 46
ENDBRANCH 43 45
ENDBRANCH 40 43
ENDBRANCH 38 39
BRANCH 38 48
ATOM     48  CB  ASN X1001      12.574  35.388  26.784  1.00101.08 LIG 0.14  C 
BRANCH 48 49
ATOM     49  CG  ASN X1001      13.028  36.849  26.905  1.00100.04 LIG 0.22  C 
ATOM     50  ND2 ASN X1001      14.261  37.139  26.529  1.00 98.76 LIG-0.37  N 
ATOM     51 21HD ASN X1001      14.535  37.954  26.546  1.00 98.76 LIG 0.16  HD
ATOM     52 22HD ASN X1001      14.789  36.513  26.266  1.00 98.76 LIG 0.16  HD
ATOM     53 OD1  ASN X1001      12.245  37.707  27.285  1.00 97.91 LIG-0.27  OA
ENDBRANCH 48 49
ENDBRANCH 38 48
ENDBRANCH 34 38
ENDBRANCH 1 31
TORSDOF 19
