REMARK  20 active torsions:
REMARK  status: ('A' for Active; 'I' for Inactive)
REMARK    1  A    between atoms: CA_2  and  CB_5 
REMARK    2  A    between atoms: CA_2  and  C_3 
REMARK       I    between atoms: C_3  and  N_9 
REMARK    3  A    between atoms: CB_5  and  OG1_6 
REMARK    4  A    between atoms: N_9  and  CA_10 
REMARK    5  A    between atoms: CA_10  and  CB_13 
REMARK    6  A    between atoms: CA_10  and  C_11 
REMARK       I    between atoms: C_11  and  N_18 
REMARK    7  A    between atoms: CB_13  and  CG_14 
REMARK    8  A    between atoms: N_18  and  CA_19 
REMARK    9  A    between atoms: CA_19  and  CB_22 
REMARK   10  A    between atoms: CA_19  and  C_20 
REMARK       I    between atoms: C_20  and  N_29 
REMARK   11  A    between atoms: CB_22  and  CG_23 
REMARK   12  A    between atoms: N_29  and  CA_30 
REMARK   13  A    between atoms: CA_30  and  C_31 
REMARK       I    between atoms: C_31  and  N_34 
REMARK   14  A    between atoms: N_34  and  CA_35 
REMARK   15  A    between atoms: CA_35  and  C_36 
REMARK       I    between atoms: C_36  and  N_40 
REMARK   16  A    between atoms: N_40  and  CA_41 
REMARK   17  A    between atoms: CA_41  and  CB_44 
REMARK   18  A    between atoms: CA_41  and  C_42 
REMARK   19  A    between atoms: CB_44  and  CG_45 
REMARK   20  A    between atoms: CG_45  and  CD_46 
ROOT
ATOM      1  CA  HIS A 388     -26.442 -25.888  11.894  1.00 17.64     0.182 C 
ENDROOT
BRANCH   1   2
ATOM      2  N   HIS A 388     -27.554 -26.834  11.995  1.00 19.60    -0.346 N 
ATOM      3  H   HIS A 388     -28.007 -26.768  12.723  1.00 19.60     0.163 HD
ATOM      4  C   ASP A 387     -27.827 -27.716  11.032  1.00 22.66     0.241 C 
ATOM      5  O   ASP A 387     -27.179 -27.783   9.983  1.00 22.02    -0.271 OA
BRANCH   4   6
ATOM      6  CA  ASP A 387     -29.013 -28.646  11.268  1.00 25.57     0.186 C 
BRANCH   6   7
ATOM      7  N   ASP A 387     -30.091 -28.169  10.378  1.00 28.40    -0.345 N 
ATOM      8  H   ASP A 387     -30.112 -28.557   9.611  1.00 28.40     0.163 HD
ATOM      9  C   THR A 386     -30.954 -27.211  10.752  1.00 31.30     0.260 C 
ATOM     10  O   THR A 386     -31.193 -26.949  11.947  1.00 31.60    -0.271 OA
BRANCH   9  11
ATOM     11  CA  THR A 386     -31.710 -26.443   9.638  1.00 33.11     0.427 C 
ATOM     12  N   THR A 386     -31.061 -26.526   8.295  1.00 33.83     0.618 N 
BRANCH  11  13
ATOM     13  CB  THR A 386     -33.205 -26.870   9.569  1.00 33.77     0.162 C 
ATOM     14  CG2 THR A 386     -33.426 -28.036   8.600  1.00 34.60     0.042 C 
BRANCH  13  15
ATOM     15  OG1 THR A 386     -33.645 -27.365  10.843  1.00 35.18    -0.393 OA
ATOM     16  HG1 THR A 386     -34.453 -27.591  10.792  1.00 35.18     0.210 HD
ENDBRANCH  13  15
ENDBRANCH  11  13
ENDBRANCH   9  11
ENDBRANCH   6   7
BRANCH   6  17
ATOM     17  CB  ASP A 387     -28.609 -30.116  10.967  1.00 25.68     0.147 C 
BRANCH  17  18
ATOM     18  CG  ASP A 387     -27.736 -30.746  12.074  1.00 25.80     0.175 C 
ATOM     19  OD2 ASP A 387     -27.673 -31.984  12.253  1.00 26.75    -0.648 OA
ATOM     20  OD1 ASP A 387     -27.040 -30.030  12.846  1.00 21.65    -0.648 OA
ENDBRANCH  17  18
ENDBRANCH   6  17
ENDBRANCH   4   6
ENDBRANCH   1   2
BRANCH   1  21
ATOM     21  CB  HIS A 388     -26.877 -24.417  12.152  1.00 17.51     0.095 C 
BRANCH  21  22
ATOM     22  CG  HIS A 388     -27.945 -23.891  11.223  1.00 19.36     0.056 A 
ATOM     23  ND1 HIS A 388     -27.843 -23.940   9.852  1.00 21.21    -0.245 NA
ATOM     24  CE1 HIS A 388     -28.930 -23.421   9.308  1.00 22.16     0.232 A 
ATOM     25  NE2 HIS A 388     -29.726 -23.009  10.277  1.00 21.69    -0.252 NA
ATOM     26  CD2 HIS A 388     -29.130 -23.286  11.484  1.00 21.19     0.145 A 
ENDBRANCH  21  22
ENDBRANCH   1  21
BRANCH   1  27
ATOM     27  C   HIS A 388     -25.360 -26.261  12.917  1.00 15.45     0.241 C 
ATOM     28  O   HIS A 388     -24.558 -25.415  13.277  1.00 14.42    -0.271 OA
ATOM     29  N   GLY A 389     -25.324 -27.518  13.376  1.00 14.00    -0.351 N 
ATOM     30  H   GLY A 389     -25.888 -28.129  13.156  1.00 14.00     0.163 HD
BRANCH  29  31
ATOM     31  CA  GLY A 389     -24.289 -27.954  14.313  1.00 13.01     0.225 C 
BRANCH  31  32
ATOM     32  C   GLY A 389     -24.798 -28.076  15.733  1.00 11.92     0.236 C 
ATOM     33  O   GLY A 389     -26.009 -28.291  15.982  1.00 12.61    -0.272 OA
ATOM     34  N   ALA A 390     -23.883 -27.974  16.679  1.00 10.53    -0.347 N 
ATOM     35  H   ALA A 390     -23.043 -27.885  16.519  1.00 10.53     0.163 HD
BRANCH  34  36
ATOM     36  CA  ALA A 390     -24.217 -28.004  18.105  1.00 11.53     0.172 C 
ATOM     37  CB  ALA A 390     -22.955 -27.829  18.922  1.00 11.91     0.042 C 
BRANCH  36  38
ATOM     38  C   ALA A 390     -25.216 -26.880  18.446  1.00 13.11     0.240 C 
ATOM     39  N   GLU A 391     -26.088 -27.176  19.399  1.00 14.39    -0.345 N 
ATOM     40  H   GLU A 391     -26.087 -27.921  19.828  1.00 14.39     0.163 HD
ATOM     41  O   ALA A 390     -25.237 -25.804  17.835  1.00 12.73    -0.271 OA
BRANCH  39  42
ATOM     42  CA  GLU A 391     -27.126 -26.270  19.806  1.00 15.60     0.186 C 
BRANCH  42  43
ATOM     43  CB  GLU A 391     -28.408 -26.598  19.033  1.00 17.03     0.046 C 
BRANCH  43  44
ATOM     44  CG  GLU A 391     -29.255 -25.414  18.656  1.00 23.68     0.116 C 
BRANCH  44  45
ATOM     45  CD  GLU A 391     -30.319 -25.812  17.635  1.00 29.63     0.172 C 
ATOM     46  OE1 GLU A 391     -30.981 -26.870  17.858  1.00 31.73    -0.648 OA
ATOM     47  OE2 GLU A 391     -30.436 -25.098  16.601  1.00 33.20    -0.648 OA
ENDBRANCH  44  45
ENDBRANCH  43  44
ENDBRANCH  42  43
BRANCH  42  48
ATOM     48  C   GLU A 391     -27.335 -26.462  21.305  1.00 14.85     0.196 C 
ATOM     49  OXT GLU A 391     -28.395 -26.131  21.818  1.00 14.73    -0.646 OA
ATOM     50  O   GLU A 391     -26.436 -26.931  22.004  1.00 14.85    -0.646 OA
ENDBRANCH  42  48
ENDBRANCH  39  42
ENDBRANCH  36  38
ENDBRANCH  34  36
ENDBRANCH  31  32
ENDBRANCH  29  31
ENDBRANCH   1  27
TORSDOF 20
