USER: ADFR SOLUTION from run 0
USER: SCORE 8.360484 LL:  -2.686 LR:  -6.734 RR:   0.000 FEB:  -2.558
USER: RMSD 1.045457
USER: STATUS Locally minimized using BFGS
USER: GENES 16
USER: genes 0 Translation |==|  0.42511 0.57803 0.56622
USER: genes 1 Rotation |==|  0.46677 0.50893 0.47151 0.99800
USER: genes 2 Torsion [N]-CA--C-[N] |==|  0.48754
USER: genes 3 Torsion [C]-N--CA-[CB] |==|  0.45257
USER: genes 4 Torsion [N]-CA--CB-[CG2] |==|  0.51199
USER: genes 5 Torsion [CA]-CB--OG1-[HG1] |==|  0.50010
USER: genes 6 Torsion [N]-CA--C-[N] |==|  0.41091
USER: genes 7 Torsion [C]-N--CA-[CB] |==|  0.45457
USER: genes 8 Torsion [N]-CA--CB-[CG] |==|  0.86144
USER: genes 9 Torsion [CA]-CB--CG-[CD1] |==|  0.52338
USER: genes 10 Torsion [N]-CA--C-[O] |==|  0.95243
USER: genes 11 Torsion [O]-C--CA-[N] |==|  0.03510
USER: genes 12 Torsion [N]-C--CA-[N] |==|  0.22881
USER: genes 13 Torsion [C]-CA--CB-[CG] |==|  0.41633
USER: genes 14 Torsion [CA]-CB--CG-[SD] |==|  0.62334
USER: genes 15 Torsion [CB]-CG--SD-[CE] |==|  0.88311
ROOT
ATOM      1  C   PRO R   4       4.418   1.741 -13.812  1.00 60.54 LIG 0.24  C 
ATOM      2 O    PRO R   4       4.813   0.905 -14.627  1.00 63.53 LIG-0.27  OA
ATOM      3  N   PRO R   5       5.081   2.036 -12.679  1.00 48.92 LIG-0.34  N 
ATOM      4  CA  PRO R   5       6.321   1.332 -12.326  1.00 52.68 LIG 0.18  C 
ATOM      5  CB  PRO R   5       6.715   1.970 -10.988  1.00 55.54 LIG 0.04  C 
ATOM      6  CG  PRO R   5       6.099   3.318 -11.010  1.00 46.13 LIG 0.02  C 
ATOM      7  CD  PRO R   5       4.810   3.165 -11.770  1.00 43.47 LIG 0.13  C 
ENDROOT
BRANCH 4 8
ATOM      8  C   PRO R   5       6.139  -0.177 -12.142  1.00 58.07 LIG 0.24  C 
ATOM      9 O    PRO R   5       5.016  -0.685 -12.204  1.00 51.36 LIG-0.27  OA
ATOM     10  N   THR R   6       7.246  -0.877 -11.912  1.00 69.24 LIG-0.34  N 
ATOM     11 H    THR R   6       8.035  -0.535 -11.915  1.00 69.24 LIG 0.16  HD
BRANCH 10 12
ATOM     12  CA  THR R   6       7.217  -2.309 -11.632  1.00 55.31 LIG 0.20  C 
BRANCH 12 13
ATOM     13  CB  THR R   6       8.608  -2.954 -11.820  1.00 60.29 LIG 0.15  C 
ATOM     14  CG2 THR R   6       8.537  -4.461 -11.627  1.00 62.01 LIG 0.04  C 
BRANCH 13 15
ATOM     15 OG1  THR R   6       9.094  -2.675 -13.140  1.00 91.48 LIG-0.39  OA
ATOM     16 HG1  THR R   6       9.849  -3.027 -13.241  1.00 91.48 LIG 0.21  HD
ENDBRANCH 13 15
ENDBRANCH 12 13
BRANCH 12 17
ATOM     17  C   THR R   6       6.745  -2.543 -10.204  1.00 56.48 LIG 0.24  C 
ATOM     18  N   LEU R   7       6.054  -3.659  -9.989  1.00 43.78 LIG-0.35  N 
ATOM     19 H    LEU R   7       5.881  -4.242 -10.598  1.00 43.78 LIG 0.16  HD
ATOM     20 O    THR R   6       6.998  -1.724  -9.317  1.00 41.48 LIG-0.27  OA
BRANCH 18 21
ATOM     21  CA  LEU R   7       5.523  -3.988  -8.673  1.00 53.52 LIG 0.16  C 
BRANCH 21 22
ATOM     22  CB  LEU R   7       4.456  -5.078  -8.785  1.00 41.32 LIG 0.04  C 
BRANCH 22 23
ATOM     23  CG  LEU R   7       3.371  -4.818  -9.835  1.00 48.65 LIG-0.02  C 
ATOM     24  CD1 LEU R   7       2.246  -5.841  -9.738  1.00 40.28 LIG 0.01  C 
ATOM     25  CD2 LEU R   7       2.823  -3.402  -9.708  1.00 37.72 LIG 0.01  C 
ENDBRANCH 22 23
ENDBRANCH 21 22
BRANCH 21 26
ATOM     26  C   LEU R   7       6.632  -4.418  -7.714  1.00 46.73 LIG 0.22  C 
ATOM     27 O    LEU R   7       7.736  -4.758  -8.141  1.00 57.50 LIG-0.29  OA
ENDBRANCH 21 26
ENDBRANCH 18 21
ENDBRANCH 12 17
ENDBRANCH 10 12
ENDBRANCH 4 8
BRANCH 1 28
ATOM     28  CA  PRO R   4       3.117   2.491 -14.093  1.00 54.23 LIG 0.18  C 
ATOM     29  N   PRO R   4       2.398   1.843 -15.194  1.00 66.40 LIG-0.34  N 
ATOM     30  CD  PRO R   4       1.343   0.956 -14.683  1.00 55.20 LIG 0.13  C 
ATOM     31  C   MET R   3       2.534   2.058 -16.514  1.00 65.13 LIG 0.26  C 
ATOM     32  CG  PRO R   4       0.910   1.665 -13.441  1.00 51.34 LIG 0.02  C 
ATOM     33  CB  PRO R   4       2.150   2.336 -12.903  1.00 43.90 LIG 0.04  C 
ATOM     34 O    MET R   3       1.919   1.404 -17.359  1.00 74.37 LIG-0.27  OA
BRANCH 31 35
ATOM     35  CA  MET R   3       3.488   3.168 -16.954  1.00 67.30 LIG 0.40  C 
ATOM     36  N   MET R   3       4.883   2.737 -16.987  1.00 55.69 LIG 0.61  N 
BRANCH 35 37
ATOM     37  CB  MET R   3       3.044   3.676 -18.331  1.00 55.44 LIG 0.06  C 
BRANCH 37 38
ATOM     38  CG  MET R   3       3.348   5.131 -18.611  1.00 49.90 LIG 0.08  C 
BRANCH 38 39
ATOM     39 SD   MET R   3       1.918   5.923 -19.368  1.00 67.63 LIG-0.17  SA
ATOM     40  CE  MET R   3       1.397   4.655 -20.522  1.00 69.90 LIG 0.09  C 
ENDBRANCH 38 39
ENDBRANCH 37 38
ENDBRANCH 35 37
ENDBRANCH 31 35
ENDBRANCH 1 28
TORSDOF 14
