REMARK  14 active torsions:
REMARK  status: ('A' for Active; 'I' for Inactive)
REMARK    1  A    between atoms: CA_2  and  C_3 
REMARK    2  A    between atoms: CA_2  and  CB_5 
REMARK       I    between atoms: C_3  and  N_9 
REMARK    3  A    between atoms: CB_5  and  CG_6 
REMARK    4  A    between atoms: CG_6  and  SD_7 
REMARK    5  A    between atoms: CA_10  and  C_11 
REMARK       I    between atoms: C_11  and  N_16 
REMARK    6  A    between atoms: CA_17  and  C_18 
REMARK       I    between atoms: C_18  and  N_23 
REMARK    7  A    between atoms: N_23  and  CA_24 
REMARK    8  A    between atoms: CA_24  and  CB_27 
REMARK    9  A    between atoms: CA_24  and  C_25 
REMARK       I    between atoms: C_25  and  N_32 
REMARK   10  A    between atoms: CB_27  and  OG1_28 
REMARK   11  A    between atoms: N_32  and  CA_33 
REMARK   12  A    between atoms: CA_33  and  CB_36 
REMARK   13  A    between atoms: CA_33  and  C_34 
REMARK   14  A    between atoms: CB_36  and  CG_37 
ROOT
ATOM      1  C   PRO R   4       4.623   1.947 -14.341  1.00 60.54     0.243 C 
ATOM      2  O   PRO R   4       5.135   1.277 -15.240  1.00 63.53    -0.271 OA
ATOM      3  N   PRO R   5       5.215   2.159 -13.152  1.00 48.92    -0.337 N 
ATOM      4  CA  PRO R   5       6.518   1.556 -12.840  1.00 52.68     0.179 C 
ATOM      5  CB  PRO R   5       6.798   2.048 -11.415  1.00 55.54     0.037 C 
ATOM      6  CG  PRO R   5       6.031   3.310 -11.287  1.00 46.13     0.022 C 
ATOM      7  CD  PRO R   5       4.790   3.118 -12.116  1.00 43.47     0.127 C 
ENDROOT
BRANCH   4   8
ATOM      8  C   PRO R   5       6.507   0.025 -12.863  1.00 58.07     0.241 C 
ATOM      9  O   PRO R   5       5.442  -0.593 -12.941  1.00 51.36    -0.271 OA
ATOM     10  N   THR R   6       7.694  -0.571 -12.788  1.00 69.24    -0.344 N 
ATOM     11  H   THR R   6       8.441  -0.145 -12.780  1.00 69.24     0.163 HD
BRANCH  10  12
ATOM     12  CA  THR R   6       7.833  -2.021 -12.711  1.00 55.31     0.205 C 
BRANCH  12  13
ATOM     13  CB  THR R   6       9.271  -2.474 -13.049  1.00 60.29     0.146 C 
ATOM     14  CG2 THR R   6       9.395  -3.988 -12.970  1.00 62.01     0.042 C 
BRANCH  13  15
ATOM     15  OG1 THR R   6       9.612  -2.046 -14.374  1.00 91.48    -0.393 OA
ATOM     16  HG1 THR R   6      10.394  -2.292 -14.555  1.00 91.48     0.210 HD
ENDBRANCH  13  15
ENDBRANCH  12  13
BRANCH  12  17
ATOM     17  C   THR R   6       7.472  -2.498 -11.312  1.00 56.48     0.243 C 
ATOM     18  N   LEU R   7       6.810  -3.650 -11.236  1.00 43.78    -0.347 N 
ATOM     19  H   LEU R   7       6.598  -4.128 -11.919  1.00 43.78     0.163 HD
ATOM     20  O   THR R   6       7.784  -1.832 -10.322  1.00 41.48    -0.271 OA
BRANCH  18  21
ATOM     21  CA  LEU R   7       6.384  -4.203  -9.957  1.00 53.52     0.163 C 
BRANCH  21  22
ATOM     22  CB  LEU R   7       5.312  -5.274 -10.170  1.00 41.32     0.037 C 
BRANCH  22  23
ATOM     23  CG  LEU R   7       4.010  -4.771 -10.801  1.00 48.65    -0.020 C 
ATOM     24  CD1 LEU R   7       3.075  -5.924 -11.144  1.00 40.28     0.009 C 
ATOM     25  CD2 LEU R   7       3.315  -3.770  -9.886  1.00 37.72     0.009 C 
ENDBRANCH  22  23
ENDBRANCH  21  22
BRANCH  21  26
ATOM     26  C   LEU R   7       7.564  -4.773  -9.173  1.00 46.73     0.219 C 
ATOM     27  O   LEU R   7       8.632  -5.021  -9.735  1.00 57.50    -0.287 OA
ENDBRANCH  21  26
ENDBRANCH  18  21
ENDBRANCH  12  17
ENDBRANCH  10  12
ENDBRANCH   4   8
BRANCH   1  28
ATOM     28  CA  PRO R   4       3.252   2.579 -14.578  1.00 54.23     0.179 C 
ATOM     29  N   PRO R   4       2.627   1.979 -15.760  1.00 66.40    -0.337 N 
ATOM     30  CD  PRO R   4       1.667   0.934 -15.375  1.00 55.20     0.127 C 
ATOM     31  C   MET R   3       2.760   2.349 -17.046  1.00 65.13     0.259 C 
ATOM     32  CG  PRO R   4       1.139   1.455 -14.078  1.00 51.34     0.022 C 
ATOM     33  CB  PRO R   4       2.289   2.194 -13.438  1.00 43.90     0.037 C 
ATOM     34  O   MET R   3       2.234   1.727 -17.972  1.00 74.37    -0.271 OA
BRANCH  31  35
ATOM     35  CA  MET R   3       3.593   3.595 -17.340  1.00 67.30     0.400 C 
ATOM     36  N   MET R   3       5.030   3.355 -17.236  1.00 55.69     0.615 N 
BRANCH  35  37
ATOM     37  CB  MET R   3       3.228   4.108 -18.738  1.00 55.44     0.061 C 
BRANCH  37  38
ATOM     38  CG  MET R   3       3.387   5.599 -18.941  1.00 49.90     0.076 C 
BRANCH  38  39
ATOM     39  SD  MET R   3       1.980   6.247 -19.862  1.00 67.63    -0.173 SA
ATOM     40  CE  MET R   3       1.800   4.997 -21.133  1.00 69.90     0.089 C 
ENDBRANCH  38  39
ENDBRANCH  37  38
ENDBRANCH  35  37
ENDBRANCH  31  35
ENDBRANCH   1  28
TORSDOF 14
