REMARK  24 active torsions:
REMARK  status: ('A' for Active; 'I' for Inactive)
REMARK    1  A    between atoms: N_1  and  CA_2 
REMARK    2  A    between atoms: CA_2  and  CB_5 
REMARK    3  A    between atoms: CA_2  and  C_3 
REMARK       I    between atoms: C_3  and  N_14 
REMARK    4  A    between atoms: CB_5  and  CG_6 
REMARK    5  A    between atoms: N_14  and  CA_15 
REMARK    6  A    between atoms: CA_15  and  C_16 
REMARK    7  A    between atoms: CA_15  and  CB_18 
REMARK       I    between atoms: C_16  and  N_25 
REMARK    8  A    between atoms: CB_18  and  CG_19 
REMARK    9  A    between atoms: N_25  and  CA_26 
REMARK   10  A    between atoms: CA_26  and  C_27 
REMARK   11  A    between atoms: CA_26  and  CB_29 
REMARK       I    between atoms: C_27  and  N_36 
REMARK   12  A    between atoms: CB_29  and  CG_30 
REMARK   13  A    between atoms: N_36  and  CA_37 
REMARK   14  A    between atoms: CA_37  and  C_38 
REMARK   15  A    between atoms: CA_37  and  CB_40 
REMARK       I    between atoms: C_38  and  N_47 
REMARK   16  A    between atoms: CB_40  and  CG_41 
REMARK   17  A    between atoms: N_47  and  CA_48 
REMARK   18  A    between atoms: CA_48  and  CB_51 
REMARK   19  A    between atoms: CA_48  and  C_49 
REMARK       I    between atoms: C_49  and  N_58 
REMARK   20  A    between atoms: CB_51  and  CG_52 
REMARK   21  A    between atoms: N_58  and  CA_59 
REMARK   22  A    between atoms: CA_59  and  C_60 
REMARK   23  A    between atoms: CA_59  and  CB_62 
REMARK   24  A    between atoms: CB_62  and  CG_63 
ROOT
ATOM      1  C   HIS X   1       0.659   2.394  21.451  1.00 40.87     0.241 C 
ATOM      2  O   HIS X   1      -0.568   2.367  21.585  1.00 40.80    -0.271 OA
ATOM      3  N   HIS X   2       1.349   1.562  20.696  1.00 30.16    -0.346 N 
ATOM      4  H   HIS X   2       2.206   1.585  20.629  1.00 30.16     0.163 HD
ENDROOT
BRANCH   1   5
ATOM      5  CA  HIS X   1       1.530   3.417  22.149  1.00 48.06     0.182 C 
BRANCH   5   6
ATOM      6  N   HIS X   1       2.797   3.556  21.426  1.00 54.11    -0.346 N 
ATOM      7  H   HIS X   1       2.724   3.952  20.666  1.00 54.11     0.163 HD
ATOM      8  C   HIS X   0       3.940   3.111  21.906  1.00 58.54     0.241 C 
ATOM      9  O   HIS X   0       4.030   2.347  22.869  1.00 63.37    -0.271 OA
BRANCH   8  10
ATOM     10  CA  HIS X   0       5.163   3.624  21.164  1.00 62.53     0.182 C 
BRANCH  10  11
ATOM     11  N   HIS X   0       5.172   3.217  19.754  1.00 60.73    -0.346 N 
ATOM     12  C   HIS X  -1       5.290   1.944  19.412  1.00 60.09     0.249 C 
ATOM     13  O   HIS X  -1       4.958   1.009  20.144  1.00 62.79    -0.271 OA
ATOM     14  H   HIS X   0       5.096   3.864  19.193  1.00 60.73     0.163 HD
BRANCH  12  15
ATOM     15  CA  HIS X  -1       5.838   1.705  18.010  1.00 59.53     0.280 C 
BRANCH  15  16
ATOM     16  N   HIS X  -1       6.717   0.487  18.006  1.00 57.14    -0.066 N 
ATOM     17  H3  HIS X  -1       6.243  -0.222  18.261  1.00 57.14     0.275 HD
ATOM     18  H2  HIS X  -1       7.395   0.608  18.570  1.00 57.14     0.275 HD
ATOM     19  H1  HIS X  -1       7.034   0.352  17.185  1.00 57.14     0.275 HD
ENDBRANCH  15  16
BRANCH  15  20
ATOM     20  CB  HIS X  -1       4.707   1.556  16.992  1.00 57.27     0.103 C 
BRANCH  20  21
ATOM     21  CG  HIS X  -1       4.467   2.782  16.172  1.00 54.13     0.056 A 
ATOM     22  ND1 HIS X  -1       3.275   3.474  16.200  1.00 52.72    -0.245 NA
ATOM     23  CE1 HIS X  -1       3.344   4.497  15.365  1.00 54.35     0.232 A 
ATOM     24  NE2 HIS X  -1       4.537   4.493  14.795  1.00 53.65    -0.252 NA
ATOM     25  CD2 HIS X  -1       5.260   3.430  15.285  1.00 55.23     0.145 A 
ENDBRANCH  20  21
ENDBRANCH  15  20
ENDBRANCH  12  15
ENDBRANCH  10  11
BRANCH  10  26
ATOM     26  CB  HIS X   0       5.268   5.157  21.316  1.00 64.99     0.095 C 
BRANCH  26  27
ATOM     27  CG  HIS X   0       6.509   5.751  20.714  1.00 69.41     0.056 A 
ATOM     28  ND1 HIS X   0       6.622   6.037  19.368  1.00 72.01    -0.245 NA
ATOM     29  CE1 HIS X   0       7.814   6.556  19.127  1.00 72.69     0.232 A 
ATOM     30  NE2 HIS X   0       8.477   6.622  20.268  1.00 72.94    -0.252 NA
ATOM     31  CD2 HIS X   0       7.682   6.129  21.277  1.00 71.12     0.145 A 
ENDBRANCH  26  27
ENDBRANCH  10  26
ENDBRANCH   8  10
ENDBRANCH   5   6
BRANCH   5  32
ATOM     32  CB  HIS X   1       0.810   4.762  22.219  1.00 48.25     0.095 C 
BRANCH  32  33
ATOM     33  CG  HIS X   1       1.591   5.826  22.926  1.00 50.36     0.056 A 
ATOM     34  CD2 HIS X   1       1.900   5.979  24.237  1.00 51.47     0.145 A 
ATOM     35  NE2 HIS X   1       2.648   7.127  24.345  1.00 50.72    -0.252 NA
ATOM     36  CE1 HIS X   1       2.793   7.658  23.143  1.00 48.50     0.232 A 
ATOM     37  ND1 HIS X   1       2.164   6.895  22.268  1.00 47.89    -0.245 NA
ENDBRANCH  32  33
ENDBRANCH   5  32
ENDBRANCH   1   5
BRANCH   3  38
ATOM     38  CA  HIS X   2       0.714   0.500  19.883  1.00 26.25     0.182 C 
BRANCH  38  39
ATOM     39  C   HIS X   2      -0.032  -0.527  20.729  1.00 23.72     0.241 C 
ATOM     40  N   HIS X   3      -1.094  -1.046  20.135  1.00 22.33    -0.346 N 
ATOM     41  H   HIS X   3      -1.360  -0.820  19.349  1.00 22.33     0.163 HD
ATOM     42  O   HIS X   2       0.326  -0.829  21.877  1.00 19.88    -0.271 OA
BRANCH  40  43
ATOM     43  CA  HIS X   3      -1.926  -2.074  20.781  1.00 22.38     0.182 C 
BRANCH  43  44
ATOM     44  CB  HIS X   3      -3.218  -2.420  19.976  1.00 22.51     0.095 C 
BRANCH  44  45
ATOM     45  CG  HIS X   3      -2.991  -2.970  18.596  1.00 18.10     0.056 A 
ATOM     46  CD2 HIS X   3      -2.992  -4.241  18.123  1.00 18.75     0.145 A 
ATOM     47  NE2 HIS X   3      -2.774  -4.170  16.766  1.00 20.06    -0.252 NA
ATOM     48  CE1 HIS X   3      -2.659  -2.902  16.418  1.00 21.69     0.232 A 
ATOM     49  ND1 HIS X   3      -2.802  -2.159  17.503  1.00 17.48    -0.245 NA
ENDBRANCH  44  45
ENDBRANCH  43  44
BRANCH  43  50
ATOM     50  C   HIS X   3      -1.103  -3.313  21.131  1.00 21.59     0.241 C 
ATOM     51  O   HIS X   3      -1.400  -4.049  22.065  1.00 25.47    -0.271 OA
ATOM     52  N   HIS X   4      -0.025  -3.493  20.397  1.00 25.63    -0.347 N 
ATOM     53  H   HIS X   4       0.218  -2.972  19.757  1.00 25.63     0.163 HD
BRANCH  52  54
ATOM     54  CA  HIS X   4       0.865  -4.634  20.630  1.00 23.96     0.168 C 
BRANCH  54  55
ATOM     55  C   HIS X   4       2.104  -4.134  21.380  1.00 31.35     0.219 C 
ATOM     56  O   HIS X   4       2.942  -4.920  21.826  1.00 37.06    -0.287 OA
ENDBRANCH  54  55
BRANCH  54  57
ATOM     57  CB  HIS X   4       1.251  -5.334  19.321  1.00 23.83     0.094 C 
BRANCH  57  58
ATOM     58  CG  HIS X   4       0.171  -6.221  18.760  1.00 22.57     0.055 A 
ATOM     59  ND1 HIS X   4      -0.104  -6.313  17.408  1.00 22.63    -0.245 NA
ATOM     60  CE1 HIS X   4      -1.094  -7.170  17.220  1.00 19.94     0.232 A 
ATOM     61  NE2 HIS X   4      -1.482  -7.623  18.397  1.00 20.25    -0.252 NA
ATOM     62  CD2 HIS X   4      -0.698  -7.056  19.374  1.00 21.52     0.145 A 
ENDBRANCH  57  58
ENDBRANCH  54  57
ENDBRANCH  52  54
ENDBRANCH  43  50
ENDBRANCH  40  43
ENDBRANCH  38  39
BRANCH  38  63
ATOM     63  CB  HIS X   2       1.753  -0.216  19.012  1.00 28.74     0.095 C 
BRANCH  63  64
ATOM     64  CG  HIS X   2       1.190  -0.791  17.755  1.00 28.63     0.056 A 
ATOM     65  ND1 HIS X   2       0.646  -0.005  16.767  1.00 31.27    -0.245 NA
ATOM     66  CE1 HIS X   2       0.244  -0.770  15.769  1.00 28.11     0.232 A 
ATOM     67  NE2 HIS X   2       0.498  -2.027  16.077  1.00 29.87    -0.252 NA
ATOM     68  CD2 HIS X   2       1.099  -2.068  17.314  1.00 31.84     0.145 A 
ENDBRANCH  63  64
ENDBRANCH  38  63
ENDBRANCH   3  38
TORSDOF 24
