USER: ADFR SOLUTION from run 0
USER: SCORE 4.598307 LL:  -0.737 LR:  -4.075 RR:   0.000 FEB:  -2.286
USER: RMSD 0.866836
USER: STATUS Locally minimized using BFGS
USER: GENES 8
USER: genes 0 Translation |==|  0.38806 0.54128 0.40930
USER: genes 1 Rotation |==|  0.56390 0.47102 0.49920 0.99505
USER: genes 2 Torsion [C]-N--CA-[C] |==|  0.71111
USER: genes 3 Torsion [N]-CA--C-[N] |==|  0.47396
USER: genes 4 Torsion [C]-N--CA-[C] |==|  0.50884
USER: genes 5 Torsion [N]-CA--C-[O] |==|  0.26291
USER: genes 6 Torsion [N]-C--CA-[N] |==|  0.16627
USER: genes 7 Torsion [C]-CA--N-[H2] |==|  0.75743
ROOT
ATOM      1  C   GLY G   1      23.925 -16.279  16.876  1.00 43.90 LIG 0.24  C 
ATOM      2 O    GLY G   1      24.720 -15.692  16.137  1.00 43.93 LIG-0.27  OA
ATOM      3  N   GLY G   2      24.280 -16.950  17.973  1.00 44.62 LIG-0.35  N 
ATOM      4 H    GLY G   2      23.751 -17.475  18.403  1.00 44.62 LIG 0.16  HD
ENDROOT
BRANCH 3 5
ATOM      5  CA  GLY G   2      25.611 -16.852  18.543  1.00 45.53 LIG 0.23  C 
BRANCH 5 6
ATOM      6  C   GLY G   2      26.481 -18.049  18.266  1.00 46.02 LIG 0.23  C 
ATOM      7 O    GLY G   2      26.003 -19.050  17.737  1.00 47.02 LIG-0.27  OA
ATOM      8  N   GLY G   3      27.766 -17.926  18.599  1.00 46.62 LIG-0.35  N 
ATOM      9 H    GLY G   3      28.107 -17.203  18.918  1.00 46.62 LIG 0.16  HD
BRANCH 8 10
ATOM     10  CA  GLY G   3      28.723 -19.018  18.453  1.00 46.72 LIG 0.21  C 
BRANCH 10 11
ATOM     11  C   GLY G   3      30.122 -18.705  18.957  1.00 46.79 LIG 0.21  C 
ATOM     12 O    GLY G   3      30.463 -19.013  20.095  1.00 46.39 LIG-0.29  OA
ENDBRANCH 10 11
ENDBRANCH 8 10
ENDBRANCH 5 6
ENDBRANCH 3 5
BRANCH 1 13
ATOM     13  CA  GLY G   1      22.448 -16.257  16.575  1.00 43.33 LIG 0.33  C 
BRANCH 13 14
ATOM     14  N   GLY G   1      21.734 -15.628  17.709  1.00 42.49 LIG-0.07  N 
ATOM     15 H2   GLY G   1      21.540 -16.247  18.318  1.00 42.49 LIG 0.27  HD
ATOM     16 H3   GLY G   1      22.251 -15.003  18.075  1.00 42.49 LIG 0.27  HD
ATOM     17 H1   GLY G   1      20.980 -15.255  17.415  1.00 42.49 LIG 0.27  HD
ENDBRANCH 13 14
ENDBRANCH 1 13
TORSDOF 6
