USER: ADFR SOLUTION from run 0
USER: SCORE 16.020874 LL:  -3.617 LR: -13.850 RR:   0.000 FEB:  -7.585
USER: RMSD 0.295734
USER: STATUS Locally minimized using BFGS
USER: GENES 23
USER: genes 0 Translation |==|  0.52145 0.60829 0.47634
USER: genes 1 Rotation |==|  0.48592 0.50433 0.50917 0.99970
USER: genes 2 Torsion [N]-CA--C-[N] |==|  0.37724
USER: genes 3 Torsion [N]-CA--C-[N] |==|  0.44305
USER: genes 4 Torsion [C]-N--CA-[CB] |==|  0.47685
USER: genes 5 Torsion [N]-CA--CB-[CG] |==|  0.86158
USER: genes 6 Torsion [CA]-CB--CG-[CD] |==|  0.85006
USER: genes 7 Torsion [CB]-CG--CD-[OE2] |==|  0.39612
USER: genes 8 Torsion [N]-CA--C-[N] |==|  0.41881
USER: genes 9 Torsion [C]-N--CA-[CB] |==|  0.44990
USER: genes 10 Torsion [N]-CA--C-[O] |==|  0.91317
USER: genes 11 Torsion [C]-CA--CB-[CG] |==|  0.17996
USER: genes 12 Torsion [CA]-CB--CG-[CD] |==|  0.53331
USER: genes 13 Torsion [CB]-CG--CD-[OE1] |==|  0.94523
USER: genes 14 Torsion [C]-CA--N-[C] |==|  0.77257
USER: genes 15 Torsion [N]-C--CA-[N] |==|  0.21346
USER: genes 16 Torsion [C]-CA--CB-[CG] |==|  0.49859
USER: genes 17 Torsion [CA]-CB--CG-[CD2] |==|  0.34945
USER: genes 18 Torsion [CE1]-CZ--OH-[HH] |==|  0.50033
USER: genes 19 Torsion [C]-CA--N-[C] |==|  0.67218
USER: genes 20 Torsion [N]-C--CA-[N] |==|  0.29928
USER: genes 21 Torsion [C]-CA--CB-[CG] |==|  0.14807
USER: genes 22 Torsion [CA]-CB--CG-[OD2] |==|  0.62226
ROOT
ATOM      1  CA  GLU B 137     -34.780  16.658   3.697  1.00 17.35 LIG 0.18  C 
ENDROOT
BRANCH 1 2
ATOM      2  C   GLU B 137     -34.247  15.360   3.057  1.00 17.61 LIG 0.24  C 
ATOM      3 O    GLU B 137     -34.529  14.275   3.558  1.00 18.66 LIG-0.27  OA
ATOM      4  N   PRO B 138     -33.452  15.460   1.969  1.00 16.89 LIG-0.34  N 
ATOM      5  CD  PRO B 138     -33.028  16.701   1.291  1.00 17.79 LIG 0.13  C 
ATOM      6  CA  PRO B 138     -32.851  14.255   1.386  1.00 17.53 LIG 0.18  C 
ATOM      7  CG  PRO B 138     -31.870  16.259   0.392  1.00 17.78 LIG 0.02  C 
ATOM      8  CB  PRO B 138     -32.187  14.767   0.096  1.00 16.48 LIG 0.04  C 
BRANCH 6 9
ATOM      9  C   PRO B 138     -31.778  13.670   2.305  1.00 16.18 LIG 0.24  C 
ATOM     10  N   GLU B 139     -31.490  12.403   2.091  1.00 18.61 LIG-0.35  N 
ATOM     11 H    GLU B 139     -31.936  11.878   1.575  1.00 18.61 LIG 0.16  HD
ATOM     12 O    PRO B 138     -31.207  14.380   3.148  1.00 15.80 LIG-0.27  OA
BRANCH 10 13
ATOM     13  CA  GLU B 139     -30.343  11.798   2.751  1.00 18.29 LIG 0.18  C 
BRANCH 13 14
ATOM     14  CB  GLU B 139     -30.327  10.282   2.516  1.00 20.66 LIG 0.04  C 
BRANCH 14 15
ATOM     15  CG  GLU B 139     -31.683   9.623   2.828  1.00 25.98 LIG 0.12  C 
BRANCH 15 16
ATOM     16  CD  GLU B 139     -32.193   9.945   4.238  1.00 26.03 LIG 0.17  C 
ATOM     17 OE2  GLU B 139     -33.426  10.128   4.410  1.00 30.93 LIG-0.65  OA
ATOM     18 OE1  GLU B 139     -31.363  10.070   5.149  1.00 28.23 LIG-0.65  OA
ENDBRANCH 15 16
ENDBRANCH 14 15
ENDBRANCH 13 14
BRANCH 13 19
ATOM     19  C   GLU B 139     -29.059  12.481   2.288  1.00 18.24 LIG 0.24  C 
ATOM     20 O    GLU B 139     -28.931  12.962   1.141  1.00 18.84 LIG-0.27  OA
ATOM     21  N   ALA B 140     -28.081  12.484   3.176  1.00 17.91 LIG-0.34  N 
ATOM     22 H    ALA B 140     -28.111  12.086   3.938  1.00 17.91 LIG 0.16  HD
BRANCH 21 23
ATOM     23  CA  ALA B 140     -26.841  13.195   2.901  1.00 17.23 LIG 0.18  C 
ATOM     24  CB  ALA B 140     -26.046  13.450   4.176  1.00 16.99 LIG 0.04  C 
BRANCH 23 25
ATOM     25  C   ALA B 140     -25.991  12.452   1.874  1.00 18.72 LIG 0.20  C 
ATOM     26 O    ALA B 140     -26.026  11.206   1.802  1.00 21.33 LIG-0.65  OA
ATOM     27 OXT  ALA B 140     -25.309  13.132   1.087  1.00 18.51 LIG-0.65  OA
ENDBRANCH 23 25
ENDBRANCH 21 23
ENDBRANCH 13 19
ENDBRANCH 10 13
ENDBRANCH 6 9
ENDBRANCH 1 2
BRANCH 1 28
ATOM     28  CB  GLU B 137     -34.033  16.898   5.010  1.00 18.04 LIG 0.04  C 
BRANCH 28 29
ATOM     29  CG  GLU B 137     -32.559  17.156   4.784  1.00 15.54 LIG 0.12  C 
BRANCH 29 30
ATOM     30  CD  GLU B 137     -31.763  17.104   6.087  1.00 15.60 LIG 0.17  C 
ATOM     31 OE1  GLU B 137     -32.372  17.243   7.184  1.00 18.63 LIG-0.65  OA
ATOM     32 OE2  GLU B 137     -30.541  16.907   5.984  1.00 16.09 LIG-0.65  OA
ENDBRANCH 29 30
ENDBRANCH 28 29
ENDBRANCH 1 28
BRANCH 1 33
ATOM     33  N   GLU B 137     -36.184  16.521   4.018  1.00 19.05 LIG-0.35  N 
ATOM     34  C   TYR B 136     -37.087  16.701   3.079  1.00 22.23 LIG 0.24  C 
ATOM     35 O    TYR B 136     -36.810  16.906   1.904  1.00 24.10 LIG-0.27  OA
ATOM     36 H    GLU B 137     -36.357  16.321   4.836  1.00 19.05 LIG 0.16  HD
BRANCH 34 37
ATOM     37  CA  TYR B 136     -38.501  16.600   3.533  1.00 22.42 LIG 0.18  C 
BRANCH 37 38
ATOM     38  CB  TYR B 136     -39.370  16.448   2.325  1.00 19.45 LIG 0.07  C 
BRANCH 38 39
ATOM     39  CG  TYR B 136     -40.822  16.327   2.724  1.00 15.32 LIG-0.06  A 
ATOM     40  CD1 TYR B 136     -41.276  15.298   3.578  1.00 18.49 LIG 0.01  A 
ATOM     41  CE1 TYR B 136     -42.654  15.133   3.835  1.00 17.90 LIG 0.04  A 
ATOM     42  CZ  TYR B 136     -43.561  16.011   3.247  1.00 15.67 LIG 0.07  A 
ATOM     43  CE2 TYR B 136     -43.111  17.054   2.450  1.00 13.07 LIG 0.04  A 
ATOM     44  CD2 TYR B 136     -41.774  17.194   2.170  1.00 14.55 LIG 0.01  A 
BRANCH 42 45
ATOM     45 OH   TYR B 136     -44.883  15.857   3.521  1.00 15.32 LIG-0.36  OA
ATOM     46 HH   TYR B 136     -45.325  16.441   3.109  1.00 15.32 LIG 0.22  HD
ENDBRANCH 42 45
ENDBRANCH 38 39
ENDBRANCH 37 38
BRANCH 37 47
ATOM     47  N   TYR B 136     -38.894  17.801   4.232  1.00 26.32 LIG-0.34  N 
ATOM     48  C   ASP B 135     -39.259  17.755   5.506  1.00 34.01 LIG 0.26  C 
ATOM     49 O    ASP B 135     -39.535  16.695   6.082  1.00 37.29 LIG-0.27  OA
ATOM     50 H    TYR B 136     -38.869  18.519   3.759  1.00 26.32 LIG 0.16  HD
BRANCH 48 51
ATOM     51  CA  ASP B 135     -39.320  19.110   6.247  1.00 37.28 LIG 0.41  C 
ATOM     52  N   ASP B 135     -40.717  19.534   6.507  1.00 36.58 LIG 0.61  N 
BRANCH 51 53
ATOM     53  CB  ASP B 135     -38.539  19.036   7.568  1.00 38.83 LIG 0.16  C 
BRANCH 53 54
ATOM     54  CG  ASP B 135     -37.102  18.537   7.376  1.00 44.23 LIG 0.17  C 
ATOM     55 OD2  ASP B 135     -36.656  17.684   8.186  1.00 49.44 LIG-0.65  OA
ATOM     56 OD1  ASP B 135     -36.432  18.992   6.412  1.00 41.19 LIG-0.65  OA
ENDBRANCH 53 54
ENDBRANCH 51 53
ENDBRANCH 48 51
ENDBRANCH 37 47
ENDBRANCH 34 37
ENDBRANCH 1 33
TORSDOF 21
