USER: ADFR SOLUTION from run 0
USER: SCORE 12.795685 LL:  -2.763 LR: -13.621 RR:   0.000 FEB:  -7.655
USER: RMSD 0.682440
USER: STATUS Locally minimized using BFGS
USER: GENES 22
USER: genes 0 Translation |==|  0.39788 0.57933 0.47291
USER: genes 1 Rotation |==|  0.51533 0.51167 0.49450 0.99960
USER: genes 2 Torsion [N]-C--CA-[N] |==|  0.32342
USER: genes 3 Torsion [C]-CA--N-[C] |==|  0.81111
USER: genes 4 Torsion [N]-C--CA-[N] |==|  0.24495
USER: genes 5 Torsion [C]-CA--N-[C] |==|  0.60719
USER: genes 6 Torsion [N]-C--CA-[N] |==|  0.74668
USER: genes 7 Torsion [C]-CA--CB-[OG] |==|  0.12190
USER: genes 8 Torsion [CA]-CB--OG-[HG] |==|  0.49764
USER: genes 9 Torsion [C]-CA--CB-[CG] |==|  0.44315
USER: genes 10 Torsion [CA]-CB--CG-[CD] |==|  0.46896
USER: genes 11 Torsion [CB]-CG--CD-[CE] |==|  0.53711
USER: genes 12 Torsion [CG]-CD--CE-[NZ] |==|  0.48840
USER: genes 13 Torsion [CD]-CE--NZ-[HZ1] |==|  0.45503
USER: genes 14 Torsion [C]-N--CA-[CB] |==|  0.32622
USER: genes 15 Torsion [N]-CA--CB-[CG2] |==|  0.82260
USER: genes 16 Torsion [N]-CA--C-[N] |==|  0.30918
USER: genes 17 Torsion [N]-CA--C-[N] |==|  0.40970
USER: genes 18 Torsion [C]-N--CA-[C] |==|  0.77456
USER: genes 19 Torsion [N]-CA--C-[OXT] |==|  0.07821
USER: genes 20 Torsion [N]-CA--CB-[CG] |==|  0.81604
USER: genes 21 Torsion [CA]-CB--CG-[CD2] |==|  0.77430
ROOT
ATOM      1  C   LYS B   4     -29.575 -24.663  12.143  1.00 44.81 LIG 0.24  C 
ATOM      2 O    LYS B   4     -30.699 -24.671  12.619  1.00 44.64 LIG-0.27  OA
ATOM      3  N   VAL B   5     -28.476 -24.790  12.874  1.00 42.75 LIG-0.35  N 
ATOM      4 H    VAL B   5     -27.683 -24.803  12.542  1.00 42.75 LIG 0.16  HD
ENDROOT
BRANCH 1 5
ATOM      5  CA  LYS B   4     -29.382 -24.517  10.642  1.00 46.85 LIG 0.18  C 
BRANCH 5 6
ATOM      6  N   LYS B   4     -29.986 -25.660   9.962  1.00 49.38 LIG-0.35  N 
ATOM      7 H    LYS B   4     -30.679 -25.462   9.493  1.00 49.38 LIG 0.16  HD
ATOM      8  C   GLY B   3     -29.497 -26.894  10.066  1.00 51.92 LIG 0.24  C 
ATOM      9 O    GLY B   3     -28.359 -27.126  10.441  1.00 51.73 LIG-0.27  OA
BRANCH 8 10
ATOM     10  CA  GLY B   3     -30.438 -28.031   9.690  1.00 54.27 LIG 0.23  C 
BRANCH 10 11
ATOM     11  N   GLY B   3     -30.447 -28.425   8.282  1.00 57.77 LIG-0.35  N 
ATOM     12  C   SER B   2     -31.577 -28.767   7.650  1.00 59.92 LIG 0.26  C 
ATOM     13 O    SER B   2     -32.703 -28.580   8.140  1.00 61.15 LIG-0.27  OA
ATOM     14 H    GLY B   3     -29.673 -28.415   7.907  1.00 57.77 LIG 0.16  HD
BRANCH 12 15
ATOM     15  CA  SER B   2     -31.447 -29.400   6.241  1.00 60.93 LIG 0.42  C 
ATOM     16  N   SER B   2     -31.491 -28.370   5.155  1.00 61.12 LIG 0.62  N 
BRANCH 15 17
ATOM     17  CB  SER B   2     -30.180 -30.285   6.108  1.00 61.55 LIG 0.21  C 
BRANCH 17 18
ATOM     18 OG   SER B   2     -29.967 -31.133   7.241  1.00 63.00 LIG-0.40  OA
ATOM     19 HG   SER B   2     -29.279 -31.600   7.119  1.00 63.00 LIG 0.21  HD
ENDBRANCH 17 18
ENDBRANCH 15 17
ENDBRANCH 12 15
ENDBRANCH 10 11
ENDBRANCH 8 10
ENDBRANCH 5 6
BRANCH 5 20
ATOM     20  CB  LYS B   4     -30.004 -23.210  10.156  1.00 46.79 LIG 0.04  C 
BRANCH 20 21
ATOM     21  CG  LYS B   4     -29.444 -22.758   8.824  1.00 47.63 LIG 0.00  C 
BRANCH 21 22
ATOM     22  CD  LYS B   4     -30.241 -21.613   8.204  1.00 49.12 LIG 0.03  C 
BRANCH 22 23
ATOM     23  CE  LYS B   4     -29.828 -21.446   6.746  1.00 51.72 LIG 0.23  C 
BRANCH 23 24
ATOM     24  NZ  LYS B   4     -30.627 -20.412   6.026  1.00 54.70 LIG-0.08  N 
ATOM     25 HZ3  LYS B   4     -30.717 -19.694   6.543  1.00 54.70 LIG 0.27  HD
ATOM     26 HZ2  LYS B   4     -31.431 -20.740   5.831  1.00 54.70 LIG 0.27  HD
ATOM     27 HZ1  LYS B   4     -30.209 -20.185   5.273  1.00 54.70 LIG 0.27  HD
ENDBRANCH 23 24
ENDBRANCH 22 23
ENDBRANCH 21 22
ENDBRANCH 20 21
ENDBRANCH 5 20
ENDBRANCH 1 5
BRANCH 3 28
ATOM     28  CA  VAL B   5     -28.515 -24.919  14.313  1.00 41.28 LIG 0.18  C 
BRANCH 28 29
ATOM     29  CB  VAL B   5     -27.940 -26.285  14.852  1.00 41.63 LIG 0.01  C 
ATOM     30  CG2 VAL B   5     -28.784 -27.460  14.373  1.00 40.80 LIG 0.01  C 
ATOM     31  CG1 VAL B   5     -27.833 -26.292  16.422  1.00 37.84 LIG 0.01  C 
ENDBRANCH 28 29
BRANCH 28 32
ATOM     32  C   VAL B   5     -27.720 -23.768  14.880  1.00 41.69 LIG 0.24  C 
ATOM     33  N   PRO B   6     -28.419 -22.827  15.541  1.00 42.18 LIG-0.34  N 
ATOM     34  CD  PRO B   6     -29.881 -22.794  15.769  1.00 41.81 LIG 0.13  C 
ATOM     35  CA  PRO B   6     -27.732 -21.685  16.139  1.00 41.75 LIG 0.18  C 
ATOM     36  CG  PRO B   6     -30.117 -21.398  16.198  1.00 42.56 LIG 0.02  C 
ATOM     37  CB  PRO B   6     -28.834 -21.019  16.941  1.00 42.23 LIG 0.04  C 
ATOM     38 O    VAL B   5     -26.499 -23.706  14.718  1.00 40.76 LIG-0.27  OA
BRANCH 35 39
ATOM     39  C   PRO B   6     -26.590 -22.162  17.049  1.00 41.76 LIG 0.24  C 
ATOM     40 O    PRO B   6     -26.668 -23.242  17.610  1.00 42.44 LIG-0.27  OA
ATOM     41  N   LEU B   7     -25.508 -21.395  17.141  1.00 41.16 LIG-0.34  N 
ATOM     42 H    LEU B   7     -25.361 -20.701  16.655  1.00 41.16 LIG 0.16  HD
BRANCH 41 43
ATOM     43  CA  LEU B   7     -24.456 -21.699  18.115  1.00 40.72 LIG 0.18  C 
BRANCH 43 44
ATOM     44  C   LEU B   7     -24.783 -21.201  19.519  1.00 41.28 LIG 0.20  C 
ATOM     45 OXT  LEU B   7     -25.961 -21.088  19.901  1.00 40.17 LIG-0.65  OA
ATOM     46 O    LEU B   7     -23.834 -20.893  20.273  1.00 41.30 LIG-0.65  OA
ENDBRANCH 43 44
BRANCH 43 47
ATOM     47  CB  LEU B   7     -23.114 -21.115  17.675  1.00 40.49 LIG 0.04  C 
BRANCH 47 48
ATOM     48  CG  LEU B   7     -22.502 -21.720  16.411  1.00 39.74 LIG-0.02  C 
ATOM     49  CD2 LEU B   7     -21.796 -23.009  16.751  1.00 36.73 LIG 0.01  C 
ATOM     50  CD1 LEU B   7     -21.510 -20.734  15.842  1.00 40.10 LIG 0.01  C 
ENDBRANCH 47 48
ENDBRANCH 43 47
ENDBRANCH 41 43
ENDBRANCH 35 39
ENDBRANCH 28 32
ENDBRANCH 3 28
TORSDOF 20
