REMARK  20 active torsions:
REMARK  status: ('A' for Active; 'I' for Inactive)
REMARK    1  A    between atoms: CA_2  and  C_3 
REMARK    2  A    between atoms: CA_2  and  CB_5 
REMARK       I    between atoms: C_3  and  N_8 
REMARK    3  A    between atoms: CB_5  and  OG_6 
REMARK    4  A    between atoms: N_8  and  CA_9 
REMARK    5  A    between atoms: CA_9  and  C_10 
REMARK       I    between atoms: C_10  and  N_13 
REMARK    6  A    between atoms: N_13  and  CA_14 
REMARK    7  A    between atoms: CA_14  and  C_15 
REMARK    8  A    between atoms: CA_14  and  CB_17 
REMARK       I    between atoms: C_15  and  N_26 
REMARK    9  A    between atoms: CB_17  and  CG_18 
REMARK   10  A    between atoms: CG_18  and  CD_19 
REMARK   11  A    between atoms: CD_19  and  CE_20 
REMARK   12  A    between atoms: CE_20  and  NZ_21 
REMARK   13  A    between atoms: N_26  and  CA_27 
REMARK   14  A    between atoms: CA_27  and  CB_30 
REMARK   15  A    between atoms: CA_27  and  C_28 
REMARK       I    between atoms: C_28  and  N_34 
REMARK   16  A    between atoms: CA_35  and  C_36 
REMARK       I    between atoms: C_36  and  N_41 
REMARK   17  A    between atoms: N_41  and  CA_42 
REMARK   18  A    between atoms: CA_42  and  C_43 
REMARK   19  A    between atoms: CA_42  and  CB_45 
REMARK   20  A    between atoms: CB_45  and  CG_46 
ROOT
ATOM      1  C   LYS B   4     -29.813 -25.177  12.395  1.00 44.81     0.241 C 
ATOM      2  O   LYS B   4     -30.957 -25.183  12.818  1.00 44.64    -0.271 OA
ATOM      3  N   VAL B   5     -28.747 -25.234  13.182  1.00 42.75    -0.346 N 
ATOM      4  H   VAL B   5     -27.939 -25.249  12.888  1.00 42.75     0.163 HD
ENDROOT
BRANCH   1   5
ATOM      5  CA  LYS B   4     -29.552 -25.118  10.898  1.00 46.85     0.176 C 
BRANCH   5   6
ATOM      6  N   LYS B   4     -30.257 -26.215  10.239  1.00 49.38    -0.346 N 
ATOM      7  H   LYS B   4     -30.951 -25.969   9.796  1.00 49.38     0.163 HD
ATOM      8  C   GLY B   3     -29.850 -27.480  10.325  1.00 51.92     0.236 C 
ATOM      9  O   GLY B   3     -28.718 -27.791  10.658  1.00 51.73    -0.272 OA
BRANCH   8  10
ATOM     10  CA  GLY B   3     -30.880 -28.549   9.982  1.00 54.27     0.225 C 
BRANCH  10  11
ATOM     11  N   GLY B   3     -30.953 -28.950   8.578  1.00 57.77    -0.350 N 
ATOM     12  C   SER B   2     -32.113 -29.280   7.996  1.00 59.92     0.259 C 
ATOM     13  O   SER B   2     -33.215 -29.074   8.531  1.00 61.15    -0.271 OA
ATOM     14  H   GLY B   3     -30.195 -28.953   8.171  1.00 57.77     0.163 HD
BRANCH  12  15
ATOM     15  CA  SER B   2     -32.051 -29.922   6.587  1.00 60.93     0.423 C 
ATOM     16  N   SER B   2     -32.106 -28.896   5.497  1.00 61.12     0.617 N 
BRANCH  15  17
ATOM     17  CB  SER B   2     -30.814 -30.842   6.413  1.00 61.55     0.215 C 
BRANCH  17  18
ATOM     18  OG  SER B   2     -30.533 -31.628   7.576  1.00 63.00    -0.398 OA
ATOM     19  HG  SER B   2     -29.859 -32.109   7.434  1.00 63.00     0.209 HD
ENDBRANCH  17  18
ENDBRANCH  15  17
ENDBRANCH  12  15
ENDBRANCH  10  11
ENDBRANCH   8  10
ENDBRANCH   5   6
BRANCH   5  20
ATOM     20  CB  LYS B   4     -30.005 -23.772  10.338  1.00 46.79     0.035 C 
BRANCH  20  21
ATOM     21  CG  LYS B   4     -29.364 -23.451   9.004  1.00 47.63     0.004 C 
BRANCH  21  22
ATOM     22  CD  LYS B   4     -29.982 -22.229   8.329  1.00 49.12     0.027 C 
BRANCH  22  23
ATOM     23  CE  LYS B   4     -29.640 -22.250   6.844  1.00 51.72     0.229 C 
BRANCH  23  24
ATOM     24  NZ  LYS B   4     -30.334 -21.181   6.068  1.00 54.70    -0.079 N 
ATOM     25  HZ3 LYS B   4     -30.343 -20.428   6.542  1.00 54.70     0.274 HD
ATOM     26  HZ2 LYS B   4     -31.170 -21.433   5.897  1.00 54.70     0.274 HD
ATOM     27  HZ1 LYS B   4     -29.903 -21.043   5.301  1.00 54.70     0.274 HD
ENDBRANCH  23  24
ENDBRANCH  22  23
ENDBRANCH  21  22
ENDBRANCH  20  21
ENDBRANCH   5  20
ENDBRANCH   1   5
BRANCH   3  28
ATOM     28  CA  VAL B   5     -28.851 -25.276  14.623  1.00 41.28     0.180 C 
BRANCH  28  29
ATOM     29  CB  VAL B   5     -28.229 -26.571  15.275  1.00 41.63     0.009 C 
ATOM     30  CG2 VAL B   5     -28.844 -27.832  14.679  1.00 40.80     0.012 C 
ATOM     31  CG1 VAL B   5     -28.393 -26.569  16.840  1.00 37.84     0.012 C 
ENDBRANCH  28  29
BRANCH  28  32
ATOM     32  C   VAL B   5     -28.151 -24.048  15.151  1.00 41.69     0.243 C 
ATOM     33  N   PRO B   6     -28.925 -23.139  15.773  1.00 42.18    -0.337 N 
ATOM     34  CD  PRO B   6     -30.387 -23.209  15.990  1.00 41.81     0.127 C 
ATOM     35  CA  PRO B   6     -28.332 -21.927  16.332  1.00 41.75     0.179 C 
ATOM     36  CG  PRO B   6     -30.732 -21.821  16.366  1.00 42.56     0.022 C 
ATOM     37  CB  PRO B   6     -29.489 -21.318  17.102  1.00 42.23     0.037 C 
ATOM     38  O   VAL B   5     -26.937 -23.899  14.994  1.00 40.76    -0.271 OA
BRANCH  35  39
ATOM     39  C   PRO B   6     -27.165 -22.282  17.266  1.00 41.76     0.241 C 
ATOM     40  O   PRO B   6     -27.272 -23.210  18.050  1.00 42.44    -0.271 OA
ATOM     41  N   LEU B   7     -26.035 -21.594  17.136  1.00 41.16    -0.345 N 
ATOM     42  H   LEU B   7     -25.878 -21.031  16.505  1.00 41.16     0.163 HD
BRANCH  41  43
ATOM     43  CA  LEU B   7     -24.944 -21.760  18.100  1.00 40.72     0.185 C 
BRANCH  43  44
ATOM     44  C   LEU B   7     -25.239 -21.116  19.451  1.00 41.28     0.196 C 
ATOM     45  OXT LEU B   7     -26.390 -20.753  19.749  1.00 40.17    -0.646 OA
ATOM     46  O   LEU B   7     -24.289 -20.948  20.246  1.00 41.30    -0.646 OA
ENDBRANCH  43  44
BRANCH  43  47
ATOM     47  CB  LEU B   7     -23.634 -21.194  17.550  1.00 40.49     0.040 C 
BRANCH  47  48
ATOM     48  CG  LEU B   7     -22.941 -22.033  16.476  1.00 39.74    -0.020 C 
ATOM     49  CD2 LEU B   7     -22.213 -23.188  17.120  1.00 36.73     0.009 C 
ATOM     50  CD1 LEU B   7     -21.952 -21.154  15.748  1.00 40.10     0.009 C 
ENDBRANCH  47  48
ENDBRANCH  43  47
ENDBRANCH  41  43
ENDBRANCH  35  39
ENDBRANCH  28  32
ENDBRANCH   3  28
TORSDOF 20
