USER: ADFR SOLUTION from run 0
USER: SCORE 17.263615 LL:  -5.276 LR: -14.094 RR:   0.000 FEB:  -6.040
USER: RMSD 0.859616
USER: STATUS Locally minimized using BFGS
USER: GENES 29
USER: genes 0 Translation |==|  0.52167 0.54037 0.54958
USER: genes 1 Rotation |==|  0.50712 0.48303 0.51761 0.99935
USER: genes 2 Torsion [C]-N--CA-[CB] |==|  0.35771
USER: genes 3 Torsion [N]-CA--C-[N] |==|  0.29058
USER: genes 4 Torsion [C]-N--CA-[C] |==|  0.79744
USER: genes 5 Torsion [N]-CA--C-[N] |==|  0.36111
USER: genes 6 Torsion [C]-N--CA-[C] |==|  0.73163
USER: genes 7 Torsion [N]-CA--C-[N] |==|  0.34490
USER: genes 8 Torsion [C]-N--CA-[C] |==|  0.54230
USER: genes 9 Torsion [N]-CA--C-[O] |==|  0.50688
USER: genes 10 Torsion [N]-CA--CB-[OG] |==|  0.17396
USER: genes 11 Torsion [CA]-CB--OG-[HG] |==|  0.49799
USER: genes 12 Torsion [N]-CA--CB-[CG] |==|  0.79812
USER: genes 13 Torsion [CA]-CB--CG-[CD2] |==|  0.82545
USER: genes 14 Torsion [N]-CA--CB-[CG] |==|  0.83912
USER: genes 15 Torsion [CA]-CB--CG-[CD2] |==|  0.67184
USER: genes 16 Torsion [N]-CA--CB-[OG1] |==|  0.85957
USER: genes 17 Torsion [CA]-CB--OG1-[HG1] |==|  0.20953
USER: genes 18 Torsion [N]-C--CA-[N] |==|  0.36699
USER: genes 19 Torsion [C]-CA--CB-[CG] |==|  0.46297
USER: genes 20 Torsion [CA]-CB--CG-[CD2] |==|  0.74438
USER: genes 21 Torsion [C]-CA--N-[C] |==|  0.71280
USER: genes 22 Torsion [N]-C--CA-[N] |==|  0.38630
USER: genes 23 Torsion [C]-CA--CB-[CG] |==|  0.58621
USER: genes 24 Torsion [CA]-CB--CG-[OD1] |==|  0.67296
USER: genes 25 Torsion [C]-CA--N-[C] |==|  0.73901
USER: genes 26 Torsion [N]-C--CA-[N] |==|  0.10069
USER: genes 27 Torsion [C]-CA--CB-[CG] |==|  0.45308
USER: genes 28 Torsion [CA]-CB--CG-[OD2] |==|  0.57932
ROOT
ATOM      1  C   TRP D 340      23.621  36.690  81.447  1.00 16.52 LIG 0.24  C 
ATOM      2 O    TRP D 340      22.760  37.416  81.950  1.00 16.60 LIG-0.27  OA
ATOM      3  N   THR D 341      23.718  36.476  80.141  1.00 13.22 LIG-0.34  N 
ATOM      4 H    THR D 341      24.325  35.977  79.792  1.00 13.22 LIG 0.16  HD
ENDROOT
BRANCH 3 5
ATOM      5  CA  THR D 341      22.812  37.058  79.161  1.00 12.53 LIG 0.20  C 
BRANCH 5 6
ATOM      6  C   THR D 341      21.900  35.979  78.580  1.00 12.10 LIG 0.24  C 
ATOM      7 O    THR D 341      22.325  35.152  77.776  1.00 10.92 LIG-0.27  OA
ATOM      8  N   HIS D 342      20.645  35.969  79.012  1.00 12.26 LIG-0.35  N 
ATOM      9 H    HIS D 342      20.330  36.514  79.598  1.00 12.26 LIG 0.16  HD
BRANCH 8 10
ATOM     10  CA  HIS D 342      19.679  35.000  78.505  1.00 12.78 LIG 0.18  C 
BRANCH 10 11
ATOM     11  C   HIS D 342      19.298  35.375  77.088  1.00 14.51 LIG 0.24  C 
ATOM     12  N   LEU D 343      19.359  34.411  76.174  1.00 15.48 LIG-0.35  N 
ATOM     13 H    LEU D 343      19.535  33.589  76.356  1.00 15.48 LIG 0.16  HD
ATOM     14 O    HIS D 342      18.933  36.536  76.826  1.00 16.02 LIG-0.27  OA
BRANCH 12 15
ATOM     15  CA  LEU D 343      19.128  34.677  74.752  1.00 16.72 LIG 0.18  C 
BRANCH 15 16
ATOM     16  C   LEU D 343      17.703  34.383  74.289  1.00 19.19 LIG 0.24  C 
ATOM     17  N   SER D 344      17.041  35.391  73.698  1.00 21.37 LIG-0.34  N 
ATOM     18 H    SER D 344      17.300  36.210  73.740  1.00 21.37 LIG 0.16  HD
ATOM     19 O    LEU D 343      17.223  33.274  74.454  1.00 19.56 LIG-0.27  OA
BRANCH 17 20
ATOM     20  CA  SER D 344      15.800  35.203  72.912  1.00 23.14 LIG 0.19  C 
BRANCH 20 21
ATOM     21  C   SER D 344      15.491  36.443  72.062  1.00 24.18 LIG 0.22  C 
ATOM     22 O    SER D 344      14.464  36.504  71.363  1.00 25.35 LIG-0.29  OA
ENDBRANCH 20 21
BRANCH 20 23
ATOM     23  CB  SER D 344      14.601  34.905  73.815  1.00 23.66 LIG 0.20  C 
BRANCH 23 24
ATOM     24 OG   SER D 344      14.330  35.998  74.694  1.00 25.03 LIG-0.40  OA
ATOM     25 HG   SER D 344      13.663  35.815  75.171  1.00 25.03 LIG 0.21  HD
ENDBRANCH 23 24
ENDBRANCH 20 23
ENDBRANCH 17 20
ENDBRANCH 15 16
BRANCH 15 26
ATOM     26  CB  LEU D 343      20.088  33.845  73.883  1.00 15.83 LIG 0.04  C 
BRANCH 26 27
ATOM     27  CG  LEU D 343      21.541  34.278  73.871  1.00 14.86 LIG-0.02  C 
ATOM     28  CD1 LEU D 343      22.374  33.278  73.085  1.00 12.95 LIG 0.01  C 
ATOM     29  CD2 LEU D 343      21.669  35.703  73.275  1.00 12.95 LIG 0.01  C 
ENDBRANCH 26 27
ENDBRANCH 15 26
ENDBRANCH 12 15
ENDBRANCH 10 11
BRANCH 10 30
ATOM     30  CB  HIS D 342      18.420  34.992  79.386  1.00 12.90 LIG 0.10  C 
BRANCH 30 31
ATOM     31  CG  HIS D 342      18.693  34.682  80.822  1.00 12.99 LIG 0.06  A 
ATOM     32  CD2 HIS D 342      18.264  33.655  81.594  1.00 12.88 LIG 0.14  A 
ATOM     33 NE2  HIS D 342      18.799  33.838  82.844  1.00 14.80 LIG-0.25  NA
ATOM     34  CE1 HIS D 342      19.526  34.939  82.847  1.00 13.21 LIG 0.23  A 
ATOM     35 ND1  HIS D 342      19.472  35.472  81.639  1.00 14.49 LIG-0.24  NA
ENDBRANCH 30 31
ENDBRANCH 10 30
ENDBRANCH 8 10
ENDBRANCH 5 6
BRANCH 5 36
ATOM     36  CB  THR D 341      23.606  37.755  78.032  1.00 12.70 LIG 0.15  C 
ATOM     37  CG2 THR D 341      22.675  38.537  77.086  1.00 14.15 LIG 0.04  C 
BRANCH 36 38
ATOM     38 OG1  THR D 341      24.573  38.640  78.615  1.00 14.08 LIG-0.39  OA
ATOM     39 HG1  THR D 341      25.213  38.192  78.921  1.00 14.08 LIG 0.21  HD
ENDBRANCH 36 38
ENDBRANCH 5 36
ENDBRANCH 3 5
BRANCH 1 40
ATOM     40  CA  TRP D 340      24.615  35.939  82.325  1.00 18.72 LIG 0.18  C 
BRANCH 40 41
ATOM     41  CB  TRP D 340      23.862  34.815  83.035  1.00 19.00 LIG 0.07  C 
BRANCH 41 42
ATOM     42  CG  TRP D 340      24.727  33.795  83.687  1.00 19.22 LIG-0.03  A 
ATOM     43  CD2 TRP D 340      25.192  32.581  83.102  1.00 20.18 LIG-0.00  A 
ATOM     44  CE3 TRP D 340      25.045  31.997  81.838  1.00 18.70 LIG 0.01  A 
ATOM     45  CE2 TRP D 340      25.946  31.903  84.087  1.00 18.84 LIG 0.04  A 
ATOM     46  CZ3 TRP D 340      25.646  30.764  81.598  1.00 20.55 LIG 0.00  A 
ATOM     47  CH2 TRP D 340      26.395  30.122  82.601  1.00 19.52 LIG 0.00  A 
ATOM     48  CZ2 TRP D 340      26.553  30.670  83.848  1.00 19.79 LIG 0.03  A 
ATOM     49  NE1 TRP D 340      25.940  32.677  85.219  1.00 21.77 LIG-0.36  N 
ATOM     50  CD1 TRP D 340      25.191  33.806  84.971  1.00 20.48 LIG 0.10  A 
ATOM     51 HE1  TRP D 340      26.337  32.490  85.959  1.00 21.77 LIG 0.17  HD
ENDBRANCH 41 42
ENDBRANCH 40 41
BRANCH 40 52
ATOM     52  N   TRP D 340      25.254  36.826  83.304  1.00 22.23 LIG-0.35  N 
ATOM     53  C   ASP D 339      26.500  37.277  83.164  1.00 26.49 LIG 0.24  C 
ATOM     54 O    ASP D 339      27.221  36.994  82.191  1.00 27.22 LIG-0.27  OA
ATOM     55 H    TRP D 340      24.752  37.025  83.973  1.00 22.23 LIG 0.16  HD
BRANCH 53 56
ATOM     56  CA  ASP D 339      27.027  38.182  84.283  1.00 29.46 LIG 0.19  C 
BRANCH 56 57
ATOM     57  CB  ASP D 339      26.928  39.645  83.842  1.00 30.27 LIG 0.15  C 
BRANCH 57 58
ATOM     58  CG  ASP D 339      28.024  40.529  84.444  1.00 32.94 LIG 0.17  C 
ATOM     59 OD1  ASP D 339      27.672  41.465  85.193  1.00 36.53 LIG-0.65  OA
ATOM     60 OD2  ASP D 339      29.228  40.306  84.161  1.00 35.99 LIG-0.65  OA
ENDBRANCH 57 58
ENDBRANCH 56 57
BRANCH 56 61
ATOM     61  N   ASP D 339      28.414  37.866  84.608  1.00 31.22 LIG-0.34  N 
ATOM     62  C   ASP D 338      28.770  37.028  85.581  1.00 32.92 LIG 0.26  C 
ATOM     63 O    ASP D 338      27.980  36.276  86.162  1.00 33.60 LIG-0.27  OA
ATOM     64 H    ASP D 339      28.984  38.273  84.110  1.00 31.22 LIG 0.16  HD
BRANCH 62 65
ATOM     65  CA  ASP D 338      30.258  37.021  85.932  1.00 33.82 LIG 0.41  C 
ATOM     66  N   ASP D 338      30.838  38.398  85.825  1.00 34.02 LIG 0.61  N 
BRANCH 65 67
ATOM     67  CB  ASP D 338      30.467  36.453  87.345  1.00 34.49 LIG 0.16  C 
BRANCH 67 68
ATOM     68  CG  ASP D 338      31.908  36.034  87.609  1.00 35.92 LIG 0.17  C 
ATOM     69 OD2  ASP D 338      32.115  35.115  88.426  1.00 39.23 LIG-0.65  OA
ATOM     70 OD1  ASP D 338      32.840  36.626  87.013  1.00 38.97 LIG-0.65  OA
ENDBRANCH 67 68
ENDBRANCH 65 67
ENDBRANCH 62 65
ENDBRANCH 56 61
ENDBRANCH 53 56
ENDBRANCH 40 52
ENDBRANCH 1 40
TORSDOF 27
