REMARK  22 active torsions:
REMARK  status: ('A' for Active; 'I' for Inactive)
REMARK       I    between atoms: C_1  and  N_4 
REMARK    1  A    between atoms: N_4  and  CA_5 
REMARK    2  A    between atoms: CA_5  and  C_6 
REMARK    3  A    between atoms: CA_5  and  CB_8 
REMARK       I    between atoms: C_6  and  N_13 
REMARK    4  A    between atoms: CB_8  and  CG1_9 
REMARK    5  A    between atoms: N_13  and  CA_14 
REMARK    6  A    between atoms: CA_14  and  CB_17 
REMARK    7  A    between atoms: CA_14  and  C_15 
REMARK       I    between atoms: C_15  and  N_27 
REMARK    8  A    between atoms: CB_17  and  CG_18 
REMARK    9  A    between atoms: CZ_23  and  OH_24 
REMARK   10  A    between atoms: N_27  and  CA_28 
REMARK   11  A    between atoms: CA_28  and  C_29 
REMARK   12  A    between atoms: CA_28  and  CB_31 
REMARK       I    between atoms: C_29  and  N_37 
REMARK   13  A    between atoms: CB_31  and  CG_32 
REMARK   14  A    between atoms: CG_32  and  CD_33 
REMARK   15  A    between atoms: N_37  and  CA_38 
REMARK   16  A    between atoms: CA_38  and  C_39 
REMARK   17  A    between atoms: CA_38  and  CB_41 
REMARK       I    between atoms: C_39  and  N_45 
REMARK   18  A    between atoms: CB_41  and  OG_42 
REMARK   19  A    between atoms: N_45  and  CA_46 
REMARK   20  A    between atoms: CA_46  and  C_47 
REMARK   21  A    between atoms: CA_46  and  CB_49 
REMARK   22  A    between atoms: CB_49  and  CG_50 
ROOT
ATOM      1  C   TYR B   2      21.811  14.594  37.317  1.00 34.05     0.241 C 
ATOM      2  O   TYR B   2      23.032  14.513  37.431  1.00 39.10    -0.271 OA
ATOM      3  N   GLU B   3      20.938  13.804  37.925  1.00 35.19    -0.346 N 
ATOM      4  H   GLU B   3      20.088  13.921  37.870  1.00 35.19     0.163 HD
ENDROOT
BRANCH   3   5
ATOM      5  CA  GLU B   3      21.313  12.650  38.753  1.00 40.21     0.177 C 
BRANCH   5   6
ATOM      6  C   GLU B   3      20.668  11.416  38.173  1.00 33.75     0.241 C 
ATOM      7  O   GLU B   3      19.487  11.447  37.863  1.00 31.69    -0.271 OA
ATOM      8  N   SER B   4      21.421  10.312  38.012  1.00 29.90    -0.344 N 
ATOM      9  H   SER B   4      22.273  10.283  38.127  1.00 29.90     0.163 HD
BRANCH   8  10
ATOM     10  CA  SER B   4      20.812   9.046  37.617  1.00 28.06     0.200 C 
BRANCH  10  11
ATOM     11  C   SER B   4      20.225   8.379  38.868  1.00 33.99     0.243 C 
ATOM     12  N   LEU B   5      18.924   8.132  38.839  1.00 32.03    -0.345 N 
ATOM     13  H   LEU B   5      18.445   8.228  38.132  1.00 32.03     0.163 HD
ATOM     14  O   SER B   4      20.950   8.123  39.844  1.00 35.03    -0.271 OA
BRANCH  12  15
ATOM     15  CA  LEU B   5      18.155   7.665  40.015  1.00 33.34     0.185 C 
BRANCH  15  16
ATOM     16  C   LEU B   5      17.276   6.463  39.703  1.00 39.47     0.196 C 
ATOM     17  O   LEU B   5      16.700   6.403  38.603  1.00 29.87    -0.646 OA
ATOM     18  OXT LEU B   5      17.065   5.565  40.567  1.00 38.97    -0.646 OA
ENDBRANCH  15  16
BRANCH  15  19
ATOM     19  CB  LEU B   5      17.256   8.778  40.539  1.00 34.52     0.040 C 
BRANCH  19  20
ATOM     20  CG  LEU B   5      17.952  10.025  41.048  1.00 35.74    -0.020 C 
ATOM     21  CD1 LEU B   5      16.896  11.068  41.441  1.00 34.91     0.009 C 
ATOM     22  CD2 LEU B   5      18.861   9.674  42.216  1.00 32.02     0.009 C 
ENDBRANCH  19  20
ENDBRANCH  15  19
ENDBRANCH  12  15
ENDBRANCH  10  11
BRANCH  10  23
ATOM     23  CB  SER B   4      21.820   8.100  36.945  1.00 31.79     0.199 C 
BRANCH  23  24
ATOM     24  OG  SER B   4      22.425   8.733  35.832  1.00 32.94    -0.398 OA
ATOM     25  HG  SER B   4      22.974   8.207  35.475  1.00 32.94     0.209 HD
ENDBRANCH  23  24
ENDBRANCH  10  23
ENDBRANCH   8  10
ENDBRANCH   5   6
BRANCH   5  26
ATOM     26  CB  GLU B   3      20.779  12.836  40.170  1.00 42.52     0.045 C 
BRANCH  26  27
ATOM     27  CG  GLU B   3      21.604  12.090  41.219  1.00 61.90     0.116 C 
BRANCH  27  28
ATOM     28  CD  GLU B   3      21.808  12.903  42.470  1.00 67.28     0.172 C 
ATOM     29  OE1 GLU B   3      21.410  12.420  43.557  1.00 80.18    -0.648 OA
ATOM     30  OE2 GLU B   3      22.346  14.031  42.358  1.00 64.56    -0.648 OA
ENDBRANCH  27  28
ENDBRANCH  26  27
ENDBRANCH   5  26
ENDBRANCH   3   5
BRANCH   1  31
ATOM     31  CA  TYR B   2      21.208  15.685  36.444  1.00 27.59     0.180 C 
BRANCH  31  32
ATOM     32  N   TYR B   2      21.934  16.936  36.635  1.00 28.42    -0.346 N 
ATOM     33  H   TYR B   2      22.687  16.979  36.222  1.00 28.42     0.163 HD
ATOM     34  C   ILE B   1      21.446  17.904  37.388  1.00 34.57     0.241 C 
ATOM     35  O   ILE B   1      20.366  17.812  38.007  1.00 35.77    -0.271 OA
BRANCH  34  36
ATOM     36  CA  ILE B   1      22.259  19.172  37.438  1.00 36.91     0.180 C 
BRANCH  36  37
ATOM     37  CB  ILE B   1      21.995  19.938  36.146  1.00 38.00     0.013 C 
ATOM     38  CG2 ILE B   1      20.492  19.909  35.814  1.00 37.47     0.012 C 
BRANCH  37  39
ATOM     39  CG1 ILE B   1      22.491  21.377  36.305  1.00 43.59     0.002 C 
ATOM     40  CD1 ILE B   1      22.804  22.065  35.001  1.00 39.71     0.005 C 
ENDBRANCH  37  39
ENDBRANCH  36  37
BRANCH  36  41
ATOM     41  N   ILE B   1      23.730  18.919  37.528  1.00 36.86    -0.348 N 
ATOM     42  H   ILE B   1      24.160  19.151  36.820  1.00 36.86     0.163 HD
HETATM   43  C   ACE B   0      24.338  18.376  38.618  1.00 40.91     0.214 C 
HETATM   44  O   ACE B   0      23.727  18.046  39.621  1.00 40.13    -0.274 OA
HETATM   45  CH3 ACE B   0      25.840  18.171  38.541  1.00 36.31     0.117 C 
ENDBRANCH  36  41
ENDBRANCH  34  36
ENDBRANCH  31  32
BRANCH  31  46
ATOM     46  CB  TYR B   2      21.242  15.264  34.993  1.00 30.42     0.073 C 
BRANCH  46  47
ATOM     47  CG  TYR B   2      20.492  16.199  34.034  1.00 30.81    -0.056 A 
ATOM     48  CD2 TYR B   2      19.140  16.027  33.736  1.00 30.26     0.010 A 
ATOM     49  CE2 TYR B   2      18.485  16.903  32.831  1.00 27.61     0.037 A 
ATOM     50  CZ  TYR B   2      19.205  17.946  32.270  1.00 28.62     0.065 A 
ATOM     51  CE1 TYR B   2      20.531  18.117  32.563  1.00 33.56     0.037 A 
ATOM     52  CD1 TYR B   2      21.160  17.245  33.441  1.00 35.64     0.010 A 
BRANCH  50  53
ATOM     53  OH  TYR B   2      18.646  18.837  31.367  1.00 30.95    -0.361 OA
ATOM     54  HH  TYR B   2      18.026  18.458  30.946  1.00 30.95     0.217 HD
ENDBRANCH  50  53
ENDBRANCH  46  47
ENDBRANCH  31  46
ENDBRANCH   1  31
TORSDOF 22
