REMARK  21 active torsions:
REMARK  status: ('A' for Active; 'I' for Inactive)
REMARK    1  A    between atoms: CA_2  and  CB_5 
REMARK    2  A    between atoms: CA_2  and  C_3 
REMARK       I    between atoms: C_3  and  N_10 
REMARK    3  A    between atoms: CB_5  and  CG_6 
REMARK    4  A    between atoms: CG_6  and  CD_7 
REMARK    5  A    between atoms: N_10  and  CA_11 
REMARK    6  A    between atoms: CA_11  and  CB_14 
REMARK    7  A    between atoms: CA_11  and  C_12 
REMARK       I    between atoms: C_12  and  N_19 
REMARK    8  A    between atoms: CB_14  and  CG_15 
REMARK    9  A    between atoms: N_19  and  CA_20 
REMARK   10  A    between atoms: CA_20  and  C_21 
REMARK       I    between atoms: C_21  and  N_25 
REMARK   11  A    between atoms: N_25  and  CA_26 
REMARK   12  A    between atoms: CA_26  and  CB_29 
REMARK   13  A    between atoms: CA_26  and  C_27 
REMARK       I    between atoms: C_27  and  N_38 
REMARK   14  A    between atoms: CB_29  and  CG_30 
REMARK   15  A    between atoms: CG_30  and  CD_31 
REMARK   16  A    between atoms: CD_31  and  CE_32 
REMARK   17  A    between atoms: CE_32  and  NZ_33 
REMARK   18  A    between atoms: N_38  and  CA_39 
REMARK   19  A    between atoms: CA_39  and  C_40 
REMARK   20  A    between atoms: CA_39  and  CB_42 
REMARK   21  A    between atoms: CB_42  and  CG_43 
ROOT
ATOM      1  C   ALA B   5       1.882  -7.790  14.929  1.00 35.38     0.240 C 
ATOM      2  O   ALA B   5       3.083  -7.547  14.915  1.00 33.98    -0.271 OA
ATOM      3  N   LYS B   6       0.958  -6.876  14.641  1.00 33.85    -0.346 N 
ATOM      4  H   LYS B   6       0.117  -7.005  14.765  1.00 33.85     0.163 HD
ENDROOT
BRANCH   1   5
ATOM      5  CA  ALA B   5       1.344  -9.187  15.325  1.00 36.97     0.172 C 
ATOM      6  CB  ALA B   5       0.964  -9.218  16.792  1.00 36.60     0.042 C 
BRANCH   5   7
ATOM      7  N   ALA B   5       2.303 -10.245  15.051  1.00 38.84    -0.346 N 
ATOM      8  H   ALA B   5       2.786 -10.461  15.729  1.00 38.84     0.163 HD
ATOM      9  C   LEU B   4       2.417 -10.822  13.859  1.00 41.06     0.241 C 
ATOM     10  O   LEU B   4       1.731 -10.510  12.898  1.00 41.71    -0.271 OA
BRANCH   9  11
ATOM     11  CA  LEU B   4       3.489 -11.900  13.732  1.00 42.15     0.177 C 
BRANCH  11  12
ATOM     12  CB  LEU B   4       4.644 -11.393  12.891  1.00 42.64     0.038 C 
BRANCH  12  13
ATOM     13  CG  LEU B   4       5.881 -12.254  13.037  1.00 44.00    -0.020 C 
ATOM     14  CD1 LEU B   4       6.631 -12.387  11.720  1.00 45.59     0.009 C 
ATOM     15  CD2 LEU B   4       6.759 -11.730  14.141  1.00 44.00     0.009 C 
ENDBRANCH  12  13
ENDBRANCH  11  12
BRANCH  11  16
ATOM     16  N   LEU B   4       3.006 -13.164  13.199  1.00 43.54    -0.346 N 
ATOM     17  H   LEU B   4       2.949 -13.183  12.341  1.00 43.54     0.163 HD
ATOM     18  C   GLU B   3       2.684 -14.193  13.979  1.00 44.15     0.257 C 
ATOM     19  O   GLU B   3       2.477 -14.091  15.210  1.00 43.92    -0.271 OA
BRANCH  18  20
ATOM     20  CA  GLU B   3       2.457 -15.524  13.249  1.00 44.40     0.400 C 
ATOM     21  N   GLU B   3       2.336 -16.661  14.217  1.00 44.72     0.615 N 
BRANCH  20  22
ATOM     22  CB  GLU B   3       1.225 -15.449  12.337  1.00 44.42     0.062 C 
BRANCH  22  23
ATOM     23  CG  GLU B   3       1.426 -14.557  11.097  1.00 45.14     0.116 C 
BRANCH  23  24
ATOM     24  CD  GLU B   3       0.442 -14.847   9.974  1.00 45.75     0.172 C 
ATOM     25  OE1 GLU B   3       0.254 -16.033   9.629  1.00 47.89    -0.648 OA
ATOM     26  OE2 GLU B   3      -0.134 -13.881   9.422  1.00 48.90    -0.648 OA
ENDBRANCH  23  24
ENDBRANCH  22  23
ENDBRANCH  20  22
ENDBRANCH  18  20
ENDBRANCH  11  16
ENDBRANCH   9  11
ENDBRANCH   5   7
ENDBRANCH   1   5
BRANCH   3  27
ATOM     27  CA  LYS B   6       1.269  -5.566  14.088  1.00 32.68     0.176 C 
BRANCH  27  28
ATOM     28  CB  LYS B   6       0.370  -5.302  12.873  1.00 32.53     0.035 C 
BRANCH  28  29
ATOM     29  CG  LYS B   6       0.444  -6.354  11.781  1.00 31.52     0.004 C 
BRANCH  29  30
ATOM     30  CD  LYS B   6       1.496  -6.042  10.774  1.00 30.28     0.027 C 
BRANCH  30  31
ATOM     31  CE  LYS B   6       1.415  -7.021   9.619  1.00 31.86     0.229 C 
BRANCH  31  32
ATOM     32  NZ  LYS B   6       2.171  -6.560   8.431  1.00 30.58    -0.079 N 
ATOM     33  HZ2 LYS B   6       1.842  -5.781   8.153  1.00 30.58     0.274 HD
ATOM     34  HZ3 LYS B   6       3.029  -6.460   8.645  1.00 30.58     0.274 HD
ATOM     35  HZ1 LYS B   6       2.097  -7.162   7.780  1.00 30.58     0.274 HD
ENDBRANCH  31  32
ENDBRANCH  30  31
ENDBRANCH  29  30
ENDBRANCH  28  29
ENDBRANCH  27  28
BRANCH  27  36
ATOM     36  C   LYS B   6       1.017  -4.469  15.103  1.00 31.47     0.241 C 
ATOM     37  O   LYS B   6      -0.085  -4.357  15.606  1.00 31.11    -0.271 OA
ATOM     38  N   LEU B   7       2.025  -3.638  15.366  1.00 30.67    -0.345 N 
ATOM     39  H   LEU B   7       2.807  -3.713  15.017  1.00 30.67     0.163 HD
BRANCH  38  40
ATOM     40  CA  LEU B   7       1.886  -2.505  16.289  1.00 30.14     0.185 C 
BRANCH  40  41
ATOM     41  C   LEU B   7       1.044  -1.375  15.670  1.00 29.60     0.196 C 
ATOM     42  OXT LEU B   7       0.911  -1.315  14.439  1.00 28.85    -0.646 OA
ATOM     43  O   LEU B   7       0.521  -0.491  16.370  1.00 28.46    -0.646 OA
ENDBRANCH  40  41
BRANCH  40  44
ATOM     44  CB  LEU B   7       3.250  -1.939  16.638  1.00 29.75     0.040 C 
BRANCH  44  45
ATOM     45  CG  LEU B   7       4.294  -2.769  17.381  1.00 29.52    -0.020 C 
ATOM     46  CD2 LEU B   7       4.018  -2.806  18.884  1.00 28.78     0.009 C 
ATOM     47  CD1 LEU B   7       5.674  -2.177  17.067  1.00 27.65     0.009 C 
ENDBRANCH  44  45
ENDBRANCH  40  44
ENDBRANCH  38  40
ENDBRANCH  27  36
ENDBRANCH   3  27
TORSDOF 21
