REMARK  4 active torsions:
REMARK  status: ('A' for Active; 'I' for Inactive)
REMARK    1  A    between atoms: N_1  and  CA_2 
REMARK    2  A    between atoms: CA_2  and  C_3 
REMARK       I    between atoms: C_3  and  N_9 
REMARK    3  A    between atoms: CA_10  and  C_11 
REMARK       I    between atoms: C_11  and  N_16 
REMARK    4  A    between atoms: CA_17  and  C_18 
ROOT
ATOM      1  C   ALA E   1    -107.970  67.381  -9.596  0.79 25.31     0.250 C 
ATOM      2  O   ALA E   1    -107.282  67.246 -10.598  0.79 21.55    -0.271 OA
ATOM      3  N   PRO E   2    -108.213  68.591  -9.047  0.79 27.56    -0.337 N 
ATOM      4  CA  PRO E   2    -107.433  69.794  -9.413  0.79 29.17     0.179 C 
ATOM      5  CB  PRO E   2    -108.241  70.949  -8.797  0.79 31.66     0.037 C 
ATOM      6  CG  PRO E   2    -109.594  70.386  -8.481  0.79 31.87     0.022 C 
ATOM      7  CD  PRO E   2    -109.367  68.917  -8.196  0.79 37.64     0.127 C 
ENDROOT
BRANCH   4   8
ATOM      8  C   PRO E   2    -106.038  69.776  -8.767  0.79 31.28     0.243 C 
ATOM      9  O   PRO E   2    -105.909  69.209  -7.685  0.79 33.48    -0.271 OA
ATOM     10  N   PRO E   3    -105.021  70.411  -9.386  0.79 31.99    -0.338 N 
ATOM     11  CA  PRO E   3    -103.671  70.297  -8.815  0.79 36.13     0.165 C 
ATOM     12  CD  PRO E   3    -105.052  71.393 -10.479  0.79 37.75     0.127 C 
ATOM     13  CB  PRO E   3    -102.759  70.913  -9.895  0.79 39.82     0.035 C 
ATOM     14  CG  PRO E   3    -103.654  71.279 -11.057  0.79 32.33     0.022 C 
BRANCH  11  15
ATOM     15  C   PRO E   3    -103.555  71.114  -7.539  0.79 38.04     0.219 C 
ATOM     16  O   PRO E   3    -104.292  72.095  -7.466  0.79 39.77    -0.287 OA
ENDBRANCH  11  15
ENDBRANCH   4   8
BRANCH   1  17
ATOM     17  CA  ALA E   1    -108.601  66.146  -8.926  0.79 27.80     0.271 C 
ATOM     18  CB  ALA E   1    -107.683  65.625  -7.810  0.79 29.16     0.050 C 
BRANCH  17  19
ATOM     19  N   ALA E   1    -108.829  65.087  -9.907  0.79 20.73    -0.067 N 
ATOM     20  H1  ALA E   1    -109.070  64.340  -9.487  0.79 20.73     0.275 HD
ATOM     21  H2  ALA E   1    -109.476  65.334 -10.466  0.79 20.73     0.275 HD
ATOM     22  H3  ALA E   1    -108.081  64.941 -10.366  0.79 20.73     0.275 HD
ENDBRANCH  17  19
ENDBRANCH   1  17
TORSDOF 4
