USER: ADFR SOLUTION from run 0
USER: SCORE 18.587729 LL:  -4.450 LR: -15.764 RR:   0.000 FEB:  -9.500
USER: RMSD 0.993228
USER: STATUS Locally minimized using BFGS
USER: GENES 23
USER: genes 0 Translation |==|  0.57579 0.49578 0.48000
USER: genes 1 Rotation |==|  0.48823 0.49942 0.50227 0.99986
USER: genes 2 Torsion [C]-CA--N-[C] |==|  0.61331
USER: genes 3 Torsion [N]-C--CA-[CB] |==|  0.75850
USER: genes 4 Torsion [N]-C--CA-[N] |==|  0.40948
USER: genes 5 Torsion [C]-CA--N-[C] |==|  0.63797
USER: genes 6 Torsion [N]-C--CA-[N] |==|  0.46586
USER: genes 7 Torsion [C]-CA--N-[H3] |==|  0.17236
USER: genes 8 Torsion [C]-CA--CB-[CG2] |==|  0.49961
USER: genes 9 Torsion [CA]-CB--OG1-[HG1] |==|  0.50012
USER: genes 10 Torsion [N]-CA--C-[N] |==|  0.45144
USER: genes 11 Torsion [C]-N--CA-[CB] |==|  0.38438
USER: genes 12 Torsion [N]-CA--CB-[CG] |==|  0.83835
USER: genes 13 Torsion [CA]-CB--CG-[CD] |==|  0.87606
USER: genes 14 Torsion [CB]-CG--CD-[NE2] |==|  0.38450
USER: genes 15 Torsion [N]-CA--C-[N] |==|  0.97776
USER: genes 16 Torsion [C]-N--CA-[CB] |==|  0.46651
USER: genes 17 Torsion [N]-CA--C-[O] |==|  0.97111
USER: genes 18 Torsion [N]-CA--CB-[CG] |==|  0.94977
USER: genes 19 Torsion [CA]-CB--CG-[CD] |==|  0.62166
USER: genes 20 Torsion [CB]-CG--CD-[OE2] |==|  0.51310
USER: genes 21 Torsion [N]-CA--CB-[CG] |==|  0.18229
USER: genes 22 Torsion [CA]-CB--CG-[CD2] |==|  0.73838
ROOT
ATOM      1  CA  PHE D   4      11.984 -12.203 -36.189  1.00 20.42 LIG 0.18  C 
ENDROOT
BRANCH 1 2
ATOM      2  N   PHE D   4      10.771 -12.550 -36.920  1.00 19.57 LIG-0.35  N 
ATOM      3 H    PHE D   4      10.235 -13.079 -36.504  1.00 19.57 LIG 0.16  HD
ATOM      4  C   PRO D   3      10.554 -12.063 -38.126  1.00 20.09 LIG 0.24  C 
ATOM      5 O    PRO D   3      11.200 -11.107 -38.587  1.00 21.30 LIG-0.27  OA
BRANCH 4 6
ATOM      6  CA  PRO D   3       9.442 -12.736 -38.928  1.00 18.08 LIG 0.18  C 
ATOM      7  CB  PRO D   3       9.938 -13.943 -39.708  1.00 20.04 LIG 0.04  C 
ATOM      8  CG  PRO D   3       9.951 -13.497 -41.137  1.00 21.57 LIG 0.02  C 
ATOM      9  CD  PRO D   3       8.968 -12.424 -41.322  1.00 18.25 LIG 0.13  C 
ATOM     10  N   PRO D   3       8.830 -11.883 -39.952  1.00 17.53 LIG-0.34  N 
ATOM     11  C   THR D   2       8.055 -10.867 -39.579  1.00 17.82 LIG 0.24  C 
ATOM     12 O    THR D   2       7.847 -10.626 -38.388  1.00 17.76 LIG-0.27  OA
BRANCH 11 13
ATOM     13  CA  THR D   2       7.402 -10.054 -40.688  1.00 18.92 LIG 0.20  C 
BRANCH 13 14
ATOM     14  N   THR D   2       6.103  -9.558 -40.262  1.00 17.98 LIG-0.34  N 
ATOM     15  C   ALA D   1       5.009  -9.704 -41.003  1.00 18.22 LIG 0.25  C 
ATOM     16 O    ALA D   1       5.014 -10.259 -42.118  1.00 17.84 LIG-0.27  OA
ATOM     17 H    THR D   2       6.110  -9.167 -39.497  1.00 17.98 LIG 0.16  HD
BRANCH 15 18
ATOM     18  CA  ALA D   1       3.725  -9.138 -40.415  1.00 17.93 LIG 0.27  C 
ATOM     19  CB  ALA D   1       3.240  -9.991 -39.214  1.00 19.43 LIG 0.05  C 
BRANCH 18 20
ATOM     20  N   ALA D   1       2.663  -9.111 -41.482  1.00 19.30 LIG-0.07  N 
ATOM     21 H3   ALA D   1       2.496  -9.941 -41.757  1.00 19.30 LIG 0.28  HD
ATOM     22 H2   ALA D   1       2.945  -8.622 -42.171  1.00 19.30 LIG 0.28  HD
ATOM     23 H1   ALA D   1       1.918  -8.753 -41.150  1.00 19.30 LIG 0.28  HD
ENDBRANCH 18 20
ENDBRANCH 15 18
ENDBRANCH 13 14
BRANCH 13 24
ATOM     24  CB  THR D   2       8.317  -8.883 -41.073  1.00 21.41 LIG 0.15  C 
ATOM     25  CG2 THR D   2       7.681  -8.062 -42.183  1.00 25.14 LIG 0.04  C 
BRANCH 24 26
ATOM     26 OG1  THR D   2       8.485  -8.028 -39.938  1.00 26.95 LIG-0.39  OA
ATOM     27 HG1  THR D   2       8.985  -7.385 -40.144  1.00 26.95 LIG 0.21  HD
ENDBRANCH 24 26
ENDBRANCH 13 24
ENDBRANCH 11 13
ENDBRANCH 4 6
ENDBRANCH 1 2
BRANCH 1 28
ATOM     28  C   PHE D   4      12.528 -13.437 -35.473  1.00 22.48 LIG 0.24  C 
ATOM     29 O    PHE D   4      11.819 -14.437 -35.306  1.00 22.33 LIG-0.27  OA
ATOM     30  N   GLN D   5      13.795 -13.378 -35.070  1.00 24.26 LIG-0.35  N 
ATOM     31 H    GLN D   5      14.250 -12.650 -35.009  1.00 24.26 LIG 0.16  HD
BRANCH 30 32
ATOM     32  CA  GLN D   5      14.527 -14.592 -34.688  1.00 25.91 LIG 0.18  C 
BRANCH 32 33
ATOM     33  CB  GLN D   5      15.960 -14.570 -35.231  1.00 26.73 LIG 0.04  C 
BRANCH 33 34
ATOM     34  CG  GLN D   5      16.089 -14.438 -36.759  1.00 26.03 LIG 0.10  C 
BRANCH 34 35
ATOM     35  CD  GLN D   5      15.138 -15.333 -37.554  1.00 27.76 LIG 0.21  C 
ATOM     36  NE2 GLN D   5      14.558 -14.760 -38.635  1.00 30.48 LIG-0.37  N 
ATOM     37 22HE GLN D   5      13.996 -15.206 -39.109  1.00 30.48 LIG 0.16  HD
ATOM     38 21HE GLN D   5      14.752 -13.949 -38.848  1.00 30.48 LIG 0.16  HD
ATOM     39 OE1  GLN D   5      14.883 -16.516 -37.207  1.00 30.83 LIG-0.27  OA
ENDBRANCH 34 35
ENDBRANCH 33 34
ENDBRANCH 32 33
BRANCH 32 40
ATOM     40  C   GLN D   5      14.619 -14.818 -33.193  1.00 27.22 LIG 0.24  C 
ATOM     41  N   GLU D   6      14.182 -13.824 -32.439  1.00 28.14 LIG-0.34  N 
ATOM     42 H    GLU D   6      13.739 -13.151 -32.740  1.00 28.14 LIG 0.16  HD
ATOM     43 O    GLN D   5      15.102 -15.854 -32.736  1.00 29.15 LIG-0.27  OA
BRANCH 41 44
ATOM     44  CA  GLU D   6      14.420 -13.791 -31.011  1.00 27.71 LIG 0.19  C 
BRANCH 44 45
ATOM     45  C   GLU D   6      13.632 -14.870 -30.246  1.00 28.68 LIG 0.20  C 
ATOM     46 O    GLU D   6      12.732 -15.532 -30.838  1.00 28.16 LIG-0.65  OA
ATOM     47 OXT  GLU D   6      13.911 -15.029 -29.039  1.00 19.61 LIG-0.65  OA
ENDBRANCH 44 45
BRANCH 44 48
ATOM     48  CB  GLU D   6      14.058 -12.390 -30.513  1.00 27.67 LIG 0.05  C 
BRANCH 48 49
ATOM     49  CG  GLU D   6      13.999 -11.347 -31.669  1.00 29.50 LIG 0.12  C 
BRANCH 49 50
ATOM     50  CD  GLU D   6      14.683 -10.024 -31.299  1.00 27.58 LIG 0.17  C 
ATOM     51 OE2  GLU D   6      14.665  -9.020 -32.071  1.00 34.29 LIG-0.65  OA
ATOM     52 OE1  GLU D   6      15.251  -9.988 -30.187  1.00 35.41 LIG-0.65  OA
ENDBRANCH 49 50
ENDBRANCH 48 49
ENDBRANCH 44 48
ENDBRANCH 41 44
ENDBRANCH 32 40
ENDBRANCH 30 32
ENDBRANCH 1 28
BRANCH 1 53
ATOM     53  CB  PHE D   4      11.718 -11.048 -35.208  1.00 18.89 LIG 0.07  C 
BRANCH 53 54
ATOM     54  CG  PHE D   4      10.766 -11.394 -34.086  1.00 17.25 LIG-0.06  A 
ATOM     55  CD2 PHE D   4       9.405 -11.118 -34.197  1.00 16.93 LIG 0.01  A 
ATOM     56  CE2 PHE D   4       8.549 -11.438 -33.181  1.00 15.87 LIG 0.00  A 
ATOM     57  CZ  PHE D   4       9.014 -12.046 -32.033  1.00 16.57 LIG 0.00  A 
ATOM     58  CE1 PHE D   4      10.366 -12.331 -31.902  1.00 17.16 LIG 0.00  A 
ATOM     59  CD1 PHE D   4      11.229 -12.000 -32.931  1.00 17.60 LIG 0.01  A 
ENDBRANCH 53 54
ENDBRANCH 1 53
TORSDOF 21
