REMARK  17 active torsions:
REMARK  status: ('A' for Active; 'I' for Inactive)
REMARK    1  A    between atoms: N_1  and  CA_2 
REMARK    2  A    between atoms: CA_2  and  C_3 
REMARK       I    between atoms: C_3  and  N_9 
REMARK    3  A    between atoms: N_9  and  CA_10 
REMARK    4  A    between atoms: CA_10  and  C_11 
REMARK    5  A    between atoms: CA_10  and  CB_13 
REMARK       I    between atoms: C_11  and  N_20 
REMARK    6  A    between atoms: CB_13  and  CG_14 
REMARK    7  A    between atoms: N_20  and  CA_21 
REMARK    8  A    between atoms: CA_21  and  C_22 
REMARK       I    between atoms: C_22  and  N_26 
REMARK    9  A    between atoms: N_26  and  CA_27 
REMARK   10  A    between atoms: CA_27  and  CB_30 
REMARK   11  A    between atoms: CA_27  and  C_28 
REMARK       I    between atoms: C_28  and  N_39 
REMARK   12  A    between atoms: CB_30  and  CG_31 
REMARK   13  A    between atoms: CG_31  and  CD_32 
REMARK   14  A    between atoms: CD_32  and  CE_33 
REMARK   15  A    between atoms: CE_33  and  NZ_34 
REMARK   16  A    between atoms: N_39  and  CA_40 
REMARK   17  A    between atoms: CA_40  and  C_41 
ROOT
ATOM      1  CA  ALA B   3      -4.214  19.419   4.239  1.00 28.39     0.172 C 
ATOM      2  CB  ALA B   3      -4.632  18.076   3.721  1.00 28.72     0.042 C 
ENDROOT
BRANCH   1   3
ATOM      3  N   ALA B   3      -2.890  19.719   3.738  1.00 28.60    -0.346 N 
ATOM      4  H   ALA B   3      -2.250  19.324   4.155  1.00 28.60     0.163 HD
ATOM      5  C   HIS B   2      -2.718  20.541   2.717  1.00 29.32     0.241 C 
ATOM      6  O   HIS B   2      -3.628  21.222   2.219  1.00 29.97    -0.271 OA
BRANCH   5   7
ATOM      7  CA  HIS B   2      -1.311  20.608   2.189  1.00 29.29     0.182 C 
BRANCH   7   8
ATOM      8  N   HIS B   2      -1.340  20.912   0.759  1.00 29.97    -0.346 N 
ATOM      9  H   HIS B   2      -1.513  21.732   0.567  1.00 29.97     0.163 HD
ATOM     10  C   ALA B   1      -1.111  19.963  -0.138  1.00 30.05     0.248 C 
ATOM     11  O   ALA B   1      -0.920  18.794   0.174  1.00 29.42    -0.271 OA
BRANCH  10  12
ATOM     12  CA  ALA B   1      -1.080  20.392  -1.603  1.00 30.09     0.270 C 
ATOM     13  CB  ALA B   1       0.354  20.645  -2.017  1.00 30.26     0.050 C 
BRANCH  12  14
ATOM     14  N   ALA B   1      -1.904  21.612  -1.857  1.00 30.65    -0.067 N 
ATOM     15  H3  ALA B   1      -1.543  22.308  -1.435  1.00 30.65     0.275 HD
ATOM     16  H2  ALA B   1      -2.731  21.480  -1.556  1.00 30.65     0.275 HD
ATOM     17  H1  ALA B   1      -1.930  21.777  -2.731  1.00 30.65     0.275 HD
ENDBRANCH  12  14
ENDBRANCH  10  12
ENDBRANCH   7   8
BRANCH   7  18
ATOM     18  CB  HIS B   2      -0.530  21.651   2.926  1.00 29.38     0.095 C 
BRANCH  18  19
ATOM     19  CG  HIS B   2       0.717  22.041   2.226  1.00 27.68     0.056 A 
ATOM     20  ND1 HIS B   2       1.691  21.127   1.879  1.00 26.38    -0.245 NA
ATOM     21  CE1 HIS B   2       2.676  21.758   1.267  1.00 23.03     0.232 A 
ATOM     22  NE2 HIS B   2       2.371  23.043   1.201  1.00 28.18    -0.252 NA
ATOM     23  CD2 HIS B   2       1.153  23.245   1.798  1.00 26.32     0.145 A 
ENDBRANCH  18  19
ENDBRANCH   7  18
ENDBRANCH   5   7
ENDBRANCH   1   3
BRANCH   1  24
ATOM     24  C   ALA B   3      -4.226  19.426   5.755  1.00 28.01     0.240 C 
ATOM     25  N   LYS B   4      -5.398  19.712   6.318  1.00 28.43    -0.346 N 
ATOM     26  H   LYS B   4      -6.126  19.838   5.877  1.00 28.43     0.163 HD
ATOM     27  O   ALA B   3      -3.203  19.140   6.386  1.00 26.29    -0.271 OA
BRANCH  25  28
ATOM     28  CA  LYS B   4      -5.540  19.838   7.789  1.00 29.37     0.176 C 
BRANCH  28  29
ATOM     29  CB  LYS B   4      -6.976  20.132   8.251  1.00 28.49     0.035 C 
BRANCH  29  30
ATOM     30  CG  LYS B   4      -7.801  21.091   7.437  1.00 28.80     0.004 C 
BRANCH  30  31
ATOM     31  CD  LYS B   4      -7.593  22.549   7.796  1.00 27.51     0.027 C 
BRANCH  31  32
ATOM     32  CE  LYS B   4      -8.438  23.427   6.937  1.00 28.58     0.229 C 
BRANCH  32  33
ATOM     33  NZ  LYS B   4      -9.549  22.666   6.299  1.00 30.35    -0.079 N 
ATOM     34  HZ2 LYS B   4      -9.216  22.105   5.693  1.00 30.35     0.274 HD
ATOM     35  HZ1 LYS B   4     -10.108  23.233   5.902  1.00 30.35     0.274 HD
ATOM     36  HZ3 LYS B   4      -9.988  22.204   6.920  1.00 30.35     0.274 HD
ENDBRANCH  32  33
ENDBRANCH  31  32
ENDBRANCH  30  31
ENDBRANCH  29  30
ENDBRANCH  28  29
BRANCH  28  37
ATOM     37  C   LYS B   4      -5.129  18.525   8.400  1.00 30.22     0.241 C 
ATOM     38  O   LYS B   4      -5.596  17.461   7.965  1.00 31.21    -0.271 OA
ATOM     39  N   ALA B   5      -4.255  18.572   9.398  1.00 31.43    -0.348 N 
ATOM     40  H   ALA B   5      -3.909  19.297   9.704  1.00 31.43     0.163 HD
BRANCH  39  41
ATOM     41  CA  ALA B   5      -3.810  17.360  10.062  1.00 32.08     0.158 C 
ATOM     42  CB  ALA B   5      -3.630  16.234   9.039  1.00 32.99     0.041 C 
BRANCH  41  43
ATOM     43  C   ALA B   5      -2.526  17.551  10.838  1.00 32.46     0.219 C 
ATOM     44  O   ALA B   5      -1.947  16.565  11.320  1.00 34.27    -0.287 OA
ENDBRANCH  41  43
ENDBRANCH  39  41
ENDBRANCH  28  37
ENDBRANCH  25  28
ENDBRANCH   1  24
TORSDOF 17
