USER: ADFR SOLUTION from run 0
USER: SCORE 12.972371 LL:  -2.259 LR: -13.220 RR:   0.000 FEB:  -8.149
USER: RMSD 0.758324
USER: STATUS Locally minimized using BFGS
USER: GENES 19
USER: genes 0 Translation |==|  0.49798 0.48321 0.49859
USER: genes 1 Rotation |==|  0.49267 0.47626 0.50212 0.99938
USER: genes 2 Torsion [CB]-CA--N-[C] |==|  0.30703
USER: genes 3 Torsion [N]-C--CA-[N] |==|  0.41679
USER: genes 4 Torsion [C]-CA--N-[C] |==|  0.70356
USER: genes 5 Torsion [N]-C--CA-[N] |==|  0.94128
USER: genes 6 Torsion [C]-CA--N-[H2] |==|  0.86161
USER: genes 7 Torsion [C]-CA--CB-[CG] |==|  0.55565
USER: genes 8 Torsion [CA]-CB--CG-[ND1] |==|  0.84815
USER: genes 9 Torsion [N]-CA--C-[N] |==|  0.41844
USER: genes 10 Torsion [C]-N--CA-[CB] |==|  0.51667
USER: genes 11 Torsion [N]-CA--CB-[CG] |==|  0.89237
USER: genes 12 Torsion [CA]-CB--CG-[CD] |==|  0.74913
USER: genes 13 Torsion [CB]-CG--CD-[CE] |==|  0.48028
USER: genes 14 Torsion [CG]-CD--CE-[NZ] |==|  0.03263
USER: genes 15 Torsion [CD]-CE--NZ-[HZ3] |==|  0.13633
USER: genes 16 Torsion [N]-CA--C-[N] |==|  0.32500
USER: genes 17 Torsion [C]-N--CA-[C] |==|  0.47611
USER: genes 18 Torsion [N]-CA--C-[O] |==|  0.52537
ROOT
ATOM      1  CA  ALA B   3      -3.759  19.567   4.263  1.00 28.39 LIG 0.17  C 
ATOM      2  CB  ALA B   3      -4.116  18.205   3.748  1.00 28.72 LIG 0.04  C 
ENDROOT
BRANCH 1 3
ATOM      3  N   ALA B   3      -2.395  19.865   3.881  1.00 28.60 LIG-0.35  N 
ATOM      4 H    ALA B   3      -1.798  19.397   4.286  1.00 28.60 LIG 0.16  HD
ATOM      5  C   HIS B   2      -2.128  20.792   2.977  1.00 29.32 LIG 0.24  C 
ATOM      6 O    HIS B   2      -2.979  21.566   2.511  1.00 29.97 LIG-0.27  OA
BRANCH 5 7
ATOM      7  CA  HIS B   2      -0.689  20.859   2.546  1.00 29.29 LIG 0.18  C 
BRANCH 7 8
ATOM      8  N   HIS B   2      -0.615  21.327   1.162  1.00 29.97 LIG-0.35  N 
ATOM      9 H    HIS B   2      -0.781  22.163   1.054  1.00 29.97 LIG 0.16  HD
ATOM     10  C   ALA B   1      -0.311  20.488   0.181  1.00 30.05 LIG 0.25  C 
ATOM     11 O    ALA B   1      -0.133  19.291   0.369  1.00 29.42 LIG-0.27  OA
BRANCH 10 12
ATOM     12  CA  ALA B   1      -0.176  21.085  -1.218  1.00 30.09 LIG 0.27  C 
ATOM     13  CB  ALA B   1       1.292  21.258  -1.545  1.00 30.26 LIG 0.05  C 
BRANCH 12 14
ATOM     14  N   ALA B   1      -0.883  22.394  -1.350  1.00 30.65 LIG-0.07  N 
ATOM     15 H3   ALA B   1      -0.451  23.014  -0.880  1.00 30.65 LIG 0.28  HD
ATOM     16 H2   ALA B   1      -1.714  22.315  -1.042  1.00 30.65 LIG 0.28  HD
ATOM     17 H1   ALA B   1      -0.907  22.634  -2.207  1.00 30.65 LIG 0.28  HD
ENDBRANCH 12 14
ENDBRANCH 10 12
ENDBRANCH 7 8
BRANCH 7 18
ATOM     18  CB  HIS B   2       0.080  21.776   3.446  1.00 29.38 LIG 0.10  C 
BRANCH 18 19
ATOM     19  CG  HIS B   2       1.341  22.260   2.836  1.00 27.68 LIG 0.06  A 
ATOM     20 ND1  HIS B   2       2.302  21.405   2.337  1.00 26.38 LIG-0.24  NA
ATOM     21  CE1 HIS B   2       3.304  22.116   1.855  1.00 23.03 LIG 0.23  A 
ATOM     22 NE2  HIS B   2       3.023  23.398   2.019  1.00 28.18 LIG-0.25  NA
ATOM     23  CD2 HIS B   2       1.803  23.513   2.634  1.00 26.32 LIG 0.14  A 
ENDBRANCH 18 19
ENDBRANCH 7 18
ENDBRANCH 5 7
ENDBRANCH 1 3
BRANCH 1 24
ATOM     24  C   ALA B   3      -3.914  19.617   5.770  1.00 28.01 LIG 0.24  C 
ATOM     25  N   LYS B   4      -5.122  19.965   6.211  1.00 28.43 LIG-0.35  N 
ATOM     26 H    LYS B   4      -5.799  20.107   5.699  1.00 28.43 LIG 0.16  HD
ATOM     27 O    ALA B   3      -2.969  19.309   6.504  1.00 26.29 LIG-0.27  OA
BRANCH 25 28
ATOM     28  CA  LYS B   4      -5.398  20.138   7.658  1.00 29.37 LIG 0.18  C 
BRANCH 28 29
ATOM     29  CB  LYS B   4      -6.878  20.397   7.981  1.00 28.49 LIG 0.04  C 
BRANCH 29 30
ATOM     30  CG  LYS B   4      -7.664  21.279   7.049  1.00 28.80 LIG 0.00  C 
BRANCH 30 31
ATOM     31  CD  LYS B   4      -7.638  22.749   7.415  1.00 27.51 LIG 0.03  C 
BRANCH 31 32
ATOM     32  CE  LYS B   4      -8.292  23.567   6.354  1.00 28.58 LIG 0.23  C 
BRANCH 32 33
ATOM     33  NZ  LYS B   4      -9.030  22.713   5.380  1.00 30.35 LIG-0.08  N 
ATOM     34 HZ2  LYS B   4      -8.448  22.263   4.879  1.00 30.35 LIG 0.27  HD
ATOM     35 HZ1  LYS B   4      -9.535  23.227   4.858  1.00 30.35 LIG 0.27  HD
ATOM     36 HZ3  LYS B   4      -9.548  22.139   5.821  1.00 30.35 LIG 0.27  HD
ENDBRANCH 32 33
ENDBRANCH 31 32
ENDBRANCH 30 31
ENDBRANCH 29 30
ENDBRANCH 28 29
BRANCH 28 37
ATOM     37  C   LYS B   4      -5.000  18.864   8.353  1.00 30.22 LIG 0.24  C 
ATOM     38 O    LYS B   4      -5.577  17.799   8.081  1.00 31.21 LIG-0.27  OA
ATOM     39  N   ALA B   5      -4.018  18.943   9.242  1.00 31.43 LIG-0.35  N 
ATOM     40 H    ALA B   5      -3.597  19.667   9.434  1.00 31.43 LIG 0.16  HD
BRANCH 39 41
ATOM     41  CA  ALA B   5      -3.575  17.771   9.976  1.00 32.08 LIG 0.16  C 
ATOM     42  CB  ALA B   5      -3.344  16.602   9.012  1.00 32.99 LIG 0.04  C 
BRANCH 41 43
ATOM     43  C   ALA B   5      -2.319  18.020  10.781  1.00 32.46 LIG 0.22  C 
ATOM     44 O    ALA B   5      -1.735  17.067  11.319  1.00 34.27 LIG-0.29  OA
ENDBRANCH 41 43
ENDBRANCH 39 41
ENDBRANCH 28 37
ENDBRANCH 25 28
ENDBRANCH 1 24
TORSDOF 17
