REMARK  16 active torsions:
REMARK  status: ('A' for Active; 'I' for Inactive)
REMARK    1  A    between atoms: N_1  and  CA_2 
REMARK    2  A    between atoms: CA_2  and  C_3 
REMARK    3  A    between atoms: CA_2  and  CB_5 
REMARK       I    between atoms: C_3  and  N_11 
REMARK    4  A    between atoms: CB_5  and  OG_6 
REMARK    5  A    between atoms: N_11  and  CA_12 
REMARK    6  A    between atoms: CA_12  and  C_13 
REMARK    7  A    between atoms: CA_12  and  CB_15 
REMARK       I    between atoms: C_13  and  N_23 
REMARK    8  A    between atoms: CB_15  and  CG_16 
REMARK    9  A    between atoms: N_23  and  CA_24 
REMARK   10  A    between atoms: CA_24  and  C_25 
REMARK       I    between atoms: C_25  and  N_29 
REMARK   11  A    between atoms: N_29  and  CA_30 
REMARK   12  A    between atoms: CA_30  and  C_31 
REMARK   13  A    between atoms: CA_30  and  CB_33 
REMARK       I    between atoms: C_31  and  N_40 
REMARK   14  A    between atoms: CB_33  and  CG_34 
REMARK       I    between atoms: CG_34  and  ND2_36 
REMARK   15  A    between atoms: N_40  and  CA_41 
REMARK   16  A    between atoms: CA_41  and  C_42 
ROOT
ATOM      1  C   PHE B   2      -2.133  19.349   3.035  1.00 26.65     0.241 C 
ATOM      2  O   PHE B   2      -3.121  19.667   2.438  1.00 26.69    -0.271 OA
ATOM      3  N   ALA B   3      -2.124  18.750   4.203  1.00 26.24    -0.346 N 
ATOM      4  H   ALA B   3      -1.418  18.573   4.661  1.00 26.24     0.163 HD
ENDROOT
BRANCH   1   5
ATOM      5  CA  PHE B   2      -0.767  19.616   2.510  1.00 26.41     0.180 C 
BRANCH   5   6
ATOM      6  N   PHE B   2      -0.766  19.920   1.117  1.00 26.57    -0.346 N 
ATOM      7  C   SER B   1      -0.456  18.973   0.256  1.00 27.36     0.251 C 
ATOM      8  O   SER B   1      -0.141  17.855   0.568  1.00 27.79    -0.271 OA
ATOM      9  H   PHE B   2      -0.974  20.729   0.912  1.00 26.57     0.163 HD
BRANCH   7  10
ATOM     10  CA  SER B   1      -0.430  19.344  -1.184  1.00 27.82     0.297 C 
BRANCH  10  11
ATOM     11  CB  SER B   1      -1.735  19.892  -1.704  1.00 27.59     0.206 C 
BRANCH  11  12
ATOM     12  OG  SER B   1      -2.455  18.893  -2.390  1.00 28.50    -0.398 OA
ATOM     13  HG  SER B   1      -3.179  19.213  -2.672  1.00 28.50     0.209 HD
ENDBRANCH  11  12
ENDBRANCH  10  11
BRANCH  10  14
ATOM     14  N   SER B   1      -0.092  18.124  -1.864  1.00 28.84    -0.064 N 
ATOM     15  H3  SER B   1      -0.815  17.799  -2.269  1.00 28.84     0.275 HD
ATOM     16  H2  SER B   1       0.210  17.529  -1.275  1.00 28.84     0.275 HD
ATOM     17  H1  SER B   1       0.539  18.287  -2.470  1.00 28.84     0.275 HD
ENDBRANCH  10  14
ENDBRANCH   7  10
ENDBRANCH   5   6
BRANCH   5  18
ATOM     18  CB  PHE B   2      -0.163  20.704   3.320  1.00 26.01     0.073 C 
BRANCH  18  19
ATOM     19  CG  PHE B   2       0.964  21.317   2.683  1.00 24.17    -0.056 A 
ATOM     20  CD1 PHE B   2       1.968  20.548   2.176  1.00 21.37     0.007 A 
ATOM     21  CE1 PHE B   2       2.962  21.104   1.619  1.00 18.48     0.001 A 
ATOM     22  CZ  PHE B   2       3.027  22.399   1.520  1.00 20.70     0.000 A 
ATOM     23  CE2 PHE B   2       2.084  23.171   1.934  1.00 22.44     0.001 A 
ATOM     24  CD2 PHE B   2       1.034  22.651   2.538  1.00 23.60     0.007 A 
ENDBRANCH  18  19
ENDBRANCH   5  18
ENDBRANCH   1   5
BRANCH   3  25
ATOM     25  CA  ALA B   3      -3.343  18.347   4.792  1.00 26.83     0.172 C 
ATOM     26  CB  ALA B   3      -3.523  16.860   4.651  1.00 26.24     0.042 C 
BRANCH  25  27
ATOM     27  C   ALA B   3      -3.324  18.738   6.249  1.00 26.95     0.240 C 
ATOM     28  N   ASN B   4      -4.471  19.163   6.727  1.00 27.94    -0.346 N 
ATOM     29  H   ASN B   4      -5.149  19.394   6.250  1.00 27.94     0.163 HD
ATOM     30  O   ALA B   3      -2.344  18.649   6.879  1.00 26.45    -0.271 OA
BRANCH  28  31
ATOM     31  CA  ASN B   4      -4.654  19.267   8.148  1.00 28.42     0.185 C 
BRANCH  31  32
ATOM     32  C   ASN B   4      -4.110  18.015   8.791  1.00 28.91     0.241 C 
ATOM     33  O   ASN B   4      -4.322  16.932   8.323  1.00 29.45    -0.271 OA
ATOM     34  N   GLY B   5      -3.381  18.165   9.867  1.00 28.92    -0.352 N 
ATOM     35  H   GLY B   5      -3.155  18.923  10.205  1.00 28.92     0.162 HD
BRANCH  34  36
ATOM     36  CA  GLY B   5      -2.902  17.025  10.567  1.00 29.35     0.209 C 
BRANCH  36  37
ATOM     37  C   GLY B   5      -1.538  17.153  11.138  1.00 28.99     0.213 C 
ATOM     38  O   GLY B   5      -1.138  16.290  11.849  1.00 30.45    -0.287 OA
ENDBRANCH  36  37
ENDBRANCH  34  36
ENDBRANCH  31  32
BRANCH  31  39
ATOM     39  CB  ASN B   4      -6.131  19.439   8.499  1.00 28.79     0.137 C 
BRANCH  39  40
ATOM     40  CG  ASN B   4      -6.655  20.778   8.127  1.00 30.59     0.217 C 
ATOM     41  ND2 ASN B   4      -7.435  20.856   7.068  1.00 33.19    -0.370 N 
ATOM     42 2HD2 ASN B   4      -7.649  20.143   6.638  1.00 33.19     0.159 HD
ATOM     43 1HD2 ASN B   4      -7.730  21.620   6.806  1.00 33.19     0.159 HD
ATOM     44  OD1 ASN B   4      -6.330  21.745   8.757  1.00 34.60    -0.274 OA
ENDBRANCH  39  40
ENDBRANCH  31  39
ENDBRANCH  28  31
ENDBRANCH  25  27
ENDBRANCH   3  25
TORSDOF 16
