USER: ADFR SOLUTION from run 0
USER: SCORE 15.554483 LL:  -5.448 LR: -11.960 RR:   0.000 FEB:  -5.397
USER: RMSD 0.805945
USER: STATUS Locally minimized using BFGS
USER: GENES 24
USER: genes 0 Translation |==|  0.42564 0.43883 0.27595
USER: genes 1 Rotation |==|  0.48189 0.47850 0.49876 0.99921
USER: genes 2 Torsion [N]-C--CA-[N] |==|  0.99966
USER: genes 3 Torsion [C]-CA--N-[C] |==|  0.81175
USER: genes 4 Torsion [N]-C--CA-[N] |==|  0.90610
USER: genes 5 Torsion [C]-CA--CB-[CG] |==|  0.17116
USER: genes 6 Torsion [CA]-CB--CG-[CD] |==|  0.46724
USER: genes 7 Torsion [CB]-CG--CD-[NE] |==|  0.82633
USER: genes 8 Torsion [CG]-CD--NE-[CZ] |==|  0.74436
USER: genes 9 Torsion [C]-CA--N-[C] |==|  0.83725
USER: genes 10 Torsion [N]-C--CA-[N] |==|  0.47525
USER: genes 11 Torsion [C]-CA--N-[H2] |==|  0.85916
USER: genes 12 Torsion [C]-N--CA-[C] |==|  0.67778
USER: genes 13 Torsion [N]-CA--C-[N] |==|  0.40428
USER: genes 14 Torsion [C]-N--CA-[CB] |==|  0.43552
USER: genes 15 Torsion [N]-CA--CB-[CG2] |==|  0.82548
USER: genes 16 Torsion [N]-CA--C-[N] |==|  0.35144
USER: genes 17 Torsion [C]-N--CA-[C] |==|  0.70039
USER: genes 18 Torsion [N]-CA--C-[O] |==|  0.33613
USER: genes 19 Torsion [N]-CA--CB-[CG] |==|  0.49783
USER: genes 20 Torsion [CA]-CB--CG-[CD2] |==|  0.68764
USER: genes 21 Torsion [N]-CA--CB-[CG] |==|  0.88283
USER: genes 22 Torsion [CA]-CB--CG-[CD] |==|  0.43855
USER: genes 23 Torsion [CB]-CG--CD-[OE2] |==|  0.66882
ROOT
ATOM      1  C   ALA B   3     -16.474 -29.511  -9.919  1.00 17.17 LIG 0.24  C 
ATOM      2 O    ALA B   3     -17.153 -30.259 -10.625  1.00 18.54 LIG-0.27  OA
ATOM      3  N   GLU B   4     -15.952 -29.894  -8.756  1.00 17.89 LIG-0.35  N 
ATOM      4 H    GLU B   4     -15.478 -29.381  -8.255  1.00 17.89 LIG 0.16  HD
ENDROOT
BRANCH 1 5
ATOM      5  CA  ALA B   3     -16.196 -28.074 -10.359  1.00 15.99 LIG 0.17  C 
ATOM      6  CB  ALA B   3     -15.526 -28.069 -11.729  1.00 16.21 LIG 0.04  C 
BRANCH 5 7
ATOM      7  N   ALA B   3     -15.382 -27.327  -9.408  1.00 13.91 LIG-0.35  N 
ATOM      8  C   ARG B   2     -15.845 -26.996  -8.206  1.00 12.46 LIG 0.24  C 
ATOM      9 O    ARG B   2     -16.973 -27.303  -7.820  1.00 11.56 LIG-0.27  OA
ATOM     10 H    ALA B   3     -14.595 -27.128  -9.692  1.00 13.91 LIG 0.16  HD
BRANCH 8 11
ATOM     11  CA  ARG B   2     -14.909 -26.201  -7.303  1.00 12.24 LIG 0.18  C 
BRANCH 11 12
ATOM     12  CB  ARG B   2     -15.113 -24.703  -7.541  1.00 10.58 LIG 0.04  C 
BRANCH 12 13
ATOM     13  CG  ARG B   2     -16.511 -24.192  -7.224  1.00  9.71 LIG 0.02  C 
BRANCH 13 14
ATOM     14  CD  ARG B   2     -16.531 -22.673  -7.212  1.00  9.44 LIG 0.14  C 
BRANCH 14 15
ATOM     15  NE  ARG B   2     -15.666 -22.115  -6.174  1.00  9.23 LIG-0.23  N 
ATOM     16  CZ  ARG B   2     -16.067 -21.809  -4.946  1.00  9.20 LIG 0.67  C 
ATOM     17  NH1 ARG B   2     -17.331 -22.004  -4.593  1.00  7.63 LIG-0.23  N 
ATOM     18  NH2 ARG B   2     -15.206 -21.309  -4.070  1.00  9.31 LIG-0.23  N 
ATOM     19 1HH1 ARG B   2     -17.891 -22.329  -5.159  1.00  7.63 LIG 0.17  HD
ATOM     20 2HH1 ARG B   2     -17.591 -21.805  -3.797  1.00  7.63 LIG 0.17  HD
ATOM     21 2HH2 ARG B   2     -15.467 -21.111  -3.275  1.00  9.31 LIG 0.17  HD
ATOM     22 1HH2 ARG B   2     -14.386 -21.183  -4.296  1.00  9.31 LIG 0.17  HD
ATOM     23 HE   ARG B   2     -14.841 -21.975  -6.372  1.00  9.23 LIG 0.18  HD
ENDBRANCH 14 15
ENDBRANCH 13 14
ENDBRANCH 12 13
ENDBRANCH 11 12
BRANCH 11 24
ATOM     24  N   ARG B   2     -13.491 -26.518  -7.440  1.00 12.50 LIG-0.35  N 
ATOM     25  C   ALA B   1     -12.995 -27.733  -7.241  1.00 14.33 LIG 0.25  C 
ATOM     26 O    ALA B   1     -13.688 -28.710  -6.961  1.00 14.72 LIG-0.27  OA
ATOM     27 H    ARG B   2     -13.007 -25.843  -7.661  1.00 12.50 LIG 0.16  HD
BRANCH 25 28
ATOM     28  CA  ALA B   1     -11.483 -27.860  -7.399  1.00 14.93 LIG 0.27  C 
ATOM     29  CB  ALA B   1     -11.083 -27.619  -8.849  1.00 16.58 LIG 0.05  C 
BRANCH 28 30
ATOM     30  N   ALA B   1     -11.007 -29.198  -6.950  1.00 16.58 LIG-0.07  N 
ATOM     31 H3   ALA B   1     -11.290 -29.821  -7.520  1.00 16.58 LIG 0.28  HD
ATOM     32 H1   ALA B   1     -10.117 -29.203  -6.924  1.00 16.58 LIG 0.28  HD
ATOM     33 H2   ALA B   1     -11.329 -29.371  -6.139  1.00 16.58 LIG 0.28  HD
ENDBRANCH 28 30
ENDBRANCH 25 28
ENDBRANCH 11 24
ENDBRANCH 8 11
ENDBRANCH 5 7
ENDBRANCH 1 5
BRANCH 3 34
ATOM     34  CA  GLU B   4     -16.145 -31.241  -8.225  1.00 20.15 LIG 0.18  C 
BRANCH 34 35
ATOM     35  C   GLU B   4     -16.937 -31.203  -6.919  1.00 19.92 LIG 0.24  C 
ATOM     36  N   VAL B   5     -17.763 -32.220  -6.697  1.00 19.46 LIG-0.35  N 
ATOM     37 H    VAL B   5     -17.870 -32.881  -7.238  1.00 19.46 LIG 0.16  HD
ATOM     38 O    GLU B   4     -16.794 -30.273  -6.126  1.00 20.03 LIG-0.27  OA
BRANCH 36 39
ATOM     39  CA  VAL B   5     -18.573 -32.294  -5.485  1.00 20.09 LIG 0.18  C 
BRANCH 39 40
ATOM     40  CB  VAL B   5     -19.817 -33.189  -5.696  1.00 20.49 LIG 0.01  C 
ATOM     41  CG2 VAL B   5     -20.717 -32.589  -6.763  1.00 19.70 LIG 0.01  C 
ATOM     42  CG1 VAL B   5     -20.577 -33.343  -4.390  1.00 21.00 LIG 0.01  C 
ENDBRANCH 39 40
BRANCH 39 43
ATOM     43  C   VAL B   5     -17.772 -32.858  -4.313  1.00 20.75 LIG 0.24  C 
ATOM     44  N   HIS B   6     -17.753 -32.129  -3.201  1.00 20.78 LIG-0.35  N 
ATOM     45 H    HIS B   6     -18.149 -31.370  -3.115  1.00 20.78 LIG 0.16  HD
ATOM     46 O    VAL B   5     -17.176 -33.930  -4.418  1.00 21.91 LIG-0.27  OA
BRANCH 44 47
ATOM     47  CA  HIS B   6     -17.038 -32.577  -2.011  1.00 21.28 LIG 0.17  C 
BRANCH 47 48
ATOM     48  C   HIS B   6     -18.034 -33.008  -0.941  1.00 23.03 LIG 0.22  C 
ATOM     49 O    HIS B   6     -17.976 -34.182  -0.518  1.00 25.39 LIG-0.29  OA
ENDBRANCH 47 48
BRANCH 47 50
ATOM     50  CB  HIS B   6     -16.151 -31.461  -1.451  1.00 19.33 LIG 0.09  C 
BRANCH 50 51
ATOM     51  CG  HIS B   6     -15.402 -31.854  -0.214  1.00 17.39 LIG 0.06  A 
ATOM     52  CD2 HIS B   6     -15.511 -31.431   1.068  1.00 16.59 LIG 0.14  A 
ATOM     53 NE2  HIS B   6     -14.604 -32.147   1.811  1.00 16.70 LIG-0.25  NA
ATOM     54  CE1 HIS B   6     -13.959 -32.979   1.013  1.00 16.06 LIG 0.23  A 
ATOM     55 ND1  HIS B   6     -14.421 -32.823  -0.215  1.00 16.09 LIG-0.24  NA
ENDBRANCH 50 51
ENDBRANCH 47 50
ENDBRANCH 44 47
ENDBRANCH 39 43
ENDBRANCH 36 39
ENDBRANCH 34 35
BRANCH 34 56
ATOM     56  CB  GLU B   4     -14.791 -31.908  -7.968  1.00 22.38 LIG 0.04  C 
BRANCH 56 57
ATOM     57  CG  GLU B   4     -13.759 -31.682  -9.059  1.00 27.64 LIG 0.12  C 
BRANCH 57 58
ATOM     58  CD  GLU B   4     -12.341 -31.873  -8.557  1.00 30.78 LIG 0.17  C 
ATOM     59 OE2  GLU B   4     -11.551 -30.906  -8.615  1.00 32.62 LIG-0.65  OA
ATOM     60 OE1  GLU B   4     -12.017 -32.992  -8.104  1.00 32.75 LIG-0.65  OA
ENDBRANCH 57 58
ENDBRANCH 56 57
ENDBRANCH 34 56
ENDBRANCH 3 34
TORSDOF 22
