USER: ADFR SOLUTION from run 0
USER: SCORE 10.047157 LL:  -1.717 LR:  -8.572 RR:   0.000 FEB:  -6.484
USER: RMSD 0.571849
USER: STATUS Locally minimized using BFGS
USER: GENES 9
USER: genes 0 Translation |==|  0.52172 0.49883 0.42296
USER: genes 1 Rotation |==|  0.50037 0.51452 0.48761 0.99964
USER: genes 2 Torsion [N]-CA--C-[O] |==|  0.93137
USER: genes 3 Torsion [C]-N--CA-[C] |==|  0.72611
USER: genes 4 Torsion [N]-CA--C-[OXT] |==|  0.13926
USER: genes 5 Torsion [N]-CA--CB-[CG1] |==|  0.68426
USER: genes 6 Torsion [N]-C--CA-[N] |==|  0.43984
USER: genes 7 Torsion [C]-CA--N-[C] |==|  0.63333
USER: genes 8 Torsion [N]-C--CA-[N] |==|  0.54283
ROOT
ATOM      1  C   ALA X   3      33.316 -19.499  -1.095  1.00 23.90 LIG 0.24  C 
ATOM      2 O    ALA X   3      33.452 -18.357  -0.652  1.00 27.15 LIG-0.27  OA
ATOM      3  N   PRO X   4      32.381 -20.338  -0.650  1.00 24.39 LIG-0.34  N 
ATOM      4  CA  PRO X   4      31.536 -19.945   0.478  1.00 23.70 LIG 0.18  C 
ATOM      5  CB  PRO X   4      30.396 -20.963   0.418  1.00 23.39 LIG 0.04  C 
ATOM      6  CG  PRO X   4      31.051 -22.180  -0.242  1.00 25.35 LIG 0.02  C 
ATOM      7  CD  PRO X   4      31.837 -21.521  -1.337  1.00 22.91 LIG 0.13  C 
ENDROOT
BRANCH 4 8
ATOM      8  C   PRO X   4      32.404 -20.058   1.739  1.00 23.69 LIG 0.24  C 
ATOM      9 O    PRO X   4      33.364 -20.818   1.746  1.00 21.84 LIG-0.27  OA
ATOM     10  N   VAL X   5      32.082 -19.305   2.791  1.00 24.58 LIG-0.34  N 
ATOM     11 H    VAL X   5      31.409 -18.770   2.820  1.00 24.58 LIG 0.16  HD
BRANCH 10 12
ATOM     12  CA  VAL X   5      32.891 -19.347   4.016  1.00 25.73 LIG 0.19  C 
BRANCH 12 13
ATOM     13  C   VAL X   5      32.369 -20.232   5.159  1.00 27.91 LIG 0.20  C 
ATOM     14 OXT  VAL X   5      32.038 -21.419   4.923  1.00 25.78 LIG-0.65  OA
ATOM     15 O    VAL X   5      32.273 -19.734   6.295  1.00 23.88 LIG-0.65  OA
ENDBRANCH 12 13
BRANCH 12 16
ATOM     16  CB  VAL X   5      33.119 -17.929   4.583  1.00 25.22 LIG 0.01  C 
ATOM     17  CG1 VAL X   5      34.579 -17.561   4.493  1.00 21.50 LIG 0.01  C 
ATOM     18  CG2 VAL X   5      32.272 -16.904   3.797  1.00 24.36 LIG 0.01  C 
ENDBRANCH 12 16
ENDBRANCH 10 12
ENDBRANCH 4 8
BRANCH 1 19
ATOM     19  CA  ALA X   3      34.159 -19.971  -2.245  1.00 23.97 LIG 0.17  C 
ATOM     20  CB  ALA X   3      35.308 -20.827  -1.752  1.00 25.40 LIG 0.04  C 
BRANCH 19 21
ATOM     21  N   ALA X   3      34.647 -18.741  -2.798  1.00 22.59 LIG-0.35  N 
ATOM     22 H    ALA X   3      34.972 -18.184  -2.229  1.00 22.59 LIG 0.16  HD
ATOM     23  C   ALA X   2      34.573 -18.536  -4.092  1.00 23.89 LIG 0.26  C 
ATOM     24 O    ALA X   2      34.154 -19.389  -4.882  1.00 22.77 LIG-0.27  OA
BRANCH 23 25
ATOM     25  CA  ALA X   2      35.067 -17.195  -4.579  1.00 23.49 LIG 0.40  C 
ATOM     26  CB  ALA X   2      34.521 -16.055  -3.718  1.00 22.19 LIG 0.06  C 
ATOM     27  N   ALA X   2      34.523 -17.134  -5.910  1.00 24.67 LIG 0.61  N 
ENDBRANCH 23 25
ENDBRANCH 19 21
ENDBRANCH 1 19
TORSDOF 7
