REMARK  22 active torsions:
REMARK  status: ('A' for Active; 'I' for Inactive)
REMARK       I    between atoms: C_1  and  N_4 
REMARK    1  A    between atoms: N_4  and  CA_5 
REMARK    2  A    between atoms: CA_5  and  CB_8 
REMARK    3  A    between atoms: CA_5  and  C_6 
REMARK       I    between atoms: C_6  and  N_13 
REMARK    4  A    between atoms: CB_8  and  CG_9 
REMARK    5  A    between atoms: CG_9  and  SD_10 
REMARK    6  A    between atoms: N_13  and  CA_14 
REMARK    7  A    between atoms: CA_14  and  CB_17 
REMARK    8  A    between atoms: CA_14  and  C_15 
REMARK       I    between atoms: C_15  and  N_23 
REMARK    9  A    between atoms: CB_17  and  CG_18 
REMARK   10  A    between atoms: CG_18  and  CD_19 
REMARK   11  A    between atoms: N_23  and  CA_24 
REMARK   12  A    between atoms: CA_24  and  C_25 
REMARK   13  A    between atoms: CA_24  and  CB_27 
REMARK       I    between atoms: C_25  and  N_33 
REMARK   14  A    between atoms: CB_27  and  CG_28 
REMARK   15  A    between atoms: CG_28  and  CD_29 
REMARK   16  A    between atoms: N_33  and  CA_34 
REMARK   17  A    between atoms: CA_34  and  CB_37 
REMARK   18  A    between atoms: CA_34  and  C_35 
REMARK       I    between atoms: C_35  and  N_41 
REMARK   19  A    between atoms: N_41  and  CA_42 
REMARK   20  A    between atoms: CA_42  and  C_43 
REMARK   21  A    between atoms: CA_42  and  CB_45 
REMARK   22  A    between atoms: CB_45  and  CG_46 
ROOT
ATOM      1  CA  GLU C   3     -19.271  10.035   3.129  1.00 17.34     0.177 C 
ENDROOT
BRANCH   1   2
ATOM      2  N   GLU C   3     -18.455   9.329   2.135  1.00 16.96    -0.346 N 
ATOM      3  C   GLU C   2     -18.982   8.893   1.004  1.00 16.75     0.241 C 
ATOM      4  O   GLU C   2     -20.174   9.036   0.719  1.00 16.41    -0.271 OA
ATOM      5  H   GLU C   3     -17.629   9.230   2.353  1.00 16.96     0.163 HD
BRANCH   3   6
ATOM      6  CA  GLU C   2     -18.017   8.208   0.046  1.00 16.90     0.177 C 
BRANCH   6   7
ATOM      7  N   GLU C   2     -18.668   7.038  -0.511  1.00 16.95    -0.346 N 
ATOM      8  C   MET C   1     -19.162   6.074   0.242  1.00 17.22     0.241 C 
ATOM      9  O   MET C   1     -18.987   5.981   1.463  1.00 17.07    -0.271 OA
ATOM     10  H   GLU C   2     -18.701   7.033  -1.370  1.00 16.95     0.163 HD
BRANCH   8  11
ATOM     11  CA  MET C   1     -19.971   5.056  -0.539  1.00 17.60     0.177 C 
BRANCH  11  12
ATOM     12  N   MET C   1     -20.021   3.759   0.146  1.00 17.57    -0.348 N 
ATOM     13  H   MET C   1     -20.788   3.586   0.495  1.00 17.57     0.163 HD
HETATM   14  C   ACE C   0     -18.991   2.930   0.224  1.00 17.66     0.214 C 
HETATM   15  O   ACE C   0     -19.076   1.942   0.945  1.00 18.17    -0.274 OA
HETATM   16  CH3 ACE C   0     -17.884   3.075  -0.776  1.00 17.74     0.117 C 
ENDBRANCH  11  12
BRANCH  11  17
ATOM     17  CB  MET C   1     -21.386   5.616  -0.764  1.00 17.86     0.045 C 
BRANCH  17  18
ATOM     18  CG  MET C   1     -22.343   4.673  -1.508  1.00 18.56     0.076 C 
BRANCH  18  19
ATOM     19  SD  MET C   1     -24.019   5.348  -1.623  1.00 20.55    -0.173 SA
ATOM     20  CE  MET C   1     -23.841   6.532  -2.963  1.00 18.76     0.089 C 
ENDBRANCH  18  19
ENDBRANCH  17  18
ENDBRANCH  11  17
ENDBRANCH   8  11
ENDBRANCH   6   7
BRANCH   6  21
ATOM     21  CB  GLU C   2     -17.610   9.176  -1.074  1.00 16.89     0.045 C 
BRANCH  21  22
ATOM     22  CG  GLU C   2     -16.537   8.628  -1.993  1.00 17.75     0.116 C 
BRANCH  22  23
ATOM     23  CD  GLU C   2     -15.228   8.384  -1.276  1.00 17.83     0.172 C 
ATOM     24  OE1 GLU C   2     -14.589   9.360  -0.849  1.00 16.84    -0.648 OA
ATOM     25  OE2 GLU C   2     -14.833   7.209  -1.146  1.00 19.94    -0.648 OA
ENDBRANCH  22  23
ENDBRANCH  21  22
ENDBRANCH   6  21
ENDBRANCH   3   6
ENDBRANCH   1   2
BRANCH   1  26
ATOM     26  C   GLU C   3     -19.647  11.417   2.677  1.00 16.67     0.241 C 
ATOM     27  O   GLU C   3     -18.827  12.161   2.135  1.00 16.39    -0.271 OA
ATOM     28  N   VAL C   4     -20.890  11.756   2.967  1.00 16.17    -0.346 N 
ATOM     29  H   VAL C   4     -21.479  11.201   3.257  1.00 16.17     0.163 HD
BRANCH  28  30
ATOM     30  CA  VAL C   4     -21.382  13.119   2.819  1.00 16.42     0.180 C 
BRANCH  30  31
ATOM     31  CB  VAL C   4     -22.661  13.197   1.968  1.00 16.37     0.009 C 
ATOM     32  CG1 VAL C   4     -22.345  12.830   0.511  1.00 16.31     0.012 C 
ATOM     33  CG2 VAL C   4     -23.771  12.313   2.558  1.00 16.31     0.012 C 
ENDBRANCH  30  31
BRANCH  30  34
ATOM     34  C   VAL C   4     -21.623  13.726   4.199  1.00 17.02     0.241 C 
ATOM     35  O   VAL C   4     -21.967  13.036   5.155  1.00 16.27    -0.271 OA
ATOM     36  N   PHE C   5     -21.407  15.031   4.284  1.00 17.75    -0.344 N 
ATOM     37  H   PHE C   5     -21.229  15.533   3.608  1.00 17.75     0.163 HD
BRANCH  36  38
ATOM     38  CA  PHE C   5     -21.455  15.735   5.559  1.00 18.16     0.189 C 
BRANCH  38  39
ATOM     39  C   PHE C   5     -22.583  16.760   5.582  1.00 18.09     0.197 C 
ATOM     40  O   PHE C   5     -22.772  17.442   6.595  1.00 17.71    -0.646 OA
ATOM     41  OXT PHE C   5     -23.325  16.901   4.595  1.00 17.63    -0.646 OA
ENDBRANCH  38  39
BRANCH  38  42
ATOM     42  CB  PHE C   5     -20.090  16.388   5.821  1.00 18.57     0.074 C 
BRANCH  42  43
ATOM     43  CG  PHE C   5     -18.934  15.420   5.689  1.00 19.32    -0.056 A 
ATOM     44  CD1 PHE C   5     -18.601  14.564   6.727  1.00 20.35     0.007 A 
ATOM     45  CE1 PHE C   5     -17.553  13.667   6.594  1.00 19.79     0.001 A 
ATOM     46  CZ  PHE C   5     -16.836  13.617   5.419  1.00 20.19     0.000 A 
ATOM     47  CE2 PHE C   5     -17.157  14.456   4.384  1.00 20.40     0.001 A 
ATOM     48  CD2 PHE C   5     -18.204  15.347   4.516  1.00 20.78     0.007 A 
ENDBRANCH  42  43
ENDBRANCH  38  42
ENDBRANCH  36  38
ENDBRANCH  30  34
ENDBRANCH  28  30
ENDBRANCH   1  26
BRANCH   1  49
ATOM     49  CB  GLU C   3     -18.547  10.179   4.469  1.00 17.73     0.045 C 
BRANCH  49  50
ATOM     50  CG  GLU C   3     -18.211   8.885   5.133  1.00 21.08     0.116 C 
BRANCH  50  51
ATOM     51  CD  GLU C   3     -17.681   9.110   6.537  1.00 24.82     0.172 C 
ATOM     52  OE2 GLU C   3     -16.964   8.215   7.048  1.00 28.13    -0.648 OA
ATOM     53  OE1 GLU C   3     -17.986  10.187   7.114  1.00 24.98    -0.648 OA
ENDBRANCH  50  51
ENDBRANCH  49  50
ENDBRANCH   1  49
TORSDOF 22
