USER: ADFR SOLUTION from run 0
USER: SCORE 11.706298 LL:  -2.097 LR:  -9.678 RR:   0.000 FEB:  -6.099
USER: RMSD 0.744661
USER: STATUS Locally minimized using BFGS
USER: GENES 14
USER: genes 0 Translation |==|  0.58923 0.56950 0.52359
USER: genes 1 Rotation |==|  0.46494 0.52544 0.50583 0.99809
USER: genes 2 Torsion [N]-CA--C-[N] |==|  0.44967
USER: genes 3 Torsion [C]-N--CA-[C] |==|  0.21014
USER: genes 4 Torsion [N]-CA--C-[O] |==|  0.41416
USER: genes 5 Torsion [N]-CA--CB-[CG] |==|  0.46517
USER: genes 6 Torsion [CA]-CB--CG-[CD1] |==|  0.35801
USER: genes 7 Torsion [C]-CA--CB-[CG] |==|  0.15147
USER: genes 8 Torsion [CA]-CB--CG-[CD1] |==|  0.20840
USER: genes 9 Torsion [C]-CA--N-[C] |==|  0.76111
USER: genes 10 Torsion [N]-C--CA-[N] |==|  0.40449
USER: genes 11 Torsion [C]-CA--N-[H1] |==|  0.46924
USER: genes 12 Torsion [C]-CA--CB-[CG] |==|  0.47667
USER: genes 13 Torsion [CA]-CB--CG-[CD2] |==|  0.83032
ROOT
ATOM      1  CA  LEU C   2      23.718  -7.378 -14.305  1.00 16.74 LIG 0.18  C 
ENDROOT
BRANCH 1 2
ATOM      2  C   LEU C   2      23.127  -8.786 -14.274  1.00 18.89 LIG 0.24  C 
ATOM      3 O    LEU C   2      21.971  -8.972 -13.891  1.00 18.56 LIG-0.27  OA
ATOM      4  N   LEU C   3      23.935  -9.764 -14.676  1.00 23.38 LIG-0.34  N 
ATOM      5 H    LEU C   3      24.751  -9.630 -14.910  1.00 23.38 LIG 0.16  HD
BRANCH 4 6
ATOM      6  CA  LEU C   3      23.524 -11.167 -14.762  1.00 25.96 LIG 0.18  C 
BRANCH 6 7
ATOM      7  C   LEU C   3      22.639 -11.422 -15.979  1.00 29.80 LIG 0.20  C 
ATOM      8 O    LEU C   3      22.647 -12.513 -16.552  1.00 35.72 LIG-0.65  OA
ATOM      9 OXT  LEU C   3      21.904 -10.541 -16.422  1.00 32.55 LIG-0.65  OA
ENDBRANCH 6 7
BRANCH 6 10
ATOM     10  CB  LEU C   3      22.836 -11.639 -13.475  1.00 31.41 LIG 0.04  C 
BRANCH 10 11
ATOM     11  CG  LEU C   3      22.098 -12.981 -13.534  1.00 30.46 LIG-0.02  C 
ATOM     12  CD1 LEU C   3      22.532 -13.890 -12.394  1.00 34.38 LIG 0.01  C 
ATOM     13  CD2 LEU C   3      20.585 -12.789 -13.525  1.00 31.73 LIG 0.01  C 
ENDBRANCH 10 11
ENDBRANCH 6 10
ENDBRANCH 4 6
ENDBRANCH 1 2
BRANCH 1 14
ATOM     14  CB  LEU C   2      24.688  -7.185 -13.137  1.00 17.64 LIG 0.04  C 
BRANCH 14 15
ATOM     15  CG  LEU C   2      25.827  -8.195 -12.988  1.00 22.57 LIG-0.02  C 
ATOM     16  CD1 LEU C   2      26.910  -7.946 -14.026  1.00 28.34 LIG 0.01  C 
ATOM     17  CD2 LEU C   2      26.406  -8.138 -11.584  1.00 18.75 LIG 0.01  C 
ENDBRANCH 14 15
ENDBRANCH 1 14
BRANCH 1 18
ATOM     18  N   LEU C   2      22.672  -6.362 -14.266  1.00 13.54 LIG-0.35  N 
ATOM     19  C   LEU C   1      22.067  -5.934 -15.368  1.00 14.21 LIG 0.25  C 
ATOM     20 O    LEU C   1      22.337  -6.358 -16.491  1.00 14.91 LIG-0.27  OA
ATOM     21 H    LEU C   2      22.489  -6.073 -13.477  1.00 13.54 LIG 0.16  HD
BRANCH 19 22
ATOM     22  CA  LEU C   1      20.993  -4.867 -15.177  1.00 10.58 LIG 0.28  C 
BRANCH 22 23
ATOM     23  N   LEU C   1      20.973  -3.934 -16.297  1.00  9.70 LIG-0.07  N 
ATOM     24 H1   LEU C   1      20.245  -3.424 -16.245  1.00  9.70 LIG 0.28  HD
ATOM     25 H3   LEU C   1      20.962  -4.388 -17.062  1.00  9.70 LIG 0.28  HD
ATOM     26 H2   LEU C   1      21.698  -3.419 -16.268  1.00  9.70 LIG 0.28  HD
ENDBRANCH 22 23
BRANCH 22 27
ATOM     27  CB  LEU C   1      19.621  -5.524 -15.005  1.00 10.99 LIG 0.05  C 
BRANCH 27 28
ATOM     28  CG  LEU C   1      18.473  -4.595 -14.605  1.00 13.23 LIG-0.02  C 
ATOM     29  CD2 LEU C   1      18.749  -3.939 -13.260  1.00  8.86 LIG 0.01  C 
ATOM     30  CD1 LEU C   1      17.155  -5.354 -14.576  1.00 10.45 LIG 0.01  C 
ENDBRANCH 27 28
ENDBRANCH 22 27
ENDBRANCH 19 22
ENDBRANCH 1 18
TORSDOF 12
