USER: ADFR SOLUTION from run 0
USER: SCORE 10.881061 LL:  -3.548 LR: -11.163 RR:   0.000 FEB:  -5.793
USER: RMSD 0.551671
USER: STATUS Locally minimized using BFGS
USER: GENES 20
USER: genes 0 Translation |==|  0.51567 0.48094 0.51855
USER: genes 1 Rotation |==|  0.51426 0.50622 0.50828 0.99969
USER: genes 2 Torsion [N]-C--CA-[N] |==|  0.37929
USER: genes 3 Torsion [C]-CA--N-[C] |==|  0.65180
USER: genes 4 Torsion [N]-C--CA-[N] |==|  0.40671
USER: genes 5 Torsion [C]-CA--CB-[CG] |==|  0.18109
USER: genes 6 Torsion [CA]-CB--CG-[CD] |==|  0.65851
USER: genes 7 Torsion [CB]-CG--CD-[OE1] |==|  0.20882
USER: genes 8 Torsion [C]-CA--N-[C] |==|  0.72222
USER: genes 9 Torsion [N]-C--CA-[N] |==|  0.38914
USER: genes 10 Torsion [C]-CA--N-[H1] |==|  0.47510
USER: genes 11 Torsion [C]-N--CA-[CB] |==|  0.39210
USER: genes 12 Torsion [N]-CA--C-[N] |==|  0.41906
USER: genes 13 Torsion [C]-N--CA-[CB] |==|  0.37743
USER: genes 14 Torsion [N]-CA--CB-[CG] |==|  0.65692
USER: genes 15 Torsion [CA]-CB--CG-[CD] |==|  0.73445
USER: genes 16 Torsion [CB]-CG--CD-[OE1] |==|  0.91771
USER: genes 17 Torsion [N]-CA--C-[N] |==|  0.39625
USER: genes 18 Torsion [C]-N--CA-[C] |==|  0.85073
USER: genes 19 Torsion [N]-CA--C-[O] |==|  0.88547
ROOT
ATOM      1  C   ALA Z   3      32.655  51.181  47.384  1.00 51.02 LIG 0.24  C 
ATOM      2 O    ALA Z   3      33.297  50.174  47.652  1.00 42.99 LIG-0.27  OA
ATOM      3  N   ALA Z   4      31.508  51.154  46.711  1.00 57.04 LIG-0.35  N 
ATOM      4 H    ALA Z   4      31.021  51.847  46.564  1.00 57.04 LIG 0.16  HD
ENDROOT
BRANCH 1 5
ATOM      5  CA  ALA Z   3      33.144  52.538  47.849  1.00 57.97 LIG 0.17  C 
ATOM      6  CB  ALA Z   3      34.264  53.037  46.947  1.00 56.61 LIG 0.04  C 
BRANCH 5 7
ATOM      7  N   ALA Z   3      33.611  52.371  49.215  1.00 65.45 LIG-0.35  N 
ATOM      8 H    ALA Z   3      34.202  51.753  49.314  1.00 65.45 LIG 0.16  HD
ATOM      9  C   GLU Z   2      33.153  53.119  50.210  1.00 71.12 LIG 0.24  C 
ATOM     10 O    GLU Z   2      32.450  54.115  50.035  1.00 75.44 LIG-0.27  OA
BRANCH 9 11
ATOM     11  CA  GLU Z   2      33.552  52.674  51.612  1.00 68.69 LIG 0.18  C 
BRANCH 11 12
ATOM     12  CB  GLU Z   2      32.488  51.720  52.154  1.00 66.81 LIG 0.04  C 
BRANCH 12 13
ATOM     13  CG  GLU Z   2      32.391  50.421  51.387  1.00 69.78 LIG 0.12  C 
BRANCH 13 14
ATOM     14  CD  GLU Z   2      31.004  50.171  50.841  1.00 73.92 LIG 0.17  C 
ATOM     15 OE2  GLU Z   2      30.287  49.313  51.399  1.00 73.75 LIG-0.65  OA
ATOM     16 OE1  GLU Z   2      30.635  50.826  49.844  1.00 77.56 LIG-0.65  OA
ENDBRANCH 13 14
ENDBRANCH 12 13
ENDBRANCH 11 12
BRANCH 11 17
ATOM     17  N   GLU Z   2      33.737  53.792  52.527  1.00 66.77 LIG-0.35  N 
ATOM     18 H    GLU Z   2      33.006  54.111  52.849  1.00 66.77 LIG 0.16  HD
ATOM     19  C   ALA Z   1      34.944  54.263  52.824  1.00 62.39 LIG 0.25  C 
ATOM     20 O    ALA Z   1      35.970  53.900  52.246  1.00 53.49 LIG-0.27  OA
BRANCH 19 21
ATOM     21  CA  ALA Z   1      34.993  55.306  53.942  1.00 66.83 LIG 0.27  C 
ATOM     22  CB  ALA Z   1      34.988  56.717  53.369  1.00 68.73 LIG 0.05  C 
BRANCH 21 23
ATOM     23  N   ALA Z   1      36.146  55.106  54.816  1.00 64.95 LIG-0.07  N 
ATOM     24 H3   ALA Z   1      36.885  55.042  54.324  1.00 64.95 LIG 0.28  HD
ATOM     25 H2   ALA Z   1      36.037  54.359  55.287  1.00 64.95 LIG 0.28  HD
ATOM     26 H1   ALA Z   1      36.220  55.797  55.373  1.00 64.95 LIG 0.28  HD
ENDBRANCH 21 23
ENDBRANCH 19 21
ENDBRANCH 11 17
ENDBRANCH 9 11
ENDBRANCH 5 7
ENDBRANCH 1 5
BRANCH 3 27
ATOM     27  CA  ALA Z   4      30.977  49.913  46.154  1.00 62.38 LIG 0.17  C 
ATOM     28  CB  ALA Z   4      29.453  49.861  46.313  1.00 63.33 LIG 0.04  C 
BRANCH 27 29
ATOM     29  C   ALA Z   4      31.381  49.746  44.685  1.00 62.21 LIG 0.24  C 
ATOM     30  N   GLN Z   5      31.506  48.498  44.240  1.00 63.49 LIG-0.35  N 
ATOM     31 H    GLN Z   5      31.430  47.803  44.741  1.00 63.49 LIG 0.16  HD
ATOM     32 O    ALA Z   4      31.585  50.730  43.974  1.00 60.79 LIG-0.27  OA
BRANCH 30 33
ATOM     33  CA  GLN Z   5      31.788  48.197  42.836  1.00 64.68 LIG 0.18  C 
BRANCH 33 34
ATOM     34  CB  GLN Z   5      32.860  47.110  42.721  1.00 64.60 LIG 0.04  C 
BRANCH 34 35
ATOM     35  CG  GLN Z   5      34.071  47.514  41.905  1.00 70.87 LIG 0.10  C 
BRANCH 35 36
ATOM     36  CD  GLN Z   5      33.970  47.058  40.462  1.00 74.77 LIG 0.21  C 
ATOM     37  NE2 GLN Z   5      34.592  47.802  39.556  1.00 75.28 LIG-0.37  N 
ATOM     38 22HE GLN Z   5      34.566  47.581  38.726  1.00 75.28 LIG 0.16  HD
ATOM     39 21HE GLN Z   5      35.020  48.507  39.800  1.00 75.28 LIG 0.16  HD
ATOM     40 OE1  GLN Z   5      33.344  46.040  40.166  1.00 77.42 LIG-0.27  OA
ENDBRANCH 35 36
ENDBRANCH 34 35
ENDBRANCH 33 34
BRANCH 33 41
ATOM     41  C   GLN Z   5      30.529  47.770  42.081  1.00 64.95 LIG 0.24  C 
ATOM     42 O    GLN Z   5      29.676  47.070  42.627  1.00 67.50 LIG-0.27  OA
ATOM     43  N   ALA Z   6      30.426  48.192  40.824  1.00 62.70 LIG-0.35  N 
ATOM     44 H    ALA Z   6      31.022  48.673  40.434  1.00 62.70 LIG 0.16  HD
BRANCH 43 45
ATOM     45  CA  ALA Z   6      29.274  47.870  39.984  1.00 61.33 LIG 0.16  C 
ATOM     46  CB  ALA Z   6      29.461  48.454  38.589  1.00 62.02 LIG 0.04  C 
BRANCH 45 47
ATOM     47  C   ALA Z   6      28.983  46.365  39.907  1.00 59.00 LIG 0.22  C 
ATOM     48 O    ALA Z   6      29.893  45.539  39.800  1.00 53.12 LIG-0.29  OA
ENDBRANCH 45 47
ENDBRANCH 43 45
ENDBRANCH 33 41
ENDBRANCH 30 33
ENDBRANCH 27 29
ENDBRANCH 3 27
TORSDOF 18
