USER: ADFR SOLUTION from run 0
USER: SCORE 12.927389 LL:  -3.751 LR: -12.932 RR:   0.000 FEB:  -5.773
USER: RMSD 1.224444
USER: STATUS Locally minimized using BFGS
USER: GENES 26
USER: genes 0 Translation |==|  0.45981 0.50117 0.39635
USER: genes 1 Rotation |==|  0.49171 0.52704 0.52687 0.99848
USER: genes 2 Torsion [C]-CA--CB-[OG] |==|  0.79421
USER: genes 3 Torsion [CA]-CB--OG-[HG] |==|  0.79127
USER: genes 4 Torsion [N]-CA--C-[N] |==|  0.49890
USER: genes 5 Torsion [C]-N--CA-[C] |==|  0.64865
USER: genes 6 Torsion [N]-CA--C-[N] |==|  0.37402
USER: genes 7 Torsion [C]-N--CA-[CB] |==|  0.38003
USER: genes 8 Torsion [N]-CA--CB-[OG] |==|  0.24354
USER: genes 9 Torsion [CA]-CB--OG-[HG] |==|  0.78400
USER: genes 10 Torsion [N]-CA--C-[N] |==|  0.96761
USER: genes 11 Torsion [C]-N--CA-[C] |==|  0.52078
USER: genes 12 Torsion [N]-CA--C-[O] |==|  0.45715
USER: genes 13 Torsion [N]-CA--CB-[CG2] |==|  0.35999
USER: genes 14 Torsion [CA]-CB--OG1-[HG1] |==|  0.10500
USER: genes 15 Torsion [N]-CA--CB-[OG] |==|  0.55933
USER: genes 16 Torsion [CA]-CB--OG-[HG] |==|  0.19021
USER: genes 17 Torsion [CB]-CA--N-[C] |==|  0.35375
USER: genes 18 Torsion [N]-C--CA-[N] |==|  0.31667
USER: genes 19 Torsion [C]-CA--N-[C] |==|  0.75948
USER: genes 20 Torsion [N]-C--CA-[N] |==|  0.29209
USER: genes 21 Torsion [C]-CA--N-[C] |==|  0.79995
USER: genes 22 Torsion [N]-C--CA-[N] |==|  0.38200
USER: genes 23 Torsion [C]-CA--CB-[CG] |==|  0.47061
USER: genes 24 Torsion [CA]-CB--CG-[OD1] |==|  0.98482
USER: genes 25 Torsion [C]-CA--CB-[CG1] |==|  0.13665
ROOT
ATOM      1  CA  SER D1363     -22.875  21.880 -39.664  1.00 54.34 LIG 0.20  C 
ENDROOT
BRANCH 1 2
ATOM      2  CB  SER D1363     -23.934  21.608 -38.593  1.00 54.70 LIG 0.20  C 
BRANCH 2 3
ATOM      3 OG   SER D1363     -23.347  21.362 -37.327  1.00 55.13 LIG-0.40  OA
ATOM      4 HG   SER D1363     -23.015  20.591 -37.317  1.00 55.13 LIG 0.21  HD
ENDBRANCH 2 3
ENDBRANCH 1 2
BRANCH 1 5
ATOM      5  C   SER D1363     -22.294  23.263 -39.471  1.00 54.23 LIG 0.24  C 
ATOM      6  N   SER D1364     -23.169  24.258 -39.495  1.00 54.98 LIG-0.34  N 
ATOM      7 H    SER D1364     -24.014  24.143 -39.603  1.00 54.98 LIG 0.16  HD
ATOM      8 O    SER D1363     -21.089  23.426 -39.293  1.00 54.73 LIG-0.27  OA
BRANCH 6 9
ATOM      9  CA  SER D1364     -22.778  25.652 -39.340  1.00 55.87 LIG 0.20  C 
BRANCH 9 10
ATOM     10  C   SER D1364     -23.618  26.265 -38.200  1.00 56.37 LIG 0.24  C 
ATOM     11 O    SER D1364     -24.810  26.076 -38.153  1.00 55.91 LIG-0.27  OA
ATOM     12  N   SER D1365     -22.993  27.009 -37.298  1.00 58.29 LIG-0.34  N 
ATOM     13 H    SER D1365     -22.150  27.178 -37.302  1.00 58.29 LIG 0.16  HD
BRANCH 12 14
ATOM     14  CA  SER D1365     -23.737  27.605 -36.206  1.00 60.08 LIG 0.20  C 
BRANCH 14 15
ATOM     15  CB  SER D1365     -22.979  27.458 -34.904  1.00 57.27 LIG 0.20  C 
BRANCH 15 16
ATOM     16 OG   SER D1365     -22.108  28.555 -34.767  1.00 56.70 LIG-0.40  OA
ATOM     17 HG   SER D1365     -21.433  28.439 -35.254  1.00 56.70 LIG 0.21  HD
ENDBRANCH 15 16
ENDBRANCH 14 15
BRANCH 14 18
ATOM     18  C   SER D1365     -23.756  29.067 -36.561  1.00 61.54 LIG 0.24  C 
ATOM     19  N   THR D1366     -22.936  29.395 -37.545  1.00 60.28 LIG-0.34  N 
ATOM     20 H    THR D1366     -22.566  28.839 -38.086  1.00 60.28 LIG 0.16  HD
ATOM     21 O    SER D1365     -24.518  29.859 -36.018  1.00 62.26 LIG-0.27  OA
BRANCH 19 22
ATOM     22  CA  THR D1366     -22.611  30.774 -37.758  1.00 59.76 LIG 0.19  C 
BRANCH 22 23
ATOM     23  C   THR D1366     -21.795  31.035 -39.042  1.00 59.52 LIG 0.22  C 
ATOM     24 O    THR D1366     -21.724  32.223 -39.459  1.00 43.13 LIG-0.29  OA
ENDBRANCH 22 23
BRANCH 22 25
ATOM     25  CB  THR D1366     -21.878  31.081 -36.424  1.00 59.99 LIG 0.14  C 
ATOM     26  CG2 THR D1366     -20.544  31.740 -36.601  1.00 59.85 LIG 0.04  C 
BRANCH 25 27
ATOM     27 OG1  THR D1366     -22.734  31.773 -35.515  1.00 59.97 LIG-0.39  OA
ATOM     28 HG1  THR D1366     -23.515  31.468 -35.579  1.00 59.97 LIG 0.21  HD
ENDBRANCH 25 27
ENDBRANCH 22 25
ENDBRANCH 19 22
ENDBRANCH 14 18
ENDBRANCH 12 14
ENDBRANCH 9 10
BRANCH 9 29
ATOM     29  CB  SER D1364     -23.047  26.401 -40.647  1.00 55.64 LIG 0.20  C 
BRANCH 29 30
ATOM     30 OG   SER D1364     -22.273  27.583 -40.740  1.00 56.44 LIG-0.40  OA
ATOM     31 HG   SER D1364     -21.462  27.381 -40.828  1.00 56.44 LIG 0.21  HD
ENDBRANCH 29 30
ENDBRANCH 9 29
ENDBRANCH 6 9
ENDBRANCH 1 5
BRANCH 1 32
ATOM     32  N   SER D1363     -21.849  20.854 -39.632  1.00 53.98 LIG-0.34  N 
ATOM     33  C   VAL D1362     -21.508  20.189 -40.731  1.00 54.25 LIG 0.24  C 
ATOM     34 O    VAL D1362     -22.024  20.397 -41.829  1.00 54.63 LIG-0.27  OA
ATOM     35 H    SER D1363     -21.496  20.723 -38.859  1.00 53.98 LIG 0.16  HD
BRANCH 33 36
ATOM     36  CA  VAL D1362     -20.429  19.131 -40.567  1.00 53.82 LIG 0.18  C 
BRANCH 36 37
ATOM     37  N   VAL D1362     -21.000  17.818 -40.812  1.00 55.57 LIG-0.35  N 
ATOM     38  C   ASP D1361     -21.591  17.118 -39.852  1.00 57.59 LIG 0.24  C 
ATOM     39 O    ASP D1361     -21.719  17.527 -38.698  1.00 58.12 LIG-0.27  OA
ATOM     40 H    VAL D1362     -20.919  17.543 -41.622  1.00 55.57 LIG 0.16  HD
BRANCH 38 41
ATOM     41  CA  ASP D1361     -22.138  15.766 -40.263  1.00 59.82 LIG 0.19  C 
BRANCH 41 42
ATOM     42  N   ASP D1361     -21.311  14.657 -39.786  1.00 59.55 LIG-0.34  N 
ATOM     43  C   PRO D1360     -20.115  14.385 -40.306  1.00 59.89 LIG 0.25  C 
ATOM     44 O    PRO D1360     -19.600  15.046 -41.211  1.00 59.45 LIG-0.27  OA
ATOM     45 H    ASP D1361     -21.667  14.205 -39.147  1.00 59.55 LIG 0.16  HD
BRANCH 43 46
ATOM     46  CA  PRO D1360     -19.384  13.191 -39.703  1.00 59.77 LIG 0.35  C 
ATOM     47  N   PRO D1360     -18.739  12.348 -40.732  1.00 58.11 LIG 0.32  N 
ATOM     48  CD  PRO D1360     -17.349  12.064 -40.339  1.00 58.92 LIG 0.32  C 
ATOM     49  CG  PRO D1360     -17.326  12.478 -38.846  1.00 60.40 LIG 0.04  C 
ATOM     50  CB  PRO D1360     -18.282  13.649 -38.758  1.00 59.31 LIG 0.05  C 
ENDBRANCH 43 46
ENDBRANCH 41 42
BRANCH 41 51
ATOM     51  CB  ASP D1361     -23.576  15.643 -39.748  1.00 61.63 LIG 0.15  C 
BRANCH 51 52
ATOM     52  CG  ASP D1361     -24.303  14.439 -40.320  1.00 64.71 LIG 0.17  C 
ATOM     53 OD1  ASP D1361     -23.733  13.755 -41.196  1.00 66.40 LIG-0.65  OA
ATOM     54 OD2  ASP D1361     -25.452  14.185 -39.896  1.00 65.87 LIG-0.65  OA
ENDBRANCH 51 52
ENDBRANCH 41 51
ENDBRANCH 38 41
ENDBRANCH 36 37
BRANCH 36 55
ATOM     55  CB  VAL D1362     -19.275  19.419 -41.554  1.00 52.08 LIG 0.01  C 
ATOM     56  CG1 VAL D1362     -18.850  20.878 -41.462  1.00 50.17 LIG 0.01  C 
ATOM     57  CG2 VAL D1362     -18.107  18.500 -41.248  1.00 49.53 LIG 0.01  C 
ENDBRANCH 36 55
ENDBRANCH 33 36
ENDBRANCH 1 32
TORSDOF 24
