REMARK  24 active torsions:
REMARK  status: ('A' for Active; 'I' for Inactive)
REMARK    1  A    between atoms: CA_2  and  C_3 
REMARK       I    between atoms: C_3  and  N_8 
REMARK    2  A    between atoms: N_8  and  CA_9 
REMARK    3  A    between atoms: CA_9  and  CB_12 
REMARK    4  A    between atoms: CA_9  and  C_10 
REMARK       I    between atoms: C_10  and  N_17 
REMARK    5  A    between atoms: CB_12  and  CG_13 
REMARK    6  A    between atoms: N_17  and  CA_18 
REMARK    7  A    between atoms: CA_18  and  C_19 
REMARK    8  A    between atoms: CA_18  and  CB_21 
REMARK       I    between atoms: C_19  and  N_25 
REMARK    9  A    between atoms: N_25  and  CA_26 
REMARK   10  A    between atoms: CA_26  and  CB_29 
REMARK   11  A    between atoms: CA_26  and  C_27 
REMARK       I    between atoms: C_27  and  N_33 
REMARK   12  A    between atoms: CB_29  and  OG_30 
REMARK   13  A    between atoms: N_33  and  CA_34 
REMARK   14  A    between atoms: CA_34  and  C_35 
REMARK   15  A    between atoms: CA_34  and  CB_37 
REMARK       I    between atoms: C_35  and  N_41 
REMARK   16  A    between atoms: CB_37  and  OG_38 
REMARK   17  A    between atoms: N_41  and  CA_42 
REMARK   18  A    between atoms: CA_42  and  CB_45 
REMARK   19  A    between atoms: CA_42  and  C_43 
REMARK       I    between atoms: C_43  and  N_49 
REMARK   20  A    between atoms: CB_45  and  OG_46 
REMARK   21  A    between atoms: N_49  and  CA_50 
REMARK   22  A    between atoms: CA_50  and  C_51 
REMARK   23  A    between atoms: CA_50  and  CB_53 
REMARK   24  A    between atoms: CB_53  and  OG1_54 
ROOT
ATOM      1  CA  SER D1363     -23.316  22.089 -39.703  1.00 54.34     0.200 C 
ENDROOT
BRANCH   1   2
ATOM      2  CB  SER D1363     -24.509  21.905 -38.762  1.00 54.70     0.199 C 
BRANCH   2   3
ATOM      3  OG  SER D1363     -24.091  21.672 -37.428  1.00 55.13    -0.398 OA
ATOM      4  HG  SER D1363     -23.989  20.847 -37.306  1.00 55.13     0.209 HD
ENDBRANCH   2   3
ENDBRANCH   1   2
BRANCH   1   5
ATOM      5  C   SER D1363     -22.617  23.394 -39.396  1.00 54.23     0.243 C 
ATOM      6  N   SER D1364     -23.404  24.457 -39.315  1.00 54.98    -0.344 N 
ATOM      7  H   SER D1364     -24.257  24.424 -39.418  1.00 54.98     0.163 HD
ATOM      8  O   SER D1363     -21.401  23.438 -39.225  1.00 54.73    -0.271 OA
BRANCH   6   9
ATOM      9  CA  SER D1364     -22.894  25.793 -39.041  1.00 55.87     0.200 C 
BRANCH   9  10
ATOM     10  C   SER D1364     -23.783  26.437 -37.957  1.00 56.37     0.243 C 
ATOM     11  O   SER D1364     -24.986  26.350 -38.025  1.00 55.91    -0.271 OA
ATOM     12  N   SER D1365     -23.186  27.093 -36.972  1.00 58.29    -0.344 N 
ATOM     13  H   SER D1365     -22.335  27.189 -36.892  1.00 58.29     0.163 HD
BRANCH  12  14
ATOM     14  CA  SER D1365     -23.977  27.713 -35.927  1.00 60.08     0.200 C 
BRANCH  14  15
ATOM     15  CB  SER D1365     -23.169  27.840 -34.653  1.00 57.27     0.199 C 
BRANCH  15  16
ATOM     16  OG  SER D1365     -22.429  29.036 -34.710  1.00 56.70    -0.398 OA
ATOM     17  HG  SER D1365     -21.706  28.899 -35.115  1.00 56.70     0.209 HD
ENDBRANCH  15  16
ENDBRANCH  14  15
BRANCH  14  18
ATOM     18  C   SER D1365     -24.217  29.101 -36.456  1.00 61.54     0.243 C 
ATOM     19  N   THR D1366     -24.143  29.198 -37.772  1.00 60.28    -0.345 N 
ATOM     20  H   THR D1366     -24.161  28.535 -38.319  1.00 60.28     0.163 HD
ATOM     21  O   SER D1365     -24.516  30.035 -35.720  1.00 62.26    -0.271 OA
BRANCH  19  22
ATOM     22  CA  THR D1366     -24.022  30.492 -38.375  1.00 59.76     0.190 C 
BRANCH  22  23
ATOM     23  C   THR D1366     -24.467  30.540 -39.852  1.00 59.52     0.222 C 
ATOM     24  O   THR D1366     -23.899  31.375 -40.608  1.00 43.13    -0.287 OA
ENDBRANCH  22  23
BRANCH  22  25
ATOM     25  CB  THR D1366     -22.513  30.760 -38.121  1.00 59.99     0.144 C 
ATOM     26  CG2 THR D1366     -21.751  31.157 -39.349  1.00 59.85     0.042 C 
BRANCH  25  27
ATOM     27  OG1 THR D1366     -22.329  31.658 -37.026  1.00 59.97    -0.393 OA
ATOM     28  HG1 THR D1366     -22.888  31.483 -36.423  1.00 59.97     0.210 HD
ENDBRANCH  25  27
ENDBRANCH  22  25
ENDBRANCH  19  22
ENDBRANCH  14  18
ENDBRANCH  12  14
ENDBRANCH   9  10
BRANCH   9  29
ATOM     29  CB  SER D1364     -22.948  26.628 -40.323  1.00 55.64     0.199 C 
BRANCH  29  30
ATOM     30  OG  SER D1364     -22.414  27.924 -40.125  1.00 56.44    -0.398 OA
ATOM     31  HG  SER D1364     -21.576  27.880 -40.089  1.00 56.44     0.209 HD
ENDBRANCH  29  30
ENDBRANCH   9  29
ENDBRANCH   6   9
ENDBRANCH   1   5
BRANCH   1  32
ATOM     32  N   SER D1363     -22.413  20.956 -39.603  1.00 53.98    -0.344 N 
ATOM     33  C   VAL D1362     -22.366  20.029 -40.553  1.00 54.25     0.241 C 
ATOM     34  O   VAL D1362     -23.065  20.069 -41.565  1.00 54.63    -0.271 OA
ATOM     35  H   SER D1363     -21.929  20.945 -38.892  1.00 53.98     0.163 HD
BRANCH  33  36
ATOM     36  CA  VAL D1362     -21.389  18.887 -40.328  1.00 53.82     0.180 C 
BRANCH  36  37
ATOM     37  N   VAL D1362     -22.094  17.621 -40.430  1.00 55.57    -0.346 N 
ATOM     38  C   ASP D1361     -22.289  16.838 -39.377  1.00 57.59     0.241 C 
ATOM     39  O   ASP D1361     -21.911  17.125 -38.241  1.00 58.12    -0.271 OA
ATOM     40  H   VAL D1362     -22.367  17.432 -41.223  1.00 55.57     0.163 HD
BRANCH  38  41
ATOM     41  CA  ASP D1361     -23.043  15.551 -39.644  1.00 59.82     0.186 C 
BRANCH  41  42
ATOM     42  N   ASP D1361     -22.181  14.371 -39.576  1.00 59.55    -0.345 N 
ATOM     43  C   PRO D1360     -21.191  14.161 -40.443  1.00 59.89     0.254 C 
ATOM     44  O   PRO D1360     -20.909  14.941 -41.355  1.00 59.45    -0.271 OA
ATOM     45  H   ASP D1361     -22.372  13.834 -38.932  1.00 59.55     0.163 HD
BRANCH  43  46
ATOM     46  CA  PRO D1360     -20.391  12.879 -40.241  1.00 59.77     0.352 C 
ATOM     47  N   PRO D1360     -19.602  12.514 -41.436  1.00 58.11     0.318 N 
ATOM     48  CD  PRO D1360     -18.220  12.197 -41.039  1.00 58.92     0.315 C 
ATOM     49  CG  PRO D1360     -18.336  12.038 -39.502  1.00 60.40     0.035 C 
ATOM     50  CB  PRO D1360     -19.403  13.031 -39.093  1.00 59.31     0.050 C 
ENDBRANCH  43  46
ENDBRANCH  41  42
BRANCH  41  51
ATOM     51  CB  ASP D1361     -24.200  15.446 -38.644  1.00 61.63     0.147 C 
BRANCH  51  52
ATOM     52  CG  ASP D1361     -25.267  14.459 -39.083  1.00 64.71     0.175 C 
ATOM     53  OD1 ASP D1361     -25.173  13.939 -40.215  1.00 66.40    -0.648 OA
ATOM     54  OD2 ASP D1361     -26.205  14.212 -38.294  1.00 65.87    -0.648 OA
ENDBRANCH  51  52
ENDBRANCH  41  51
ENDBRANCH  38  41
ENDBRANCH  36  37
BRANCH  36  55
ATOM     55  CB  VAL D1362     -20.255  18.968 -41.375  1.00 52.08     0.009 C 
ATOM     56  CG1 VAL D1362     -19.591  20.338 -41.333  1.00 50.17     0.012 C 
ATOM     57  CG2 VAL D1362     -19.240  17.873 -41.108  1.00 49.53     0.012 C 
ENDBRANCH  36  55
ENDBRANCH  33  36
ENDBRANCH   1  32
TORSDOF 24
