USER: ADFR SOLUTION from run 0
USER: SCORE 21.307029 LL:  -6.100 LR: -17.675 RR:   0.000 FEB:  -7.831
USER: RMSD 1.023091
USER: STATUS Locally minimized using BFGS
USER: GENES 35
USER: genes 0 Translation |==|  0.54352 0.42284 0.52774
USER: genes 1 Rotation |==|  0.49559 0.51484 0.45526 0.99775
USER: genes 2 Torsion [C]-CA--N-[C] |==|  0.62708
USER: genes 3 Torsion [N]-C--CA-[N] |==|  0.40283
USER: genes 4 Torsion [C]-CA--N-[C] |==|  0.79257
USER: genes 5 Torsion [N]-C--CA-[N] |==|  0.43948
USER: genes 6 Torsion [C]-CA--N-[C] |==|  0.63847
USER: genes 7 Torsion [N]-C--CA-[N] |==|  0.89165
USER: genes 8 Torsion [C]-CA--CB-[CG2] |==|  0.21276
USER: genes 9 Torsion [CA]-CB--OG1-[HG1] |==|  0.04580
USER: genes 10 Torsion [C]-CA--CB-[CG] |==|  0.51303
USER: genes 11 Torsion [CA]-CB--CG-[CD1] |==|  0.78049
USER: genes 12 Torsion [CE2]-CZ--OH-[HH] |==|  0.58607
USER: genes 13 Torsion [C]-CA--CB-[CG] |==|  0.24388
USER: genes 14 Torsion [CA]-CB--CG-[CD] |==|  0.48139
USER: genes 15 Torsion [CB]-CG--CD-[CE] |==|  0.55548
USER: genes 16 Torsion [CG]-CD--CE-[NZ] |==|  0.46101
USER: genes 17 Torsion [CD]-CE--NZ-[HZ2] |==|  0.83048
USER: genes 18 Torsion [N]-CA--C-[N] |==|  0.43912
USER: genes 19 Torsion [C]-N--CA-[CB] |==|  0.25545
USER: genes 20 Torsion [N]-CA--C-[N] |==|  0.44407
USER: genes 21 Torsion [C]-N--CA-[CB] |==|  0.39985
USER: genes 22 Torsion [N]-CA--CB-[CG] |==|  0.84580
USER: genes 23 Torsion [CA]-CB--CG-[CD] |==|  0.82420
USER: genes 24 Torsion [CB]-CG--CD-[OE2] |==|  0.39049
USER: genes 25 Torsion [N]-CA--C-[N] |==|  0.93405
USER: genes 26 Torsion [C]-N--CA-[C] |==|  0.53821
USER: genes 27 Torsion [N]-CA--C-[OXT] |==|  0.96393
USER: genes 28 Torsion [N]-CA--CB-[CG] |==|  0.14417
USER: genes 29 Torsion [CA]-CB--CG-[CD] |==|  0.50611
USER: genes 30 Torsion [CB]-CG--CD-[OE1] |==|  0.88559
USER: genes 31 Torsion [N]-CA--CB-[CG] |==|  0.14635
USER: genes 32 Torsion [CA]-CB--CG-[CD2] |==|  0.71606
USER: genes 33 Torsion [N]-CA--CB-[CG] |==|  0.75318
USER: genes 34 Torsion [CA]-CB--CG-[CD1] |==|  0.23637
ROOT
ATOM      1  CA  PHE B 689     -23.842   5.305  27.183  1.00 23.75 LIG 0.18  C 
ENDROOT
BRANCH 1 2
ATOM      2  N   PHE B 689     -23.018   6.148  28.070  1.00 25.36 LIG-0.35  N 
ATOM      3 H    PHE B 689     -23.206   6.986  28.027  1.00 25.36 LIG 0.16  HD
ATOM      4  C   LYS B 688     -22.074   5.649  28.861  1.00 27.14 LIG 0.24  C 
ATOM      5 O    LYS B 688     -21.789   4.459  28.898  1.00 24.82 LIG-0.27  OA
BRANCH 4 6
ATOM      6  CA  LYS B 688     -21.314   6.642  29.734  1.00 29.11 LIG 0.18  C 
BRANCH 6 7
ATOM      7  N   LYS B 688     -20.982   6.023  31.025  1.00 31.24 LIG-0.35  N 
ATOM      8  C   TYR B 687     -21.903   5.833  31.968  1.00 34.73 LIG 0.24  C 
ATOM      9 O    TYR B 687     -23.087   6.181  31.839  1.00 34.89 LIG-0.27  OA
ATOM     10 H    LYS B 688     -20.156   5.800  31.110  1.00 31.24 LIG 0.16  HD
BRANCH 8 11
ATOM     11  CA  TYR B 687     -21.443   5.132  33.238  1.00 37.40 LIG 0.18  C 
BRANCH 11 12
ATOM     12  N   TYR B 687     -22.300   5.393  34.388  1.00 39.68 LIG-0.34  N 
ATOM     13 H    TYR B 687     -23.139   5.273  34.239  1.00 39.68 LIG 0.16  HD
ATOM     14  C   THR B 686     -21.800   5.784  35.559  1.00 41.22 LIG 0.26  C 
ATOM     15 O    THR B 686     -20.631   6.151  35.708  1.00 41.89 LIG-0.27  OA
BRANCH 14 16
ATOM     16  CA  THR B 686     -22.757   5.752  36.753  1.00 42.81 LIG 0.43  C 
ATOM     17  N   THR B 686     -24.143   6.197  36.391  1.00 43.04 LIG 0.62  N 
BRANCH 16 18
ATOM     18  CB  THR B 686     -22.715   4.297  37.316  1.00 43.12 LIG 0.16  C 
ATOM     19  CG2 THR B 686     -21.419   4.051  38.140  1.00 43.85 LIG 0.04  C 
BRANCH 18 20
ATOM     20 OG1  THR B 686     -23.874   4.028  38.112  1.00 44.58 LIG-0.39  OA
ATOM     21 HG1  THR B 686     -24.463   4.604  37.952  1.00 44.58 LIG 0.21  HD
ENDBRANCH 18 20
ENDBRANCH 16 18
ENDBRANCH 14 16
ENDBRANCH 11 12
BRANCH 11 22
ATOM     22  CB  TYR B 687     -21.386   3.633  32.984  1.00 38.54 LIG 0.07  C 
BRANCH 22 23
ATOM     23  CG  TYR B 687     -21.050   2.800  34.190  1.00 40.36 LIG-0.06  A 
ATOM     24  CD2 TYR B 687     -22.054   2.114  34.884  1.00 43.44 LIG 0.01  A 
ATOM     25  CE2 TYR B 687     -21.748   1.326  35.997  1.00 43.74 LIG 0.04  A 
ATOM     26  CZ  TYR B 687     -20.424   1.231  36.411  1.00 42.51 LIG 0.07  A 
ATOM     27  CE1 TYR B 687     -19.414   1.905  35.731  1.00 41.41 LIG 0.04  A 
ATOM     28  CD1 TYR B 687     -19.734   2.680  34.632  1.00 40.86 LIG 0.01  A 
BRANCH 26 29
ATOM     29 OH   TYR B 687     -20.124   0.453  37.503  1.00 42.23 LIG-0.36  OA
ATOM     30 HH   TYR B 687     -19.459   0.775  37.903  1.00 42.23 LIG 0.22  HD
ENDBRANCH 26 29
ENDBRANCH 22 23
ENDBRANCH 11 22
ENDBRANCH 8 11
ENDBRANCH 6 7
BRANCH 6 31
ATOM     31  CB  LYS B 688     -20.029   7.066  29.036  1.00 31.14 LIG 0.04  C 
BRANCH 31 32
ATOM     32  CG  LYS B 688     -20.173   8.237  28.116  1.00 35.59 LIG 0.00  C 
BRANCH 32 33
ATOM     33  CD  LYS B 688     -18.829   8.711  27.579  1.00 43.16 LIG 0.03  C 
BRANCH 33 34
ATOM     34  CE  LYS B 688     -18.928  10.156  27.065  1.00 45.87 LIG 0.23  C 
BRANCH 34 35
ATOM     35  NZ  LYS B 688     -17.566  10.782  26.840  1.00 48.40 LIG-0.08  N 
ATOM     36 HZ2  LYS B 688     -17.120  10.807  27.610  1.00 48.40 LIG 0.27  HD
ATOM     37 HZ3  LYS B 688     -17.110  10.298  26.250  1.00 48.40 LIG 0.27  HD
ATOM     38 HZ1  LYS B 688     -17.667  11.610  26.530  1.00 48.40 LIG 0.27  HD
ENDBRANCH 34 35
ENDBRANCH 33 34
ENDBRANCH 32 33
ENDBRANCH 31 32
ENDBRANCH 6 31
ENDBRANCH 4 6
ENDBRANCH 1 2
BRANCH 1 39
ATOM     39  C   PHE B 689     -23.954   5.901  25.787  1.00 24.45 LIG 0.24  C 
ATOM     40  N   PHE B 690     -24.264   5.072  24.809  1.00 21.51 LIG-0.35  N 
ATOM     41 H    PHE B 690     -24.315   4.218  24.897  1.00 21.51 LIG 0.16  HD
ATOM     42 O    PHE B 689     -23.748   7.104  25.587  1.00 26.25 LIG-0.27  OA
BRANCH 40 43
ATOM     43  CA  PHE B 690     -24.550   5.560  23.464  1.00 22.61 LIG 0.18  C 
BRANCH 43 44
ATOM     44  C   PHE B 690     -25.585   4.657  22.844  1.00 22.66 LIG 0.24  C 
ATOM     45 O    PHE B 690     -25.762   3.543  23.281  1.00 22.36 LIG-0.27  OA
ATOM     46  N   GLU B 691     -26.261   5.166  21.818  1.00 25.08 LIG-0.35  N 
ATOM     47 H    GLU B 691     -26.138   5.962  21.520  1.00 25.08 LIG 0.16  HD
BRANCH 46 48
ATOM     48  CA  GLU B 691     -27.284   4.418  21.095  1.00 27.99 LIG 0.18  C 
BRANCH 48 49
ATOM     49  CB  GLU B 691     -28.414   5.358  20.676  1.00 28.84 LIG 0.04  C 
BRANCH 49 50
ATOM     50  CG  GLU B 691     -29.012   6.114  21.866  1.00 33.53 LIG 0.12  C 
BRANCH 50 51
ATOM     51  CD  GLU B 691     -29.679   5.195  22.897  1.00 40.22 LIG 0.17  C 
ATOM     52 OE1  GLU B 691     -30.354   4.210  22.501  1.00 42.38 LIG-0.65  OA
ATOM     53 OE2  GLU B 691     -29.524   5.470  24.117  1.00 45.19 LIG-0.65  OA
ENDBRANCH 50 51
ENDBRANCH 49 50
ENDBRANCH 48 49
BRANCH 48 54
ATOM     54  C   GLU B 691     -26.746   3.670  19.883  1.00 29.69 LIG 0.24  C 
ATOM     55 O    GLU B 691     -27.339   2.669  19.440  1.00 29.49 LIG-0.27  OA
ATOM     56  N   GLN B 692     -25.625   4.141  19.353  1.00 30.92 LIG-0.34  N 
ATOM     57 H    GLN B 692     -25.219   4.854  19.613  1.00 30.92 LIG 0.16  HD
BRANCH 56 58
ATOM     58  CA  GLN B 692     -24.992   3.430  18.240  1.00 33.57 LIG 0.19  C 
BRANCH 58 59
ATOM     59  C   GLN B 692     -23.576   3.926  18.007  1.00 34.50 LIG 0.20  C 
ATOM     60 O    GLN B 692     -22.816   3.299  17.250  1.00 34.98 LIG-0.65  OA
ATOM     61 OXT  GLN B 692     -23.191   4.979  18.554  1.00 35.71 LIG-0.65  OA
ENDBRANCH 58 59
BRANCH 58 62
ATOM     62  CB  GLN B 692     -25.836   3.597  16.960  1.00 33.00 LIG 0.04  C 
BRANCH 62 63
ATOM     63  CG  GLN B 692     -26.179   5.051  16.623  0.80 34.02 LIG 0.10  C 
BRANCH 63 64
ATOM     64  CD  GLN B 692     -27.055   5.203  15.391  0.80 34.38 LIG 0.21  C 
ATOM     65  NE2 GLN B 692     -28.018   6.125  15.459  0.80 37.28 LIG-0.37  N 
ATOM     66 21HE GLN B 692     -28.124   6.584  16.178  0.80 37.28 LIG 0.16  HD
ATOM     67 22HE GLN B 692     -28.532   6.260  14.782  0.80 37.28 LIG 0.16  HD
ATOM     68 OE1  GLN B 692     -26.860   4.519  14.386  0.80 37.51 LIG-0.27  OA
ENDBRANCH 63 64
ENDBRANCH 62 63
ENDBRANCH 58 62
ENDBRANCH 56 58
ENDBRANCH 48 54
ENDBRANCH 46 48
ENDBRANCH 43 44
BRANCH 43 69
ATOM     69  CB  PHE B 690     -23.279   5.583  22.594  1.00 21.72 LIG 0.07  C 
BRANCH 69 70
ATOM     70  CG  PHE B 690     -22.522   4.274  22.553  1.00 20.05 LIG-0.06  A 
ATOM     71  CD2 PHE B 690     -21.374   4.108  23.306  1.00 19.86 LIG 0.01  A 
ATOM     72  CE2 PHE B 690     -20.642   2.907  23.287  1.00 20.22 LIG 0.00  A 
ATOM     73  CZ  PHE B 690     -21.064   1.887  22.439  1.00 19.78 LIG 0.00  A 
ATOM     74  CE1 PHE B 690     -22.192   2.043  21.688  1.00 19.59 LIG 0.00  A 
ATOM     75  CD1 PHE B 690     -22.920   3.252  21.713  1.00 20.29 LIG 0.01  A 
ENDBRANCH 69 70
ENDBRANCH 43 69
ENDBRANCH 40 43
ENDBRANCH 1 39
BRANCH 1 76
ATOM     76  CB  PHE B 689     -25.246   5.075  27.760  1.00 23.35 LIG 0.07  C 
BRANCH 76 77
ATOM     77  CG  PHE B 689     -25.320   3.892  28.639  1.00 24.01 LIG-0.06  A 
ATOM     78  CD2 PHE B 689     -25.716   2.651  28.136  1.00 25.22 LIG 0.01  A 
ATOM     79  CE2 PHE B 689     -25.747   1.515  28.960  1.00 25.32 LIG 0.00  A 
ATOM     80  CZ  PHE B 689     -25.431   1.635  30.323  1.00 27.81 LIG 0.00  A 
ATOM     81  CE1 PHE B 689     -25.045   2.873  30.841  1.00 24.81 LIG 0.00  A 
ATOM     82  CD1 PHE B 689     -24.977   3.996  29.995  1.00 27.61 LIG 0.01  A 
ENDBRANCH 76 77
ENDBRANCH 1 76
TORSDOF 33
