REMARK WARNING: 32 MAX_TORS EXCEEDED!!!
REMARK  33 active torsions:
REMARK  status: ('A' for Active; 'I' for Inactive)
REMARK    1  A    between atoms: CA_2  and  CB_5 
REMARK    2  A    between atoms: CA_2  and  C_3 
REMARK       I    between atoms: C_3  and  N_9 
REMARK    3  A    between atoms: CB_5  and  OG1_6 
REMARK    4  A    between atoms: N_9  and  CA_10 
REMARK    5  A    between atoms: CA_10  and  C_11 
REMARK    6  A    between atoms: CA_10  and  CB_13 
REMARK       I    between atoms: C_11  and  N_23 
REMARK    7  A    between atoms: CB_13  and  CG_14 
REMARK    8  A    between atoms: CZ_19  and  OH_20 
REMARK    9  A    between atoms: N_23  and  CA_24 
REMARK   10  A    between atoms: CA_24  and  C_25 
REMARK   11  A    between atoms: CA_24  and  CB_27 
REMARK       I    between atoms: C_25  and  N_36 
REMARK   12  A    between atoms: CB_27  and  CG_28 
REMARK   13  A    between atoms: CG_28  and  CD_29 
REMARK   14  A    between atoms: CD_29  and  CE_30 
REMARK   15  A    between atoms: CE_30  and  NZ_31 
REMARK   16  A    between atoms: N_36  and  CA_37 
REMARK   17  A    between atoms: CA_37  and  C_38 
REMARK   18  A    between atoms: CA_37  and  CB_40 
REMARK       I    between atoms: C_38  and  N_48 
REMARK   19  A    between atoms: CB_40  and  CG_41 
REMARK   20  A    between atoms: N_48  and  CA_49 
REMARK   21  A    between atoms: CA_49  and  C_50 
REMARK   22  A    between atoms: CA_49  and  CB_52 
REMARK       I    between atoms: C_50  and  N_60 
REMARK   23  A    between atoms: CB_52  and  CG_53 
REMARK   24  A    between atoms: N_60  and  CA_61 
REMARK   25  A    between atoms: CA_61  and  CB_64 
REMARK   26  A    between atoms: CA_61  and  C_62 
REMARK       I    between atoms: C_62  and  N_70 
REMARK   27  A    between atoms: CB_64  and  CG_65 
REMARK   28  A    between atoms: CG_65  and  CD_66 
REMARK   29  A    between atoms: N_70  and  CA_71 
REMARK   30  A    between atoms: CA_71  and  C_72 
REMARK   31  A    between atoms: CA_71  and  CB_74 
REMARK   32  A    between atoms: CB_74  and  CG_75 
REMARK   33  A    between atoms: CG_75  and  CD_76 
REMARK       I    between atoms: CD_76  and  NE2_78 
ROOT
ATOM      1  CA  PHE B 689     -24.279   5.532  26.958  1.00 23.75     0.180 C 
ENDROOT
BRANCH   1   2
ATOM      2  N   PHE B 689     -23.671   6.487  27.904  1.00 25.36    -0.346 N 
ATOM      3  H   PHE B 689     -24.119   7.215  28.000  1.00 25.36     0.163 HD
ATOM      4  C   LYS B 688     -22.534   6.238  28.546  1.00 27.14     0.241 C 
ATOM      5  O   LYS B 688     -21.883   5.214  28.384  1.00 24.82    -0.271 OA
BRANCH   4   6
ATOM      6  CA  LYS B 688     -22.036   7.314  29.504  1.00 29.11     0.176 C 
BRANCH   6   7
ATOM      7  N   LYS B 688     -21.576   6.696  30.756  1.00 31.24    -0.346 N 
ATOM      8  C   TYR B 687     -22.383   6.555  31.806  1.00 34.73     0.241 C 
ATOM      9  O   TYR B 687     -23.559   6.950  31.814  1.00 34.89    -0.271 OA
ATOM     10  H   LYS B 688     -20.755   6.441  30.745  1.00 31.24     0.163 HD
BRANCH   8  11
ATOM     11  CA  TYR B 687     -21.801   5.850  33.022  1.00 37.40     0.180 C 
BRANCH  11  12
ATOM     12  N   TYR B 687     -22.365   6.312  34.285  1.00 39.68    -0.345 N 
ATOM     13  H   TYR B 687     -23.195   6.116  34.396  1.00 39.68     0.163 HD
ATOM     14  C   THR B 686     -21.632   6.980  35.175  1.00 41.22     0.260 C 
ATOM     15  O   THR B 686     -20.513   7.435  34.926  1.00 41.89    -0.271 OA
BRANCH  14  16
ATOM     16  CA  THR B 686     -22.248   7.161  36.565  1.00 42.81     0.427 C 
ATOM     17  N   THR B 686     -23.748   7.143  36.536  1.00 43.04     0.618 N 
BRANCH  16  18
ATOM     18  CB  THR B 686     -21.645   6.039  37.466  1.00 43.12     0.162 C 
ATOM     19  CG2 THR B 686     -20.336   6.517  38.157  1.00 43.85     0.042 C 
BRANCH  18  20
ATOM     20  OG1 THR B 686     -22.598   5.606  38.442  1.00 44.58    -0.393 OA
ATOM     21  HG1 THR B 686     -23.365   5.865  38.219  1.00 44.58     0.210 HD
ENDBRANCH  18  20
ENDBRANCH  16  18
ENDBRANCH  14  16
ENDBRANCH  11  12
BRANCH  11  22
ATOM     22  CB  TYR B 687     -22.034   4.353  32.886  1.00 38.54     0.073 C 
BRANCH  22  23
ATOM     23  CG  TYR B 687     -21.482   3.522  34.012  1.00 40.36    -0.056 A 
ATOM     24  CD2 TYR B 687     -22.335   2.971  34.975  1.00 43.44     0.010 A 
ATOM     25  CE2 TYR B 687     -21.831   2.186  36.016  1.00 43.74     0.037 A 
ATOM     26  CZ  TYR B 687     -20.461   1.957  36.084  1.00 42.51     0.065 A 
ATOM     27  CE1 TYR B 687     -19.600   2.497  35.133  1.00 41.41     0.037 A 
ATOM     28  CD1 TYR B 687     -20.115   3.271  34.110  1.00 40.86     0.010 A 
BRANCH  26  29
ATOM     29  OH  TYR B 687     -19.967   1.182  37.106  1.00 42.23    -0.361 OA
ATOM     30  HH  TYR B 687     -19.183   1.423  37.287  1.00 42.23     0.217 HD
ENDBRANCH  26  29
ENDBRANCH  22  23
ENDBRANCH  11  22
ENDBRANCH   8  11
ENDBRANCH   6   7
BRANCH   6  31
ATOM     31  CB  LYS B 688     -20.883   8.079  28.869  1.00 31.14     0.035 C 
BRANCH  31  32
ATOM     32  CG  LYS B 688     -21.213   8.744  27.570  1.00 35.59     0.004 C 
BRANCH  32  33
ATOM     33  CD  LYS B 688     -20.194   9.813  27.200  1.00 43.16     0.027 C 
BRANCH  33  34
ATOM     34  CE  LYS B 688     -20.721  10.695  26.056  1.00 45.87     0.229 C 
BRANCH  34  35
ATOM     35  NZ  LYS B 688     -19.903  11.958  25.878  1.00 48.40    -0.079 N 
ATOM     36  HZ2 LYS B 688     -19.928  12.436  26.628  1.00 48.40     0.274 HD
ATOM     37  HZ3 LYS B 688     -19.060  11.742  25.693  1.00 48.40     0.274 HD
ATOM     38  HZ1 LYS B 688     -20.240  12.438  25.209  1.00 48.40     0.274 HD
ENDBRANCH  34  35
ENDBRANCH  33  34
ENDBRANCH  32  33
ENDBRANCH  31  32
ENDBRANCH   6  31
ENDBRANCH   4   6
ENDBRANCH   1   2
BRANCH   1  39
ATOM     39  C   PHE B 689     -24.415   6.130  25.566  1.00 24.45     0.241 C 
ATOM     40  N   PHE B 690     -24.441   5.284  24.554  1.00 21.51    -0.346 N 
ATOM     41  H   PHE B 690     -24.297   4.439  24.627  1.00 21.51     0.163 HD
ATOM     42  O   PHE B 689     -24.482   7.354  25.399  1.00 26.25    -0.271 OA
BRANCH  40  43
ATOM     43  CA  PHE B 690     -24.725   5.735  23.196  1.00 22.61     0.180 C 
BRANCH  43  44
ATOM     44  C   PHE B 690     -25.776   4.829  22.607  1.00 22.66     0.241 C 
ATOM     45  O   PHE B 690     -25.976   3.737  23.086  1.00 22.36    -0.271 OA
ATOM     46  N   GLU B 691     -26.438   5.311  21.560  1.00 25.08    -0.346 N 
ATOM     47  H   GLU B 691     -26.298   6.093  21.232  1.00 25.08     0.163 HD
BRANCH  46  48
ATOM     48  CA  GLU B 691     -27.473   4.556  20.862  1.00 27.99     0.177 C 
BRANCH  48  49
ATOM     49  CB  GLU B 691     -28.617   5.490  20.466  1.00 28.84     0.045 C 
BRANCH  49  50
ATOM     50  CG  GLU B 691     -29.213   6.222  21.672  1.00 33.53     0.116 C 
BRANCH  50  51
ATOM     51  CD  GLU B 691     -29.749   5.275  22.754  1.00 40.22     0.172 C 
ATOM     52  OE1 GLU B 691     -30.322   4.209  22.412  1.00 42.38    -0.648 OA
ATOM     53  OE2 GLU B 691     -29.594   5.611  23.958  1.00 45.19    -0.648 OA
ENDBRANCH  50  51
ENDBRANCH  49  50
ENDBRANCH  48  49
BRANCH  48  54
ATOM     54  C   GLU B 691     -26.959   3.808  19.640  1.00 29.69     0.241 C 
ATOM     55  O   GLU B 691     -27.576   2.823  19.192  1.00 29.49    -0.271 OA
ATOM     56  N   GLN B 692     -25.832   4.260  19.106  1.00 30.92    -0.345 N 
ATOM     57  H   GLN B 692     -25.410   4.962  19.369  1.00 30.92     0.163 HD
BRANCH  56  58
ATOM     58  CA  GLN B 692     -25.221   3.546  17.983  1.00 33.57     0.186 C 
BRANCH  58  59
ATOM     59  C   GLN B 692     -23.713   3.723  17.975  1.00 34.50     0.196 C 
ATOM     60  O   GLN B 692     -22.990   2.855  17.457  1.00 34.98    -0.646 OA
ATOM     61  OXT GLN B 692     -23.209   4.754  18.463  1.00 35.71    -0.646 OA
ENDBRANCH  58  59
BRANCH  58  62
ATOM     62  CB  GLN B 692     -25.826   4.041  16.653  1.00 33.00     0.045 C 
BRANCH  62  63
ATOM     63  CG  GLN B 692     -25.736   5.556  16.451  0.80 34.02     0.105 C 
BRANCH  63  64
ATOM     64  CD  GLN B 692     -26.325   6.034  15.135  0.80 34.38     0.215 C 
ATOM     65  NE2 GLN B 692     -27.028   7.168  15.177  0.80 37.28    -0.370 N 
ATOM     66 1HE2 GLN B 692     -27.138   7.578  15.925  0.80 37.28     0.159 HD
ATOM     67 2HE2 GLN B 692     -27.370   7.489  14.456  0.80 37.28     0.159 HD
ATOM     68  OE1 GLN B 692     -26.137   5.408  14.092  0.80 37.51    -0.274 OA
ENDBRANCH  63  64
ENDBRANCH  62  63
ENDBRANCH  58  62
ENDBRANCH  56  58
ENDBRANCH  48  54
ENDBRANCH  46  48
ENDBRANCH  43  44
BRANCH  43  69
ATOM     69  CB  PHE B 690     -23.457   5.712  22.322  1.00 21.72     0.073 C 
BRANCH  69  70
ATOM     70  CG  PHE B 690     -22.713   4.395  22.328  1.00 20.05    -0.056 A 
ATOM     71  CD2 PHE B 690     -21.620   4.215  23.156  1.00 19.86     0.007 A 
ATOM     72  CE2 PHE B 690     -20.902   3.006  23.183  1.00 20.22     0.001 A 
ATOM     73  CZ  PHE B 690     -21.277   1.992  22.305  1.00 19.78     0.000 A 
ATOM     74  CE1 PHE B 690     -22.350   2.162  21.480  1.00 19.59     0.001 A 
ATOM     75  CD1 PHE B 690     -23.065   3.379  21.460  1.00 20.29     0.007 A 
ENDBRANCH  69  70
ENDBRANCH  43  69
ENDBRANCH  40  43
ENDBRANCH   1  39
BRANCH   1  76
ATOM     76  CB  PHE B 689     -25.650   5.043  27.446  1.00 23.35     0.073 C 
BRANCH  76  77
ATOM     77  CG  PHE B 689     -25.572   4.269  28.701  1.00 24.01    -0.056 A 
ATOM     78  CD2 PHE B 689     -25.421   2.881  28.676  1.00 25.22     0.007 A 
ATOM     79  CE2 PHE B 689     -25.305   2.147  29.867  1.00 25.32     0.001 A 
ATOM     80  CZ  PHE B 689     -25.397   2.807  31.103  1.00 27.81     0.000 A 
ATOM     81  CE1 PHE B 689     -25.559   4.193  31.141  1.00 24.81     0.001 A 
ATOM     82  CD1 PHE B 689     -25.633   4.923  29.940  1.00 27.61     0.007 A 
ENDBRANCH  76  77
ENDBRANCH   1  76
TORSDOF 33
