USER: ADFR SOLUTION from run 0
USER: SCORE 11.259904 LL:  -3.483 LR: -11.638 RR:   0.000 FEB:  -5.374
USER: RMSD 0.687133
USER: STATUS Locally minimized using BFGS
USER: GENES 23
USER: genes 0 Translation |==|  0.47524 0.38514 0.53301
USER: genes 1 Rotation |==|  0.50828 0.50535 0.49458 0.99987
USER: genes 2 Torsion [C]-CA--CB-[CG2] |==|  0.54148
USER: genes 3 Torsion [N]-CA--C-[N] |==|  0.36230
USER: genes 4 Torsion [C]-N--CA-[CB] |==|  0.27494
USER: genes 5 Torsion [N]-CA--C-[N] |==|  0.38471
USER: genes 6 Torsion [C]-N--CA-[CB] |==|  0.45024
USER: genes 7 Torsion [N]-CA--C-[N] |==|  0.39797
USER: genes 8 Torsion [C]-N--CA-[CB] |==|  0.28527
USER: genes 9 Torsion [N]-CA--C-[O] |==|  0.97367
USER: genes 10 Torsion [N]-CA--CB-[CG2] |==|  0.17202
USER: genes 11 Torsion [N]-CA--CB-[OG] |==|  0.82925
USER: genes 12 Torsion [CA]-CB--OG-[HG] |==|  0.33879
USER: genes 13 Torsion [CB]-CA--N-[C] |==|  0.33209
USER: genes 14 Torsion [N]-C--CA-[N] |==|  0.36932
USER: genes 15 Torsion [C]-CA--CB-[CG] |==|  0.52057
USER: genes 16 Torsion [CA]-CB--CG-[CD] |==|  0.49125
USER: genes 17 Torsion [CB]-CG--CD-[OE1] |==|  0.15302
USER: genes 18 Torsion [C]-CA--N-[C] |==|  0.77556
USER: genes 19 Torsion [N]-C--CA-[N] |==|  0.95421
USER: genes 20 Torsion [C]-CA--CB-[CG] |==|  0.20335
USER: genes 21 Torsion [CA]-CB--CG-[CD] |==|  0.44756
USER: genes 22 Torsion [CB]-CG--CD-[OE1] |==|  0.55570
ROOT
ATOM      1  CA  VAL B   5      11.450 -24.928   4.925  1.00 23.44 LIG 0.18  C 
ENDROOT
BRANCH 1 2
ATOM      2  CB  VAL B   5      11.329 -26.344   4.360  1.00 27.20 LIG 0.01  C 
ATOM      3  CG2 VAL B   5      10.318 -27.152   5.118  1.00 32.91 LIG 0.01  C 
ATOM      4  CG1 VAL B   5      12.669 -27.045   4.325  1.00 27.01 LIG 0.01  C 
ENDBRANCH 1 2
BRANCH 1 5
ATOM      5  C   VAL B   5      12.187 -24.036   3.933  1.00 21.98 LIG 0.24  C 
ATOM      6 O    VAL B   5      11.655 -23.747   2.864  1.00 26.26 LIG-0.27  OA
ATOM      7  N   SER B   6      13.424 -23.644   4.245  1.00 19.41 LIG-0.34  N 
ATOM      8 H    SER B   6      13.827 -23.894   4.962  1.00 19.41 LIG 0.16  HD
BRANCH 7 9
ATOM      9  CA  SER B   6      14.216 -22.760   3.418  1.00 20.84 LIG 0.20  C 
BRANCH 9 10
ATOM     10  C   SER B   6      15.671 -23.172   3.357  1.00 18.76 LIG 0.24  C 
ATOM     11 O    SER B   6      16.299 -23.471   4.356  1.00 19.89 LIG-0.27  OA
ATOM     12  N   ALA B   7      16.220 -23.083   2.169  1.00 19.53 LIG-0.35  N 
ATOM     13 H    ALA B   7      15.775 -22.843   1.473  1.00 19.53 LIG 0.16  HD
BRANCH 12 14
ATOM     14  CA  ALA B   7      17.619 -23.370   1.880  1.00 19.70 LIG 0.17  C 
ATOM     15  CB  ALA B   7      17.793 -23.596   0.368  1.00 20.39 LIG 0.04  C 
BRANCH 14 16
ATOM     16  C   ALA B   7      18.533 -22.226   2.282  1.00 16.34 LIG 0.24  C 
ATOM     17  N   VAL B   8      19.718 -22.527   2.779  1.00 16.85 LIG-0.34  N 
ATOM     18 H    VAL B   8      19.977 -23.327   2.962  1.00 16.85 LIG 0.16  HD
ATOM     19 O    ALA B   7      18.184 -21.080   2.086  1.00 20.16 LIG-0.27  OA
BRANCH 17 20
ATOM     20  CA  VAL B   8      20.711 -21.482   3.062  1.00 17.28 LIG 0.19  C 
BRANCH 20 21
ATOM     21  C   VAL B   8      22.061 -21.930   2.512  1.00 17.19 LIG 0.20  C 
ATOM     22 O    VAL B   8      22.204 -23.102   2.096  1.00 24.30 LIG-0.65  OA
ATOM     23 OXT  VAL B   8      23.048 -21.159   2.507  1.00 16.53 LIG-0.65  OA
ENDBRANCH 20 21
BRANCH 20 24
ATOM     24  CB  VAL B   8      20.806 -21.144   4.583  1.00 17.38 LIG 0.01  C 
ATOM     25  CG2 VAL B   8      21.254 -22.383   5.351  1.00 18.61 LIG 0.01  C 
ATOM     26  CG1 VAL B   8      19.505 -20.578   5.087  1.00 19.61 LIG 0.01  C 
ENDBRANCH 20 24
ENDBRANCH 17 20
ENDBRANCH 14 16
ENDBRANCH 12 14
ENDBRANCH 9 10
BRANCH 9 27
ATOM     27  CB  SER B   6      14.150 -21.332   3.941  1.00 25.59 LIG 0.20  C 
BRANCH 27 28
ATOM     28 OG   SER B   6      12.823 -20.854   3.909  1.00 27.26 LIG-0.40  OA
ATOM     29 HG   SER B   6      12.589 -20.625   4.683  1.00 27.26 LIG 0.21  HD
ENDBRANCH 27 28
ENDBRANCH 9 27
ENDBRANCH 7 9
ENDBRANCH 1 5
BRANCH 1 30
ATOM     30  N   VAL B   5      10.145 -24.346   5.133  1.00 22.92 LIG-0.35  N 
ATOM     31 H    VAL B   5       9.681 -24.280   4.411  1.00 22.92 LIG 0.16  HD
ATOM     32  C   GLN B   4       9.698 -23.949   6.314  1.00 24.29 LIG 0.24  C 
ATOM     33 O    GLN B   4      10.307 -24.066   7.359  1.00 26.90 LIG-0.27  OA
BRANCH 32 34
ATOM     34  CA  GLN B   4       8.303 -23.320   6.300  1.00 30.52 LIG 0.18  C 
BRANCH 34 35
ATOM     35  CB  GLN B   4       8.456 -21.810   6.480  1.00 36.61 LIG 0.04  C 
BRANCH 35 36
ATOM     36  CG  GLN B   4       7.133 -21.087   6.663  1.00 50.94 LIG 0.10  C 
BRANCH 36 37
ATOM     37  CD  GLN B   4       7.353 -19.598   6.915  1.00 60.90 LIG 0.21  C 
ATOM     38  NE2 GLN B   4       6.818 -19.086   8.022  1.00 82.36 LIG-0.37  N 
ATOM     39 21HE GLN B   4       6.366 -19.589   8.553  1.00 82.36 LIG 0.16  HD
ATOM     40 22HE GLN B   4       6.924 -18.252   8.205  1.00 82.36 LIG 0.16  HD
ATOM     41 OE1  GLN B   4       8.007 -18.924   6.122  1.00 55.22 LIG-0.27  OA
ENDBRANCH 36 37
ENDBRANCH 35 36
ENDBRANCH 34 35
BRANCH 34 42
ATOM     42  N   GLN B   4       7.482 -23.877   7.357  1.00 37.98 LIG-0.35  N 
ATOM     43  C   GLU B   3       6.866 -25.048   7.233  1.00 56.89 LIG 0.26  C 
ATOM     44 O    GLU B   3       6.892 -25.703   6.200  1.00 56.58 LIG-0.27  OA
ATOM     45 H    GLN B   4       7.433 -23.384   8.060  1.00 37.98 LIG 0.16  HD
BRANCH 43 46
ATOM     46  CA  GLU B   3       6.100 -25.545   8.457  1.00 80.09 LIG 0.40  C 
ATOM     47  N   GLU B   3       6.511 -24.818   9.651  1.00 75.44 LIG 0.61  N 
BRANCH 46 48
ATOM     48  CB  GLU B   3       4.600 -25.380   8.239  1.00107.85 LIG 0.06  C 
BRANCH 48 49
ATOM     49  CG  GLU B   3       4.015 -26.373   7.263  1.00114.95 LIG 0.12  C 
BRANCH 49 50
ATOM     50  CD  GLU B   3       2.510 -26.497   7.403  1.00 96.82 LIG 0.17  C 
ATOM     51 OE1  GLU B   3       1.947 -27.522   6.951  1.00 91.15 LIG-0.65  OA
ATOM     52 OE2  GLU B   3       1.888 -25.574   7.980  1.00 91.13 LIG-0.65  OA
ENDBRANCH 49 50
ENDBRANCH 48 49
ENDBRANCH 46 48
ENDBRANCH 43 46
ENDBRANCH 34 42
ENDBRANCH 32 34
ENDBRANCH 1 30
TORSDOF 21
