REMARK  21 active torsions:
REMARK  status: ('A' for Active; 'I' for Inactive)
REMARK    1  A    between atoms: CA_2  and  CB_5 
REMARK    2  A    between atoms: CA_2  and  C_3 
REMARK       I    between atoms: C_3  and  N_10 
REMARK    3  A    between atoms: CB_5  and  CG_6 
REMARK    4  A    between atoms: CG_6  and  CD_7 
REMARK    5  A    between atoms: N_10  and  CA_11 
REMARK    6  A    between atoms: CA_11  and  C_12 
REMARK    7  A    between atoms: CA_11  and  CB_14 
REMARK       I    between atoms: C_12  and  N_22 
REMARK    8  A    between atoms: CB_14  and  CG_15 
REMARK    9  A    between atoms: CG_15  and  CD_16 
REMARK       I    between atoms: CD_16  and  NE2_18 
REMARK   10  A    between atoms: N_22  and  CA_23 
REMARK   11  A    between atoms: CA_23  and  CB_26 
REMARK   12  A    between atoms: CA_23  and  C_24 
REMARK       I    between atoms: C_24  and  N_30 
REMARK   13  A    between atoms: N_30  and  CA_31 
REMARK   14  A    between atoms: CA_31  and  C_32 
REMARK   15  A    between atoms: CA_31  and  CB_34 
REMARK       I    between atoms: C_32  and  N_38 
REMARK   16  A    between atoms: CB_34  and  OG_35 
REMARK   17  A    between atoms: N_38  and  CA_39 
REMARK   18  A    between atoms: CA_39  and  C_40 
REMARK       I    between atoms: C_40  and  N_44 
REMARK   19  A    between atoms: N_44  and  CA_45 
REMARK   20  A    between atoms: CA_45  and  C_46 
REMARK   21  A    between atoms: CA_45  and  CB_48 
ROOT
ATOM      1  CA  VAL B   5      11.282 -24.862   4.630  1.00 23.44     0.180 C 
ENDROOT
BRANCH   1   2
ATOM      2  CB  VAL B   5      11.203 -26.298   4.110  1.00 27.20     0.009 C 
ATOM      3  CG2 VAL B   5      10.419 -27.175   5.040  1.00 32.91     0.012 C 
ATOM      4  CG1 VAL B   5      12.579 -26.872   3.851  1.00 27.01     0.012 C 
ENDBRANCH   1   2
BRANCH   1   5
ATOM      5  C   VAL B   5      12.021 -23.987   3.624  1.00 21.98     0.241 C 
ATOM      6  O   VAL B   5      11.504 -23.740   2.538  1.00 26.26    -0.271 OA
ATOM      7  N   SER B   6      13.245 -23.563   3.946  1.00 19.41    -0.344 N 
ATOM      8  H   SER B   6      13.639 -23.785   4.677  1.00 19.41     0.163 HD
BRANCH   7   9
ATOM      9  CA  SER B   6      14.036 -22.691   3.106  1.00 20.84     0.200 C 
BRANCH   9  10
ATOM     10  C   SER B   6      15.468 -23.161   2.968  1.00 18.76     0.243 C 
ATOM     11  O   SER B   6      16.090 -23.621   3.908  1.00 19.89    -0.271 OA
ATOM     12  N   ALA B   7      16.009 -22.942   1.793  1.00 19.53    -0.346 N 
ATOM     13  H   ALA B   7      15.570 -22.591   1.142  1.00 19.53     0.163 HD
BRANCH  12  14
ATOM     14  CA  ALA B   7      17.389 -23.256   1.446  1.00 19.70     0.172 C 
ATOM     15  CB  ALA B   7      17.527 -23.329  -0.085  1.00 20.39     0.042 C 
BRANCH  14  16
ATOM     16  C   ALA B   7      18.360 -22.201   1.945  1.00 16.34     0.240 C 
ATOM     17  N   VAL B   8      19.435 -22.607   2.594  1.00 16.85    -0.344 N 
ATOM     18  H   VAL B   8      19.583 -23.423   2.821  1.00 16.85     0.163 HD
ATOM     19  O   ALA B   7      18.160 -21.031   1.689  1.00 20.16    -0.271 OA
BRANCH  17  20
ATOM     20  CA  VAL B   8      20.488 -21.661   2.987  1.00 17.28     0.189 C 
BRANCH  20  21
ATOM     21  C   VAL B   8      21.845 -22.295   2.703  1.00 17.19     0.197 C 
ATOM     22  O   VAL B   8      21.911 -23.507   2.395  1.00 24.30    -0.646 OA
ATOM     23  OXT VAL B   8      22.905 -21.638   2.813  1.00 16.53    -0.646 OA
ENDBRANCH  20  21
BRANCH  20  24
ATOM     24  CB  VAL B   8      20.372 -21.224   4.481  1.00 17.38     0.010 C 
ATOM     25  CG2 VAL B   8      20.626 -22.427   5.383  1.00 18.61     0.012 C 
ATOM     26  CG1 VAL B   8      19.045 -20.563   4.743  1.00 19.61     0.012 C 
ENDBRANCH  20  24
ENDBRANCH  17  20
ENDBRANCH  14  16
ENDBRANCH  12  14
ENDBRANCH   9  10
BRANCH   9  27
ATOM     27  CB  SER B   6      14.056 -21.276   3.669  1.00 25.59     0.199 C 
BRANCH  27  28
ATOM     28  OG  SER B   6      12.741 -20.805   3.867  1.00 27.26    -0.398 OA
ATOM     29  HG  SER B   6      12.661 -20.519   4.653  1.00 27.26     0.209 HD
ENDBRANCH  27  28
ENDBRANCH   9  27
ENDBRANCH   7   9
ENDBRANCH   1   5
BRANCH   1  30
ATOM     30  N   VAL B   5       9.960 -24.302   4.790  1.00 22.92    -0.346 N 
ATOM     31  H   VAL B   5       9.522 -24.243   4.052  1.00 22.92     0.163 HD
ATOM     32  C   GLN B   4       9.464 -23.915   5.955  1.00 24.29     0.241 C 
ATOM     33  O   GLN B   4      10.037 -24.023   7.021  1.00 26.90    -0.271 OA
BRANCH  32  34
ATOM     34  CA  GLN B   4       8.060 -23.309   5.891  1.00 30.52     0.177 C 
BRANCH  34  35
ATOM     35  CB  GLN B   4       8.156 -21.835   6.281  1.00 36.61     0.044 C 
BRANCH  35  36
ATOM     36  CG  GLN B   4       6.803 -21.160   6.428  1.00 50.94     0.105 C 
BRANCH  36  37
ATOM     37  CD  GLN B   4       6.960 -19.706   6.864  1.00 60.90     0.215 C 
ATOM     38  NE2 GLN B   4       6.339 -19.340   7.984  1.00 82.36    -0.370 N 
ATOM     39 1HE2 GLN B   4       5.870 -19.912   8.422  1.00 82.36     0.159 HD
ATOM     40 2HE2 GLN B   4       6.407 -18.531   8.269  1.00 82.36     0.159 HD
ATOM     41  OE1 GLN B   4       7.642 -18.929   6.200  1.00 55.22    -0.274 OA
ENDBRANCH  36  37
ENDBRANCH  35  36
ENDBRANCH  34  35
BRANCH  34  42
ATOM     42  N   GLN B   4       7.160 -24.013   6.783  1.00 37.98    -0.346 N 
ATOM     43  C   GLU B   3       6.495 -25.100   6.405  1.00 56.89     0.257 C 
ATOM     44  O   GLU B   3       6.541 -25.541   5.265  1.00 56.58    -0.271 OA
ATOM     45  H   GLN B   4       7.099 -23.665   7.567  1.00 37.98     0.163 HD
BRANCH  43  46
ATOM     46  CA  GLU B   3       5.644 -25.781   7.475  1.00 80.09     0.400 C 
ATOM     47  N   GLU B   3       5.977 -25.272   8.798  1.00 75.44     0.615 N 
BRANCH  46  48
ATOM     48  CB  GLU B   3       4.163 -25.555   7.189  1.00107.85     0.062 C 
BRANCH  48  49
ATOM     49  CG  GLU B   3       3.642 -26.352   6.017  1.00114.95     0.116 C 
BRANCH  49  50
ATOM     50  CD  GLU B   3       2.128 -26.443   6.012  1.00 96.82     0.172 C 
ATOM     51  OE1 GLU B   3       1.583 -27.364   5.359  1.00 91.15    -0.648 OA
ATOM     52  OE2 GLU B   3       1.480 -25.599   6.674  1.00 91.13    -0.648 OA
ENDBRANCH  49  50
ENDBRANCH  48  49
ENDBRANCH  46  48
ENDBRANCH  43  46
ENDBRANCH  34  42
ENDBRANCH  32  34
ENDBRANCH   1  30
TORSDOF 21
