REMARK  32 active torsions:
REMARK  status: ('A' for Active; 'I' for Inactive)
REMARK       I    between atoms: C_1  and  N_4 
REMARK    1  A    between atoms: N_4  and  CA_5 
REMARK    2  A    between atoms: CA_5  and  CB_8 
REMARK    3  A    between atoms: CA_5  and  C_6 
REMARK       I    between atoms: C_6  and  N_16 
REMARK    4  A    between atoms: CB_8  and  CG_9 
REMARK    5  A    between atoms: N_16  and  CA_17 
REMARK    6  A    between atoms: CA_17  and  C_18 
REMARK    7  A    between atoms: CA_17  and  CB_20 
REMARK       I    between atoms: C_18  and  N_25 
REMARK    8  A    between atoms: CB_20  and  CG_21 
REMARK    9  A    between atoms: N_25  and  CA_26 
REMARK   10  A    between atoms: CA_26  and  C_27 
REMARK   11  A    between atoms: CA_26  and  CB_29 
REMARK       I    between atoms: C_27  and  N_35 
REMARK   12  A    between atoms: CB_29  and  CG_30 
REMARK   13  A    between atoms: CG_30  and  CD_31 
REMARK   14  A    between atoms: N_35  and  CA_36 
REMARK   15  A    between atoms: CA_36  and  C_37 
REMARK   16  A    between atoms: CA_36  and  CB_39 
REMARK       I    between atoms: C_37  and  N_44 
REMARK   17  A    between atoms: CB_39  and  CG_40 
REMARK   18  A    between atoms: CG_40  and  SD_41 
REMARK   19  A    between atoms: N_44  and  CA_45 
REMARK   20  A    between atoms: CA_45  and  CB_48 
REMARK   21  A    between atoms: CA_45  and  C_46 
REMARK       I    between atoms: C_46  and  N_54 
REMARK   22  A    between atoms: CB_48  and  CG_49 
REMARK   23  A    between atoms: CG_49  and  CD_50 
REMARK   24  A    between atoms: N_54  and  CA_55 
REMARK   25  A    between atoms: CA_55  and  C_56 
REMARK   26  A    between atoms: CA_55  and  CB_58 
REMARK       I    between atoms: C_56  and  N_64 
REMARK   27  A    between atoms: CB_58  and  CG_59 
REMARK   28  A    between atoms: CG_59  and  CD_60 
REMARK   29  A    between atoms: N_64  and  CA_65 
REMARK   30  A    between atoms: CA_65  and  C_66 
REMARK   31  A    between atoms: CA_65  and  CB_68 
REMARK   32  A    between atoms: CB_68  and  SG_69 
ROOT
ATOM      1  C   GLU C   3      27.883  -3.800  -7.988  1.00 25.67     0.241 C 
ATOM      2  O   GLU C   3      26.733  -3.369  -8.153  1.00 24.73    -0.271 OA
ATOM      3  N   MET C   4      28.989  -3.083  -8.204  1.00 25.06    -0.346 N 
ATOM      4  H   MET C   4      29.782  -3.400  -8.104  1.00 25.06     0.163 HD
ENDROOT
BRANCH   3   5
ATOM      5  CA  MET C   4      28.964  -1.683  -8.634  1.00 24.76     0.177 C 
BRANCH   5   6
ATOM      6  C   MET C   4      28.880  -1.614 -10.150  1.00 24.60     0.241 C 
ATOM      7  O   MET C   4      29.696  -2.205 -10.864  1.00 25.19    -0.271 OA
ATOM      8  N   GLU C   5      27.921  -0.837 -10.629  1.00 23.81    -0.346 N 
ATOM      9  H   GLU C   5      27.423  -0.337 -10.138  1.00 23.81     0.163 HD
BRANCH   8  10
ATOM     10  CA  GLU C   5      27.625  -0.762 -12.033  1.00 23.16     0.177 C 
BRANCH  10  11
ATOM     11  CB  GLU C   5      26.190  -1.226 -12.269  1.00 23.03     0.045 C 
BRANCH  11  12
ATOM     12  CG  GLU C   5      25.952  -2.656 -11.785  1.00 23.31     0.116 C 
BRANCH  12  13
ATOM     13  CD  GLU C   5      24.620  -3.255 -12.240  1.00 24.36     0.172 C 
ATOM     14  OE2 GLU C   5      24.473  -4.505 -12.168  1.00 22.25    -0.648 OA
ATOM     15  OE1 GLU C   5      23.724  -2.507 -12.677  1.00 21.71    -0.648 OA
ENDBRANCH  12  13
ENDBRANCH  11  12
ENDBRANCH  10  11
BRANCH  10  16
ATOM     16  C   GLU C   5      27.791   0.665 -12.493  1.00 22.53     0.241 C 
ATOM     17  N   GLU C   6      28.609   0.867 -13.523  1.00 22.45    -0.346 N 
ATOM     18  H   GLU C   6      29.117   0.261 -13.861  1.00 22.45     0.163 HD
ATOM     19  O   GLU C   5      27.203   1.567 -11.911  1.00 22.53    -0.271 OA
BRANCH  17  20
ATOM     20  CA  GLU C   6      28.707   2.185 -14.181  1.00 22.27     0.177 C 
BRANCH  20  21
ATOM     21  C   GLU C   6      27.349   2.606 -14.718  1.00 21.97     0.241 C 
ATOM     22  O   GLU C   6      26.632   1.794 -15.303  1.00 22.60    -0.271 OA
ATOM     23  N   CYS C   7      26.979   3.872 -14.540  1.00 20.65    -0.344 N 
ATOM     24  H   CYS C   7      27.468   4.484 -14.185  1.00 20.65     0.163 HD
BRANCH  23  25
ATOM     25  CA  CYS C   7      25.647   4.300 -14.966  1.00 20.43     0.194 C 
BRANCH  25  26
ATOM     26  C   CYS C   7      25.727   5.277 -16.123  1.00 19.69     0.197 C 
ATOM     27  O   CYS C   7      24.869   6.131 -16.326  1.00 19.84    -0.646 OA
ATOM     28  OXT CYS C   7      26.673   5.221 -16.904  1.00 20.10    -0.646 OA
ENDBRANCH  25  26
BRANCH  25  29
ATOM     29  CB  CYS C   7      24.835   4.840 -13.770  1.00 20.27     0.106 C 
BRANCH  29  30
ATOM     30  SG  CYS C   7      24.265   3.517 -12.626  1.00 22.98    -0.180 SA
ATOM     31  HG  CYS C   7      25.195   2.824 -12.320  1.00 22.98     0.101 HD
ENDBRANCH  29  30
ENDBRANCH  25  29
ENDBRANCH  23  25
ENDBRANCH  20  21
BRANCH  20  32
ATOM     32  CB  GLU C   6      29.724   2.134 -15.320  1.00 22.58     0.045 C 
BRANCH  32  33
ATOM     33  CG  GLU C   6      31.143   2.012 -14.822  1.00 24.64     0.116 C 
BRANCH  33  34
ATOM     34  CD  GLU C   6      32.174   1.975 -15.942  1.00 27.63     0.172 C 
ATOM     35  OE1 GLU C   6      31.792   1.948 -17.138  1.00 27.17    -0.648 OA
ATOM     36  OE2 GLU C   6      33.380   1.983 -15.607  1.00 31.71    -0.648 OA
ENDBRANCH  33  34
ENDBRANCH  32  33
ENDBRANCH  20  32
ENDBRANCH  17  20
ENDBRANCH  10  16
ENDBRANCH   8  10
ENDBRANCH   5   6
BRANCH   5  37
ATOM     37  CB  MET C   4      30.220  -0.945  -8.158  1.00 24.86     0.045 C 
BRANCH  37  38
ATOM     38  CG  MET C   4      30.273   0.562  -8.485  1.00 24.76     0.076 C 
BRANCH  38  39
ATOM     39  SD  MET C   4      29.255   1.624  -7.431  1.00 26.68    -0.173 SA
ATOM     40  CE  MET C   4      30.301   1.688  -5.964  1.00 24.50     0.089 C 
ENDBRANCH  38  39
ENDBRANCH  37  38
ENDBRANCH   5  37
ENDBRANCH   3   5
BRANCH   1  41
ATOM     41  CA  GLU C   3      28.101  -5.220  -7.467  1.00 26.55     0.177 C 
BRANCH  41  42
ATOM     42  N   GLU C   3      26.996  -5.595  -6.589  1.00 27.07    -0.346 N 
ATOM     43  H   GLU C   3      26.337  -5.042  -6.589  1.00 27.07     0.163 HD
ATOM     44  C   ASP C   2      27.034  -6.708  -5.861  1.00 28.06     0.241 C 
ATOM     45  O   ASP C   2      27.977  -7.495  -5.906  1.00 27.76    -0.271 OA
BRANCH  44  46
ATOM     46  CA  ASP C   2      25.807  -6.996  -4.991  1.00 28.68     0.186 C 
BRANCH  46  47
ATOM     47  CB  ASP C   2      25.484  -5.829  -4.037  1.00 28.90     0.147 C 
BRANCH  47  48
ATOM     48  CG  ASP C   2      26.582  -5.551  -3.017  1.00 30.38     0.175 C 
ATOM     49  OD2 ASP C   2      27.673  -6.152  -3.104  1.00 31.55    -0.648 OA
ATOM     50  OD1 ASP C   2      26.350  -4.694  -2.126  1.00 32.13    -0.648 OA
ENDBRANCH  47  48
ENDBRANCH  46  47
BRANCH  46  51
ATOM     51  N   ASP C   2      25.903  -8.255  -4.239  1.00 28.83    -0.345 N 
ATOM     52  C   PHE C   1      24.811  -8.967  -3.969  1.00 29.29     0.241 C 
ATOM     53  O   PHE C   1      23.709  -8.716  -4.461  1.00 29.28    -0.271 OA
ATOM     54  H   ASP C   2      26.700  -8.476  -4.002  1.00 28.83     0.163 HD
BRANCH  52  55
ATOM     55  CA  PHE C   1      24.959 -10.115  -2.981  1.00 29.71     0.180 C 
BRANCH  55  56
ATOM     56  N   PHE C   1      23.971  -9.921  -1.921  1.00 30.30    -0.348 N 
ATOM     57  H   PHE C   1      23.391 -10.553  -1.866  1.00 30.30     0.163 HD
HETATM   58  C   ACE C   0      23.976  -8.850  -1.112  1.00 30.61     0.214 C 
HETATM   59  CH3 ACE C   0      23.052  -8.949   0.071  1.00 31.12     0.117 C 
HETATM   60  O   ACE C   0      24.453  -7.764  -1.457  1.00 30.74    -0.274 OA
ENDBRANCH  55  56
BRANCH  55  61
ATOM     61  CB  PHE C   1      24.731 -11.468  -3.667  1.00 29.76     0.073 C 
BRANCH  61  62
ATOM     62  CG  PHE C   1      25.896 -11.956  -4.510  1.00 30.32    -0.056 A 
ATOM     63  CD1 PHE C   1      25.664 -12.566  -5.741  1.00 31.60     0.007 A 
ATOM     64  CE1 PHE C   1      26.725 -13.038  -6.521  1.00 31.29     0.001 A 
ATOM     65  CZ  PHE C   1      28.029 -12.895  -6.069  1.00 31.54     0.000 A 
ATOM     66  CE2 PHE C   1      28.274 -12.291  -4.841  1.00 29.54     0.001 A 
ATOM     67  CD2 PHE C   1      27.213 -11.829  -4.072  1.00 30.51     0.007 A 
ENDBRANCH  61  62
ENDBRANCH  55  61
ENDBRANCH  52  55
ENDBRANCH  46  51
ENDBRANCH  44  46
ENDBRANCH  41  42
BRANCH  41  68
ATOM     68  CB  GLU C   3      28.315  -6.245  -8.614  1.00 26.96     0.045 C 
BRANCH  68  69
ATOM     69  CG  GLU C   3      27.116  -7.123  -9.051  1.00 28.76     0.116 C 
BRANCH  69  70
ATOM     70  CD  GLU C   3      26.088  -6.396  -9.882  1.00 29.94     0.172 C 
ATOM     71  OE1 GLU C   3      26.488  -5.557 -10.712  1.00 33.38    -0.648 OA
ATOM     72  OE2 GLU C   3      24.877  -6.689  -9.725  1.00 31.06    -0.648 OA
ENDBRANCH  69  70
ENDBRANCH  68  69
ENDBRANCH  41  68
ENDBRANCH   1  41
TORSDOF 32
