REMARK  30 active torsions:
REMARK  status: ('A' for Active; 'I' for Inactive)
REMARK    1  A    between atoms: CA_2  and  C_3 
REMARK    2  A    between atoms: CA_2  and  CB_5 
REMARK       I    between atoms: C_3  and  N_10 
REMARK    3  A    between atoms: CB_5  and  CG_6 
REMARK    4  A    between atoms: CG_6  and  CD_7 
REMARK    5  A    between atoms: N_10  and  CA_11 
REMARK    6  A    between atoms: CA_11  and  CB_14 
REMARK    7  A    between atoms: CA_11  and  C_12 
REMARK       I    between atoms: C_12  and  N_19 
REMARK    8  A    between atoms: CB_14  and  OG1_15 
REMARK    9  A    between atoms: N_19  and  CA_20 
REMARK   10  A    between atoms: CA_20  and  CB_23 
REMARK   11  A    between atoms: CA_20  and  C_21 
REMARK       I    between atoms: C_21  and  N_27 
REMARK   12  A    between atoms: N_27  and  CA_28 
REMARK   13  A    between atoms: CA_28  and  C_29 
REMARK   14  A    between atoms: CA_28  and  CB_31 
REMARK       I    between atoms: C_29  and  N_44 
REMARK   15  A    between atoms: CB_31  and  CG_32 
REMARK   16  A    between atoms: CG_32  and  CD_33 
REMARK   17  A    between atoms: CD_33  and  NE_34 
REMARK       I    between atoms: NE_34  and  CZ_35 
REMARK       I    between atoms: CZ_35  and  NH1_36 
REMARK   18  A    between atoms: N_44  and  CA_45 
REMARK   19  A    between atoms: CA_45  and  CB_48 
REMARK   20  A    between atoms: CA_45  and  C_46 
REMARK       I    between atoms: C_46  and  N_56 
REMARK   21  A    between atoms: CB_48  and  CG_49 
REMARK   22  A    between atoms: N_56  and  CA_57 
REMARK   23  A    between atoms: CA_57  and  CB_60 
REMARK   24  A    between atoms: CA_57  and  C_58 
REMARK       I    between atoms: C_58  and  N_68 
REMARK   25  A    between atoms: CB_60  and  CG_61 
REMARK   26  A    between atoms: CG_61  and  CD_62 
REMARK       I    between atoms: CD_62  and  NE2_64 
REMARK   27  A    between atoms: N_68  and  CA_69 
REMARK   28  A    between atoms: CA_69  and  CB_72 
REMARK   29  A    between atoms: CA_69  and  C_70 
REMARK   30  A    between atoms: CB_72  and  OG_73 
ROOT
ATOM      1  CA  ARG C   5      37.701  -8.636 -15.890  1.00 18.48     0.176 C 
ENDROOT
BRANCH   1   2
ATOM      2  C   ARG C   5      36.450  -8.234 -15.111  1.00 18.17     0.241 C 
ATOM      3  O   ARG C   5      35.763  -7.262 -15.457  1.00 17.19    -0.271 OA
ATOM      4  N   PHE C   6      36.136  -9.008 -14.080  1.00 18.83    -0.346 N 
ATOM      5  H   PHE C   6      36.510  -9.762 -13.903  1.00 18.83     0.163 HD
BRANCH   4   6
ATOM      6  CA  PHE C   6      35.086  -8.601 -13.144  1.00 19.26     0.180 C 
BRANCH   6   7
ATOM      7  CB  PHE C   6      34.868  -9.686 -12.107  1.00 18.47     0.073 C 
BRANCH   7   8
ATOM      8  CG  PHE C   6      34.305 -10.939 -12.673  1.00 17.36    -0.056 A 
ATOM      9  CD2 PHE C   6      33.127 -10.910 -13.424  1.00 17.83     0.007 A 
ATOM     10  CE2 PHE C   6      32.599 -12.079 -13.950  1.00 17.21     0.001 A 
ATOM     11  CZ  PHE C   6      33.262 -13.312 -13.749  1.00 18.37     0.000 A 
ATOM     12  CE1 PHE C   6      34.433 -13.345 -13.022  1.00 15.49     0.001 A 
ATOM     13  CD1 PHE C   6      34.957 -12.160 -12.478  1.00 15.20     0.007 A 
ENDBRANCH   7   8
ENDBRANCH   6   7
BRANCH   6  14
ATOM     14  C   PHE C   6      35.450  -7.290 -12.449  1.00 20.73     0.241 C 
ATOM     15  O   PHE C   6      36.593  -7.114 -12.010  1.00 20.81    -0.271 OA
ATOM     16  N   GLN C   7      34.487  -6.370 -12.345  1.00 22.42    -0.346 N 
ATOM     17  H   GLN C   7      33.668  -6.489 -12.581  1.00 22.42     0.163 HD
BRANCH  16  18
ATOM     18  CA  GLN C   7      34.789  -5.052 -11.800  1.00 25.26     0.177 C 
BRANCH  18  19
ATOM     19  CB  GLN C   7      33.962  -3.935 -12.437  1.00 25.69     0.044 C 
BRANCH  19  20
ATOM     20  CG  GLN C   7      34.456  -2.569 -11.985  1.00 27.68     0.105 C 
BRANCH  20  21
ATOM     21  CD  GLN C   7      34.499  -1.568 -13.096  1.00 27.15     0.215 C 
ATOM     22  NE2 GLN C   7      35.562  -0.768 -13.143  1.00 28.04    -0.370 N 
ATOM     23 1HE2 GLN C   7      36.179  -0.838 -12.548  1.00 28.04     0.159 HD
ATOM     24 2HE2 GLN C   7      35.631  -0.181 -13.768  1.00 28.04     0.159 HD
ATOM     25  OE1 GLN C   7      33.594  -1.513 -13.912  1.00 23.97    -0.274 OA
ENDBRANCH  20  21
ENDBRANCH  19  20
ENDBRANCH  18  19
BRANCH  18  26
ATOM     26  C   GLN C   7      34.707  -5.016 -10.288  1.00 26.49     0.241 C 
ATOM     27  O   GLN C   7      33.846  -4.327  -9.675  1.00 27.60    -0.271 OA
ATOM     28  N   SER C   8      35.651  -5.750  -9.702  1.00 27.61    -0.345 N 
ATOM     29  H   SER C   8      36.292  -6.124 -10.137  1.00 27.61     0.163 HD
BRANCH  28  30
ATOM     30  CA  SER C   8      35.699  -5.997  -8.270  1.00 28.42     0.186 C 
BRANCH  30  31
ATOM     31  CB  SER C   8      34.782  -7.167  -7.940  1.00 28.45     0.197 C 
BRANCH  31  32
ATOM     32  OG  SER C   8      33.483  -6.917  -8.469  1.00 26.71    -0.398 OA
ATOM     33  HG  SER C   8      33.319  -7.468  -9.081  1.00 26.71     0.209 HD
ENDBRANCH  31  32
ENDBRANCH  30  31
BRANCH  30  34
ATOM     34  C   SER C   8      37.132  -6.306  -7.861  1.00 29.48     0.221 C 
ATOM     35  O   SER C   8      37.885  -6.917  -8.632  1.00 30.60    -0.287 OA
ENDBRANCH  30  34
ENDBRANCH  28  30
ENDBRANCH  18  26
ENDBRANCH  16  18
ENDBRANCH   6  14
ENDBRANCH   4   6
ENDBRANCH   1   2
BRANCH   1  36
ATOM     36  CB  ARG C   5      38.970  -8.091 -15.225  1.00 18.58     0.036 C 
BRANCH  36  37
ATOM     37  CG  ARG C   5      39.042  -6.577 -15.181  1.00 19.48     0.023 C 
BRANCH  37  38
ATOM     38  CD  ARG C   5      40.163  -6.082 -14.286  1.00 24.05     0.138 C 
BRANCH  38  39
ATOM     39  NE  ARG C   5      40.020  -4.645 -14.105  1.00 29.23    -0.227 N 
ATOM     40  HE  ARG C   5      40.326  -4.134 -14.726  1.00 29.23     0.177 HD
ATOM     41  CZ  ARG C   5      39.451  -4.060 -13.050  1.00 30.64     0.665 C 
ATOM     42  NH1 ARG C   5      38.998  -4.779 -12.026  1.00 31.79    -0.235 N 
ATOM     43  NH2 ARG C   5      39.362  -2.735 -13.008  1.00 32.60    -0.235 N 
ATOM     44 HH12 ARG C   5      38.634  -4.387 -11.353  1.00 31.79     0.174 HD
ATOM     45 HH11 ARG C   5      39.070  -5.636 -12.037  1.00 31.79     0.174 HD
ATOM     46 HH22 ARG C   5      38.997  -2.350 -12.331  1.00 32.60     0.174 HD
ATOM     47 HH21 ARG C   5      39.670  -2.263 -13.657  1.00 32.60     0.174 HD
ENDBRANCH  38  39
ENDBRANCH  37  38
ENDBRANCH  36  37
ENDBRANCH   1  36
BRANCH   1  48
ATOM     48  N   ARG C   5      37.579  -8.179 -17.269  1.00 18.21    -0.346 N 
ATOM     49  C   VAL C   4      37.952  -8.946 -18.288  1.00 18.34     0.241 C 
ATOM     50  O   VAL C   4      38.503 -10.047 -18.139  1.00 18.10    -0.271 OA
ATOM     51  H   ARG C   5      37.252  -7.388 -17.355  1.00 18.21     0.163 HD
BRANCH  49  52
ATOM     52  CA  VAL C   4      37.657  -8.406 -19.671  1.00 18.53     0.180 C 
BRANCH  52  53
ATOM     53  N   VAL C   4      38.553  -9.040 -20.659  1.00 19.37    -0.346 N 
ATOM     54  C   THR C   3      39.247  -8.321 -21.535  1.00 20.69     0.243 C 
ATOM     55  O   THR C   3      39.271  -7.094 -21.539  1.00 20.32    -0.271 OA
ATOM     56  H   VAL C   4      38.581  -9.898 -20.613  1.00 19.37     0.163 HD
BRANCH  54  57
ATOM     57  CA  THR C   3      40.044  -9.118 -22.560  1.00 21.56     0.205 C 
BRANCH  57  58
ATOM     58  CB  THR C   3      41.543  -8.936 -22.263  1.00 22.09     0.146 C 
ATOM     59  CG2 THR C   3      42.358  -9.977 -23.012  1.00 23.63     0.042 C 
BRANCH  58  60
ATOM     60  OG1 THR C   3      41.957  -7.609 -22.630  1.00 21.54    -0.393 OA
ATOM     61  HG1 THR C   3      41.821  -7.085 -21.987  1.00 21.54     0.210 HD
ENDBRANCH  58  60
ENDBRANCH  57  58
BRANCH  57  62
ATOM     62  N   THR C   3      39.702  -8.820 -23.958  1.00 23.16    -0.343 N 
ATOM     63  C   GLU C   2      38.691  -9.452 -24.565  1.00 24.83     0.257 C 
ATOM     64  O   GLU C   2      37.942 -10.216 -23.976  1.00 23.95    -0.271 OA
ATOM     65  H   THR C   3      40.196  -8.223 -24.331  1.00 23.16     0.163 HD
BRANCH  63  66
ATOM     66  CA  GLU C   2      38.446  -9.196 -26.054  1.00 26.47     0.400 C 
ATOM     67  N   GLU C   2      37.150  -8.510 -26.308  1.00 27.26     0.615 N 
BRANCH  66  68
ATOM     68  CB  GLU C   2      39.593  -8.453 -26.699  1.00 27.59     0.062 C 
BRANCH  68  69
ATOM     69  CG  GLU C   2      40.360  -9.340 -27.653  1.00 31.29     0.116 C 
BRANCH  69  70
ATOM     70  CD  GLU C   2      41.429  -8.574 -28.366  1.00 36.63     0.172 C 
ATOM     71  OE1 GLU C   2      42.544  -8.441 -27.803  1.00 39.47    -0.648 OA
ATOM     72  OE2 GLU C   2      41.150  -8.092 -29.489  1.00 40.70    -0.648 OA
ENDBRANCH  69  70
ENDBRANCH  68  69
ENDBRANCH  66  68
ENDBRANCH  63  66
ENDBRANCH  57  62
ENDBRANCH  54  57
ENDBRANCH  52  53
BRANCH  52  73
ATOM     73  CB  VAL C   4      36.165  -8.658 -20.026  1.00 18.61     0.009 C 
ATOM     74  CG2 VAL C   4      35.850 -10.153 -20.068  1.00 18.43     0.012 C 
ATOM     75  CG1 VAL C   4      35.822  -7.994 -21.349  1.00 18.06     0.012 C 
ENDBRANCH  52  73
ENDBRANCH  49  52
ENDBRANCH   1  48
TORSDOF 30
