USER: ADFR SOLUTION from run 0
USER: SCORE 27.801142 LL:  -5.100 LR: -23.267 RR:   0.000 FEB: -14.318
USER: RMSD 0.244184
USER: STATUS Locally minimized using BFGS
USER: GENES 32
USER: genes 0 Translation |==|  0.50655 0.41429 0.59188
USER: genes 1 Rotation |==|  0.49324 0.50312 0.50480 0.99992
USER: genes 2 Torsion [N]-CA--C-[N] |==|  0.41554
USER: genes 3 Torsion [C]-N--CA-[C] |==|  0.82222
USER: genes 4 Torsion [N]-CA--CB-[CG] |==|  0.81346
USER: genes 5 Torsion [CA]-CB--CG-[CD2] |==|  0.85030
USER: genes 6 Torsion [N]-CA--C-[N] |==|  0.37666
USER: genes 7 Torsion [C]-N--CA-[C] |==|  0.76958
USER: genes 8 Torsion [N]-CA--CB-[CG] |==|  0.52440
USER: genes 9 Torsion [CA]-CB--CG-[CD] |==|  0.37452
USER: genes 10 Torsion [CB]-CG--CD-[OE1] |==|  0.11275
USER: genes 11 Torsion [N]-CA--C-[N] |==|  0.17779
USER: genes 12 Torsion [C]-N--CA-[CB] |==|  0.22407
USER: genes 13 Torsion [N]-CA--CB-[OG] |==|  0.85909
USER: genes 14 Torsion [CA]-CB--OG-[HG] |==|  0.31349
USER: genes 15 Torsion [N]-CA--C-[O] |==|  0.90183
USER: genes 16 Torsion [C]-CA--CB-[CG] |==|  0.82416
USER: genes 17 Torsion [CA]-CB--CG-[CD] |==|  0.45929
USER: genes 18 Torsion [CB]-CG--CD-[NE] |==|  0.52505
USER: genes 19 Torsion [CG]-CD--NE-[HE] |==|  0.76912
USER: genes 20 Torsion [C]-CA--N-[C] |==|  0.61308
USER: genes 21 Torsion [N]-C--CA-[N] |==|  0.43510
USER: genes 22 Torsion [C]-CA--N-[C] |==|  0.63722
USER: genes 23 Torsion [N]-C--CA-[N] |==|  0.33578
USER: genes 24 Torsion [C]-CA--CB-[CG2] |==|  0.45760
USER: genes 25 Torsion [CA]-CB--OG1-[HG1] |==|  0.24011
USER: genes 26 Torsion [C]-CA--N-[C] |==|  0.76402
USER: genes 27 Torsion [N]-C--CA-[N] |==|  0.68202
USER: genes 28 Torsion [C]-CA--CB-[CG] |==|  0.30530
USER: genes 29 Torsion [CA]-CB--CG-[CD] |==|  0.48789
USER: genes 30 Torsion [CB]-CG--CD-[OE1] |==|  0.23707
USER: genes 31 Torsion [C]-CA--CB-[CG2] |==|  0.82468
ROOT
ATOM      1  CA  ARG C   5      37.690  -8.627 -15.919  1.00 18.48 LIG 0.18  C 
ENDROOT
BRANCH 1 2
ATOM      2  C   ARG C   5      36.441  -8.228 -15.135  1.00 18.17 LIG 0.24  C 
ATOM      3 O    ARG C   5      35.762  -7.246 -15.467  1.00 17.19 LIG-0.27  OA
ATOM      4  N   PHE C   6      36.120  -9.015 -14.116  1.00 18.83 LIG-0.35  N 
ATOM      5 H    PHE C   6      36.488  -9.775 -13.950  1.00 18.83 LIG 0.16  HD
BRANCH 4 6
ATOM      6  CA  PHE C   6      35.072  -8.615 -13.175  1.00 19.26 LIG 0.18  C 
BRANCH 6 7
ATOM      7  CB  PHE C   6      34.803  -9.738 -12.192  1.00 18.47 LIG 0.07  C 
BRANCH 7 8
ATOM      8  CG  PHE C   6      34.194 -10.939 -12.820  1.00 17.36 LIG-0.06  A 
ATOM      9  CD2 PHE C   6      33.027 -10.826 -13.582  1.00 17.83 LIG 0.01  A 
ATOM     10  CE2 PHE C   6      32.457 -11.946 -14.166  1.00 17.21 LIG 0.00  A 
ATOM     11  CZ  PHE C   6      33.064 -13.214 -14.014  1.00 18.37 LIG 0.00  A 
ATOM     12  CE1 PHE C   6      34.223 -13.330 -13.277  1.00 15.49 LIG 0.00  A 
ATOM     13  CD1 PHE C   6      34.790 -12.195 -12.674  1.00 15.20 LIG 0.01  A 
ENDBRANCH 7 8
ENDBRANCH 6 7
BRANCH 6 14
ATOM     14  C   PHE C   6      35.472  -7.351 -12.416  1.00 20.73 LIG 0.24  C 
ATOM     15 O    PHE C   6      36.613  -7.236 -11.954  1.00 20.81 LIG-0.27  OA
ATOM     16  N   GLN C   7      34.540  -6.403 -12.283  1.00 22.42 LIG-0.35  N 
ATOM     17 H    GLN C   7      33.721  -6.481 -12.535  1.00 22.42 LIG 0.16  HD
BRANCH 16 18
ATOM     18  CA  GLN C   7      34.880  -5.122 -11.674  1.00 25.26 LIG 0.18  C 
BRANCH 18 19
ATOM     19  CB  GLN C   7      34.055  -3.958 -12.223  1.00 25.69 LIG 0.04  C 
BRANCH 19 20
ATOM     20  CG  GLN C   7      34.592  -2.627 -11.718  1.00 27.68 LIG 0.10  C 
BRANCH 20 21
ATOM     21  CD  GLN C   7      34.698  -1.596 -12.796  1.00 27.15 LIG 0.21  C 
ATOM     22  NE2 GLN C   7      35.785  -0.826 -12.786  1.00 28.04 LIG-0.37  N 
ATOM     23 21HE GLN C   7      36.380  -0.932 -12.175  1.00 28.04 LIG 0.16  HD
ATOM     24 22HE GLN C   7      35.890  -0.223 -13.390  1.00 28.04 LIG 0.16  HD
ATOM     25 OE1  GLN C   7      33.821  -1.490 -13.637  1.00 23.97 LIG-0.27  OA
ENDBRANCH 20 21
ENDBRANCH 19 20
ENDBRANCH 18 19
BRANCH 18 26
ATOM     26  C   GLN C   7      34.841  -5.171 -10.160  1.00 26.49 LIG 0.24  C 
ATOM     27 O    GLN C   7      34.044  -4.465  -9.483  1.00 27.60 LIG-0.27  OA
ATOM     28  N   SER C   8      35.751  -5.997  -9.647  1.00 27.61 LIG-0.34  N 
ATOM     29 H    SER C   8      36.354  -6.385 -10.122  1.00 27.61 LIG 0.16  HD
BRANCH 28 30
ATOM     30  CA  SER C   8      35.821  -6.331  -8.233  1.00 28.42 LIG 0.19  C 
BRANCH 30 31
ATOM     31  CB  SER C   8      34.785  -7.404  -7.928  1.00 28.45 LIG 0.20  C 
BRANCH 31 32
ATOM     32 OG   SER C   8      33.518  -7.001  -8.438  1.00 26.71 LIG-0.40  OA
ATOM     33 HG   SER C   8      33.295  -7.509  -9.068  1.00 26.71 LIG 0.21  HD
ENDBRANCH 31 32
ENDBRANCH 30 31
BRANCH 30 34
ATOM     34  C   SER C   8      37.221  -6.826  -7.903  1.00 29.48 LIG 0.22  C 
ATOM     35 O    SER C   8      37.859  -7.497  -8.727  1.00 30.60 LIG-0.29  OA
ENDBRANCH 30 34
ENDBRANCH 28 30
ENDBRANCH 18 26
ENDBRANCH 16 18
ENDBRANCH 6 14
ENDBRANCH 4 6
ENDBRANCH 1 2
BRANCH 1 36
ATOM     36  CB  ARG C   5      38.956  -8.040 -15.285  1.00 18.58 LIG 0.04  C 
BRANCH 36 37
ATOM     37  CG  ARG C   5      39.003  -6.525 -15.289  1.00 19.48 LIG 0.02  C 
BRANCH 37 38
ATOM     38  CD  ARG C   5      40.070  -5.981 -14.357  1.00 24.05 LIG 0.14  C 
BRANCH 38 39
ATOM     39  NE  ARG C   5      39.911  -4.538 -14.252  1.00 29.23 LIG-0.23  N 
ATOM     40 HE   ARG C   5      40.264  -4.054 -14.870  1.00 29.23 LIG 0.18  HD
ATOM     41  CZ  ARG C   5      39.262  -3.909 -13.272  1.00 30.64 LIG 0.67  C 
ATOM     42  NH1 ARG C   5      38.732  -4.584 -12.254  1.00 31.79 LIG-0.23  N 
ATOM     43  NH2 ARG C   5      39.168  -2.584 -13.296  1.00 32.60 LIG-0.23  N 
ATOM     44 2HH1 ARG C   5      38.317  -4.164 -11.630  1.00 31.79 LIG 0.17  HD
ATOM     45 1HH1 ARG C   5      38.806  -5.440 -12.221  1.00 31.79 LIG 0.17  HD
ATOM     46 2HH2 ARG C   5      38.752  -2.171 -12.667  1.00 32.60 LIG 0.17  HD
ATOM     47 1HH2 ARG C   5      39.525  -2.140 -13.940  1.00 32.60 LIG 0.17  HD
ENDBRANCH 38 39
ENDBRANCH 37 38
ENDBRANCH 36 37
ENDBRANCH 1 36
BRANCH 1 48
ATOM     48  N   ARG C   5      37.542  -8.210 -17.308  1.00 18.21 LIG-0.35  N 
ATOM     49  C   VAL C   4      37.938  -8.988 -18.310  1.00 18.34 LIG 0.24  C 
ATOM     50 O    VAL C   4      38.531 -10.064 -18.137  1.00 18.10 LIG-0.27  OA
ATOM     51 H    ARG C   5      37.185  -7.434 -17.411  1.00 18.21 LIG 0.16  HD
BRANCH 49 52
ATOM     52  CA  VAL C   4      37.614  -8.495 -19.704  1.00 18.53 LIG 0.18  C 
BRANCH 52 53
ATOM     53  N   VAL C   4      38.544  -9.100 -20.679  1.00 19.37 LIG-0.35  N 
ATOM     54  C   THR C   3      39.189  -8.363 -21.577  1.00 20.69 LIG 0.24  C 
ATOM     55 O    THR C   3      39.138  -7.138 -21.615  1.00 20.32 LIG-0.27  OA
ATOM     56 H    VAL C   4      38.625  -9.953 -20.610  1.00 19.37 LIG 0.16  HD
BRANCH 54 57
ATOM     57  CA  THR C   3      40.031  -9.138 -22.584  1.00 21.56 LIG 0.20  C 
BRANCH 57 58
ATOM     58  CB  THR C   3      41.515  -8.831 -22.319  1.00 22.09 LIG 0.15  C 
ATOM     59  CG2 THR C   3      42.397  -9.846 -23.029  1.00 23.63 LIG 0.04  C 
BRANCH 58 60
ATOM     60 OG1  THR C   3      41.825  -7.497 -22.757  1.00 21.54 LIG-0.39  OA
ATOM     61 HG1  THR C   3      41.654  -6.953 -22.140  1.00 21.54 LIG 0.21  HD
ENDBRANCH 58 60
ENDBRANCH 57 58
BRANCH 57 62
ATOM     62  N   THR C   3      39.648  -8.922 -23.987  1.00 23.16 LIG-0.34  N 
ATOM     63  C   GLU C   2      38.665  -9.636 -24.546  1.00 24.83 LIG 0.26  C 
ATOM     64 O    GLU C   2      37.971 -10.415 -23.910  1.00 23.95 LIG-0.27  OA
ATOM     65 H    THR C   3      40.100  -8.314 -24.395  1.00 23.16 LIG 0.16  HD
BRANCH 63 66
ATOM     66  CA  GLU C   2      38.380  -9.461 -26.039  1.00 26.47 LIG 0.40  C 
ATOM     67  N   GLU C   2      37.040  -8.865 -26.297  1.00 27.26 LIG 0.61  N 
BRANCH 66 68
ATOM     68  CB  GLU C   2      39.468  -8.679 -26.737  1.00 27.59 LIG 0.06  C 
BRANCH 68 69
ATOM     69  CG  GLU C   2      40.275  -9.560 -27.663  1.00 31.29 LIG 0.12  C 
BRANCH 69 70
ATOM     70  CD  GLU C   2      41.282  -8.763 -28.430  1.00 36.63 LIG 0.17  C 
ATOM     71 OE1  GLU C   2      42.395  -8.535 -27.895  1.00 39.47 LIG-0.65  OA
ATOM     72 OE2  GLU C   2      40.956  -8.353 -29.569  1.00 40.70 LIG-0.65  OA
ENDBRANCH 69 70
ENDBRANCH 68 69
ENDBRANCH 66 68
ENDBRANCH 63 66
ENDBRANCH 57 62
ENDBRANCH 54 57
ENDBRANCH 52 53
BRANCH 52 73
ATOM     73  CB  VAL C   4      36.138  -8.837 -20.052  1.00 18.61 LIG 0.01  C 
ATOM     74  CG2 VAL C   4      35.910 -10.348 -20.079  1.00 18.43 LIG 0.01  C 
ATOM     75  CG1 VAL C   4      35.754  -8.206 -21.381  1.00 18.06 LIG 0.01  C 
ENDBRANCH 52 73
ENDBRANCH 49 52
ENDBRANCH 1 48
TORSDOF 30
