USER: ADFR SOLUTION from run 0
USER: SCORE 10.120293 LL:  -1.662 LR:  -8.822 RR:   0.000 FEB:  -4.944
USER: RMSD 0.566899
USER: STATUS Locally minimized using BFGS
USER: GENES 15
USER: genes 0 Translation |==|  0.50009 0.55729 0.57249
USER: genes 1 Rotation |==|  0.50774 0.49536 0.47286 0.99918
USER: genes 2 Torsion [N]-C--CA-[N] |==|  0.50000
USER: genes 3 Torsion [C]-CA--N-[C] |==|  0.54278
USER: genes 4 Torsion [N]-C--CA-[N] |==|  0.42413
USER: genes 5 Torsion [C]-CA--CB-[CG] |==|  0.81241
USER: genes 6 Torsion [CA]-CB--CG-[CD2] |==|  0.74035
USER: genes 7 Torsion [C]-N--CA-[C] |==|  0.78643
USER: genes 8 Torsion [N]-CA--C-[N] |==|  0.42353
USER: genes 9 Torsion [C]-N--CA-[C] |==|  0.82090
USER: genes 10 Torsion [N]-CA--C-[O] |==|  0.41216
USER: genes 11 Torsion [N]-CA--CB-[OG] |==|  0.19430
USER: genes 12 Torsion [CA]-CB--OG-[HG] |==|  0.76644
USER: genes 13 Torsion [N]-CA--CB-[OG] |==|  0.47685
USER: genes 14 Torsion [CA]-CB--OG-[HG] |==|  0.49983
ROOT
ATOM      1  C   HIS B 399      35.652 -12.226  -9.325  1.00 17.93 LIG 0.24  C 
ATOM      2 O    HIS B 399      34.931 -12.045 -10.308  1.00 15.41 LIG-0.27  OA
ATOM      3  N   SER B 400      36.941 -11.906  -9.298  1.00 17.64 LIG-0.34  N 
ATOM      4 H    SER B 400      37.445 -12.023  -8.611  1.00 17.64 LIG 0.16  HD
ENDROOT
BRANCH 1 5
ATOM      5  CA  HIS B 399      35.088 -12.841  -8.050  1.00 18.55 LIG 0.18  C 
BRANCH 5 6
ATOM      6  N   HIS B 399      33.674 -13.140  -8.222  1.00 19.43 LIG-0.34  N 
ATOM      7 H    HIS B 399      33.406 -13.135  -9.038  1.00 19.43 LIG 0.16  HD
ATOM      8  C   ALA B 398      32.884 -13.396  -7.183  1.00 22.32 LIG 0.26  C 
ATOM      9 O    ALA B 398      33.287 -13.386  -6.018  1.00 22.30 LIG-0.27  OA
BRANCH 8 10
ATOM     10  CA  ALA B 398      31.425 -13.704  -7.508  1.00 21.39 LIG 0.40  C 
ATOM     11  N   ALA B 398      30.807 -14.578  -6.465  1.00 23.95 LIG 0.61  N 
ATOM     12  CB  ALA B 398      30.632 -12.411  -7.635  1.00 21.38 LIG 0.06  C 
ENDBRANCH 8 10
ENDBRANCH 5 6
BRANCH 5 13
ATOM     13  CB  HIS B 399      35.848 -14.127  -7.718  1.00 22.49 LIG 0.10  C 
BRANCH 13 14
ATOM     14  CG  HIS B 399      35.616 -15.230  -8.701  1.00 24.90 LIG 0.06  A 
ATOM     15  CD2 HIS B 399      34.724 -16.249  -8.703  1.00 26.88 LIG 0.14  A 
ATOM     16 NE2  HIS B 399      34.896 -16.935  -9.880  1.00 28.66 LIG-0.25  NA
ATOM     17  CE1 HIS B 399      35.861 -16.360 -10.576  1.00 27.08 LIG 0.23  A 
ATOM     18 ND1  HIS B 399      36.314 -15.329  -9.885  1.00 26.64 LIG-0.24  NA
ENDBRANCH 13 14
ENDBRANCH 5 13
ENDBRANCH 1 5
BRANCH 3 19
ATOM     19  CA  SER B 400      37.625 -11.319 -10.446  1.00 19.59 LIG 0.20  C 
BRANCH 19 20
ATOM     20  C   SER B 400      37.918 -12.399 -11.482  1.00 19.52 LIG 0.24  C 
ATOM     21  N   SER B 401      38.000 -12.003 -12.750  1.00 18.79 LIG-0.34  N 
ATOM     22 H    SER B 401      37.898 -11.189 -13.008  1.00 18.79 LIG 0.16  HD
ATOM     23 O    SER B 400      38.073 -13.570 -11.135  1.00 19.53 LIG-0.27  OA
BRANCH 21 24
ATOM     24  CA  SER B 401      38.275 -12.950 -13.827  1.00 20.07 LIG 0.19  C 
BRANCH 24 25
ATOM     25  C   SER B 401      39.665 -13.547 -13.662  1.00 22.19 LIG 0.22  C 
ATOM     26 O    SER B 401      39.849 -14.719 -14.056  1.00 22.82 LIG-0.29  OA
ENDBRANCH 24 25
BRANCH 24 27
ATOM     27  CB  SER B 401      38.167 -12.268 -15.196  1.00 19.03 LIG 0.20  C 
BRANCH 27 28
ATOM     28 OG   SER B 401      39.229 -11.353 -15.408  1.00 19.07 LIG-0.40  OA
ATOM     29 HG   SER B 401      39.039 -10.615 -15.055  1.00 19.07 LIG 0.21  HD
ENDBRANCH 27 28
ENDBRANCH 24 27
ENDBRANCH 21 24
ENDBRANCH 19 20
BRANCH 19 30
ATOM     30  CB  SER B 400      38.939 -10.674 -10.000  1.00 20.99 LIG 0.20  C 
BRANCH 30 31
ATOM     31 OG   SER B 400      39.708 -10.268 -11.122  1.00 29.12 LIG-0.40  OA
ATOM     32 HG   SER B 400      40.424  -9.916 -10.858  1.00 29.12 LIG 0.21  HD
ENDBRANCH 30 31
ENDBRANCH 19 30
ENDBRANCH 3 19
TORSDOF 13
