REMARK  13 active torsions:
REMARK  status: ('A' for Active; 'I' for Inactive)
REMARK    1  A    between atoms: CA_2  and  C_3 
REMARK       I    between atoms: C_3  and  N_6 
REMARK    2  A    between atoms: N_6  and  CA_7 
REMARK    3  A    between atoms: CA_7  and  C_8 
REMARK    4  A    between atoms: CA_7  and  CB_10 
REMARK       I    between atoms: C_8  and  N_17 
REMARK    5  A    between atoms: CB_10  and  CG_11 
REMARK    6  A    between atoms: N_17  and  CA_18 
REMARK    7  A    between atoms: CA_18  and  C_19 
REMARK    8  A    between atoms: CA_18  and  CB_21 
REMARK       I    between atoms: C_19  and  N_25 
REMARK    9  A    between atoms: CB_21  and  OG_22 
REMARK   10  A    between atoms: N_25  and  CA_26 
REMARK   11  A    between atoms: CA_26  and  C_27 
REMARK   12  A    between atoms: CA_26  and  CB_29 
REMARK   13  A    between atoms: CB_29  and  OG_30 
ROOT
ATOM      1  C   HIS B 399      35.858 -12.210  -9.218  1.00 17.93     0.241 C 
ATOM      2  O   HIS B 399      35.106 -12.140 -10.191  1.00 15.41    -0.271 OA
ATOM      3  N   SER B 400      37.105 -11.752  -9.226  1.00 17.64    -0.344 N 
ATOM      4  H   SER B 400      37.631 -11.792  -8.547  1.00 17.64     0.163 HD
ENDROOT
BRANCH   1   5
ATOM      5  CA  HIS B 399      35.386 -12.842  -7.914  1.00 18.55     0.182 C 
BRANCH   5   6
ATOM      6  N   HIS B 399      34.022 -13.329  -8.059  1.00 19.43    -0.345 N 
ATOM      7  H   HIS B 399      33.758 -13.409  -8.873  1.00 19.43     0.163 HD
ATOM      8  C   ALA B 398      33.269 -13.619  -7.002  1.00 22.32     0.257 C 
ATOM      9  O   ALA B 398      33.664 -13.485  -5.842  1.00 22.30    -0.271 OA
BRANCH   8  10
ATOM     10  CA  ALA B 398      31.862 -14.130  -7.299  1.00 21.39     0.396 C 
ATOM     11  N   ALA B 398      31.364 -15.020  -6.208  1.00 23.95     0.614 N 
ATOM     12  CB  ALA B 398      30.908 -12.959  -7.488  1.00 21.38     0.059 C 
ENDBRANCH   8  10
ENDBRANCH   5   6
BRANCH   5  13
ATOM     13  CB  HIS B 399      36.309 -14.003  -7.539  1.00 22.49     0.095 C 
BRANCH  13  14
ATOM     14  CG  HIS B 399      36.335 -15.099  -8.557  1.00 24.90     0.056 A 
ATOM     15  CD2 HIS B 399      35.637 -16.256  -8.638  1.00 26.88     0.145 A 
ATOM     16  NE2 HIS B 399      35.999 -16.866  -9.814  1.00 28.66    -0.252 NA
ATOM     17  CE1 HIS B 399      36.890 -16.112 -10.433  1.00 27.08     0.232 A 
ATOM     18  ND1 HIS B 399      37.112 -15.039  -9.694  1.00 26.64    -0.245 NA
ENDBRANCH  13  14
ENDBRANCH   5  13
ENDBRANCH   1   5
BRANCH   3  19
ATOM     19  CA  SER B 400      37.702 -11.132 -10.405  1.00 19.59     0.200 C 
BRANCH  19  20
ATOM     20  C   SER B 400      38.130 -12.208 -11.396  1.00 19.52     0.243 C 
ATOM     21  N   SER B 401      38.152 -11.862 -12.681  1.00 18.79    -0.345 N 
ATOM     22  H   SER B 401      37.942 -11.081 -12.973  1.00 18.79     0.163 HD
ATOM     23  O   SER B 400      38.441 -13.332 -11.000  1.00 19.53    -0.271 OA
BRANCH  21  24
ATOM     24  CA  SER B 401      38.545 -12.811 -13.719  1.00 20.07     0.186 C 
BRANCH  24  25
ATOM     25  C   SER B 401      40.021 -13.157 -13.586  1.00 22.19     0.221 C 
ATOM     26  O   SER B 401      40.391 -14.293 -13.953  1.00 22.82    -0.287 OA
ENDBRANCH  24  25
BRANCH  24  27
ATOM     27  CB  SER B 401      38.274 -12.238 -15.115  1.00 19.03     0.197 C 
BRANCH  27  28
ATOM     28  OG  SER B 401      39.153 -11.168 -15.419  1.00 19.07    -0.398 OA
ATOM     29  HG  SER B 401      38.852 -10.456 -15.091  1.00 19.07     0.209 HD
ENDBRANCH  27  28
ENDBRANCH  24  27
ENDBRANCH  21  24
ENDBRANCH  19  20
BRANCH  19  30
ATOM     30  CB  SER B 400      38.922 -10.301 -10.000  1.00 20.99     0.199 C 
BRANCH  30  31
ATOM     31  OG  SER B 400      39.625  -9.845 -11.145  1.00 29.12    -0.398 OA
ATOM     32  HG  SER B 400      40.289  -9.391 -10.904  1.00 29.12     0.209 HD
ENDBRANCH  30  31
ENDBRANCH  19  30
ENDBRANCH   3  19
TORSDOF 13
