USER: ADFR SOLUTION from run 0
USER: SCORE 12.905889 LL:  -1.126 LR: -13.484 RR:   0.000 FEB:  -9.904
USER: RMSD 0.635690
USER: STATUS Locally minimized using BFGS
USER: GENES 14
USER: genes 0 Translation |==|  0.34303 0.56202 0.50839
USER: genes 1 Rotation |==|  0.49507 0.49946 0.50454 0.99995
USER: genes 2 Torsion [CB]-CA--N-[H1] |==|  0.21148
USER: genes 3 Torsion [N]-CA--CB-[CG] |==|  0.89301
USER: genes 4 Torsion [CA]-CB--CG-[CD] |==|  0.84457
USER: genes 5 Torsion [CB]-CG--CD-[NE] |==|  0.51743
USER: genes 6 Torsion [CG]-CD--NE-[CZ] |==|  0.78136
USER: genes 7 Torsion [N]-CA--C-[N] |==|  0.43131
USER: genes 8 Torsion [C]-N--CA-[CB] |==|  0.36146
USER: genes 9 Torsion [N]-CA--CB-[CG2] |==|  0.22483
USER: genes 10 Torsion [CA]-CB--CG1-[CD1] |==|  0.22477
USER: genes 11 Torsion [N]-CA--C-[N] |==|  0.36938
USER: genes 12 Torsion [C]-N--CA-[CB] |==|  0.37421
USER: genes 13 Torsion [N]-CA--C-[O] |==|  0.86945
ROOT
ATOM      1  CA  ARG B   1      26.796  10.928  -8.557  1.00 59.17 LIG 0.27  C 
ENDROOT
BRANCH 1 2
ATOM      2  N   ARG B   1      26.245  12.196  -9.108  1.00 58.83 LIG-0.07  N 
ATOM      3 H3   ARG B   1      26.914  12.749  -9.308  1.00 58.83 LIG 0.28  HD
ATOM      4 H2   ARG B   1      25.717  12.578  -8.503  1.00 58.83 LIG 0.28  HD
ATOM      5 H1   ARG B   1      25.776  12.021  -9.843  1.00 58.83 LIG 0.28  HD
ENDBRANCH 1 2
BRANCH 1 6
ATOM      6  CB  ARG B   1      28.000  10.441  -9.374  1.00 59.00 LIG 0.04  C 
BRANCH 6 7
ATOM      7  CG  ARG B   1      27.891  10.635 -10.888  1.00 58.73 LIG 0.02  C 
BRANCH 7 8
ATOM      8  CD  ARG B   1      26.644   9.985 -11.491  1.00 57.79 LIG 0.14  C 
BRANCH 8 9
ATOM      9  NE  ARG B   1      26.651  10.065 -12.954  1.00 57.71 LIG-0.23  N 
ATOM     10  CZ  ARG B   1      26.329  11.148 -13.660  1.00 57.43 LIG 0.67  C 
ATOM     11  NH1 ARG B   1      25.962  12.271 -13.056  1.00 56.57 LIG-0.23  N 
ATOM     12  NH2 ARG B   1      26.380  11.110 -14.986  1.00 57.93 LIG-0.23  N 
ATOM     13 2HH1 ARG B   1      25.758  12.963 -13.523  1.00 56.57 LIG 0.17  HD
ATOM     14 1HH1 ARG B   1      25.929  12.307 -12.197  1.00 56.57 LIG 0.17  HD
ATOM     15 2HH2 ARG B   1      26.173  11.808 -15.444  1.00 57.93 LIG 0.17  HD
ATOM     16 1HH2 ARG B   1      26.619  10.388 -15.386  1.00 57.93 LIG 0.17  HD
ATOM     17 HE   ARG B   1      26.880   9.359 -13.390  1.00 57.71 LIG 0.18  HD
ENDBRANCH 8 9
ENDBRANCH 7 8
ENDBRANCH 6 7
ENDBRANCH 1 6
BRANCH 1 18
ATOM     18  C   ARG B   1      27.207  11.115  -7.109  1.00 59.69 LIG 0.25  C 
ATOM     19 O    ARG B   1      27.489  12.232  -6.682  1.00 59.48 LIG-0.27  OA
ATOM     20  N   ILE B   2      27.229  10.020  -6.357  1.00 60.56 LIG-0.35  N 
ATOM     21 H    ILE B   2      26.966   9.246  -6.624  1.00 60.56 LIG 0.16  HD
BRANCH 20 22
ATOM     22  CA  ILE B   2      27.714  10.056  -4.983  1.00 61.73 LIG 0.18  C 
BRANCH 22 23
ATOM     23  CB  ILE B   2      26.718   9.382  -3.987  1.00 61.78 LIG 0.01  C 
ATOM     24  CG2 ILE B   2      26.849   7.851  -3.981  1.00 61.94 LIG 0.01  C 
BRANCH 23 25
ATOM     25  CG1 ILE B   2      26.870   9.975  -2.582  1.00 62.37 LIG 0.00  C 
ATOM     26  CD1 ILE B   2      26.145  11.301  -2.390  1.00 63.06 LIG 0.01  C 
ENDBRANCH 23 25
ENDBRANCH 22 23
BRANCH 22 27
ATOM     27  C   ILE B   2      29.112   9.443  -4.924  1.00 62.33 LIG 0.24  C 
ATOM     28 O    ILE B   2      29.359   8.383  -5.511  1.00 62.62 LIG-0.27  OA
ATOM     29  N   ALA B   3      30.027  10.132  -4.242  1.00 63.04 LIG-0.35  N 
ATOM     30 H    ALA B   3      29.854  10.846  -3.796  1.00 63.04 LIG 0.16  HD
BRANCH 29 31
ATOM     31  CA  ALA B   3      31.433   9.716  -4.195  1.00 63.50 LIG 0.16  C 
ATOM     32  CB  ALA B   3      32.356  10.918  -4.417  1.00 63.68 LIG 0.04  C 
BRANCH 31 33
ATOM     33  C   ALA B   3      31.792   8.993  -2.900  1.00 63.68 LIG 0.22  C 
ATOM     34 O    ALA B   3      31.453   9.443  -1.805  1.00 63.94 LIG-0.29  OA
ENDBRANCH 31 33
ENDBRANCH 29 31
ENDBRANCH 22 27
ENDBRANCH 20 22
ENDBRANCH 1 18
TORSDOF 12
