USER: ADFR SOLUTION from run 0
USER: SCORE 13.580199 LL:  -1.334 LR: -13.950 RR:   0.000 FEB: -10.073
USER: RMSD 1.152740
USER: STATUS Locally minimized using BFGS
USER: GENES 15
USER: genes 0 Translation |==|  0.36134 0.55179 0.57174
USER: genes 1 Rotation |==|  0.44345 0.47658 0.44074 0.99269
USER: genes 2 Torsion [N]-C--CA-[N] |==|  0.45657
USER: genes 3 Torsion [C]-CA--N-[H3] |==|  0.13650
USER: genes 4 Torsion [C]-CA--CB-[CG] |==|  0.53346
USER: genes 5 Torsion [CA]-CB--CG-[CD] |==|  0.75324
USER: genes 6 Torsion [CB]-CG--CD-[CE] |==|  0.60312
USER: genes 7 Torsion [CG]-CD--CE-[NZ] |==|  0.26571
USER: genes 8 Torsion [CD]-CE--NZ-[HZ3] |==|  0.14886
USER: genes 9 Torsion [C]-N--CA-[CB] |==|  0.36805
USER: genes 10 Torsion [N]-CA--CB-[CG2] |==|  0.38294
USER: genes 11 Torsion [CA]-CB--CG1-[CD1] |==|  0.75927
USER: genes 12 Torsion [N]-CA--C-[N] |==|  0.34063
USER: genes 13 Torsion [C]-N--CA-[CB] |==|  0.40281
USER: genes 14 Torsion [N]-CA--C-[O] |==|  0.13658
ROOT
ATOM      1  C   LYS B   1      27.022  11.515  -7.417  1.00 69.77 LIG 0.25  C 
ATOM      2 O    LYS B   1      27.333  12.653  -7.071  1.00 69.73 LIG-0.27  OA
ATOM      3  N   ILE B   2      27.057  10.466  -6.599  1.00 70.01 LIG-0.35  N 
ATOM      4 H    ILE B   2      26.799   9.677  -6.825  1.00 70.01 LIG 0.16  HD
ENDROOT
BRANCH 1 5
ATOM      5  CA  LYS B   1      26.559  11.243  -8.841  1.00 69.63 LIG 0.27  C 
BRANCH 5 6
ATOM      6  N   LYS B   1      26.206  12.516  -9.532  1.00 69.58 LIG-0.07  N 
ATOM      7 H3   LYS B   1      26.863  13.107  -9.422  1.00 69.58 LIG 0.28  HD
ATOM      8 H2   LYS B   1      25.454  12.843  -9.187  1.00 69.58 LIG 0.28  HD
ATOM      9 H1   LYS B   1      26.090  12.360 -10.400  1.00 69.58 LIG 0.28  HD
ENDBRANCH 5 6
BRANCH 5 10
ATOM     10  CB  LYS B   1      27.649  10.490  -9.613  1.00 69.57 LIG 0.04  C 
BRANCH 10 11
ATOM     11  CG  LYS B   1      27.431  10.410 -11.121  1.00 69.38 LIG 0.00  C 
BRANCH 11 12
ATOM     12  CD  LYS B   1      26.611   9.192 -11.525  1.00 68.73 LIG 0.03  C 
BRANCH 12 13
ATOM     13  CE  LYS B   1      27.111   8.605 -12.834  1.00 68.60 LIG 0.23  C 
BRANCH 13 14
ATOM     14  NZ  LYS B   1      28.064   7.480 -12.622  1.00 68.55 LIG-0.08  N 
ATOM     15 HZ1  LYS B   1      28.260   7.105 -13.404  1.00 68.55 LIG 0.27  HD
ATOM     16 HZ2  LYS B   1      28.809   7.789 -12.246  1.00 68.55 LIG 0.27  HD
ATOM     17 HZ3  LYS B   1      27.693   6.872 -12.088  1.00 68.55 LIG 0.27  HD
ENDBRANCH 13 14
ENDBRANCH 12 13
ENDBRANCH 11 12
ENDBRANCH 10 11
ENDBRANCH 5 10
ENDBRANCH 1 5
BRANCH 3 18
ATOM     18  CA  ILE B   2      27.543  10.565  -5.225  1.00 70.34 LIG 0.18  C 
BRANCH 18 19
ATOM     19  CB  ILE B   2      26.570   9.878  -4.216  1.00 70.35 LIG 0.01  C 
ATOM     20  CG2 ILE B   2      27.323   9.061  -3.153  1.00 70.46 LIG 0.01  C 
BRANCH 19 21
ATOM     21  CG1 ILE B   2      25.643  10.915  -3.560  1.00 70.36 LIG 0.00  C 
ATOM     22  CD1 ILE B   2      26.193  11.605  -2.311  1.00 70.48 LIG 0.01  C 
ENDBRANCH 19 21
ENDBRANCH 18 19
BRANCH 18 23
ATOM     23  C   ILE B   2      28.958  10.003  -5.110  1.00 70.53 LIG 0.24  C 
ATOM     24 O    ILE B   2      29.208   8.845  -5.458  1.00 70.63 LIG-0.27  OA
ATOM     25  N   ALA B   3      29.877  10.842  -4.636  1.00 70.71 LIG-0.35  N 
ATOM     26 H    ALA B   3      29.711  11.661  -4.431  1.00 70.71 LIG 0.16  HD
BRANCH 25 27
ATOM     27  CA  ALA B   3      31.265  10.445  -4.416  1.00 70.82 LIG 0.16  C 
ATOM     28  CB  ALA B   3      32.205  11.605  -4.717  1.00 70.79 LIG 0.04  C 
BRANCH 27 29
ATOM     29  C   ALA B   3      31.473   9.942  -2.988  1.00 70.87 LIG 0.22  C 
ATOM     30 O    ALA B   3      30.716   9.103  -2.495  1.00 70.95 LIG-0.29  OA
ENDBRANCH 27 29
ENDBRANCH 25 27
ENDBRANCH 18 23
ENDBRANCH 3 18
TORSDOF 13
