USER: ADFR SOLUTION from run 0
USER: SCORE 12.013723 LL:  -2.095 LR: -12.591 RR:   0.000 FEB:  -8.117
USER: RMSD 1.579207
USER: STATUS Locally minimized using BFGS
USER: GENES 17
USER: genes 0 Translation |==|  0.56244 0.41018 0.66691
USER: genes 1 Rotation |==|  0.49311 0.49851 0.48756 0.99980
USER: genes 2 Torsion [C]-N--CA-[CB] |==|  0.22315
USER: genes 3 Torsion [N]-CA--CB-[CG] |==|  0.56665
USER: genes 4 Torsion [CA]-CB--CG-[CD] |==|  0.76235
USER: genes 5 Torsion [CB]-CG--CD-[OE1] |==|  0.89158
USER: genes 6 Torsion [N]-CA--C-[N] |==|  0.40157
USER: genes 7 Torsion [C]-N--CA-[CB] |==|  0.27710
USER: genes 8 Torsion [N]-CA--C-[N] |==|  0.22916
USER: genes 9 Torsion [C]-N--CA-[CB] |==|  0.45384
USER: genes 10 Torsion [N]-CA--C-[O] |==|  0.89667
USER: genes 11 Torsion [N]-C--CA-[N] |==|  0.47835
USER: genes 12 Torsion [C]-CA--N-[H3] |==|  0.20116
USER: genes 13 Torsion [C]-CA--CB-[CG] |==|  0.52932
USER: genes 14 Torsion [CA]-CB--CG-[CD] |==|  0.80645
USER: genes 15 Torsion [CB]-CG--CD-[NE] |==|  0.51629
USER: genes 16 Torsion [CG]-CD--NE-[HE] |==|  0.31707
ROOT
ATOM      1  C   ARG X   1     -41.181  11.718  -6.250  1.00 28.35 LIG 0.25  C 
ATOM      2 O    ARG X   1     -40.580  10.677  -6.005  1.00 27.73 LIG-0.27  OA
ATOM      3  N   GLU X   2     -42.233  11.768  -7.057  1.00 29.79 LIG-0.35  N 
ATOM      4 H    GLU X   2     -42.741  12.456  -7.142  1.00 29.79 LIG 0.16  HD
ENDROOT
BRANCH 3 5
ATOM      5  CA  GLU X   2     -42.614  10.635  -7.878  1.00 30.62 LIG 0.18  C 
BRANCH 5 6
ATOM      6  CB  GLU X   2     -43.397   9.588  -7.081  1.00 30.95 LIG 0.04  C 
BRANCH 6 7
ATOM      7  CG  GLU X   2     -43.322   8.171  -7.680  1.00 31.16 LIG 0.12  C 
BRANCH 7 8
ATOM      8  CD  GLU X   2     -44.363   7.900  -8.769  1.00 32.27 LIG 0.17  C 
ATOM      9 OE1  GLU X   2     -45.514   8.355  -8.627  1.00 31.08 LIG-0.65  OA
ATOM     10 OE2  GLU X   2     -44.034   7.212  -9.762  1.00 30.98 LIG-0.65  OA
ENDBRANCH 7 8
ENDBRANCH 6 7
ENDBRANCH 5 6
BRANCH 5 11
ATOM     11  C   GLU X   2     -43.454  11.148  -9.027  1.00 31.96 LIG 0.24  C 
ATOM     12  N   ALA X   3     -43.288  10.515 -10.177  1.00 33.07 LIG-0.35  N 
ATOM     13 H    ALA X   3     -42.717   9.885 -10.303  1.00 33.07 LIG 0.16  HD
ATOM     14 O    GLU X   2     -44.233  12.097  -8.874  1.00 31.51 LIG-0.27  OA
BRANCH 12 15
ATOM     15  CA  ALA X   3     -44.087  10.851 -11.343  1.00 34.83 LIG 0.17  C 
ATOM     16  CB  ALA X   3     -43.293  11.761 -12.287  1.00 34.52 LIG 0.04  C 
BRANCH 15 17
ATOM     17  C   ALA X   3     -44.493   9.568 -12.036  1.00 35.72 LIG 0.24  C 
ATOM     18  N   ALA X   4     -45.559   8.944 -11.534  1.00 36.94 LIG-0.34  N 
ATOM     19 H    ALA X   4     -45.991   9.227 -10.847  1.00 36.94 LIG 0.16  HD
ATOM     20 O    ALA X   3     -43.835   9.142 -12.987  1.00 36.60 LIG-0.27  OA
BRANCH 18 21
ATOM     21  CA  ALA X   4     -46.103   7.708 -12.104  1.00 37.95 LIG 0.18  C 
ATOM     22  CB  ALA X   4     -47.034   7.022 -11.106  1.00 38.38 LIG 0.04  C 
BRANCH 21 23
ATOM     23  C   ALA X   4     -46.835   7.956 -13.420  1.00 38.48 LIG 0.20  C 
ATOM     24 O    ALA X   4     -47.515   8.967 -13.603  1.00 38.71 LIG-0.65  OA
ATOM     25 OXT  ALA X   4     -46.761   7.143 -14.339  1.00 39.00 LIG-0.65  OA
ENDBRANCH 21 23
ENDBRANCH 18 21
ENDBRANCH 15 17
ENDBRANCH 12 15
ENDBRANCH 5 11
ENDBRANCH 3 5
BRANCH 1 26
ATOM     26  CA  ARG X   1     -40.755  13.039  -5.628  1.00 28.22 LIG 0.27  C 
BRANCH 26 27
ATOM     27  N   ARG X   1     -39.687  12.847  -4.598  1.00 27.64 LIG-0.07  N 
ATOM     28 H3   ARG X   1     -38.920  12.644  -5.000  1.00 27.64 LIG 0.28  HD
ATOM     29 H2   ARG X   1     -39.918  12.185  -4.049  1.00 27.64 LIG 0.28  HD
ATOM     30 H1   ARG X   1     -39.588  13.598  -4.130  1.00 27.64 LIG 0.28  HD
ENDBRANCH 26 27
BRANCH 26 31
ATOM     31  CB  ARG X   1     -40.277  13.973  -6.747  1.00 28.04 LIG 0.04  C 
BRANCH 31 32
ATOM     32  CG  ARG X   1     -39.588  15.232  -6.289  1.00 27.94 LIG 0.02  C 
BRANCH 32 33
ATOM     33  CD  ARG X   1     -40.541  16.225  -5.612  1.00 29.24 LIG 0.14  C 
BRANCH 33 34
ATOM     34  NE  ARG X   1     -39.842  17.477  -5.318  1.00 27.62 LIG-0.23  N 
ATOM     35 HE   ARG X   1     -40.094  18.184  -5.737  1.00 27.62 LIG 0.18  HD
ATOM     36  CZ  ARG X   1     -38.843  17.595  -4.447  1.00 28.90 LIG 0.67  C 
ATOM     37  NH2 ARG X   1     -38.418  16.541  -3.755  1.00 29.13 LIG-0.23  N 
ATOM     38  NH1 ARG X   1     -38.268  18.776  -4.257  1.00 27.97 LIG-0.23  N 
ATOM     39 1HH2 ARG X   1     -38.789  15.773  -3.869  1.00 29.13 LIG 0.17  HD
ATOM     40 2HH2 ARG X   1     -37.771  16.626  -3.194  1.00 29.13 LIG 0.17  HD
ATOM     41 2HH1 ARG X   1     -37.622  18.855  -3.695  1.00 27.97 LIG 0.17  HD
ATOM     42 1HH1 ARG X   1     -38.542  19.463  -4.696  1.00 27.97 LIG 0.17  HD
ENDBRANCH 33 34
ENDBRANCH 32 33
ENDBRANCH 31 32
ENDBRANCH 26 31
ENDBRANCH 1 26
TORSDOF 15
