USER: ADFR SOLUTION from run 0
USER: SCORE 12.328750 LL:  -2.047 LR: -13.139 RR:   0.000 FEB:  -8.367
USER: RMSD 0.549401
USER: STATUS Locally minimized using BFGS
USER: GENES 18
USER: genes 0 Translation |==|  0.58963 0.47318 0.59621
USER: genes 1 Rotation |==|  0.50039 0.50345 0.49104 0.99991
USER: genes 2 Torsion [C]-CA--CB-[CG] |==|  0.88695
USER: genes 3 Torsion [CA]-CB--CG-[CD] |==|  0.56570
USER: genes 4 Torsion [CB]-CG--CD-[NE] |==|  0.77580
USER: genes 5 Torsion [CG]-CD--NE-[HE] |==|  0.96185
USER: genes 6 Torsion [N]-CA--C-[N] |==|  0.42363
USER: genes 7 Torsion [C]-N--CA-[CB] |==|  0.47222
USER: genes 8 Torsion [N]-CA--C-[N] |==|  0.27037
USER: genes 9 Torsion [C]-N--CA-[CB] |==|  0.85580
USER: genes 10 Torsion [N]-CA--C-[OXT] |==|  0.47493
USER: genes 11 Torsion [CB]-CA--N-[C] |==|  0.39135
USER: genes 12 Torsion [N]-C--CA-[N] |==|  0.47165
USER: genes 13 Torsion [C]-CA--CB-[CG] |==|  0.53821
USER: genes 14 Torsion [CA]-CB--CG-[CD] |==|  0.79252
USER: genes 15 Torsion [CB]-CG--CD-[NE] |==|  0.50994
USER: genes 16 Torsion [CG]-CD--NE-[HE] |==|  0.34936
USER: genes 17 Torsion [C]-CA--N-[H3] |==|  0.18705
ROOT
ATOM      1  CA  ARG X   2     -29.387  -6.493  -7.850  1.00 56.86 LIG 0.18  C 
ENDROOT
BRANCH 1 2
ATOM      2  CB  ARG X   2     -29.936  -7.922  -7.811  1.00 56.93 LIG 0.04  C 
BRANCH 2 3
ATOM      3  CG  ARG X   2     -30.992  -8.215  -8.866  1.00 58.33 LIG 0.02  C 
BRANCH 3 4
ATOM      4  CD  ARG X   2     -31.891  -9.361  -8.471  1.00 61.73 LIG 0.14  C 
BRANCH 4 5
ATOM      5  NE  ARG X   2     -31.300 -10.674  -8.724  1.00 63.99 LIG-0.23  N 
ATOM      6 HE   ARG X   2     -30.602 -10.706  -9.224  1.00 63.99 LIG 0.18  HD
ATOM      7  CZ  ARG X   2     -31.766 -11.825  -8.233  1.00 64.82 LIG 0.67  C 
ATOM      8  NH1 ARG X   2     -32.834 -11.855  -7.440  1.00 63.71 LIG-0.23  N 
ATOM      9  NH2 ARG X   2     -31.149 -12.960  -8.537  1.00 65.19 LIG-0.23  N 
ATOM     10 2HH1 ARG X   2     -33.121 -12.606  -7.134  1.00 63.71 LIG 0.17  HD
ATOM     11 1HH1 ARG X   2     -33.237 -11.124  -7.234  1.00 63.71 LIG 0.17  HD
ATOM     12 2HH2 ARG X   2     -31.443 -13.706  -8.226  1.00 65.19 LIG 0.17  HD
ATOM     13 1HH2 ARG X   2     -30.456 -12.950  -9.046  1.00 65.19 LIG 0.17  HD
ENDBRANCH 4 5
ENDBRANCH 3 4
ENDBRANCH 2 3
ENDBRANCH 1 2
BRANCH 1 14
ATOM     14  C   ARG X   2     -29.181  -6.042  -9.287  1.00 57.66 LIG 0.24  C 
ATOM     15  N   ALA X   3     -28.017  -6.364  -9.854  1.00 58.84 LIG-0.35  N 
ATOM     16 H    ALA X   3     -27.384  -6.774  -9.442  1.00 58.84 LIG 0.16  HD
ATOM     17 O    ARG X   2     -30.070  -5.409  -9.864  1.00 57.54 LIG-0.27  OA
BRANCH 15 18
ATOM     18  CA  ALA X   3     -27.712  -6.042 -11.255  1.00 60.16 LIG 0.17  C 
ATOM     19  CB  ALA X   3     -26.231  -6.300 -11.574  1.00 60.10 LIG 0.04  C 
BRANCH 18 20
ATOM     20  C   ALA X   3     -28.622  -6.821 -12.204  1.00 60.84 LIG 0.24  C 
ATOM     21  N   ALA X   4     -29.690  -6.149 -12.646  1.00 61.66 LIG-0.34  N 
ATOM     22 H    ALA X   4     -29.832  -5.326 -12.440  1.00 61.66 LIG 0.16  HD
ATOM     23 O    ALA X   3     -28.369  -7.994 -12.505  1.00 61.07 LIG-0.27  OA
BRANCH 21 24
ATOM     24  CA  ALA X   4     -30.739  -6.709 -13.522  1.00 62.39 LIG 0.18  C 
ATOM     25  CB  ALA X   4     -30.133  -7.371 -14.775  1.00 62.29 LIG 0.04  C 
BRANCH 24 26
ATOM     26  C   ALA X   4     -31.718  -7.650 -12.806  1.00 62.72 LIG 0.20  C 
ATOM     27 OXT  ALA X   4     -32.739  -8.062 -13.366  1.00 62.96 LIG-0.65  OA
ATOM     28 O    ALA X   4     -31.530  -8.020 -11.644  1.00 63.08 LIG-0.65  OA
ENDBRANCH 24 26
ENDBRANCH 21 24
ENDBRANCH 18 20
ENDBRANCH 15 18
ENDBRANCH 1 14
BRANCH 1 29
ATOM     29  N   ARG X   2     -30.310  -5.572  -7.196  1.00 55.62 LIG-0.35  N 
ATOM     30 H    ARG X   2     -31.140  -5.735  -7.352  1.00 55.62 LIG 0.16  HD
ATOM     31  C   ARG X   1     -29.884  -4.569  -6.429  1.00 54.36 LIG 0.25  C 
ATOM     32 O    ARG X   1     -28.694  -4.380  -6.171  1.00 54.20 LIG-0.27  OA
BRANCH 31 33
ATOM     33  CA  ARG X   1     -30.958  -3.634  -5.883  1.00 53.49 LIG 0.27  C 
BRANCH 33 34
ATOM     34  CB  ARG X   1     -31.580  -2.846  -7.042  1.00 53.17 LIG 0.04  C 
BRANCH 34 35
ATOM     35  CG  ARG X   1     -32.427  -1.648  -6.646  1.00 51.16 LIG 0.02  C 
BRANCH 35 36
ATOM     36  CD  ARG X   1     -33.768  -2.071  -6.094  1.00 48.38 LIG 0.14  C 
BRANCH 36 37
ATOM     37  NE  ARG X   1     -34.626  -0.928  -5.787  1.00 47.01 LIG-0.23  N 
ATOM     38 HE   ARG X   1     -35.410  -0.914  -6.141  1.00 47.01 LIG 0.18  HD
ATOM     39  CZ  ARG X   1     -34.287   0.097  -5.002  1.00 46.53 LIG 0.67  C 
ATOM     40  NH2 ARG X   1     -35.160   1.076  -4.787  1.00 45.07 LIG-0.23  N 
ATOM     41  NH1 ARG X   1     -33.088   0.151  -4.425  1.00 44.67 LIG-0.23  N 
ATOM     42 2HH2 ARG X   1     -34.948   1.738  -4.281  1.00 45.07 LIG 0.17  HD
ATOM     43 1HH2 ARG X   1     -35.938   1.046  -5.152  1.00 45.07 LIG 0.17  HD
ATOM     44 2HH1 ARG X   1     -32.883   0.817  -3.922  1.00 44.67 LIG 0.17  HD
ATOM     45 1HH1 ARG X   1     -32.519  -0.480  -4.557  1.00 44.67 LIG 0.17  HD
ENDBRANCH 36 37
ENDBRANCH 35 36
ENDBRANCH 34 35
ENDBRANCH 33 34
BRANCH 33 46
ATOM     46  N   ARG X   1     -30.404  -2.707  -4.852  1.00 53.50 LIG-0.07  N 
ATOM     47 H1   ARG X   1     -31.068  -2.249  -4.476  1.00 53.50 LIG 0.28  HD
ATOM     48 H3   ARG X   1     -29.834  -2.142  -5.236  1.00 53.50 LIG 0.28  HD
ATOM     49 H2   ARG X   1     -29.978  -3.178  -4.228  1.00 53.50 LIG 0.28  HD
ENDBRANCH 33 46
ENDBRANCH 31 33
ENDBRANCH 1 29
TORSDOF 16
