REMARK  25 active torsions:
REMARK  status: ('A' for Active; 'I' for Inactive)
REMARK    1  A    between atoms: CA_2  and  C_3 
REMARK       I    between atoms: C_3  and  N_8 
REMARK    2  A    between atoms: N_8  and  CA_9 
REMARK    3  A    between atoms: CA_9  and  C_10 
REMARK    4  A    between atoms: CA_9  and  CB_12 
REMARK       I    between atoms: C_10  and  N_20 
REMARK    5  A    between atoms: CB_12  and  CG_13 
REMARK    6  A    between atoms: CG_13  and  CD_14 
REMARK       I    between atoms: CD_14  and  NE2_16 
REMARK    7  A    between atoms: N_20  and  CA_21 
REMARK    8  A    between atoms: CA_21  and  CB_24 
REMARK    9  A    between atoms: CA_21  and  C_22 
REMARK       I    between atoms: C_22  and  N_29 
REMARK   10  A    between atoms: CB_24  and  CG1_25 
REMARK   11  A    between atoms: N_29  and  CA_30 
REMARK   12  A    between atoms: CA_30  and  CB_33 
REMARK   13  A    between atoms: CA_30  and  C_31 
REMARK       I    between atoms: C_31  and  N_38 
REMARK   14  A    between atoms: CB_33  and  CG1_34 
REMARK   15  A    between atoms: N_38  and  CA_39 
REMARK   16  A    between atoms: CA_39  and  CB_42 
REMARK   17  A    between atoms: CA_39  and  C_40 
REMARK       I    between atoms: C_40  and  N_49 
REMARK   18  A    between atoms: CB_42  and  CG_43 
REMARK       I    between atoms: CG_43  and  ND2_45 
REMARK   19  A    between atoms: N_49  and  CA_50 
REMARK   20  A    between atoms: CA_50  and  CB_53 
REMARK   21  A    between atoms: CA_50  and  C_51 
REMARK       I    between atoms: C_51  and  N_66 
REMARK   22  A    between atoms: CB_53  and  CG_54 
REMARK   23  A    between atoms: CG_54  and  CD_55 
REMARK   24  A    between atoms: CD_55  and  NE_56 
REMARK       I    between atoms: NE_56  and  CZ_57 
REMARK       I    between atoms: CZ_57  and  NH1_58 
REMARK   25  A    between atoms: CA_67  and  C_68 
ROOT
ATOM      1  C   ILE B 120      -2.435  32.718  56.115  1.00 16.04     0.241 C 
ATOM      2  O   ILE B 120      -3.438  32.811  55.408  1.00 15.27    -0.271 OA
ATOM      3  N   ASN B 121      -2.475  32.441  57.418  1.00 16.46    -0.346 N 
ATOM      4  H   ASN B 121      -1.775  32.277  57.890  1.00 16.46     0.163 HD
ENDROOT
BRANCH   1   5
ATOM      5  CA  ILE B 120      -1.051  32.797  55.487  1.00 16.12     0.180 C 
BRANCH   5   6
ATOM      6  N   ILE B 120      -1.011  31.695  54.483  1.00 14.41    -0.346 N 
ATOM      7  H   ILE B 120      -1.633  31.752  53.892  1.00 14.41     0.163 HD
ATOM      8  C   ILE B 119      -0.110  30.715  54.487  1.00 14.21     0.241 C 
ATOM      9  O   ILE B 119       0.773  30.567  55.340  1.00 13.95    -0.271 OA
BRANCH   8  10
ATOM     10  CA  ILE B 119      -0.261  29.676  53.386  1.00 14.01     0.180 C 
BRANCH  10  11
ATOM     11  CB  ILE B 119      -0.972  28.489  54.072  1.00 14.26     0.013 C 
ATOM     12  CG2 ILE B 119      -2.426  28.827  54.367  1.00 14.00     0.012 C 
BRANCH  11  13
ATOM     13  CG1 ILE B 119      -0.977  27.254  53.189  1.00 15.18     0.002 C 
ATOM     14  CD1 ILE B 119      -1.770  27.447  51.912  1.00 12.51     0.005 C 
ENDBRANCH  11  13
ENDBRANCH  10  11
BRANCH  10  15
ATOM     15  N   ILE B 119       1.091  29.343  52.902  1.00 12.55    -0.346 N 
ATOM     16  H   ILE B 119       1.571  28.926  53.481  1.00 12.55     0.163 HD
ATOM     17  C   GLN B 118       1.530  29.658  51.683  1.00 12.00     0.241 C 
ATOM     18  O   GLN B 118       0.815  30.151  50.795  1.00 12.29    -0.271 OA
BRANCH  17  19
ATOM     19  CA  GLN B 118       3.027  29.467  51.427  1.00 10.88     0.177 C 
BRANCH  19  20
ATOM     20  N   GLN B 118       3.255  29.104  50.028  1.00  9.13    -0.346 N 
ATOM     21  C   PRO B 117       3.833  27.942  49.703  1.00  5.97     0.254 C 
ATOM     22  O   PRO B 117       4.286  27.168  50.547  1.00  4.88    -0.271 OA
ATOM     23  H   GLN B 118       2.990  29.690  49.457  1.00  9.13     0.163 HD
BRANCH  21  24
ATOM     24  CA  PRO B 117       4.026  27.684  48.186  1.00  4.52     0.352 C 
ATOM     25  CB  PRO B 117       2.688  27.519  47.475  1.00  4.68     0.050 C 
ATOM     26  CG  PRO B 117       2.841  26.331  46.589  1.00  4.01     0.035 C 
ATOM     27  CD  PRO B 117       3.777  25.430  47.343  1.00  3.18     0.315 C 
ATOM     28  N   PRO B 117       4.701  26.397  47.960  1.00  3.80     0.318 N 
ENDBRANCH  21  24
ENDBRANCH  19  20
BRANCH  19  29
ATOM     29  CB  GLN B 118       3.723  30.762  51.713  1.00 12.35     0.044 C 
BRANCH  29  30
ATOM     30  CG  GLN B 118       5.199  30.639  51.620  1.00 13.74     0.105 C 
BRANCH  30  31
ATOM     31  CD  GLN B 118       5.858  31.698  52.394  1.00 14.95     0.215 C 
ATOM     32  NE2 GLN B 118       5.411  32.927  52.189  1.00 14.23    -0.370 N 
ATOM     33 2HE2 GLN B 118       5.745  33.585  52.630  1.00 14.23     0.159 HD
ATOM     34 1HE2 GLN B 118       4.786  33.067  51.615  1.00 14.23     0.159 HD
ATOM     35  OE1 GLN B 118       6.744  31.434  53.197  1.00 17.00    -0.274 OA
ENDBRANCH  30  31
ENDBRANCH  29  30
ENDBRANCH  19  29
ENDBRANCH  17  19
ENDBRANCH  10  15
ENDBRANCH   8  10
ENDBRANCH   5   6
BRANCH   5  36
ATOM     36  CB  ILE B 120      -0.893  34.170  54.882  1.00 15.78     0.013 C 
ATOM     37  CG2 ILE B 120      -1.088  35.228  55.959  1.00 15.40     0.012 C 
BRANCH  36  38
ATOM     38  CG1 ILE B 120       0.483  34.370  54.258  1.00 16.31     0.002 C 
ATOM     39  CD1 ILE B 120       0.687  35.807  53.713  1.00 16.15     0.005 C 
ENDBRANCH  36  38
ENDBRANCH   5  36
ENDBRANCH   1   5
BRANCH   3  40
ATOM     40  CA  ASN B 121      -3.717  32.391  58.167  1.00 16.96     0.185 C 
BRANCH  40  41
ATOM     41  CB  ASN B 121      -3.640  31.340  59.269  1.00 15.28     0.137 C 
BRANCH  41  42
ATOM     42  CG  ASN B 121      -3.855  29.939  58.735  1.00 13.24     0.217 C 
ATOM     43  OD1 ASN B 121      -4.000  29.759  57.524  1.00 13.18    -0.274 OA
ATOM     44  ND2 ASN B 121      -3.896  28.923  59.626  1.00 12.91    -0.370 N 
ATOM     45 2HD2 ASN B 121      -3.791  29.082  60.465  1.00 12.91     0.159 HD
ATOM     46 1HD2 ASN B 121      -4.027  28.118  59.354  1.00 12.91     0.159 HD
ENDBRANCH  41  42
ENDBRANCH  40  41
BRANCH  40  47
ATOM     47  C   ASN B 121      -3.936  33.788  58.780  1.00 17.96     0.241 C 
ATOM     48  N   ARG B 122      -5.060  34.424  58.453  1.00 20.13    -0.346 N 
ATOM     49  H   ARG B 122      -5.602  34.123  57.857  1.00 20.13     0.163 HD
ATOM     50  O   ASN B 121      -3.047  34.295  59.445  1.00 18.88    -0.271 OA
BRANCH  48  51
ATOM     51  CA  ARG B 122      -5.514  35.697  59.054  1.00 22.24     0.176 C 
BRANCH  51  52
ATOM     52  CB  ARG B 122      -5.654  36.761  57.989  1.00 21.82     0.036 C 
BRANCH  52  53
ATOM     53  CG  ARG B 122      -4.354  37.298  57.489  1.00 24.56     0.023 C 
BRANCH  53  54
ATOM     54  CD  ARG B 122      -4.557  38.628  56.790  1.00 26.52     0.138 C 
BRANCH  54  55
ATOM     55  NE  ARG B 122      -3.548  38.960  55.779  1.00 28.40    -0.227 N 
ATOM     56  CZ  ARG B 122      -2.223  38.789  55.876  1.00 28.18     0.665 C 
ATOM     57  NH2 ARG B 122      -1.453  39.159  54.855  1.00 29.45    -0.235 N 
ATOM     58  NH1 ARG B 122      -1.637  38.295  56.968  1.00 26.03    -0.235 N 
ATOM     59 HH21 ARG B 122      -1.808  39.501  54.150  1.00 29.45     0.174 HD
ATOM     60 HH22 ARG B 122      -0.600  39.056  54.900  1.00 29.45     0.174 HD
ATOM     61 HH11 ARG B 122      -2.114  38.071  57.648  1.00 26.03     0.174 HD
ATOM     62 HH12 ARG B 122      -0.783  38.200  56.992  1.00 26.03     0.174 HD
ATOM     63  HE  ARG B 122      -3.838  39.301  55.045  1.00 28.40     0.177 HD
ENDBRANCH  54  55
ENDBRANCH  53  54
ENDBRANCH  52  53
ENDBRANCH  51  52
BRANCH  51  64
ATOM     64  C   ARG B 122      -6.887  35.346  59.575  1.00 23.14     0.243 C 
ATOM     65  O   ARG B 122      -7.864  35.509  58.851  1.00 23.63    -0.271 OA
ATOM     66  N   PRO B 123      -6.974  34.817  60.806  1.00 23.72    -0.338 N 
ATOM     67  CA  PRO B 123      -8.264  34.393  61.336  1.00 24.06     0.165 C 
ATOM     68  CD  PRO B 123      -5.952  34.884  61.870  1.00 24.11     0.127 C 
ATOM     69  CB  PRO B 123      -7.863  33.441  62.458  1.00 24.84     0.035 C 
ATOM     70  CG  PRO B 123      -6.538  33.956  62.946  1.00 25.19     0.022 C 
BRANCH  67  71
ATOM     71  C   PRO B 123      -9.099  35.572  61.895  1.00 23.73     0.219 C 
ATOM     72  O   PRO B 123      -9.304  36.575  61.193  1.00 24.65    -0.287 OA
ENDBRANCH  67  71
ENDBRANCH  51  64
ENDBRANCH  48  51
ENDBRANCH  40  47
ENDBRANCH   3  40
TORSDOF 25
