USER: ADFR SOLUTION from run 0
USER: SCORE 24.758298 LL:  -4.859 LR: -22.436 RR:   0.000 FEB: -14.979
USER: RMSD 0.581857
USER: STATUS Locally minimized using BFGS
USER: GENES 27
USER: genes 0 Translation |==|  0.45156 0.49768 0.55974
USER: genes 1 Rotation |==|  0.50151 0.51444 0.49536 0.99977
USER: genes 2 Torsion [N]-C--CA-[N] |==|  0.31830
USER: genes 3 Torsion [C]-CA--N-[C] |==|  0.67222
USER: genes 4 Torsion [N]-C--CA-[N] |==|  0.37498
USER: genes 5 Torsion [C]-CA--CB-[CG2] |==|  0.19325
USER: genes 6 Torsion [CA]-CB--CG1-[CD1] |==|  0.82631
USER: genes 7 Torsion [C]-CA--N-[C] |==|  0.67942
USER: genes 8 Torsion [N]-C--CA-[N] |==|  0.43315
USER: genes 9 Torsion [C]-CA--N-[C] |==|  0.65654
USER: genes 10 Torsion [N]-C--CA-[CB] |==|  0.81102
USER: genes 11 Torsion [C]-CA--CB-[CG] |==|  0.46541
USER: genes 12 Torsion [CA]-CB--CG-[CD] |==|  0.58620
USER: genes 13 Torsion [CB]-CG--CD-[NE2] |==|  0.85733
USER: genes 14 Torsion [C]-CA--CB-[CG2] |==|  0.16635
USER: genes 15 Torsion [CA]-CB--CG1-[CD1] |==|  0.50781
USER: genes 16 Torsion [C]-N--CA-[CB] |==|  0.41779
USER: genes 17 Torsion [N]-CA--CB-[CG] |==|  0.79133
USER: genes 18 Torsion [CA]-CB--CG-[OD1] |==|  0.04384
USER: genes 19 Torsion [N]-CA--C-[N] |==|  0.31231
USER: genes 20 Torsion [C]-N--CA-[C] |==|  0.68081
USER: genes 21 Torsion [N]-CA--CB-[CG] |==|  0.81805
USER: genes 22 Torsion [CA]-CB--CG-[CD] |==|  0.53310
USER: genes 23 Torsion [CB]-CG--CD-[NE] |==|  0.57547
USER: genes 24 Torsion [CG]-CD--NE-[HE] |==|  0.34699
USER: genes 25 Torsion [N]-CA--C-[N] |==|  0.22334
USER: genes 26 Torsion [N]-CA--C-[O] |==|  0.14198
ROOT
ATOM      1  C   ILE B 120      -2.479  32.413  56.246  1.00 16.04 LIG 0.24  C 
ATOM      2 O    ILE B 120      -3.519  32.529  55.598  1.00 15.27 LIG-0.27  OA
ATOM      3  N   ASN B 121      -2.449  32.128  57.547  1.00 16.46 LIG-0.35  N 
ATOM      4 H    ASN B 121      -1.726  31.948  57.977  1.00 16.46 LIG 0.16  HD
ENDROOT
BRANCH 1 5
ATOM      5  CA  ILE B 120      -1.132  32.470  55.539  1.00 16.12 LIG 0.18  C 
BRANCH 5 6
ATOM      6  N   ILE B 120      -1.150  31.342  54.565  1.00 14.41 LIG-0.35  N 
ATOM      7 H    ILE B 120      -1.768  31.416  53.971  1.00 14.41 LIG 0.16  HD
ATOM      8  C   ILE B 119      -0.303  30.315  54.597  1.00 14.21 LIG 0.24  C 
ATOM      9 O    ILE B 119       0.570  30.143  55.455  1.00 13.95 LIG-0.27  OA
BRANCH 8 10
ATOM     10  CA  ILE B 119      -0.508  29.257  53.523  1.00 14.01 LIG 0.18  C 
BRANCH 10 11
ATOM     11  CB  ILE B 119      -1.173  28.078  54.268  1.00 14.26 LIG 0.01  C 
ATOM     12  CG2 ILE B 119      -2.594  28.432  54.681  1.00 14.00 LIG 0.01  C 
BRANCH 11 13
ATOM     13  CG1 ILE B 119      -1.264  26.843  53.390  1.00 15.18 LIG 0.00  C 
ATOM     14  CD1 ILE B 119      -2.127  27.056  52.162  1.00 12.51 LIG 0.01  C 
ENDBRANCH 11 13
ENDBRANCH 10 11
BRANCH 10 15
ATOM     15  N   ILE B 119       0.817  28.923  52.971  1.00 12.55 LIG-0.35  N 
ATOM     16 H    ILE B 119       1.345  28.556  53.542  1.00 12.55 LIG 0.16  HD
ATOM     17  C   GLN B 118       1.165  29.165  51.707  1.00 12.00 LIG 0.24  C 
ATOM     18 O    GLN B 118       0.379  29.581  50.839  1.00 12.29 LIG-0.27  OA
BRANCH 17 19
ATOM     19  CA  GLN B 118       2.646  28.991  51.362  1.00 10.88 LIG 0.18  C 
BRANCH 19 20
ATOM     20  N   GLN B 118       2.801  28.722  49.932  1.00  9.13 LIG-0.35  N 
ATOM     21  C   PRO B 117       3.433  27.624  49.502  1.00  5.97 LIG 0.25  C 
ATOM     22 O    PRO B 117       3.995  26.840  50.267  1.00  4.88 LIG-0.27  OA
ATOM     23 H    GLN B 118       2.458  29.318  49.415  1.00  9.13 LIG 0.16  HD
BRANCH 21 24
ATOM     24  CA  PRO B 117       3.537  27.464  47.963  1.00  4.52 LIG 0.35  C 
ATOM     25  CB  PRO B 117       2.171  27.210  47.336  1.00  4.68 LIG 0.05  C 
ATOM     26  CG  PRO B 117       2.366  26.089  46.374  1.00  4.01 LIG 0.04  C 
ATOM     27  CD  PRO B 117       3.432  25.243  47.009  1.00  3.18 LIG 0.32  C 
ATOM     28  N   PRO B 117       4.307  26.260  47.617  1.00  3.80 LIG 0.32  N 
ENDBRANCH 21 24
ENDBRANCH 19 20
BRANCH 19 29
ATOM     29  CB  GLN B 118       3.361  30.263  51.698  1.00 12.35 LIG 0.04  C 
BRANCH 29 30
ATOM     30  CG  GLN B 118       4.836  30.101  51.679  1.00 13.74 LIG 0.10  C 
BRANCH 30 31
ATOM     31  CD  GLN B 118       5.470  31.002  52.649  1.00 14.95 LIG 0.21  C 
ATOM     32  NE2 GLN B 118       5.115  32.275  52.573  1.00 14.23 LIG-0.37  N 
ATOM     33 22HE GLN B 118       5.438  32.845  53.130  1.00 14.23 LIG 0.16  HD
ATOM     34 21HE GLN B 118       4.560  32.531  51.968  1.00 14.23 LIG 0.16  HD
ATOM     35 OE1  GLN B 118       6.253  30.575  53.489  1.00 17.00 LIG-0.27  OA
ENDBRANCH 30 31
ENDBRANCH 29 30
ENDBRANCH 19 29
ENDBRANCH 17 19
ENDBRANCH 10 15
ENDBRANCH 8 10
ENDBRANCH 5 6
BRANCH 5 36
ATOM     36  CB  ILE B 120      -1.006  33.826  54.889  1.00 15.78 LIG 0.01  C 
ATOM     37  CG2 ILE B 120      -1.091  34.912  55.953  1.00 15.40 LIG 0.01  C 
BRANCH 36 38
ATOM     38  CG1 ILE B 120       0.313  33.988  54.144  1.00 16.31 LIG 0.00  C 
ATOM     39  CD1 ILE B 120       0.483  35.402  53.531  1.00 16.15 LIG 0.01  C 
ENDBRANCH 36 38
ENDBRANCH 5 36
ENDBRANCH 1 5
BRANCH 3 40
ATOM     40  CA  ASN B 121      -3.646  32.096  58.366  1.00 16.96 LIG 0.18  C 
BRANCH 40 41
ATOM     41  CB  ASN B 121      -3.488  31.103  59.513  1.00 15.28 LIG 0.14  C 
BRANCH 41 42
ATOM     42  CG  ASN B 121      -3.606  29.668  59.044  1.00 13.24 LIG 0.22  C 
ATOM     43 OD1  ASN B 121      -3.514  29.406  57.843  1.00 13.18 LIG-0.27  OA
ATOM     44  ND2 ASN B 121      -3.827  28.715  59.977  1.00 12.91 LIG-0.37  N 
ATOM     45 22HD ASN B 121      -3.886  28.931  60.807  1.00 12.91 LIG 0.16  HD
ATOM     46 21HD ASN B 121      -3.909  27.893  59.739  1.00 12.91 LIG 0.16  HD
ENDBRANCH 41 42
ENDBRANCH 40 41
BRANCH 40 47
ATOM     47  C   ASN B 121      -3.858  33.518  58.921  1.00 17.96 LIG 0.24  C 
ATOM     48  N   ARG B 122      -4.920  34.190  58.478  1.00 20.13 LIG-0.35  N 
ATOM     49 H    ARG B 122      -5.420  33.894  57.844  1.00 20.13 LIG 0.16  HD
ATOM     50 O    ASN B 121      -3.009  34.008  59.649  1.00 18.88 LIG-0.27  OA
BRANCH 48 51
ATOM     51  CA  ARG B 122      -5.369  35.498  59.003  1.00 22.24 LIG 0.18  C 
BRANCH 51 52
ATOM     52  CB  ARG B 122      -5.579  36.475  57.868  1.00 21.82 LIG 0.04  C 
BRANCH 52 53
ATOM     53  CG  ARG B 122      -4.329  36.839  57.138  1.00 24.56 LIG 0.02  C 
BRANCH 53 54
ATOM     54  CD  ARG B 122      -4.568  38.024  56.223  1.00 26.52 LIG 0.14  C 
BRANCH 54 55
ATOM     55  NE  ARG B 122      -3.691  38.092  55.050  1.00 28.40 LIG-0.23  N 
ATOM     56  CZ  ARG B 122      -2.352  38.085  55.043  1.00 28.18 LIG 0.67  C 
ATOM     57  NH2 ARG B 122      -1.717  38.163  53.875  1.00 29.45 LIG-0.23  N 
ATOM     58  NH1 ARG B 122      -1.624  38.038  56.160  1.00 26.03 LIG-0.23  N 
ATOM     59 1HH2 ARG B 122      -2.167  38.217  53.144  1.00 29.45 LIG 0.17  HD
ATOM     60 2HH2 ARG B 122      -0.857  38.160  53.852  1.00 29.45 LIG 0.17  HD
ATOM     61 1HH1 ARG B 122      -2.015  38.011  56.926  1.00 26.03 LIG 0.17  HD
ATOM     62 2HH1 ARG B 122      -0.766  38.035  56.114  1.00 26.03 LIG 0.17  HD
ATOM     63 HE   ARG B 122      -4.079  38.141  54.284  1.00 28.40 LIG 0.18  HD
ENDBRANCH 54 55
ENDBRANCH 53 54
ENDBRANCH 52 53
ENDBRANCH 51 52
BRANCH 51 64
ATOM     64  C   ARG B 122      -6.709  35.167  59.614  1.00 23.14 LIG 0.24  C 
ATOM     65 O    ARG B 122      -7.732  35.370  58.967  1.00 23.63 LIG-0.27  OA
ATOM     66  N   PRO B 123      -6.721  34.610  60.836  1.00 23.72 LIG-0.34  N 
ATOM     67  CA  PRO B 123      -7.979  34.203  61.448  1.00 24.06 LIG 0.17  C 
ATOM     68  CD  PRO B 123      -5.623  34.627  61.824  1.00 24.11 LIG 0.13  C 
ATOM     69  CB  PRO B 123      -7.523  33.215  62.516  1.00 24.84 LIG 0.04  C 
ATOM     70  CG  PRO B 123      -6.153  33.687  62.918  1.00 25.19 LIG 0.02  C 
BRANCH 67 71
ATOM     71  C   PRO B 123      -8.742  35.388  62.093  1.00 23.73 LIG 0.22  C 
ATOM     72 O    PRO B 123      -8.952  36.421  61.438  1.00 24.65 LIG-0.29  OA
ENDBRANCH 67 71
ENDBRANCH 51 64
ENDBRANCH 48 51
ENDBRANCH 40 47
ENDBRANCH 3 40
TORSDOF 25
