REMARK  18 active torsions:
REMARK  status: ('A' for Active; 'I' for Inactive)
REMARK    1  A    between atoms: N_1  and  CA_2 
REMARK    2  A    between atoms: CA_2  and  C_3 
REMARK    3  A    between atoms: CA_2  and  CB_5 
REMARK       I    between atoms: C_3  and  N_20 
REMARK    4  A    between atoms: CB_5  and  CG_6 
REMARK    5  A    between atoms: CG_6  and  CD_7 
REMARK    6  A    between atoms: CD_7  and  NE_8 
REMARK       I    between atoms: NE_8  and  CZ_9 
REMARK       I    between atoms: CZ_9  and  NH1_10 
REMARK    7  A    between atoms: N_20  and  CA_21 
REMARK    8  A    between atoms: CA_21  and  CB_24 
REMARK    9  A    between atoms: CA_21  and  C_22 
REMARK       I    between atoms: C_22  and  N_29 
REMARK   10  A    between atoms: CB_24  and  CG1_25 
REMARK   11  A    between atoms: N_29  and  CA_30 
REMARK   12  A    between atoms: CA_30  and  CB_33 
REMARK   13  A    between atoms: CA_30  and  C_31 
REMARK       I    between atoms: C_31  and  N_41 
REMARK   14  A    between atoms: CB_33  and  CG_34 
REMARK   15  A    between atoms: N_41  and  CA_42 
REMARK   16  A    between atoms: CA_42  and  CB_45 
REMARK   17  A    between atoms: CA_42  and  C_43 
REMARK   18  A    between atoms: CB_45  and  OG_46 
ROOT
ATOM      1  CA  ILE B   2      16.803   0.057   7.313  1.00 20.94     0.180 C 
ENDROOT
BRANCH   1   2
ATOM      2  N   ILE B   2      15.453   0.579   7.531  1.00 18.61    -0.346 N 
ATOM      3  C   ARG B   1      15.040   0.944   8.743  1.00 17.10     0.249 C 
ATOM      4  O   ARG B   1      15.733   0.804   9.752  1.00 15.59    -0.271 OA
ATOM      5  H   ILE B   2      14.969   0.625   6.822  1.00 18.61     0.163 HD
BRANCH   3   6
ATOM      6  CA  ARG B   1      13.650   1.572   8.824  1.00 16.65     0.274 C 
BRANCH   6   7
ATOM      7  N   ARG B   1      13.166   1.529  10.231  1.00 15.45    -0.067 N 
ATOM      8  H2  ARG B   1      13.249   0.702  10.548  1.00 15.45     0.275 HD
ATOM      9  H1  ARG B   1      12.311   1.773  10.258  1.00 15.45     0.275 HD
ATOM     10  H3  ARG B   1      13.649   2.087  10.729  1.00 15.45     0.275 HD
ENDBRANCH   6   7
BRANCH   6  11
ATOM     11  CB  ARG B   1      13.702   3.022   8.305  1.00 15.91     0.044 C 
BRANCH  11  12
ATOM     12  CG  ARG B   1      12.410   3.837   8.493  1.00 15.51     0.023 C 
BRANCH  12  13
ATOM     13  CD  ARG B   1      11.285   3.327   7.593  1.00 16.55     0.138 C 
BRANCH  13  14
ATOM     14  NE  ARG B   1      10.196   4.302   7.509  1.00 17.87    -0.227 N 
ATOM     15  CZ  ARG B   1       9.308   4.543   8.471  1.00 16.76     0.665 C 
ATOM     16  NH1 ARG B   1       9.332   3.878   9.628  1.00 17.21    -0.235 N 
ATOM     17  NH2 ARG B   1       8.379   5.479   8.275  1.00 19.77    -0.235 N 
ATOM     18 HH11 ARG B   1       9.931   3.277   9.766  1.00 17.21     0.174 HD
ATOM     19 HH12 ARG B   1       8.748   4.051  10.235  1.00 17.21     0.174 HD
ATOM     20 HH21 ARG B   1       8.359   5.917   7.535  1.00 19.77     0.174 HD
ATOM     21 HH22 ARG B   1       7.799   5.645   8.888  1.00 19.77     0.174 HD
ATOM     22  HE  ARG B   1      10.124   4.754   6.781  1.00 17.87     0.177 HD
ENDBRANCH  13  14
ENDBRANCH  12  13
ENDBRANCH  11  12
ENDBRANCH   6  11
ENDBRANCH   3   6
ENDBRANCH   1   2
BRANCH   1  23
ATOM     23  CB  ILE B   2      17.021  -0.334   5.831  1.00 21.16     0.013 C 
ATOM     24  CG2 ILE B   2      18.479  -0.729   5.577  1.00 22.94     0.012 C 
BRANCH  23  25
ATOM     25  CG1 ILE B   2      16.067  -1.480   5.448  1.00 22.14     0.002 C 
ATOM     26  CD1 ILE B   2      16.251  -2.047   4.023  1.00 22.60     0.005 C 
ENDBRANCH  23  25
ENDBRANCH   1  23
BRANCH   1  27
ATOM     27  C   ILE B   2      17.836   1.077   7.808  1.00 21.53     0.241 C 
ATOM     28  O   ILE B   2      17.556   2.277   7.824  1.00 21.64    -0.271 OA
ATOM     29  N   PHE B   3      19.008   0.598   8.242  1.00 22.69    -0.346 N 
ATOM     30  H   PHE B   3      19.217  -0.236   8.239  1.00 22.69     0.163 HD
BRANCH  29  31
ATOM     31  CA  PHE B   3      20.052   1.482   8.769  1.00 23.79     0.180 C 
BRANCH  31  32
ATOM     32  CB  PHE B   3      21.353   0.717   9.017  1.00 24.86     0.073 C 
BRANCH  32  33
ATOM     33  CG  PHE B   3      22.411   1.534   9.713  1.00 25.20    -0.056 A 
ATOM     34  CD1 PHE B   3      23.614   1.819   9.075  1.00 28.30     0.007 A 
ATOM     35  CE1 PHE B   3      24.594   2.582   9.711  1.00 27.60     0.001 A 
ATOM     36  CZ  PHE B   3      24.378   3.073  10.997  1.00 28.67     0.000 A 
ATOM     37  CE2 PHE B   3      23.171   2.806  11.651  1.00 27.98     0.001 A 
ATOM     38  CD2 PHE B   3      22.194   2.034  11.003  1.00 26.62     0.007 A 
ENDBRANCH  32  33
ENDBRANCH  31  32
BRANCH  31  39
ATOM     39  C   PHE B   3      20.316   2.673   7.848  1.00 24.64     0.241 C 
ATOM     40  O   PHE B   3      20.514   2.506   6.647  1.00 24.93    -0.271 OA
ATOM     41  N   SER B   4      20.311   3.867   8.429  1.00 25.11    -0.345 N 
ATOM     42  H   SER B   4      20.198   3.993   9.272  1.00 25.11     0.163 HD
BRANCH  41  43
ATOM     43  CA  SER B   4      20.503   5.085   7.655  1.00 25.84     0.186 C 
BRANCH  43  44
ATOM     44  CB  SER B   4      19.180   5.843   7.522  1.00 26.02     0.197 C 
BRANCH  44  45
ATOM     45  OG  SER B   4      18.752   6.335   8.782  1.00 27.92    -0.398 OA
ATOM     46  HG  SER B   4      18.027   6.749   8.690  1.00 27.92     0.209 HD
ENDBRANCH  44  45
ENDBRANCH  43  44
BRANCH  43  47
ATOM     47  C   SER B   4      21.554   5.964   8.317  1.00 25.91     0.221 C 
ATOM     48  O   SER B   4      21.958   6.979   7.766  1.00 25.66    -0.287 OA
ENDBRANCH  43  47
ENDBRANCH  41  43
ENDBRANCH  31  39
ENDBRANCH  29  31
ENDBRANCH   1  27
TORSDOF 18
