USER: ADFR SOLUTION from run 0
USER: SCORE 23.722351 LL:  -4.897 LR: -21.228 RR:   0.000 FEB: -11.384
USER: RMSD 0.707555
USER: STATUS Locally minimized using BFGS
USER: GENES 35
USER: genes 0 Translation |==|  0.45109 0.53309 0.59037
USER: genes 1 Rotation |==|  0.49756 0.50688 0.50401 0.99993
USER: genes 2 Torsion [C]-N--CA-[C] |==|  0.74261
USER: genes 3 Torsion [N]-CA--C-[N] |==|  0.37354
USER: genes 4 Torsion [C]-N--CA-[CB] |==|  0.39053
USER: genes 5 Torsion [N]-CA--C-[N] |==|  0.29909
USER: genes 6 Torsion [C]-N--CA-[C] |==|  0.78068
USER: genes 7 Torsion [N]-CA--C-[OXT] |==|  0.95191
USER: genes 8 Torsion [N]-CA--CB-[CG] |==|  0.81633
USER: genes 9 Torsion [CA]-CB--CG-[OD1] |==|  0.74216
USER: genes 10 Torsion [N]-CA--CB-[CG] |==|  0.48250
USER: genes 11 Torsion [CA]-CB--CG-[CD] |==|  0.50756
USER: genes 12 Torsion [CB]-CG--CD-[NE] |==|  0.48635
USER: genes 13 Torsion [CG]-CD--NE-[HE] |==|  0.92437
USER: genes 14 Torsion [N]-CA--CB-[CG] |==|  0.49092
USER: genes 15 Torsion [CA]-CB--CG-[CD2] |==|  0.74912
USER: genes 16 Torsion [CE2]-CZ--OH-[HH] |==|  0.89206
USER: genes 17 Torsion [N]-C--CA-[N] |==|  0.34553
USER: genes 18 Torsion [C]-CA--CB-[CG] |==|  0.46484
USER: genes 19 Torsion [CA]-CB--CG-[CD] |==|  0.49703
USER: genes 20 Torsion [CB]-CG--CD-[CE] |==|  0.50572
USER: genes 21 Torsion [CG]-CD--CE-[NZ] |==|  0.50218
USER: genes 22 Torsion [CD]-CE--NZ-[HZ2] |==|  0.86527
USER: genes 23 Torsion [C]-CA--N-[C] |==|  0.58889
USER: genes 24 Torsion [N]-C--CA-[N] |==|  0.43009
USER: genes 25 Torsion [C]-CA--CB-[CG] |==|  0.48616
USER: genes 26 Torsion [CA]-CB--CG-[CD] |==|  0.51332
USER: genes 27 Torsion [CB]-CG--CD-[CE] |==|  0.55218
USER: genes 28 Torsion [CG]-CD--CE-[NZ] |==|  0.49947
USER: genes 29 Torsion [CD]-CE--NZ-[HZ2] |==|  0.84773
USER: genes 30 Torsion [C]-CA--N-[C] |==|  0.63183
USER: genes 31 Torsion [N]-C--CA-[N] |==|  0.91330
USER: genes 32 Torsion [C]-CA--N-[C] |==|  0.75562
USER: genes 33 Torsion [N]-C--CA-[N] |==|  0.41634
USER: genes 34 Torsion [C]-CA--CB-[CG1] |==|  0.57103
ROOT
ATOM      1  C   LYS B 204      -0.990   4.049  -8.997  1.00 29.43 LIG 0.24  C 
ATOM      2 O    LYS B 204      -0.135   3.969  -9.900  1.00 26.08 LIG-0.27  OA
ATOM      3  N   TYR B 205      -1.675   3.038  -8.513  1.00 31.29 LIG-0.35  N 
ATOM      4 H    TYR B 205      -2.257   3.126  -7.886  1.00 31.29 LIG 0.16  HD
ENDROOT
BRANCH 3 5
ATOM      5  CA  TYR B 205      -1.529   1.685  -8.972  1.00 33.02 LIG 0.18  C 
BRANCH 5 6
ATOM      6  C   TYR B 205      -2.601   1.555 -10.061  1.00 33.21 LIG 0.24  C 
ATOM      7 O    TYR B 205      -3.702   2.041  -9.882  1.00 35.15 LIG-0.27  OA
ATOM      8  N   ARG B 206      -2.268   0.977 -11.212  1.00 31.57 LIG-0.35  N 
ATOM      9 H    ARG B 206      -1.473   0.728 -11.422  1.00 31.57 LIG 0.16  HD
BRANCH 8 10
ATOM     10  CA  ARG B 206      -3.291   0.721 -12.238  1.00 33.28 LIG 0.18  C 
BRANCH 10 11
ATOM     11  C   ARG B 206      -3.874  -0.708 -12.123  1.00 36.59 LIG 0.24  C 
ATOM     12  N   ASN B 207      -5.120  -0.813 -11.657  1.00 40.84 LIG-0.34  N 
ATOM     13 H    ASN B 207      -5.577  -0.157 -11.341  1.00 40.84 LIG 0.16  HD
ATOM     14 O    ARG B 206      -3.191  -1.714 -12.426  1.00 36.06 LIG-0.27  OA
BRANCH 12 15
ATOM     15  CA  ASN B 207      -5.822  -2.114 -11.653  1.00 46.04 LIG 0.19  C 
BRANCH 15 16
ATOM     16  C   ASN B 207      -6.386  -2.506 -13.007  1.00 46.07 LIG 0.20  C 
ATOM     17 OXT  ASN B 207      -6.537  -1.687 -13.899  1.00 45.13 LIG-0.65  OA
ATOM     18 O    ASN B 207      -6.741  -3.645 -13.224  1.00 48.62 LIG-0.65  OA
ENDBRANCH 15 16
BRANCH 15 19
ATOM     19  CB  ASN B 207      -6.969  -2.136 -10.645  1.00 51.14 LIG 0.14  C 
BRANCH 19 20
ATOM     20  CG  ASN B 207      -6.473  -2.040  -9.238  1.00 56.09 LIG 0.22  C 
ATOM     21 OD1  ASN B 207      -6.250  -3.065  -8.581  1.00 63.46 LIG-0.27  OA
ATOM     22  ND2 ASN B 207      -6.235  -0.812  -8.770  1.00 58.21 LIG-0.37  N 
ATOM     23 22HD ASN B 207      -6.405  -0.125  -9.260  1.00 58.21 LIG 0.16  HD
ATOM     24 21HD ASN B 207      -5.913  -0.709  -7.980  1.00 58.21 LIG 0.16  HD
ENDBRANCH 19 20
ENDBRANCH 15 19
ENDBRANCH 12 15
ENDBRANCH 10 11
BRANCH 10 25
ATOM     25  CB  ARG B 206      -2.745   0.998 -13.641  1.00 29.97 LIG 0.04  C 
BRANCH 25 26
ATOM     26  CG  ARG B 206      -3.749   0.587 -14.717  1.00 35.04 LIG 0.02  C 
BRANCH 26 27
ATOM     27  CD  ARG B 206      -3.233   0.779 -16.154  1.00 34.71 LIG 0.14  C 
BRANCH 27 28
ATOM     28  NE  ARG B 206      -4.217   0.250 -17.096  1.00 36.74 LIG-0.23  N 
ATOM     29 HE   ARG B 206      -4.736  -0.382 -16.831  1.00 36.74 LIG 0.18  HD
ATOM     30  CZ  ARG B 206      -4.351   0.693 -18.334  1.00 37.33 LIG 0.67  C 
ATOM     31  NH2 ARG B 206      -5.266   0.202 -19.124  1.00 40.70 LIG-0.23  N 
ATOM     32  NH1 ARG B 206      -3.557   1.633 -18.782  1.00 35.99 LIG-0.23  N 
ATOM     33 1HH2 ARG B 206      -5.791  -0.417 -18.841  1.00 40.70 LIG 0.17  HD
ATOM     34 2HH2 ARG B 206      -5.343   0.498 -19.928  1.00 40.70 LIG 0.17  HD
ATOM     35 1HH1 ARG B 206      -2.948   1.962 -18.271  1.00 35.99 LIG 0.17  HD
ATOM     36 2HH1 ARG B 206      -3.644   1.922 -19.587  1.00 35.99 LIG 0.17  HD
ENDBRANCH 27 28
ENDBRANCH 26 27
ENDBRANCH 25 26
ENDBRANCH 10 25
ENDBRANCH 8 10
ENDBRANCH 5 6
BRANCH 5 37
ATOM     37  CB  TYR B 205      -1.847   0.832  -7.755  1.00 37.09 LIG 0.07  C 
BRANCH 37 38
ATOM     38  CG  TYR B 205      -1.871  -0.646  -7.858  1.00 41.64 LIG-0.06  A 
ATOM     39  CD2 TYR B 205      -3.051  -1.304  -8.177  1.00 44.35 LIG 0.01  A 
ATOM     40  CE2 TYR B 205      -3.117  -2.675  -8.198  1.00 49.08 LIG 0.04  A 
ATOM     41  CZ  TYR B 205      -1.997  -3.421  -7.869  1.00 48.61 LIG 0.07  A 
ATOM     42  CE1 TYR B 205      -0.814  -2.795  -7.519  1.00 45.09 LIG 0.04  A 
ATOM     43  CD1 TYR B 205      -0.761  -1.408  -7.493  1.00 43.95 LIG 0.01  A 
BRANCH 41 44
ATOM     44 OH   TYR B 205      -2.088  -4.798  -7.878  1.00 50.49 LIG-0.36  OA
ATOM     45 HH   TYR B 205      -2.834  -5.032  -7.573  1.00 50.49 LIG 0.22  HD
ENDBRANCH 41 44
ENDBRANCH 37 38
ENDBRANCH 5 37
ENDBRANCH 3 5
BRANCH 1 46
ATOM     46  CA  LYS B 204      -1.281   5.346  -8.319  1.00 31.16 LIG 0.18  C 
BRANCH 46 47
ATOM     47  CB  LYS B 204      -1.920   6.250  -9.369  1.00 32.72 LIG 0.04  C 
BRANCH 47 48
ATOM     48  CG  LYS B 204      -2.562   7.505  -8.799  1.00 37.78 LIG 0.00  C 
BRANCH 48 49
ATOM     49  CD  LYS B 204      -3.139   8.332  -9.958  1.00 44.67 LIG 0.03  C 
BRANCH 49 50
ATOM     50  CE  LYS B 204      -3.755   9.635  -9.446  1.00 46.31 LIG 0.23  C 
BRANCH 50 51
ATOM     51  NZ  LYS B 204      -4.333  10.434 -10.556  1.00 49.87 LIG-0.08  N 
ATOM     52 HZ2  LYS B 204      -3.741  10.494 -11.218  1.00 49.87 LIG 0.27  HD
ATOM     53 HZ3  LYS B 204      -5.071  10.038 -10.854  1.00 49.87 LIG 0.27  HD
ATOM     54 HZ1  LYS B 204      -4.532  11.250 -10.262  1.00 49.87 LIG 0.27  HD
ENDBRANCH 50 51
ENDBRANCH 49 50
ENDBRANCH 48 49
ENDBRANCH 47 48
ENDBRANCH 46 47
BRANCH 46 55
ATOM     55  N   LYS B 204       0.006   5.887  -7.831  1.00 28.52 LIG-0.35  N 
ATOM     56 H    LYS B 204       0.677   5.681  -8.328  1.00 28.52 LIG 0.16  HD
ATOM     57  C   LYS B 203       0.118   6.617  -6.734  1.00 30.36 LIG 0.24  C 
ATOM     58 O    LYS B 203      -0.835   6.853  -5.957  1.00 32.75 LIG-0.27  OA
BRANCH 57 59
ATOM     59  CA  LYS B 203       1.506   7.230  -6.478  1.00 29.12 LIG 0.18  C 
BRANCH 59 60
ATOM     60  CB  LYS B 203       2.438   6.213  -5.794  1.00 27.59 LIG 0.04  C 
BRANCH 60 61
ATOM     61  CG  LYS B 203       3.858   6.685  -5.610  1.00 28.85 LIG 0.00  C 
BRANCH 61 62
ATOM     62  CD  LYS B 203       4.747   5.566  -5.029  1.00 30.56 LIG 0.03  C 
BRANCH 62 63
ATOM     63  CE  LYS B 203       6.031   6.172  -4.416  1.00 30.34 LIG 0.23  C 
BRANCH 63 64
ATOM     64  NZ  LYS B 203       6.989   5.170  -3.806  1.00 29.96 LIG-0.08  N 
ATOM     65 HZ2  LYS B 203       6.559   4.678  -3.202  1.00 29.96 LIG 0.27  HD
ATOM     66 HZ3  LYS B 203       7.312   4.641  -4.444  1.00 29.96 LIG 0.27  HD
ATOM     67 HZ1  LYS B 203       7.659   5.603  -3.412  1.00 29.96 LIG 0.27  HD
ENDBRANCH 63 64
ENDBRANCH 62 63
ENDBRANCH 61 62
ENDBRANCH 60 61
ENDBRANCH 59 60
BRANCH 59 68
ATOM     68  N   LYS B 203       1.295   8.408  -5.656  1.00 32.23 LIG-0.35  N 
ATOM     69  C   ALA B 202       1.890   9.549  -5.985  1.00 35.90 LIG 0.24  C 
ATOM     70 O    ALA B 202       2.632   9.628  -6.957  1.00 35.09 LIG-0.27  OA
ATOM     71 H    LYS B 203       0.779   8.298  -4.977  1.00 32.23 LIG 0.16  HD
BRANCH 69 72
ATOM     72  CA  ALA B 202       1.702  10.776  -5.074  1.00 40.49 LIG 0.17  C 
ATOM     73  CB  ALA B 202       2.876  10.886  -4.093  1.00 40.15 LIG 0.04  C 
BRANCH 72 74
ATOM     74  N   ALA B 202       0.416  10.844  -4.376  1.00 44.85 LIG-0.35  N 
ATOM     75  C   VAL B 201      -0.620  11.434  -4.981  1.00 49.40 LIG 0.26  C 
ATOM     76 O    VAL B 201      -0.521  12.031  -6.075  1.00 49.68 LIG-0.27  OA
ATOM     77 H    ALA B 202       0.398  10.491  -3.592  1.00 44.85 LIG 0.16  HD
BRANCH 75 78
ATOM     78  CA  VAL B 201      -1.963  11.331  -4.300  1.00 53.79 LIG 0.40  C 
ATOM     79  N   VAL B 201      -2.751  12.548  -4.639  1.00 59.48 LIG 0.61  N 
BRANCH 78 80
ATOM     80  CB  VAL B 201      -2.650  10.010  -4.808  1.00 53.10 LIG 0.03  C 
ATOM     81  CG1 VAL B 201      -4.184  10.087  -4.718  1.00 58.27 LIG 0.01  C 
ATOM     82  CG2 VAL B 201      -2.200   9.669  -6.257  1.00 52.00 LIG 0.01  C 
ENDBRANCH 78 80
ENDBRANCH 75 78
ENDBRANCH 72 74
ENDBRANCH 69 72
ENDBRANCH 59 68
ENDBRANCH 57 59
ENDBRANCH 46 55
ENDBRANCH 1 46
TORSDOF 33
