USER: ADFR SOLUTION from run 0
USER: SCORE 15.671584 LL:  -4.348 LR: -11.562 RR:   0.000 FEB:  -5.894
USER: RMSD 0.877512
USER: STATUS Locally minimized using BFGS
USER: GENES 21
USER: genes 0 Translation |==|  0.51686 0.45043 0.53527
USER: genes 1 Rotation |==|  0.49858 0.50098 0.47320 0.99928
USER: genes 2 Torsion [N]-CA--C-[N] |==|  0.91944
USER: genes 3 Torsion [C]-N--CA-[C] |==|  0.75778
USER: genes 4 Torsion [N]-CA--C-[N] |==|  0.01008
USER: genes 5 Torsion [C]-N--CA-[CB] |==|  0.39195
USER: genes 6 Torsion [N]-CA--C-[O] |==|  0.90862
USER: genes 7 Torsion [N]-CA--CB-[CG] |==|  0.90121
USER: genes 8 Torsion [CA]-CB--CG-[CD] |==|  0.80413
USER: genes 9 Torsion [CB]-CG--CD-[CE] |==|  0.50176
USER: genes 10 Torsion [CG]-CD--CE-[NZ] |==|  0.13311
USER: genes 11 Torsion [CD]-CE--NZ-[HZ1] |==|  0.42031
USER: genes 12 Torsion [N]-CA--CB-[CG2] |==|  0.82611
USER: genes 13 Torsion [CA]-CB--OG1-[HG1] |==|  0.85733
USER: genes 14 Torsion [C]-CA--CB-[CG] |==|  0.16540
USER: genes 15 Torsion [CA]-CB--CG-[CD] |==|  0.49871
USER: genes 16 Torsion [CB]-CG--CD-[NE] |==|  0.86659
USER: genes 17 Torsion [CG]-CD--NE-[CZ] |==|  0.76833
USER: genes 18 Torsion [C]-CA--N-[C] |==|  0.82751
USER: genes 19 Torsion [N]-C--CA-[N] |==|  0.89639
USER: genes 20 Torsion [C]-CA--N-[C] |==|  0.88164
ROOT
ATOM      1  CA  ARG D   2       5.239   6.636  34.156  1.00  9.56 LIG 0.18  C 
ENDROOT
BRANCH 1 2
ATOM      2  C   ARG D   2       3.908   5.875  33.914  1.00 11.06 LIG 0.24  C 
ATOM      3  N   THR D   3       2.793   6.594  33.998  1.00 11.45 LIG-0.34  N 
ATOM      4 H    THR D   3       2.763   7.444  34.123  1.00 11.45 LIG 0.16  HD
ATOM      5 O    ARG D   2       3.893   4.670  33.615  1.00  9.90 LIG-0.27  OA
BRANCH 3 6
ATOM      6  CA  THR D   3       1.513   5.945  33.876  1.00 13.43 LIG 0.20  C 
BRANCH 6 7
ATOM      7  C   THR D   3       1.063   5.831  32.427  1.00 15.00 LIG 0.24  C 
ATOM      8  N   LYS D   4       1.929   6.268  31.490  1.00 14.79 LIG-0.35  N 
ATOM      9 H    LYS D   4       2.723   6.549  31.663  1.00 14.79 LIG 0.16  HD
ATOM     10 O    THR D   3      -0.067   5.364  32.187  1.00 15.79 LIG-0.27  OA
BRANCH 8 11
ATOM     11  CA  LYS D   4       1.564   6.297  30.040  1.00 18.13 LIG 0.16  C 
BRANCH 11 12
ATOM     12  C   LYS D   4       2.053   5.093  29.247  1.00 20.20 LIG 0.22  C 
ATOM     13 O    LYS D   4       3.148   4.588  29.616  1.00 21.26 LIG-0.29  OA
ENDBRANCH 11 12
BRANCH 11 14
ATOM     14  CB  LYS D   4       2.140   7.577  29.383  1.00 18.02 LIG 0.03  C 
BRANCH 14 15
ATOM     15  CG  LYS D   4       2.123   8.776  30.303  1.00 21.48 LIG 0.00  C 
BRANCH 15 16
ATOM     16  CD  LYS D   4       0.724   9.286  30.552  1.00 25.56 LIG 0.03  C 
BRANCH 16 17
ATOM     17  CE  LYS D   4       0.768  10.519  31.484  1.00 25.12 LIG 0.23  C 
BRANCH 17 18
ATOM     18  NZ  LYS D   4       1.803  11.542  31.045  1.00 20.07 LIG-0.08  N 
ATOM     19 HZ1  LYS D   4       1.544  12.354  31.298  1.00 20.07 LIG 0.27  HD
ATOM     20 HZ2  LYS D   4       2.587  11.351  31.419  1.00 20.07 LIG 0.27  HD
ATOM     21 HZ3  LYS D   4       1.884  11.520  30.158  1.00 20.07 LIG 0.27  HD
ENDBRANCH 17 18
ENDBRANCH 16 17
ENDBRANCH 15 16
ENDBRANCH 14 15
ENDBRANCH 11 14
ENDBRANCH 8 11
ENDBRANCH 6 7
BRANCH 6 22
ATOM     22  CB  THR D   3       0.396   6.631  34.743  1.00 14.57 LIG 0.15  C 
ATOM     23  CG2 THR D   3       0.743   6.552  36.259  1.00 14.25 LIG 0.04  C 
BRANCH 22 24
ATOM     24 OG1  THR D   3       0.243   8.003  34.349  1.00 15.86 LIG-0.39  OA
ATOM     25 HG1  THR D   3       0.993   8.380  34.349  1.00 15.86 LIG 0.21  HD
ENDBRANCH 22 24
ENDBRANCH 6 22
ENDBRANCH 3 6
ENDBRANCH 1 2
BRANCH 1 26
ATOM     26  CB  ARG D   2       5.738   6.519  35.608  1.00  9.49 LIG 0.04  C 
BRANCH 26 27
ATOM     27  CG  ARG D   2       5.986   5.016  36.012  1.00 10.73 LIG 0.02  C 
BRANCH 27 28
ATOM     28  CD  ARG D   2       6.491   4.990  37.463  1.00 10.86 LIG 0.14  C 
BRANCH 28 29
ATOM     29  NE  ARG D   2       7.552   5.941  37.673  1.00 10.69 LIG-0.23  N 
ATOM     30  CZ  ARG D   2       8.868   5.729  37.393  1.00  9.43 LIG 0.67  C 
ATOM     31  NH1 ARG D   2       9.320   4.557  36.923  1.00 10.34 LIG-0.23  N 
ATOM     32  NH2 ARG D   2       9.743   6.667  37.687  1.00 11.18 LIG-0.23  N 
ATOM     33 2HH1 ARG D   2      10.157   4.455  36.756  1.00 10.34 LIG 0.17  HD
ATOM     34 1HH1 ARG D   2       8.773   3.907  36.788  1.00 10.34 LIG 0.17  HD
ATOM     35 2HH2 ARG D   2      10.577   6.546  37.515  1.00 11.18 LIG 0.17  HD
ATOM     36 1HH2 ARG D   2       9.481   7.401  38.050  1.00 11.18 LIG 0.17  HD
ATOM     37 HE   ARG D   2       7.337   6.706  38.002  1.00 10.69 LIG 0.18  HD
ENDBRANCH 28 29
ENDBRANCH 27 28
ENDBRANCH 26 27
ENDBRANCH 1 26
BRANCH 1 38
ATOM     38  N   ARG D   2       5.109   8.049  33.763  1.00  9.04 LIG-0.35  N 
ATOM     39 H    ARG D   2       5.217   8.616  34.401  1.00  9.04 LIG 0.16  HD
ATOM     40  C   ALA D   1       4.841   8.375  32.487  1.00 11.17 LIG 0.24  C 
ATOM     41 O    ALA D   1       4.704   7.510  31.623  1.00 13.49 LIG-0.27  OA
BRANCH 40 42
ATOM     42  CA  ALA D   1       4.769   9.843  32.114  1.00 12.65 LIG 0.17  C 
ATOM     43  CB  ALA D   1       6.165  10.422  31.790  1.00 13.08 LIG 0.04  C 
BRANCH 42 44
ATOM     44  N   ALA D   1       4.156  10.673  33.160  1.00 12.52 LIG-0.35  N 
ATOM     45  C   ACE D   0       2.914  10.347  33.995  1.00 13.59 LIG 0.21  C 
ATOM     46 O    ACE D   0       2.386   9.225  33.706  1.00 14.78 LIG-0.27  OA
ATOM     47  CH3 ACE D   0       2.439  11.331  35.029  1.00 14.73 LIG 0.12  C 
ATOM     48 H    ALA D   1       4.585  11.410  33.272  1.00 12.52 LIG 0.16  HD
ENDBRANCH 42 44
ENDBRANCH 40 42
ENDBRANCH 1 38
TORSDOF 19
