REMARK  19 active torsions:
REMARK  status: ('A' for Active; 'I' for Inactive)
REMARK       I    between atoms: C_1  and  N_4 
REMARK    1  A    between atoms: N_4  and  CA_5 
REMARK    2  A    between atoms: CA_5  and  C_6 
REMARK       I    between atoms: C_6  and  N_10 
REMARK    3  A    between atoms: N_10  and  CA_11 
REMARK    4  A    between atoms: CA_11  and  C_12 
REMARK    5  A    between atoms: CA_11  and  CB_14 
REMARK       I    between atoms: C_12  and  N_27 
REMARK    6  A    between atoms: CB_14  and  CG_15 
REMARK    7  A    between atoms: CG_15  and  CD_16 
REMARK    8  A    between atoms: CD_16  and  NE_17 
REMARK       I    between atoms: NE_17  and  CZ_18 
REMARK       I    between atoms: CZ_18  and  NH1_19 
REMARK    9  A    between atoms: N_27  and  CA_28 
REMARK   10  A    between atoms: CA_28  and  C_29 
REMARK   11  A    between atoms: CA_28  and  CB_31 
REMARK       I    between atoms: C_29  and  N_36 
REMARK   12  A    between atoms: CB_31  and  OG1_32 
REMARK   13  A    between atoms: N_36  and  CA_37 
REMARK   14  A    between atoms: CA_37  and  C_38 
REMARK   15  A    between atoms: CA_37  and  CB_40 
REMARK   16  A    between atoms: CB_40  and  CG_41 
REMARK   17  A    between atoms: CG_41  and  CD_42 
REMARK   18  A    between atoms: CD_42  and  CE_43 
REMARK   19  A    between atoms: CE_43  and  NZ_44 
ROOT
ATOM      1  CA  ARG D   2       5.239   6.546  33.929  1.00  9.56     0.176 C 
ENDROOT
BRANCH   1   2
ATOM      2  C   ARG D   2       3.998   5.648  33.677  1.00 11.06     0.241 C 
ATOM      3  N   THR D   3       2.816   6.256  33.696  1.00 11.45    -0.344 N 
ATOM      4  H   THR D   3       2.699   7.103  33.785  1.00 11.45     0.163 HD
ATOM      5  O   ARG D   2       4.112   4.437  33.428  1.00  9.90    -0.271 OA
BRANCH   3   6
ATOM      6  CA  THR D   3       1.611   5.479  33.561  1.00 13.43     0.205 C 
BRANCH   6   7
ATOM      7  C   THR D   3       1.289   5.167  32.107  1.00 15.00     0.243 C 
ATOM      8  N   LYS D   4       2.159   5.626  31.184  1.00 14.79    -0.347 N 
ATOM      9  H   LYS D   4       2.895   6.028  31.375  1.00 14.79     0.163 HD
ATOM     10  O   THR D   3       0.250   4.529  31.848  1.00 15.79    -0.271 OA
BRANCH   8  11
ATOM     11  CA  LYS D   4       1.903   5.466  29.720  1.00 18.13     0.162 C 
BRANCH  11  12
ATOM     12  C   LYS D   4       2.799   4.443  29.035  1.00 20.20     0.219 C 
ATOM     13  O   LYS D   4       3.980   4.356  29.468  1.00 21.26    -0.287 OA
ENDBRANCH  11  12
BRANCH  11  14
ATOM     14  CB  LYS D   4       2.090   6.829  29.006  1.00 18.02     0.033 C 
BRANCH  14  15
ATOM     15  CG  LYS D   4       1.440   7.979  29.741  1.00 21.48     0.004 C 
BRANCH  15  16
ATOM     16  CD  LYS D   4      -0.062   7.842  29.802  1.00 25.56     0.027 C 
BRANCH  16  17
ATOM     17  CE  LYS D   4      -0.682   9.100  30.453  1.00 25.12     0.229 C 
BRANCH  17  18
ATOM     18  NZ  LYS D   4      -0.197  10.387  29.806  1.00 20.07    -0.079 N 
ATOM     19  HZ1 LYS D   4      -0.808  11.024  29.917  1.00 20.07     0.274 HD
ATOM     20  HZ2 LYS D   4       0.567  10.640  30.185  1.00 20.07     0.274 HD
ATOM     21  HZ3 LYS D   4      -0.066  10.251  28.936  1.00 20.07     0.274 HD
ENDBRANCH  17  18
ENDBRANCH  16  17
ENDBRANCH  15  16
ENDBRANCH  14  15
ENDBRANCH  11  14
ENDBRANCH   8  11
ENDBRANCH   6   7
BRANCH   6  22
ATOM     22  CB  THR D   3       0.373   6.146  34.264  1.00 14.57     0.146 C 
ATOM     23  CG2 THR D   3       0.695   6.486  35.749  1.00 14.25     0.042 C 
BRANCH  22  24
ATOM     24  OG1 THR D   3      -0.005   7.340  33.561  1.00 15.86    -0.393 OA
ATOM     25  HG1 THR D   3       0.666   7.838  33.473  1.00 15.86     0.210 HD
ENDBRANCH  22  24
ENDBRANCH   6  22
ENDBRANCH   3   6
ENDBRANCH   1   2
BRANCH   1  26
ATOM     26  CB  ARG D   2       5.743   6.474  35.382  1.00  9.49     0.036 C 
BRANCH  26  27
ATOM     27  CG  ARG D   2       6.132   5.001  35.784  1.00 10.73     0.023 C 
BRANCH  27  28
ATOM     28  CD  ARG D   2       6.468   4.990  37.284  1.00 10.86     0.138 C 
BRANCH  28  29
ATOM     29  NE  ARG D   2       7.572   5.864  37.587  1.00 10.69    -0.227 N 
ATOM     30  CZ  ARG D   2       8.887   5.509  37.569  1.00  9.43     0.665 C 
ATOM     31  NH1 ARG D   2       9.287   4.256  37.303  1.00 10.34    -0.235 N 
ATOM     32  NH2 ARG D   2       9.793   6.395  37.922  1.00 11.18    -0.235 N 
ATOM     33 HH12 ARG D   2      10.125   4.064  37.299  1.00 10.34     0.174 HD
ATOM     34 HH11 ARG D   2       8.705   3.645  37.136  1.00 10.34     0.174 HD
ATOM     35 HH22 ARG D   2      10.627   6.184  37.915  1.00 11.18     0.174 HD
ATOM     36 HH21 ARG D   2       9.552   7.185  38.160  1.00 11.18     0.174 HD
ATOM     37  HE  ARG D   2       7.386   6.677  37.797  1.00 10.69     0.177 HD
ENDBRANCH  28  29
ENDBRANCH  27  28
ENDBRANCH  26  27
ENDBRANCH   1  26
BRANCH   1  38
ATOM     38  N   ARG D   2       4.960   7.939  33.543  1.00  9.04    -0.346 N 
ATOM     39  H   ARG D   2       5.013   8.512  34.182  1.00  9.04     0.163 HD
ATOM     40  C   ALA D   1       4.650   8.240  32.270  1.00 11.17     0.240 C 
ATOM     41  O   ALA D   1       4.597   7.369  31.403  1.00 13.49    -0.271 OA
BRANCH  40  42
ATOM     42  CA  ALA D   1       4.423   9.694  31.904  1.00 12.65     0.172 C 
ATOM     43  CB  ALA D   1       5.728  10.380  31.440  1.00 13.08     0.042 C 
BRANCH  42  44
ATOM     44  N   ALA D   1       3.854  10.482  33.005  1.00 12.52    -0.348 N 
HETATM   45  C   ACE D   0       2.599  10.163  33.824  1.00 13.59     0.214 C 
HETATM   46  O   ACE D   0       2.017   9.089  33.466  1.00 14.78    -0.274 OA
HETATM   47  CH3 ACE D   0       2.175  11.099  34.923  1.00 14.73     0.117 C 
ATOM     48  H   ALA D   1       4.318  11.189  33.163  1.00 12.52     0.163 HD
ENDBRANCH  42  44
ENDBRANCH  40  42
ENDBRANCH   1  38
TORSDOF 19
