USER: ADFR SOLUTION from run 0
USER: SCORE 19.796757 LL:  -3.988 LR: -17.250 RR:   0.000 FEB: -10.389
USER: RMSD 0.548266
USER: STATUS Locally minimized using BFGS
USER: GENES 25
USER: genes 0 Translation |==|  0.54040 0.30745 0.70777
USER: genes 1 Rotation |==|  0.48466 0.49251 0.50234 0.99970
USER: genes 2 Torsion [C]-CA--N-[C] |==|  0.73334
USER: genes 3 Torsion [N]-C--CA-[N] |==|  0.91670
USER: genes 4 Torsion [C]-CA--N-[C] |==|  0.76375
USER: genes 5 Torsion [N]-C--CA-[CB] |==|  0.68817
USER: genes 6 Torsion [N]-C--CA-[N] |==|  0.37952
USER: genes 7 Torsion [C]-CA--CB-[CG] |==|  0.52727
USER: genes 8 Torsion [CA]-CB--CG-[OD1] |==|  0.28447
USER: genes 9 Torsion [C]-CA--CB-[CG2] |==|  0.85240
USER: genes 10 Torsion [CA]-CB--CG1-[CD1] |==|  0.49589
USER: genes 11 Torsion [N]-CA--C-[N] |==|  0.22230
USER: genes 12 Torsion [C]-N--CA-[CB] |==|  0.22203
USER: genes 13 Torsion [N]-CA--CB-[CG] |==|  0.55202
USER: genes 14 Torsion [CA]-CB--CG-[OD1] |==|  0.53999
USER: genes 15 Torsion [N]-CA--C-[N] |==|  0.45438
USER: genes 16 Torsion [C]-N--CA-[C] |==|  0.75625
USER: genes 17 Torsion [N]-CA--C-[N] |==|  0.41972
USER: genes 18 Torsion [C]-N--CA-[CB] |==|  0.34905
USER: genes 19 Torsion [N]-CA--CB-[CG] |==|  0.84118
USER: genes 20 Torsion [CA]-CB--CG-[OD2] |==|  0.33849
USER: genes 21 Torsion [N]-CA--C-[O] |==|  0.51405
USER: genes 22 Torsion [N]-CA--CB-[CG1] |==|  0.25828
USER: genes 23 Torsion [N]-CA--CB-[OG] |==|  0.83057
USER: genes 24 Torsion [CA]-CB--OG-[HG] |==|  0.95471
ROOT
ATOM      1  CA  SER C 462      16.870   5.697   9.824  1.00 28.28 LIG 0.20  C 
ENDROOT
BRANCH 1 2
ATOM      2  N   SER C 462      15.594   5.396   9.178  1.00 22.18 LIG-0.34  N 
ATOM      3 H    SER C 462      15.503   4.585   8.905  1.00 22.18 LIG 0.16  HD
ATOM      4  C   ILE C 461      14.696   6.327   9.050  0.90 26.05 LIG 0.24  C 
ATOM      5 O    ILE C 461      14.885   7.439   9.417  1.00 25.33 LIG-0.27  OA
BRANCH 4 6
ATOM      6  CA  ILE C 461      13.390   5.944   8.377  1.00 25.76 LIG 0.18  C 
BRANCH 6 7
ATOM      7  N   ILE C 461      13.530   4.894   7.400  1.00 27.84 LIG-0.35  N 
ATOM      8 H    ILE C 461      13.374   4.096   7.680  1.00 27.84 LIG 0.16  HD
ATOM      9  C   PRO C 460      13.880   5.222   6.178  0.79 31.68 LIG 0.24  C 
ATOM     10 O    PRO C 460      14.192   6.366   5.879  0.87 32.12 LIG-0.27  OA
BRANCH 9 11
ATOM     11  CA  PRO C 460      13.899   4.127   5.090  1.00 30.82 LIG 0.18  C 
ATOM     12  N   PRO C 460      13.256   4.585   3.846  0.83 28.79 LIG-0.34  N 
ATOM     13  C   ASN C 459      11.931   4.691   3.731  1.00 34.90 LIG 0.26  C 
ATOM     14  CD  PRO C 460      14.264   4.956   2.837  0.88 33.76 LIG 0.13  C 
ATOM     15 O    ASN C 459      11.185   4.339   4.581  1.00 32.66 LIG-0.27  OA
ATOM     16  CG  PRO C 460      15.578   4.778   3.567  0.52 26.84 LIG 0.02  C 
ATOM     17  CB  PRO C 460      15.344   3.886   4.674  0.87 26.32 LIG 0.04  C 
BRANCH 13 18
ATOM     18  CA  ASN C 459      11.331   5.296   2.448  1.00 33.71 LIG 0.41  C 
ATOM     19  N   ASN C 459      10.190   4.541   1.983  1.00 33.83 LIG 0.61  N 
BRANCH 18 20
ATOM     20  CB  ASN C 459      10.884   6.704   2.743  1.00 30.86 LIG 0.15  C 
BRANCH 20 21
ATOM     21  CG  ASN C 459      10.071   7.306   1.627  1.00 37.39 LIG 0.22  C 
ATOM     22 OD1  ASN C 459       8.848   7.388   1.704  1.00 38.33 LIG-0.27  OA
ATOM     23  ND2 ASN C 459      10.741   7.712   0.580  1.00 33.08 LIG-0.37  N 
ATOM     24 21HD ASN C 459      10.325   8.054  -0.091  1.00 33.08 LIG 0.16  HD
ATOM     25 22HD ASN C 459      11.597   7.638   0.563  1.00 33.08 LIG 0.16  HD
ENDBRANCH 20 21
ENDBRANCH 18 20
ENDBRANCH 13 18
ENDBRANCH 9 11
ENDBRANCH 6 7
BRANCH 6 26
ATOM     26  CB  ILE C 461      12.305   5.663   9.384  1.00 26.47 LIG 0.01  C 
ATOM     27  CG2 ILE C 461      12.755   4.645  10.403  1.00 25.39 LIG 0.01  C 
BRANCH 26 28
ATOM     28  CG1 ILE C 461      11.872   6.989  10.029  1.00 25.72 LIG 0.00  C 
ATOM     29  CD1 ILE C 461      10.866   6.839  10.937  1.00 23.87 LIG 0.01  C 
ENDBRANCH 26 28
ENDBRANCH 6 26
ENDBRANCH 4 6
ENDBRANCH 1 2
BRANCH 1 30
ATOM     30  C   SER C 462      17.923   6.024   8.786  1.00 25.50 LIG 0.24  C 
ATOM     31 O    SER C 462      18.736   5.179   8.399  0.83 24.32 LIG-0.27  OA
ATOM     32  N   ASP C 463      17.847   7.246   8.336  1.00 22.92 LIG-0.34  N 
ATOM     33 H    ASP C 463      17.272   7.812   8.631  1.00 22.92 LIG 0.16  HD
BRANCH 32 34
ATOM     34  CA  ASP C 463      18.683   7.779   7.329  1.00 22.73 LIG 0.19  C 
BRANCH 34 35
ATOM     35  CB  ASP C 463      18.218   7.354   5.942  1.00 28.12 LIG 0.15  C 
BRANCH 35 36
ATOM     36  CG  ASP C 463      19.299   7.504   4.876  1.00 33.32 LIG 0.17  C 
ATOM     37 OD1  ASP C 463      18.940   7.447   3.708  1.00 34.35 LIG-0.65  OA
ATOM     38 OD2  ASP C 463      20.462   7.628   5.213  1.00 29.24 LIG-0.65  OA
ENDBRANCH 35 36
ENDBRANCH 34 35
BRANCH 34 39
ATOM     39  C   ASP C 463      18.654   9.289   7.475  0.93 22.51 LIG 0.24  C 
ATOM     40 O    ASP C 463      17.834   9.867   8.108  0.95 19.76 LIG-0.27  OA
ATOM     41  N   VAL C 464      19.628   9.879   6.843  1.00 24.79 LIG-0.35  N 
ATOM     42 H    VAL C 464      20.209   9.453   6.372  1.00 24.79 LIG 0.16  HD
BRANCH 41 43
ATOM     43  CA  VAL C 464      19.836  11.291   6.865  1.00 23.67 LIG 0.18  C 
BRANCH 43 44
ATOM     44  C   VAL C 464      19.032  11.987   5.745  0.83 28.47 LIG 0.24  C 
ATOM     45  N   ASP C 465      18.649  13.224   5.970  1.00 23.35 LIG-0.34  N 
ATOM     46 H    ASP C 465      18.821  13.636   6.705  1.00 23.35 LIG 0.16  HD
ATOM     47 O    VAL C 464      18.710  11.389   4.760  0.85 31.06 LIG-0.27  OA
BRANCH 45 48
ATOM     48  CA  ASP C 465      17.909  14.021   5.033  0.96 24.34 LIG 0.20  C 
BRANCH 48 49
ATOM     49  CB  ASP C 465      16.634  14.572   5.650  1.00 26.52 LIG 0.15  C 
BRANCH 49 50
ATOM     50  CG  ASP C 465      15.707  13.491   6.199  1.00 29.54 LIG 0.17  C 
ATOM     51 OD2  ASP C 465      15.372  13.491   7.376  1.00 27.46 LIG-0.65  OA
ATOM     52 OD1  ASP C 465      15.286  12.688   5.425  1.00 31.86 LIG-0.65  OA
ENDBRANCH 49 50
ENDBRANCH 48 49
BRANCH 48 53
ATOM     53  C   ASP C 465      18.744  15.208   4.546  0.80 27.02 LIG 0.20  C 
ATOM     54 O    ASP C 465      18.195  16.010   3.821  0.89 29.01 LIG-0.65  OA
ATOM     55 OXT  ASP C 465      19.802  15.499   5.086  1.00 25.29 LIG-0.65  OA
ENDBRANCH 48 53
ENDBRANCH 45 48
ENDBRANCH 43 44
BRANCH 43 56
ATOM     56  CB  VAL C 464      21.353  11.345   6.783  1.00 20.27 LIG 0.01  C 
ATOM     57  CG1 VAL C 464      21.950  11.467   5.444  1.00 23.93 LIG 0.01  C 
ATOM     58  CG2 VAL C 464      22.001  11.802   7.972  0.99 20.75 LIG 0.01  C 
ENDBRANCH 43 56
ENDBRANCH 41 43
ENDBRANCH 34 39
ENDBRANCH 32 34
ENDBRANCH 1 30
BRANCH 1 59
ATOM     59  CB  SER C 462      17.336   4.552  10.714  1.00 26.51 LIG 0.20  C 
BRANCH 59 60
ATOM     60 OG   SER C 462      16.390   4.325  11.737  0.75 30.44 LIG-0.40  OA
ATOM     61 HG   SER C 462      15.877   4.988  11.798  0.75 30.44 LIG 0.21  HD
ENDBRANCH 59 60
ENDBRANCH 1 59
TORSDOF 23
