REMARK  26 active torsions:
REMARK  status: ('A' for Active; 'I' for Inactive)
REMARK    1  A    between atoms: CA_2  and  C_3 
REMARK       I    between atoms: C_3  and  N_8 
REMARK    2  A    between atoms: N_8  and  CA_9 
REMARK    3  A    between atoms: CA_9  and  C_10 
REMARK    4  A    between atoms: CA_9  and  CB_12 
REMARK       I    between atoms: C_10  and  N_17 
REMARK    5  A    between atoms: CB_12  and  OG1_13 
REMARK    6  A    between atoms: N_17  and  CA_18 
REMARK    7  A    between atoms: CA_18  and  C_19 
REMARK    8  A    between atoms: CA_18  and  CB_21 
REMARK       I    between atoms: C_19  and  N_26 
REMARK    9  A    between atoms: CB_21  and  CG1_22 
REMARK   10  A    between atoms: N_26  and  CA_27 
REMARK   11  A    between atoms: CA_27  and  C_28 
REMARK   12  A    between atoms: CA_27  and  CB_30 
REMARK       I    between atoms: C_28  and  N_36 
REMARK   13  A    between atoms: CB_30  and  CG_31 
REMARK   14  A    between atoms: CG_31  and  CD_32 
REMARK   15  A    between atoms: N_36  and  CA_37 
REMARK   16  A    between atoms: CA_37  and  CB_40 
REMARK   17  A    between atoms: CA_37  and  C_38 
REMARK       I    between atoms: C_38  and  N_46 
REMARK   18  A    between atoms: CB_40  and  CG_41 
REMARK   19  A    between atoms: CG_41  and  CD_42 
REMARK   20  A    between atoms: N_46  and  CA_47 
REMARK   21  A    between atoms: CA_47  and  C_48 
REMARK   22  A    between atoms: CA_47  and  CB_50 
REMARK       I    between atoms: C_48  and  N_54 
REMARK   23  A    between atoms: N_54  and  CA_55 
REMARK   24  A    between atoms: CA_55  and  C_56 
REMARK   25  A    between atoms: CA_55  and  CB_58 
REMARK   26  A    between atoms: CB_58  and  CG_59 
ROOT
ATOM      1  CA  GLU C 638     -17.779  -5.401  10.256  1.00 17.54     0.177 C 
ENDROOT
BRANCH   1   2
ATOM      2  C   GLU C 638     -18.672  -5.927   9.137  0.98 18.52     0.241 C 
ATOM      3  N   GLU C 639     -18.225  -7.013   8.524  0.99 18.65    -0.346 N 
ATOM      4  H   GLU C 639     -17.461  -7.373   8.687  0.99 18.65     0.163 HD
ATOM      5  O   GLU C 638     -19.727  -5.364   8.832  0.88 20.91    -0.271 OA
BRANCH   3   6
ATOM      6  CA  GLU C 639     -19.001  -7.698   7.508  0.92 18.88     0.177 C 
BRANCH   6   7
ATOM      7  CB  GLU C 639     -18.515  -7.341   6.101  1.00 24.27     0.045 C 
BRANCH   7   8
ATOM      8  CG  GLU C 639     -18.874  -5.922   5.661  0.67 25.94     0.116 C 
BRANCH   8   9
ATOM      9  CD  GLU C 639     -20.306  -5.528   5.999  0.35 26.37     0.172 C 
ATOM     10  OE2 GLU C 639     -21.137  -6.424   6.248  0.36 27.92    -0.648 OA
ATOM     11  OE1 GLU C 639     -20.607  -4.316   6.022  0.59 30.05    -0.648 OA
ENDBRANCH   8   9
ENDBRANCH   7   8
ENDBRANCH   6   7
BRANCH   6  12
ATOM     12  C   GLU C 639     -18.912  -9.191   7.740  0.91 17.75     0.241 C 
ATOM     13  N   VAL C 640     -19.851  -9.922   7.161  1.00 17.26    -0.346 N 
ATOM     14  H   VAL C 640     -20.480  -9.600   6.671  1.00 17.26     0.163 HD
ATOM     15  O   GLU C 639     -18.030  -9.667   8.447  0.96 15.43    -0.271 OA
BRANCH  13  16
ATOM     16  CA  VAL C 640     -19.885 -11.365   7.317  0.98 17.07     0.180 C 
BRANCH  16  17
ATOM     17  C   VAL C 640     -19.073 -12.062   6.229  0.84 18.29     0.241 C 
ATOM     18  O   VAL C 640     -18.901 -11.534   5.130  0.87 20.22    -0.271 OA
ATOM     19  N   ASP C 641     -18.586 -13.256   6.550  0.93 16.51    -0.344 N 
ATOM     20  H   ASP C 641     -18.720 -13.629   7.313  0.93 16.51     0.163 HD
BRANCH  19  21
ATOM     21  CA  ASP C 641     -17.774 -14.057   5.641  0.98 21.00     0.195 C 
BRANCH  21  22
ATOM     22  C   ASP C 641     -18.563 -15.216   5.038  0.73 18.91     0.197 C 
ATOM     23  OXT ASP C 641     -19.664 -15.562   5.482  0.98 17.70    -0.646 OA
ATOM     24  O   ASP C 641     -18.100 -15.852   4.091  0.91 21.96    -0.646 OA
ENDBRANCH  21  22
BRANCH  21  25
ATOM     25  CB  ASP C 641     -16.567 -14.623   6.385  0.96 19.58     0.149 C 
BRANCH  25  26
ATOM     26  CG  ASP C 641     -15.635 -13.543   6.881  0.90 21.89     0.175 C 
ATOM     27  OD1 ASP C 641     -15.211 -12.704   6.059  0.85 27.90    -0.648 OA
ATOM     28  OD2 ASP C 641     -15.338 -13.532   8.093  0.93 20.35    -0.648 OA
ENDBRANCH  25  26
ENDBRANCH  21  25
ENDBRANCH  19  21
ENDBRANCH  16  17
BRANCH  16  29
ATOM     29  CB  VAL C 640     -21.334 -11.882   7.282  1.00 16.33     0.009 C 
ATOM     30  CG2 VAL C 640     -22.017 -11.428   6.005  1.00 16.91     0.012 C 
ATOM     31  CG1 VAL C 640     -22.101 -11.399   8.500  1.00 16.01     0.012 C 
ENDBRANCH  16  29
ENDBRANCH  13  16
ENDBRANCH   6  12
ENDBRANCH   3   6
ENDBRANCH   1   2
BRANCH   1  32
ATOM     32  CB  GLU C 638     -18.377  -4.160  10.921  1.00 21.71     0.045 C 
BRANCH  32  33
ATOM     33  CG  GLU C 638     -17.576  -3.718  12.145  1.00 22.46     0.116 C 
BRANCH  33  34
ATOM     34  CD  GLU C 638     -18.170  -2.515  12.848  0.75 28.07     0.172 C 
ATOM     35  OE1 GLU C 638     -19.403  -2.327  12.778  0.87 31.25    -0.648 OA
ATOM     36  OE2 GLU C 638     -17.399  -1.761  13.478  0.82 29.94    -0.648 OA
ENDBRANCH  33  34
ENDBRANCH  32  33
ENDBRANCH   1  32
BRANCH   1  37
ATOM     37  N   GLU C 638     -16.423  -5.135   9.781  1.00 17.26    -0.346 N 
ATOM     38  C   ILE C 637     -15.499  -6.091   9.740  0.84 18.48     0.241 C 
ATOM     39  O   ILE C 637     -15.736  -7.259  10.061  0.97 17.51    -0.271 OA
ATOM     40  H   GLU C 638     -16.285  -4.322   9.537  1.00 17.26     0.163 HD
BRANCH  38  41
ATOM     41  CA  ILE C 637     -14.107  -5.682   9.244  1.00 18.14     0.180 C 
BRANCH  41  42
ATOM     42  N   ILE C 637     -14.170  -4.470   8.439  0.98 19.60    -0.346 N 
ATOM     43  H   ILE C 637     -13.849  -3.770   8.822  0.98 19.60     0.163 HD
ATOM     44  C   THR C 636     -14.687  -4.478   7.216  0.88 23.50     0.243 C 
ATOM     45  O   THR C 636     -15.091  -5.507   6.666  0.88 24.24    -0.271 OA
BRANCH  44  46
ATOM     46  CA  THR C 636     -14.752  -3.130   6.505  0.86 24.41     0.205 C 
BRANCH  46  47
ATOM     47  CB  THR C 636     -16.025  -2.363   6.933  1.00 21.14     0.146 C 
ATOM     48  CG2 THR C 636     -17.279  -3.081   6.454  0.94 24.86     0.042 C 
BRANCH  47  49
ATOM     49  OG1 THR C 636     -16.068  -2.247   8.362  0.91 21.02    -0.393 OA
ATOM     50  HG1 THR C 636     -15.291  -2.125   8.657  0.91 21.02     0.210 HD
ENDBRANCH  47  49
ENDBRANCH  46  47
BRANCH  46  51
ATOM     51  N   THR C 636     -14.679  -3.316   5.061  1.00 28.35    -0.343 N 
ATOM     52  H   THR C 636     -15.374  -3.681   4.710  1.00 28.35     0.163 HD
ATOM     53  C   PRO C 635     -13.605  -2.939   4.374  0.97 29.67     0.254 C 
ATOM     54  O   PRO C 635     -12.657  -2.341   4.883  0.74 30.58    -0.271 OA
BRANCH  53  55
ATOM     55  CA  PRO C 635     -13.591  -3.262   2.884  0.83 29.80     0.352 C 
ATOM     56  N   PRO C 635     -12.926  -2.213   2.103  0.99 34.94     0.318 N 
ATOM     57  CD  PRO C 635     -11.537  -2.563   1.757  1.00 36.87     0.315 C 
ATOM     58  CG  PRO C 635     -11.370  -3.946   2.314  0.65 32.23     0.035 C 
ATOM     59  CB  PRO C 635     -12.722  -4.491   2.621  0.86 32.79     0.050 C 
ENDBRANCH  53  55
ENDBRANCH  46  51
ENDBRANCH  44  46
ENDBRANCH  41  42
BRANCH  41  60
ATOM     60  CB  ILE C 637     -13.134  -5.509  10.437  0.96 16.96     0.013 C 
ATOM     61  CG2 ILE C 637     -13.702  -4.539  11.466  1.00 17.73     0.012 C 
BRANCH  60  62
ATOM     62  CG1 ILE C 637     -12.776  -6.875  11.044  0.90 16.94     0.002 C 
ATOM     63  CD1 ILE C 637     -11.625  -6.826  12.022  1.00 16.64     0.005 C 
ENDBRANCH  60  62
ENDBRANCH  41  60
ENDBRANCH  38  41
ENDBRANCH   1  37
TORSDOF 26
