USER: ADFR SOLUTION from run 0
USER: SCORE 20.766516 LL:  -4.450 LR: -19.407 RR:   0.000 FEB: -11.651
USER: RMSD 0.762361
USER: STATUS Locally minimized using BFGS
USER: GENES 28
USER: genes 0 Translation |==|  0.45009 0.63244 0.64983
USER: genes 1 Rotation |==|  0.52511 0.51231 0.50250 0.99921
USER: genes 2 Torsion [N]-CA--C-[N] |==|  0.17255
USER: genes 3 Torsion [C]-N--CA-[CB] |==|  0.27130
USER: genes 4 Torsion [N]-CA--CB-[CG] |==|  0.73464
USER: genes 5 Torsion [CA]-CB--CG-[CD] |==|  0.81215
USER: genes 6 Torsion [CB]-CG--CD-[OE2] |==|  0.92315
USER: genes 7 Torsion [N]-CA--C-[N] |==|  0.44705
USER: genes 8 Torsion [C]-N--CA-[CB] |==|  0.41389
USER: genes 9 Torsion [N]-CA--C-[N] |==|  0.40764
USER: genes 10 Torsion [C]-N--CA-[C] |==|  0.69445
USER: genes 11 Torsion [N]-CA--C-[OXT] |==|  0.98494
USER: genes 12 Torsion [N]-CA--CB-[CG] |==|  0.86347
USER: genes 13 Torsion [CA]-CB--CG-[OD1] |==|  0.82698
USER: genes 14 Torsion [N]-CA--CB-[CG2] |==|  0.13290
USER: genes 15 Torsion [C]-CA--CB-[CG] |==|  0.44156
USER: genes 16 Torsion [CA]-CB--CG-[CD] |==|  0.54104
USER: genes 17 Torsion [CB]-CG--CD-[OE1] |==|  0.07226
USER: genes 18 Torsion [C]-CA--N-[C] |==|  0.74496
USER: genes 19 Torsion [N]-C--CA-[N] |==|  0.94610
USER: genes 20 Torsion [C]-CA--N-[C] |==|  0.76667
USER: genes 21 Torsion [N]-C--CA-[N] |==|  0.42199
USER: genes 22 Torsion [C]-CA--CB-[OG1] |==|  0.18822
USER: genes 23 Torsion [CA]-CB--OG1-[HG1] |==|  0.11406
USER: genes 24 Torsion [C]-CA--N-[C] |==|  0.68350
USER: genes 25 Torsion [N]-C--CA-[N] |==|  0.38046
USER: genes 26 Torsion [C]-CA--CB-[CG1] |==|  0.18999
USER: genes 27 Torsion [CA]-CB--CG1-[CD1] |==|  0.45089
ROOT
ATOM      1  CA  GLU C 638     -17.671  -5.826  10.651  1.00 17.54 LIG 0.18  C 
ENDROOT
BRANCH 1 2
ATOM      2  C   GLU C 638     -18.614  -6.249   9.530  0.98 18.52 LIG 0.24  C 
ATOM      3  N   GLU C 639     -18.252  -7.339   8.870  0.99 18.65 LIG-0.35  N 
ATOM      4 H    GLU C 639     -17.512  -7.756   9.007  0.99 18.65 LIG 0.16  HD
ATOM      5 O    GLU C 638     -19.633  -5.604   9.264  0.88 20.91 LIG-0.27  OA
BRANCH 3 6
ATOM      6  CA  GLU C 639     -19.088  -7.932   7.844  0.92 18.88 LIG 0.18  C 
BRANCH 6 7
ATOM      7  CB  GLU C 639     -18.647  -7.494   6.445  1.00 24.27 LIG 0.04  C 
BRANCH 7 8
ATOM      8  CG  GLU C 639     -19.426  -6.300   5.893  0.67 25.94 LIG 0.12  C 
BRANCH 8 9
ATOM      9  CD  GLU C 639     -20.886  -6.615   5.597  0.35 26.37 LIG 0.17  C 
ATOM     10 OE2  GLU C 639     -21.206  -7.785   5.307  0.36 27.92 LIG-0.65  OA
ATOM     11 OE1  GLU C 639     -21.725  -5.692   5.658  0.59 30.05 LIG-0.65  OA
ENDBRANCH 8 9
ENDBRANCH 7 8
ENDBRANCH 6 7
BRANCH 6 12
ATOM     12  C   GLU C 639     -19.036  -9.439   7.973  0.91 17.75 LIG 0.24  C 
ATOM     13  N   VAL C 640     -20.020 -10.102   7.388  1.00 17.26 LIG-0.35  N 
ATOM     14 H    VAL C 640     -20.659  -9.730   6.948  1.00 17.26 LIG 0.16  HD
ATOM     15 O    GLU C 639     -18.141  -9.986   8.608  0.96 15.43 LIG-0.27  OA
BRANCH 13 16
ATOM     16  CA  VAL C 640     -20.093 -11.551   7.449  0.98 17.07 LIG 0.18  C 
BRANCH 16 17
ATOM     17  C   VAL C 640     -19.334 -12.196   6.293  0.84 18.29 LIG 0.24  C 
ATOM     18 O    VAL C 640     -19.286 -11.657   5.187  0.87 20.22 LIG-0.27  OA
ATOM     19  N   ASP C 641     -18.750 -13.359   6.565  0.93 16.51 LIG-0.34  N 
ATOM     20 H    ASP C 641     -18.797 -13.740   7.334  0.93 16.51 LIG 0.16  HD
BRANCH 19 21
ATOM     21  CA  ASP C 641     -17.970 -14.108   5.587  0.98 21.00 LIG 0.20  C 
BRANCH 21 22
ATOM     22  C   ASP C 641     -18.677 -15.386   5.147  0.73 18.91 LIG 0.20  C 
ATOM     23 OXT  ASP C 641     -19.736 -15.762   5.665  0.98 17.70 LIG-0.65  OA
ATOM     24 O    ASP C 641     -18.188 -16.091   4.264  0.91 21.96 LIG-0.65  OA
ENDBRANCH 21 22
BRANCH 21 25
ATOM     25  CB  ASP C 641     -16.613 -14.480   6.180  0.96 19.58 LIG 0.15  C 
BRANCH 25 26
ATOM     26  CG  ASP C 641     -15.918 -13.300   6.817  0.90 21.89 LIG 0.17  C 
ATOM     27 OD1  ASP C 641     -15.612 -12.331   6.092  0.85 27.90 LIG-0.65  OA
ATOM     28 OD2  ASP C 641     -15.689 -13.344   8.043  0.93 20.35 LIG-0.65  OA
ENDBRANCH 25 26
ENDBRANCH 21 25
ENDBRANCH 19 21
ENDBRANCH 16 17
BRANCH 16 29
ATOM     29  CB  VAL C 640     -21.557 -12.024   7.425  1.00 16.33 LIG 0.01  C 
ATOM     30  CG2 VAL C 640     -22.312 -11.321   6.312  1.00 16.91 LIG 0.01  C 
ATOM     31  CG1 VAL C 640     -22.221 -11.770   8.766  1.00 16.01 LIG 0.01  C 
ENDBRANCH 16 29
ENDBRANCH 13 16
ENDBRANCH 6 12
ENDBRANCH 3 6
ENDBRANCH 1 2
BRANCH 1 32
ATOM     32  CB  GLU C 638     -18.244  -4.665  11.466  1.00 21.71 LIG 0.04  C 
BRANCH 32 33
ATOM     33  CG  GLU C 638     -17.609  -4.563  12.852  1.00 22.46 LIG 0.12  C 
BRANCH 33 34
ATOM     34  CD  GLU C 638     -18.383  -3.672  13.802  0.75 28.07 LIG 0.17  C 
ATOM     35 OE1  GLU C 638     -19.609  -3.520  13.618  0.87 31.25 LIG-0.65  OA
ATOM     36 OE2  GLU C 638     -17.760  -3.130  14.739  0.82 29.94 LIG-0.65  OA
ENDBRANCH 33 34
ENDBRANCH 32 33
ENDBRANCH 1 32
BRANCH 1 37
ATOM     37  N   GLU C 638     -16.342  -5.497  10.140  1.00 17.26 LIG-0.35  N 
ATOM     38  C   ILE C 637     -15.378  -6.410  10.066  0.84 18.48 LIG 0.24  C 
ATOM     39 O    ILE C 637     -15.553  -7.590  10.386  0.97 17.51 LIG-0.27  OA
ATOM     40 H    GLU C 638     -16.248  -4.677   9.897  1.00 17.26 LIG 0.16  HD
BRANCH 38 41
ATOM     41  CA  ILE C 637     -14.020  -5.937   9.534  1.00 18.14 LIG 0.18  C 
BRANCH 41 42
ATOM     42  N   ILE C 637     -14.152  -4.694   8.787  0.98 19.60 LIG-0.35  N 
ATOM     43 H    ILE C 637     -13.989  -3.984   9.244  0.98 19.60 LIG 0.16  HD
ATOM     44  C   THR C 636     -14.498  -4.690   7.505  0.88 23.50 LIG 0.24  C 
ATOM     45 O    THR C 636     -14.674  -5.726   6.856  0.88 24.24 LIG-0.27  OA
BRANCH 44 46
ATOM     46  CA  THR C 636     -14.664  -3.319   6.857  0.86 24.41 LIG 0.20  C 
BRANCH 46 47
ATOM     47  CB  THR C 636     -16.077  -2.761   7.147  1.00 21.14 LIG 0.15  C 
ATOM     48  CG2 THR C 636     -17.150  -3.765   6.750  0.94 24.86 LIG 0.04  C 
BRANCH 47 49
ATOM     49 OG1  THR C 636     -16.208  -2.463   8.543  0.91 21.02 LIG-0.39  OA
ATOM     50 HG1  THR C 636     -15.500  -2.106   8.821  0.91 21.02 LIG 0.21  HD
ENDBRANCH 47 49
ENDBRANCH 46 47
BRANCH 46 51
ATOM     51  N   THR C 636     -14.384  -3.398   5.429  1.00 28.35 LIG-0.34  N 
ATOM     52 H    THR C 636     -14.943  -3.871   4.978  1.00 28.35 LIG 0.16  HD
ATOM     53  C   PRO C 635     -13.336  -2.774   4.900  0.97 29.67 LIG 0.25  C 
ATOM     54 O    PRO C 635     -12.597  -2.032   5.548  0.74 30.58 LIG-0.27  OA
BRANCH 53 55
ATOM     55  CA  PRO C 635     -13.079  -2.995   3.414  0.83 29.80 LIG 0.35  C 
ATOM     56  N   PRO C 635     -12.729  -1.747   2.727  0.99 34.94 LIG 0.32  N 
ATOM     57  CD  PRO C 635     -11.277  -1.605   2.521  1.00 36.87 LIG 0.32  C 
ATOM     58  CG  PRO C 635     -10.714  -2.885   3.065  0.65 32.23 LIG 0.04  C 
ATOM     59  CB  PRO C 635     -11.833  -3.857   3.218  0.86 32.79 LIG 0.05  C 
ENDBRANCH 53 55
ENDBRANCH 46 51
ENDBRANCH 44 46
ENDBRANCH 41 42
BRANCH 41 60
ATOM     60  CB  ILE C 637     -13.005  -5.785  10.694  0.96 16.96 LIG 0.01  C 
ATOM     61  CG2 ILE C 637     -13.525  -4.817  11.749  1.00 17.73 LIG 0.01  C 
BRANCH 60 62
ATOM     62  CG1 ILE C 637     -12.642  -7.160  11.278  0.90 16.94 LIG 0.00  C 
ATOM     63  CD1 ILE C 637     -11.376  -7.159  12.102  1.00 16.64 LIG 0.01  C 
ENDBRANCH 60 62
ENDBRANCH 41 60
ENDBRANCH 38 41
ENDBRANCH 1 37
TORSDOF 26
