REMARK  18 active torsions:
REMARK  status: ('A' for Active; 'I' for Inactive)
REMARK    1  A    between atoms: CA_2  and  C_3 
REMARK       I    between atoms: C_3  and  N_8 
REMARK    2  A    between atoms: N_8  and  CA_9 
REMARK    3  A    between atoms: CA_9  and  CB_12 
REMARK    4  A    between atoms: CA_9  and  C_10 
REMARK       I    between atoms: C_10  and  N_16 
REMARK    5  A    between atoms: CB_12  and  OG_13 
REMARK    6  A    between atoms: N_16  and  CA_17 
REMARK    7  A    between atoms: CA_17  and  CB_20 
REMARK    8  A    between atoms: CA_17  and  C_18 
REMARK       I    between atoms: C_18  and  N_24 
REMARK    9  A    between atoms: CB_20  and  OG_21 
REMARK   10  A    between atoms: N_24  and  CA_25 
REMARK   11  A    between atoms: CA_25  and  CB_28 
REMARK   12  A    between atoms: CA_25  and  C_26 
REMARK       I    between atoms: C_26  and  N_33 
REMARK   13  A    between atoms: CB_28  and  OG1_29 
REMARK   14  A    between atoms: CA_34  and  C_35 
REMARK       I    between atoms: C_35  and  N_40 
REMARK   15  A    between atoms: N_40  and  CA_41 
REMARK   16  A    between atoms: CA_41  and  C_42 
REMARK   17  A    between atoms: CA_41  and  CB_44 
REMARK   18  A    between atoms: CB_44  and  SG_45 
ROOT
ATOM      1  C   SER B   4     -19.475  -9.037  14.447  1.00 56.97     0.243 C 
ATOM      2  O   SER B   4     -19.678  -9.311  13.260  1.00 57.23    -0.271 OA
ATOM      3  N   THR B   5     -18.331  -8.500  14.882  1.00 55.89    -0.344 N 
ATOM      4  H   THR B   5     -18.170  -8.317  15.707  1.00 55.89     0.163 HD
ENDROOT
BRANCH   3   5
ATOM      5  CA  THR B   5     -17.230  -8.172  13.961  1.00 55.10     0.205 C 
BRANCH   5   6
ATOM      6  CB  THR B   5     -17.463  -6.793  13.245  1.00 55.33     0.146 C 
ATOM      7  CG2 THR B   5     -18.493  -5.933  13.990  1.00 55.26     0.042 C 
BRANCH   6   8
ATOM      8  OG1 THR B   5     -16.225  -6.068  13.142  1.00 55.55    -0.393 OA
ATOM      9  HG1 THR B   5     -16.361  -5.334  12.757  1.00 55.55     0.210 HD
ENDBRANCH   6   8
ENDBRANCH   5   6
BRANCH   5  10
ATOM     10  C   THR B   5     -15.839  -8.191  14.622  1.00 54.13     0.245 C 
ATOM     11  N   PRO B   6     -15.019  -9.221  14.315  1.00 52.90    -0.337 N 
ATOM     12  CD  PRO B   6     -15.328 -10.399  13.481  1.00 52.89     0.127 C 
ATOM     13  CA  PRO B   6     -13.644  -9.260  14.832  1.00 51.99     0.179 C 
ATOM     14  CG  PRO B   6     -14.097 -11.262  13.604  1.00 52.79     0.022 C 
ATOM     15  CB  PRO B   6     -12.986 -10.378  14.016  1.00 51.93     0.037 C 
ATOM     16  O   THR B   5     -15.499  -7.275  15.385  1.00 54.19    -0.271 OA
BRANCH  13  17
ATOM     17  C   PRO B   6     -12.933  -7.932  14.592  1.00 51.04     0.241 C 
ATOM     18  O   PRO B   6     -13.002  -7.398  13.481  1.00 50.92    -0.271 OA
ATOM     19  N   CYS B   7     -12.263  -7.401  15.616  1.00 49.72    -0.344 N 
ATOM     20  H   CYS B   7     -12.129  -7.801  16.365  1.00 49.72     0.163 HD
BRANCH  19  21
ATOM     21  CA  CYS B   7     -11.686  -6.044  15.530  1.00 48.85     0.194 C 
BRANCH  21  22
ATOM     22  C   CYS B   7     -10.190  -6.027  15.221  1.00 48.04     0.197 C 
ATOM     23  OXT CYS B   7      -9.657  -6.925  14.573  1.00 47.16    -0.646 OA
ATOM     24  O   CYS B   7      -9.487  -5.102  15.619  1.00 47.51    -0.646 OA
ENDBRANCH  21  22
BRANCH  21  25
ATOM     25  CB  CYS B   7     -11.983  -5.251  16.810  1.00 48.98     0.106 C 
BRANCH  25  26
ATOM     26  SG  CYS B   7     -13.594  -4.441  16.757  1.00 48.50    -0.180 SA
ATOM     27  HG  CYS B   7     -14.412  -5.204  16.322  1.00 48.50     0.101 HD
ENDBRANCH  25  26
ENDBRANCH  21  25
ENDBRANCH  19  21
ENDBRANCH  13  17
ENDBRANCH   5  10
ENDBRANCH   3   5
BRANCH   1  28
ATOM     28  CA  SER B   4     -20.553  -9.320  15.500  1.00 57.59     0.200 C 
BRANCH  28  29
ATOM     29  N   SER B   4     -21.911  -9.282  14.942  1.00 58.14    -0.344 N 
ATOM     30  C   SER B   3     -22.893  -8.575  15.502  1.00 58.75     0.243 C 
ATOM     31  O   SER B   3     -22.695  -7.783  16.427  1.00 58.75    -0.271 OA
ATOM     32  H   SER B   4     -22.011  -9.753  14.229  1.00 58.14     0.163 HD
BRANCH  30  33
ATOM     33  CA  SER B   3     -24.311  -8.772  14.923  1.00 59.17     0.200 C 
BRANCH  33  34
ATOM     34  N   SER B   3     -25.214  -7.701  15.371  1.00 59.50    -0.344 N 
ATOM     35  C   PRO B   2     -26.548  -7.794  15.456  1.00 59.86     0.254 C 
ATOM     36  O   PRO B   2     -27.252  -6.822  15.753  1.00 59.80    -0.271 OA
ATOM     37  H   SER B   3     -24.793  -6.981  15.582  1.00 59.50     0.163 HD
BRANCH  35  38
ATOM     38  CA  PRO B   2     -27.234  -9.140  15.169  1.00 60.11     0.352 C 
ATOM     39  CB  PRO B   2     -27.420  -9.364  13.660  1.00 60.16     0.050 C 
ATOM     40  CG  PRO B   2     -28.785  -9.944  13.503  1.00 60.30     0.035 C 
ATOM     41  CD  PRO B   2     -29.605  -9.400  14.625  1.00 60.25     0.315 C 
ATOM     42  N   PRO B   2     -28.611  -9.162  15.686  1.00 60.27     0.318 N 
ENDBRANCH  35  38
ENDBRANCH  33  34
BRANCH  33  43
ATOM     43  CB  SER B   3     -24.247  -8.803  13.391  1.00 59.26     0.199 C 
BRANCH  43  44
ATOM     44  OG  SER B   3     -24.089 -10.130  12.916  1.00 59.53    -0.398 OA
ATOM     45  HG  SER B   3     -24.058 -10.125  12.077  1.00 59.53     0.209 HD
ENDBRANCH  43  44
ENDBRANCH  33  43
ENDBRANCH  30  33
ENDBRANCH  28  29
BRANCH  28  46
ATOM     46  CB  SER B   4     -20.321 -10.696  16.129  1.00 57.64     0.199 C 
BRANCH  46  47
ATOM     47  OG  SER B   4     -21.031 -10.818  17.354  1.00 57.32    -0.398 OA
ATOM     48  HG  SER B   4     -20.523 -10.622  17.993  1.00 57.32     0.209 HD
ENDBRANCH  46  47
ENDBRANCH  28  46
ENDBRANCH   1  28
TORSDOF 18
