USER: ADFR SOLUTION from run 0
USER: SCORE 10.164620 LL:  -2.587 LR:  -9.292 RR:   0.000 FEB:  -3.923
USER: RMSD 0.470264
USER: STATUS Locally minimized using BFGS
USER: GENES 20
USER: genes 0 Translation |==|  0.50584 0.43396 0.48015
USER: genes 1 Rotation |==|  0.48837 0.49268 0.52013 0.99941
USER: genes 2 Torsion [C]-N--CA-[CB] |==|  0.24398
USER: genes 3 Torsion [N]-CA--CB-[CG2] |==|  0.06260
USER: genes 4 Torsion [CA]-CB--OG1-[HG1] |==|  0.49885
USER: genes 5 Torsion [N]-CA--C-[N] |==|  0.28325
USER: genes 6 Torsion [N]-CA--C-[O] |==|  0.85736
USER: genes 7 Torsion [C]-N--CA-[CB] |==|  0.36651
USER: genes 8 Torsion [N]-CA--C-[O] |==|  0.60192
USER: genes 9 Torsion [N]-CA--CB-[SG] |==|  0.76469
USER: genes 10 Torsion [CA]-CB--SG-[HG] |==|  0.12125
USER: genes 11 Torsion [N]-C--CA-[N] |==|  0.42463
USER: genes 12 Torsion [C]-CA--N-[C] |==|  0.64744
USER: genes 13 Torsion [N]-C--CA-[N] |==|  0.53875
USER: genes 14 Torsion [C]-CA--N-[C] |==|  0.57920
USER: genes 15 Torsion [N]-C--CA-[N] |==|  0.44266
USER: genes 16 Torsion [C]-CA--CB-[OG] |==|  0.25757
USER: genes 17 Torsion [CA]-CB--OG-[HG] |==|  0.50022
USER: genes 18 Torsion [C]-CA--CB-[OG] |==|  0.44833
USER: genes 19 Torsion [CA]-CB--OG-[HG] |==|  0.73549
ROOT
ATOM      1  C   SER B   4     -19.380  -8.842  14.752  1.00 56.97 LIG 0.24  C 
ATOM      2 O    SER B   4     -19.523  -9.185  13.574  1.00 57.23 LIG-0.27  OA
ATOM      3  N   THR B   5     -18.296  -8.194  15.192  1.00 55.89 LIG-0.34  N 
ATOM      4 H    THR B   5     -18.176  -7.962  16.012  1.00 55.89 LIG 0.16  HD
ENDROOT
BRANCH 3 5
ATOM      5  CA  THR B   5     -17.197  -7.820  14.287  1.00 55.10 LIG 0.20  C 
BRANCH 5 6
ATOM      6  CB  THR B   5     -17.444  -6.419  13.621  1.00 55.33 LIG 0.15  C 
ATOM      7  CG2 THR B   5     -18.416  -5.562  14.444  1.00 55.26 LIG 0.04  C 
BRANCH 6 8
ATOM      8 OG1  THR B   5     -16.201  -5.712  13.467  1.00 55.55 LIG-0.39  OA
ATOM      9 HG1  THR B   5     -16.344  -4.968  13.105  1.00 55.55 LIG 0.21  HD
ENDBRANCH 6 8
ENDBRANCH 5 6
BRANCH 5 10
ATOM     10  C   THR B   5     -15.807  -7.847  14.951  1.00 54.13 LIG 0.24  C 
ATOM     11  N   PRO B   6     -15.016  -8.912  14.694  1.00 52.90 LIG-0.34  N 
ATOM     12  CD  PRO B   6     -15.356 -10.118  13.914  1.00 52.89 LIG 0.13  C 
ATOM     13  CA  PRO B   6     -13.643  -8.965  15.215  1.00 51.99 LIG 0.18  C 
ATOM     14  CG  PRO B   6     -14.149 -11.008  14.079  1.00 52.79 LIG 0.02  C 
ATOM     15  CB  PRO B   6     -13.015 -10.137  14.452  1.00 51.93 LIG 0.04  C 
ATOM     16 O    THR B   5     -15.443  -6.906  15.672  1.00 54.19 LIG-0.27  OA
BRANCH 13 17
ATOM     17  C   PRO B   6     -12.895  -7.669  14.916  1.00 51.04 LIG 0.24  C 
ATOM     18 O    PRO B   6     -12.879  -7.230  13.762  1.00 50.92 LIG-0.27  OA
ATOM     19  N   CYS B   7     -12.289  -7.061  15.936  1.00 49.72 LIG-0.34  N 
ATOM     20 H    CYS B   7     -12.214  -7.398  16.723  1.00 49.72 LIG 0.16  HD
BRANCH 19 21
ATOM     21  CA  CYS B   7     -11.686  -5.722  15.778  1.00 48.85 LIG 0.19  C 
BRANCH 21 22
ATOM     22  C   CYS B   7     -10.163  -5.741  15.650  1.00 48.04 LIG 0.20  C 
ATOM     23 OXT  CYS B   7      -9.581  -6.635  15.040  1.00 47.16 LIG-0.65  OA
ATOM     24 O    CYS B   7      -9.489  -4.851  16.160  1.00 47.51 LIG-0.65  OA
ENDBRANCH 21 22
BRANCH 21 25
ATOM     25  CB  CYS B   7     -12.120  -4.797  16.924  1.00 48.98 LIG 0.11  C 
BRANCH 25 26
ATOM     26 SG   CYS B   7     -13.712  -4.011  16.605  1.00 48.50 LIG-0.18  SA
ATOM     27 HG   CYS B   7     -14.477  -4.821  16.158  1.00 48.50 LIG 0.10  HD
ENDBRANCH 25 26
ENDBRANCH 21 25
ENDBRANCH 19 21
ENDBRANCH 13 17
ENDBRANCH 5 10
ENDBRANCH 3 5
BRANCH 1 28
ATOM     28  CA  SER B   4     -20.464  -9.163  15.787  1.00 57.59 LIG 0.20  C 
BRANCH 28 29
ATOM     29  N   SER B   4     -21.802  -9.267  15.190  1.00 58.14 LIG-0.34  N 
ATOM     30  C   SER B   3     -22.843  -8.571  15.647  1.00 58.75 LIG 0.24  C 
ATOM     31 O    SER B   3     -22.725  -7.680  16.491  1.00 58.75 LIG-0.27  OA
ATOM     32 H    SER B   4     -21.848  -9.813  14.527  1.00 58.14 LIG 0.16  HD
BRANCH 30 33
ATOM     33  CA  SER B   3     -24.226  -8.915  15.051  1.00 59.17 LIG 0.20  C 
BRANCH 33 34
ATOM     34  N   SER B   3     -25.213  -7.876  15.383  1.00 59.50 LIG-0.34  N 
ATOM     35  C   PRO B   2     -26.532  -8.070  15.515  1.00 59.86 LIG 0.25  C 
ATOM     36 O    PRO B   2     -27.314  -7.132  15.705  1.00 59.80 LIG-0.27  OA
ATOM     37 H    SER B   3     -24.853  -7.101  15.488  1.00 59.50 LIG 0.16  HD
BRANCH 35 38
ATOM     38  CA  PRO B   2     -27.101  -9.496  15.422  1.00 60.11 LIG 0.35  C 
ATOM     39  CB  PRO B   2     -27.379  -9.894  13.964  1.00 60.16 LIG 0.05  C 
ATOM     40  CG  PRO B   2     -28.687 -10.609  13.983  1.00 60.30 LIG 0.04  C 
ATOM     41  CD  PRO B   2     -29.469 -10.026  15.113  1.00 60.25 LIG 0.32  C 
ATOM     42  N   PRO B   2     -28.425  -9.588  16.056  1.00 60.27 LIG 0.32  N 
ENDBRANCH 35 38
ENDBRANCH 33 34
BRANCH 33 43
ATOM     43  CB  SER B   3     -24.112  -9.069  13.530  1.00 59.26 LIG 0.20  C 
BRANCH 43 44
ATOM     44 OG   SER B   3     -23.881 -10.422  13.173  1.00 59.53 LIG-0.40  OA
ATOM     45 HG   SER B   3     -23.821 -10.485  12.337  1.00 59.53 LIG 0.21  HD
ENDBRANCH 43 44
ENDBRANCH 33 43
ENDBRANCH 30 33
ENDBRANCH 28 29
BRANCH 28 46
ATOM     46  CB  SER B   4     -20.139 -10.482  16.492  1.00 57.64 LIG 0.20  C 
BRANCH 46 47
ATOM     47 OG   SER B   4     -20.857 -10.593  17.714  1.00 57.32 LIG-0.40  OA
ATOM     48 HG   SER B   4     -20.374 -10.329  18.348  1.00 57.32 LIG 0.21  HD
ENDBRANCH 46 47
ENDBRANCH 28 46
ENDBRANCH 1 28
TORSDOF 18
