USER: ADFR SOLUTION from run 0
USER: SCORE 14.956188 LL:  -5.200 LR: -14.153 RR:   0.000 FEB:  -5.502
USER: RMSD 0.220557
USER: STATUS Locally minimized using BFGS
USER: GENES 31
USER: genes 0 Translation |==|  0.42708 0.42977 0.45196
USER: genes 1 Rotation |==|  0.50818 0.50002 0.50462 0.99991
USER: genes 2 Torsion [C]-CA--CB-[CG] |==|  0.89977
USER: genes 3 Torsion [CA]-CB--CG-[CD] |==|  0.77594
USER: genes 4 Torsion [CB]-CG--CD-[NE] |==|  0.50631
USER: genes 5 Torsion [CG]-CD--NE-[CZ] |==|  0.51527
USER: genes 6 Torsion [N]-CA--C-[N] |==|  0.42581
USER: genes 7 Torsion [C]-N--CA-[CB] |==|  0.43379
USER: genes 8 Torsion [N]-CA--C-[N] |==|  0.36370
USER: genes 9 Torsion [C]-N--CA-[CB] |==|  0.32897
USER: genes 10 Torsion [N]-CA--CB-[CG2] |==|  0.83931
USER: genes 11 Torsion [N]-CA--C-[N] |==|  0.30176
USER: genes 12 Torsion [N]-CA--C-[O] |==|  0.88332
USER: genes 13 Torsion [C]-N--CA-[C] |==|  0.68336
USER: genes 14 Torsion [N]-CA--C-[O] |==|  0.07115
USER: genes 15 Torsion [N]-CA--CB-[SG] |==|  0.78024
USER: genes 16 Torsion [CA]-CB--SG-[HG] |==|  0.15094
USER: genes 17 Torsion [N]-CA--CB-[CG] |==|  0.76727
USER: genes 18 Torsion [CA]-CB--CG-[CD] |==|  0.51599
USER: genes 19 Torsion [CB]-CG--CD-[OE2] |==|  0.53882
USER: genes 20 Torsion [CB]-CA--N-[C] |==|  0.28333
USER: genes 21 Torsion [N]-C--CA-[N] |==|  0.39471
USER: genes 22 Torsion [C]-CA--N-[C] |==|  0.81194
USER: genes 23 Torsion [N]-C--CA-[N] |==|  0.39105
USER: genes 24 Torsion [C]-CA--CB-[CG] |==|  0.51030
USER: genes 25 Torsion [CA]-CB--CG-[CD] |==|  0.46270
USER: genes 26 Torsion [CB]-CG--CD-[OE1] |==|  0.10804
USER: genes 27 Torsion [C]-CA--N-[C] |==|  0.71436
USER: genes 28 Torsion [C]-CA--CB-[CG] |==|  0.88106
USER: genes 29 Torsion [CA]-CB--CG-[CD] |==|  0.47897
USER: genes 30 Torsion [CB]-CG--CD-[OE1] |==|  0.57043
ROOT
ATOM      1  CA  ARG B   3     -23.393  -9.400  15.211  0.80 33.15 LIG 0.18  C 
ENDROOT
BRANCH 1 2
ATOM      2  CB  ARG B   3     -23.314  -9.356  13.675  0.80 33.78 LIG 0.04  C 
BRANCH 2 3
ATOM      3  CG  ARG B   3     -22.413  -8.284  13.060  0.80 35.93 LIG 0.02  C 
BRANCH 3 4
ATOM      4  CD  ARG B   3     -23.073  -6.924  13.001  0.80 39.27 LIG 0.14  C 
BRANCH 4 5
ATOM      5  NE  ARG B   3     -22.221  -5.919  12.363  0.80 40.38 LIG-0.23  N 
ATOM      6  CZ  ARG B   3     -22.520  -4.623  12.280  0.80 40.37 LIG 0.67  C 
ATOM      7  NH1 ARG B   3     -23.652  -4.169  12.794  0.80 40.12 LIG-0.23  N 
ATOM      8  NH2 ARG B   3     -21.681  -3.778  11.689  0.80 41.10 LIG-0.23  N 
ATOM      9 2HH1 ARG B   3     -23.844  -3.332  12.740  0.80 40.12 LIG 0.17  HD
ATOM     10 1HH1 ARG B   3     -24.196  -4.710  13.183  0.80 40.12 LIG 0.17  HD
ATOM     11 2HH2 ARG B   3     -21.877  -2.943  11.637  0.80 41.10 LIG 0.17  HD
ATOM     12 1HH2 ARG B   3     -20.941  -4.068  11.359  0.80 41.10 LIG 0.17  HD
ATOM     13 HE   ARG B   3     -21.478  -6.182  12.020  0.80 40.38 LIG 0.18  HD
ENDBRANCH 4 5
ENDBRANCH 3 4
ENDBRANCH 2 3
ENDBRANCH 1 2
BRANCH 1 14
ATOM     14  C   ARG B   3     -22.052  -9.064  15.842  0.80 30.98 LIG 0.24  C 
ATOM     15 O    ARG B   3     -21.826  -7.922  16.235  0.80 30.41 LIG-0.27  OA
ATOM     16  N   GLU B   4     -21.191 -10.071  15.950  0.80 28.71 LIG-0.35  N 
ATOM     17 H    GLU B   4     -21.390 -10.890  15.776  0.80 28.71 LIG 0.16  HD
BRANCH 16 18
ATOM     18  CA  GLU B   4     -19.811  -9.871  16.379  0.80 27.21 LIG 0.18  C 
BRANCH 18 19
ATOM     19  C   GLU B   4     -18.985  -9.439  15.179  0.80 25.80 LIG 0.24  C 
ATOM     20 O    GLU B   4     -19.054 -10.051  14.097  0.80 26.39 LIG-0.27  OA
ATOM     21  N   VAL B   5     -18.221  -8.373  15.368  0.80 23.72 LIG-0.35  N 
ATOM     22 H    VAL B   5     -18.221  -7.911  16.093  0.80 23.72 LIG 0.16  HD
BRANCH 21 23
ATOM     23  CA  VAL B   5     -17.303  -7.883  14.354  0.80 22.93 LIG 0.18  C 
BRANCH 23 24
ATOM     24  CB  VAL B   5     -17.647  -6.460  13.899  0.80 23.26 LIG 0.01  C 
ATOM     25  CG2 VAL B   5     -19.074  -6.406  13.355  0.80 23.62 LIG 0.01  C 
ATOM     26  CG1 VAL B   5     -16.667  -5.996  12.847  0.80 24.46 LIG 0.01  C 
ENDBRANCH 23 24
BRANCH 23 27
ATOM     27  C   VAL B   5     -15.905  -7.911  14.965  0.80 21.40 LIG 0.24  C 
ATOM     28  N   PRO B   6     -15.060  -8.844  14.501  0.80 20.87 LIG-0.34  N 
ATOM     29  CD  PRO B   6     -15.302 -10.003  13.631  0.80 21.07 LIG 0.13  C 
ATOM     30  CA  PRO B   6     -13.697  -8.859  15.035  0.80 20.34 LIG 0.18  C 
ATOM     31  CG  PRO B   6     -14.147 -10.916  13.949  0.80 22.12 LIG 0.02  C 
ATOM     32  CB  PRO B   6     -13.037 -10.017  14.284  0.80 19.87 LIG 0.04  C 
ATOM     33 O    VAL B   5     -15.594  -7.100  15.844  0.80 20.67 LIG-0.27  OA
BRANCH 30 34
ATOM     34  C   PRO B   6     -12.972  -7.557  14.758  0.80 20.23 LIG 0.24  C 
ATOM     35 O    PRO B   6     -13.088  -7.013  13.641  0.80 20.62 LIG-0.27  OA
ATOM     36  N   CYS B   7     -12.259  -7.055  15.768  0.80 18.87 LIG-0.34  N 
ATOM     37 H    CYS B   7     -12.102  -7.479  16.500  0.80 18.87 LIG 0.16  HD
BRANCH 36 38
ATOM     38  CA  CYS B   7     -11.669  -5.706  15.711  0.80 19.21 LIG 0.19  C 
BRANCH 38 39
ATOM     39  C   CYS B   7     -10.154  -5.760  15.700  0.80 19.13 LIG 0.20  C 
ATOM     40 O    CYS B   7      -9.552  -6.761  15.272  0.80 18.45 LIG-0.65  OA
ATOM     41 OXT  CYS B   7      -9.499  -4.791  16.073  0.80 19.35 LIG-0.65  OA
ENDBRANCH 38 39
BRANCH 38 42
ATOM     42  CB  CYS B   7     -12.189  -4.832  16.849  0.80 19.02 LIG 0.11  C 
BRANCH 42 43
ATOM     43 SG   CYS B   7     -13.842  -4.187  16.490  0.80 21.06 LIG-0.18  SA
ATOM     44 HG   CYS B   7     -14.579  -5.097  16.228  0.80 21.06 LIG 0.10  HD
ENDBRANCH 42 43
ENDBRANCH 38 42
ENDBRANCH 36 38
ENDBRANCH 30 34
ENDBRANCH 23 27
ENDBRANCH 21 23
ENDBRANCH 18 19
BRANCH 18 45
ATOM     45  CB  GLU B   4     -19.211 -11.143  16.976  0.80 27.21 LIG 0.04  C 
BRANCH 45 46
ATOM     46  CG  GLU B   4     -19.535 -11.358  18.433  0.80 28.14 LIG 0.12  C 
BRANCH 46 47
ATOM     47  CD  GLU B   4     -18.819 -12.549  19.039  0.80 29.53 LIG 0.17  C 
ATOM     48 OE1  GLU B   4     -17.861 -13.082  18.434  0.80 28.59 LIG-0.65  OA
ATOM     49 OE2  GLU B   4     -19.229 -12.952  20.143  0.80 31.57 LIG-0.65  OA
ENDBRANCH 46 47
ENDBRANCH 45 46
ENDBRANCH 18 45
ENDBRANCH 16 18
ENDBRANCH 1 14
BRANCH 1 50
ATOM     50  N   ARG B   3     -24.391  -8.468  15.715  0.80 34.16 LIG-0.35  N 
ATOM     51  C   GLU B   2     -25.590  -8.885  16.115  0.80 36.27 LIG 0.24  C 
ATOM     52 O    GLU B   2     -25.966 -10.057  16.011  0.80 35.80 LIG-0.27  OA
ATOM     53 H    ARG B   3     -24.138  -7.647  15.729  0.80 34.16 LIG 0.16  HD
BRANCH 51 54
ATOM     54  CA  GLU B   2     -26.519  -7.811  16.675  0.80 37.72 LIG 0.18  C 
BRANCH 54 55
ATOM     55  N   GLU B   2     -27.895  -8.067  16.255  0.80 39.05 LIG-0.35  N 
ATOM     56  C   GLN B   1     -28.253  -7.952  14.978  0.80 40.84 LIG 0.24  C 
ATOM     57 O    GLN B   1     -27.455  -7.669  14.079  0.80 40.79 LIG-0.27  OA
ATOM     58 H    GLU B   2     -28.431  -8.290  16.890  0.80 39.05 LIG 0.16  HD
BRANCH 56 59
ATOM     59  CA  GLN B   1     -29.727  -8.189  14.654  0.80 42.15 LIG 0.18  C 
BRANCH 59 60
ATOM     60  CB  GLN B   1     -29.966  -9.617  14.155  0.80 42.68 LIG 0.04  C 
BRANCH 60 61
ATOM     61  CG  GLN B   1     -31.419  -9.870  13.732  0.80 43.94 LIG 0.10  C 
BRANCH 61 62
ATOM     62  CD  GLN B   1     -31.598 -11.154  12.945  0.80 46.27 LIG 0.21  C 
ATOM     63 OE1  GLN B   1     -30.972 -12.171  13.246  0.80 48.62 LIG-0.27  OA
ATOM     64  NE2 GLN B   1     -32.464 -11.117  11.933  0.80 47.40 LIG-0.37  N 
ATOM     65 22HE GLN B   1     -32.605 -11.822  11.461  0.80 47.40 LIG 0.16  HD
ATOM     66 21HE GLN B   1     -32.883 -10.388  11.752  0.80 47.40 LIG 0.16  HD
ENDBRANCH 61 62
ENDBRANCH 60 61
ENDBRANCH 59 60
BRANCH 59 67
ATOM     67  N   GLN B   1     -30.151  -7.227  13.640  0.80 42.89 LIG-0.35  N 
ATOM     68  C   ACE B   0     -30.875  -6.147  13.935  0.80 43.46 LIG 0.21  C 
ATOM     69  CH3 ACE B   0     -31.066  -5.190  12.792  0.80 43.70 LIG 0.12  C 
ATOM     70 O    ACE B   0     -31.104  -5.814  15.100  0.80 44.01 LIG-0.27  OA
ATOM     71 H    GLN B   1     -29.892  -7.422  12.844  0.80 42.89 LIG 0.16  HD
ENDBRANCH 59 67
ENDBRANCH 56 59
ENDBRANCH 54 55
BRANCH 54 72
ATOM     72  CB  GLU B   2     -26.393  -7.706  18.205  0.80 37.98 LIG 0.04  C 
BRANCH 72 73
ATOM     73  CG  GLU B   2     -26.323  -9.026  18.968  0.80 38.47 LIG 0.12  C 
BRANCH 73 74
ATOM     74  CD  GLU B   2     -26.016  -8.827  20.448  0.80 38.45 LIG 0.17  C 
ATOM     75 OE1  GLU B   2     -25.469  -9.759  21.073  0.80 41.05 LIG-0.65  OA
ATOM     76 OE2  GLU B   2     -26.304  -7.739  20.980  0.80 38.47 LIG-0.65  OA
ENDBRANCH 73 74
ENDBRANCH 72 73
ENDBRANCH 54 72
ENDBRANCH 51 54
ENDBRANCH 1 50
TORSDOF 29
