USER: ADFR SOLUTION from run 0
USER: SCORE 16.840757 LL:  -5.036 LR: -13.759 RR:   0.000 FEB:  -7.793
USER: RMSD 0.273785
USER: STATUS Locally minimized using BFGS
USER: GENES 22
USER: genes 0 Translation |==|  0.53748 0.56818 0.62257
USER: genes 1 Rotation |==|  0.50094 0.50171 0.51045 0.99989
USER: genes 2 Torsion [N]-C--CA-[N] |==|  0.87047
USER: genes 3 Torsion [C]-CA--CB-[CG] |==|  0.16169
USER: genes 4 Torsion [CA]-CB--CG-[CD2] |==|  0.49572
USER: genes 5 Torsion [C]-CA--N-[C] |==|  0.76252
USER: genes 6 Torsion [N]-C--CA-[N] |==|  0.89276
USER: genes 7 Torsion [C]-CA--N-[C] |==|  0.82493
USER: genes 8 Torsion [N]-C--CA-[N] |==|  0.01809
USER: genes 9 Torsion [C]-CA--CB-[CG] |==|  0.14870
USER: genes 10 Torsion [CA]-CB--CG-[CD1] |==|  0.22029
USER: genes 11 Torsion [C]-N--CA-[CB] |==|  0.31667
USER: genes 12 Torsion [N]-CA--C-[N] |==|  0.38600
USER: genes 13 Torsion [C]-N--CA-[C] |==|  0.72317
USER: genes 14 Torsion [N]-CA--C-[N] |==|  0.35012
USER: genes 15 Torsion [C]-N--CA-[C] |==|  0.70333
USER: genes 16 Torsion [N]-CA--C-[O] |==|  0.94092
USER: genes 17 Torsion [N]-CA--CB-[CG] |==|  0.48401
USER: genes 18 Torsion [CA]-CB--CG-[CD] |==|  0.57022
USER: genes 19 Torsion [CB]-CG--CD-[OE2] |==|  0.48189
USER: genes 20 Torsion [N]-CA--CB-[CG] |==|  0.82135
USER: genes 21 Torsion [CA]-CB--CG-[CD2] |==|  0.33059
ROOT
ATOM      1  C   LEU B   4      -2.197  36.937  70.604  1.00 29.18 LIG 0.24  C 
ATOM      2 O    LEU B   4      -1.813  37.891  69.922  1.00 28.54 LIG-0.27  OA
ATOM      3  N   PHE B   5      -2.058  35.671  70.219  1.00 29.99 LIG-0.35  N 
ATOM      4 H    PHE B   5      -2.419  35.001  70.620  1.00 29.99 LIG 0.16  HD
ENDROOT
BRANCH 1 5
ATOM      5  CA  LEU B   4      -2.896  37.200  71.954  1.00 28.82 LIG 0.18  C 
BRANCH 5 6
ATOM      6  CB  LEU B   4      -1.933  36.961  73.092  1.00 28.29 LIG 0.04  C 
BRANCH 6 7
ATOM      7  CG  LEU B   4      -0.659  37.825  73.041  1.00 28.88 LIG-0.02  C 
ATOM      8  CD2 LEU B   4       0.192  37.508  74.259  1.00 30.37 LIG 0.01  C 
ATOM      9  CD1 LEU B   4      -0.932  39.348  72.954  1.00 31.50 LIG 0.01  C 
ENDBRANCH 6 7
ENDBRANCH 5 6
BRANCH 5 10
ATOM     10  N   LEU B   4      -4.127  36.437  72.128  1.00 28.20 LIG-0.35  N 
ATOM     11  C   TRP B   3      -5.276  36.884  71.662  1.00 29.51 LIG 0.24  C 
ATOM     12 O    TRP B   3      -5.362  37.927  71.022  1.00 30.32 LIG-0.27  OA
ATOM     13 H    LEU B   4      -4.032  35.693  72.549  1.00 28.20 LIG 0.16  HD
BRANCH 11 14
ATOM     14  CA  TRP B   3      -6.525  36.052  71.995  1.00 31.78 LIG 0.18  C 
BRANCH 14 15
ATOM     15  N   TRP B   3      -6.201  34.608  71.926  1.00 33.85 LIG-0.35  N 
ATOM     16  C   ALA B   2      -5.821  34.110  70.734  1.00 37.00 LIG 0.26  C 
ATOM     17 O    ALA B   2      -5.804  34.839  69.705  1.00 38.56 LIG-0.27  OA
ATOM     18 H    TRP B   3      -6.274  34.165  72.660  1.00 33.85 LIG 0.16  HD
BRANCH 16 19
ATOM     19  CA  ALA B   2      -5.410  32.669  70.606  1.00 38.11 LIG 0.40  C 
ATOM     20  CB  ALA B   2      -6.099  32.040  69.315  1.00 38.97 LIG 0.06  C 
ATOM     21  N   ALA B   2      -5.572  31.753  71.801  1.00 37.81 LIG 0.61  N 
ENDBRANCH 16 19
ENDBRANCH 14 15
BRANCH 14 22
ATOM     22  CB  TRP B   3      -7.060  36.476  73.380  1.00 31.58 LIG 0.07  C 
BRANCH 22 23
ATOM     23  CG  TRP B   3      -7.287  37.908  73.479  1.00 30.60 LIG-0.03  A 
ATOM     24  CD1 TRP B   3      -8.341  38.599  73.005  1.00 31.03 LIG 0.10  A 
ATOM     25  NE1 TRP B   3      -8.169  39.942  73.244  1.00 29.84 LIG-0.36  N 
ATOM     26 HE1  TRP B   3      -8.720  40.566  73.024  1.00 29.84 LIG 0.17  HD
ATOM     27  CE2 TRP B   3      -6.979  40.120  73.889  1.00 27.79 LIG 0.04  A 
ATOM     28  CD2 TRP B   3      -6.404  38.861  74.056  1.00 28.46 LIG-0.00  A 
ATOM     29  CZ2 TRP B   3      -6.378  41.284  74.344  1.00 27.89 LIG 0.03  A 
ATOM     30  CE3 TRP B   3      -5.171  38.766  74.676  1.00 31.78 LIG 0.01  A 
ATOM     31  CZ3 TRP B   3      -4.581  39.910  75.151  1.00 30.70 LIG 0.00  A 
ATOM     32  CH2 TRP B   3      -5.178  41.162  74.955  1.00 27.16 LIG 0.00  A 
ENDBRANCH 22 23
ENDBRANCH 14 22
ENDBRANCH 11 14
ENDBRANCH 5 10
ENDBRANCH 1 5
BRANCH 3 33
ATOM     33  CA  PHE B   5      -1.244  35.314  69.037  1.00 32.14 LIG 0.18  C 
BRANCH 33 34
ATOM     34  C   PHE B   5      -1.989  34.506  67.993  1.00 34.99 LIG 0.24  C 
ATOM     35 O    PHE B   5      -2.783  33.634  68.361  1.00 34.76 LIG-0.27  OA
ATOM     36  N   GLU B   6      -1.761  34.832  66.712  1.00 37.97 LIG-0.35  N 
ATOM     37 H    GLU B   6      -1.472  35.607  66.476  1.00 37.97 LIG 0.16  HD
BRANCH 36 38
ATOM     38  CA  GLU B   6      -1.973  33.917  65.562  1.00 41.44 LIG 0.18  C 
BRANCH 38 39
ATOM     39  C   GLU B   6      -0.580  33.353  65.195  1.00 42.63 LIG 0.24  C 
ATOM     40  N   ALA B   7      -0.462  32.025  65.144  1.00 44.72 LIG-0.35  N 
ATOM     41 H    ALA B   7      -1.119  31.470  65.161  1.00 44.72 LIG 0.16  HD
ATOM     42 O    GLU B   6       0.407  34.099  65.035  1.00 39.57 LIG-0.27  OA
BRANCH 40 43
ATOM     43  CA  ALA B   7       0.911  31.403  65.049  1.00 46.42 LIG 0.16  C 
ATOM     44  CB  ALA B   7       1.119  30.343  66.153  1.00 46.36 LIG 0.04  C 
BRANCH 43 45
ATOM     45  C   ALA B   7       1.192  30.841  63.667  1.00 46.87 LIG 0.22  C 
ATOM     46 O    ALA B   7       0.242  30.571  62.929  1.00 48.90 LIG-0.29  OA
ENDBRANCH 43 45
ENDBRANCH 40 43
ENDBRANCH 38 39
BRANCH 38 47
ATOM     47  CB  GLU B   6      -2.610  34.622  64.359  1.00 42.54 LIG 0.04  C 
BRANCH 47 48
ATOM     48  CG  GLU B   6      -2.702  33.694  63.100  1.00 48.04 LIG 0.12  C 
BRANCH 48 49
ATOM     49  CD  GLU B   6      -2.739  34.413  61.741  1.00 53.57 LIG 0.17  C 
ATOM     50 OE2  GLU B   6      -2.685  33.681  60.701  1.00 60.38 LIG-0.65  OA
ATOM     51 OE1  GLU B   6      -2.855  35.666  61.673  1.00 57.14 LIG-0.65  OA
ENDBRANCH 48 49
ENDBRANCH 47 48
ENDBRANCH 38 47
ENDBRANCH 36 38
ENDBRANCH 33 34
BRANCH 33 52
ATOM     52  CB  PHE B   5       0.004  34.499  69.428  1.00 32.62 LIG 0.07  C 
BRANCH 52 53
ATOM     53  CG  PHE B   5       0.990  35.240  70.282  1.00 30.35 LIG-0.06  A 
ATOM     54  CD1 PHE B   5       1.651  36.350  69.811  1.00 31.18 LIG 0.01  A 
ATOM     55  CE1 PHE B   5       2.578  37.011  70.610  1.00 30.23 LIG 0.00  A 
ATOM     56  CZ  PHE B   5       2.858  36.568  71.917  1.00 31.30 LIG 0.00  A 
ATOM     57  CE2 PHE B   5       2.226  35.414  72.382  1.00 30.12 LIG 0.00  A 
ATOM     58  CD2 PHE B   5       1.301  34.770  71.562  1.00 31.88 LIG 0.01  A 
ENDBRANCH 52 53
ENDBRANCH 33 52
ENDBRANCH 3 33
TORSDOF 20
