REMARK  30 active torsions:
REMARK  status: ('A' for Active; 'I' for Inactive)
REMARK    1  A    between atoms: N_1  and  CA_2 
REMARK    2  A    between atoms: CA_2  and  C_3 
REMARK       I    between atoms: C_3  and  N_9 
REMARK    3  A    between atoms: N_9  and  CA_10 
REMARK    4  A    between atoms: CA_10  and  C_11 
REMARK    5  A    between atoms: CA_10  and  CB_13 
REMARK       I    between atoms: C_11  and  N_26 
REMARK    6  A    between atoms: CB_13  and  CG_14 
REMARK    7  A    between atoms: CG_14  and  CD_15 
REMARK    8  A    between atoms: CD_15  and  NE_16 
REMARK       I    between atoms: NE_16  and  CZ_17 
REMARK       I    between atoms: CZ_17  and  NH1_18 
REMARK    9  A    between atoms: N_26  and  CA_27 
REMARK   10  A    between atoms: CA_27  and  C_28 
REMARK   11  A    between atoms: CA_27  and  CB_30 
REMARK       I    between atoms: C_28  and  N_35 
REMARK   12  A    between atoms: CB_30  and  OG1_31 
REMARK   13  A    between atoms: N_35  and  CA_36 
REMARK   14  A    between atoms: CA_36  and  C_37 
REMARK   15  A    between atoms: CA_36  and  CB_39 
REMARK       I    between atoms: C_37  and  N_48 
REMARK   16  A    between atoms: CB_39  and  CG_40 
REMARK   17  A    between atoms: CG_40  and  CD_41 
REMARK   18  A    between atoms: CD_41  and  CE_42 
REMARK   19  A    between atoms: CE_42  and  NZ_43 
REMARK   20  A    between atoms: N_48  and  CA_49 
REMARK   21  A    between atoms: CA_49  and  CB_52 
REMARK   22  A    between atoms: CA_49  and  C_50 
REMARK       I    between atoms: C_50  and  N_60 
REMARK   23  A    between atoms: CB_52  and  CG_53 
REMARK   24  A    between atoms: CG_53  and  CD_54 
REMARK       I    between atoms: CD_54  and  NE2_56 
REMARK   25  A    between atoms: N_60  and  CA_61 
REMARK   26  A    between atoms: CA_61  and  C_62 
REMARK   27  A    between atoms: CA_61  and  CB_64 
REMARK       I    between atoms: C_62  and  N_69 
REMARK   28  A    between atoms: CB_64  and  OG1_65 
REMARK   29  A    between atoms: N_69  and  CA_70 
REMARK   30  A    between atoms: CA_70  and  C_71 
ROOT
ATOM      1  CA  LYS B   4     -13.589   6.970  13.079  1.00 37.28     0.176 C 
ENDROOT
BRANCH   1   2
ATOM      2  C   LYS B   4     -14.554   7.500  14.116  1.00 39.57     0.241 C 
ATOM      3  O   LYS B   4     -15.762   7.587  13.884  1.00 42.15    -0.271 OA
ATOM      4  N   GLN B   5     -14.017   7.848  15.272  1.00 37.54    -0.346 N 
ATOM      5  H   GLN B   5     -13.176   7.822  15.452  1.00 37.54     0.163 HD
BRANCH   4   6
ATOM      6  CA  GLN B   5     -14.865   8.314  16.348  1.00 44.43     0.177 C 
BRANCH   6   7
ATOM      7  CB  GLN B   5     -14.104   8.351  17.661  1.00 42.91     0.044 C 
BRANCH   7   8
ATOM      8  CG  GLN B   5     -14.926   8.935  18.758  1.00 46.61     0.105 C 
BRANCH   8   9
ATOM      9  CD  GLN B   5     -14.146   9.068  20.017  1.00 50.89     0.215 C 
ATOM     10  NE2 GLN B   5     -14.680   8.500  21.100  1.00 54.67    -0.370 N 
ATOM     11 1HE2 GLN B   5     -15.435   8.093  21.044  1.00 54.67     0.159 HD
ATOM     12 2HE2 GLN B   5     -14.269   8.541  21.854  1.00 54.67     0.159 HD
ATOM     13  OE1 GLN B   5     -13.060   9.669  20.035  1.00 48.99    -0.274 OA
ENDBRANCH   8   9
ENDBRANCH   7   8
ENDBRANCH   6   7
BRANCH   6  14
ATOM     14  C   GLN B   5     -15.475   9.675  16.027  1.00 45.34     0.241 C 
ATOM     15  O   GLN B   5     -16.655   9.903  16.275  1.00 47.84    -0.271 OA
ATOM     16  N   THR B   6     -14.683  10.569  15.447  1.00 44.99    -0.344 N 
ATOM     17  H   THR B   6     -13.868  10.424  15.215  1.00 44.99     0.163 HD
BRANCH  16  18
ATOM     18  CA  THR B   6     -15.180  11.907  15.160  1.00 47.63     0.205 C 
BRANCH  18  19
ATOM     19  C   THR B   6     -15.869  11.986  13.796  1.00 49.11     0.243 C 
ATOM     20  O   THR B   6     -16.628  12.916  13.534  1.00 51.64    -0.271 OA
ATOM     21  N   ALA B   7     -15.623  10.998  12.944  1.00 46.55    -0.348 N 
ATOM     22  H   ALA B   7     -15.072  10.356  13.100  1.00 46.55     0.163 HD
BRANCH  21  23
ATOM     23  CA  ALA B   7     -16.284  10.923  11.646  1.00 49.58     0.158 C 
ATOM     24  CB  ALA B   7     -15.543   9.941  10.713  1.00 45.32     0.041 C 
BRANCH  23  25
ATOM     25  C   ALA B   7     -17.752  10.517  11.820  1.00 53.19     0.219 C 
ATOM     26  O   ALA B   7     -18.220  10.307  12.955  1.00 57.48    -0.287 OA
ENDBRANCH  23  25
ENDBRANCH  21  23
ENDBRANCH  18  19
BRANCH  18  27
ATOM     27  CB  THR B   6     -14.074  12.982  15.295  1.00 48.13     0.146 C 
ATOM     28  CG2 THR B   6     -13.462  12.932  16.684  1.00 44.70     0.042 C 
BRANCH  27  29
ATOM     29  OG1 THR B   6     -13.056  12.776  14.301  1.00 42.78    -0.393 OA
ATOM     30  HG1 THR B   6     -12.462  13.364  14.382  1.00 42.78     0.210 HD
ENDBRANCH  27  29
ENDBRANCH  18  27
ENDBRANCH  16  18
ENDBRANCH   6  14
ENDBRANCH   4   6
ENDBRANCH   1   2
BRANCH   1  31
ATOM     31  CB  LYS B   4     -13.461   5.456  13.266  1.00 35.55     0.035 C 
BRANCH  31  32
ATOM     32  CG  LYS B   4     -13.595   4.677  12.018  1.00 39.70     0.004 C 
BRANCH  32  33
ATOM     33  CD  LYS B   4     -14.989   4.827  11.463  1.00 40.13     0.027 C 
BRANCH  33  34
ATOM     34  CE  LYS B   4     -15.177   3.928  10.271  1.00 42.33     0.229 C 
BRANCH  34  35
ATOM     35  NZ  LYS B   4     -14.370   4.375   9.118  1.00 43.53    -0.079 N 
ATOM     36  HZ3 LYS B   4     -13.827   5.032   9.373  1.00 43.53     0.274 HD
ATOM     37  HZ1 LYS B   4     -13.887   3.693   8.811  1.00 43.53     0.274 HD
ATOM     38  HZ2 LYS B   4     -14.909   4.669   8.474  1.00 43.53     0.274 HD
ENDBRANCH  34  35
ENDBRANCH  33  34
ENDBRANCH  32  33
ENDBRANCH  31  32
ENDBRANCH   1  31
BRANCH   1  39
ATOM     39  N   LYS B   4     -12.298   7.626  13.226  1.00 32.65    -0.346 N 
ATOM     40  C   THR B   3     -12.182   8.949  13.226  1.00 34.58     0.243 C 
ATOM     41  O   THR B   3     -13.125   9.690  12.996  1.00 36.58    -0.271 OA
ATOM     42  H   LYS B   4     -11.634   7.086  13.311  1.00 32.65     0.163 HD
BRANCH  40  43
ATOM     43  CA  THR B   3     -10.800   9.521  13.499  1.00 32.52     0.205 C 
BRANCH  43  44
ATOM     44  CB  THR B   3     -10.447   9.293  14.957  1.00 35.15     0.146 C 
ATOM     45  CG2 THR B   3      -9.138   9.975  15.291  1.00 35.84     0.042 C 
BRANCH  44  46
ATOM     46  OG1 THR B   3     -11.496   9.826  15.773  1.00 37.78    -0.393 OA
ATOM     47  HG1 THR B   3     -11.311   9.703  16.583  1.00 37.78     0.210 HD
ENDBRANCH  44  46
ENDBRANCH  43  44
BRANCH  43  48
ATOM     48  N   THR B   3     -10.783  10.934  13.147  1.00 36.19    -0.344 N 
ATOM     49  C   ARG B   2      -9.938  11.413  12.246  1.00 33.52     0.241 C 
ATOM     50  O   ARG B   2      -9.034  10.757  11.769  1.00 34.90    -0.271 OA
ATOM     51  H   THR B   3     -11.359  11.413  13.569  1.00 36.19     0.163 HD
BRANCH  49  52
ATOM     52  CA  ARG B   2     -10.160  12.842  11.794  1.00 37.04     0.176 C 
BRANCH  52  53
ATOM     53  CB  ARG B   2     -11.018  12.797  10.544  1.00 37.98     0.036 C 
BRANCH  53  54
ATOM     54  CG  ARG B   2     -11.462  14.148  10.036  1.00 44.54     0.023 C 
BRANCH  54  55
ATOM     55  CD  ARG B   2     -12.396  13.896   8.890  1.00 45.57     0.138 C 
BRANCH  55  56
ATOM     56  NE  ARG B   2     -11.670  13.231   7.821  1.00 45.97    -0.227 N 
ATOM     57  CZ  ARG B   2     -12.198  12.331   7.003  1.00 44.90     0.665 C 
ATOM     58  NH1 ARG B   2     -13.470  11.958   7.131  1.00 46.97    -0.235 N 
ATOM     59  NH2 ARG B   2     -11.438  11.790   6.072  1.00 41.82    -0.235 N 
ATOM     60 HH12 ARG B   2     -13.803  11.373   6.595  1.00 46.97     0.174 HD
ATOM     61 HH11 ARG B   2     -13.959  12.302   7.750  1.00 46.97     0.174 HD
ATOM     62 HH22 ARG B   2     -11.767  11.205   5.535  1.00 41.82     0.174 HD
ATOM     63 HH21 ARG B   2     -10.613  12.022   6.002  1.00 41.82     0.174 HD
ATOM     64  HE  ARG B   2     -10.842  13.435   7.712  1.00 45.97     0.177 HD
ENDBRANCH  55  56
ENDBRANCH  54  55
ENDBRANCH  53  54
ENDBRANCH  52  53
BRANCH  52  65
ATOM     65  N   ARG B   2      -8.880  13.479  11.528  1.00 35.35    -0.346 N 
ATOM     66  H   ARG B   2      -8.662  13.516  10.697  1.00 35.35     0.163 HD
ATOM     67  C   ALA B   1      -8.137  13.953  12.516  1.00 38.28     0.248 C 
ATOM     68  O   ALA B   1      -8.519  13.950  13.685  1.00 39.08    -0.271 OA
BRANCH  67  69
ATOM     69  CA  ALA B   1      -6.781  14.537  12.144  1.00 38.95     0.270 C 
ATOM     70  CB  ALA B   1      -5.703  13.464  12.152  1.00 37.91     0.050 C 
BRANCH  69  71
ATOM     71  N   ALA B   1      -6.429  15.617  13.064  1.00 44.33    -0.067 N 
ATOM     72  H1  ALA B   1      -5.623  15.933  12.857  1.00 44.33     0.275 HD
ATOM     73  H2  ALA B   1      -7.029  16.271  12.998  1.00 44.33     0.275 HD
ATOM     74  H3  ALA B   1      -6.420  15.306  13.898  1.00 44.33     0.275 HD
ENDBRANCH  69  71
ENDBRANCH  67  69
ENDBRANCH  52  65
ENDBRANCH  49  52
ENDBRANCH  43  48
ENDBRANCH  40  43
ENDBRANCH   1  39
TORSDOF 30
