REMARK  27 active torsions:
REMARK  status: ('A' for Active; 'I' for Inactive)
REMARK    1  A    between atoms: N_1  and  CA_2 
REMARK    2  A    between atoms: CA_2  and  C_3 
REMARK    3  A    between atoms: CA_2  and  CB_5 
REMARK       I    between atoms: C_3  and  N_16 
REMARK    4  A    between atoms: CB_5  and  CG_6 
REMARK    5  A    between atoms: CG_6  and  CD_7 
REMARK    6  A    between atoms: CD_7  and  CE_8 
REMARK    7  A    between atoms: CE_8  and  NZ_9 
REMARK    8  A    between atoms: CA_17  and  C_18 
REMARK       I    between atoms: C_18  and  N_23 
REMARK    9  A    between atoms: N_23  and  CA_24 
REMARK   10  A    between atoms: CA_24  and  CB_27 
REMARK   11  A    between atoms: CA_24  and  C_25 
REMARK       I    between atoms: C_25  and  N_31 
REMARK   12  A    between atoms: N_31  and  CA_32 
REMARK   13  A    between atoms: CA_32  and  C_33 
REMARK   14  A    between atoms: CA_32  and  CB_35 
REMARK       I    between atoms: C_33  and  N_40 
REMARK   15  A    between atoms: CB_35  and  CG_36 
REMARK   16  A    between atoms: N_40  and  CA_41 
REMARK   17  A    between atoms: CA_41  and  CB_44 
REMARK   18  A    between atoms: CA_41  and  C_42 
REMARK       I    between atoms: C_42  and  N_57 
REMARK   19  A    between atoms: CB_44  and  CG_45 
REMARK   20  A    between atoms: CG_45  and  CD_46 
REMARK   21  A    between atoms: CD_46  and  NE_47 
REMARK       I    between atoms: NE_47  and  CZ_48 
REMARK       I    between atoms: CZ_48  and  NH1_49 
REMARK   22  A    between atoms: N_57  and  CA_58 
REMARK   23  A    between atoms: CA_58  and  C_59 
REMARK   24  A    between atoms: CA_58  and  CB_61 
REMARK       I    between atoms: C_59  and  N_66 
REMARK   25  A    between atoms: CB_61  and  OG1_62 
REMARK   26  A    between atoms: N_66  and  CA_67 
REMARK   27  A    between atoms: CA_67  and  C_68 
ROOT
ATOM      1  CA  LEU B   4      18.466  25.262  15.991  1.00 33.70     0.177 C 
ENDROOT
BRANCH   1   2
ATOM      2  C   LEU B   4      17.889  24.014  16.651  1.00 36.59     0.241 C 
ATOM      3  O   LEU B   4      17.116  24.102  17.607  1.00 35.62    -0.271 OA
ATOM      4  N   ARG B   5      18.269  22.852  16.132  1.00 30.50    -0.346 N 
ATOM      5  H   ARG B   5      18.755  22.783  15.426  1.00 30.50     0.163 HD
BRANCH   4   6
ATOM      6  CA  ARG B   5      17.890  21.572  16.722  1.00 32.70     0.176 C 
BRANCH   6   7
ATOM      7  CB  ARG B   5      16.507  21.127  16.234  1.00 28.13     0.036 C 
BRANCH   7   8
ATOM      8  CG  ARG B   5      16.324  19.613  16.221  1.00 29.30     0.023 C 
BRANCH   8   9
ATOM      9  CD  ARG B   5      14.988  19.177  16.797  1.00 34.57     0.138 C 
BRANCH   9  10
ATOM     10  NE  ARG B   5      13.932  19.120  15.799  1.00 41.05    -0.227 N 
ATOM     11  HE  ARG B   5      14.037  18.582  15.137  1.00 41.05     0.177 HD
ATOM     12  CZ  ARG B   5      12.815  19.842  15.838  1.00 43.39     0.665 C 
ATOM     13  NH2 ARG B   5      11.916  19.721  14.869  1.00 33.00    -0.235 N 
ATOM     14  NH1 ARG B   5      12.595  20.683  16.838  1.00 41.15    -0.235 N 
ATOM     15 HH21 ARG B   5      12.056  19.177  14.218  1.00 33.00     0.174 HD
ATOM     16 HH22 ARG B   5      11.193  20.187  14.892  1.00 33.00     0.174 HD
ATOM     17 HH12 ARG B   5      11.871  21.147  16.858  1.00 41.15     0.174 HD
ATOM     18 HH11 ARG B   5      13.176  20.765  17.467  1.00 41.15     0.174 HD
ENDBRANCH   9  10
ENDBRANCH   8   9
ENDBRANCH   7   8
ENDBRANCH   6   7
BRANCH   6  19
ATOM     19  C   ARG B   5      18.928  20.508  16.393  1.00 32.44     0.241 C 
ATOM     20  O   ARG B   5      19.246  20.300  15.222  1.00 30.81    -0.271 OA
ATOM     21  N   THR B   6      19.469  19.845  17.415  1.00 35.68    -0.344 N 
ATOM     22  H   THR B   6      19.335  20.029  18.244  1.00 35.68     0.163 HD
BRANCH  21  23
ATOM     23  CA  THR B   6      20.364  18.713  17.167  1.00 34.81     0.205 C 
BRANCH  23  24
ATOM     24  C   THR B   6      19.568  17.518  16.683  1.00 33.55     0.243 C 
ATOM     25  O   THR B   6      18.600  17.110  17.324  1.00 36.63    -0.271 OA
ATOM     26  N   ALA B   7      19.980  16.958  15.552  1.00 35.45    -0.345 N 
ATOM     27  H   ALA B   7      20.670  17.216  15.108  1.00 35.45     0.163 HD
BRANCH  26  28
ATOM     28  CA  ALA B   7      19.268  15.832  14.966  1.00 34.62     0.181 C 
ATOM     29  CB  ALA B   7      18.460  16.288  13.757  1.00 31.37     0.043 C 
BRANCH  28  30
ATOM     30  C   ALA B   7      20.222  14.705  14.581  1.00 35.30     0.196 C 
ATOM     31  OXT ALA B   7      19.788  13.700  14.015  1.00 33.15    -0.646 OA
ATOM     32  O   ALA B   7      21.430  14.765  14.835  1.00 30.65    -0.646 OA
ENDBRANCH  28  30
ENDBRANCH  26  28
ENDBRANCH  23  24
BRANCH  23  33
ATOM     33  CB  THR B   6      21.168  18.267  18.404  1.00 40.55     0.146 C 
ATOM     34  CG2 THR B   6      22.644  18.427  18.134  1.00 29.01     0.042 C 
BRANCH  33  35
ATOM     35  OG1 THR B   6      20.778  19.018  19.568  1.00 38.86    -0.393 OA
ATOM     36  HG1 THR B   6      21.225  18.760  20.231  1.00 38.86     0.210 HD
ENDBRANCH  33  35
ENDBRANCH  23  33
ENDBRANCH  21  23
ENDBRANCH   6  19
ENDBRANCH   4   6
ENDBRANCH   1   2
BRANCH   1  37
ATOM     37  CB  LEU B   4      19.936  25.419  16.397  1.00 31.55     0.038 C 
BRANCH  37  38
ATOM     38  CG  LEU B   4      20.999  25.884  15.393  1.00 40.70    -0.020 C 
ATOM     39  CD2 LEU B   4      22.105  26.643  16.123  1.00 33.83     0.009 C 
ATOM     40  CD1 LEU B   4      20.427  26.713  14.235  1.00 30.33     0.009 C 
ENDBRANCH  37  38
ENDBRANCH   1  37
BRANCH   1  41
ATOM     41  N   LEU B   4      17.717  26.461  16.359  1.00 32.96    -0.346 N 
ATOM     42  C   VAL B   3      16.885  27.066  15.518  1.00 32.71     0.241 C 
ATOM     43  O   VAL B   3      16.633  26.633  14.391  1.00 29.46    -0.271 OA
ATOM     44  H   LEU B   4      17.864  26.734  17.161  1.00 32.96     0.163 HD
BRANCH  42  45
ATOM     45  CA  VAL B   3      16.247  28.362  16.010  1.00 32.18     0.180 C 
BRANCH  45  46
ATOM     46  N   VAL B   3      16.467  29.384  14.997  1.00 27.49    -0.346 N 
ATOM     47  H   VAL B   3      15.788  29.533  14.491  1.00 27.49     0.163 HD
ATOM     48  C   PRO B   2      17.627  30.018  14.883  1.00 36.99     0.241 C 
ATOM     49  O   PRO B   2      18.521  29.959  15.730  1.00 37.97    -0.271 OA
BRANCH  48  50
ATOM     50  CA  PRO B   2      17.817  30.842  13.619  1.00 42.38     0.179 C 
ATOM     51  CB  PRO B   2      18.722  30.080  12.653  1.00 38.27     0.037 C 
ATOM     52  CG  PRO B   2      20.098  30.548  12.990  1.00 37.96     0.022 C 
ATOM     53  CD  PRO B   2      19.950  32.002  13.365  1.00 39.69     0.127 C 
ATOM     54  N   PRO B   2      18.561  32.083  13.855  1.00 45.78    -0.337 N 
ATOM     55  C   LYS B   1      18.026  33.140  14.486  1.00 52.29     0.251 C 
ATOM     56  O   LYS B   1      16.910  33.118  15.009  1.00 54.18    -0.271 OA
BRANCH  55  57
ATOM     57  CA  LYS B   1      18.873  34.403  14.535  1.00 57.44     0.275 C 
BRANCH  57  58
ATOM     58  N   LYS B   1      18.032  35.598  14.509  1.00 70.48    -0.067 N 
ATOM     59  H1  LYS B   1      18.152  36.029  13.740  1.00 70.48     0.275 HD
ATOM     60  H2  LYS B   1      17.177  35.362  14.586  1.00 70.48     0.275 HD
ATOM     61  H3  LYS B   1      18.254  36.132  15.185  1.00 70.48     0.275 HD
ENDBRANCH  57  58
BRANCH  57  62
ATOM     62  CB  LYS B   1      19.772  34.406  15.771  1.00 56.26     0.042 C 
BRANCH  62  63
ATOM     63  CG  LYS B   1      20.931  35.378  15.668  1.00 62.75     0.004 C 
BRANCH  63  64
ATOM     64  CD  LYS B   1      21.497  35.704  17.035  1.00 59.03     0.027 C 
BRANCH  64  65
ATOM     65  CE  LYS B   1      20.447  36.356  17.919  1.00 61.45     0.229 C 
BRANCH  65  66
ATOM     66  NZ  LYS B   1      21.028  36.816  19.216  1.00 70.72    -0.079 N 
ATOM     67  HZ1 LYS B   1      20.391  37.192  19.710  1.00 70.72     0.274 HD
ATOM     68  HZ2 LYS B   1      21.369  36.119  19.653  1.00 70.72     0.274 HD
ATOM     69  HZ3 LYS B   1      21.671  37.411  19.059  1.00 70.72     0.274 HD
ENDBRANCH  65  66
ENDBRANCH  64  65
ENDBRANCH  63  64
ENDBRANCH  62  63
ENDBRANCH  57  62
ENDBRANCH  55  57
ENDBRANCH  48  50
ENDBRANCH  45  46
BRANCH  45  70
ATOM     70  CB  VAL B   3      14.746  28.143  16.274  1.00 30.17     0.009 C 
ATOM     71  CG1 VAL B   3      14.523  26.934  17.172  1.00 32.03     0.012 C 
ATOM     72  CG2 VAL B   3      14.140  29.391  16.888  1.00 31.22     0.012 C 
ENDBRANCH  45  70
ENDBRANCH  42  45
ENDBRANCH   1  41
TORSDOF 27
