USER: ADFR SOLUTION from run 0
USER: SCORE 13.335167 LL:  -4.832 LR: -10.286 RR:   0.000 FEB:  -2.232
USER: RMSD 0.360776
USER: STATUS Locally minimized using BFGS
USER: GENES 29
USER: genes 0 Translation |==|  0.57930 0.48985 0.46359
USER: genes 1 Rotation |==|  0.50771 0.48342 0.49955 0.99967
USER: genes 2 Torsion [N]-CA--C-[N] |==|  0.45052
USER: genes 3 Torsion [C]-N--CA-[C] |==|  0.57861
USER: genes 4 Torsion [N]-CA--CB-[CG] |==|  0.42096
USER: genes 5 Torsion [CA]-CB--CG-[CD] |==|  0.37743
USER: genes 6 Torsion [CB]-CG--CD-[NE] |==|  0.24470
USER: genes 7 Torsion [CG]-CD--NE-[HE] |==|  0.16961
USER: genes 8 Torsion [N]-CA--C-[N] |==|  0.34247
USER: genes 9 Torsion [C]-N--CA-[CB] |==|  0.45770
USER: genes 10 Torsion [N]-CA--C-[N] |==|  0.36437
USER: genes 11 Torsion [C]-N--CA-[CB] |==|  0.29911
USER: genes 12 Torsion [N]-CA--C-[OXT] |==|  0.50896
USER: genes 13 Torsion [N]-CA--CB-[CG2] |==|  0.67128
USER: genes 14 Torsion [CA]-CB--OG1-[HG1] |==|  0.49957
USER: genes 15 Torsion [C]-CA--CB-[CG] |==|  0.38773
USER: genes 16 Torsion [CA]-CB--CG-[CD2] |==|  0.41502
USER: genes 17 Torsion [C]-CA--N-[C] |==|  0.70600
USER: genes 18 Torsion [N]-C--CA-[N] |==|  0.35652
USER: genes 19 Torsion [C]-CA--N-[C] |==|  0.78772
USER: genes 20 Torsion [N]-C--CA-[CB] |==|  0.71838
USER: genes 21 Torsion [N]-C--CA-[N] |==|  0.41026
USER: genes 22 Torsion [C]-CA--N-[H1] |==|  0.68886
USER: genes 23 Torsion [C]-CA--CB-[CG] |==|  0.44894
USER: genes 24 Torsion [CA]-CB--CG-[CD] |==|  0.44740
USER: genes 25 Torsion [CB]-CG--CD-[CE] |==|  0.83093
USER: genes 26 Torsion [CG]-CD--CE-[NZ] |==|  0.51688
USER: genes 27 Torsion [CD]-CE--NZ-[HZ1] |==|  0.50002
USER: genes 28 Torsion [C]-CA--CB-[CG1] |==|  0.14265
ROOT
ATOM      1  CA  LEU B   4      18.464  25.229  15.869  1.00 33.70 LIG 0.18  C 
ENDROOT
BRANCH 1 2
ATOM      2  C   LEU B   4      17.844  23.963  16.450  1.00 36.59 LIG 0.24  C 
ATOM      3 O    LEU B   4      17.029  24.022  17.373  1.00 35.62 LIG-0.27  OA
ATOM      4  N   ARG B   5      18.234  22.818  15.902  1.00 30.50 LIG-0.35  N 
ATOM      5 H    ARG B   5      18.751  22.771  15.216  1.00 30.50 LIG 0.16  HD
BRANCH 4 6
ATOM      6  CA  ARG B   5      17.815  21.520  16.421  1.00 32.70 LIG 0.18  C 
BRANCH 6 7
ATOM      7  CB  ARG B   5      16.463  21.100  15.831  1.00 28.13 LIG 0.04  C 
BRANCH 7 8
ATOM      8  CG  ARG B   5      16.280  19.589  15.745  1.00 29.30 LIG 0.02  C 
BRANCH 8 9
ATOM      9  CD  ARG B   5      14.907  19.135  16.209  1.00 34.57 LIG 0.14  C 
BRANCH 9 10
ATOM     10  NE  ARG B   5      13.919  19.136  15.142  1.00 41.05 LIG-0.23  N 
ATOM     11 HE   ARG B   5      14.062  18.626  14.465  1.00 41.05 LIG 0.18  HD
ATOM     12  CZ  ARG B   5      12.810  19.871  15.138  1.00 43.39 LIG 0.67  C 
ATOM     13  NH2 ARG B   5      11.977  19.805  14.107  1.00 33.00 LIG-0.23  N 
ATOM     14  NH1 ARG B   5      12.533  20.672  16.157  1.00 41.15 LIG-0.23  N 
ATOM     15 1HH2 ARG B   5      12.154  19.287  13.444  1.00 33.00 LIG 0.17  HD
ATOM     16 2HH2 ARG B   5      11.259  20.280  14.103  1.00 33.00 LIG 0.17  HD
ATOM     17 2HH1 ARG B   5      11.815  21.145  16.149  1.00 41.15 LIG 0.17  HD
ATOM     18 1HH1 ARG B   5      13.072  20.718  16.826  1.00 41.15 LIG 0.17  HD
ENDBRANCH 9 10
ENDBRANCH 8 9
ENDBRANCH 7 8
ENDBRANCH 6 7
BRANCH 6 19
ATOM     19  C   ARG B   5      18.868  20.462  16.120  1.00 32.44 LIG 0.24  C 
ATOM     20 O    ARG B   5      19.231  20.269  14.960  1.00 30.81 LIG-0.27  OA
ATOM     21  N   THR B   6      19.370  19.789  17.155  1.00 35.68 LIG-0.34  N 
ATOM     22 H    THR B   6      19.204  19.963  17.980  1.00 35.68 LIG 0.16  HD
BRANCH 21 23
ATOM     23  CA  THR B   6      20.277  18.662  16.929  1.00 34.81 LIG 0.20  C 
BRANCH 23 24
ATOM     24  C   THR B   6      19.499  17.461  16.431  1.00 33.55 LIG 0.24  C 
ATOM     25 O    THR B   6      18.478  17.093  17.011  1.00 36.63 LIG-0.27  OA
ATOM     26  N   ALA B   7      19.987  16.850  15.358  1.00 35.45 LIG-0.34  N 
ATOM     27 H    ALA B   7      20.713  17.079  14.959  1.00 35.45 LIG 0.16  HD
BRANCH 26 28
ATOM     28  CA  ALA B   7      19.301  15.712  14.762  1.00 34.62 LIG 0.18  C 
ATOM     29  CB  ALA B   7      18.656  16.115  13.442  1.00 31.37 LIG 0.04  C 
BRANCH 28 30
ATOM     30  C   ALA B   7      20.247  14.532  14.560  1.00 35.30 LIG 0.20  C 
ATOM     31 OXT  ALA B   7      19.840  13.506  14.011  1.00 33.15 LIG-0.65  OA
ATOM     32 O    ALA B   7      21.420  14.568  14.948  1.00 30.65 LIG-0.65  OA
ENDBRANCH 28 30
ENDBRANCH 26 28
ENDBRANCH 23 24
BRANCH 23 33
ATOM     33  CB  THR B   6      21.058  18.224  18.184  1.00 40.55 LIG 0.15  C 
ATOM     34  CG2 THR B   6      22.538  18.395  17.945  1.00 29.01 LIG 0.04  C 
BRANCH 33 35
ATOM     35 OG1  THR B   6      20.637  18.974  19.337  1.00 38.86 LIG-0.39  OA
ATOM     36 HG1  THR B   6      21.071  18.720  20.010  1.00 38.86 LIG 0.21  HD
ENDBRANCH 33 35
ENDBRANCH 23 33
ENDBRANCH 21 23
ENDBRANCH 6 19
ENDBRANCH 4 6
ENDBRANCH 1 2
BRANCH 1 37
ATOM     37  CB  LEU B   4      19.904  25.369  16.376  1.00 31.55 LIG 0.04  C 
BRANCH 37 38
ATOM     38  CG  LEU B   4      21.036  25.844  15.454  1.00 40.70 LIG-0.02  C 
ATOM     39  CD2 LEU B   4      22.087  26.595  16.268  1.00 33.83 LIG 0.01  C 
ATOM     40  CD1 LEU B   4      20.546  26.684  14.267  1.00 30.33 LIG 0.01  C 
ENDBRANCH 37 38
ENDBRANCH 1 37
BRANCH 1 41
ATOM     41  N   LEU B   4      17.694  26.418  16.223  1.00 32.96 LIG-0.35  N 
ATOM     42  C   VAL B   3      16.922  27.053  15.347  1.00 32.71 LIG 0.24  C 
ATOM     43 O    VAL B   3      16.747  26.657  14.192  1.00 29.46 LIG-0.27  OA
ATOM     44 H    LEU B   4      17.786  26.664  17.042  1.00 32.96 LIG 0.16  HD
BRANCH 42 45
ATOM     45  CA  VAL B   3      16.254  28.334  15.836  1.00 32.18 LIG 0.18  C 
BRANCH 45 46
ATOM     46  N   VAL B   3      16.543  29.387  14.873  1.00 27.49 LIG-0.35  N 
ATOM     47 H    VAL B   3      15.887  29.582  14.353  1.00 27.49 LIG 0.16  HD
ATOM     48  C   PRO B   2      17.728  29.982  14.823  1.00 36.99 LIG 0.24  C 
ATOM     49 O    PRO B   2      18.591  29.856  15.694  1.00 37.97 LIG-0.27  OA
BRANCH 48 50
ATOM     50  CA  PRO B   2      17.989  30.849  13.600  1.00 42.38 LIG 0.18  C 
ATOM     51  CB  PRO B   2      18.867  30.079  12.616  1.00 38.27 LIG 0.04  C 
ATOM     52  CG  PRO B   2      20.261  30.451  12.996  1.00 37.96 LIG 0.02  C 
ATOM     53  CD  PRO B   2      20.190  31.893  13.434  1.00 39.69 LIG 0.13  C 
ATOM     54  N   PRO B   2      18.799  32.033  13.904  1.00 45.78 LIG-0.34  N 
ATOM     55  C   LYS B   1      18.313  33.090  14.574  1.00 52.29 LIG 0.25  C 
ATOM     56 O    LYS B   1      17.188  33.110  15.077  1.00 54.18 LIG-0.27  OA
BRANCH 55 57
ATOM     57  CA  LYS B   1      19.230  34.298  14.694  1.00 57.44 LIG 0.28  C 
BRANCH 57 58
ATOM     58  N   LYS B   1      18.459  35.540  14.711  1.00 70.48 LIG-0.07  N 
ATOM     59 H1   LYS B   1      18.617  35.998  13.965  1.00 70.48 LIG 0.28  HD
ATOM     60 H2   LYS B   1      17.591  35.351  14.764  1.00 70.48 LIG 0.28  HD
ATOM     61 H3   LYS B   1      18.700  36.029  15.414  1.00 70.48 LIG 0.28  HD
ENDBRANCH 57 58
BRANCH 57 62
ATOM     62  CB  LYS B   1      20.106  34.193  15.941  1.00 56.26 LIG 0.04  C 
BRANCH 62 63
ATOM     63  CG  LYS B   1      21.322  35.099  15.900  1.00 62.75 LIG 0.00  C 
BRANCH 63 64
ATOM     64  CD  LYS B   1      21.891  35.316  17.286  1.00 59.03 LIG 0.03  C 
BRANCH 64 65
ATOM     65  CE  LYS B   1      20.872  35.980  18.197  1.00 61.45 LIG 0.23  C 
BRANCH 65 66
ATOM     66  NZ  LYS B   1      21.465  36.333  19.522  1.00 70.72 LIG-0.08  N 
ATOM     67 HZ1  LYS B   1      20.846  36.718  20.031  1.00 70.72 LIG 0.27  HD
ATOM     68 HZ2  LYS B   1      21.760  35.594  19.922  1.00 70.72 LIG 0.27  HD
ATOM     69 HZ3  LYS B   1      22.143  36.897  19.403  1.00 70.72 LIG 0.27  HD
ENDBRANCH 65 66
ENDBRANCH 64 65
ENDBRANCH 63 64
ENDBRANCH 62 63
ENDBRANCH 57 62
ENDBRANCH 55 57
ENDBRANCH 48 50
ENDBRANCH 45 46
BRANCH 45 70
ATOM     70  CB  VAL B   3      14.738  28.112  15.990  1.00 30.17 LIG 0.01  C 
ATOM     71  CG1 VAL B   3      14.453  26.872  16.826  1.00 32.03 LIG 0.01  C 
ATOM     72  CG2 VAL B   3      14.094  29.340  16.607  1.00 31.22 LIG 0.01  C 
ENDBRANCH 45 70
ENDBRANCH 42 45
ENDBRANCH 1 41
TORSDOF 27
