USER: ADFR SOLUTION from run 0
USER: SCORE 16.054330 LL:  -4.436 LR: -13.917 RR:   0.000 FEB:  -5.266
USER: RMSD 0.786151
USER: STATUS Locally minimized using BFGS
USER: GENES 31
USER: genes 0 Translation |==|  0.58052 0.45384 0.46761
USER: genes 1 Rotation |==|  0.50995 0.48165 0.51650 0.99929
USER: genes 2 Torsion [N]-CA--C-[N] |==|  0.37874
USER: genes 3 Torsion [C]-N--CA-[C] |==|  0.80785
USER: genes 4 Torsion [N]-CA--C-[N] |==|  0.89572
USER: genes 5 Torsion [C]-N--CA-[C] |==|  0.80055
USER: genes 6 Torsion [N]-CA--C-[N] |==|  0.86586
USER: genes 7 Torsion [C]-N--CA-[CB] |==|  0.85452
USER: genes 8 Torsion [N]-CA--CB-[CG] |==|  0.83073
USER: genes 9 Torsion [CA]-CB--CG-[OD1] |==|  0.86989
USER: genes 10 Torsion [N]-CA--C-[N] |==|  0.31280
USER: genes 11 Torsion [N]-CA--CB-[CG] |==|  0.79234
USER: genes 12 Torsion [CA]-CB--CG-[CD] |==|  0.52668
USER: genes 13 Torsion [CB]-CG--CD-[CE] |==|  0.48780
USER: genes 14 Torsion [CG]-CD--CE-[NZ] |==|  0.49997
USER: genes 15 Torsion [CD]-CE--NZ-[HZ3] |==|  0.22764
USER: genes 16 Torsion [N]-CA--CB-[CG1] |==|  0.78382
USER: genes 17 Torsion [CA]-CB--CG1-[CD1] |==|  0.53174
USER: genes 18 Torsion [CB]-CA--N-[C] |==|  0.46111
USER: genes 19 Torsion [N]-C--CA-[N] |==|  0.99894
USER: genes 20 Torsion [C]-CA--N-[C] |==|  0.72840
USER: genes 21 Torsion [N]-C--CA-[N] |==|  0.41321
USER: genes 22 Torsion [C]-CA--N-[C] |==|  0.69353
USER: genes 23 Torsion [N]-C--CA-[N] |==|  0.33366
USER: genes 24 Torsion [C]-CA--N-[C] |==|  0.89891
USER: genes 25 Torsion [C]-CA--CB-[CG] |==|  0.42153
USER: genes 26 Torsion [CA]-CB--CG-[OD1] |==|  0.48678
USER: genes 27 Torsion [C]-CA--CB-[OG] |==|  0.14587
USER: genes 28 Torsion [CA]-CB--OG-[HG] |==|  0.19460
USER: genes 29 Torsion [C]-CA--CB-[CG] |==|  0.22307
USER: genes 30 Torsion [CA]-CB--CG-[OD1] |==|  0.11763
ROOT
ATOM      1  CA  ALA Z  41     -15.047  11.715  -6.078  1.00 21.22 LIG 0.17  C 
ATOM      2  CB  ALA Z  41     -14.780  12.358  -4.719  1.00 23.94 LIG 0.04  C 
ENDROOT
BRANCH 1 3
ATOM      3  C   ALA Z  41     -15.709  10.349  -5.897  1.00 23.72 LIG 0.24  C 
ATOM      4 O    ALA Z  41     -16.913  10.260  -5.658  1.00 25.98 LIG-0.27  OA
ATOM      5  N   ILE Z  42     -14.919   9.287  -6.008  1.00 25.83 LIG-0.35  N 
ATOM      6 H    ILE Z  42     -14.077   9.323  -6.180  1.00 25.83 LIG 0.16  HD
BRANCH 5 7
ATOM      7  CA  ILE Z  42     -15.453   7.940  -5.840  1.00 30.93 LIG 0.18  C 
BRANCH 7 8
ATOM      8  C   ILE Z  42     -15.861   7.655  -4.393  1.00 34.23 LIG 0.24  C 
ATOM      9 O    ILE Z  42     -16.868   6.990  -4.147  1.00 38.88 LIG-0.27  OA
ATOM     10  N   LYS Z  43     -15.088   8.164  -3.438  1.00 34.26 LIG-0.35  N 
ATOM     11 H    LYS Z  43     -14.423   8.691  -3.579  1.00 34.26 LIG 0.16  HD
BRANCH 10 12
ATOM     12  CA  LYS Z  43     -15.332   7.845  -2.032  1.00 43.39 LIG 0.18  C 
BRANCH 12 13
ATOM     13  C   LYS Z  43     -16.582   8.504  -1.449  1.00 55.57 LIG 0.24  C 
ATOM     14  N   ASN Z  44     -16.733   9.806  -1.675  1.00 60.92 LIG-0.34  N 
ATOM     15 H    ASN Z  44     -16.184  10.273  -2.143  1.00 60.92 LIG 0.16  HD
ATOM     16 O    LYS Z  43     -17.393   7.832  -0.806  1.00 61.19 LIG-0.27  OA
BRANCH 14 17
ATOM     17  CA  ASN Z  44     -17.862  10.572  -1.138  1.00 70.44 LIG 0.19  C 
BRANCH 17 18
ATOM     18  CB  ASN Z  44     -19.204   9.912  -1.487  1.00 74.13 LIG 0.14  C 
BRANCH 18 19
ATOM     19  CG  ASN Z  44     -19.438   9.812  -2.984  1.00 76.38 LIG 0.22  C 
ATOM     20  ND2 ASN Z  44     -19.862   8.638  -3.442  1.00 76.67 LIG-0.37  N 
ATOM     21 21HD ASN Z  44     -20.009   8.531  -4.282  1.00 76.67 LIG 0.16  HD
ATOM     22 22HD ASN Z  44     -19.990   7.985  -2.897  1.00 76.67 LIG 0.16  HD
ATOM     23 OD1  ASN Z  44     -19.239  10.780  -3.721  1.00 76.30 LIG-0.27  OA
ENDBRANCH 18 19
ENDBRANCH 17 18
BRANCH 17 24
ATOM     24  C   ASN Z  44     -17.764  10.799   0.372  1.00 74.17 LIG 0.28  C 
ATOM     25 O    ASN Z  44     -17.864   9.858   1.162  1.00 72.97 LIG-0.27  OA
ATOM     26  N   NH2 Z  45     -17.570  12.054   0.766  1.00 76.38 LIG-0.11  N 
ENDBRANCH 17 24
ENDBRANCH 14 17
ENDBRANCH 12 13
BRANCH 12 27
ATOM     27  CB  LYS Z  43     -14.099   8.154  -1.175  1.00 40.99 LIG 0.04  C 
BRANCH 27 28
ATOM     28  CG  LYS Z  43     -12.975   7.137  -1.342  1.00 39.01 LIG 0.00  C 
BRANCH 28 29
ATOM     29  CD  LYS Z  43     -11.867   7.334  -0.315  1.00 38.38 LIG 0.03  C 
BRANCH 29 30
ATOM     30  CE  LYS Z  43     -10.812   6.238  -0.438  1.00 38.40 LIG 0.23  C 
BRANCH 30 31
ATOM     31  NZ  LYS Z  43      -9.699   6.386   0.550  1.00 35.26 LIG-0.08  N 
ATOM     32 HZ3  LYS Z  43      -9.950   6.046   1.334  1.00 35.26 LIG 0.27  HD
ATOM     33 HZ2  LYS Z  43      -9.504   7.249   0.651  1.00 35.26 LIG 0.27  HD
ATOM     34 HZ1  LYS Z  43      -8.980   5.952   0.255  1.00 35.26 LIG 0.27  HD
ENDBRANCH 30 31
ENDBRANCH 29 30
ENDBRANCH 28 29
ENDBRANCH 27 28
ENDBRANCH 12 27
ENDBRANCH 10 12
ENDBRANCH 7 8
BRANCH 7 35
ATOM     35  CB  ILE Z  42     -14.458   6.861  -6.306  1.00 30.84 LIG 0.01  C 
ATOM     36  CG2 ILE Z  42     -14.828   5.504  -5.717  1.00 35.03 LIG 0.01  C 
BRANCH 35 37
ATOM     37  CG1 ILE Z  42     -14.458   6.755  -7.829  1.00 30.67 LIG 0.00  C 
ATOM     38  CD1 ILE Z  42     -13.716   5.539  -8.350  1.00 26.38 LIG 0.01  C 
ENDBRANCH 35 37
ENDBRANCH 7 35
ENDBRANCH 5 7
ENDBRANCH 1 3
BRANCH 1 39
ATOM     39  N   ALA Z  41     -15.865  12.593  -6.912  1.00 17.22 LIG-0.35  N 
ATOM     40  C   ASN Z  40     -16.000  12.382  -8.220  1.00 21.77 LIG 0.24  C 
ATOM     41 O    ASN Z  40     -15.456  11.446  -8.809  1.00 19.61 LIG-0.27  OA
ATOM     42 H    ALA Z  41     -16.239  13.240  -6.489  1.00 17.22 LIG 0.16  HD
BRANCH 40 43
ATOM     43  CA  ASN Z  40     -16.879  13.364  -8.986  1.00 23.64 LIG 0.18  C 
BRANCH 43 44
ATOM     44  N   ASN Z  40     -17.465  14.411  -8.154  1.00 28.07 LIG-0.34  N 
ATOM     45 H    ASN Z  40     -16.947  15.079  -7.994  1.00 28.07 LIG 0.16  HD
ATOM     46  C   SER Z  39     -18.708  14.298  -7.701  1.00 29.35 LIG 0.24  C 
ATOM     47 O    SER Z  39     -19.396  13.291  -7.877  1.00 27.34 LIG-0.27  OA
BRANCH 46 48
ATOM     48  CA  SER Z  39     -19.264  15.485  -6.929  1.00 36.10 LIG 0.20  C 
BRANCH 48 49
ATOM     49  N   SER Z  39     -20.701  15.540  -7.163  1.00 45.98 LIG-0.34  N 
ATOM     50  C   ASN Z  38     -21.253  16.508  -7.888  1.00 57.47 LIG 0.24  C 
ATOM     51 O    ASN Z  38     -20.652  17.541  -8.192  1.00 60.64 LIG-0.27  OA
ATOM     52 H    SER Z  39     -21.146  14.902  -6.796  1.00 45.98 LIG 0.16  HD
BRANCH 50 53
ATOM     53  CA  ASN Z  38     -22.705  16.273  -8.331  1.00 65.29 LIG 0.18  C 
BRANCH 53 54
ATOM     54  N   ASN Z  38     -23.702  17.250  -7.882  1.00 70.64 LIG-0.35  N 
ATOM     55 H    ASN Z  38     -24.313  17.411  -8.465  1.00 70.64 LIG 0.16  HD
ATOM     56  C   ACE Z  37     -23.664  17.832  -6.686  1.00 74.22 LIG 0.21  C 
ATOM     57  CH3 ACE Z  37     -24.804  18.800  -6.376  1.00 75.88 LIG 0.12  C 
ATOM     58 O    ACE Z  37     -22.772  17.627  -5.864  1.00 75.32 LIG-0.27  OA
ENDBRANCH 53 54
BRANCH 53 59
ATOM     59  CB  ASN Z  38     -22.748  16.147  -9.861  1.00 65.91 LIG 0.12  C 
BRANCH 59 60
ATOM     60  CG  ASN Z  38     -23.897  15.279 -10.351  1.00 66.48 LIG 0.15  C 
ATOM     61 OD1  ASN Z  38     -24.053  15.205 -11.667  1.00 67.09 LIG-0.18  OA
ATOM     62  ND2 ASN Z  38     -24.634  14.686  -9.561  1.00 65.12 LIG-0.38  N 
ATOM     63 22HD ASN Z  38     -24.502  14.757  -8.714  1.00 65.12 LIG 0.16  HD
ATOM     64 21HD ASN Z  38     -25.280  14.202  -9.856  1.00 65.12 LIG 0.16  HD
ENDBRANCH 59 60
ENDBRANCH 53 59
ENDBRANCH 50 53
ENDBRANCH 48 49
BRANCH 48 65
ATOM     65  CB  SER Z  39     -18.945  15.330  -5.445  1.00 33.12 LIG 0.20  C 
BRANCH 65 66
ATOM     66 OG   SER Z  39     -17.556  15.096  -5.252  1.00 30.52 LIG-0.40  OA
ATOM     67 HG   SER Z  39     -17.126  15.795  -5.429  1.00 30.52 LIG 0.21  HD
ENDBRANCH 65 66
ENDBRANCH 48 65
ENDBRANCH 46 48
ENDBRANCH 43 44
BRANCH 43 68
ATOM     68  CB  ASN Z  40     -16.088  13.962 -10.151  1.00 19.94 LIG 0.14  C 
BRANCH 68 69
ATOM     69  CG  ASN Z  40     -16.031  13.035 -11.349  1.00 19.97 LIG 0.22  C 
ATOM     70 OD1  ASN Z  40     -17.033  12.414 -11.713  1.00 23.42 LIG-0.27  OA
ATOM     71  ND2 ASN Z  40     -14.857  12.925 -11.962  1.00 19.32 LIG-0.37  N 
ATOM     72 21HD ASN Z  40     -14.774  12.404 -12.642  1.00 19.32 LIG 0.16  HD
ATOM     73 22HD ASN Z  40     -14.180  13.374 -11.679  1.00 19.32 LIG 0.16  HD
ENDBRANCH 68 69
ENDBRANCH 43 68
ENDBRANCH 40 43
ENDBRANCH 1 39
TORSDOF 29
