REMARK  25 active torsions:
REMARK  status: ('A' for Active; 'I' for Inactive)
REMARK    1  A    between atoms: CA_2  and  CB_5 
REMARK    2  A    between atoms: CA_2  and  C_3 
REMARK       I    between atoms: C_3  and  N_10 
REMARK    3  A    between atoms: CB_5  and  CG_6 
REMARK    4  A    between atoms: CG_6  and  CD_7 
REMARK    5  A    between atoms: N_10  and  CA_11 
REMARK    6  A    between atoms: CA_11  and  CB_14 
REMARK    7  A    between atoms: CA_11  and  C_12 
REMARK       I    between atoms: C_12  and  N_22 
REMARK    8  A    between atoms: CB_14  and  CG_15 
REMARK    9  A    between atoms: N_22  and  CA_23 
REMARK   10  A    between atoms: CA_23  and  CB_26 
REMARK   11  A    between atoms: CA_23  and  C_24 
REMARK       I    between atoms: C_24  and  N_31 
REMARK   12  A    between atoms: CB_26  and  CG_27 
REMARK   13  A    between atoms: CA_32  and  C_33 
REMARK       I    between atoms: C_33  and  N_38 
REMARK   14  A    between atoms: N_38  and  CA_39 
REMARK   15  A    between atoms: CA_39  and  CB_42 
REMARK   16  A    between atoms: CA_39  and  C_40 
REMARK       I    between atoms: C_40  and  N_47 
REMARK   17  A    between atoms: CB_42  and  CG_43 
REMARK   18  A    between atoms: N_47  and  CA_48 
REMARK   19  A    between atoms: CA_48  and  CB_51 
REMARK   20  A    between atoms: CA_48  and  C_49 
REMARK       I    between atoms: C_49  and  N_59 
REMARK   21  A    between atoms: CB_51  and  CG_52 
REMARK   22  A    between atoms: N_59  and  CA_60 
REMARK   23  A    between atoms: CA_60  and  C_61 
REMARK   24  A    between atoms: CA_60  and  CB_63 
REMARK   25  A    between atoms: CB_63  and  OG_64 
ROOT
ATOM      1  C   LEU D   6      15.529  11.663  42.837  1.00 70.97     0.243 C 
ATOM      2  O   LEU D   6      15.316  12.848  43.045  1.00 69.80    -0.271 OA
ATOM      3  N   PRO D   7      16.546  11.010  43.424  1.00 67.36    -0.337 N 
ATOM      4  CA  PRO D   7      17.427  11.732  44.338  1.00 66.95     0.179 C 
ATOM      5  CB  PRO D   7      17.810  10.661  45.372  1.00 69.23     0.037 C 
ATOM      6  CG  PRO D   7      17.543   9.315  44.689  1.00 73.99     0.022 C 
ATOM      7  CD  PRO D   7      16.934   9.587  43.337  1.00 69.55     0.127 C 
ENDROOT
BRANCH   4   8
ATOM      8  C   PRO D   7      18.650  12.304  43.627  1.00 67.39     0.241 C 
ATOM      9  N   LEU D   8      19.254  13.316  44.240  1.00 63.51    -0.346 N 
ATOM     10  H   LEU D   8      18.964  13.673  44.967  1.00 63.51     0.163 HD
ATOM     11  O   PRO D   7      19.041  11.842  42.553  1.00 65.73    -0.271 OA
BRANCH   9  12
ATOM     12  CA  LEU D   8      20.471  13.917  43.732  1.00 63.43     0.177 C 
BRANCH  12  13
ATOM     13  CB  LEU D   8      20.313  15.422  43.543  1.00 63.06     0.038 C 
BRANCH  13  14
ATOM     14  CG  LEU D   8      19.916  15.785  42.132  1.00 67.32    -0.020 C 
ATOM     15  CD1 LEU D   8      18.513  16.273  42.084  1.00 66.57     0.009 C 
ATOM     16  CD2 LEU D   8      20.885  16.762  41.524  1.00 70.19     0.009 C 
ENDBRANCH  13  14
ENDBRANCH  12  13
BRANCH  12  17
ATOM     17  C   LEU D   8      21.633  13.583  44.641  1.00 69.22     0.241 C 
ATOM     18  N   PHE D   9      22.790  13.250  44.055  1.00 66.75    -0.346 N 
ATOM     19  H   PHE D   9      22.896  13.216  43.202  1.00 66.75     0.163 HD
ATOM     20  O   LEU D   8      21.468  13.576  45.861  1.00 69.38    -0.271 OA
BRANCH  18  21
ATOM     21  CA  PHE D   9      23.987  12.912  44.812  1.00 67.50     0.180 C 
BRANCH  21  22
ATOM     22  CB  PHE D   9      24.395  11.452  44.572  1.00 70.09     0.073 C 
BRANCH  22  23
ATOM     23  CG  PHE D   9      23.305  10.403  44.615  1.00 72.62    -0.056 A 
ATOM     24  CD2 PHE D   9      23.329   9.320  43.744  1.00 75.26     0.007 A 
ATOM     25  CE2 PHE D   9      22.347   8.332  43.807  1.00 78.46     0.001 A 
ATOM     26  CZ  PHE D   9      21.338   8.418  44.744  1.00 76.95     0.000 A 
ATOM     27  CE1 PHE D   9      21.307   9.473  45.629  1.00 77.74     0.001 A 
ATOM     28  CD1 PHE D   9      22.308  10.444  45.587  1.00 76.53     0.007 A 
ENDBRANCH  22  23
ENDBRANCH  21  22
BRANCH  21  29
ATOM     29  C   PHE D   9      25.150  13.851  44.485  1.00 72.50     0.241 C 
ATOM     30  O   PHE D   9      25.165  14.469  43.418  1.00 71.57    -0.271 OA
ATOM     31  N   SER D  10      26.120  13.973  45.411  1.00 70.70    -0.345 N 
ATOM     32  H   SER D  10      26.109  13.564  46.167  1.00 70.70     0.163 HD
BRANCH  31  33
ATOM     33  CA  SER D  10      27.298  14.825  45.211  1.00110.54     0.186 C 
BRANCH  33  34
ATOM     34  C   SER D  10      28.486  14.015  44.689  1.00112.68     0.221 C 
ATOM     35  O   SER D  10      28.322  12.854  44.315  1.00 61.17    -0.287 OA
ENDBRANCH  33  34
BRANCH  33  36
ATOM     36  CB  SER D  10      27.667  15.556  46.499  1.00114.99     0.197 C 
BRANCH  36  37
ATOM     37  OG  SER D  10      27.892  14.656  47.573  1.00125.63    -0.398 OA
ATOM     38  HG  SER D  10      28.094  15.089  48.264  1.00125.63     0.209 HD
ENDBRANCH  36  37
ENDBRANCH  33  36
ENDBRANCH  31  33
ENDBRANCH  21  29
ENDBRANCH  18  21
ENDBRANCH  12  17
ENDBRANCH   9  12
ENDBRANCH   4   8
BRANCH   1  39
ATOM     39  CA  LEU D   6      14.666  10.908  41.865  1.00 70.47     0.177 C 
BRANCH  39  40
ATOM     40  N   LEU D   6      13.233  10.945  42.109  1.00 72.03    -0.346 N 
ATOM     41  C   PHE D   5      12.609   9.904  42.658  1.00 78.51     0.241 C 
ATOM     42  O   PHE D   5      13.195   8.878  43.024  1.00 77.96    -0.271 OA
ATOM     43  H   LEU D   6      12.845  11.675  41.873  1.00 72.03     0.163 HD
BRANCH  41  44
ATOM     44  CA  PHE D   5      11.100   9.983  42.709  1.00 78.26     0.180 C 
BRANCH  44  45
ATOM     45  N   PHE D   5      10.531   8.713  42.251  1.00 79.00    -0.345 N 
ATOM     46  H   PHE D   5      10.788   8.024  42.698  1.00 79.00     0.163 HD
ATOM     47  C   GLU D   4       9.684   8.663  41.220  1.00 84.09     0.257 C 
ATOM     48  O   GLU D   4       9.257   9.668  40.654  1.00 84.89    -0.271 OA
BRANCH  47  49
ATOM     49  CA  GLU D   4       9.231   7.294  40.746  1.00 80.59     0.400 C 
ATOM     50  N   GLU D   4       7.799   7.129  40.975  1.00 81.26     0.615 N 
BRANCH  49  51
ATOM     51  CB  GLU D   4       9.555   7.133  39.244  1.00 81.69     0.062 C 
BRANCH  51  52
ATOM     52  CG  GLU D   4      11.041   7.076  38.929  1.00 88.66     0.116 C 
BRANCH  52  53
ATOM     53  CD  GLU D   4      11.535   8.047  37.872  1.00 99.07     0.172 C 
ATOM     54  OE1 GLU D   4      11.102   9.223  37.879  1.00 74.80    -0.648 OA
ATOM     55  OE2 GLU D   4      12.416   7.647  37.077  1.00 93.08    -0.648 OA
ENDBRANCH  52  53
ENDBRANCH  51  52
ENDBRANCH  49  51
ENDBRANCH  47  49
ENDBRANCH  44  45
BRANCH  44  56
ATOM     56  CB  PHE D   5      10.539  10.455  44.053  1.00 80.27     0.073 C 
BRANCH  56  57
ATOM     57  CG  PHE D   5       9.568  11.604  43.903  1.00 81.89    -0.056 A 
ATOM     58  CD2 PHE D   5       8.331  11.419  43.288  1.00 84.17     0.007 A 
ATOM     59  CE2 PHE D   5       7.437  12.484  43.140  1.00 86.81     0.001 A 
ATOM     60  CZ  PHE D   5       7.768  13.733  43.619  1.00 84.76     0.000 A 
ATOM     61  CE1 PHE D   5       8.993  13.937  44.221  1.00 85.59     0.001 A 
ATOM     62  CD1 PHE D   5       9.894  12.875  44.358  1.00 84.61     0.007 A 
ENDBRANCH  56  57
ENDBRANCH  44  56
ENDBRANCH  41  44
ENDBRANCH  39  40
BRANCH  39  63
ATOM     63  CB  LEU D   6      14.980  11.314  40.429  1.00 70.57     0.038 C 
BRANCH  63  64
ATOM     64  CG  LEU D   6      13.901  10.966  39.426  1.00 75.48    -0.020 C 
ATOM     65  CD2 LEU D   6      14.389   9.991  38.446  1.00 78.97     0.009 C 
ATOM     66  CD1 LEU D   6      13.410  12.175  38.744  1.00 75.94     0.009 C 
ENDBRANCH  63  64
ENDBRANCH  39  63
ENDBRANCH   1  39
TORSDOF 25
