USER: ADFR SOLUTION from run 0
USER: SCORE 11.374490 LL:  -3.379 LR:  -8.063 RR:   0.000 FEB:  -5.676
USER: RMSD 1.052111
USER: STATUS Locally minimized using BFGS
USER: GENES 10
USER: genes 0 Translation |==|  0.46975 0.47347 0.48312
USER: genes 1 Rotation |==|  0.51955 0.49144 0.50717 0.99949
USER: genes 2 Torsion [C]-N--CA-[C] |==|  0.79438
USER: genes 3 Torsion [N]-CA--C-[N] |==|  0.46132
USER: genes 4 Torsion [N]-CA--C-[N] |==|  0.48561
USER: genes 5 Torsion [N]-CA--C-[O] |==|  0.00618
USER: genes 6 Torsion [N]-CA--CB-[CG2] |==|  0.84338
USER: genes 7 Torsion [O]-C--CA-[N] |==|  0.95296
USER: genes 8 Torsion [N]-C--CA-[N] |==|  0.53084
USER: genes 9 Torsion [N]-C--CA-[CB] |==|  0.76144
ROOT
ATOM      1  C   PRO C  76      15.573   8.951   5.469  0.47 42.64 LIG 0.24  C 
ATOM      2 O    PRO C  76      15.926   7.974   4.897  0.47 44.95 LIG-0.27  OA
ATOM      3  N   VAL C  77      16.297   9.543   6.385  0.47 42.25 LIG-0.35  N 
ATOM      4 H    VAL C  77      16.093  10.273   6.790  0.47 42.25 LIG 0.16  HD
ENDROOT
BRANCH 3 5
ATOM      5  CA  VAL C  77      17.541   8.943   6.762  0.47 44.36 LIG 0.17  C 
BRANCH 5 6
ATOM      6  C   VAL C  77      17.170   7.746   7.598  0.47 50.22 LIG 0.22  C 
ATOM      7 O    VAL C  77      16.030   7.600   7.944  0.47 51.68 LIG-0.28  OA
ATOM      8 N    PRO C  78      18.061   6.827   7.876  0.47 51.29 LIG-0.24  NA
ATOM      9  CD  PRO C  78      18.680   6.291   6.653  0.47 47.28 LIG 0.10  C 
ATOM     10  CA  PRO C  78      17.622   5.755   8.749  0.47 47.56 LIG 0.16  C 
ATOM     11  CG  PRO C  78      18.345   4.869   6.706  0.47 42.43 LIG 0.02  C 
ATOM     12  CB  PRO C  78      18.234   4.518   8.111  0.47 42.06 LIG 0.03  C 
BRANCH 10 13
ATOM     13  C   PRO C  78      18.079   6.096  10.144  0.47 54.03 LIG 0.24  C 
ATOM     14  N   PRO C  79      17.728   5.338  11.178  0.47 54.03 LIG-0.34  N 
ATOM     15  CD  PRO C  79      16.444   4.641  11.038  0.47 49.78 LIG 0.13  C 
ATOM     16  CA  PRO C  79      17.920   5.799  12.556  0.47 62.24 LIG 0.17  C 
ATOM     17  CG  PRO C  79      15.916   4.636  12.395  0.47 51.96 LIG 0.02  C 
ATOM     18  CB  PRO C  79      16.971   4.934  13.329  0.47 58.89 LIG 0.04  C 
ATOM     19 O    PRO C  78      18.711   7.115  10.256  0.47 60.82 LIG-0.27  OA
BRANCH 16 20
ATOM     20  C   PRO C  79      19.308   5.689  13.143  0.47 69.87 LIG 0.22  C 
ATOM     21 O    PRO C  79      20.176   5.266  12.422  0.47 73.23 LIG-0.29  OA
ENDBRANCH 16 20
ENDBRANCH 10 13
ENDBRANCH 5 6
BRANCH 5 22
ATOM     22  CB  VAL C  77      18.486   9.999   7.366  0.47 43.60 LIG 0.01  C 
ATOM     23  CG2 VAL C  77      18.645  11.108   6.325  0.47 46.41 LIG 0.01  C 
ATOM     24  CG1 VAL C  77      19.880   9.443   7.687  0.47 37.55 LIG 0.01  C 
ENDBRANCH 5 22
ENDBRANCH 3 5
BRANCH 1 25
ATOM     25  CA  PRO C  76      14.275   9.502   5.077  0.47 40.28 LIG 0.18  C 
ATOM     26  N   PRO C  76      13.932   8.923   3.796  0.47 33.79 LIG-0.34  N 
ATOM     27  CD  PRO C  76      12.660   8.204   3.873  0.47 35.40 LIG 0.13  C 
ATOM     28  C   PRO C  75      14.301   9.510   2.682  0.47 33.84 LIG 0.24  C 
ATOM     29  CG  PRO C  76      12.448   8.074   5.318  0.47 37.80 LIG 0.02  C 
ATOM     30  CB  PRO C  76      13.153   9.026   6.008  0.47 38.87 LIG 0.04  C 
ATOM     31 O    PRO C  75      14.947  10.499   2.671  0.47 33.93 LIG-0.27  OA
BRANCH 28 32
ATOM     32  CA  PRO C  75      13.808   8.929   1.379  0.47 46.85 LIG 0.18  C 
ATOM     33  CB  PRO C  75      14.166   7.443   1.265  0.47 48.68 LIG 0.04  C 
ATOM     34  CG  PRO C  75      14.819   7.272  -0.066  0.47 51.42 LIG 0.02  C 
ATOM     35  CD  PRO C  75      14.713   8.531  -0.810  0.47 56.17 LIG 0.13  C 
ATOM     36  N   PRO C  75      14.502   9.519   0.244  0.47 56.81 LIG-0.34  N 
ATOM     37  C   PRO C  74      14.192  10.706  -0.274  0.47 61.55 LIG 0.26  C 
ATOM     38 O    PRO C  74      13.325  11.447   0.148  0.47 61.23 LIG-0.27  OA
BRANCH 37 39
ATOM     39  CA  PRO C  74      14.989  11.143  -1.482  0.47 57.58 LIG 0.35  C 
ATOM     40  N   PRO C  74      14.292  12.191  -2.231  0.47 57.74 LIG 0.32  N 
ATOM     41  CD  PRO C  74      15.187  13.324  -2.477  0.47 56.21 LIG 0.32  C 
ATOM     42  CG  PRO C  74      16.081  13.266  -1.299  0.47 52.80 LIG 0.04  C 
ATOM     43  CB  PRO C  74      16.281  11.834  -1.047  0.47 50.35 LIG 0.05  C 
ENDBRANCH 37 39
ENDBRANCH 28 32
ENDBRANCH 1 25
TORSDOF 8
