USER: ADFR SOLUTION from run 0
USER: SCORE 14.823035 LL:  -4.348 LR: -10.629 RR:   0.000 FEB:  -7.050
USER: RMSD 0.913190
USER: STATUS Locally minimized using BFGS
USER: GENES 14
USER: genes 0 Translation |==|  0.47243 0.44987 0.53305
USER: genes 1 Rotation |==|  0.50039 0.51621 0.51823 0.99940
USER: genes 2 Torsion [N]-CA--C-[O] |==|  0.59133
USER: genes 3 Torsion [C]-N--CA-[CB] |==|  0.21628
USER: genes 4 Torsion [N]-CA--CB-[CG] |==|  0.09303
USER: genes 5 Torsion [CA]-CB--CG-[CD2] |==|  0.24532
USER: genes 6 Torsion [N]-CA--C-[O] |==|  0.52575
USER: genes 7 Torsion [N]-C--CA-[N] |==|  0.33113
USER: genes 8 Torsion [C]-CA--N-[C] |==|  0.71667
USER: genes 9 Torsion [N]-C--CA-[N] |==|  0.02296
USER: genes 10 Torsion [C]-CA--CB-[CG] |==|  0.63521
USER: genes 11 Torsion [CA]-CB--CG-[OD2] |==|  0.20356
USER: genes 12 Torsion [C]-CA--CB-[CG1] |==|  0.56537
USER: genes 13 Torsion [CA]-CB--CG1-[CD1] |==|  0.53041
ROOT
ATOM      1  C   ILE B 176      -0.853 -31.087  14.584  1.00 22.90 LIG 0.24  C 
ATOM      2 O    ILE B 176       0.262 -30.886  15.097  1.00 27.22 LIG-0.27  OA
ATOM      3  N   PRO B 177      -1.891 -31.551  15.298  1.00 22.83 LIG-0.34  N 
ATOM      4  CA  PRO B 177      -1.823 -31.743  16.758  1.00 24.67 LIG 0.18  C 
ATOM      5  CB  PRO B 177      -3.292 -31.670  17.183  1.00 26.20 LIG 0.04  C 
ATOM      6  CG  PRO B 177      -3.999 -32.286  16.013  1.00 24.14 LIG 0.02  C 
ATOM      7  CD  PRO B 177      -3.260 -31.793  14.789  1.00 21.80 LIG 0.13  C 
ENDROOT
BRANCH 4 8
ATOM      8  C   PRO B 177      -1.213 -33.082  17.178  1.00 25.32 LIG 0.24  C 
ATOM      9 O    PRO B 177      -1.608 -33.642  18.202  1.00 32.00 LIG-0.27  OA
ATOM     10  N   PHE B 178      -0.249 -33.576  16.414  1.00 24.88 LIG-0.34  N 
ATOM     11 H    PHE B 178       0.006 -33.211  15.679  1.00 24.88 LIG 0.16  HD
BRANCH 10 12
ATOM     12  CA  PHE B 178       0.478 -34.798  16.751  1.00 25.09 LIG 0.19  C 
BRANCH 12 13
ATOM     13  CB  PHE B 178      -0.337 -36.073  16.435  1.00 24.80 LIG 0.07  C 
BRANCH 13 14
ATOM     14  CG  PHE B 178      -1.239 -35.949  15.218  1.00 21.99 LIG-0.06  A 
ATOM     15  CD2 PHE B 178      -0.789 -36.248  13.919  1.00 23.17 LIG 0.01  A 
ATOM     16  CE2 PHE B 178      -1.646 -36.125  12.808  1.00 21.52 LIG 0.00  A 
ATOM     17  CZ  PHE B 178      -2.941 -35.731  13.017  1.00 22.39 LIG 0.00  A 
ATOM     18  CE1 PHE B 178      -3.417 -35.453  14.285  1.00 21.58 LIG 0.00  A 
ATOM     19  CD1 PHE B 178      -2.571 -35.579  15.383  1.00 21.72 LIG 0.01  A 
ENDBRANCH 13 14
ENDBRANCH 12 13
BRANCH 12 20
ATOM     20  C   PHE B 178       1.832 -34.783  16.062  1.00 24.87 LIG 0.20  C 
ATOM     21 OXT  PHE B 178       2.183 -33.757  15.469  1.00 27.82 LIG-0.65  OA
ATOM     22 O    PHE B 178       2.560 -35.775  16.053  1.00 30.25 LIG-0.65  OA
ENDBRANCH 12 20
ENDBRANCH 10 12
ENDBRANCH 4 8
BRANCH 1 23
ATOM     23  CA  ILE B 176      -1.068 -30.799  13.100  1.00 23.71 LIG 0.18  C 
BRANCH 23 24
ATOM     24  N   ILE B 176      -0.807 -29.382  12.889  1.00 24.90 LIG-0.34  N 
ATOM     25  C   ASP B 175      -1.807 -28.512  12.757  1.00 27.89 LIG 0.26  C 
ATOM     26 O    ASP B 175      -2.989 -28.849  12.817  1.00 29.58 LIG-0.27  OA
ATOM     27 H    ILE B 176       0.026 -29.170  12.859  1.00 24.90 LIG 0.16  HD
BRANCH 25 28
ATOM     28  CA  ASP B 175      -1.431 -27.045  12.509  1.00 34.92 LIG 0.41  C 
ATOM     29  N   ASP B 175       0.030 -26.838  12.257  1.00 43.46 LIG 0.61  N 
BRANCH 28 30
ATOM     30  CB  ASP B 175      -2.251 -26.473  11.339  1.00 38.90 LIG 0.16  C 
BRANCH 30 31
ATOM     31  CG  ASP B 175      -1.389 -25.735  10.304  1.00 38.28 LIG 0.17  C 
ATOM     32 OD2  ASP B 175      -0.658 -26.420   9.537  1.00 42.70 LIG-0.65  OA
ATOM     33 OD1  ASP B 175      -1.456 -24.481  10.236  1.00 44.78 LIG-0.65  OA
ENDBRANCH 30 31
ENDBRANCH 28 30
ENDBRANCH 25 28
ENDBRANCH 23 24
BRANCH 23 34
ATOM     34  CB  ILE B 176      -0.179 -31.699  12.227  1.00 23.83 LIG 0.01  C 
ATOM     35  CG2 ILE B 176      -0.824 -33.059  12.075  1.00 26.43 LIG 0.01  C 
BRANCH 34 36
ATOM     36  CG1 ILE B 176       0.043 -31.036  10.858  1.00 26.50 LIG 0.00  C 
ATOM     37  CD1 ILE B 176       0.680 -31.940   9.833  1.00 30.68 LIG 0.01  C 
ENDBRANCH 34 36
ENDBRANCH 23 34
ENDBRANCH 1 23
TORSDOF 12
