REMARK  16 active torsions:
REMARK  status: ('A' for Active; 'I' for Inactive)
REMARK    1  A    between atoms: N_1  and  CA_2 
REMARK    2  A    between atoms: CA_2  and  C_3 
REMARK    3  A    between atoms: CA_2  and  CB_5 
REMARK       I    between atoms: C_3  and  N_11 
REMARK    4  A    between atoms: N_11  and  CA_12 
REMARK    5  A    between atoms: CA_12  and  C_13 
REMARK    6  A    between atoms: CA_12  and  CB_15 
REMARK       I    between atoms: C_13  and  N_28 
REMARK    7  A    between atoms: CB_15  and  CG_16 
REMARK    8  A    between atoms: CG_16  and  CD_17 
REMARK    9  A    between atoms: CD_17  and  NE_18 
REMARK       I    between atoms: NE_18  and  CZ_19 
REMARK       I    between atoms: CZ_19  and  NH1_20 
REMARK   10  A    between atoms: CA_29  and  C_30 
REMARK       I    between atoms: C_30  and  N_35 
REMARK   11  A    between atoms: N_35  and  CA_36 
REMARK   12  A    between atoms: CA_36  and  CB_39 
REMARK   13  A    between atoms: CA_36  and  C_37 
REMARK   14  A    between atoms: CB_39  and  CG_40 
REMARK   15  A    between atoms: CG_40  and  CD_41 
REMARK   16  A    between atoms: CD_41  and  NE_42 
REMARK       I    between atoms: NE_42  and  CZ_43 
REMARK       I    between atoms: CZ_43  and  NH1_44 
ROOT
ATOM      1  C   ARG L   2     -24.187   7.043 -40.010  1.00 28.86     0.243 C 
ATOM      2  O   ARG L   2     -23.317   7.855 -39.729  1.00 28.60    -0.271 OA
ATOM      3  N   PRO L   3     -24.416   5.949 -39.280  1.00 31.50    -0.337 N 
ATOM      4  CA  PRO L   3     -23.683   5.706 -38.037  1.00 28.56     0.179 C 
ATOM      5  CB  PRO L   3     -24.530   4.638 -37.347  1.00 31.15     0.037 C 
ATOM      6  CG  PRO L   3     -25.129   3.876 -38.467  1.00 34.79     0.022 C 
ATOM      7  CD  PRO L   3     -25.378   4.871 -39.569  1.00 34.83     0.127 C 
ENDROOT
BRANCH   1   8
ATOM      8  CA  ARG L   2     -25.061   7.257 -41.230  1.00 35.60     0.176 C 
BRANCH   8   9
ATOM      9  CB  ARG L   2     -24.181   7.316 -42.476  1.00 35.35     0.036 C 
BRANCH   9  10
ATOM     10  CG  ARG L   2     -23.393   6.046 -42.720  1.00 43.75     0.023 C 
BRANCH  10  11
ATOM     11  CD  ARG L   2     -22.318   6.241 -43.784  1.00 55.75     0.138 C 
BRANCH  11  12
ATOM     12  NE  ARG L   2     -22.872   6.514 -45.109  1.00 59.77    -0.227 N 
ATOM     13  HE  ARG L   2     -23.293   5.875 -45.502  1.00 59.77     0.177 HD
ATOM     14  CZ  ARG L   2     -22.775   7.675 -45.755  1.00 59.01     0.665 C 
ATOM     15  NH2 ARG L   2     -23.320   7.799 -46.960  1.00 68.00    -0.235 N 
ATOM     16  NH1 ARG L   2     -22.134   8.707 -45.217  1.00 46.29    -0.235 N 
ATOM     17 HH21 ARG L   2     -23.731   7.133 -47.317  1.00 68.00     0.174 HD
ATOM     18 HH22 ARG L   2     -23.262   8.545 -47.384  1.00 68.00     0.174 HD
ATOM     19 HH11 ARG L   2     -21.774   8.632 -44.440  1.00 46.29     0.174 HD
ATOM     20 HH12 ARG L   2     -22.080   9.450 -45.646  1.00 46.29     0.174 HD
ENDBRANCH  11  12
ENDBRANCH  10  11
ENDBRANCH   9  10
ENDBRANCH   8   9
BRANCH   8  21
ATOM     21  N   ARG L   2     -25.807   8.495 -41.068  1.00 36.06    -0.346 N 
ATOM     22  C   VAL L   1     -27.134   8.524 -41.127  1.00 46.58     0.249 C 
ATOM     23  O   VAL L   1     -27.814   7.518 -41.312  1.00 52.05    -0.271 OA
ATOM     24  H   ARG L   2     -25.318   9.189 -40.934  1.00 36.06     0.163 HD
BRANCH  22  25
ATOM     25  CA  VAL L   1     -27.794   9.886 -40.949  1.00 44.00     0.278 C 
BRANCH  25  26
ATOM     26  CB  VAL L   1     -27.736  10.272 -39.464  1.00 44.54     0.017 C 
ATOM     27  CG2 VAL L   1     -28.748   9.456 -38.660  1.00 44.46     0.012 C 
ATOM     28  CG1 VAL L   1     -27.977  11.762 -39.296  1.00 39.43     0.012 C 
ENDBRANCH  25  26
BRANCH  25  29
ATOM     29  N   VAL L   1     -29.200   9.864 -41.444  1.00 43.15    -0.066 N 
ATOM     30  H3  VAL L   1     -29.552   9.058 -41.304  1.00 43.15     0.275 HD
ATOM     31  H2  VAL L   1     -29.211  10.045 -42.315  1.00 43.15     0.275 HD
ATOM     32  H1  VAL L   1     -29.678  10.475 -41.008  1.00 43.15     0.275 HD
ENDBRANCH  25  29
ENDBRANCH  22  25
ENDBRANCH   8  21
ENDBRANCH   1   8
BRANCH   4  33
ATOM     33  C   PRO L   3     -22.281   5.167 -38.276  1.00 21.59     0.241 C 
ATOM     34  O   PRO L   3     -22.048   4.483 -39.278  1.00 24.79    -0.271 OA
ATOM     35  N   ARG L   4     -21.379   5.455 -37.341  1.00 21.43    -0.347 N 
ATOM     36  H   ARG L   4     -21.547   5.958 -36.664  1.00 21.43     0.163 HD
BRANCH  35  37
ATOM     37  CA  ARG L   4     -20.019   4.949 -37.370  1.00 26.28     0.162 C 
BRANCH  37  38
ATOM     38  CB  ARG L   4     -19.037   6.080 -37.064  1.00 29.57     0.035 C 
BRANCH  38  39
ATOM     39  CG  ARG L   4     -19.069   7.178 -38.109  1.00 30.64     0.023 C 
BRANCH  39  40
ATOM     40  CD  ARG L   4     -18.040   8.266 -37.846  1.00 33.05     0.138 C 
BRANCH  40  41
ATOM     41  NE  ARG L   4     -17.911   9.160 -38.992  1.00 22.53    -0.227 N 
ATOM     42  HE  ARG L   4     -18.310   8.936 -39.720  1.00 22.53     0.177 HD
ATOM     43  CZ  ARG L   4     -17.223  10.292 -38.990  1.00 22.76     0.665 C 
ATOM     44  NH2 ARG L   4     -17.158  11.026 -40.089  1.00 22.03    -0.235 N 
ATOM     45  NH1 ARG L   4     -16.589  10.689 -37.894  1.00 22.99    -0.235 N 
ATOM     46 HH22 ARG L   4     -16.712  11.761 -40.089  1.00 22.03     0.174 HD
ATOM     47 HH21 ARG L   4     -17.562  10.768 -40.803  1.00 22.03     0.174 HD
ATOM     48 HH11 ARG L   4     -16.623  10.211 -37.180  1.00 22.99     0.174 HD
ATOM     49 HH12 ARG L   4     -16.144  11.425 -37.898  1.00 22.99     0.174 HD
ENDBRANCH  40  41
ENDBRANCH  39  40
ENDBRANCH  38  39
ENDBRANCH  37  38
BRANCH  37  50
ATOM     50  C   ARG L   4     -19.836   3.802 -36.378  1.00 33.78     0.219 C 
ATOM     51  O   ARG L   4     -18.828   3.735 -35.674  1.00 23.95    -0.287 OA
ENDBRANCH  37  50
ENDBRANCH  35  37
ENDBRANCH   4  33
TORSDOF 16
