USER: ADFR SOLUTION from run 0
USER: SCORE 12.859898 LL:  -2.678 LR: -10.432 RR:   0.000 FEB:  -6.554
USER: RMSD 0.334630
USER: STATUS Locally minimized using BFGS
USER: GENES 15
USER: genes 0 Translation |==|  0.46999 0.48234 0.45331
USER: genes 1 Rotation |==|  0.49810 0.51624 0.47293 0.99900
USER: genes 2 Torsion [C]-N--CA-[C] |==|  0.78666
USER: genes 3 Torsion [N]-CA--C-[N] |==|  0.36423
USER: genes 4 Torsion [C]-N--CA-[CB] |==|  0.30508
USER: genes 5 Torsion [N]-CA--CB-[CG1] |==|  0.83871
USER: genes 6 Torsion [N]-CA--C-[OXT] |==|  0.47062
USER: genes 7 Torsion [N]-CA--CB-[CG] |==|  0.49642
USER: genes 8 Torsion [CA]-CB--CG-[CD1] |==|  0.15625
USER: genes 9 Torsion [N]-C--CA-[N] |==|  0.31446
USER: genes 10 Torsion [C]-CA--CB-[CG2] |==|  0.15956
USER: genes 11 Torsion [CA]-CB--OG1-[HG1] |==|  0.20403
USER: genes 12 Torsion [C]-CA--N-[C] |==|  0.69610
USER: genes 13 Torsion [N]-C--CA-[N] |==|  0.44367
USER: genes 14 Torsion [C]-CA--CB-[CG1] |==|  0.50872
ROOT
ATOM      1  C   THR B 103     -25.881   8.690  -1.660  1.00  4.93 LIG 0.24  C 
ATOM      2 O    THR B 103     -24.700   8.348  -1.581  1.00  4.94 LIG-0.27  OA
ATOM      3  N   LEU B 104     -26.688   8.742  -0.608  1.00  4.18 LIG-0.35  N 
ATOM      4 H    LEU B 104     -27.510   8.990  -0.640  1.00  4.18 LIG 0.16  HD
ENDROOT
BRANCH 3 5
ATOM      5  CA  LEU B 104     -26.219   8.369   0.717  1.00  5.70 LIG 0.18  C 
BRANCH 5 6
ATOM      6  C   LEU B 104     -26.144   6.861   0.837  1.00  6.53 LIG 0.24  C 
ATOM      7 O    LEU B 104     -27.098   6.156   0.500  1.00  8.21 LIG-0.27  OA
ATOM      8  N   VAL B 105     -25.015   6.369   1.325  1.00  6.80 LIG-0.34  N 
ATOM      9 H    VAL B 105     -24.331   6.848   1.530  1.00  6.80 LIG 0.16  HD
BRANCH 8 10
ATOM     10  CA  VAL B 105     -24.843   4.941   1.559  1.00  6.91 LIG 0.19  C 
BRANCH 10 11
ATOM     11  CB  VAL B 105     -23.850   4.310   0.566  1.00  6.78 LIG 0.01  C 
ATOM     12  CG1 VAL B 105     -24.311   4.526  -0.866  1.00  6.96 LIG 0.01  C 
ATOM     13  CG2 VAL B 105     -22.456   4.900   0.764  1.00  7.27 LIG 0.01  C 
ENDBRANCH 10 11
BRANCH 10 14
ATOM     14  C   VAL B 105     -24.345   4.708   2.981  1.00  6.40 LIG 0.20  C 
ATOM     15 OXT  VAL B 105     -24.319   3.565   3.449  1.00  6.01 LIG-0.65  OA
ATOM     16 O    VAL B 105     -23.953   5.659   3.680  1.00  5.94 LIG-0.65  OA
ENDBRANCH 10 14
ENDBRANCH 8 10
ENDBRANCH 5 6
BRANCH 5 17
ATOM     17  CB  LEU B 104     -27.151   8.920   1.801  1.00  7.33 LIG 0.04  C 
BRANCH 17 18
ATOM     18  CG  LEU B 104     -26.802   8.582   3.256  1.00 10.28 LIG-0.02  C 
ATOM     19  CD2 LEU B 104     -27.830   9.195   4.207  1.00 13.23 LIG 0.01  C 
ATOM     20  CD1 LEU B 104     -25.385   9.024   3.626  1.00 11.40 LIG 0.01  C 
ENDBRANCH 17 18
ENDBRANCH 5 17
ENDBRANCH 3 5
BRANCH 1 21
ATOM     21  CA  THR B 103     -26.474   9.101  -2.996  1.00  5.29 LIG 0.20  C 
BRANCH 21 22
ATOM     22  CB  THR B 103     -26.246   7.968  -4.010  1.00  5.94 LIG 0.15  C 
ATOM     23  CG2 THR B 103     -26.862   6.656  -3.512  1.00  6.62 LIG 0.04  C 
BRANCH 22 24
ATOM     24 OG1  THR B 103     -26.819   8.332  -5.272  1.00  6.95 LIG-0.39  OA
ATOM     25 HG1  THR B 103     -26.342   8.918  -5.639  1.00  6.95 LIG 0.21  HD
ENDBRANCH 22 24
ENDBRANCH 21 22
BRANCH 21 26
ATOM     26  N   THR B 103     -25.828  10.331  -3.443  1.00  6.31 LIG-0.34  N 
ATOM     27  C   VAL B 102     -26.464  11.496  -3.465  1.00  9.59 LIG 0.26  C 
ATOM     28 O    VAL B 102     -27.636  11.616  -3.123  1.00 11.78 LIG-0.27  OA
ATOM     29 H    THR B 103     -25.010  10.230  -3.688  1.00  6.31 LIG 0.16  HD
BRANCH 27 30
ATOM     30  CA  VAL B 102     -25.662  12.701  -3.956  1.00 12.05 LIG 0.40  C 
ATOM     31  N   VAL B 102     -26.549  13.779  -4.385  1.00 12.38 LIG 0.61  N 
BRANCH 30 32
ATOM     32  CB  VAL B 102     -24.697  13.178  -2.850  1.00 15.16 LIG 0.03  C 
ATOM     33  CG1 VAL B 102     -23.953  14.420  -3.302  1.00 16.31 LIG 0.01  C 
ATOM     34  CG2 VAL B 102     -25.456  13.467  -1.570  1.00 16.97 LIG 0.01  C 
ENDBRANCH 30 32
ENDBRANCH 27 30
ENDBRANCH 21 26
ENDBRANCH 1 21
TORSDOF 13
