REMARK  17 active torsions:
REMARK  status: ('A' for Active; 'I' for Inactive)
REMARK    1  A    between atoms: N_1  and  CA_2 
REMARK    2  A    between atoms: CA_2  and  CB_5 
REMARK    3  A    between atoms: CA_2  and  C_3 
REMARK       I    between atoms: C_3  and  N_11 
REMARK    4  A    between atoms: N_11  and  CA_12 
REMARK    5  A    between atoms: CA_12  and  C_13 
REMARK    6  A    between atoms: CA_12  and  CB_15 
REMARK       I    between atoms: C_13  and  N_25 
REMARK    7  A    between atoms: CB_15  and  CG_16 
REMARK    8  A    between atoms: CZ_21  and  OH_22 
REMARK    9  A    between atoms: N_25  and  CA_26 
REMARK   10  A    between atoms: CA_26  and  CB_29 
REMARK   11  A    between atoms: CA_26  and  C_27 
REMARK       I    between atoms: C_27  and  N_34 
REMARK   12  A    between atoms: CB_29  and  CG1_30 
REMARK   13  A    between atoms: N_34  and  CA_35 
REMARK   14  A    between atoms: CA_35  and  C_36 
REMARK   15  A    between atoms: CA_35  and  CB_38 
REMARK       I    between atoms: C_36  and  N_45 
REMARK   16  A    between atoms: CB_38  and  CG_39 
REMARK   17  A    between atoms: CA_46  and  C_47 
ROOT
ATOM      1  C   TYR C   2      57.981  30.047  36.579  1.00 15.61     0.241 C 
ATOM      2  O   TYR C   2      58.945  30.329  35.852  1.00 14.40    -0.271 OA
ATOM      3  N   ILE C   3      57.586  28.817  36.756  1.00 16.82    -0.346 N 
ATOM      4  H   ILE C   3      57.057  28.567  37.386  1.00 16.82     0.163 HD
ENDROOT
BRANCH   3   5
ATOM      5  CA  ILE C   3      58.024  27.743  35.873  1.00 16.46     0.180 C 
BRANCH   5   6
ATOM      6  CB  ILE C   3      57.861  26.390  36.541  1.00 18.77     0.013 C 
ATOM      7  CG2 ILE C   3      58.658  26.382  37.837  1.00 19.99     0.012 C 
BRANCH   6   8
ATOM      8  CG1 ILE C   3      56.381  26.080  36.867  1.00 18.05     0.002 C 
ATOM      9  CD1 ILE C   3      56.154  24.713  37.518  1.00 24.94     0.005 C 
ENDBRANCH   6   8
ENDBRANCH   5   6
BRANCH   5  10
ATOM     10  C   ILE C   3      57.211  27.840  34.578  1.00 19.56     0.241 C 
ATOM     11  N   HIS C   4      57.642  27.186  33.518  1.00 25.52    -0.346 N 
ATOM     12  H   HIS C   4      58.306  26.639  33.512  1.00 25.52     0.163 HD
ATOM     13  O   ILE C   3      56.174  28.505  34.531  1.00 16.93    -0.271 OA
BRANCH  11  14
ATOM     14  CA  HIS C   4      56.966  27.374  32.218  1.00 31.94     0.182 C 
BRANCH  14  15
ATOM     15  C   HIS C   4      56.197  26.112  31.912  1.00 43.02     0.243 C 
ATOM     16  O   HIS C   4      56.868  25.136  31.523  1.00 47.49    -0.271 OA
ATOM     17  N   PRO C   5      54.817  26.156  32.014  1.00 55.18    -0.338 N 
ATOM     18  CA  PRO C   5      53.795  25.044  31.883  1.00 55.75     0.165 C 
ATOM     19  CD  PRO C   5      54.137  27.476  31.934  1.00 48.44     0.127 C 
ATOM     20  CB  PRO C   5      52.473  25.748  32.209  1.00 55.43     0.035 C 
ATOM     21  CG  PRO C   5      52.666  27.140  31.688  1.00 51.63     0.022 C 
BRANCH  18  22
ATOM     22  C   PRO C   5      53.646  24.434  30.498  1.00 57.38     0.219 C 
ATOM     23  O   PRO C   5      53.537  25.169  29.512  1.00 61.90    -0.287 OA
ENDBRANCH  18  22
ENDBRANCH  14  15
BRANCH  14  24
ATOM     24  CB  HIS C   4      57.980  27.749  31.090  1.00 32.76     0.095 C 
BRANCH  24  25
ATOM     25  CG  HIS C   4      57.401  27.811  29.705  1.00 32.77     0.056 A 
ATOM     26  ND1 HIS C   4      57.694  26.868  28.736  1.00 34.96    -0.245 NA
ATOM     27  CE1 HIS C   4      57.035  27.155  27.623  1.00 36.21     0.232 A 
ATOM     28  NE2 HIS C   4      56.329  28.260  27.830  1.00 34.31    -0.252 NA
ATOM     29  CD2 HIS C   4      56.544  28.692  29.125  1.00 30.94     0.145 A 
ENDBRANCH  24  25
ENDBRANCH  14  24
ENDBRANCH  11  14
ENDBRANCH   5  10
ENDBRANCH   3   5
BRANCH   1  30
ATOM     30  CA  TYR C   2      57.249  31.084  37.377  1.00 15.99     0.180 C 
BRANCH  30  31
ATOM     31  N   TYR C   2      57.002  30.746  38.765  1.00 12.71    -0.346 N 
ATOM     32  C   VAL C   1      55.976  30.040  39.154  1.00 12.74     0.249 C 
ATOM     33  O   VAL C   1      55.182  29.555  38.373  1.00 11.92    -0.271 OA
ATOM     34  H   TYR C   2      57.594  31.054  39.307  1.00 12.71     0.163 HD
BRANCH  32  35
ATOM     35  CA  VAL C   1      55.781  29.907  40.672  1.00 14.22     0.278 C 
BRANCH  35  36
ATOM     36  N   VAL C   1      54.321  30.072  40.974  1.00 13.26    -0.066 N 
ATOM     37  H1  VAL C   1      54.147  29.747  41.784  1.00 13.26     0.275 HD
ATOM     38  H2  VAL C   1      54.108  30.936  40.949  1.00 13.26     0.275 HD
ATOM     39  H3  VAL C   1      53.841  29.631  40.368  1.00 13.26     0.275 HD
ENDBRANCH  35  36
BRANCH  35  40
ATOM     40  CB  VAL C   1      56.376  28.622  41.291  1.00 17.02     0.017 C 
ATOM     41  CG1 VAL C   1      56.395  28.688  42.864  1.00 17.35     0.012 C 
ATOM     42  CG2 VAL C   1      55.615  27.442  40.868  1.00 19.35     0.012 C 
ENDBRANCH  35  40
ENDBRANCH  32  35
ENDBRANCH  30  31
BRANCH  30  43
ATOM     43  CB  TYR C   2      57.933  32.496  37.339  1.00 16.65     0.073 C 
BRANCH  43  44
ATOM     44  CG  TYR C   2      56.954  33.655  37.311  1.00 19.66    -0.056 A 
ATOM     45  CD1 TYR C   2      55.861  33.667  36.505  1.00 23.16     0.010 A 
ATOM     46  CE1 TYR C   2      54.959  34.769  36.423  1.00 26.66     0.037 A 
ATOM     47  CZ  TYR C   2      55.169  35.874  37.150  1.00 21.30     0.065 A 
ATOM     48  CE2 TYR C   2      56.247  35.877  37.964  1.00 23.08     0.037 A 
ATOM     49  CD2 TYR C   2      57.161  34.804  38.046  1.00 20.76     0.010 A 
BRANCH  47  50
ATOM     50  OH  TYR C   2      54.242  36.981  37.074  1.00 23.41    -0.361 OA
ATOM     51  HH  TYR C   2      54.573  37.651  37.458  1.00 23.41     0.217 HD
ENDBRANCH  47  50
ENDBRANCH  43  44
ENDBRANCH  30  43
ENDBRANCH   1  30
TORSDOF 17
