USER: ADFR SOLUTION from run 0
USER: SCORE 22.718348 LL:  -4.791 LR: -18.714 RR:   0.000 FEB: -12.450
USER: RMSD 0.524166
USER: STATUS Locally minimized using BFGS
USER: GENES 23
USER: genes 0 Translation |==|  0.67052 0.51613 0.47476
USER: genes 1 Rotation |==|  0.49064 0.50761 0.50991 0.99976
USER: genes 2 Torsion [N]-C--CA-[N] |==|  0.49418
USER: genes 3 Torsion [C]-CA--CB-[CG2] |==|  0.50452
USER: genes 4 Torsion [CA]-CB--CG1-[CD1] |==|  0.49872
USER: genes 5 Torsion [C]-CA--N-[C] |==|  0.79614
USER: genes 6 Torsion [N]-C--CA-[N] |==|  0.11165
USER: genes 7 Torsion [C]-CA--N-[C] |==|  0.75538
USER: genes 8 Torsion [N]-C--CA-[N] |==|  0.39880
USER: genes 9 Torsion [C]-CA--CB-[CG1] |==|  0.45592
USER: genes 10 Torsion [C]-CA--N-[H3] |==|  0.10570
USER: genes 11 Torsion [C]-CA--CB-[CG] |==|  0.41728
USER: genes 12 Torsion [CA]-CB--CG-[CD1] |==|  0.89257
USER: genes 13 Torsion [CE1]-CZ--OH-[HH] |==|  0.11150
USER: genes 14 Torsion [C]-N--CA-[C] |==|  0.83233
USER: genes 15 Torsion [N]-CA--C-[N] |==|  0.37997
USER: genes 16 Torsion [N]-CA--C-[O] |==|  0.95651
USER: genes 17 Torsion [C]-N--CA-[C] |==|  0.68247
USER: genes 18 Torsion [N]-CA--C-[O] |==|  0.93486
USER: genes 19 Torsion [N]-CA--CB-[CG] |==|  0.56317
USER: genes 20 Torsion [CA]-CB--CG-[CD1] |==|  0.20766
USER: genes 21 Torsion [N]-CA--CB-[CG] |==|  0.67064
USER: genes 22 Torsion [CA]-CB--CG-[CD2] |==|  0.03203
ROOT
ATOM      1  C   ILE C   3      57.105  28.087  34.586  1.00 18.73 LIG 0.24  C 
ATOM      2 O    ILE C   3      56.166  28.857  34.464  1.00 16.27 LIG-0.27  OA
ATOM      3  N   HIS C   4      57.386  27.216  33.619  1.00 21.57 LIG-0.35  N 
ATOM      4 H    HIS C   4      58.040  26.658  33.617  1.00 21.57 LIG 0.16  HD
ENDROOT
BRANCH 1 5
ATOM      5  CA  ILE C   3      57.960  28.091  35.864  1.00 14.70 LIG 0.18  C 
BRANCH 5 6
ATOM      6  CB  ILE C   3      57.901  26.758  36.593  1.00 14.24 LIG 0.01  C 
ATOM      7  CG2 ILE C   3      58.720  26.806  37.867  1.00 15.96 LIG 0.01  C 
BRANCH 6 8
ATOM      8  CG1 ILE C   3      56.476  26.438  37.013  1.00 14.06 LIG 0.00  C 
ATOM      9  CD1 ILE C   3      56.309  25.115  37.743  1.00 15.53 LIG 0.01  C 
ENDBRANCH 6 8
ENDBRANCH 5 6
BRANCH 5 10
ATOM     10  N   ILE C   3      57.469  29.159  36.711  1.00 14.80 LIG-0.35  N 
ATOM     11 H    ILE C   3      57.021  28.901  37.398  1.00 14.80 LIG 0.16  HD
ATOM     12  C   TYR C   2      57.716  30.421  36.409  1.00 14.99 LIG 0.24  C 
ATOM     13 O    TYR C   2      58.583  30.737  35.583  1.00 13.53 LIG-0.27  OA
BRANCH 12 14
ATOM     14  CA  TYR C   2      56.954  31.455  37.206  1.00 13.94 LIG 0.18  C 
BRANCH 14 15
ATOM     15  N   TYR C   2      56.818  31.149  38.609  1.00 12.58 LIG-0.35  N 
ATOM     16  C   VAL C   1      55.791  30.420  39.016  1.00 12.16 LIG 0.25  C 
ATOM     17 O    VAL C   1      55.005  29.896  38.197  1.00 12.42 LIG-0.27  OA
ATOM     18 H    TYR C   2      57.432  31.469  39.119  1.00 12.58 LIG 0.16  HD
BRANCH 16 19
ATOM     19  CA  VAL C   1      55.574  30.287  40.547  1.00 12.03 LIG 0.28  C 
BRANCH 19 20
ATOM     20  CB  VAL C   1      56.241  29.010  41.120  1.00 13.82 LIG 0.02  C 
ATOM     21  CG2 VAL C   1      55.495  27.744  40.716  1.00 13.35 LIG 0.01  C 
ATOM     22  CG1 VAL C   1      56.374  29.059  42.642  1.00 14.11 LIG 0.01  C 
ENDBRANCH 19 20
BRANCH 19 23
ATOM     23  N   VAL C   1      54.064  30.276  40.790  1.00 11.80 LIG-0.07  N 
ATOM     24 H3   VAL C   1      53.662  29.816  40.143  1.00 11.80 LIG 0.28  HD
ATOM     25 H1   VAL C   1      53.892  29.893  41.575  1.00 11.80 LIG 0.28  HD
ATOM     26 H2   VAL C   1      53.758  31.111  40.796  1.00 11.80 LIG 0.28  HD
ENDBRANCH 19 23
ENDBRANCH 16 19
ENDBRANCH 14 15
BRANCH 14 27
ATOM     27  CB  TYR C   2      57.543  32.888  37.084  1.00 13.68 LIG 0.07  C 
BRANCH 27 28
ATOM     28  CG  TYR C   2      56.620  34.003  37.207  1.00 14.01 LIG-0.06  A 
ATOM     29  CD1 TYR C   2      55.349  33.976  36.672  1.00 14.17 LIG 0.01  A 
ATOM     30  CE1 TYR C   2      54.527  35.068  36.673  1.00 16.08 LIG 0.04  A 
ATOM     31  CZ  TYR C   2      54.934  36.200  37.313  1.00 18.02 LIG 0.07  A 
ATOM     32  CE2 TYR C   2      56.171  36.275  37.849  1.00 16.42 LIG 0.04  A 
ATOM     33  CD2 TYR C   2      57.034  35.208  37.806  1.00 16.83 LIG 0.01  A 
BRANCH 31 34
ATOM     34 OH   TYR C   2      54.133  37.311  37.364  1.00 21.46 LIG-0.36  OA
ATOM     35 HH   TYR C   2      53.336  37.077  37.490  1.00 21.46 LIG 0.22  HD
ENDBRANCH 31 34
ENDBRANCH 27 28
ENDBRANCH 14 27
ENDBRANCH 12 14
ENDBRANCH 5 10
ENDBRANCH 1 5
BRANCH 3 36
ATOM     36  CA  HIS C   4      56.507  27.191  32.437  1.00 30.85 LIG 0.18  C 
BRANCH 36 37
ATOM     37  C   HIS C   4      54.985  26.839  32.804  1.00 37.69 LIG 0.24  C 
ATOM     38 O    HIS C   4      54.754  25.978  33.676  1.00 34.87 LIG-0.27  OA
ATOM     39  N   PRO C   5      53.962  27.559  32.212  1.00 41.85 LIG-0.34  N 
ATOM     40  CA  PRO C   5      52.587  27.047  32.415  1.00 42.98 LIG 0.18  C 
ATOM     41  CD  PRO C   5      53.913  28.977  31.766  1.00 45.49 LIG 0.13  C 
ATOM     42  CB  PRO C   5      51.717  27.913  31.479  1.00 43.99 LIG 0.04  C 
ATOM     43  CG  PRO C   5      52.603  29.050  30.998  1.00 47.39 LIG 0.02  C 
BRANCH 40 44
ATOM     44  C   PRO C   5      52.481  25.568  32.068  1.00 44.97 LIG 0.24  C 
ATOM     45  N   PHE C   6      51.407  24.951  32.565  1.00 47.34 LIG-0.35  N 
ATOM     46 H    PHE C   6      50.739  25.376  32.901  1.00 47.34 LIG 0.16  HD
ATOM     47 O    PRO C   5      53.376  25.025  31.408  1.00 42.20 LIG-0.27  OA
BRANCH 45 48
ATOM     48  CA  PHE C   6      51.244  23.488  32.594  1.00 47.71 LIG 0.17  C 
BRANCH 48 49
ATOM     49  C   PHE C   6      50.091  23.072  31.685  1.00 43.76 LIG 0.22  C 
ATOM     50 O    PHE C   6      49.205  23.901  31.421  1.00 44.85 LIG-0.29  OA
ENDBRANCH 48 49
BRANCH 48 51
ATOM     51  CB  PHE C   6      50.961  23.053  34.023  1.00 45.10 LIG 0.07  C 
BRANCH 51 52
ATOM     52  CG  PHE C   6      51.298  21.635  34.288  1.00 47.89 LIG-0.06  A 
ATOM     53  CD1 PHE C   6      52.622  21.238  34.423  1.00 50.48 LIG 0.01  A 
ATOM     54  CE1 PHE C   6      52.950  19.902  34.680  1.00 53.80 LIG 0.00  A 
ATOM     55  CZ  PHE C   6      51.946  18.953  34.803  1.00 48.07 LIG 0.00  A 
ATOM     56  CE2 PHE C   6      50.623  19.347  34.671  1.00 44.45 LIG 0.00  A 
ATOM     57  CD2 PHE C   6      50.300  20.679  34.398  1.00 45.95 LIG 0.01  A 
ENDBRANCH 51 52
ENDBRANCH 48 51
ENDBRANCH 45 48
ENDBRANCH 40 44
ENDBRANCH 36 37
BRANCH 36 58
ATOM     58  CB  HIS C   4      57.101  26.370  31.279  1.00 37.41 LIG 0.10  C 
BRANCH 58 59
ATOM     59  CG  HIS C   4      57.330  27.228  30.047  1.00 46.77 LIG 0.06  A 
ATOM     60 ND1  HIS C   4      57.511  26.713  28.781  1.00 46.89 LIG-0.24  NA
ATOM     61  CE1 HIS C   4      57.553  27.697  27.899  1.00 44.31 LIG 0.23  A 
ATOM     62 NE2  HIS C   4      57.396  28.835  28.541  1.00 47.07 LIG-0.25  NA
ATOM     63  CD2 HIS C   4      57.294  28.576  29.886  1.00 43.50 LIG 0.14  A 
ENDBRANCH 58 59
ENDBRANCH 36 58
ENDBRANCH 3 36
TORSDOF 21
