REMARK  26 active torsions:
REMARK  status: ('A' for Active; 'I' for Inactive)
REMARK    1  A    between atoms: N_1  and  CA_2 
REMARK    2  A    between atoms: CA_2  and  CB_5 
REMARK    3  A    between atoms: CA_2  and  C_3 
REMARK       I    between atoms: C_3  and  N_12 
REMARK    4  A    between atoms: CB_5  and  CG_6 
REMARK    5  A    between atoms: N_12  and  CA_13 
REMARK    6  A    between atoms: CA_13  and  C_14 
REMARK    7  A    between atoms: CA_13  and  CB_16 
REMARK       I    between atoms: C_14  and  N_29 
REMARK    8  A    between atoms: CB_16  and  CG_17 
REMARK    9  A    between atoms: CG_17  and  CD_18 
REMARK   10  A    between atoms: CD_18  and  NE_19 
REMARK       I    between atoms: NE_19  and  CZ_20 
REMARK       I    between atoms: CZ_20  and  NH1_21 
REMARK   11  A    between atoms: N_29  and  CA_30 
REMARK   12  A    between atoms: CA_30  and  CB_33 
REMARK   13  A    between atoms: CA_30  and  C_31 
REMARK       I    between atoms: C_31  and  N_37 
REMARK   14  A    between atoms: N_37  and  CA_38 
REMARK   15  A    between atoms: CA_38  and  CB_41 
REMARK   16  A    between atoms: CA_38  and  C_39 
REMARK       I    between atoms: C_39  and  N_51 
REMARK   17  A    between atoms: CB_41  and  CG_42 
REMARK   18  A    between atoms: CZ_47  and  OH_48 
REMARK   19  A    between atoms: N_51  and  CA_52 
REMARK   20  A    between atoms: CA_52  and  C_53 
REMARK   21  A    between atoms: CA_52  and  CB_55 
REMARK       I    between atoms: C_53  and  N_60 
REMARK   22  A    between atoms: CB_55  and  CG1_56 
REMARK   23  A    between atoms: N_60  and  CA_61 
REMARK   24  A    between atoms: CA_61  and  CB_64 
REMARK   25  A    between atoms: CA_61  and  C_62 
REMARK   26  A    between atoms: CB_64  and  CG_65 
ROOT
ATOM      1  C   VAL C   3      57.118  28.359  34.443  1.00 15.94     0.241 C 
ATOM      2  O   VAL C   3      55.989  28.808  34.483  1.00 17.86    -0.271 OA
ATOM      3  N   TYR C   4      57.652  27.927  33.305  1.00 16.41    -0.346 N 
ATOM      4  H   TYR C   4      58.439  27.586  33.243  1.00 16.41     0.163 HD
ENDROOT
BRANCH   1   5
ATOM      5  CA  VAL C   3      57.940  28.246  35.743  1.00 16.01     0.180 C 
BRANCH   5   6
ATOM      6  N   VAL C   3      57.391  29.246  36.683  1.00 15.77    -0.346 N 
ATOM      7  H   VAL C   3      56.825  28.943  37.256  1.00 15.77     0.163 HD
ATOM      8  C   ARG C   2      57.784  30.506  36.597  1.00 16.54     0.241 C 
ATOM      9  O   ARG C   2      58.687  30.877  35.817  1.00 14.63    -0.271 OA
BRANCH   8  10
ATOM     10  CA  ARG C   2      57.104  31.503  37.515  1.00 19.03     0.176 C 
BRANCH  10  11
ATOM     11  CB  ARG C   2      57.882  32.823  37.487  1.00 20.38     0.036 C 
BRANCH  11  12
ATOM     12  CG  ARG C   2      57.115  34.018  37.943  1.00 20.75     0.023 C 
BRANCH  12  13
ATOM     13  CD  ARG C   2      56.200  34.483  36.899  1.00 22.55     0.138 C 
BRANCH  13  14
ATOM     14  NE  ARG C   2      55.572  35.732  37.234  1.00 20.36    -0.227 N 
ATOM     15  CZ  ARG C   2      54.560  36.258  36.577  1.00 23.11     0.665 C 
ATOM     16  NH1 ARG C   2      53.973  35.598  35.641  1.00 23.20    -0.235 N 
ATOM     17  NH2 ARG C   2      54.082  37.448  36.960  1.00 25.55    -0.235 N 
ATOM     18 HH11 ARG C   2      54.241  34.806  35.440  1.00 23.20     0.174 HD
ATOM     19 HH12 ARG C   2      53.312  35.949  35.217  1.00 23.20     0.174 HD
ATOM     20 HH22 ARG C   2      53.421  37.802  36.539  1.00 25.55     0.174 HD
ATOM     21 HH21 ARG C   2      54.436  37.859  37.628  1.00 25.55     0.174 HD
ATOM     22  HE  ARG C   2      55.879  36.165  37.910  1.00 20.36     0.177 HD
ENDBRANCH  13  14
ENDBRANCH  12  13
ENDBRANCH  11  12
ENDBRANCH  10  11
BRANCH  10  23
ATOM     23  N   ARG C   2      57.022  30.983  38.890  1.00 19.42    -0.346 N 
ATOM     24  C   ASP C   1      56.005  30.209  39.243  1.00 19.51     0.249 C 
ATOM     25  O   ASP C   1      55.235  29.705  38.409  1.00 19.29    -0.271 OA
ATOM     26  H   ARG C   2      57.664  31.219  39.411  1.00 19.42     0.163 HD
BRANCH  24  27
ATOM     27  CA  ASP C   1      55.776  29.963  40.724  1.00 19.04     0.284 C 
BRANCH  27  28
ATOM     28  CB  ASP C   1      56.194  28.555  41.061  1.00 21.34     0.155 C 
BRANCH  28  29
ATOM     29  CG  ASP C   1      56.153  28.283  42.587  1.00 23.67     0.175 C 
ATOM     30  OD2 ASP C   1      55.685  27.176  42.971  1.00 27.41    -0.648 OA
ATOM     31  OD1 ASP C   1      56.558  29.175  43.402  1.00 20.87    -0.648 OA
ENDBRANCH  28  29
ENDBRANCH  27  28
BRANCH  27  32
ATOM     32  N   ASP C   1      54.305  30.164  40.991  1.00 18.38    -0.066 N 
ATOM     33  H1  ASP C   1      54.118  29.915  41.825  1.00 18.38     0.275 HD
ATOM     34  H3  ASP C   1      53.830  29.673  40.421  1.00 18.38     0.275 HD
ATOM     35  H2  ASP C   1      54.098  31.023  40.885  1.00 18.38     0.275 HD
ENDBRANCH  27  32
ENDBRANCH  24  27
ENDBRANCH  10  23
ENDBRANCH   8  10
ENDBRANCH   5   6
BRANCH   5  36
ATOM     36  CB  VAL C   3      57.801  26.827  36.249  1.00 17.74     0.009 C 
ATOM     37  CG1 VAL C   3      58.462  26.646  37.599  1.00 20.72     0.012 C 
ATOM     38  CG2 VAL C   3      56.341  26.437  36.393  1.00 18.64     0.012 C 
ENDBRANCH   5  36
ENDBRANCH   1   5
BRANCH   3  39
ATOM     39  CA  TYR C   4      56.926  28.000  32.043  1.00 17.90     0.180 C 
BRANCH  39  40
ATOM     40  CB  TYR C   4      57.841  27.740  30.886  1.00 20.19     0.073 C 
BRANCH  40  41
ATOM     41  CG  TYR C   4      57.226  27.857  29.517  1.00 23.00    -0.056 A 
ATOM     42  CD2 TYR C   4      57.263  26.781  28.629  1.00 26.62     0.010 A 
ATOM     43  CE2 TYR C   4      56.711  26.868  27.367  1.00 28.63     0.037 A 
ATOM     44  CZ  TYR C   4      56.121  28.032  26.980  1.00 25.42     0.065 A 
ATOM     45  CE1 TYR C   4      56.027  29.082  27.829  1.00 26.89     0.037 A 
ATOM     46  CD1 TYR C   4      56.591  28.995  29.110  1.00 24.41     0.010 A 
BRANCH  44  47
ATOM     47  OH  TYR C   4      55.570  28.113  25.734  1.00 32.39    -0.361 OA
ATOM     48  HH  TYR C   4      55.705  27.394  25.321  1.00 32.39     0.217 HD
ENDBRANCH  44  47
ENDBRANCH  40  41
ENDBRANCH  39  40
BRANCH  39  49
ATOM     49  C   TYR C   4      55.672  27.080  32.006  1.00 20.63     0.241 C 
ATOM     50  O   TYR C   4      55.720  25.946  32.395  1.00 19.73    -0.271 OA
ATOM     51  N   ILE C   5      54.532  27.651  31.646  1.00 22.91    -0.346 N 
ATOM     52  H   ILE C   5      54.443  28.490  31.479  1.00 22.91     0.163 HD
BRANCH  51  53
ATOM     53  CA  ILE C   5      53.314  26.873  31.504  1.00 27.58     0.180 C 
BRANCH  53  54
ATOM     54  C   ILE C   5      53.211  26.340  30.077  1.00 33.14     0.241 C 
ATOM     55  N   HIS C   6      53.376  25.022  29.903  1.00 39.14    -0.347 N 
ATOM     56  H   HIS C   6      53.594  24.490  30.543  1.00 39.14     0.163 HD
ATOM     57  O   ILE C   5      53.090  27.150  29.162  1.00 25.88    -0.271 OA
BRANCH  55  58
ATOM     58  CA  HIS C   6      53.201  24.324  28.578  1.00 56.87     0.168 C 
BRANCH  58  59
ATOM     59  CB  HIS C   6      51.699  24.283  28.171  1.00 66.39     0.094 C 
BRANCH  59  60
ATOM     60  CG  HIS C   6      51.014  22.971  28.431  1.00 78.50     0.055 A 
ATOM     61  CD2 HIS C   6      49.696  22.650  28.427  1.00 82.71     0.145 A 
ATOM     62  NE2 HIS C   6      49.602  21.300  28.678  1.00 84.02    -0.252 NA
ATOM     63  CE1 HIS C   6      50.820  20.801  28.810  1.00 85.20     0.232 A 
ATOM     64  ND1 HIS C   6      51.692  21.786  28.659  1.00 88.66    -0.245 NA
ENDBRANCH  59  60
ENDBRANCH  58  59
BRANCH  58  65
ATOM     65  C   HIS C   6      53.986  24.876  27.380  1.00 59.18     0.219 C 
ATOM     66  O   HIS C   6      53.727  24.486  26.210  1.00 63.69    -0.287 OA
ENDBRANCH  58  65
ENDBRANCH  55  58
ENDBRANCH  53  54
BRANCH  53  67
ATOM     67  CB  ILE C   5      52.109  27.723  31.884  1.00 28.54     0.013 C 
ATOM     68  CG2 ILE C   5      50.844  27.017  31.401  1.00 32.34     0.012 C 
BRANCH  67  69
ATOM     69  CG1 ILE C   5      52.177  27.953  33.403  1.00 30.21     0.002 C 
ATOM     70  CD1 ILE C   5      51.287  29.037  33.957  1.00 32.85     0.005 C 
ENDBRANCH  67  69
ENDBRANCH  53  67
ENDBRANCH  51  53
ENDBRANCH  39  49
ENDBRANCH   3  39
TORSDOF 26
