REMARK  9 active torsions:
REMARK  status: ('A' for Active; 'I' for Inactive)
REMARK    1  A    between atoms: N_1  and  CA_2 
REMARK    2  A    between atoms: CA_2  and  C_3 
REMARK    3  A    between atoms: CA_2  and  CB_5 
REMARK       I    between atoms: C_3  and  N_12 
REMARK    4  A    between atoms: CB_5  and  CG_6 
REMARK    5  A    between atoms: N_12  and  CA_13 
REMARK    6  A    between atoms: CA_13  and  CB_16 
REMARK    7  A    between atoms: CA_13  and  C_14 
REMARK       I    between atoms: C_14  and  N_20 
REMARK    8  A    between atoms: N_20  and  CA_21 
REMARK    9  A    between atoms: CA_21  and  C_22 
ROOT
ATOM      1  C   ASP B   1      11.504  -6.006  19.011  1.00 14.06     0.249 C 
ATOM      2  O   ASP B   1      12.323  -5.482  19.777  1.00 13.02    -0.271 OA
ATOM      3  N   VAL B   2      10.698  -6.996  19.386  1.00 15.42    -0.346 N 
ATOM      4  H   VAL B   2      10.130  -7.383  18.869  1.00 15.42     0.163 HD
ENDROOT
BRANCH   3   5
ATOM      5  CA  VAL B   2      10.730  -7.506  20.752  1.00 13.63     0.180 C 
BRANCH   5   6
ATOM      6  CB  VAL B   2       9.459  -8.317  21.092  1.00 22.00     0.009 C 
ATOM      7  CG2 VAL B   2       9.214  -9.376  20.045  1.00 31.03     0.012 C 
ATOM      8  CG1 VAL B   2       8.253  -7.398  21.210  1.00 26.65     0.012 C 
ENDBRANCH   5   6
BRANCH   5   9
ATOM      9  C   VAL B   2      11.985  -8.345  21.025  1.00 16.31     0.241 C 
ATOM     10  O   VAL B   2      12.456  -9.086  20.163  1.00 16.18    -0.271 OA
ATOM     11  N   ALA B   3      12.527  -8.210  22.231  1.00 17.95    -0.345 N 
ATOM     12  H   ALA B   3      12.235  -7.664  22.828  1.00 17.95     0.163 HD
BRANCH  11  13
ATOM     13  CA  ALA B   3      13.688  -8.995  22.652  1.00 23.42     0.181 C 
ATOM     14  CB  ALA B   3      14.865  -8.079  22.952  1.00 32.12     0.043 C 
BRANCH  13  15
ATOM     15  C   ALA B   3      13.347  -9.835  23.881  1.00 26.28     0.196 C 
ATOM     16  O   ALA B   3      13.911 -10.903  24.126  1.00 32.58    -0.646 OA
ATOM     17  OXT ALA B   3      12.489  -9.451  24.669  1.00 24.09    -0.646 OA
ENDBRANCH  13  15
ENDBRANCH  11  13
ENDBRANCH   5   9
ENDBRANCH   3   5
BRANCH   1  18
ATOM     18  CA  ASP B   1      11.366  -5.519  17.568  1.00 13.24     0.284 C 
BRANCH  18  19
ATOM     19  N   ASP B   1      11.684  -4.098  17.487  1.00 13.44    -0.066 N 
ATOM     20  H2  ASP B   1      10.959  -3.620  17.683  1.00 13.44     0.275 HD
ATOM     21  H3  ASP B   1      12.332  -3.905  18.066  1.00 13.44     0.275 HD
ATOM     22  H1  ASP B   1      11.956  -3.901  16.663  1.00 13.44     0.275 HD
ENDBRANCH  18  19
BRANCH  18  23
ATOM     23  CB  ASP B   1      12.247  -6.334  16.602  1.00 18.19     0.155 C 
BRANCH  23  24
ATOM     24  CG  ASP B   1      13.750  -6.184  16.879  1.00 31.60     0.175 C 
ATOM     25  OD2 ASP B   1      14.551  -6.189  15.907  1.00 40.27    -0.648 OA
ATOM     26  OD1 ASP B   1      14.142  -6.084  18.059  1.00 39.31    -0.648 OA
ENDBRANCH  23  24
ENDBRANCH  18  23
ENDBRANCH   1  18
TORSDOF 9
