USER: ADFR SOLUTION from run 0
USER: SCORE 14.149739 LL:  -2.981 LR: -14.212 RR:   0.000 FEB:  -7.053
USER: RMSD 0.510308
USER: STATUS Locally minimized using BFGS
USER: GENES 26
USER: genes 0 Translation |==|  0.54369 0.45248 0.46895
USER: genes 1 Rotation |==|  0.51387 0.50982 0.52454 0.99911
USER: genes 2 Torsion [CB]-CA--N-[C] |==|  0.34742
USER: genes 3 Torsion [N]-C--CA-[N] |==|  0.38015
USER: genes 4 Torsion [C]-CA--CB-[CG] |==|  0.19169
USER: genes 5 Torsion [CA]-CB--CG-[CD] |==|  0.44708
USER: genes 6 Torsion [CB]-CG--CD-[NE] |==|  0.24709
USER: genes 7 Torsion [CG]-CD--NE-[HE] |==|  0.26331
USER: genes 8 Torsion [C]-CA--N-[C] |==|  0.80467
USER: genes 9 Torsion [N]-C--CA-[N] |==|  0.43021
USER: genes 10 Torsion [C]-CA--N-[H1] |==|  0.61966
USER: genes 11 Torsion [N]-CA--CB-[CG2] |==|  0.80913
USER: genes 12 Torsion [CA]-CB--OG1-[HG1] |==|  0.49953
USER: genes 13 Torsion [N]-CA--C-[N] |==|  0.44319
USER: genes 14 Torsion [C]-N--CA-[CB] |==|  0.46639
USER: genes 15 Torsion [N]-CA--C-[N] |==|  0.90551
USER: genes 16 Torsion [C]-N--CA-[CB] |==|  0.85233
USER: genes 17 Torsion [N]-CA--CB-[CG] |==|  0.45871
USER: genes 18 Torsion [CA]-CB--CG-[CD] |==|  0.30691
USER: genes 19 Torsion [CB]-CG--CD-[OE1] |==|  0.82999
USER: genes 20 Torsion [N]-CA--C-[O] |==|  0.92068
USER: genes 21 Torsion [N]-CA--CB-[CG] |==|  0.53151
USER: genes 22 Torsion [CA]-CB--CG-[CD] |==|  0.50155
USER: genes 23 Torsion [CB]-CG--CD-[CE] |==|  0.73160
USER: genes 24 Torsion [CG]-CD--CE-[NZ] |==|  0.49260
USER: genes 25 Torsion [CD]-CE--NZ-[HZ2] |==|  0.78235
ROOT
ATOM      1  CA  THR D   3      16.009  15.662 147.787  1.00 39.79 LIG 0.20  C 
ENDROOT
BRANCH 1 2
ATOM      2  N   THR D   3      14.719  15.353 147.173  1.00 34.46 LIG-0.34  N 
ATOM      3  C   ARG D   2      14.393  14.113 146.810  1.00 39.53 LIG 0.24  C 
ATOM      4 O    ARG D   2      15.193  13.175 146.852  1.00 39.08 LIG-0.27  OA
ATOM      5 H    THR D   3      14.203  16.034 147.071  1.00 34.46 LIG 0.16  HD
BRANCH 3 6
ATOM      6  CA  ARG D   2      12.961  13.886 146.307  1.00 42.24 LIG 0.18  C 
BRANCH 6 7
ATOM      7  CB  ARG D   2      12.112  13.212 147.387  1.00 49.82 LIG 0.04  C 
BRANCH 7 8
ATOM      8  CG  ARG D   2      11.782  14.051 148.613  1.00 55.24 LIG 0.02  C 
BRANCH 8 9
ATOM      9  CD  ARG D   2      10.578  13.451 149.355  1.00 55.63 LIG 0.14  C 
BRANCH 9 10
ATOM     10  NE  ARG D   2      10.964  12.454 150.355  1.00 65.78 LIG-0.23  N 
ATOM     11 HE   ARG D   2      11.059  12.721 151.167  1.00 65.78 LIG 0.18  HD
ATOM     12  CZ  ARG D   2      11.180  11.166 150.100  1.00 70.57 LIG 0.67  C 
ATOM     13  NH1 ARG D   2      11.057  10.694 148.868  1.00 66.11 LIG-0.23  N 
ATOM     14  NH2 ARG D   2      11.527  10.342 151.082  1.00 74.94 LIG-0.23  N 
ATOM     15 1HH1 ARG D   2      10.837  11.222 148.226  1.00 66.11 LIG 0.17  HD
ATOM     16 2HH1 ARG D   2      11.198   9.861 148.710  1.00 66.11 LIG 0.17  HD
ATOM     17 2HH2 ARG D   2      11.666   9.510 150.916  1.00 74.94 LIG 0.17  HD
ATOM     18 1HH2 ARG D   2      11.612  10.641 151.884  1.00 74.94 LIG 0.17  HD
ENDBRANCH 9 10
ENDBRANCH 8 9
ENDBRANCH 7 8
ENDBRANCH 6 7
BRANCH 6 19
ATOM     19  N   ARG D   2      12.978  13.025 145.128  1.00 42.84 LIG-0.35  N 
ATOM     20  C   ALA D   1      13.445  13.434 143.960  1.00 44.74 LIG 0.25  C 
ATOM     21 O    ALA D   1      13.825  14.586 143.762  1.00 48.31 LIG-0.27  OA
ATOM     22 H    ARG D   2      12.660  12.238 145.263  1.00 42.84 LIG 0.16  HD
BRANCH 20 23
ATOM     23  CA  ALA D   1      13.476  12.386 142.846  1.00 45.19 LIG 0.27  C 
ATOM     24  CB  ALA D   1      14.719  11.532 142.962  1.00 43.32 LIG 0.05  C 
BRANCH 23 25
ATOM     25  N   ALA D   1      13.425  13.021 141.541  1.00 39.75 LIG-0.07  N 
ATOM     26 H1   ALA D   1      12.864  12.574 141.014  1.00 39.75 LIG 0.28  HD
ATOM     27 H2   ALA D   1      13.141  13.860 141.630  1.00 39.75 LIG 0.28  HD
ATOM     28 H3   ALA D   1      14.237  13.020 141.177  1.00 39.75 LIG 0.28  HD
ENDBRANCH 23 25
ENDBRANCH 20 23
ENDBRANCH 6 19
ENDBRANCH 3 6
ENDBRANCH 1 2
BRANCH 1 29
ATOM     29  CB  THR D   3      16.769  16.767 147.020  1.00 46.90 LIG 0.15  C 
ATOM     30  CG2 THR D   3      17.226  16.268 145.661  1.00 44.81 LIG 0.04  C 
BRANCH 29 31
ATOM     31 OG1  THR D   3      15.912  17.901 146.835  1.00 48.09 LIG-0.39  OA
ATOM     32 HG1  THR D   3      16.326  18.502 146.420  1.00 48.09 LIG 0.21  HD
ENDBRANCH 29 31
ENDBRANCH 1 29
BRANCH 1 33
ATOM     33  C   THR D   3      15.818  16.121 149.232  1.00 42.40 LIG 0.24  C 
ATOM     34 O    THR D   3      14.744  16.599 149.610  1.00 40.34 LIG-0.27  OA
ATOM     35  N   LYS D   4      16.840  16.047 150.042  1.00 38.45 LIG-0.35  N 
ATOM     36 H    LYS D   4      17.597  15.693 149.844  1.00 38.45 LIG 0.16  HD
BRANCH 35 37
ATOM     37  CA  LYS D   4      16.744  16.583 151.377  1.00 37.56 LIG 0.18  C 
BRANCH 37 38
ATOM     38  C   LYS D   4      16.612  18.098 151.340  1.00 44.28 LIG 0.24  C 
ATOM     39 O    LYS D   4      15.978  18.635 152.167  1.00 49.08 LIG-0.27  OA
ATOM     40  N   GLN D   5      17.257  18.722 150.369  1.00 53.59 LIG-0.35  N 
ATOM     41 H    GLN D   5      17.907  18.309 149.985  1.00 53.59 LIG 0.16  HD
BRANCH 40 42
ATOM     42  CA  GLN D   5      17.101  20.069 149.748  1.00 61.39 LIG 0.16  C 
BRANCH 42 43
ATOM     43  CB  GLN D   5      15.693  20.411 149.241  1.00 20.00 LIG 0.04  C 
BRANCH 43 44
ATOM     44  CG  GLN D   5      15.497  21.918 148.949  1.00 20.00 LIG 0.10  C 
BRANCH 44 45
ATOM     45  CD  GLN D   5      15.349  22.311 147.479  1.00 20.00 LIG 0.21  C 
ATOM     46  NE2 GLN D   5      14.217  22.921 147.150  1.00 20.00 LIG-0.37  N 
ATOM     47 21HE GLN D   5      13.611  23.054 147.746  1.00 20.00 LIG 0.16  HD
ATOM     48 22HE GLN D   5      14.089  23.182 146.342  1.00 20.00 LIG 0.16  HD
ATOM     49 OE1  GLN D   5      16.247  22.098 146.661  1.00 20.00 LIG-0.27  OA
ENDBRANCH 44 45
ENDBRANCH 43 44
ENDBRANCH 42 43
BRANCH 42 50
ATOM     50  C   GLN D   5      17.773  21.311 150.283  1.00 64.61 LIG 0.22  C 
ATOM     51 O    GLN D   5      18.035  21.419 151.445  1.00 68.60 LIG-0.29  OA
ENDBRANCH 42 50
ENDBRANCH 40 42
ENDBRANCH 37 38
BRANCH 37 52
ATOM     52  CB  LYS D   4      17.922  16.123 152.208  1.00 33.42 LIG 0.04  C 
BRANCH 52 53
ATOM     53  CG  LYS D   4      17.794  16.388 153.635  1.00 40.53 LIG 0.00  C 
BRANCH 53 54
ATOM     54  CD  LYS D   4      18.966  15.926 154.324  1.00 50.17 LIG 0.03  C 
BRANCH 54 55
ATOM     55  CE  LYS D   4      18.759  14.556 154.906  1.00 57.03 LIG 0.23  C 
BRANCH 55 56
ATOM     56  NZ  LYS D   4      20.014  14.139 155.529  1.00 52.11 LIG-0.08  N 
ATOM     57 HZ3  LYS D   4      20.370  14.827 155.968  1.00 52.11 LIG 0.27  HD
ATOM     58 HZ2  LYS D   4      20.580  13.863 154.901  1.00 52.11 LIG 0.27  HD
ATOM     59 HZ1  LYS D   4      19.856  13.474 156.099  1.00 52.11 LIG 0.27  HD
ENDBRANCH 55 56
ENDBRANCH 54 55
ENDBRANCH 53 54
ENDBRANCH 52 53
ENDBRANCH 37 52
ENDBRANCH 35 37
ENDBRANCH 1 33
TORSDOF 24
