USER: ADFR SOLUTION from run 0
USER: SCORE 18.317249 LL:  -1.432 LR: -18.790 RR:   0.000 FEB: -10.139
USER: RMSD 0.590698
USER: STATUS Locally minimized using BFGS
USER: GENES 31
USER: genes 0 Translation |==|  0.55791 0.56989 0.56401
USER: genes 1 Rotation |==|  0.49557 0.50366 0.50654 0.99992
USER: genes 2 Torsion [CB]-CA--N-[C] |==|  0.31936
USER: genes 3 Torsion [N]-C--CA-[N] |==|  0.35000
USER: genes 4 Torsion [C]-CA--CB-[CG] |==|  0.47516
USER: genes 5 Torsion [CA]-CB--CG-[CD] |==|  0.76638
USER: genes 6 Torsion [CB]-CG--CD-[CE] |==|  0.56048
USER: genes 7 Torsion [CG]-CD--CE-[NZ] |==|  0.49767
USER: genes 8 Torsion [CD]-CE--NZ-[HZ3] |==|  0.18480
USER: genes 9 Torsion [C]-CA--N-[C] |==|  0.79721
USER: genes 10 Torsion [N]-C--CA-[N] |==|  0.91183
USER: genes 11 Torsion [C]-CA--CB-[CG] |==|  0.48929
USER: genes 12 Torsion [CA]-CB--CG-[CD] |==|  0.55557
USER: genes 13 Torsion [CB]-CG--CD-[CE] |==|  0.81817
USER: genes 14 Torsion [CG]-CD--CE-[NZ] |==|  0.51335
USER: genes 15 Torsion [CD]-CE--NZ-[HZ3] |==|  0.37966
USER: genes 16 Torsion [N]-CA--CB-[CG] |==|  0.86275
USER: genes 17 Torsion [CA]-CB--CG-[CD] |==|  0.39919
USER: genes 18 Torsion [CB]-CG--CD-[NE] |==|  0.17479
USER: genes 19 Torsion [CG]-CD--NE-[HE] |==|  0.11331
USER: genes 20 Torsion [N]-CA--C-[N] |==|  0.29308
USER: genes 21 Torsion [C]-N--CA-[C] |==|  0.82184
USER: genes 22 Torsion [N]-CA--CB-[CG] |==|  0.83769
USER: genes 23 Torsion [CA]-CB--CG-[CD] |==|  0.73909
USER: genes 24 Torsion [CB]-CG--CD-[CE] |==|  0.49180
USER: genes 25 Torsion [CG]-CD--CE-[NZ] |==|  0.53502
USER: genes 26 Torsion [CD]-CE--NZ-[HZ1] |==|  0.47333
USER: genes 27 Torsion [N]-CA--C-[N] |==|  0.46111
USER: genes 28 Torsion [C]-N--CA-[C] |==|  0.29190
USER: genes 29 Torsion [N]-CA--C-[O] |==|  0.27444
USER: genes 30 Torsion [N]-CA--CB-[CG2] |==|  0.76471
ROOT
ATOM      1  CA  ARG C 130      23.732   4.826  15.438  1.00 44.25 LIG 0.18  C 
ENDROOT
BRANCH 1 2
ATOM      2  N   ARG C 130      22.427   4.203  15.305  1.00 44.77 LIG-0.35  N 
ATOM      3  C   LYS C 129      21.301   4.896  15.404  1.00 47.82 LIG 0.24  C 
ATOM      4 O    LYS C 129      21.273   6.121  15.536  1.00 51.43 LIG-0.27  OA
ATOM      5 H    ARG C 130      22.455   3.355  15.159  1.00 44.77 LIG 0.16  HD
BRANCH 3 6
ATOM      6  CA  LYS C 129      20.014   4.080  15.357  1.00 47.52 LIG 0.18  C 
BRANCH 6 7
ATOM      7  CB  LYS C 129      19.259   4.368  14.069  1.00 47.19 LIG 0.04  C 
BRANCH 7 8
ATOM      8  CG  LYS C 129      18.086   3.453  13.836  1.00 46.82 LIG 0.00  C 
BRANCH 8 9
ATOM      9  CD  LYS C 129      18.491   2.151  13.188  1.00 42.25 LIG 0.03  C 
BRANCH 9 10
ATOM     10  CE  LYS C 129      17.292   1.524  12.503  1.00 38.25 LIG 0.23  C 
BRANCH 10 11
ATOM     11  NZ  LYS C 129      17.589   0.231  11.808  1.00 36.45 LIG-0.08  N 
ATOM     12 HZ3  LYS C 129      17.800  -0.389  12.411  1.00 36.45 LIG 0.27  HD
ATOM     13 HZ2  LYS C 129      18.271   0.345  11.248  1.00 36.45 LIG 0.27  HD
ATOM     14 HZ1  LYS C 129      16.871  -0.032  11.351  1.00 36.45 LIG 0.27  HD
ENDBRANCH 10 11
ENDBRANCH 9 10
ENDBRANCH 8 9
ENDBRANCH 7 8
ENDBRANCH 6 7
BRANCH 6 15
ATOM     15  N   LYS C 129      19.200   4.389  16.528  1.00 50.72 LIG-0.35  N 
ATOM     16 H    LYS C 129      18.505   4.869  16.364  1.00 50.72 LIG 0.16  HD
ATOM     17  C   LYS C 128      19.535   3.946  17.741  1.00 53.52 LIG 0.26  C 
ATOM     18 O    LYS C 128      20.469   3.148  17.946  1.00 51.22 LIG-0.27  OA
BRANCH 17 19
ATOM     19  CA  LYS C 128      18.676   4.449  18.907  1.00 56.35 LIG 0.40  C 
ATOM     20  N   LYS C 128      18.159   5.799  18.683  1.00 59.98 LIG 0.61  N 
BRANCH 19 21
ATOM     21  CB  LYS C 128      17.532   3.475  19.131  1.00 54.38 LIG 0.05  C 
BRANCH 21 22
ATOM     22  CG  LYS C 128      16.684   3.834  20.315  1.00 63.27 LIG 0.00  C 
BRANCH 22 23
ATOM     23  CD  LYS C 128      15.885   2.659  20.816  1.00 66.98 LIG 0.03  C 
BRANCH 23 24
ATOM     24  CE  LYS C 128      14.844   2.187  19.806  1.00 66.03 LIG 0.23  C 
BRANCH 24 25
ATOM     25  NZ  LYS C 128      14.004   1.100  20.393  1.00 67.41 LIG-0.08  N 
ATOM     26 HZ3  LYS C 128      13.150   1.242  20.187  1.00 67.41 LIG 0.27  HD
ATOM     27 HZ2  LYS C 128      14.099   1.097  21.278  1.00 67.41 LIG 0.27  HD
ATOM     28 HZ1  LYS C 128      14.262   0.314  20.065  1.00 67.41 LIG 0.27  HD
ENDBRANCH 24 25
ENDBRANCH 23 24
ENDBRANCH 22 23
ENDBRANCH 21 22
ENDBRANCH 19 21
ENDBRANCH 17 19
ENDBRANCH 6 15
ENDBRANCH 3 6
ENDBRANCH 1 2
BRANCH 1 29
ATOM     29  CB  ARG C 130      24.427   4.281  16.681  1.00 44.07 LIG 0.04  C 
BRANCH 29 30
ATOM     30  CG  ARG C 130      23.569   4.306  17.932  1.00 48.13 LIG 0.02  C 
BRANCH 30 31
ATOM     31  CD  ARG C 130      23.853   3.081  18.787  1.00 53.98 LIG 0.14  C 
BRANCH 31 32
ATOM     32  NE  ARG C 130      25.230   3.080  19.243  1.00 57.03 LIG-0.23  N 
ATOM     33  CZ  ARG C 130      26.015   2.012  19.301  1.00 53.36 LIG 0.67  C 
ATOM     34  NH1 ARG C 130      25.574   0.813  18.943  1.00 46.68 LIG-0.23  N 
ATOM     35  NH2 ARG C 130      27.260   2.151  19.732  1.00 54.86 LIG-0.23  N 
ATOM     36 1HH1 ARG C 130      24.765   0.717  18.668  1.00 46.68 LIG 0.17  HD
ATOM     37 2HH1 ARG C 130      26.098   0.132  18.987  1.00 46.68 LIG 0.17  HD
ATOM     38 1HH2 ARG C 130      27.549   2.925  19.970  1.00 54.86 LIG 0.17  HD
ATOM     39 2HH2 ARG C 130      27.779   1.467  19.774  1.00 54.86 LIG 0.17  HD
ATOM     40 HE   ARG C 130      25.563   3.831  19.497  1.00 57.03 LIG 0.18  HD
ENDBRANCH 31 32
ENDBRANCH 30 31
ENDBRANCH 29 30
ENDBRANCH 1 29
BRANCH 1 41
ATOM     41  C   ARG C 130      24.583   4.511  14.232  1.00 43.16 LIG 0.24  C 
ATOM     42  N   LYS C 131      24.758   5.506  13.358  1.00 46.51 LIG-0.35  N 
ATOM     43 H    LYS C 131      24.390   6.278  13.448  1.00 46.51 LIG 0.16  HD
ATOM     44 O    ARG C 130      25.083   3.395  14.120  1.00 41.50 LIG-0.27  OA
BRANCH 42 45
ATOM     45  CA  LYS C 131      25.589   5.392  12.158  1.00 53.22 LIG 0.18  C 
BRANCH 45 46
ATOM     46  CB  LYS C 131      25.506   6.676  11.318  1.00 55.01 LIG 0.04  C 
BRANCH 46 47
ATOM     47  CG  LYS C 131      24.113   7.058  10.858  1.00 52.38 LIG 0.00  C 
BRANCH 47 48
ATOM     48  CD  LYS C 131      23.817   6.522   9.474  1.00 48.84 LIG 0.03  C 
BRANCH 48 49
ATOM     49  CE  LYS C 131      22.408   6.844   9.053  1.00 46.73 LIG 0.23  C 
BRANCH 49 50
ATOM     50  NZ  LYS C 131      22.074   6.052   7.851  1.00 43.41 LIG-0.08  N 
ATOM     51 HZ1  LYS C 131      21.205   6.129   7.678  1.00 43.41 LIG 0.27  HD
ATOM     52 HZ3  LYS C 131      22.273   5.196   7.995  1.00 43.41 LIG 0.27  HD
ATOM     53 HZ2  LYS C 131      22.544   6.352   7.157  1.00 43.41 LIG 0.27  HD
ENDBRANCH 49 50
ENDBRANCH 48 49
ENDBRANCH 47 48
ENDBRANCH 46 47
ENDBRANCH 45 46
BRANCH 45 54
ATOM     54  C   LYS C 131      27.046   5.170  12.524  1.00 59.91 LIG 0.24  C 
ATOM     55  N   VAL C 132      27.824   4.768  11.520  1.00 72.80 LIG-0.35  N 
ATOM     56 H    VAL C 132      27.501   4.508  10.766  1.00 72.80 LIG 0.16  HD
ATOM     57 O    LYS C 131      27.433   5.350  13.673  1.00 55.62 LIG-0.27  OA
BRANCH 55 58
ATOM     58  CA  VAL C 132      29.289   4.715  11.561  1.00 46.38 LIG 0.17  C 
BRANCH 58 59
ATOM     59  C   VAL C 132      29.808   3.283  11.699  1.00 55.18 LIG 0.22  C 
ATOM     60 O    VAL C 132      30.198   2.667  10.697  1.00 55.70 LIG-0.29  OA
ENDBRANCH 58 59
BRANCH 58 61
ATOM     61  CB  VAL C 132      29.901   5.678  12.617  1.00 53.16 LIG 0.01  C 
ATOM     62  CG2 VAL C 132      30.038   7.054  12.008  1.00 49.68 LIG 0.01  C 
ATOM     63  CG1 VAL C 132      31.230   5.174  13.159  1.00 55.70 LIG 0.01  C 
ENDBRANCH 58 61
ENDBRANCH 55 58
ENDBRANCH 45 54
ENDBRANCH 42 45
ENDBRANCH 1 41
TORSDOF 29
