REMARK  26 active torsions:
REMARK  status: ('A' for Active; 'I' for Inactive)
REMARK    1  A    between atoms: CA_2  and  C_3 
REMARK    2  A    between atoms: CA_2  and  CB_5 
REMARK       I    between atoms: C_3  and  N_9 
REMARK    3  A    between atoms: CB_5  and  CG1_6 
REMARK    4  A    between atoms: N_9  and  CA_10 
REMARK    5  A    between atoms: CA_10  and  C_11 
REMARK    6  A    between atoms: CA_10  and  CB_13 
REMARK       I    between atoms: C_11  and  N_26 
REMARK    7  A    between atoms: CB_13  and  CG_14 
REMARK    8  A    between atoms: CG_14  and  CD_15 
REMARK    9  A    between atoms: CD_15  and  NE_16 
REMARK       I    between atoms: NE_16  and  CZ_17 
REMARK       I    between atoms: CZ_17  and  NH1_18 
REMARK   10  A    between atoms: N_26  and  CA_27 
REMARK   11  A    between atoms: CA_27  and  CB_30 
REMARK   12  A    between atoms: CA_27  and  C_28 
REMARK       I    between atoms: C_28  and  N_35 
REMARK   13  A    between atoms: CB_30  and  CG1_31 
REMARK   14  A    between atoms: CA_36  and  C_37 
REMARK       I    between atoms: C_37  and  N_42 
REMARK   15  A    between atoms: N_42  and  CA_43 
REMARK   16  A    between atoms: CA_43  and  C_44 
REMARK   17  A    between atoms: CA_43  and  CB_46 
REMARK       I    between atoms: C_44  and  N_51 
REMARK   18  A    between atoms: CB_46  and  CG1_47 
REMARK   19  A    between atoms: N_51  and  CA_52 
REMARK   20  A    between atoms: CA_52  and  CB_55 
REMARK   21  A    between atoms: CA_52  and  C_53 
REMARK       I    between atoms: C_53  and  N_63 
REMARK   22  A    between atoms: CB_55  and  CG_56 
REMARK   23  A    between atoms: N_63  and  CA_64 
REMARK   24  A    between atoms: CA_64  and  CB_67 
REMARK   25  A    between atoms: CA_64  and  C_65 
REMARK   26  A    between atoms: CB_67  and  CG_68 
REMARK       I    between atoms: CG_68  and  ND2_70 
ROOT
ATOM      1  C   ILE E1023     -48.778  24.436  -2.226  1.00 40.02     0.243 C 
ATOM      2  O   ILE E1023     -48.735  25.651  -2.470  1.00 38.38    -0.271 OA
ATOM      3  N   PRO E1024     -49.680  23.884  -1.376  1.00 37.38    -0.337 N 
ATOM      4  CA  PRO E1024     -50.565  24.760  -0.595  1.00 36.67     0.179 C 
ATOM      5  CB  PRO E1024     -51.637  23.808  -0.071  1.00 38.74     0.037 C 
ATOM      6  CG  PRO E1024     -50.964  22.491   0.021  1.00 43.33     0.022 C 
ATOM      7  CD  PRO E1024     -49.851  22.465  -0.987  1.00 39.42     0.127 C 
ENDROOT
BRANCH   4   8
ATOM      8  C   PRO E1024     -49.762  25.392   0.535  1.00 39.60     0.241 C 
ATOM      9  O   PRO E1024     -48.854  24.747   1.057  1.00 37.18    -0.271 OA
ATOM     10  N   ILE E1025     -50.080  26.658   0.875  1.00 37.20    -0.346 N 
ATOM     11  H   ILE E1025     -50.716  27.082   0.481  1.00 37.20     0.163 HD
BRANCH  10  12
ATOM     12  CA  ILE E1025     -49.432  27.474   1.911  1.00 37.42     0.180 C 
BRANCH  12  13
ATOM     13  C   ILE E1025     -50.180  27.359   3.237  1.00 40.88     0.241 C 
ATOM     14  O   ILE E1025     -51.410  27.289   3.223  1.00 40.29    -0.271 OA
ATOM     15  N   PHE E1026     -49.483  27.560   4.373  1.00 36.23    -0.346 N 
ATOM     16  H   PHE E1026     -48.625  27.599   4.414  1.00 36.23     0.163 HD
BRANCH  15  17
ATOM     17  CA  PHE E1026     -50.168  27.731   5.661  1.00 36.58     0.180 C 
BRANCH  17  18
ATOM     18  CB  PHE E1026     -50.745  26.414   6.171  1.00 38.58     0.073 C 
BRANCH  18  19
ATOM     19  CG  PHE E1026     -49.689  25.498   6.716  1.00 40.24    -0.056 A 
ATOM     20  CD1 PHE E1026     -48.924  24.724   5.870  1.00 42.20     0.007 A 
ATOM     21  CE1 PHE E1026     -47.958  23.871   6.375  1.00 42.54     0.001 A 
ATOM     22  CZ  PHE E1026     -47.751  23.788   7.727  1.00 41.81     0.000 A 
ATOM     23  CE2 PHE E1026     -48.504  24.542   8.587  1.00 44.36     0.001 A 
ATOM     24  CD2 PHE E1026     -49.476  25.393   8.085  1.00 42.30     0.007 A 
ENDBRANCH  18  19
ENDBRANCH  17  18
BRANCH  17  25
ATOM     25  C   PHE E1026     -49.231  28.324   6.697  1.00 38.60     0.241 C 
ATOM     26  N   ASN E1027     -49.802  28.706   7.867  1.00 38.80    -0.347 N 
ATOM     27  H   ASN E1027     -50.648  28.641   8.009  1.00 38.80     0.163 HD
ATOM     28  O   PHE E1026     -48.024  28.376   6.471  1.00 31.59    -0.271 OA
BRANCH  26  29
ATOM     29  CA  ASN E1027     -49.070  29.264   9.010  1.00 74.37     0.171 C 
BRANCH  29  30
ATOM     30  CB  ASN E1027     -49.570  30.670   9.325  1.00 75.17     0.136 C 
BRANCH  30  31
ATOM     31  CG  ASN E1027     -49.334  31.650   8.203  1.00 99.64     0.217 C 
ATOM     32  ND2 ASN E1027     -50.384  32.014   7.472  1.00 92.55    -0.370 N 
ATOM     33 2HD2 ASN E1027     -51.163  31.697   7.651  1.00 92.55     0.159 HD
ATOM     34 1HD2 ASN E1027     -50.284  32.566   6.820  1.00 92.55     0.159 HD
ATOM     35  OD1 ASN E1027     -48.205  32.087   7.971  1.00 94.01    -0.274 OA
ENDBRANCH  30  31
ENDBRANCH  29  30
BRANCH  29  36
ATOM     36  C   ASN E1027     -49.252  28.374  10.238  1.00103.37     0.220 C 
ATOM     37  O   ASN E1027     -48.498  27.425  10.434  1.00 69.20    -0.287 OA
ENDBRANCH  29  36
ENDBRANCH  26  29
ENDBRANCH  17  25
ENDBRANCH  15  17
ENDBRANCH  12  13
BRANCH  12  38
ATOM     38  CB  ILE E1025     -49.551  29.004   1.490  1.00 40.50     0.013 C 
ATOM     39  CG2 ILE E1025     -49.406  29.940   2.698  1.00 43.95     0.012 C 
BRANCH  38  40
ATOM     40  CG1 ILE E1025     -48.582  29.400   0.376  1.00 41.58     0.002 C 
ATOM     41  CD1 ILE E1025     -48.580  30.999   0.084  1.00 52.05     0.005 C 
ENDBRANCH  38  40
ENDBRANCH  12  38
ENDBRANCH  10  12
ENDBRANCH   4   8
BRANCH   1  42
ATOM     42  CA  ILE E1023     -47.844  23.513  -2.989  1.00 36.06     0.180 C 
BRANCH  42  43
ATOM     43  N   ILE E1023     -48.176  23.662  -4.419  1.00 37.96    -0.346 N 
ATOM     44  C   ARG E1022     -49.382  23.334  -4.930  1.00 45.42     0.241 C 
ATOM     45  O   ARG E1022     -50.276  22.813  -4.263  1.00 45.23    -0.271 OA
ATOM     46  H   ILE E1023     -47.532  23.976  -4.894  1.00 37.96     0.163 HD
BRANCH  44  47
ATOM     47  CA  ARG E1022     -49.623  23.553  -6.424  1.00 45.59     0.176 C 
BRANCH  47  48
ATOM     48  N   ARG E1022     -48.579  24.369  -7.066  1.00 48.30    -0.346 N 
ATOM     49  H   ARG E1022     -47.923  23.917  -7.389  1.00 48.30     0.163 HD
ATOM     50  C   ILE E1021     -48.670  25.716  -7.129  1.00 57.51     0.257 C 
ATOM     51  O   ILE E1021     -49.627  26.345  -6.660  1.00 59.03    -0.271 OA
BRANCH  50  52
ATOM     52  CA  ILE E1021     -47.537  26.487  -7.827  1.00 57.59     0.403 C 
ATOM     53  N   ILE E1021     -48.126  27.527  -8.665  1.00 58.96     0.615 N 
BRANCH  52  54
ATOM     54  CB  ILE E1021     -46.583  27.193  -6.823  1.00 60.58     0.029 C 
ATOM     55  CG2 ILE E1021     -46.092  26.262  -5.718  1.00 61.37     0.012 C 
BRANCH  54  56
ATOM     56  CG1 ILE E1021     -45.389  27.839  -7.568  1.00 60.59     0.002 C 
ATOM     57  CD1 ILE E1021     -45.075  29.202  -7.075  1.00 60.15     0.005 C 
ENDBRANCH  54  56
ENDBRANCH  52  54
ENDBRANCH  50  52
ENDBRANCH  47  48
BRANCH  47  58
ATOM     58  CB  ARG E1022     -49.777  22.185  -7.100  1.00 44.33     0.036 C 
BRANCH  58  59
ATOM     59  CG  ARG E1022     -50.292  22.278  -8.531  1.00 47.73     0.023 C 
BRANCH  59  60
ATOM     60  CD  ARG E1022     -50.578  20.925  -9.149  1.00 47.87     0.138 C 
BRANCH  60  61
ATOM     61  NE  ARG E1022     -49.397  20.066  -9.081  1.00 55.98    -0.227 N 
ATOM     62  CZ  ARG E1022     -49.294  18.922  -8.410  1.00 56.00     0.665 C 
ATOM     63  NH1 ARG E1022     -50.331  18.439  -7.734  1.00 48.69    -0.235 N 
ATOM     64  NH2 ARG E1022     -48.163  18.233  -8.436  1.00 32.20    -0.235 N 
ATOM     65 HH11 ARG E1022     -51.077  18.867  -7.728  1.00 48.69     0.174 HD
ATOM     66 HH12 ARG E1022     -50.256  17.699  -7.303  1.00 48.69     0.174 HD
ATOM     67 HH22 ARG E1022     -48.100  17.494  -8.001  1.00 32.20     0.174 HD
ATOM     68 HH21 ARG E1022     -47.492  18.525  -8.888  1.00 32.20     0.174 HD
ATOM     69  HE  ARG E1022     -48.702  20.325  -9.517  1.00 55.98     0.177 HD
ENDBRANCH  60  61
ENDBRANCH  59  60
ENDBRANCH  58  59
ENDBRANCH  47  58
ENDBRANCH  44  47
ENDBRANCH  42  43
BRANCH  42  70
ATOM     70  CB  ILE E1023     -46.361  23.888  -2.661  1.00 38.78     0.013 C 
ATOM     71  CG2 ILE E1023     -46.083  23.736  -1.158  1.00 39.01     0.012 C 
BRANCH  70  72
ATOM     72  CG1 ILE E1023     -45.321  23.099  -3.512  1.00 39.61     0.002 C 
ATOM     73  CD1 ILE E1023     -45.542  21.616  -3.678  1.00 43.21     0.005 C 
ENDBRANCH  70  72
ENDBRANCH  42  70
ENDBRANCH   1  42
TORSDOF 26
