REMARK  11 active torsions:
REMARK  status: ('A' for Active; 'I' for Inactive)
REMARK    1  A    between atoms: CA_2  and  C_3 
REMARK       I    between atoms: C_3  and  N_6 
REMARK    2  A    between atoms: N_6  and  CA_7 
REMARK    3  A    between atoms: CA_7  and  C_8 
REMARK       I    between atoms: C_8  and  N_12 
REMARK    4  A    between atoms: N_12  and  CA_13 
REMARK    5  A    between atoms: CA_13  and  C_14 
REMARK       I    between atoms: C_14  and  N_18 
REMARK    6  A    between atoms: N_18  and  CA_19 
REMARK    7  A    between atoms: CA_19  and  C_20 
REMARK       I    between atoms: C_20  and  N_24 
REMARK    8  A    between atoms: N_24  and  CA_25 
REMARK    9  A    between atoms: CA_25  and  C_26 
REMARK       I    between atoms: C_26  and  N_30 
REMARK   10  A    between atoms: N_30  and  CA_31 
REMARK   11  A    between atoms: CA_31  and  C_32 
ROOT
ATOM      1  C   ALA Q  12      72.174  63.374  26.872  1.00 25.44     0.240 C 
ATOM      2  O   ALA Q  12      72.962  64.132  27.420  1.00 27.01    -0.271 OA
ATOM      3  N   ALA Q  13      71.100  62.866  27.465  1.00 26.02    -0.346 N 
ATOM      4  H   ALA Q  13      70.485  62.418  27.064  1.00 26.02     0.163 HD
ENDROOT
BRANCH   3   5
ATOM      5  CA  ALA Q  13      70.896  63.052  28.913  1.00 27.66     0.172 C 
ATOM      6  CB  ALA Q  13      69.818  64.111  29.140  1.00 60.60     0.042 C 
BRANCH   5   7
ATOM      7  C   ALA Q  13      70.530  61.777  29.653  1.00 27.27     0.240 C 
ATOM      8  O   ALA Q  13      69.875  60.894  29.107  1.00 28.73    -0.271 OA
ATOM      9  N   ALA Q  14      70.923  61.729  30.943  1.00 28.35    -0.346 N 
ATOM     10  H   ALA Q  14      71.443  62.315  31.298  1.00 28.35     0.163 HD
BRANCH   9  11
ATOM     11  CA  ALA Q  14      70.508  60.683  31.864  1.00 39.95     0.172 C 
ATOM     12  CB  ALA Q  14      71.694  59.736  32.156  1.00 41.42     0.042 C 
BRANCH  11  13
ATOM     13  C   ALA Q  14      70.048  61.372  33.163  1.00 39.71     0.240 C 
ATOM     14  N   ALA Q  15      68.932  60.947  33.738  1.00 43.67    -0.348 N 
ATOM     15  H   ALA Q  15      68.609  61.293  34.456  1.00 43.67     0.163 HD
ATOM     16  O   ALA Q  14      70.682  62.301  33.623  1.00 40.63    -0.271 OA
BRANCH  14  17
ATOM     17  CA  ALA Q  15      68.147  59.857  33.213  1.00 45.40     0.158 C 
ATOM     18  CB  ALA Q  15      67.802  58.906  34.316  1.00 35.52     0.041 C 
BRANCH  17  19
ATOM     19  C   ALA Q  15      66.883  60.387  32.526  1.00 34.39     0.219 C 
ATOM     20  O   ALA Q  15      66.580  61.584  32.587  1.00 56.10    -0.287 OA
ENDBRANCH  17  19
ENDBRANCH  14  17
ENDBRANCH  11  13
ENDBRANCH   9  11
ENDBRANCH   5   7
ENDBRANCH   3   5
BRANCH   1  21
ATOM     21  CA  ALA Q  12      72.350  63.026  25.409  1.00 23.65     0.172 C 
ATOM     22  CB  ALA Q  12      73.300  61.869  25.231  1.00 43.19     0.042 C 
BRANCH  21  23
ATOM     23  N   ALA Q  12      72.895  64.212  24.794  1.00 32.95    -0.346 N 
ATOM     24  C   ALA Q  11      72.634  64.467  23.521  1.00 38.70     0.240 C 
ATOM     25  O   ALA Q  11      71.976  63.708  22.821  1.00 30.98    -0.271 OA
ATOM     26  H   ALA Q  12      73.377  64.706  25.308  1.00 32.95     0.163 HD
BRANCH  24  27
ATOM     27  CA  ALA Q  11      73.225  65.750  22.956  1.00 33.56     0.172 C 
ATOM     28  CB  ALA Q  11      74.595  65.451  22.386  1.00 29.51     0.042 C 
BRANCH  27  29
ATOM     29  N   ALA Q  11      73.296  66.814  23.970  1.00 33.00    -0.346 N 
ATOM     30  C   ALA Q  10      72.279  67.654  24.178  1.00 40.76     0.257 C 
ATOM     31  O   ALA Q  10      71.248  67.646  23.508  1.00 37.65    -0.271 OA
ATOM     32  H   ALA Q  11      74.038  66.841  24.405  1.00 33.00     0.163 HD
BRANCH  30  33
ATOM     33  CA  ALA Q  10      72.435  68.665  25.304  1.00 39.75     0.396 C 
ATOM     34  CB  ALA Q  10      71.683  69.940  24.960  1.00 33.57     0.059 C 
ATOM     35  N   ALA Q  10      73.836  68.952  25.572  1.00 55.55     0.614 N 
ENDBRANCH  30  33
ENDBRANCH  27  29
ENDBRANCH  24  27
ENDBRANCH  21  23
ENDBRANCH   1  21
TORSDOF 11
