USER: ADFR SOLUTION from run 0
USER: SCORE 9.760923 LL:  -2.086 LR: -11.470 RR:   0.000 FEB:  -8.189
USER: RMSD 0.490159
USER: STATUS Locally minimized using BFGS
USER: GENES 13
USER: genes 0 Translation |==|  0.59940 0.43503 0.41938
USER: genes 1 Rotation |==|  0.48452 0.49522 0.51838 0.99940
USER: genes 2 Torsion [C]-N--CA-[CB] |==|  0.29675
USER: genes 3 Torsion [N]-CA--C-[N] |==|  0.39946
USER: genes 4 Torsion [C]-N--CA-[CB] |==|  0.28124
USER: genes 5 Torsion [N]-CA--C-[N] |==|  0.35883
USER: genes 6 Torsion [C]-N--CA-[CB] |==|  0.37394
USER: genes 7 Torsion [N]-CA--C-[O] |==|  0.98069
USER: genes 8 Torsion [N]-C--CA-[N] |==|  0.40706
USER: genes 9 Torsion [C]-CA--N-[C] |==|  0.58657
USER: genes 10 Torsion [N]-C--CA-[N] |==|  0.91697
USER: genes 11 Torsion [C]-CA--N-[C] |==|  0.74444
USER: genes 12 Torsion [N]-C--CA-[N] |==|  0.07833
ROOT
ATOM      1  C   ALA Q  12      72.228  63.156  26.788  1.00 25.44 LIG 0.24  C 
ATOM      2 O    ALA Q  12      72.947  64.002  27.301  1.00 27.01 LIG-0.27  OA
ATOM      3  N   ALA Q  13      71.182  62.607  27.394  1.00 26.02 LIG-0.35  N 
ATOM      4 H    ALA Q  13      70.609  62.091  27.011  1.00 26.02 LIG 0.16  HD
ENDROOT
BRANCH 3 5
ATOM      5  CA  ALA Q  13      70.934  62.866  28.824  1.00 27.66 LIG 0.17  C 
ATOM      6  CB  ALA Q  13      69.741  63.810  28.968  1.00 60.60 LIG 0.04  C 
BRANCH 5 7
ATOM      7  C   ALA Q  13      70.699  61.610  29.646  1.00 27.27 LIG 0.24  C 
ATOM      8 O    ALA Q  13      70.045  60.673  29.197  1.00 28.73 LIG-0.27  OA
ATOM      9  N   ALA Q  14      71.204  61.640  30.897  1.00 28.35 LIG-0.35  N 
ATOM     10 H    ALA Q  14      71.722  62.266  31.179  1.00 28.35 LIG 0.16  HD
BRANCH 9 11
ATOM     11  CA  ALA Q  14      70.925  60.619  31.894  1.00 39.95 LIG 0.17  C 
ATOM     12  CB  ALA Q  14      72.120  59.646  32.002  1.00 41.42 LIG 0.04  C 
BRANCH 11 13
ATOM     13  C   ALA Q  14      70.704  61.339  33.238  1.00 39.71 LIG 0.24  C 
ATOM     14  N   ALA Q  15      69.615  61.049  33.935  1.00 43.67 LIG-0.35  N 
ATOM     15 H    ALA Q  15      69.421  61.421  34.685  1.00 43.67 LIG 0.16  HD
ATOM     16 O    ALA Q  14      71.499  62.173  33.625  1.00 40.63 LIG-0.27  OA
BRANCH 14 17
ATOM     17  CA  ALA Q  15      68.644  60.076  33.499  1.00 45.40 LIG 0.16  C 
ATOM     18  CB  ALA Q  15      68.268  59.190  34.646  1.00 35.52 LIG 0.04  C 
BRANCH 17 19
ATOM     19  C   ALA Q  15      67.410  60.773  32.913  1.00 34.39 LIG 0.22  C 
ATOM     20 O    ALA Q  15      67.284  62.001  32.975  1.00 56.10 LIG-0.29  OA
ENDBRANCH 17 19
ENDBRANCH 14 17
ENDBRANCH 11 13
ENDBRANCH 9 11
ENDBRANCH 5 7
ENDBRANCH 3 5
BRANCH 1 21
ATOM     21  CA  ALA Q  12      72.460  62.733  25.353  1.00 23.65 LIG 0.17  C 
ATOM     22  CB  ALA Q  12      73.434  61.586  25.270  1.00 43.19 LIG 0.04  C 
BRANCH 21 23
ATOM     23  N   ALA Q  12      73.007  63.894  24.693  1.00 32.95 LIG-0.35  N 
ATOM     24  C   ALA Q  11      72.757  64.094  23.408  1.00 38.70 LIG 0.24  C 
ATOM     25 O    ALA Q  11      72.109  63.303  22.735  1.00 30.98 LIG-0.27  OA
ATOM     26 H    ALA Q  12      73.482  64.411  25.190  1.00 32.95 LIG 0.16  HD
BRANCH 24 27
ATOM     27  CA  ALA Q  11      73.349  65.354  22.795  1.00 33.56 LIG 0.17  C 
ATOM     28  CB  ALA Q  11      74.692  65.018  22.183  1.00 29.51 LIG 0.04  C 
BRANCH 27 29
ATOM     29  N   ALA Q  11      73.475  66.437  23.782  1.00 33.00 LIG-0.35  N 
ATOM     30  C   ALA Q  10      72.507  67.339  23.961  1.00 40.76 LIG 0.26  C 
ATOM     31 O    ALA Q  10      71.481  67.373  23.284  1.00 37.65 LIG-0.27  OA
ATOM     32 H    ALA Q  11      74.215  66.433  24.222  1.00 33.00 LIG 0.16  HD
BRANCH 30 33
ATOM     33  CA  ALA Q  10      72.714  68.368  25.063  1.00 39.75 LIG 0.40  C 
ATOM     34  CB  ALA Q  10      71.984  69.654  24.710  1.00 33.57 LIG 0.06  C 
ATOM     35  N   ALA Q  10      74.127  68.626  25.292  1.00 55.55 LIG 0.61  N 
ENDBRANCH 30 33
ENDBRANCH 27 29
ENDBRANCH 24 27
ENDBRANCH 21 23
ENDBRANCH 1 21
TORSDOF 11
