USER: ADFR SOLUTION from run 0
USER: SCORE 10.932681 LL:  -3.698 LR:  -8.376 RR:   0.000 FEB:  -5.095
USER: RMSD 2.448961
USER: STATUS Locally minimized using BFGS
USER: GENES 13
USER: genes 0 Translation |==|  0.45251 0.41034 0.36892
USER: genes 1 Rotation |==|  0.56614 0.47193 0.55220 0.99205
USER: genes 2 Torsion [C]-N--CA-[CB] |==|  0.46253
USER: genes 3 Torsion [N]-CA--C-[N] |==|  0.40362
USER: genes 4 Torsion [N]-CA--C-[N] |==|  0.97157
USER: genes 5 Torsion [C]-N--CA-[CB] |==|  0.19243
USER: genes 6 Torsion [N]-CA--C-[OXT] |==|  0.48059
USER: genes 7 Torsion [N]-CA--CB-[CG] |==|  0.93912
USER: genes 8 Torsion [CA]-CB--CG-[CD2] |==|  0.77427
USER: genes 9 Torsion [O]-C--CA-[CB] |==|  0.12143
USER: genes 10 Torsion [N]-C--CA-[N] |==|  0.52703
USER: genes 11 Torsion [C]-CA--N-[C] |==|  0.19444
USER: genes 12 Torsion [N]-C--CA-[CB] |==|  0.24518
ROOT
ATOM      1  C   PRO B  88      16.514   2.502  16.538  1.00 31.41 LIG 0.24  C 
ATOM      2 O    PRO B  88      16.678   3.706  16.307  1.00 30.85 LIG-0.27  OA
ATOM      3  N   LEU B  89      17.124   1.849  17.523  1.00 29.89 LIG-0.35  N 
ATOM      4 H    LEU B  89      17.023   1.009  17.677  1.00 29.89 LIG 0.16  HD
ENDROOT
BRANCH 3 5
ATOM      5  CA  LEU B  89      18.032   2.525  18.439  1.00 30.22 LIG 0.18  C 
BRANCH 5 6
ATOM      6  C   LEU B  89      19.340   2.866  17.724  1.00 29.45 LIG 0.24  C 
ATOM      7 O    LEU B  89      19.794   2.106  16.873  1.00 27.07 LIG-0.27  OA
ATOM      8  N   PRO B  90      19.951   4.008  18.076  1.00 31.27 LIG-0.34  N 
ATOM      9  CD  PRO B  90      19.447   5.026  19.022  1.00 32.01 LIG 0.13  C 
ATOM     10  CA  PRO B  90      21.213   4.433  17.440  1.00 32.16 LIG 0.18  C 
ATOM     11  CG  PRO B  90      20.577   6.016  19.103  1.00 32.17 LIG 0.02  C 
ATOM     12  CB  PRO B  90      21.289   5.916  17.793  1.00 32.36 LIG 0.04  C 
BRANCH 10 13
ATOM     13  C   PRO B  90      22.462   3.695  17.942  1.00 32.74 LIG 0.24  C 
ATOM     14  N   ALA B  91      22.331   2.917  19.021  1.00 33.34 LIG-0.34  N 
ATOM     15 H    ALA B  91      21.600   2.844  19.467  1.00 33.34 LIG 0.16  HD
ATOM     16 O    PRO B  90      23.528   3.840  17.342  1.00 32.61 LIG-0.27  OA
BRANCH 14 17
ATOM     17  CA  ALA B  91      23.440   2.105  19.549  1.00 34.79 LIG 0.18  C 
ATOM     18  CB  ALA B  91      24.532   3.010  20.160  1.00 34.67 LIG 0.04  C 
BRANCH 17 19
ATOM     19  C   ALA B  91      22.936   1.097  20.586  1.00 35.98 LIG 0.20  C 
ATOM     20 OXT  ALA B  91      23.687   0.228  21.061  1.00 36.84 LIG-0.65  OA
ATOM     21 O    ALA B  91      21.757   1.124  20.954  1.00 37.03 LIG-0.65  OA
ENDBRANCH 17 19
ENDBRANCH 14 17
ENDBRANCH 10 13
ENDBRANCH 5 6
BRANCH 5 22
ATOM     22  CB  LEU B  89      18.332   1.647  19.657  1.00 30.14 LIG 0.04  C 
BRANCH 22 23
ATOM     23  CG  LEU B  89      17.334   0.539  20.005  1.00 30.45 LIG-0.02  C 
ATOM     24  CD1 LEU B  89      18.057  -0.556  20.785  1.00 30.38 LIG 0.01  C 
ATOM     25  CD2 LEU B  89      16.144   1.104  20.785  1.00 30.79 LIG 0.01  C 
ENDBRANCH 22 23
ENDBRANCH 5 22
ENDBRANCH 3 5
BRANCH 1 26
ATOM     26  CA  PRO B  88      15.547   1.685  15.691  1.00 32.64 LIG 0.18  C 
ATOM     27  CB  PRO B  88      15.709   2.013  14.192  1.00 32.64 LIG 0.04  C 
ATOM     28  CG  PRO B  88      14.526   2.871  13.841  1.00 32.93 LIG 0.02  C 
ATOM     29  CD  PRO B  88      13.427   2.368  14.739  1.00 33.68 LIG 0.13  C 
ATOM     30  N   PRO B  88      14.149   2.029  15.977  1.00 34.22 LIG-0.34  N 
ATOM     31  C   GLY B  87      13.749   2.034  17.281  1.00 37.83 LIG 0.24  C 
ATOM     32 O    GLY B  87      14.517   1.796  18.218  1.00 36.70 LIG-0.27  OA
BRANCH 31 33
ATOM     33  CA  GLY B  87      12.290   2.357  17.584  1.00 40.95 LIG 0.23  C 
BRANCH 33 34
ATOM     34  N   GLY B  87      12.044   2.555  19.029  1.00 44.01 LIG-0.35  N 
ATOM     35 H    GLY B  87      11.583   1.931  19.401  1.00 44.01 LIG 0.16  HD
ATOM     36  C   PRO B  86      12.514   3.625  19.678  1.00 46.81 LIG 0.25  C 
ATOM     37 O    PRO B  86      13.185   4.492  19.123  1.00 48.58 LIG-0.27  OA
BRANCH 36 38
ATOM     38  CA  PRO B  86      12.226   3.771  21.181  1.00 48.28 LIG 0.35  C 
ATOM     39  N   PRO B  86      10.976   3.172  21.676  1.00 49.47 LIG 0.32  N 
ATOM     40  CD  PRO B  86      11.185   2.420  22.923  1.00 50.15 LIG 0.32  C 
ATOM     41  CG  PRO B  86      12.621   2.008  22.823  1.00 49.89 LIG 0.04  C 
ATOM     42  CB  PRO B  86      13.321   3.066  22.004  1.00 49.17 LIG 0.05  C 
ENDBRANCH 36 38
ENDBRANCH 33 34
ENDBRANCH 31 33
ENDBRANCH 1 26
TORSDOF 11
