USER: ADFR SOLUTION from run 0
USER: SCORE 16.505608 LL:  -2.991 LR: -14.174 RR:   0.000 FEB:  -8.208
USER: RMSD 1.135751
USER: STATUS Locally minimized using BFGS
USER: GENES 22
USER: genes 0 Translation |==|  0.62100 0.47732 0.53596
USER: genes 1 Rotation |==|  0.48758 0.52262 0.50005 0.99933
USER: genes 2 Torsion [N]-C--CA-[N] |==|  0.46789
USER: genes 3 Torsion [C]-CA--N-[C] |==|  0.79080
USER: genes 4 Torsion [N]-C--CA-[N] |==|  0.35260
USER: genes 5 Torsion [C]-CA--CB-[CG] |==|  0.40579
USER: genes 6 Torsion [CA]-CB--CG-[CD1] |==|  0.98662
USER: genes 7 Torsion [CE1]-CZ--OH-[HH] |==|  0.49033
USER: genes 8 Torsion [C]-CA--N-[C] |==|  0.73428
USER: genes 9 Torsion [N]-C--CA-[N] |==|  0.44363
USER: genes 10 Torsion [C]-CA--CB-[OG] |==|  0.30071
USER: genes 11 Torsion [CA]-CB--OG-[HG] |==|  0.49618
USER: genes 12 Torsion [C]-CA--CB-[CG] |==|  0.44578
USER: genes 13 Torsion [CA]-CB--CG-[CD2] |==|  0.79166
USER: genes 14 Torsion [N]-CA--C-[O] |==|  0.92165
USER: genes 15 Torsion [C]-N--CA-[CB] |==|  0.50633
USER: genes 16 Torsion [N]-CA--C-[N] |==|  0.48333
USER: genes 17 Torsion [N]-CA--C-[O] |==|  0.94824
USER: genes 18 Torsion [N]-CA--CB-[CG] |==|  0.78692
USER: genes 19 Torsion [CA]-CB--CG-[CD] |==|  0.26975
USER: genes 20 Torsion [CB]-CG--CD-[NE] |==|  0.18734
USER: genes 21 Torsion [CG]-CD--NE-[HE] |==|  0.15107
ROOT
ATOM      1  C   LEU C   7      -0.671 -33.146  -9.120  1.00 32.10 LIG 0.24  C 
ATOM      2 O    LEU C   7      -1.687 -32.657  -9.654  1.00 36.06 LIG-0.27  OA
ATOM      3  N   PRO C   8       0.534 -33.190  -9.737  1.00 34.15 LIG-0.34  N 
ATOM      4  CA  PRO C   8       0.525 -32.653 -11.084  1.00 36.52 LIG 0.18  C 
ATOM      5  CB  PRO C   8       1.990 -32.802 -11.564  1.00 33.63 LIG 0.04  C 
ATOM      6  CG  PRO C   8       2.793 -32.755 -10.311  1.00 36.13 LIG 0.02  C 
ATOM      7  CD  PRO C   8       1.917 -33.428  -9.250  1.00 34.25 LIG 0.13  C 
ENDROOT
BRANCH 1 8
ATOM      8  CA  LEU C   7      -0.754 -33.627  -7.658  1.00 27.99 LIG 0.18  C 
BRANCH 8 9
ATOM      9  N   LEU C   7      -2.016 -33.311  -6.958  1.00 26.55 LIG-0.35  N 
ATOM     10 H    LEU C   7      -2.565 -33.962  -6.843  1.00 26.55 LIG 0.16  HD
ATOM     11  C   TYR C   6      -2.190 -32.079  -6.574  1.00 27.48 LIG 0.24  C 
ATOM     12 O    TYR C   6      -1.276 -31.222  -6.753  1.00 27.70 LIG-0.27  OA
BRANCH 11 13
ATOM     13  CA  TYR C   6      -3.536 -31.741  -5.996  1.00 25.37 LIG 0.18  C 
BRANCH 13 14
ATOM     14  CB  TYR C   6      -4.313 -30.834  -6.969  1.00 25.99 LIG 0.07  C 
BRANCH 14 15
ATOM     15  CG  TYR C   6      -5.825 -31.036  -6.997  1.00 32.28 LIG-0.06  A 
ATOM     16  CD1 TYR C   6      -6.427 -32.056  -6.256  1.00 32.91 LIG 0.01  A 
ATOM     17  CE1 TYR C   6      -7.797 -32.243  -6.269  1.00 37.22 LIG 0.04  A 
ATOM     18  CZ  TYR C   6      -8.588 -31.410  -7.048  1.00 40.59 LIG 0.07  A 
ATOM     19  CE2 TYR C   6      -8.017 -30.394  -7.815  1.00 40.82 LIG 0.04  A 
ATOM     20  CD2 TYR C   6      -6.637 -30.221  -7.792  1.00 36.01 LIG 0.01  A 
BRANCH 18 21
ATOM     21 OH   TYR C   6      -9.953 -31.613  -7.041  1.00 45.73 LIG-0.36  OA
ATOM     22 HH   TYR C   6     -10.326 -31.023  -7.508  1.00 45.73 LIG 0.22  HD
ENDBRANCH 18 21
ENDBRANCH 14 15
ENDBRANCH 13 14
BRANCH 13 23
ATOM     23  N   TYR C   6      -3.464 -31.120  -4.718  1.00 26.32 LIG-0.34  N 
ATOM     24 H    TYR C   6      -3.340 -30.270  -4.729  1.00 26.32 LIG 0.16  HD
ATOM     25  C   SER C   5      -3.584 -31.846  -3.639  1.00 29.69 LIG 0.26  C 
ATOM     26 O    SER C   5      -3.664 -33.114  -3.691  1.00 27.24 LIG-0.27  OA
BRANCH 25 27
ATOM     27  CA  SER C   5      -3.708 -31.023  -2.310  1.00 35.45 LIG 0.42  C 
ATOM     28  N   SER C   5      -4.315 -31.858  -1.241  1.00 39.53 LIG 0.62  N 
BRANCH 27 29
ATOM     29  CB  SER C   5      -2.382 -30.434  -1.836  1.00 42.03 LIG 0.21  C 
BRANCH 29 30
ATOM     30 OG   SER C   5      -2.312 -29.034  -1.998  1.00 42.36 LIG-0.40  OA
ATOM     31 HG   SER C   5      -1.575 -28.754  -1.707  1.00 42.36 LIG 0.21  HD
ENDBRANCH 29 30
ENDBRANCH 27 29
ENDBRANCH 25 27
ENDBRANCH 13 23
ENDBRANCH 11 13
ENDBRANCH 8 9
BRANCH 8 32
ATOM     32  CB  LEU C   7      -0.449 -35.073  -7.531  1.00 26.58 LIG 0.04  C 
BRANCH 32 33
ATOM     33  CG  LEU C   7      -0.088 -35.247  -6.044  1.00 24.49 LIG-0.02  C 
ATOM     34  CD2 LEU C   7       1.289 -34.676  -5.870  1.00 27.30 LIG 0.01  C 
ATOM     35  CD1 LEU C   7      -0.007 -36.746  -5.797  1.00 29.65 LIG 0.01  C 
ENDBRANCH 32 33
ENDBRANCH 8 32
ENDBRANCH 1 8
BRANCH 4 36
ATOM     36  C   PRO C   8      -0.501 -33.401 -11.949  1.00 40.02 LIG 0.24  C 
ATOM     37 O    PRO C   8      -0.799 -34.567 -11.716  1.00 40.33 LIG-0.27  OA
ATOM     38  N   ARG C   9      -1.096 -32.662 -12.871  1.00 39.93 LIG-0.35  N 
ATOM     39 H    ARG C   9      -0.928 -31.823 -12.963  1.00 39.93 LIG 0.16  HD
BRANCH 38 40
ATOM     40  CA  ARG C   9      -2.080 -33.147 -13.825  1.00 44.47 LIG 0.18  C 
BRANCH 40 41
ATOM     41  C   ARG C   9      -1.469 -34.358 -14.591  1.00 44.78 LIG 0.24  C 
ATOM     42  N   PRO C  10      -2.265 -35.046 -15.448  1.00 46.18 LIG-0.34  N 
ATOM     43  CA  PRO C  10      -1.814 -36.254 -16.207  1.00 48.25 LIG 0.17  C 
ATOM     44  CD  PRO C  10      -3.707 -34.776 -15.639  1.00 48.73 LIG 0.13  C 
ATOM     45  CB  PRO C  10      -3.066 -36.688 -16.995  1.00 49.47 LIG 0.04  C 
ATOM     46  CG  PRO C  10      -4.222 -36.015 -16.325  1.00 52.76 LIG 0.02  C 
ATOM     47 O    ARG C   9      -0.302 -34.691 -14.363  1.00 45.76 LIG-0.27  OA
BRANCH 43 48
ATOM     48  C   PRO C  10      -0.665 -36.049 -17.208  1.00 47.63 LIG 0.22  C 
ATOM     49 O    PRO C  10      -0.387 -34.923 -17.616  1.00 46.26 LIG-0.29  OA
ENDBRANCH 43 48
ENDBRANCH 40 41
BRANCH 40 50
ATOM     50  CB  ARG C   9      -2.480 -31.965 -14.768  1.00 49.80 LIG 0.04  C 
BRANCH 50 51
ATOM     51  CG  ARG C   9      -3.445 -30.938 -14.138  1.00 51.68 LIG 0.02  C 
BRANCH 51 52
ATOM     52  CD  ARG C   9      -2.726 -29.675 -13.561  1.00 46.90 LIG 0.14  C 
BRANCH 52 53
ATOM     53  NE  ARG C   9      -2.151 -28.895 -14.653  1.00 50.11 LIG-0.23  N 
ATOM     54 HE   ARG C   9      -2.689 -28.665 -15.283  1.00 50.11 LIG 0.18  HD
ATOM     55  CZ  ARG C   9      -0.888 -28.501 -14.782  1.00 44.95 LIG 0.67  C 
ATOM     56  NH1 ARG C   9      -0.562 -27.804 -15.838  1.00 55.49 LIG-0.23  N 
ATOM     57  NH2 ARG C   9       0.027 -28.776 -13.895  1.00 40.08 LIG-0.23  N 
ATOM     58 1HH1 ARG C   9      -1.159 -27.612 -16.427  1.00 55.49 LIG 0.17  HD
ATOM     59 2HH1 ARG C   9       0.248 -27.538 -15.944  1.00 55.49 LIG 0.17  HD
ATOM     60 1HH2 ARG C   9      -0.177 -29.229 -13.193  1.00 40.08 LIG 0.17  HD
ATOM     61 2HH2 ARG C   9       0.835 -28.505 -14.012  1.00 40.08 LIG 0.17  HD
ENDBRANCH 52 53
ENDBRANCH 51 52
ENDBRANCH 50 51
ENDBRANCH 40 50
ENDBRANCH 38 40
ENDBRANCH 4 36
TORSDOF 20
