REMARK  20 active torsions:
REMARK  status: ('A' for Active; 'I' for Inactive)
REMARK    1  A    between atoms: CA_2  and  C_3 
REMARK    2  A    between atoms: CA_2  and  CB_5 
REMARK       I    between atoms: C_3  and  N_8 
REMARK    3  A    between atoms: CB_5  and  OG_6 
REMARK    4  A    between atoms: N_8  and  CA_9 
REMARK    5  A    between atoms: CA_9  and  CB_12 
REMARK    6  A    between atoms: CA_9  and  C_10 
REMARK       I    between atoms: C_10  and  N_22 
REMARK    7  A    between atoms: CB_12  and  CG_13 
REMARK    8  A    between atoms: CZ_18  and  OH_19 
REMARK    9  A    between atoms: N_22  and  CA_23 
REMARK   10  A    between atoms: CA_23  and  C_24 
REMARK   11  A    between atoms: CA_23  and  CB_26 
REMARK       I    between atoms: C_24  and  N_31 
REMARK   12  A    between atoms: CB_26  and  CG_27 
REMARK   13  A    between atoms: CA_32  and  C_33 
REMARK       I    between atoms: C_33  and  N_38 
REMARK   14  A    between atoms: N_38  and  CA_39 
REMARK   15  A    between atoms: CA_39  and  C_40 
REMARK   16  A    between atoms: CA_39  and  CB_42 
REMARK       I    between atoms: C_40  and  N_55 
REMARK   17  A    between atoms: CB_42  and  CG_43 
REMARK   18  A    between atoms: CG_43  and  CD_44 
REMARK   19  A    between atoms: CD_44  and  NE_45 
REMARK       I    between atoms: NE_45  and  CZ_46 
REMARK       I    between atoms: CZ_46  and  NH1_47 
REMARK   20  A    between atoms: CA_56  and  C_57 
ROOT
ATOM      1  C   LEU C   7      -0.475 -33.499  -9.459  1.00 32.10     0.243 C 
ATOM      2  O   LEU C   7      -1.440 -32.981 -10.058  1.00 36.06    -0.271 OA
ATOM      3  N   PRO C   8       0.781 -33.515  -9.966  1.00 34.15    -0.337 N 
ATOM      4  CA  PRO C   8       0.893 -32.912 -11.280  1.00 36.52     0.179 C 
ATOM      5  CB  PRO C   8       2.395 -33.041 -11.632  1.00 33.63     0.037 C 
ATOM      6  CG  PRO C   8       3.082 -33.058 -10.311  1.00 36.13     0.022 C 
ATOM      7  CD  PRO C   8       2.115 -33.780  -9.368  1.00 34.25     0.127 C 
ENDROOT
BRANCH   1   8
ATOM      8  CA  LEU C   7      -0.689 -34.051  -8.036  1.00 27.99     0.177 C 
BRANCH   8   9
ATOM      9  N   LEU C   7      -1.928 -33.609  -7.364  1.00 26.55    -0.346 N 
ATOM     10  H   LEU C   7      -2.575 -34.174  -7.339  1.00 26.55     0.163 HD
ATOM     11  C   TYR C   6      -1.936 -32.405  -6.867  1.00 27.48     0.241 C 
ATOM     12  O   TYR C   6      -0.895 -31.688  -6.919  1.00 27.70    -0.271 OA
BRANCH  11  13
ATOM     13  CA  TYR C   6      -3.248 -31.917  -6.318  1.00 25.37     0.180 C 
BRANCH  13  14
ATOM     14  CB  TYR C   6      -3.971 -31.057  -7.372  1.00 25.99     0.073 C 
BRANCH  14  15
ATOM     15  CG  TYR C   6      -5.422 -30.708  -7.058  1.00 32.28    -0.056 A 
ATOM     16  CD1 TYR C   6      -6.375 -31.710  -6.858  1.00 32.91     0.010 A 
ATOM     17  CE1 TYR C   6      -7.691 -31.404  -6.566  1.00 37.22     0.037 A 
ATOM     18  CZ  TYR C   6      -8.077 -30.073  -6.487  1.00 40.59     0.065 A 
ATOM     19  CE2 TYR C   6      -7.155 -29.048  -6.700  1.00 40.82     0.037 A 
ATOM     20  CD2 TYR C   6      -5.835 -29.373  -6.995  1.00 36.01     0.010 A 
BRANCH  18  21
ATOM     21  OH  TYR C   6      -9.395 -29.792  -6.189  1.00 45.73    -0.361 OA
ATOM     22  HH  TYR C   6      -9.506 -28.960  -6.168  1.00 45.73     0.217 HD
ENDBRANCH  18  21
ENDBRANCH  14  15
ENDBRANCH  13  14
BRANCH  13  23
ATOM     23  N   TYR C   6      -3.116 -31.180  -5.108  1.00 26.32    -0.345 N 
ATOM     24  H   TYR C   6      -2.763 -30.400  -5.189  1.00 26.32     0.163 HD
ATOM     25  C   SER C   5      -3.521 -31.706  -3.983  1.00 29.69     0.259 C 
ATOM     26  O   SER C   5      -3.941 -32.904  -3.918  1.00 27.24    -0.271 OA
BRANCH  25  27
ATOM     27  CA  SER C   5      -3.526 -30.717  -2.766  1.00 35.45     0.423 C 
ATOM     28  N   SER C   5      -4.331 -31.278  -1.650  1.00 39.53     0.617 N 
BRANCH  27  29
ATOM     29  CB  SER C   5      -2.127 -30.348  -2.279  1.00 42.03     0.215 C 
BRANCH  29  30
ATOM     30  OG  SER C   5      -1.795 -29.000  -2.529  1.00 42.36    -0.398 OA
ATOM     31  HG  SER C   5      -1.020 -28.844  -2.244  1.00 42.36     0.209 HD
ENDBRANCH  29  30
ENDBRANCH  27  29
ENDBRANCH  25  27
ENDBRANCH  13  23
ENDBRANCH  11  13
ENDBRANCH   8   9
BRANCH   8  32
ATOM     32  CB  LEU C   7      -0.587 -35.531  -7.994  1.00 26.58     0.038 C 
BRANCH  32  33
ATOM     33  CG  LEU C   7      -0.542 -35.857  -6.489  1.00 24.49    -0.020 C 
ATOM     34  CD2 LEU C   7       0.817 -35.444  -6.004  1.00 27.30     0.009 C 
ATOM     35  CD1 LEU C   7      -0.638 -37.371  -6.378  1.00 29.65     0.009 C 
ENDBRANCH  32  33
ENDBRANCH   8  32
ENDBRANCH   1   8
BRANCH   4  36
ATOM     36  C   PRO C   8      -0.050 -33.614 -12.270  1.00 40.02     0.241 C 
ATOM     37  O   PRO C   8      -0.418 -34.768 -12.088  1.00 40.33    -0.271 OA
ATOM     38  N   ARG C   9      -0.500 -32.846 -13.249  1.00 39.93    -0.346 N 
ATOM     39  H   ARG C   9      -0.291 -32.014 -13.311  1.00 39.93     0.163 HD
BRANCH  38  40
ATOM     40  CA  ARG C   9      -1.380 -33.286 -14.319  1.00 44.47     0.176 C 
BRANCH  40  41
ATOM     41  C   ARG C   9      -0.584 -34.252 -15.246  1.00 44.78     0.243 C 
ATOM     42  N   PRO C  10      -1.280 -35.042 -16.102  1.00 46.18    -0.338 N 
ATOM     43  CA  PRO C  10      -0.638 -36.044 -17.010  1.00 48.25     0.165 C 
ATOM     44  CD  PRO C  10      -2.757 -35.111 -16.154  1.00 48.73     0.127 C 
ATOM     45  CB  PRO C  10      -1.827 -36.703 -17.737  1.00 49.47     0.035 C 
ATOM     46  CG  PRO C  10      -3.036 -36.381 -16.917  1.00 52.76     0.022 C 
ATOM     47  O   ARG C   9       0.645 -34.313 -15.143  1.00 45.76    -0.271 OA
BRANCH  43  48
ATOM     48  C   PRO C  10       0.327 -35.493 -18.072  1.00 47.63     0.219 C 
ATOM     49  O   PRO C  10       0.311 -34.301 -18.371  1.00 46.26    -0.287 OA
ENDBRANCH  43  48
ENDBRANCH  40  41
BRANCH  40  50
ATOM     50  CB  ARG C   9      -1.918 -32.023 -15.069  1.00 49.80     0.036 C 
BRANCH  50  51
ATOM     51  CG  ARG C   9      -2.289 -30.839 -14.151  1.00 51.68     0.023 C 
BRANCH  51  52
ATOM     52  CD  ARG C   9      -1.100 -30.333 -13.270  1.00 46.90     0.138 C 
BRANCH  52  53
ATOM     53  NE  ARG C   9      -0.219 -29.489 -14.071  1.00 50.11    -0.227 N 
ATOM     54  HE  ARG C   9      -0.551 -29.171 -14.798  1.00 50.11     0.177 HD
ATOM     55  CZ  ARG C   9       1.040 -29.156 -13.803  1.00 44.95     0.665 C 
ATOM     56  NH1 ARG C   9       1.669 -28.384 -14.648  1.00 55.49    -0.235 N 
ATOM     57  NH2 ARG C   9       1.660 -29.563 -12.731  1.00 40.08    -0.235 N 
ATOM     58 HH11 ARG C   9       1.268 -28.105 -15.356  1.00 55.49     0.174 HD
ATOM     59 HH12 ARG C   9       2.484 -28.155 -14.497  1.00 55.49     0.174 HD
ATOM     60 HH21 ARG C   9       1.254 -30.067 -12.165  1.00 40.08     0.174 HD
ATOM     61 HH22 ARG C   9       2.475 -29.328 -12.590  1.00 40.08     0.174 HD
ENDBRANCH  52  53
ENDBRANCH  51  52
ENDBRANCH  50  51
ENDBRANCH  40  50
ENDBRANCH  38  40
ENDBRANCH   4  36
TORSDOF 20
