USER: ADFR SOLUTION from run 0
USER: SCORE 20.326980 LL:  -4.763 LR: -17.424 RR:   0.000 FEB: -10.861
USER: RMSD 0.971598
USER: STATUS Locally minimized using BFGS
USER: GENES 24
USER: genes 0 Translation |==|  0.46941 0.49945 0.58685
USER: genes 1 Rotation |==|  0.52065 0.51101 0.46468 0.99820
USER: genes 2 Torsion [N]-CA--C-[O] |==|  0.90841
USER: genes 3 Torsion [C]-N--CA-[CB] |==|  0.36564
USER: genes 4 Torsion [N]-CA--CB-[CG2] |==|  0.25695
USER: genes 5 Torsion [CA]-CB--CG1-[CD1] |==|  0.42369
USER: genes 6 Torsion [N]-CA--C-[N] |==|  0.36488
USER: genes 7 Torsion [C]-N--CA-[C] |==|  0.74767
USER: genes 8 Torsion [N]-CA--C-[N] |==|  0.36053
USER: genes 9 Torsion [C]-N--CA-[CB] |==|  0.37922
USER: genes 10 Torsion [N]-CA--CB-[CG] |==|  0.88929
USER: genes 11 Torsion [CA]-CB--CG-[ND2] |==|  0.90614
USER: genes 12 Torsion [N]-CA--C-[O] |==|  0.92229
USER: genes 13 Torsion [N]-CA--CB-[CG] |==|  0.49897
USER: genes 14 Torsion [CA]-CB--CG-[CD2] |==|  0.09832
USER: genes 15 Torsion [CE2]-CZ--OH-[HH] |==|  0.99923
USER: genes 16 Torsion [N]-C--CA-[N] |==|  0.44557
USER: genes 17 Torsion [C]-CA--N-[C] |==|  0.77936
USER: genes 18 Torsion [N]-C--CA-[N] |==|  0.43714
USER: genes 19 Torsion [N]-C--CA-[CB] |==|  0.71675
USER: genes 20 Torsion [C]-CA--CB-[CG] |==|  0.43718
USER: genes 21 Torsion [CA]-CB--CG-[CD] |==|  0.90589
USER: genes 22 Torsion [CB]-CG--CD-[NE] |==|  0.51435
USER: genes 23 Torsion [CG]-CD--NE-[CZ] |==|  0.71081
ROOT
ATOM      1  C   ARG B  14     -10.137 -28.656  -9.523  1.00 32.92 LIG 0.24  C 
ATOM      2 O    ARG B  14      -9.508 -29.709  -9.641  1.00 37.82 LIG-0.27  OA
ATOM      3  N   PRO B  15     -10.536 -27.922 -10.566  1.00 31.88 LIG-0.34  N 
ATOM      4  CA  PRO B  15     -10.264 -28.378 -11.932  1.00 30.79 LIG 0.18  C 
ATOM      5  CB  PRO B  15     -10.938 -27.323 -12.785  1.00 31.22 LIG 0.04  C 
ATOM      6  CG  PRO B  15     -12.069 -26.861 -11.923  1.00 29.82 LIG 0.02  C 
ATOM      7  CD  PRO B  15     -11.471 -26.785 -10.555  1.00 31.43 LIG 0.13  C 
ENDROOT
BRANCH 4 8
ATOM      8  C   PRO B  15      -8.778 -28.363 -12.188  1.00 33.68 LIG 0.24  C 
ATOM      9  N   ILE B  16      -8.308 -29.330 -12.952  1.00 35.41 LIG-0.35  N 
ATOM     10 H    ILE B  16      -8.778 -29.986 -13.251  1.00 35.41 LIG 0.16  HD
ATOM     11 O    PRO B  15      -8.067 -27.522 -11.660  1.00 34.05 LIG-0.27  OA
BRANCH 9 12
ATOM     12  CA  ILE B  16      -6.959 -29.350 -13.340  1.00 37.77 LIG 0.18  C 
BRANCH 12 13
ATOM     13  CB  ILE B  16      -6.331 -30.716 -13.112  1.00 42.27 LIG 0.01  C 
ATOM     14  CG2 ILE B  16      -6.446 -31.546 -14.358  1.00 44.80 LIG 0.01  C 
BRANCH 13 15
ATOM     15  CG1 ILE B  16      -4.868 -30.513 -12.678  1.00 47.53 LIG 0.00  C 
ATOM     16  CD1 ILE B  16      -4.275 -31.615 -11.806  1.00 51.74 LIG 0.01  C 
ENDBRANCH 13 15
ENDBRANCH 12 13
BRANCH 12 17
ATOM     17  C   ILE B  16      -6.955 -28.930 -14.775  1.00 42.33 LIG 0.24  C 
ATOM     18 O    ILE B  16      -7.732 -29.396 -15.561  1.00 39.29 LIG-0.27  OA
ATOM     19  N   TYR B  17      -6.082 -27.988 -15.078  1.00 46.96 LIG-0.35  N 
ATOM     20 H    TYR B  17      -5.459 -27.736 -14.542  1.00 46.96 LIG 0.16  HD
BRANCH 19 21
ATOM     21  CA  TYR B  17      -6.079 -27.285 -16.330  1.00 51.19 LIG 0.18  C 
BRANCH 21 22
ATOM     22  C   TYR B  17      -5.207 -27.992 -17.305  1.00 56.10 LIG 0.24  C 
ATOM     23  N   ASN B  18      -5.710 -28.252 -18.496  1.00 65.39 LIG-0.35  N 
ATOM     24 H    ASN B  18      -6.441 -27.913 -18.795  1.00 65.39 LIG 0.16  HD
ATOM     25 O    TYR B  17      -4.054 -28.241 -17.005  1.00 61.36 LIG-0.27  OA
BRANCH 23 26
ATOM     26  CA  ASN B  18      -5.034 -29.168 -19.429  1.00 70.74 LIG 0.17  C 
BRANCH 26 27
ATOM     27  CB  ASN B  18      -6.079 -30.092 -20.072  1.00 84.74 LIG 0.14  C 
BRANCH 27 28
ATOM     28  CG  ASN B  18      -7.149 -30.555 -19.075  1.00 96.34 LIG 0.22  C 
ATOM     29 OD1  ASN B  18      -8.324 -30.726 -19.433  1.00 99.44 LIG-0.27  OA
ATOM     30  ND2 ASN B  18      -6.749 -30.743 -17.810  1.00 94.73 LIG-0.37  N 
ATOM     31 21HD ASN B  18      -7.315 -30.991 -17.213  1.00 94.73 LIG 0.16  HD
ATOM     32 22HD ASN B  18      -5.926 -30.615 -17.596  1.00 94.73 LIG 0.16  HD
ENDBRANCH 27 28
ENDBRANCH 26 27
BRANCH 26 33
ATOM     33  C   ASN B  18      -4.080 -28.559 -20.485  1.00 72.97 LIG 0.22  C 
ATOM     34 O    ASN B  18      -4.219 -27.409 -20.928  1.00 74.17 LIG-0.29  OA
ENDBRANCH 26 33
ENDBRANCH 23 26
ENDBRANCH 21 22
BRANCH 21 35
ATOM     35  CB  TYR B  17      -5.467 -25.913 -16.099  1.00 54.83 LIG 0.07  C 
BRANCH 35 36
ATOM     36  CG  TYR B  17      -5.420 -25.126 -17.352  1.00 56.96 LIG-0.06  A 
ATOM     37  CD2 TYR B  17      -6.449 -25.244 -18.294  1.00 61.26 LIG 0.01  A 
ATOM     38  CE2 TYR B  17      -6.419 -24.531 -19.471  1.00 70.21 LIG 0.04  A 
ATOM     39  CZ  TYR B  17      -5.339 -23.701 -19.716  1.00 76.40 LIG 0.07  A 
ATOM     40  CE1 TYR B  17      -4.302 -23.574 -18.799  1.00 67.10 LIG 0.04  A 
ATOM     41  CD1 TYR B  17      -4.352 -24.298 -17.622  1.00 57.92 LIG 0.01  A 
BRANCH 39 42
ATOM     42 OH   TYR B  17      -5.304 -23.000 -20.885  1.00 89.25 LIG-0.36  OA
ATOM     43 HH   TYR B  17      -5.988 -23.177 -21.339  1.00 89.25 LIG 0.22  HD
ENDBRANCH 39 42
ENDBRANCH 35 36
ENDBRANCH 21 35
ENDBRANCH 19 21
ENDBRANCH 12 17
ENDBRANCH 9 12
ENDBRANCH 4 8
BRANCH 1 44
ATOM     44  CA  ARG B  14     -10.439 -28.136  -8.149  1.00 32.45 LIG 0.18  C 
BRANCH 44 45
ATOM     45  N   ARG B  14     -10.332 -29.314  -7.318  1.00 38.19 LIG-0.35  N 
ATOM     46 H    ARG B  14      -9.587 -29.371  -6.893  1.00 38.19 LIG 0.16  HD
ATOM     47  C   PRO B  13     -11.301 -30.229  -7.220  1.00 38.91 LIG 0.24  C 
ATOM     48 O    PRO B  13     -12.362 -30.144  -7.805  1.00 32.88 LIG-0.27  OA
BRANCH 47 49
ATOM     49  CA  PRO B  13     -11.028 -31.412  -6.268  1.00 38.31 LIG 0.18  C 
ATOM     50  N   PRO B  13     -12.225 -32.072  -5.793  1.00 38.88 LIG-0.34  N 
ATOM     51  CD  PRO B  13     -12.146 -33.529  -5.973  1.00 43.50 LIG 0.13  C 
ATOM     52  C   PRO B  12     -13.269 -31.441  -5.231  1.00 40.77 LIG 0.26  C 
ATOM     53  CG  PRO B  13     -10.708 -33.766  -6.284  1.00 43.53 LIG 0.02  C 
ATOM     54  CB  PRO B  13     -10.272 -32.530  -6.986  1.00 39.91 LIG 0.04  C 
ATOM     55 O    PRO B  12     -13.290 -30.223  -4.999  1.00 44.45 LIG-0.27  OA
BRANCH 52 56
ATOM     56  CA  PRO B  12     -14.469 -32.281  -4.872  1.00 38.46 LIG 0.35  C 
ATOM     57  CB  PRO B  12     -15.552 -32.078  -5.933  1.00 43.42 LIG 0.05  C 
ATOM     58  CG  PRO B  12     -16.817 -32.021  -5.180  1.00 41.12 LIG 0.04  C 
ATOM     59  CD  PRO B  12     -16.472 -31.377  -3.870  1.00 39.74 LIG 0.32  C 
ATOM     60  N   PRO B  12     -15.071 -31.758  -3.670  1.00 38.12 LIG 0.32  N 
ENDBRANCH 52 56
ENDBRANCH 47 49
ENDBRANCH 44 45
BRANCH 44 61
ATOM     61  CB  ARG B  14      -9.335 -27.158  -7.735  1.00 34.42 LIG 0.04  C 
BRANCH 61 62
ATOM     62  CG  ARG B  14      -9.737 -26.156  -6.653  1.00 32.66 LIG 0.02  C 
BRANCH 62 63
ATOM     63  CD  ARG B  14     -11.197 -25.792  -6.827  1.00 35.24 LIG 0.14  C 
BRANCH 63 64
ATOM     64  NE  ARG B  14     -11.640 -24.736  -5.899  1.00 42.22 LIG-0.23  N 
ATOM     65  CZ  ARG B  14     -12.384 -24.914  -4.804  1.00 44.72 LIG 0.67  C 
ATOM     66  NH2 ARG B  14     -12.824 -26.107  -4.452  1.00 43.48 LIG-0.23  N 
ATOM     67  NH1 ARG B  14     -12.704 -23.874  -4.058  1.00 46.51 LIG-0.23  N 
ATOM     68 1HH2 ARG B  14     -12.633 -26.795  -4.933  1.00 43.48 LIG 0.17  HD
ATOM     69 2HH2 ARG B  14     -13.301 -26.197  -3.742  1.00 43.48 LIG 0.17  HD
ATOM     70 2HH1 ARG B  14     -13.183 -23.982  -3.352  1.00 46.51 LIG 0.17  HD
ATOM     71 1HH1 ARG B  14     -12.434 -23.088  -4.277  1.00 46.51 LIG 0.17  HD
ATOM     72 HE   ARG B  14     -11.398 -23.931  -6.079  1.00 42.22 LIG 0.18  HD
ENDBRANCH 63 64
ENDBRANCH 62 63
ENDBRANCH 61 62
ENDBRANCH 44 61
ENDBRANCH 1 44
TORSDOF 22
