REMARK  28 active torsions:
REMARK  status: ('A' for Active; 'I' for Inactive)
REMARK    1  A    between atoms: N_1  and  CA_2 
REMARK    2  A    between atoms: CA_2  and  C_3 
REMARK    3  A    between atoms: CA_2  and  CB_5 
REMARK       I    between atoms: C_3  and  N_13 
REMARK    4  A    between atoms: CB_5  and  CG_6 
REMARK    5  A    between atoms: CG_6  and  CD_7 
REMARK    6  A    between atoms: N_13  and  CA_14 
REMARK    7  A    between atoms: CA_14  and  CB_17 
REMARK    8  A    between atoms: CA_14  and  C_15 
REMARK       I    between atoms: C_15  and  N_22 
REMARK    9  A    between atoms: CB_17  and  CG_18 
REMARK   10  A    between atoms: CA_23  and  C_24 
REMARK       I    between atoms: C_24  and  N_29 
REMARK   11  A    between atoms: N_29  and  CA_30 
REMARK   12  A    between atoms: CA_30  and  C_31 
REMARK   13  A    between atoms: CA_30  and  CB_33 
REMARK       I    between atoms: C_31  and  N_38 
REMARK   14  A    between atoms: CB_33  and  CG_34 
REMARK   15  A    between atoms: N_38  and  CA_39 
REMARK   16  A    between atoms: CA_39  and  CB_42 
REMARK   17  A    between atoms: CA_39  and  C_40 
REMARK       I    between atoms: C_40  and  N_46 
REMARK   18  A    between atoms: N_46  and  CA_47 
REMARK   19  A    between atoms: CA_47  and  C_48 
REMARK   20  A    between atoms: CA_47  and  CB_50 
REMARK       I    between atoms: C_48  and  N_59 
REMARK   21  A    between atoms: CB_50  and  CG_51 
REMARK   22  A    between atoms: CG_51  and  CD_52 
REMARK   23  A    between atoms: CD_52  and  CE_53 
REMARK   24  A    between atoms: CE_53  and  NZ_54 
REMARK   25  A    between atoms: N_59  and  CA_60 
REMARK   26  A    between atoms: CA_60  and  CB_63 
REMARK   27  A    between atoms: CA_60  and  C_61 
REMARK   28  A    between atoms: CB_63  and  CG1_64 
ROOT
ATOM      1  CA  LEU B   4      56.530  87.799  30.009  1.00 30.07     0.177 C 
ENDROOT
BRANCH   1   2
ATOM      2  C   LEU B   4      55.060  87.825  30.340  1.00 30.58     0.241 C 
ATOM      3  O   LEU B   4      54.321  88.667  29.825  1.00 35.83    -0.271 OA
ATOM      4  N   VAL B   5      54.642  86.958  31.259  1.00 32.24    -0.346 N 
ATOM      5  H   VAL B   5      55.156  86.383  31.639  1.00 32.24     0.163 HD
BRANCH   4   6
ATOM      6  CA  VAL B   5      53.248  86.906  31.711  1.00 32.53     0.180 C 
BRANCH   6   7
ATOM      7  CB  VAL B   5      52.734  85.458  31.807  1.00 34.70     0.009 C 
ATOM      8  CG2 VAL B   5      52.259  85.012  30.448  1.00 38.22     0.012 C 
ATOM      9  CG1 VAL B   5      51.611  85.318  32.827  1.00 39.77     0.012 C 
ENDBRANCH   6   7
BRANCH   6  10
ATOM     10  C   VAL B   5      53.105  87.556  33.060  1.00 39.16     0.241 C 
ATOM     11  O   VAL B   5      53.804  87.204  34.019  1.00 33.69    -0.271 OA
ATOM     12  N   LYS B   6      52.218  88.535  33.117  1.00 40.12    -0.346 N 
ATOM     13  H   LYS B   6      51.766  88.814  32.440  1.00 40.12     0.163 HD
BRANCH  12  14
ATOM     14  CA  LYS B   6      51.936  89.222  34.341  1.00 45.41     0.176 C 
BRANCH  14  15
ATOM     15  C   LYS B   6      51.261  88.157  35.178  1.00 44.99     0.241 C 
ATOM     16  O   LYS B   6      50.235  87.637  34.791  1.00 45.85    -0.271 OA
ATOM     17  N   ILE B   7      51.835  87.755  36.292  1.00 47.54    -0.344 N 
ATOM     18  H   ILE B   7      52.559  88.067  36.636  1.00 47.54     0.163 HD
BRANCH  17  19
ATOM     19  CA  ILE B   7      51.171  86.661  37.024  1.00 57.67     0.189 C 
BRANCH  19  20
ATOM     20  CB  ILE B   7      52.079  85.404  37.322  1.00 59.41     0.014 C 
ATOM     21  CG2 ILE B   7      53.322  85.773  38.124  1.00 60.58     0.012 C 
BRANCH  20  22
ATOM     22  CG1 ILE B   7      51.274  84.283  38.041  1.00 65.20     0.002 C 
ATOM     23  CD1 ILE B   7      51.475  82.848  37.546  1.00 51.92     0.005 C 
ENDBRANCH  20  22
ENDBRANCH  19  20
BRANCH  19  24
ATOM     24  C   ILE B   7      50.362  87.162  38.230  1.00 61.74     0.197 C 
ATOM     25  O   ILE B   7      50.773  87.147  39.380  1.00 61.53    -0.646 OA
ATOM     26  OXT ILE B   7      49.238  87.637  38.064  1.00 68.92    -0.646 OA
ENDBRANCH  19  24
ENDBRANCH  17  19
ENDBRANCH  14  15
BRANCH  14  27
ATOM     27  CB  LYS B   6      51.014  90.409  34.014  1.00 46.87     0.035 C 
BRANCH  27  28
ATOM     28  CG  LYS B   6      50.541  91.202  35.217  1.00 55.56     0.004 C 
BRANCH  28  29
ATOM     29  CD  LYS B   6      51.667  91.993  35.868  1.00 60.95     0.027 C 
BRANCH  29  30
ATOM     30  CE  LYS B   6      51.126  93.162  36.700  1.00 62.93     0.229 C 
BRANCH  30  31
ATOM     31  NZ  LYS B   6      50.270  92.697  37.835  1.00 65.77    -0.079 N 
ATOM     32  HZ1 LYS B   6      50.035  93.395  38.335  1.00 65.77     0.274 HD
ATOM     33  HZ2 LYS B   6      49.539  92.303  37.514  1.00 65.77     0.274 HD
ATOM     34  HZ3 LYS B   6      50.726  92.116  38.332  1.00 65.77     0.274 HD
ENDBRANCH  30  31
ENDBRANCH  29  30
ENDBRANCH  28  29
ENDBRANCH  27  28
ENDBRANCH  14  27
ENDBRANCH  12  14
ENDBRANCH   6  10
ENDBRANCH   4   6
ENDBRANCH   1   2
BRANCH   1  35
ATOM     35  CB  LEU B   4      57.232  88.660  31.039  1.00 28.63     0.038 C 
BRANCH  35  36
ATOM     36  CG  LEU B   4      58.683  88.233  31.223  1.00 30.56    -0.020 C 
ATOM     37  CD2 LEU B   4      58.716  86.959  32.039  1.00 33.80     0.009 C 
ATOM     38  CD1 LEU B   4      59.432  89.360  31.954  1.00 28.87     0.009 C 
ENDBRANCH  35  36
ENDBRANCH   1  35
BRANCH   1  39
ATOM     39  N   LEU B   4      56.936  88.279  28.668  1.00 28.62    -0.346 N 
ATOM     40  H   LEU B   4      57.507  88.922  28.673  1.00 28.62     0.163 HD
ATOM     41  C   PRO B   3      56.437  87.736  27.576  1.00 33.12     0.241 C 
ATOM     42  O   PRO B   3      55.798  86.669  27.568  1.00 32.36    -0.271 OA
BRANCH  41  43
ATOM     43  CA  PRO B   3      56.735  88.481  26.277  1.00 33.48     0.179 C 
ATOM     44  CB  PRO B   3      55.611  89.503  25.959  1.00 32.62     0.037 C 
ATOM     45  CG  PRO B   3      55.367  89.377  24.478  1.00 32.85     0.022 C 
ATOM     46  CD  PRO B   3      55.691  87.926  24.132  1.00 29.95     0.127 C 
ATOM     47  N   PRO B   3      56.642  87.509  25.203  1.00 33.01    -0.337 N 
ATOM     48  C   LEU B   2      57.447  86.425  25.262  1.00 31.97     0.243 C 
ATOM     49  O   LEU B   2      58.348  86.277  26.094  1.00 33.64    -0.271 OA
BRANCH  48  50
ATOM     50  CA  LEU B   2      57.252  85.371  24.196  1.00 32.67     0.177 C 
BRANCH  50  51
ATOM     51  N   LEU B   2      58.554  84.735  24.031  1.00 33.85    -0.346 N 
ATOM     52  H   LEU B   2      59.015  84.704  24.756  1.00 33.85     0.163 HD
ATOM     53  C   GLU B   1      58.991  84.249  22.874  1.00 36.42     0.249 C 
ATOM     54  O   GLU B   1      58.231  84.050  21.912  1.00 32.31    -0.271 OA
BRANCH  53  55
ATOM     55  CA  GLU B   1      60.479  83.835  22.825  1.00 35.71     0.275 C 
BRANCH  55  56
ATOM     56  CB  GLU B   1      60.559  82.319  22.613  1.00 39.23     0.053 C 
BRANCH  56  57
ATOM     57  CG  GLU B   1      59.837  81.529  23.704  1.00 48.64     0.115 C 
BRANCH  57  58
ATOM     58  CD  GLU B   1      60.136  80.024  23.735  1.00 56.94     0.172 C 
ATOM     59  OE1 GLU B   1      59.164  79.258  23.624  1.00 65.53    -0.648 OA
ATOM     60  OE2 GLU B   1      61.311  79.584  23.884  1.00 53.19    -0.648 OA
ENDBRANCH  57  58
ENDBRANCH  56  57
ENDBRANCH  55  56
BRANCH  55  61
ATOM     61  N   GLU B   1      61.205  84.209  24.087  1.00 36.67    -0.066 N 
ATOM     62  H1  GLU B   1      62.041  83.906  24.050  1.00 36.67     0.275 HD
ATOM     63  H3  GLU B   1      60.790  83.848  24.787  1.00 36.67     0.275 HD
ATOM     64  H2  GLU B   1      61.214  85.095  24.173  1.00 36.67     0.275 HD
ENDBRANCH  55  61
ENDBRANCH  53  55
ENDBRANCH  50  51
BRANCH  50  65
ATOM     65  CB  LEU B   2      56.153  84.374  24.647  1.00 34.84     0.038 C 
BRANCH  65  66
ATOM     66  CG  LEU B   2      55.450  83.575  23.537  1.00 34.30    -0.020 C 
ATOM     67  CD2 LEU B   2      54.834  84.496  22.470  1.00 39.39     0.009 C 
ATOM     68  CD1 LEU B   2      54.397  82.607  24.081  1.00 34.61     0.009 C 
ENDBRANCH  65  66
ENDBRANCH  50  65
ENDBRANCH  48  50
ENDBRANCH  41  43
ENDBRANCH   1  39
TORSDOF 28
