USER: ADFR SOLUTION from run 0
USER: SCORE 21.184315 LL:  -5.888 LR: -16.159 RR:   0.000 FEB:  -7.807
USER: RMSD 0.640935
USER: STATUS Locally minimized using BFGS
USER: GENES 30
USER: genes 0 Translation |==|  0.54625 0.56794 0.47561
USER: genes 1 Rotation |==|  0.49586 0.51619 0.50601 0.99968
USER: genes 2 Torsion [N]-CA--C-[N] |==|  0.43684
USER: genes 3 Torsion [C]-N--CA-[C] |==|  0.71424
USER: genes 4 Torsion [N]-CA--CB-[CG2] |==|  0.76583
USER: genes 5 Torsion [N]-CA--C-[N] |==|  0.34316
USER: genes 6 Torsion [C]-N--CA-[C] |==|  0.82778
USER: genes 7 Torsion [N]-CA--C-[N] |==|  0.30973
USER: genes 8 Torsion [C]-N--CA-[CB] |==|  0.33708
USER: genes 9 Torsion [N]-CA--CB-[CG1] |==|  0.50808
USER: genes 10 Torsion [CA]-CB--CG1-[CD1] |==|  0.37738
USER: genes 11 Torsion [N]-CA--C-[OXT] |==|  0.22264
USER: genes 12 Torsion [N]-CA--CB-[CG] |==|  0.51280
USER: genes 13 Torsion [CA]-CB--CG-[CD] |==|  0.20387
USER: genes 14 Torsion [CB]-CG--CD-[CE] |==|  0.44624
USER: genes 15 Torsion [CG]-CD--CE-[NZ] |==|  0.18589
USER: genes 16 Torsion [CD]-CE--NZ-[HZ1] |==|  0.48778
USER: genes 17 Torsion [C]-CA--CB-[CG] |==|  0.42167
USER: genes 18 Torsion [CA]-CB--CG-[CD2] |==|  0.79670
USER: genes 19 Torsion [C]-CA--N-[C] |==|  0.83856
USER: genes 20 Torsion [N]-C--CA-[CB] |==|  0.73532
USER: genes 21 Torsion [N]-C--CA-[N] |==|  0.43517
USER: genes 22 Torsion [C]-CA--N-[C] |==|  0.58609
USER: genes 23 Torsion [N]-C--CA-[N] |==|  0.97560
USER: genes 24 Torsion [C]-CA--CB-[CG] |==|  0.84830
USER: genes 25 Torsion [CA]-CB--CG-[CD] |==|  0.53756
USER: genes 26 Torsion [CB]-CG--CD-[OE1] |==|  0.65790
USER: genes 27 Torsion [C]-CA--N-[H1] |==|  0.48865
USER: genes 28 Torsion [C]-CA--CB-[CG] |==|  0.43750
USER: genes 29 Torsion [CA]-CB--CG-[CD2] |==|  0.84534
ROOT
ATOM      1  CA  LEU B   4      56.610  87.855  30.024  1.00 30.07 LIG 0.18  C 
ENDROOT
BRANCH 1 2
ATOM      2  C   LEU B   4      55.165  87.852  30.449  1.00 30.58 LIG 0.24  C 
ATOM      3 O    LEU B   4      54.363  88.633  29.933  1.00 35.83 LIG-0.27  OA
ATOM      4  N   VAL B   5      54.839  87.032  31.446  1.00 32.24 LIG-0.35  N 
ATOM      5 H    VAL B   5      55.398  86.501  31.826  1.00 32.24 LIG 0.16  HD
BRANCH 4 6
ATOM      6  CA  VAL B   5      53.480  86.962  31.992  1.00 32.53 LIG 0.18  C 
BRANCH 6 7
ATOM      7  CB  VAL B   5      53.031  85.506  32.217  1.00 34.70 LIG 0.01  C 
ATOM      8  CG2 VAL B   5      52.487  84.953  30.926  1.00 38.22 LIG 0.01  C 
ATOM      9  CG1 VAL B   5      51.984  85.397  33.318  1.00 39.77 LIG 0.01  C 
ENDBRANCH 6 7
BRANCH 6 10
ATOM     10  C   VAL B   5      53.397  87.697  33.301  1.00 39.16 LIG 0.24  C 
ATOM     11 O    VAL B   5      54.162  87.429  34.237  1.00 33.69 LIG-0.27  OA
ATOM     12  N   LYS B   6      52.486  88.654  33.348  1.00 40.12 LIG-0.35  N 
ATOM     13 H    LYS B   6      51.987  88.875  32.682  1.00 40.12 LIG 0.16  HD
BRANCH 12 14
ATOM     14  CA  LYS B   6      52.256  89.415  34.539  1.00 45.41 LIG 0.18  C 
BRANCH 14 15
ATOM     15  C   LYS B   6      51.802  88.363  35.528  1.00 44.99 LIG 0.24  C 
ATOM     16 O    LYS B   6      50.758  87.769  35.350  1.00 45.85 LIG-0.27  OA
ATOM     17  N   ILE B   7      52.582  88.054  36.541  1.00 47.54 LIG-0.34  N 
ATOM     18 H    ILE B   7      53.334  88.422  36.739  1.00 47.54 LIG 0.16  HD
BRANCH 17 19
ATOM     19  CA  ILE B   7      52.122  86.968  37.427  1.00 57.67 LIG 0.19  C 
BRANCH 19 20
ATOM     20  CB  ILE B   7      53.105  85.739  37.549  1.00 59.41 LIG 0.01  C 
ATOM     21  CG2 ILE B   7      54.480  86.155  38.062  1.00 60.58 LIG 0.01  C 
BRANCH 20 22
ATOM     22  CG1 ILE B   7      52.501  84.619  38.444  1.00 65.20 LIG 0.00  C 
ATOM     23  CD1 ILE B   7      52.631  83.177  37.945  1.00 51.92 LIG 0.01  C 
ENDBRANCH 20 22
ENDBRANCH 19 20
BRANCH 19 24
ATOM     24  C   ILE B   7      51.582  87.488  38.768  1.00 61.74 LIG 0.20  C 
ATOM     25 O    ILE B   7      52.233  87.512  39.801  1.00 61.53 LIG-0.65  OA
ATOM     26 OXT  ILE B   7      50.438  87.937  38.839  1.00 68.92 LIG-0.65  OA
ENDBRANCH 19 24
ENDBRANCH 17 19
ENDBRANCH 14 15
BRANCH 14 27
ATOM     27  CB  LYS B   6      51.173  90.462  34.228  1.00 46.87 LIG 0.04  C 
BRANCH 27 28
ATOM     28  CG  LYS B   6      50.880  91.433  35.355  1.00 55.56 LIG 0.00  C 
BRANCH 28 29
ATOM     29  CD  LYS B   6      51.990  92.459  35.538  1.00 60.95 LIG 0.03  C 
BRANCH 29 30
ATOM     30  CE  LYS B   6      51.500  93.686  36.316  1.00 62.93 LIG 0.23  C 
BRANCH 30 31
ATOM     31  NZ  LYS B   6      51.162  93.356  37.735  1.00 65.77 LIG-0.08  N 
ATOM     32 HZ1  LYS B   6      50.943  94.101  38.169  1.00 65.77 LIG 0.27  HD
ATOM     33 HZ2  LYS B   6      50.474  92.790  37.753  1.00 65.77 LIG 0.27  HD
ATOM     34 HZ3  LYS B   6      51.866  92.979  38.128  1.00 65.77 LIG 0.27  HD
ENDBRANCH 30 31
ENDBRANCH 29 30
ENDBRANCH 28 29
ENDBRANCH 27 28
ENDBRANCH 14 27
ENDBRANCH 12 14
ENDBRANCH 6 10
ENDBRANCH 4 6
ENDBRANCH 1 2
BRANCH 1 35
ATOM     35  CB  LEU B   4      57.356  88.750  30.993  1.00 28.63 LIG 0.04  C 
BRANCH 35 36
ATOM     36  CG  LEU B   4      58.813  88.326  31.130  1.00 30.56 LIG-0.02  C 
ATOM     37  CD2 LEU B   4      58.874  87.048  31.938  1.00 33.80 LIG 0.01  C 
ATOM     38  CD1 LEU B   4      59.581  89.451  31.844  1.00 28.87 LIG 0.01  C 
ENDBRANCH 35 36
ENDBRANCH 1 35
BRANCH 1 39
ATOM     39  N   LEU B   4      56.917  88.321  28.652  1.00 28.62 LIG-0.35  N 
ATOM     40 H    LEU B   4      57.458  88.988  28.611  1.00 28.62 LIG 0.16  HD
ATOM     41  C   PRO B   3      56.381  87.731  27.602  1.00 33.12 LIG 0.24  C 
ATOM     42 O    PRO B   3      55.791  86.638  27.654  1.00 32.36 LIG-0.27  OA
BRANCH 41 43
ATOM     43  CA  PRO B   3      56.571  88.458  26.273  1.00 33.48 LIG 0.18  C 
ATOM     44  CB  PRO B   3      55.340  89.349  25.953  1.00 32.62 LIG 0.04  C 
ATOM     45  CG  PRO B   3      55.076  89.148  24.484  1.00 32.85 LIG 0.02  C 
ATOM     46  CD  PRO B   3      55.540  87.727  24.175  1.00 29.95 LIG 0.13  C 
ATOM     47  N   PRO B   3      56.554  87.446  25.233  1.00 33.01 LIG-0.34  N 
ATOM     48  C   LEU B   2      57.468  86.453  25.305  1.00 31.97 LIG 0.24  C 
ATOM     49 O    LEU B   2      58.398  86.426  26.117  1.00 33.64 LIG-0.27  OA
BRANCH 48 50
ATOM     50  CA  LEU B   2      57.358  85.349  24.278  1.00 32.67 LIG 0.18  C 
BRANCH 50 51
ATOM     51  N   LEU B   2      58.690  84.761  24.191  1.00 33.85 LIG-0.35  N 
ATOM     52 H    LEU B   2      59.129  84.796  24.929  1.00 33.85 LIG 0.16  HD
ATOM     53  C   GLU B   1      59.182  84.222  23.080  1.00 36.42 LIG 0.25  C 
ATOM     54 O    GLU B   1      58.461  83.930  22.112  1.00 32.31 LIG-0.27  OA
BRANCH 53 55
ATOM     55  CA  GLU B   1      60.687  83.871  23.100  1.00 35.71 LIG 0.28  C 
BRANCH 55 56
ATOM     56  CB  GLU B   1      60.835  82.346  23.051  1.00 39.23 LIG 0.05  C 
BRANCH 56 57
ATOM     57  CG  GLU B   1      60.056  81.640  24.161  1.00 48.64 LIG 0.12  C 
BRANCH 57 58
ATOM     58  CD  GLU B   1      60.410  80.162  24.375  1.00 56.94 LIG 0.17  C 
ATOM     59 OE1  GLU B   1      59.478  79.345  24.287  1.00 65.53 LIG-0.65  OA
ATOM     60 OE2  GLU B   1      61.588  79.794  24.646  1.00 53.19 LIG-0.65  OA
ENDBRANCH 57 58
ENDBRANCH 56 57
ENDBRANCH 55 56
BRANCH 55 61
ATOM     61  N   GLU B   1      61.370  84.408  24.326  1.00 36.67 LIG-0.07  N 
ATOM     62 H1   GLU B   1      62.218  84.139  24.336  1.00 36.67 LIG 0.28  HD
ATOM     63 H3   GLU B   1      60.955  84.106  25.054  1.00 36.67 LIG 0.28  HD
ATOM     64 H2   GLU B   1      61.341  85.298  24.317  1.00 36.67 LIG 0.28  HD
ENDBRANCH 55 61
ENDBRANCH 53 55
ENDBRANCH 50 51
BRANCH 50 65
ATOM     65  CB  LEU B   2      56.282  84.327  24.728  1.00 34.84 LIG 0.04  C 
BRANCH 65 66
ATOM     66  CG  LEU B   2      55.651  83.460  23.626  1.00 34.30 LIG-0.02  C 
ATOM     67  CD2 LEU B   2      55.035  84.316  22.506  1.00 39.39 LIG 0.01  C 
ATOM     68  CD1 LEU B   2      54.619  82.469  24.170  1.00 34.61 LIG 0.01  C 
ENDBRANCH 65 66
ENDBRANCH 50 65
ENDBRANCH 48 50
ENDBRANCH 41 43
ENDBRANCH 1 39
TORSDOF 28
