USER: ADFR SOLUTION from run 0
USER: SCORE 13.837502 LL:  -2.117 LR: -13.570 RR:   0.000 FEB:  -7.604
USER: RMSD 1.620540
USER: STATUS Locally minimized using BFGS
USER: GENES 22
USER: genes 0 Translation |==|  0.56323 0.52269 0.48001
USER: genes 1 Rotation |==|  0.46207 0.50530 0.44187 0.99513
USER: genes 2 Torsion [C]-CA--N-[C] |==|  0.76122
USER: genes 3 Torsion [N]-C--CA-[N] |==|  0.62892
USER: genes 4 Torsion [C]-CA--CB-[CG] |==|  0.83697
USER: genes 5 Torsion [CA]-CB--CG-[CD] |==|  0.45070
USER: genes 6 Torsion [CB]-CG--CD-[NE] |==|  0.96978
USER: genes 7 Torsion [CG]-CD--NE-[CZ] |==|  0.79070
USER: genes 8 Torsion [N]-CA--C-[N] |==|  0.85107
USER: genes 9 Torsion [C]-N--CA-[CB] |==|  0.27778
USER: genes 10 Torsion [N]-CA--C-[N] |==|  0.20086
USER: genes 11 Torsion [C]-N--CA-[C] |==|  0.83917
USER: genes 12 Torsion [N]-CA--C-[O] |==|  0.90161
USER: genes 13 Torsion [N]-CA--CB-[CG] |==|  0.76222
USER: genes 14 Torsion [CA]-CB--CG-[CD1] |==|  0.81307
USER: genes 15 Torsion [N]-CA--CB-[CG2] |==|  0.58107
USER: genes 16 Torsion [CA]-CB--CG1-[CD1] |==|  0.76296
USER: genes 17 Torsion [N]-CA--CB-[CG] |==|  0.71701
USER: genes 18 Torsion [CA]-CB--CG-[CD] |==|  0.35391
USER: genes 19 Torsion [CB]-CG--CD-[CE] |==|  0.53154
USER: genes 20 Torsion [CG]-CD--CE-[NZ] |==|  0.99713
USER: genes 21 Torsion [CD]-CE--NZ-[HZ2] |==|  0.79858
ROOT
ATOM      1  CA  LYS C   3      22.078   3.908  20.891  1.00 27.41 LIG 0.18  C 
ENDROOT
BRANCH 1 2
ATOM      2  N   LYS C   3      20.860   4.025  21.711  1.00 28.91 LIG-0.35  N 
ATOM      3  C   ARG C   2      19.862   4.808  21.310  1.00 30.62 LIG 0.26  C 
ATOM      4 O    ARG C   2      19.842   5.291  20.177  1.00 31.16 LIG-0.27  OA
ATOM      5 H    LYS C   3      20.859   3.560  22.434  1.00 28.91 LIG 0.16  HD
BRANCH 3 6
ATOM      6  CA  ARG C   2      18.708   5.137  22.281  1.00 31.50 LIG 0.40  C 
ATOM      7  N   ARG C   2      17.399   4.974  21.606  1.00 33.48 LIG 0.61  N 
BRANCH 6 8
ATOM      8  CB  ARG C   2      18.741   4.347  23.591  1.00 31.91 LIG 0.05  C 
BRANCH 8 9
ATOM      9  CG  ARG C   2      18.695   2.825  23.440  1.00 31.74 LIG 0.02  C 
BRANCH 9 10
ATOM     10  CD  ARG C   2      19.161   2.125  24.710  1.00 33.46 LIG 0.14  C 
BRANCH 10 11
ATOM     11  NE  ARG C   2      19.785   3.015  25.701  1.00 33.35 LIG-0.23  N 
ATOM     12  CZ  ARG C   2      21.010   3.530  25.624  1.00 33.45 LIG 0.67  C 
ATOM     13  NH1 ARG C   2      21.785   3.283  24.583  1.00 31.52 LIG-0.23  N 
ATOM     14  NH2 ARG C   2      21.464   4.318  26.598  1.00 34.66 LIG-0.23  N 
ATOM     15 1HH1 ARG C   2      21.499   2.784  23.944  1.00 31.52 LIG 0.17  HD
ATOM     16 2HH1 ARG C   2      22.574   3.622  24.544  1.00 31.52 LIG 0.17  HD
ATOM     17 1HH2 ARG C   2      20.966   4.494  27.276  1.00 34.66 LIG 0.17  HD
ATOM     18 2HH2 ARG C   2      22.256   4.651  26.548  1.00 34.66 LIG 0.17  HD
ATOM     19 HE   ARG C   2      19.317   3.221  26.392  1.00 33.35 LIG 0.18  HD
ENDBRANCH 10 11
ENDBRANCH 9 10
ENDBRANCH 8 9
ENDBRANCH 6 8
ENDBRANCH 3 6
ENDBRANCH 1 2
BRANCH 1 20
ATOM     20  C   LYS C   3      22.061   2.872  19.773  1.00 25.28 LIG 0.24  C 
ATOM     21 O    LYS C   3      22.362   3.222  18.647  1.00 21.80 LIG-0.27  OA
ATOM     22  N   ILE C   4      21.746   1.618  20.071  1.00 24.70 LIG-0.35  N 
ATOM     23 H    ILE C   4      21.449   1.358  20.835  1.00 24.70 LIG 0.16  HD
BRANCH 22 24
ATOM     24  CA  ILE C   4      21.889   0.556  19.073  1.00 24.27 LIG 0.18  C 
BRANCH 24 25
ATOM     25  C   ILE C   4      20.683  -0.393  19.023  1.00 24.50 LIG 0.24  C 
ATOM     26  N   LEU C   5      19.571   0.109  18.486  1.00 23.50 LIG-0.34  N 
ATOM     27 H    LEU C   5      19.499   0.926  18.228  1.00 23.50 LIG 0.16  HD
ATOM     28 O    ILE C   4      20.769  -1.552  19.438  1.00 23.85 LIG-0.27  OA
BRANCH 26 29
ATOM     29  CA  LEU C   5      18.360  -0.682  18.283  1.00 24.14 LIG 0.18  C 
BRANCH 29 30
ATOM     30  C   LEU C   5      18.678  -1.892  17.397  1.00 24.32 LIG 0.20  C 
ATOM     31 O    LEU C   5      19.508  -1.777  16.484  1.00 24.96 LIG-0.65  OA
ATOM     32 OXT  LEU C   5      18.163  -3.004  17.574  1.00 24.51 LIG-0.65  OA
ENDBRANCH 29 30
BRANCH 29 33
ATOM     33  CB  LEU C   5      17.267   0.189  17.654  1.00 23.93 LIG 0.04  C 
BRANCH 33 34
ATOM     34  CG  LEU C   5      16.368   1.039  18.579  1.00 26.81 LIG-0.02  C 
ATOM     35  CD1 LEU C   5      15.467   0.150  19.445  1.00 29.09 LIG 0.01  C 
ATOM     36  CD2 LEU C   5      17.173   1.972  19.462  1.00 28.70 LIG 0.01  C 
ENDBRANCH 33 34
ENDBRANCH 29 33
ENDBRANCH 26 29
ENDBRANCH 24 25
BRANCH 24 37
ATOM     37  CB  ILE C   4      23.175  -0.255  19.273  1.00 24.66 LIG 0.01  C 
ATOM     38  CG2 ILE C   4      23.678  -0.810  17.933  1.00 24.52 LIG 0.01  C 
BRANCH 37 39
ATOM     39  CG1 ILE C   4      24.250   0.581  19.977  1.00 25.15 LIG 0.00  C 
ATOM     40  CD1 ILE C   4      25.083   1.441  19.061  1.00 24.74 LIG 0.01  C 
ENDBRANCH 37 39
ENDBRANCH 24 37
ENDBRANCH 22 24
ENDBRANCH 1 20
BRANCH 1 41
ATOM     41  CB  LYS C   3      23.345   3.717  21.716  1.00 27.76 LIG 0.04  C 
BRANCH 41 42
ATOM     42  CG  LYS C   3      24.153   4.971  21.853  1.00 29.79 LIG 0.00  C 
BRANCH 42 43
ATOM     43  CD  LYS C   3      24.454   5.261  23.293  1.00 31.63 LIG 0.03  C 
BRANCH 43 44
ATOM     44  CE  LYS C   3      25.024   6.660  23.456  1.00 35.23 LIG 0.23  C 
BRANCH 44 45
ATOM     45  NZ  LYS C   3      25.160   7.367  22.155  1.00 39.07 LIG-0.08  N 
ATOM     46 HZ3  LYS C   3      24.406   7.281  21.690  1.00 39.07 LIG 0.27  HD
ATOM     47 HZ2  LYS C   3      25.835   7.013  21.695  1.00 39.07 LIG 0.27  HD
ATOM     48 HZ1  LYS C   3      25.321   8.230  22.302  1.00 39.07 LIG 0.27  HD
ENDBRANCH 44 45
ENDBRANCH 43 44
ENDBRANCH 42 43
ENDBRANCH 41 42
ENDBRANCH 1 41
TORSDOF 20
