USER: ADFR SOLUTION from run 0
USER: SCORE 13.518364 LL:  -3.142 LR: -12.110 RR:   0.000 FEB:  -5.846
USER: RMSD 0.512933
USER: STATUS Locally minimized using BFGS
USER: GENES 23
USER: genes 0 Translation |==|  0.56673 0.45512 0.43225
USER: genes 1 Rotation |==|  0.49803 0.49501 0.48678 0.99980
USER: genes 2 Torsion [N]-CA--C-[N] |==|  0.42576
USER: genes 3 Torsion [N]-CA--C-[O] |==|  0.90827
USER: genes 4 Torsion [C]-N--CA-[CB] |==|  0.39759
USER: genes 5 Torsion [N]-CA--CB-[CG] |==|  0.52759
USER: genes 6 Torsion [CA]-CB--CG-[CD1] |==|  0.15108
USER: genes 7 Torsion [N]-CA--C-[N] |==|  0.35717
USER: genes 8 Torsion [C]-N--CA-[CB] |==|  0.33204
USER: genes 9 Torsion [N]-CA--CB-[CG1] |==|  0.54818
USER: genes 10 Torsion [N]-CA--C-[O] |==|  0.78246
USER: genes 11 Torsion [C]-CA--CB-[CG] |==|  0.09564
USER: genes 12 Torsion [CA]-CB--CG-[CD] |==|  0.51558
USER: genes 13 Torsion [CB]-CG--CD-[CE] |==|  0.12531
USER: genes 14 Torsion [CG]-CD--CE-[NZ] |==|  0.52434
USER: genes 15 Torsion [CD]-CE--NZ-[HZ2] |==|  0.83329
USER: genes 16 Torsion [C]-CA--N-[C] |==|  0.78906
USER: genes 17 Torsion [N]-C--CA-[N] |==|  0.40021
USER: genes 18 Torsion [N]-C--CA-[N] |==|  0.38446
USER: genes 19 Torsion [C]-CA--CB-[CG] |==|  0.45606
USER: genes 20 Torsion [CA]-CB--CG-[CD] |==|  0.82368
USER: genes 21 Torsion [CB]-CG--CD-[NE] |==|  0.74875
USER: genes 22 Torsion [CG]-CD--NE-[HE] |==|  0.02263
ROOT
ATOM      1  CA  LYS B  51      24.121 -23.842  -5.592  1.00 67.60 LIG 0.18  C 
ENDROOT
BRANCH 1 2
ATOM      2  C   LYS B  51      22.750 -23.261  -5.111  1.00 65.68 LIG 0.24  C 
ATOM      3  N   PRO B  52      22.018 -22.513  -5.982  1.00 68.58 LIG-0.34  N 
ATOM      4  CD  PRO B  52      22.394 -21.768  -7.207  1.00 71.17 LIG 0.13  C 
ATOM      5  CA  PRO B  52      20.654 -22.157  -5.514  1.00 62.52 LIG 0.18  C 
ATOM      6  CG  PRO B  52      21.365 -20.656  -7.260  1.00 68.49 LIG 0.02  C 
ATOM      7  CB  PRO B  52      20.137 -21.223  -6.615  1.00 62.23 LIG 0.04  C 
ATOM      8 O    LYS B  51      22.391 -23.415  -3.930  1.00 49.94 LIG-0.27  OA
BRANCH 5 9
ATOM      9  C   PRO B  52      19.736 -23.402  -5.336  1.00 62.23 LIG 0.24  C 
ATOM     10 O    PRO B  52      19.878 -24.380  -6.096  1.00 52.82 LIG-0.27  OA
ATOM     11  N   LEU B  53      18.872 -23.380  -4.301  1.00 59.38 LIG-0.35  N 
ATOM     12 H    LEU B  53      18.881 -22.765  -3.701  1.00 59.38 LIG 0.16  HD
BRANCH 11 13
ATOM     13  CA  LEU B  53      17.822 -24.398  -4.081  1.00 58.77 LIG 0.18  C 
BRANCH 13 14
ATOM     14  CB  LEU B  53      17.617 -24.716  -2.572  1.00 52.29 LIG 0.04  C 
BRANCH 14 15
ATOM     15  CG  LEU B  53      16.718 -25.931  -2.185  1.00 62.01 LIG-0.02  C 
ATOM     16  CD2 LEU B  53      16.584 -26.107  -0.666  1.00 53.58 LIG 0.01  C 
ATOM     17  CD1 LEU B  53      17.148 -27.261  -2.848  1.00 50.45 LIG 0.01  C 
ENDBRANCH 14 15
ENDBRANCH 13 14
BRANCH 13 18
ATOM     18  C   LEU B  53      16.521 -23.881  -4.737  1.00 60.22 LIG 0.24  C 
ATOM     19  N   VAL B  54      15.880 -24.706  -5.583  1.00 61.95 LIG-0.35  N 
ATOM     20 H    VAL B  54      16.115 -25.519  -5.733  1.00 61.95 LIG 0.16  HD
ATOM     21 O    LEU B  53      16.128 -22.733  -4.501  1.00 54.25 LIG-0.27  OA
BRANCH 19 22
ATOM     22  CA  VAL B  54      14.676 -24.257  -6.344  1.00 71.55 LIG 0.17  C 
BRANCH 22 23
ATOM     23  CB  VAL B  54      14.852 -24.319  -7.910  1.00 67.56 LIG 0.01  C 
ATOM     24  CG1 VAL B  54      13.801 -23.476  -8.638  1.00 60.73 LIG 0.01  C 
ATOM     25  CG2 VAL B  54      16.250 -23.887  -8.348  1.00 61.59 LIG 0.01  C 
ENDBRANCH 22 23
BRANCH 22 26
ATOM     26  C   VAL B  54      13.411 -24.996  -5.892  1.00 64.78 LIG 0.22  C 
ATOM     27 O    VAL B  54      13.193 -26.134  -6.276  1.00 73.26 LIG-0.29  OA
ENDBRANCH 22 26
ENDBRANCH 19 22
ENDBRANCH 13 18
ENDBRANCH 11 13
ENDBRANCH 5 9
ENDBRANCH 1 2
BRANCH 1 28
ATOM     28  CB  LYS B  51      24.072 -25.163  -6.401  1.00 70.72 LIG 0.04  C 
BRANCH 28 29
ATOM     29  CG  LYS B  51      22.897 -25.429  -7.345  1.00 73.15 LIG 0.00  C 
BRANCH 29 30
ATOM     30  CD  LYS B  51      22.991 -26.844  -7.925  1.00 70.67 LIG 0.03  C 
BRANCH 30 31
ATOM     31  CE  LYS B  51      23.328 -27.863  -6.844  1.00 67.82 LIG 0.23  C 
BRANCH 31 32
ATOM     32  NZ  LYS B  51      23.621 -29.181  -7.453  1.00 73.20 LIG-0.08  N 
ATOM     33 HZ2  LYS B  51      22.909 -29.464  -7.906  1.00 73.20 LIG 0.27  HD
ATOM     34 HZ3  LYS B  51      24.314 -29.105  -8.006  1.00 73.20 LIG 0.27  HD
ATOM     35 HZ1  LYS B  51      23.817 -29.767  -6.812  1.00 73.20 LIG 0.27  HD
ENDBRANCH 31 32
ENDBRANCH 30 31
ENDBRANCH 29 30
ENDBRANCH 28 29
ENDBRANCH 1 28
BRANCH 1 36
ATOM     36  N   LYS B  51      25.012 -24.036  -4.441  1.00 65.69 LIG-0.35  N 
ATOM     37 H    LYS B  51      25.097 -24.853  -4.187  1.00 65.69 LIG 0.16  HD
ATOM     38  C   PRO B  50      25.622 -23.004  -3.860  1.00 68.91 LIG 0.24  C 
ATOM     39 O    PRO B  50      25.397 -21.819  -4.197  1.00 63.49 LIG-0.27  OA
BRANCH 38 40
ATOM     40  CA  PRO B  50      26.668 -23.333  -2.754  1.00 65.85 LIG 0.18  C 
ATOM     41  N   PRO B  50      27.812 -22.390  -2.782  1.00 60.71 LIG-0.34  N 
ATOM     42  CD  PRO B  50      27.669 -21.358  -1.731  1.00 60.54 LIG 0.13  C 
ATOM     43  C   ARG B  49      28.626 -22.436  -3.887  1.00 60.43 LIG 0.26  C 
ATOM     44  CG  PRO B  50      26.347 -21.702  -1.038  1.00 54.86 LIG 0.02  C 
ATOM     45  CB  PRO B  50      26.080 -23.135  -1.343  1.00 61.52 LIG 0.04  C 
ATOM     46 O    ARG B  49      28.417 -23.217  -4.848  1.00 53.87 LIG-0.27  OA
BRANCH 43 47
ATOM     47  CA  ARG B  49      29.841 -21.463  -3.956  1.00 56.75 LIG 0.40  C 
ATOM     48  N   ARG B  49      31.098 -22.129  -4.499  1.00 50.64 LIG 0.61  N 
BRANCH 47 49
ATOM     49  CB  ARG B  49      29.481 -20.210  -4.806  1.00 51.37 LIG 0.05  C 
BRANCH 49 50
ATOM     50  CG  ARG B  49      30.429 -19.016  -4.647  1.00 44.94 LIG 0.02  C 
BRANCH 50 51
ATOM     51  CD  ARG B  49      30.409 -18.456  -3.195  1.00 41.72 LIG 0.14  C 
BRANCH 51 52
ATOM     52  NE  ARG B  49      29.406 -17.406  -3.010  1.00 39.59 LIG-0.23  N 
ATOM     53 HE   ARG B  49      28.860 -17.271  -3.661  1.00 39.59 LIG 0.18  HD
ATOM     54  CZ  ARG B  49      29.258 -16.637  -1.928  1.00 39.90 LIG 0.67  C 
ATOM     55  NH1 ARG B  49      30.105 -16.743  -0.897  1.00 39.18 LIG-0.23  N 
ATOM     56  NH2 ARG B  49      28.284 -15.706  -1.900  1.00 31.35 LIG-0.23  N 
ATOM     57 2HH1 ARG B  49      30.003 -16.245  -0.203  1.00 39.18 LIG 0.17  HD
ATOM     58 1HH1 ARG B  49      30.752 -17.309  -0.928  1.00 39.18 LIG 0.17  HD
ATOM     59 1HH2 ARG B  49      27.762 -15.610  -2.577  1.00 31.35 LIG 0.17  HD
ATOM     60 2HH2 ARG B  49      28.185 -15.209  -1.206  1.00 31.35 LIG 0.17  HD
ENDBRANCH 51 52
ENDBRANCH 50 51
ENDBRANCH 49 50
ENDBRANCH 47 49
ENDBRANCH 43 47
ENDBRANCH 38 40
ENDBRANCH 1 36
TORSDOF 21
