REMARK  21 active torsions:
REMARK  status: ('A' for Active; 'I' for Inactive)
REMARK    1  A    between atoms: CA_2  and  C_3 
REMARK    2  A    between atoms: CA_2  and  CB_5 
REMARK       I    between atoms: C_3  and  N_17 
REMARK    3  A    between atoms: CB_5  and  CG_6 
REMARK    4  A    between atoms: CG_6  and  CD_7 
REMARK    5  A    between atoms: CD_7  and  NE_8 
REMARK       I    between atoms: NE_8  and  CZ_9 
REMARK       I    between atoms: CZ_9  and  NH1_10 
REMARK    6  A    between atoms: CA_18  and  C_19 
REMARK       I    between atoms: C_19  and  N_24 
REMARK    7  A    between atoms: N_24  and  CA_25 
REMARK    8  A    between atoms: CA_25  and  C_26 
REMARK    9  A    between atoms: CA_25  and  CB_28 
REMARK       I    between atoms: C_26  and  N_37 
REMARK   10  A    between atoms: CB_28  and  CG_29 
REMARK   11  A    between atoms: CG_29  and  CD_30 
REMARK   12  A    between atoms: CD_30  and  CE_31 
REMARK   13  A    between atoms: CE_31  and  NZ_32 
REMARK   14  A    between atoms: CA_38  and  C_39 
REMARK       I    between atoms: C_39  and  N_44 
REMARK   15  A    between atoms: N_44  and  CA_45 
REMARK   16  A    between atoms: CA_45  and  CB_48 
REMARK   17  A    between atoms: CA_45  and  C_46 
REMARK       I    between atoms: C_46  and  N_53 
REMARK   18  A    between atoms: CB_48  and  CG_49 
REMARK   19  A    between atoms: N_53  and  CA_54 
REMARK   20  A    between atoms: CA_54  and  CB_57 
REMARK   21  A    between atoms: CA_54  and  C_55 
ROOT
ATOM      1  CA  LYS B  51      24.089 -23.927  -5.741  1.00 67.60     0.176 C 
ENDROOT
BRANCH   1   2
ATOM      2  C   LYS B  51      22.700 -23.423  -5.228  1.00 65.68     0.243 C 
ATOM      3  N   PRO B  52      21.904 -22.725  -6.084  1.00 68.58    -0.337 N 
ATOM      4  CD  PRO B  52      22.204 -21.968  -7.323  1.00 71.17     0.127 C 
ATOM      5  CA  PRO B  52      20.533 -22.445  -5.583  1.00 62.52     0.179 C 
ATOM      6  CG  PRO B  52      21.112 -20.918  -7.356  1.00 68.49     0.022 C 
ATOM      7  CB  PRO B  52      19.935 -21.551  -6.676  1.00 62.23     0.037 C 
ATOM      8  O   LYS B  51      22.380 -23.589  -4.037  1.00 49.94    -0.271 OA
BRANCH   5   9
ATOM      9  C   PRO B  52      19.694 -23.740  -5.375  1.00 62.23     0.241 C 
ATOM     10  O   PRO B  52      19.890 -24.722  -6.118  1.00 52.82    -0.271 OA
ATOM     11  N   LEU B  53      18.838 -23.751  -4.333  1.00 59.38    -0.346 N 
ATOM     12  H   LEU B  53      18.814 -23.125  -3.744  1.00 59.38     0.163 HD
BRANCH  11  13
ATOM     13  CA  LEU B  53      17.854 -24.826  -4.085  1.00 58.77     0.177 C 
BRANCH  13  14
ATOM     14  CB  LEU B  53      17.753 -25.197  -2.578  1.00 52.29     0.038 C 
BRANCH  14  15
ATOM     15  CG  LEU B  53      16.972 -26.488  -2.181  1.00 62.01    -0.020 C 
ATOM     16  CD2 LEU B  53      16.934 -26.714  -0.663  1.00 53.58     0.009 C 
ATOM     17  CD1 LEU B  53      17.466 -27.763  -2.905  1.00 50.45     0.009 C 
ENDBRANCH  14  15
ENDBRANCH  13  14
BRANCH  13  18
ATOM     18  C   LEU B  53      16.493 -24.357  -4.649  1.00 60.22     0.241 C 
ATOM     19  N   VAL B  54      15.869 -25.165  -5.523  1.00 61.95    -0.347 N 
ATOM     20  H   VAL B  54      16.150 -25.948  -5.740  1.00 61.95     0.163 HD
ATOM     21  O   LEU B  53      16.037 -23.257  -4.317  1.00 54.25    -0.271 OA
BRANCH  19  22
ATOM     22  CA  VAL B  54      14.605 -24.750  -6.201  1.00 71.55     0.166 C 
BRANCH  22  23
ATOM     23  CB  VAL B  54      14.723 -24.657  -7.771  1.00 67.56     0.008 C 
ATOM     24  CG1 VAL B  54      13.558 -23.877  -8.387  1.00 60.73     0.012 C 
ATOM     25  CG2 VAL B  54      16.047 -24.035  -8.210  1.00 61.59     0.012 C 
ENDBRANCH  22  23
BRANCH  22  26
ATOM     26  C   VAL B  54      13.420 -25.627  -5.779  1.00 64.78     0.219 C 
ATOM     27  O   VAL B  54      13.278 -26.741  -6.258  1.00 73.26    -0.287 OA
ENDBRANCH  22  26
ENDBRANCH  19  22
ENDBRANCH  13  18
ENDBRANCH  11  13
ENDBRANCH   5   9
ENDBRANCH   1   2
BRANCH   1  28
ATOM     28  CB  LYS B  51      24.094 -25.243  -6.560  1.00 70.72     0.035 C 
BRANCH  28  29
ATOM     29  CG  LYS B  51      22.915 -25.564  -7.482  1.00 73.15     0.004 C 
BRANCH  29  30
ATOM     30  CD  LYS B  51      23.078 -26.964  -8.084  1.00 70.67     0.027 C 
BRANCH  30  31
ATOM     31  CE  LYS B  51      23.497 -27.976  -7.025  1.00 67.82     0.229 C 
BRANCH  31  32
ATOM     32  NZ  LYS B  51      23.849 -29.267  -7.658  1.00 73.20    -0.079 N 
ATOM     33  HZ2 LYS B  51      23.144 -29.584  -8.099  1.00 73.20     0.274 HD
ATOM     34  HZ3 LYS B  51      24.523 -29.145  -8.226  1.00 73.20     0.274 HD
ATOM     35  HZ1 LYS B  51      24.092 -29.849  -7.030  1.00 73.20     0.274 HD
ENDBRANCH  31  32
ENDBRANCH  30  31
ENDBRANCH  29  30
ENDBRANCH  28  29
ENDBRANCH   1  28
BRANCH   1  36
ATOM     36  N   LYS B  51      25.012 -24.082  -4.609  1.00 65.69    -0.346 N 
ATOM     37  H   LYS B  51      25.088 -24.887  -4.316  1.00 65.69     0.163 HD
ATOM     38  C   PRO B  50      25.662 -23.036  -4.102  1.00 68.91     0.241 C 
ATOM     39  O   PRO B  50      25.451 -21.865  -4.492  1.00 63.49    -0.271 OA
BRANCH  38  40
ATOM     40  CA  PRO B  50      26.736 -23.332  -3.013  1.00 65.85     0.179 C 
ATOM     41  N   PRO B  50      27.928 -22.464  -3.168  1.00 60.71    -0.337 N 
ATOM     42  CD  PRO B  50      27.890 -21.340  -2.206  1.00 60.54     0.127 C 
ATOM     43  C   ARG B  49      28.689 -22.652  -4.296  1.00 60.43     0.259 C 
ATOM     44  CG  PRO B  50      26.583 -21.544  -1.435  1.00 54.86     0.022 C 
ATOM     45  CB  PRO B  50      26.222 -22.980  -1.603  1.00 61.52     0.037 C 
ATOM     46  O   ARG B  49      28.394 -23.498  -5.176  1.00 53.87    -0.271 OA
BRANCH  43  47
ATOM     47  CA  ARG B  49      29.952 -21.763  -4.497  1.00 56.75     0.400 C 
ATOM     48  N   ARG B  49      31.122 -22.530  -5.099  1.00 50.64     0.615 N 
BRANCH  47  49
ATOM     49  CB  ARG B  49      29.606 -20.525  -5.374  1.00 51.37     0.053 C 
BRANCH  49  50
ATOM     50  CG  ARG B  49      30.622 -19.378  -5.319  1.00 44.94     0.023 C 
BRANCH  50  51
ATOM     51  CD  ARG B  49      30.842 -18.875  -3.863  1.00 41.72     0.138 C 
BRANCH  51  52
ATOM     52  NE  ARG B  49      29.876 -17.846  -3.471  1.00 39.59    -0.227 N 
ATOM     53  HE  ARG B  49      29.258 -17.657  -4.038  1.00 39.59     0.177 HD
ATOM     54  CZ  ARG B  49      29.864 -17.174  -2.317  1.00 39.90     0.665 C 
ATOM     55  NH1 ARG B  49      30.827 -17.366  -1.407  1.00 39.18    -0.235 N 
ATOM     56  NH2 ARG B  49      28.908 -16.251  -2.094  1.00 31.35    -0.235 N 
ATOM     57 HH12 ARG B  49      30.812 -16.929  -0.666  1.00 39.18     0.174 HD
ATOM     58 HH11 ARG B  49      31.461 -17.926  -1.563  1.00 39.18     0.174 HD
ATOM     59 HH21 ARG B  49      28.310 -16.098  -2.693  1.00 31.35     0.174 HD
ATOM     60 HH22 ARG B  49      28.896 -15.815  -1.353  1.00 31.35     0.174 HD
ENDBRANCH  51  52
ENDBRANCH  50  51
ENDBRANCH  49  50
ENDBRANCH  47  49
ENDBRANCH  43  47
ENDBRANCH  38  40
ENDBRANCH   1  36
TORSDOF 21
