REMARK  21 active torsions:
REMARK  status: ('A' for Active; 'I' for Inactive)
REMARK    1  A    between atoms: N_1  and  CA_2 
REMARK    2  A    between atoms: CA_2  and  CB_5 
REMARK    3  A    between atoms: CA_2  and  C_3 
REMARK       I    between atoms: C_3  and  N_11 
REMARK    4  A    between atoms: N_11  and  CA_12 
REMARK    5  A    between atoms: CA_12  and  C_13 
REMARK    6  A    between atoms: CA_12  and  CB_15 
REMARK       I    between atoms: C_13  and  N_25 
REMARK    7  A    between atoms: CB_15  and  CG_16 
REMARK    8  A    between atoms: CZ_21  and  OH_22 
REMARK    9  A    between atoms: N_25  and  CA_26 
REMARK   10  A    between atoms: CA_26  and  C_27 
REMARK   11  A    between atoms: CA_26  and  CB_29 
REMARK       I    between atoms: C_27  and  N_34 
REMARK   12  A    between atoms: CB_29  and  CG1_30 
REMARK   13  A    between atoms: N_34  and  CA_35 
REMARK   14  A    between atoms: CA_35  and  C_36 
REMARK   15  A    between atoms: CA_35  and  CB_38 
REMARK       I    between atoms: C_36  and  N_45 
REMARK   16  A    between atoms: CB_38  and  CG_39 
REMARK   17  A    between atoms: CA_46  and  C_47 
REMARK       I    between atoms: C_47  and  N_52 
REMARK   18  A    between atoms: N_52  and  CA_53 
REMARK   19  A    between atoms: CA_53  and  C_54 
REMARK   20  A    between atoms: CA_53  and  CB_56 
REMARK   21  A    between atoms: CB_56  and  CG_57 
ROOT
ATOM      1  C   ILE C   3     103.060  18.725  17.213  1.00 36.59     0.241 C 
ATOM      2  O   ILE C   3     102.719  19.909  17.219  1.00 38.27    -0.271 OA
ATOM      3  N   HIS C   4     102.579  17.859  16.320  1.00 46.08    -0.346 N 
ATOM      4  H   HIS C   4     102.787  17.027  16.260  1.00 46.08     0.163 HD
ENDROOT
BRANCH   1   5
ATOM      5  CA  ILE C   3     104.077  18.233  18.252  1.00 34.07     0.180 C 
BRANCH   5   6
ATOM      6  CB  ILE C   3     103.479  18.259  19.671  1.00 34.47     0.013 C 
ATOM      7  CG2 ILE C   3     102.016  17.804  19.677  1.00 38.92     0.012 C 
BRANCH   6   8
ATOM      8  CG1 ILE C   3     104.331  17.384  20.589  1.00 35.39     0.002 C 
ATOM      9  CD1 ILE C   3     104.139  17.699  22.051  1.00 37.65     0.005 C 
ENDBRANCH   6   8
ENDBRANCH   5   6
BRANCH   5  10
ATOM     10  N   ILE C   3     105.227  19.131  18.196  1.00 27.24    -0.346 N 
ATOM     11  H   ILE C   3     105.033  19.960  18.318  1.00 27.24     0.163 HD
ATOM     12  C   TYR C   2     106.454  18.689  17.976  1.00 25.56     0.241 C 
ATOM     13  O   TYR C   2     106.747  17.502  17.953  1.00 25.11    -0.271 OA
BRANCH  12  14
ATOM     14  CA  TYR C   2     107.528  19.756  17.801  1.00 24.41     0.180 C 
BRANCH  14  15
ATOM     15  CB  TYR C   2     107.963  19.822  16.345  1.00 23.53     0.073 C 
BRANCH  15  16
ATOM     16  CG  TYR C   2     106.809  20.189  15.444  1.00 26.01    -0.056 A 
ATOM     17  CD2 TYR C   2     105.926  19.199  14.960  1.00 25.97     0.010 A 
ATOM     18  CE2 TYR C   2     104.848  19.533  14.162  1.00 26.70     0.037 A 
ATOM     19  CZ  TYR C   2     104.636  20.844  13.830  1.00 26.24     0.065 A 
ATOM     20  CE1 TYR C   2     105.475  21.851  14.301  1.00 24.75     0.037 A 
ATOM     21  CD1 TYR C   2     106.555  21.516  15.110  1.00 24.78     0.010 A 
BRANCH  19  22
ATOM     22  OH  TYR C   2     103.569  21.145  13.031  1.00 29.14    -0.361 OA
ATOM     23  HH  TYR C   2     103.162  20.439  12.829  1.00 29.14     0.217 HD
ENDBRANCH  19  22
ENDBRANCH  15  16
ENDBRANCH  14  15
BRANCH  14  24
ATOM     24  N   TYR C   2     108.617  19.405  18.690  1.00 21.44    -0.346 N 
ATOM     25  H   TYR C   2     109.183  18.843  18.368  1.00 21.44     0.163 HD
ATOM     26  C   VAL C   1     108.692  19.936  19.899  1.00 22.04     0.249 C 
ATOM     27  O   VAL C   1     107.968  20.873  20.282  1.00 22.28    -0.271 OA
BRANCH  26  28
ATOM     28  CA  VAL C   1     109.691  19.286  20.844  1.00 20.62     0.278 C 
BRANCH  28  29
ATOM     29  CB  VAL C   1     108.926  18.020  21.385  1.00 21.07     0.017 C 
ATOM     30  CG1 VAL C   1     109.864  16.899  21.791  1.00 24.54     0.012 C 
ATOM     31  CG2 VAL C   1     107.948  18.369  22.527  1.00 20.31     0.012 C 
ENDBRANCH  28  29
BRANCH  28  32
ATOM     32  N   VAL C   1     110.109  20.279  21.919  1.00 19.14    -0.066 N 
ATOM     33  H1  VAL C   1     110.240  19.848  22.687  1.00 19.14     0.275 HD
ATOM     34  H2  VAL C   1     110.863  20.683  21.673  1.00 19.14     0.275 HD
ATOM     35  H3  VAL C   1     109.468  20.887  22.027  1.00 19.14     0.275 HD
ENDBRANCH  28  32
ENDBRANCH  26  28
ENDBRANCH  14  24
ENDBRANCH  12  14
ENDBRANCH   5  10
ENDBRANCH   1   5
BRANCH   3  36
ATOM     36  CA  HIS C   4     101.603  18.359  15.341  1.00 52.11     0.182 C 
BRANCH  36  37
ATOM     37  C   HIS C   4     100.272  18.692  15.990  1.00 56.91     0.243 C 
ATOM     38  N   PRO C   5      99.829  19.958  15.826  1.00 60.52    -0.337 N 
ATOM     39  CD  PRO C   5     100.627  21.055  15.241  1.00 64.10     0.127 C 
ATOM     40  CA  PRO C   5      98.498  20.422  16.172  1.00 66.68     0.179 C 
ATOM     41  CG  PRO C   5      99.619  22.158  15.003  1.00 63.73     0.022 C 
ATOM     42  CB  PRO C   5      98.274  21.549  15.154  1.00 65.87     0.037 C 
ATOM     43  O   HIS C   4      99.672  17.828  16.638  1.00 55.90    -0.271 OA
BRANCH  40  44
ATOM     44  C   PRO C   5      97.441  19.324  16.004  1.00 66.75     0.241 C 
ATOM     45  O   PRO C   5      97.183  18.871  14.888  1.00 68.20    -0.271 OA
ATOM     46  N   PHE C   6      96.875  18.875  17.120  1.00 67.82    -0.344 N 
ATOM     47  H   PHE C   6      97.105  19.122  17.911  1.00 67.82     0.163 HD
BRANCH  46  48
ATOM     48  CA  PHE C   6      95.792  17.903  17.081  1.00 66.93     0.189 C 
BRANCH  48  49
ATOM     49  C   PHE C   6      94.459  18.625  16.889  1.00 69.04     0.197 C 
ATOM     50  O   PHE C   6      94.191  19.661  17.509  1.00 69.16    -0.646 OA
ATOM     51  OXT PHE C   6      93.626  18.184  16.097  1.00 68.12    -0.646 OA
ENDBRANCH  48  49
BRANCH  48  52
ATOM     52  CB  PHE C   6      95.776  17.041  18.349  1.00 62.34     0.074 C 
BRANCH  52  53
ATOM     53  CG  PHE C   6      94.780  15.908  18.306  1.00 57.42    -0.056 A 
ATOM     54  CD1 PHE C   6      95.016  14.781  17.513  1.00 55.80     0.007 A 
ATOM     55  CE1 PHE C   6      94.100  13.737  17.472  1.00 52.49     0.001 A 
ATOM     56  CZ  PHE C   6      92.938  13.807  18.243  1.00 53.54     0.000 A 
ATOM     57  CE2 PHE C   6      92.696  14.919  19.035  1.00 53.16     0.001 A 
ATOM     58  CD2 PHE C   6      93.612  15.962  19.064  1.00 55.01     0.007 A 
ENDBRANCH  52  53
ENDBRANCH  48  52
ENDBRANCH  46  48
ENDBRANCH  40  44
ENDBRANCH  36  37
BRANCH  36  59
ATOM     59  CB  HIS C   4     101.374  17.462  14.121  1.00 57.66     0.095 C 
BRANCH  59  60
ATOM     60  CG  HIS C   4     100.448  18.085  13.112  1.00 65.67     0.056 A 
ATOM     61  CD2 HIS C   4      99.177  17.778  12.753  1.00 66.99     0.145 A 
ATOM     62  NE2 HIS C   4      98.786  18.700  11.809  1.00 66.34    -0.252 NA
ATOM     63  CE1 HIS C   4      99.776  19.552  11.603  1.00 66.88     0.232 A 
ATOM     64  ND1 HIS C   4     100.786  19.212  12.385  1.00 66.49    -0.245 NA
ENDBRANCH  59  60
ENDBRANCH  36  59
ENDBRANCH   3  36
TORSDOF 21
