USER: ADFR SOLUTION from run 0
USER: SCORE 12.886545 LL:  -3.540 LR: -12.029 RR:   0.000 FEB:  -5.466
USER: RMSD 0.444181
USER: STATUS Locally minimized using BFGS
USER: GENES 24
USER: genes 0 Translation |==|  0.51096 0.51437 0.47893
USER: genes 1 Rotation |==|  0.48521 0.49376 0.48689 0.99957
USER: genes 2 Torsion [CB]-CA--N-[C] |==|  0.29326
USER: genes 3 Torsion [N]-C--CA-[N] |==|  0.34936
USER: genes 4 Torsion [C]-CA--CB-[CG] |==|  0.49264
USER: genes 5 Torsion [CA]-CB--CG-[CD1] |==|  0.49961
USER: genes 6 Torsion [C]-CA--N-[C] |==|  0.71799
USER: genes 7 Torsion [N]-C--CA-[N] |==|  0.86252
USER: genes 8 Torsion [C]-CA--CB-[CG] |==|  0.38046
USER: genes 9 Torsion [CA]-CB--CG-[CD1] |==|  0.78309
USER: genes 10 Torsion [CE1]-CZ--OH-[HH] |==|  0.49997
USER: genes 11 Torsion [N]-CA--CB-[CG2] |==|  0.83430
USER: genes 12 Torsion [N]-CA--C-[N] |==|  0.37393
USER: genes 13 Torsion [C]-N--CA-[CB] |==|  0.27558
USER: genes 14 Torsion [N]-CA--CB-[CG2] |==|  0.49723
USER: genes 15 Torsion [CA]-CB--OG1-[HG1] |==|  0.32746
USER: genes 16 Torsion [N]-CA--C-[N] |==|  0.34444
USER: genes 17 Torsion [C]-N--CA-[C] |==|  0.75188
USER: genes 18 Torsion [N]-CA--C-[N] |==|  0.39599
USER: genes 19 Torsion [C]-N--CA-[C] |==|  0.63047
USER: genes 20 Torsion [N]-CA--C-[OXT] |==|  0.98276
USER: genes 21 Torsion [N]-CA--CB-[CG2] |==|  0.16286
USER: genes 22 Torsion [N]-CA--CB-[OG] |==|  0.17611
USER: genes 23 Torsion [CA]-CB--OG-[HG] |==|  0.49931
ROOT
ATOM      1  CA  VAL B2840      -2.775 -13.932  20.871  1.00 12.24 LIG 0.18  C 
ENDROOT
BRANCH 1 2
ATOM      2  N   VAL B2840      -2.939 -14.191  22.299  1.00  7.10 LIG-0.35  N 
ATOM      3  C   LEU B2839      -2.646 -13.268  23.210  1.00  9.29 LIG 0.24  C 
ATOM      4 O    LEU B2839      -2.105 -12.193  22.931  1.00  7.82 LIG-0.27  OA
ATOM      5 H    VAL B2840      -3.234 -14.977  22.487  1.00  7.10 LIG 0.16  HD
BRANCH 3 6
ATOM      6  CA  LEU B2839      -2.989 -13.610  24.648  1.00  6.33 LIG 0.18  C 
BRANCH 6 7
ATOM      7  CB  LEU B2839      -4.130 -12.701  25.120  1.00 14.59 LIG 0.04  C 
BRANCH 7 8
ATOM      8  CG  LEU B2839      -4.629 -12.971  26.535  1.00 24.41 LIG-0.02  C 
ATOM      9  CD1 LEU B2839      -5.767 -12.012  26.923  1.00 21.70 LIG 0.01  C 
ATOM     10  CD2 LEU B2839      -5.059 -14.432  26.663  1.00 24.63 LIG 0.01  C 
ENDBRANCH 7 8
ENDBRANCH 6 7
BRANCH 6 11
ATOM     11  N   LEU B2839      -1.815 -13.470  25.512  1.00 12.50 LIG-0.35  N 
ATOM     12 H    LEU B2839      -1.629 -12.658  25.728  1.00 12.50 LIG 0.16  HD
ATOM     13  C   TYR B2838      -1.106 -14.527  25.919  1.00 14.62 LIG 0.26  C 
ATOM     14 O    TYR B2838      -1.416 -15.689  25.658  1.00 16.58 LIG-0.27  OA
BRANCH 13 15
ATOM     15  CA  TYR B2838       0.138 -14.255  26.752  1.00 17.58 LIG 0.40  C 
ATOM     16  N   TYR B2838       1.014 -13.250  26.163  1.00 19.10 LIG 0.61  N 
BRANCH 15 17
ATOM     17  CB  TYR B2838      -0.242 -13.893  28.188  1.00 37.20 LIG 0.09  C 
BRANCH 17 18
ATOM     18  CG  TYR B2838       0.636 -14.569  29.214  1.00 53.42 LIG-0.06  A 
ATOM     19  CD1 TYR B2838       0.441 -15.905  29.552  1.00 57.26 LIG 0.01  A 
ATOM     20  CE1 TYR B2838       1.246 -16.534  30.492  1.00 58.59 LIG 0.04  A 
ATOM     21  CZ  TYR B2838       2.265 -15.826  31.103  1.00 63.46 LIG 0.07  A 
ATOM     22  CE2 TYR B2838       2.481 -14.499  30.783  1.00 67.17 LIG 0.04  A 
ATOM     23  CD2 TYR B2838       1.667 -13.877  29.840  1.00 64.10 LIG 0.01  A 
BRANCH 21 24
ATOM     24 OH   TYR B2838       3.067 -16.446  32.038  1.00 64.89 LIG-0.36  OA
ATOM     25 HH   TYR B2838       3.639 -15.901  32.324  1.00 64.89 LIG 0.22  HD
ENDBRANCH 21 24
ENDBRANCH 17 18
ENDBRANCH 15 17
ENDBRANCH 13 15
ENDBRANCH 6 11
ENDBRANCH 3 6
ENDBRANCH 1 2
BRANCH 1 26
ATOM     26  CB  VAL B2840      -1.541 -14.657  20.289  1.00 14.53 LIG 0.01  C 
ATOM     27  CG1 VAL B2840      -1.433 -14.391  18.795  1.00 16.85 LIG 0.01  C 
ATOM     28  CG2 VAL B2840      -0.274 -14.195  21.002  1.00 19.78 LIG 0.01  C 
ENDBRANCH 1 26
BRANCH 1 29
ATOM     29  C   VAL B2840      -4.032 -14.356  20.107  1.00 10.08 LIG 0.24  C 
ATOM     30 O    VAL B2840      -4.561 -15.438  20.331  1.00 13.99 LIG-0.27  OA
ATOM     31  N   THR B2841      -4.503 -13.513  19.195  1.00  7.81 LIG-0.34  N 
ATOM     32 H    THR B2841      -4.111 -12.784  18.961  1.00  7.81 LIG 0.16  HD
BRANCH 31 33
ATOM     33  CA  THR B2841      -5.762 -13.778  18.505  1.00  9.28 LIG 0.20  C 
BRANCH 33 34
ATOM     34  CB  THR B2841      -6.919 -12.985  19.131  1.00  5.66 LIG 0.15  C 
ATOM     35  CG2 THR B2841      -8.235 -13.254  18.380  1.00  2.82 LIG 0.04  C 
BRANCH 34 36
ATOM     36 OG1  THR B2841      -7.075 -13.384  20.498  1.00  4.58 LIG-0.39  OA
ATOM     37 HG1  THR B2841      -6.937 -12.725  21.000  1.00  4.58 LIG 0.21  HD
ENDBRANCH 34 36
ENDBRANCH 33 34
BRANCH 33 38
ATOM     38  C   THR B2841      -5.692 -13.442  17.022  1.00 11.02 LIG 0.24  C 
ATOM     39  N   SER B2842      -6.000 -14.430  16.177  1.00  4.17 LIG-0.34  N 
ATOM     40 H    SER B2842      -6.145 -15.242  16.420  1.00  4.17 LIG 0.16  HD
ATOM     41 O    THR B2841      -5.356 -12.314  16.654  1.00  9.65 LIG-0.27  OA
BRANCH 39 42
ATOM     42  CA  SER B2842      -6.117 -14.199  14.744  1.00  7.92 LIG 0.20  C 
BRANCH 42 43
ATOM     43  C   SER B2842      -7.542 -13.806  14.406  1.00  8.41 LIG 0.24  C 
ATOM     44  N   VAL B2843      -7.679 -12.884  13.460  1.00 12.74 LIG-0.34  N 
ATOM     45 H    VAL B2843      -7.019 -12.541  13.030  1.00 12.74 LIG 0.16  HD
ATOM     46 O    SER B2842      -8.489 -14.317  14.993  1.00  7.66 LIG-0.27  OA
BRANCH 44 47
ATOM     47  CA  VAL B2843      -8.978 -12.368  13.066  1.00 16.92 LIG 0.19  C 
BRANCH 47 48
ATOM     48  C   VAL B2843      -9.110 -12.347  11.543  1.00 17.95 LIG 0.20  C 
ATOM     49 OXT  VAL B2843      -8.141 -12.628  10.821  1.00 12.52 LIG-0.65  OA
ATOM     50 O    VAL B2843     -10.178 -12.054  11.004  1.00 13.13 LIG-0.65  OA
ENDBRANCH 47 48
BRANCH 47 51
ATOM     51  CB  VAL B2843      -9.204 -10.951  13.641  1.00 12.90 LIG 0.01  C 
ATOM     52  CG2 VAL B2843      -8.119  -9.983  13.167  1.00 11.86 LIG 0.01  C 
ATOM     53  CG1 VAL B2843      -9.244 -11.000  15.157  1.00 11.26 LIG 0.01  C 
ENDBRANCH 47 51
ENDBRANCH 44 47
ENDBRANCH 42 43
BRANCH 42 54
ATOM     54  CB  SER B2842      -5.701 -15.438  13.940  1.00 13.40 LIG 0.20  C 
BRANCH 54 55
ATOM     55 OG   SER B2842      -6.561 -16.530  14.203  1.00 24.06 LIG-0.40  OA
ATOM     56 HG   SER B2842      -6.318 -17.195  13.750  1.00 24.06 LIG 0.21  HD
ENDBRANCH 54 55
ENDBRANCH 42 54
ENDBRANCH 39 42
ENDBRANCH 33 38
ENDBRANCH 31 33
ENDBRANCH 1 29
TORSDOF 22
