USER: ADFR SOLUTION from run 0
USER: SCORE 19.631408 LL:  -3.485 LR: -17.948 RR:   0.000 FEB:  -9.595
USER: RMSD 0.496469
USER: STATUS Locally minimized using BFGS
USER: GENES 30
USER: genes 0 Translation |==|  0.53081 0.50119 0.54474
USER: genes 1 Rotation |==|  0.50809 0.49959 0.50166 0.99993
USER: genes 2 Torsion [N]-C--CA-[N] |==|  0.43243
USER: genes 3 Torsion [C]-CA--CB-[CG2] |==|  0.48623
USER: genes 4 Torsion [CA]-CB--OG1-[HG1] |==|  0.69660
USER: genes 5 Torsion [C]-CA--N-[C] |==|  0.65610
USER: genes 6 Torsion [N]-C--CA-[N] |==|  0.42882
USER: genes 7 Torsion [C]-CA--N-[C] |==|  0.72993
USER: genes 8 Torsion [N]-C--CA-[N] |==|  0.42233
USER: genes 9 Torsion [C]-CA--N-[H1] |==|  0.54561
USER: genes 10 Torsion [C]-CA--CB-[CG] |==|  0.49198
USER: genes 11 Torsion [CA]-CB--CG-[CD] |==|  0.43820
USER: genes 12 Torsion [CB]-CG--CD-[NE] |==|  0.81095
USER: genes 13 Torsion [CG]-CD--NE-[HE] |==|  0.92273
USER: genes 14 Torsion [C]-N--CA-[CB] |==|  0.30000
USER: genes 15 Torsion [N]-CA--CB-[CG] |==|  0.14487
USER: genes 16 Torsion [CA]-CB--CG-[CD] |==|  0.48206
USER: genes 17 Torsion [CB]-CG--CD-[CE] |==|  0.79684
USER: genes 18 Torsion [CG]-CD--CE-[NZ] |==|  0.47972
USER: genes 19 Torsion [CD]-CE--NZ-[HZ3] |==|  0.14748
USER: genes 20 Torsion [N]-CA--C-[N] |==|  0.45337
USER: genes 21 Torsion [C]-N--CA-[C] |==|  0.65534
USER: genes 22 Torsion [N]-CA--CB-[CG] |==|  0.50793
USER: genes 23 Torsion [CA]-CB--CG-[CD] |==|  0.17805
USER: genes 24 Torsion [CB]-CG--CD-[OE1] |==|  0.62645
USER: genes 25 Torsion [N]-CA--C-[N] |==|  0.35825
USER: genes 26 Torsion [C]-N--CA-[C] |==|  0.64704
USER: genes 27 Torsion [N]-CA--CB-[CG2] |==|  0.84107
USER: genes 28 Torsion [CA]-CB--OG1-[HG1] |==|  0.51922
USER: genes 29 Torsion [N]-CA--C-[O] |==|  0.99048
ROOT
ATOM      1  C   THR B   3       9.292 -21.813  11.231  1.00 20.25 LIG 0.24  C 
ATOM      2 O    THR B   3      10.533 -21.832  11.174  1.00 21.22 LIG-0.27  OA
ATOM      3  N   LYS B   4       8.589 -20.692  11.203  1.00 19.99 LIG-0.35  N 
ATOM      4 H    LYS B   4       7.736 -20.664  11.097  1.00 19.99 LIG 0.16  HD
ENDROOT
BRANCH 1 5
ATOM      5  CA  THR B   3       8.456 -23.092  11.329  1.00 18.41 LIG 0.20  C 
BRANCH 5 6
ATOM      6  CB  THR B   3       8.035 -23.261  12.801  1.00 21.88 LIG 0.15  C 
ATOM      7  CG2 THR B   3       7.090 -24.452  12.974  1.00 22.89 LIG 0.04  C 
BRANCH 6 8
ATOM      8 OG1  THR B   3       9.201 -23.431  13.609  1.00 27.36 LIG-0.39  OA
ATOM      9 HG1  THR B   3       9.239 -24.224  13.884  1.00 27.36 LIG 0.21  HD
ENDBRANCH 6 8
ENDBRANCH 5 6
BRANCH 5 10
ATOM     10  N   THR B   3       9.146 -24.260  10.807  1.00 19.27 LIG-0.34  N 
ATOM     11  C   ARG B   2       8.620 -25.009   9.843  1.00 14.36 LIG 0.24  C 
ATOM     12 O    ARG B   2       7.485 -24.856   9.401  1.00 14.31 LIG-0.27  OA
ATOM     13 H    THR B   3       9.908 -24.415  11.173  1.00 19.27 LIG 0.16  HD
BRANCH 11 14
ATOM     14  CA  ARG B   2       9.542 -26.040   9.239  1.00 14.00 LIG 0.18  C 
BRANCH 14 15
ATOM     15  N   ARG B   2       8.835 -27.177   8.665  1.00 14.23 LIG-0.35  N 
ATOM     16 H    ARG B   2       8.547 -27.029   7.868  1.00 14.23 LIG 0.16  HD
ATOM     17  C   ALA B   1       8.644 -28.335   9.294  1.00 14.69 LIG 0.25  C 
ATOM     18 O    ALA B   1       8.911 -28.516  10.486  1.00 15.97 LIG-0.27  OA
BRANCH 17 19
ATOM     19  CA  ALA B   1       8.056 -29.462   8.449  1.00 13.70 LIG 0.27  C 
ATOM     20  CB  ALA B   1       6.543 -29.379   8.442  1.00 15.23 LIG 0.05  C 
BRANCH 19 21
ATOM     21  N   ALA B   1       8.498 -30.786   8.979  1.00 12.70 LIG-0.07  N 
ATOM     22 H1   ALA B   1       8.359 -31.414   8.364  1.00 12.70 LIG 0.28  HD
ATOM     23 H3   ALA B   1       8.035 -30.982   9.713  1.00 12.70 LIG 0.28  HD
ATOM     24 H2   ALA B   1       9.365 -30.753   9.176  1.00 12.70 LIG 0.28  HD
ENDBRANCH 19 21
ENDBRANCH 17 19
ENDBRANCH 14 15
BRANCH 14 25
ATOM     25  CB  ARG B   2      10.326 -25.337   8.140  1.00 15.26 LIG 0.04  C 
BRANCH 25 26
ATOM     26  CG  ARG B   2      11.360 -26.212   7.463  1.00 16.76 LIG 0.02  C 
BRANCH 26 27
ATOM     27  CD  ARG B   2      11.687 -25.653   6.080  1.00 19.38 LIG 0.14  C 
BRANCH 27 28
ATOM     28  NE  ARG B   2      10.532 -25.793   5.188  1.00 21.76 LIG-0.23  N 
ATOM     29 HE   ARG B   2       9.986 -26.438   5.346  1.00 21.76 LIG 0.18  HD
ATOM     30  CZ  ARG B   2      10.262 -25.001   4.158  1.00 17.86 LIG 0.67  C 
ATOM     31  NH2 ARG B   2       9.168 -25.221   3.434  1.00 21.34 LIG-0.23  N 
ATOM     32  NH1 ARG B   2      11.086 -24.007   3.836  1.00 18.80 LIG-0.23  N 
ATOM     33 2HH2 ARG B   2       8.985 -24.712   2.764  1.00 21.34 LIG 0.17  HD
ATOM     34 1HH2 ARG B   2       8.642 -25.872   3.635  1.00 21.34 LIG 0.17  HD
ATOM     35 2HH1 ARG B   2      10.905 -23.497   3.167  1.00 18.80 LIG 0.17  HD
ATOM     36 1HH1 ARG B   2      11.799 -23.873   4.297  1.00 18.80 LIG 0.17  HD
ENDBRANCH 27 28
ENDBRANCH 26 27
ENDBRANCH 25 26
ENDBRANCH 14 25
ENDBRANCH 11 14
ENDBRANCH 5 10
ENDBRANCH 1 5
BRANCH 3 37
ATOM     37  CA  LYS B   4       9.211 -19.397  11.351  1.00 20.35 LIG 0.18  C 
BRANCH 37 38
ATOM     38  CB  LYS B   4       9.226 -18.631  10.024  1.00 22.30 LIG 0.04  C 
BRANCH 38 39
ATOM     39  CG  LYS B   4       7.891 -18.512   9.317  1.00 24.16 LIG 0.00  C 
BRANCH 39 40
ATOM     40  CD  LYS B   4       8.002 -17.602   8.103  1.00 24.93 LIG 0.03  C 
BRANCH 40 41
ATOM     41  CE  LYS B   4       8.129 -16.144   8.501  1.00 25.90 LIG 0.23  C 
BRANCH 41 42
ATOM     42  NZ  LYS B   4       8.412 -15.277   7.323  1.00 28.03 LIG-0.08  N 
ATOM     43 HZ3  LYS B   4       7.804 -15.425   6.692  1.00 28.03 LIG 0.27  HD
ATOM     44 HZ1  LYS B   4       8.382 -14.422   7.570  1.00 28.03 LIG 0.27  HD
ATOM     45 HZ2  LYS B   4       9.221 -15.465   7.004  1.00 28.03 LIG 0.27  HD
ENDBRANCH 41 42
ENDBRANCH 40 41
ENDBRANCH 39 40
ENDBRANCH 38 39
ENDBRANCH 37 38
BRANCH 37 46
ATOM     46  C   LYS B   4       8.419 -18.632  12.407  1.00 21.64 LIG 0.24  C 
ATOM     47 O    LYS B   4       7.284 -19.006  12.745  1.00 22.31 LIG-0.27  OA
ATOM     48  N   GLN B   5       9.024 -17.574  12.931  1.00 26.13 LIG-0.35  N 
ATOM     49 H    GLN B   5       9.808 -17.309  12.696  1.00 26.13 LIG 0.16  HD
BRANCH 48 50
ATOM     50  CA  GLN B   5       8.410 -16.759  13.959  1.00 25.39 LIG 0.18  C 
BRANCH 50 51
ATOM     51  CB  GLN B   5       9.228 -16.847  15.251  1.00 28.67 LIG 0.04  C 
BRANCH 51 52
ATOM     52  CG  GLN B   5       8.611 -16.074  16.401  1.00 31.68 LIG 0.10  C 
BRANCH 52 53
ATOM     53  CD  GLN B   5       7.265 -16.616  16.833  1.00 33.20 LIG 0.21  C 
ATOM     54 OE1  GLN B   5       6.315 -15.853  17.042  1.00 36.95 LIG-0.27  OA
ATOM     55  NE2 GLN B   5       7.173 -17.935  16.981  1.00 36.99 LIG-0.37  N 
ATOM     56 22HE GLN B   5       6.431 -18.290  17.231  1.00 36.99 LIG 0.16  HD
ATOM     57 21HE GLN B   5       7.857 -18.434  16.826  1.00 36.99 LIG 0.16  HD
ENDBRANCH 52 53
ENDBRANCH 51 52
ENDBRANCH 50 51
BRANCH 50 58
ATOM     58  C   GLN B   5       8.372 -15.325  13.475  1.00 30.80 LIG 0.24  C 
ATOM     59  N   THR B   6       7.193 -14.712  13.551  1.00 32.96 LIG-0.34  N 
ATOM     60 H    THR B   6       6.466 -15.104  13.791  1.00 32.96 LIG 0.16  HD
ATOM     61 O    GLN B   5       9.395 -14.788  13.038  1.00 36.06 LIG-0.27  OA
BRANCH 59 62
ATOM     62  CA  THR B   6       7.032 -13.293  13.226  1.00 38.52 LIG 0.19  C 
BRANCH 62 63
ATOM     63  CB  THR B   6       6.241 -13.112  11.926  1.00 33.66 LIG 0.14  C 
ATOM     64  CG2 THR B   6       6.940 -13.844  10.810  1.00 38.34 LIG 0.04  C 
BRANCH 63 65
ATOM     65 OG1  THR B   6       4.923 -13.657  12.090  1.00 35.05 LIG-0.39  OA
ATOM     66 HG1  THR B   6       4.521 -13.645  11.352  1.00 35.05 LIG 0.21  HD
ENDBRANCH 63 65
ENDBRANCH 62 63
BRANCH 62 67
ATOM     67  C   THR B   6       6.345 -12.516  14.347  1.00 43.93 LIG 0.22  C 
ATOM     68 O    THR B   6       5.935 -13.089  15.359  1.00 48.58 LIG-0.29  OA
ENDBRANCH 62 67
ENDBRANCH 59 62
ENDBRANCH 50 58
ENDBRANCH 48 50
ENDBRANCH 37 46
ENDBRANCH 3 37
TORSDOF 28
