REMARK  11 active torsions:
REMARK  status: ('A' for Active; 'I' for Inactive)
REMARK    1  A    between atoms: CA_2  and  C_3 
REMARK    2  A    between atoms: CA_2  and  CB_5 
REMARK       I    between atoms: C_3  and  N_17 
REMARK    3  A    between atoms: CB_5  and  CG_6 
REMARK    4  A    between atoms: CG_6  and  CD_7 
REMARK    5  A    between atoms: CD_7  and  NE_8 
REMARK       I    between atoms: NE_8  and  CZ_9 
REMARK       I    between atoms: CZ_9  and  NH1_10 
REMARK    6  A    between atoms: N_17  and  CA_18 
REMARK    7  A    between atoms: CA_18  and  C_19 
REMARK       I    between atoms: C_19  and  N_22 
REMARK    8  A    between atoms: N_22  and  CA_23 
REMARK    9  A    between atoms: CA_23  and  C_24 
REMARK   10  A    between atoms: CA_23  and  CB_26 
REMARK   11  A    between atoms: CB_26  and  OG1_27 
ROOT
ATOM      1  C   ARG C 760      13.856 -17.205  16.419  1.00 56.34     0.257 C 
ATOM      2  O   ARG C 760      12.919 -16.553  16.869  1.00 53.76    -0.271 OA
ATOM      3  N   GLY C 761      14.631 -17.972  17.180  1.00 59.89    -0.350 N 
ATOM      4  H   GLY C 761      15.400 -18.269  16.936  1.00 59.89     0.163 HD
ENDROOT
BRANCH   1   5
ATOM      5  CA  ARG C 760      14.187 -17.160  14.927  1.00 61.16     0.400 C 
ATOM      6  N   ARG C 760      12.953 -17.097  14.146  1.00 59.95     0.615 N 
BRANCH   5   7
ATOM      7  CB  ARG C 760      15.090 -15.973  14.592  1.00 63.40     0.053 C 
BRANCH   7   8
ATOM      8  CG  ARG C 760      16.572 -16.286  14.636  1.00 63.69     0.023 C 
BRANCH   8   9
ATOM      9  CD  ARG C 760      17.390 -15.131  14.082  1.00 63.30     0.138 C 
BRANCH   9  10
ATOM     10  NE  ARG C 760      18.765 -15.163  14.572  1.00 65.15    -0.227 N 
ATOM     11  CZ  ARG C 760      19.783 -15.716  13.920  1.00 66.46     0.665 C 
ATOM     12  NH1 ARG C 760      19.592 -16.284  12.736  1.00 66.43    -0.235 N 
ATOM     13  NH2 ARG C 760      20.997 -15.696  14.451  1.00 66.89    -0.235 N 
ATOM     14 HH12 ARG C 760      20.254 -16.640  12.318  1.00 66.43     0.174 HD
ATOM     15 HH11 ARG C 760      18.806 -16.296  12.386  1.00 66.43     0.174 HD
ATOM     16 HH22 ARG C 760      21.656 -16.053  14.030  1.00 66.89     0.174 HD
ATOM     17 HH21 ARG C 760      21.125 -15.326  15.216  1.00 66.89     0.174 HD
ATOM     18  HE  ARG C 760      18.927 -14.799  15.334  1.00 65.15     0.177 HD
ENDBRANCH   9  10
ENDBRANCH   8   9
ENDBRANCH   7   8
ENDBRANCH   5   7
ENDBRANCH   1   5
BRANCH   3  19
ATOM     19  CA  GLY C 761      14.226 -18.377  18.516  1.00 62.83     0.225 C 
BRANCH  19  20
ATOM     20  C   GLY C 761      14.548 -17.510  19.724  1.00 67.24     0.236 C 
ATOM     21  O   GLY C 761      13.871 -16.516  19.986  1.00 65.14    -0.272 OA
ATOM     22  N   THR C 762      15.597 -17.903  20.445  1.00 72.11    -0.343 N 
ATOM     23  H   THR C 762      16.218 -18.402  20.122  1.00 72.11     0.163 HD
BRANCH  22  24
ATOM     24  CA  THR C 762      15.822 -17.544  21.850  1.00 75.13     0.214 C 
BRANCH  24  25
ATOM     25  C   THR C 762      15.177 -18.627  22.710  1.00 73.09     0.199 C 
ATOM     26  OXT THR C 762      14.265 -19.311  22.250  1.00 76.95    -0.646 OA
ATOM     27  O   THR C 762      15.538 -18.857  23.865  1.00 68.26    -0.646 OA
ENDBRANCH  24  25
BRANCH  24  28
ATOM     28  CB  THR C 762      15.240 -16.172  22.258  1.00 77.67     0.147 C 
ATOM     29  CG2 THR C 762      15.395 -15.961  23.754  1.00 76.40     0.042 C 
BRANCH  28  30
ATOM     30  OG1 THR C 762      15.929 -15.123  21.569  1.00 80.43    -0.393 OA
ATOM     31  HG1 THR C 762      15.386 -14.701  21.087  1.00 80.43     0.210 HD
ENDBRANCH  28  30
ENDBRANCH  24  28
ENDBRANCH  22  24
ENDBRANCH  19  20
ENDBRANCH   3  19
TORSDOF 11
