USER: ADFR SOLUTION from run 0
USER: SCORE 11.030132 LL:  -3.127 LR:  -8.070 RR:   0.000 FEB:  -3.894
USER: RMSD 1.246423
USER: STATUS Locally minimized using BFGS
USER: GENES 16
USER: genes 0 Translation |==|  0.50469 0.50190 0.44253
USER: genes 1 Rotation |==|  0.54901 0.50501 0.53823 0.99610
USER: genes 2 Torsion [N]-C--CA-[N] |==|  0.55556
USER: genes 3 Torsion [C]-CA--N-[C] |==|  0.76290
USER: genes 4 Torsion [N]-C--CA-[N] |==|  0.41210
USER: genes 5 Torsion [C]-CA--N-[C] |==|  0.79261
USER: genes 6 Torsion [N]-C--CA-[N] |==|  0.37562
USER: genes 7 Torsion [C]-CA--CB-[CG2] |==|  0.45552
USER: genes 8 Torsion [C]-CA--CB-[CG] |==|  0.53430
USER: genes 9 Torsion [CA]-CB--CG-[SD] |==|  0.81678
USER: genes 10 Torsion [CB]-CG--SD-[CE] |==|  0.26589
USER: genes 11 Torsion [N]-CA--C-[O] |==|  0.41772
USER: genes 12 Torsion [C]-N--CA-[C] |==|  0.69469
USER: genes 13 Torsion [N]-CA--C-[O] |==|  0.02659
USER: genes 14 Torsion [N]-CA--CB-[CG] |==|  0.86608
USER: genes 15 Torsion [CA]-CB--CG-[CD2] |==|  0.43002
ROOT
ATOM      1  C   GLY E2013       0.549 -15.965 -29.128  1.00 21.81 LIG 0.24  C 
ATOM      2 O    GLY E2013       1.137 -16.855 -28.494  1.00 22.84 LIG-0.27  OA
ATOM      3  N   PRO E2014       1.054 -14.738 -29.282  1.00 21.64 LIG-0.34  N 
ATOM      4  CA  PRO E2014       2.379 -14.331 -28.806  1.00 21.53 LIG 0.18  C 
ATOM      5  CB  PRO E2014       2.669 -13.084 -29.648  1.00 21.78 LIG 0.04  C 
ATOM      6  CG  PRO E2014       1.323 -12.510 -29.984  1.00 22.21 LIG 0.02  C 
ATOM      7  CD  PRO E2014       0.360 -13.670 -30.025  1.00 21.52 LIG 0.13  C 
ENDROOT
BRANCH 1 8
ATOM      8  CA  GLY E2013      -0.795 -16.241 -29.792  1.00 23.09 LIG 0.23  C 
BRANCH 8 9
ATOM      9  N   GLY E2013      -1.400 -17.405 -29.146  1.00 25.21 LIG-0.35  N 
ATOM     10  C   MET E2012      -1.114 -18.651 -29.522  1.00 26.98 LIG 0.24  C 
ATOM     11 O    MET E2012      -0.469 -18.925 -30.545  1.00 24.85 LIG-0.27  OA
ATOM     12 H    GLY E2013      -1.947 -17.211 -28.512  1.00 25.21 LIG 0.16  HD
BRANCH 10 13
ATOM     13  CA  MET E2012      -1.596 -19.749 -28.582  1.00 29.83 LIG 0.18  C 
BRANCH 13 14
ATOM     14  N   MET E2012      -1.935 -20.977 -29.304  1.00 30.84 LIG-0.35  N 
ATOM     15  C   VAL E2011      -3.041 -21.100 -30.026  1.00 36.49 LIG 0.26  C 
ATOM     16 O    VAL E2011      -3.908 -20.217 -30.085  1.00 38.00 LIG-0.27  OA
ATOM     17 H    MET E2012      -1.354 -21.605 -29.216  1.00 30.84 LIG 0.16  HD
BRANCH 15 18
ATOM     18  CA  VAL E2011      -3.194 -22.433 -30.786  1.00 39.95 LIG 0.40  C 
ATOM     19  N   VAL E2011      -4.582 -22.980 -30.640  1.00 39.42 LIG 0.61  N 
BRANCH 18 20
ATOM     20  CB  VAL E2011      -2.779 -22.307 -32.284  1.00 43.12 LIG 0.03  C 
ATOM     21  CG2 VAL E2011      -2.564 -23.691 -32.892  1.00 41.73 LIG 0.01  C 
ATOM     22  CG1 VAL E2011      -1.538 -21.432 -32.473  1.00 40.75 LIG 0.01  C 
ENDBRANCH 18 20
ENDBRANCH 15 18
ENDBRANCH 13 14
BRANCH 13 23
ATOM     23  CB  MET E2012      -0.466 -20.017 -27.567  1.00 32.11 LIG 0.04  C 
BRANCH 23 24
ATOM     24  CG  MET E2012      -0.590 -21.275 -26.699  1.00 37.34 LIG 0.08  C 
BRANCH 24 25
ATOM     25 SD   MET E2012      -1.969 -21.264 -25.536  1.00 39.45 LIG-0.17  SA
ATOM     26  CE  MET E2012      -3.199 -22.162 -26.495  1.00 39.28 LIG 0.09  C 
ENDBRANCH 24 25
ENDBRANCH 23 24
ENDBRANCH 13 23
ENDBRANCH 10 13
ENDBRANCH 8 9
ENDBRANCH 1 8
BRANCH 4 27
ATOM     27  C   PRO E2014       2.421 -13.983 -27.303  1.00 21.57 LIG 0.24  C 
ATOM     28 O    PRO E2014       3.475 -14.154 -26.622  1.00 21.05 LIG-0.27  OA
ATOM     29  N   TRP E2015       1.295 -13.481 -26.788  1.00 20.29 LIG-0.34  N 
ATOM     30 H    TRP E2015       0.545 -13.435 -27.207  1.00 20.29 LIG 0.16  HD
BRANCH 29 31
ATOM     31  CA  TRP E2015       1.271 -12.957 -25.418  1.00 20.70 LIG 0.19  C 
BRANCH 31 32
ATOM     32  C   TRP E2015       0.475 -13.823 -24.450  1.00 20.18 LIG 0.20  C 
ATOM     33 O    TRP E2015       0.057 -14.939 -24.747  1.00 21.31 LIG-0.65  OA
ATOM     34 OXT  TRP E2015       0.204 -13.384 -23.337  1.00 19.23 LIG-0.65  OA
ENDBRANCH 31 32
BRANCH 31 35
ATOM     35  CB  TRP E2015       0.672 -11.543 -25.394  1.00 21.64 LIG 0.08  C 
BRANCH 35 36
ATOM     36  CG  TRP E2015       1.222 -10.557 -26.423  1.00 22.27 LIG-0.03  A 
ATOM     37  CD2 TRP E2015       0.521  -9.419 -26.931  1.00 22.85 LIG-0.00  A 
ATOM     38  CE2 TRP E2015       1.383  -8.755 -27.838  1.00 23.44 LIG 0.04  A 
ATOM     39  CE3 TRP E2015      -0.760  -8.884 -26.693  1.00 23.10 LIG 0.01  A 
ATOM     40  CZ2 TRP E2015       0.994  -7.588 -28.523  1.00 22.82 LIG 0.03  A 
ATOM     41  NE1 TRP E2015       2.561  -9.460 -27.887  1.00 23.03 LIG-0.36  N 
ATOM     42  CH2 TRP E2015      -0.266  -7.097 -28.290  1.00 23.08 LIG 0.00  A 
ATOM     43  CZ3 TRP E2015      -1.144  -7.721 -27.387  1.00 24.27 LIG 0.00  A 
ATOM     44 HE1  TRP E2015       3.240  -9.266 -28.377  1.00 23.03 LIG 0.17  HD
ATOM     45  CD1 TRP E2015       2.475 -10.538 -27.012  1.00 22.46 LIG 0.10  A 
ENDBRANCH 35 36
ENDBRANCH 31 35
ENDBRANCH 29 31
ENDBRANCH 4 27
TORSDOF 14
