USER: ADFR SOLUTION from run 0
USER: SCORE 15.787797 LL:  -4.688 LR: -11.320 RR:   0.000 FEB:  -4.161
USER: RMSD 1.114103
USER: STATUS Locally minimized using BFGS
USER: GENES 26
USER: genes 0 Translation |==|  0.57221 0.52746 0.47662
USER: genes 1 Rotation |==|  0.48461 0.47450 0.44956 0.99656
USER: genes 2 Torsion [C]-CA--N-[C] |==|  0.78131
USER: genes 3 Torsion [N]-C--CA-[N] |==|  0.33891
USER: genes 4 Torsion [C]-CA--CB-[CG] |==|  0.46318
USER: genes 5 Torsion [CA]-CB--CG-[CD2] |==|  0.23477
USER: genes 6 Torsion [CE2]-CZ--OH-[HH] |==|  0.55740
USER: genes 7 Torsion [C]-CA--N-[C] |==|  0.73098
USER: genes 8 Torsion [N]-C--CA-[N] |==|  0.85154
USER: genes 9 Torsion [C]-CA--CB-[CG] |==|  0.21396
USER: genes 10 Torsion [CA]-CB--CG-[OD1] |==|  0.66814
USER: genes 11 Torsion [C]-CA--N-[H1] |==|  0.50048
USER: genes 12 Torsion [N]-CA--CB-[CG] |==|  0.43255
USER: genes 13 Torsion [CA]-CB--CG-[CD] |==|  0.16219
USER: genes 14 Torsion [CB]-CG--CD-[OE1] |==|  0.63543
USER: genes 15 Torsion [N]-CA--C-[N] |==|  0.34812
USER: genes 16 Torsion [C]-N--CA-[C] |==|  0.84360
USER: genes 17 Torsion [N]-CA--CB-[CG] |==|  0.46870
USER: genes 18 Torsion [CA]-CB--CG-[CD] |==|  0.51122
USER: genes 19 Torsion [CB]-CG--CD-[NE] |==|  0.61914
USER: genes 20 Torsion [CG]-CD--NE-[CZ] |==|  0.21676
USER: genes 21 Torsion [N]-CA--C-[N] |==|  0.38355
USER: genes 22 Torsion [C]-N--CA-[CB] |==|  0.35648
USER: genes 23 Torsion [N]-CA--CB-[CG] |==|  0.84657
USER: genes 24 Torsion [CA]-CB--CG-[CD1] |==|  0.44372
USER: genes 25 Torsion [N]-CA--C-[O] |==|  0.99726
ROOT
ATOM      1  CA  GLN B   3     -12.421  -4.838   5.565  1.00 33.56 LIG 0.18  C 
ENDROOT
BRANCH 1 2
ATOM      2  N   GLN B   3     -13.068  -5.156   4.315  1.00 33.33 LIG-0.35  N 
ATOM      3  C   TYR B   2     -13.969  -6.130   4.219  1.00 35.73 LIG 0.24  C 
ATOM      4 O    TYR B   2     -14.172  -6.939   5.129  1.00 36.38 LIG-0.27  OA
ATOM      5 H    GLN B   3     -12.820  -4.666   3.653  1.00 33.33 LIG 0.16  HD
BRANCH 3 6
ATOM      6  CA  TYR B   2     -14.766  -6.242   2.921  1.00 35.98 LIG 0.18  C 
BRANCH 6 7
ATOM      7  CB  TYR B   2     -16.277  -6.045   3.160  1.00 34.22 LIG 0.07  C 
BRANCH 7 8
ATOM      8  CG  TYR B   2     -17.010  -5.837   1.874  1.00 30.67 LIG-0.06  A 
ATOM      9  CD2 TYR B   2     -17.443  -6.918   1.084  1.00 29.09 LIG 0.01  A 
ATOM     10  CE2 TYR B   2     -18.085  -6.682  -0.177  1.00 27.51 LIG 0.04  A 
ATOM     11  CZ  TYR B   2     -18.279  -5.391  -0.558  1.00 25.86 LIG 0.07  A 
ATOM     12  CE1 TYR B   2     -17.876  -4.314   0.252  1.00 26.16 LIG 0.04  A 
ATOM     13  CD1 TYR B   2     -17.254  -4.545   1.426  1.00 21.15 LIG 0.01  A 
BRANCH 11 14
ATOM     14 OH   TYR B   2     -18.936  -5.071  -1.714  1.00 29.83 LIG-0.36  OA
ATOM     15 HH   TYR B   2     -18.732  -4.290  -1.946  1.00 29.83 LIG 0.22  HD
ENDBRANCH 11 14
ENDBRANCH 7 8
ENDBRANCH 6 7
BRANCH 6 16
ATOM     16  N   TYR B   2     -14.538  -7.579   2.365  1.00 39.83 LIG-0.35  N 
ATOM     17  C   ASP B   1     -13.627  -7.795   1.422  1.00 42.84 LIG 0.25  C 
ATOM     18 O    ASP B   1     -13.015  -6.864   0.864  1.00 42.82 LIG-0.27  OA
ATOM     19 H    TYR B   2     -15.038  -8.194   2.700  1.00 39.83 LIG 0.16  HD
BRANCH 17 20
ATOM     20  CA  ASP B   1     -13.423  -9.279   1.009  1.00 44.92 LIG 0.28  C 
BRANCH 20 21
ATOM     21  CB  ASP B   1     -14.672  -9.753   0.261  1.00 46.02 LIG 0.15  C 
BRANCH 21 22
ATOM     22  CG  ASP B   1     -14.717  -9.237  -1.177  1.00 51.60 LIG 0.17  C 
ATOM     23 OD1  ASP B   1     -15.686  -8.492  -1.564  1.00 55.22 LIG-0.65  OA
ATOM     24 OD2  ASP B   1     -13.753  -9.576  -1.913  1.00 56.25 LIG-0.65  OA
ENDBRANCH 21 22
ENDBRANCH 20 21
BRANCH 20 25
ATOM     25  N   ASP B   1     -13.134 -10.189   2.192  1.00 44.71 LIG-0.07  N 
ATOM     26 H1   ASP B   1     -13.023 -11.024   1.904  1.00 44.71 LIG 0.28  HD
ATOM     27 H2   ASP B   1     -12.393  -9.916   2.603  1.00 44.71 LIG 0.28  HD
ATOM     28 H3   ASP B   1     -13.817 -10.160   2.762  1.00 44.71 LIG 0.28  HD
ENDBRANCH 20 25
ENDBRANCH 17 20
ENDBRANCH 6 16
ENDBRANCH 3 6
ENDBRANCH 1 2
BRANCH 1 29
ATOM     29  CB  GLN B   3     -11.149  -4.035   5.325  1.00 34.45 LIG 0.04  C 
BRANCH 29 30
ATOM     30  CG  GLN B   3     -10.686  -3.154   6.497  1.00 38.50 LIG 0.10  C 
BRANCH 30 31
ATOM     31  CD  GLN B   3     -10.416  -3.936   7.807  1.00 47.01 LIG 0.21  C 
ATOM     32  NE2 GLN B   3      -9.676  -5.067   7.713  1.00 44.49 LIG-0.37  N 
ATOM     33 21HE GLN B   3      -9.358  -5.311   6.953  1.00 44.49 LIG 0.16  HD
ATOM     34 22HE GLN B   3      -9.524  -5.540   8.415  1.00 44.49 LIG 0.16  HD
ATOM     35 OE1  GLN B   3     -10.902  -3.534   8.887  1.00 47.46 LIG-0.27  OA
ENDBRANCH 30 31
ENDBRANCH 29 30
ENDBRANCH 1 29
BRANCH 1 36
ATOM     36  C   GLN B   3     -13.422  -4.005   6.387  1.00 32.58 LIG 0.24  C 
ATOM     37 O    GLN B   3     -13.891  -2.967   5.908  1.00 27.04 LIG-0.27  OA
ATOM     38  N   ARG B   4     -13.711  -4.455   7.621  1.00 32.15 LIG-0.35  N 
ATOM     39 H    ARG B   4     -13.357  -5.158   7.968  1.00 32.15 LIG 0.16  HD
BRANCH 38 40
ATOM     40  CA  ARG B   4     -14.685  -3.760   8.502  1.00 32.56 LIG 0.18  C 
BRANCH 40 41
ATOM     41  CB  ARG B   4     -14.849  -4.549   9.847  1.00 33.81 LIG 0.04  C 
BRANCH 41 42
ATOM     42  CG  ARG B   4     -15.608  -3.822  10.952  1.00 39.16 LIG 0.02  C 
BRANCH 42 43
ATOM     43  CD  ARG B   4     -15.639  -4.636  12.289  1.00 48.45 LIG 0.14  C 
BRANCH 43 44
ATOM     44  NE  ARG B   4     -16.981  -4.582  12.893  1.00 55.69 LIG-0.23  N 
ATOM     45  CZ  ARG B   4     -18.034  -5.313  12.485  1.00 58.57 LIG 0.67  C 
ATOM     46  NH1 ARG B   4     -19.218  -5.193  13.087  1.00 57.02 LIG-0.23  N 
ATOM     47  NH2 ARG B   4     -17.904  -6.184  11.480  1.00 58.84 LIG-0.23  N 
ATOM     48 2HH1 ARG B   4     -19.886  -5.664  12.821  1.00 57.02 LIG 0.17  HD
ATOM     49 1HH1 ARG B   4     -19.312  -4.644  13.743  1.00 57.02 LIG 0.17  HD
ATOM     50 2HH2 ARG B   4     -18.580  -6.649  11.224  1.00 58.84 LIG 0.17  HD
ATOM     51 1HH2 ARG B   4     -17.143  -6.280  11.091  1.00 58.84 LIG 0.17  HD
ATOM     52 HE   ARG B   4     -17.100  -4.045  13.554  1.00 55.69 LIG 0.18  HD
ENDBRANCH 43 44
ENDBRANCH 42 43
ENDBRANCH 41 42
ENDBRANCH 40 41
BRANCH 40 53
ATOM     53  C   ARG B   4     -14.329  -2.276   8.744  1.00 31.57 LIG 0.24  C 
ATOM     54  N   LEU B   5     -15.328  -1.407   8.714  1.00 29.97 LIG-0.34  N 
ATOM     55 H    LEU B   5     -16.133  -1.595   8.477  1.00 29.97 LIG 0.16  HD
ATOM     56 O    ARG B   4     -13.179  -1.924   8.989  1.00 31.05 LIG-0.27  OA
BRANCH 54 57
ATOM     57  CA  LEU B   5     -15.104  -0.024   9.098  1.00 29.37 LIG 0.18  C 
BRANCH 57 58
ATOM     58  CB  LEU B   5     -15.626   0.909   8.007  1.00 29.49 LIG 0.04  C 
BRANCH 58 59
ATOM     59  CG  LEU B   5     -15.040   0.644   6.582  1.00 26.43 LIG-0.02  C 
ATOM     60  CD1 LEU B   5     -15.969   1.264   5.418  1.00 22.49 LIG 0.01  C 
ATOM     61  CD2 LEU B   5     -13.511   1.017   6.479  1.00 25.84 LIG 0.01  C 
ENDBRANCH 58 59
ENDBRANCH 57 58
BRANCH 57 62
ATOM     62  C   LEU B   5     -15.762   0.242  10.480  1.00 31.79 LIG 0.20  C 
ATOM     63 O    LEU B   5     -16.396  -0.651  11.103  1.00 32.21 LIG-0.65  OA
ATOM     64 OXT  LEU B   5     -15.674   1.373  10.974  1.00 32.71 LIG-0.65  OA
ENDBRANCH 57 62
ENDBRANCH 54 57
ENDBRANCH 40 53
ENDBRANCH 38 40
ENDBRANCH 1 36
TORSDOF 24
