REMARK  26 active torsions:
REMARK  status: ('A' for Active; 'I' for Inactive)
REMARK    1  A    between atoms: N_1  and  CA_2 
REMARK    2  A    between atoms: CA_2  and  CB_5 
REMARK    3  A    between atoms: CA_2  and  C_3 
REMARK       I    between atoms: C_3  and  N_12 
REMARK    4  A    between atoms: CB_5  and  OG1_6 
REMARK    5  A    between atoms: N_12  and  CA_13 
REMARK    6  A    between atoms: CA_13  and  C_14 
REMARK    7  A    between atoms: CA_13  and  CB_16 
REMARK       I    between atoms: C_14  and  N_23 
REMARK    8  A    between atoms: CB_16  and  CG_17 
REMARK       I    between atoms: CG_17  and  ND2_19 
REMARK    9  A    between atoms: N_23  and  CA_24 
REMARK   10  A    between atoms: CA_24  and  CB_27 
REMARK   11  A    between atoms: CA_24  and  C_25 
REMARK       I    between atoms: C_25  and  N_32 
REMARK   12  A    between atoms: CB_27  and  CG_28 
REMARK   13  A    between atoms: N_32  and  CA_33 
REMARK   14  A    between atoms: CA_33  and  CB_36 
REMARK   15  A    between atoms: CA_33  and  C_34 
REMARK       I    between atoms: C_34  and  N_46 
REMARK   16  A    between atoms: CB_36  and  CG_37 
REMARK   17  A    between atoms: CZ_42  and  OH_43 
REMARK   18  A    between atoms: N_46  and  CA_47 
REMARK   19  A    between atoms: CA_47  and  CB_50 
REMARK   20  A    between atoms: CA_47  and  C_48 
REMARK       I    between atoms: C_48  and  N_55 
REMARK   21  A    between atoms: CB_50  and  CG_51 
REMARK   22  A    between atoms: CG_51  and  SD_52 
REMARK   23  A    between atoms: N_55  and  CA_56 
REMARK   24  A    between atoms: CA_56  and  C_57 
REMARK   25  A    between atoms: CA_56  and  CB_59 
REMARK   26  A    between atoms: CB_59  and  CG_60 
ROOT
ATOM      1  C   LEU B   3       1.875  18.198  13.901  1.00 37.56     0.241 C 
ATOM      2  O   LEU B   3       2.777  17.577  14.496  1.00 36.01    -0.271 OA
ATOM      3  N   TYR B   4       1.118  19.180  14.470  1.00 34.90    -0.346 N 
ATOM      4  H   TYR B   4       0.509  19.591  14.024  1.00 34.90     0.163 HD
ENDROOT
BRANCH   3   5
ATOM      5  CA  TYR B   4       1.212  19.666  15.849  1.00 36.24     0.180 C 
BRANCH   5   6
ATOM      6  CB  TYR B   4       0.682  18.609  16.840  1.00 36.37     0.073 C 
BRANCH   6   7
ATOM      7  CG  TYR B   4      -0.790  18.372  16.621  1.00 36.28    -0.056 A 
ATOM      8  CD2 TYR B   4      -1.240  17.352  15.783  1.00 36.38     0.010 A 
ATOM      9  CE2 TYR B   4      -2.594  17.166  15.530  1.00 36.34     0.037 A 
ATOM     10  CZ  TYR B   4      -3.517  18.034  16.090  1.00 42.86     0.065 A 
ATOM     11  CE1 TYR B   4      -3.094  19.065  16.914  1.00 38.54     0.037 A 
ATOM     12  CD1 TYR B   4      -1.739  19.233  17.170  1.00 37.84     0.010 A 
BRANCH  10  13
ATOM     13  OH  TYR B   4      -4.853  17.878  15.839  1.00 44.02    -0.361 OA
ATOM     14  HH  TYR B   4      -4.957  17.363  15.183  1.00 44.02     0.217 HD
ENDBRANCH  10  13
ENDBRANCH   6   7
ENDBRANCH   5   6
BRANCH   5  15
ATOM     15  C   TYR B   4       2.631  20.106  16.192  1.00 47.41     0.241 C 
ATOM     16  N   MET B   5       3.210  20.905  15.302  1.00 49.29    -0.346 N 
ATOM     17  H   MET B   5       2.852  21.138  14.556  1.00 49.29     0.163 HD
ATOM     18  O   TYR B   4       3.184  19.751  17.236  1.00 47.26    -0.271 OA
BRANCH  16  19
ATOM     19  CA  MET B   5       4.531  21.457  15.539  1.00 52.16     0.177 C 
BRANCH  19  20
ATOM     20  CB  MET B   5       5.250  21.747  14.222  1.00 55.77     0.045 C 
BRANCH  20  21
ATOM     21  CG  MET B   5       5.580  20.476  13.443  1.00 61.00     0.076 C 
BRANCH  21  22
ATOM     22  SD  MET B   5       6.173  20.811  11.776  1.00 67.05    -0.173 SA
ATOM     23  CE  MET B   5       7.644  21.738  12.152  1.00 63.64     0.089 C 
ENDBRANCH  21  22
ENDBRANCH  20  21
ENDBRANCH  19  20
BRANCH  19  24
ATOM     24  C   MET B   5       4.330  22.684  16.404  1.00 55.98     0.241 C 
ATOM     25  O   MET B   5       3.361  23.416  16.197  1.00 56.32    -0.271 OA
ATOM     26  N   LEU B   6       5.158  22.843  17.443  1.00 51.23    -0.347 N 
ATOM     27  H   LEU B   6       5.820  22.320  17.609  1.00 51.23     0.163 HD
BRANCH  26  28
ATOM     28  CA  LEU B   6       5.006  23.937  18.401  1.00 69.26     0.163 C 
BRANCH  28  29
ATOM     29  C   LEU B   6       6.089  24.997  18.210  1.00 97.67     0.219 C 
ATOM     30  O   LEU B   6       7.198  24.867  18.726  1.00 61.20    -0.287 OA
ENDBRANCH  28  29
BRANCH  28  31
ATOM     31  CB  LEU B   6       5.022  23.382  19.839  1.00 69.14     0.037 C 
BRANCH  31  32
ATOM     32  CG  LEU B   6       3.967  22.321  20.149  1.00 73.60    -0.020 C 
ATOM     33  CD2 LEU B   6       2.673  22.953  20.602  1.00 75.76     0.009 C 
ATOM     34  CD1 LEU B   6       4.485  21.305  21.141  1.00 73.41     0.009 C 
ENDBRANCH  31  32
ENDBRANCH  28  31
ENDBRANCH  26  28
ENDBRANCH  19  24
ENDBRANCH  16  19
ENDBRANCH   5  15
ENDBRANCH   3   5
BRANCH   1  35
ATOM     35  CA  LEU B   3       1.524  17.822  12.460  1.00 32.52     0.177 C 
BRANCH  35  36
ATOM     36  CB  LEU B   3       2.743  17.977  11.528  1.00 32.14     0.038 C 
BRANCH  36  37
ATOM     37  CG  LEU B   3       2.525  17.488  10.086  1.00 34.99    -0.020 C 
ATOM     38  CD2 LEU B   3       2.204  15.972  10.049  1.00 35.91     0.009 C 
ATOM     39  CD1 LEU B   3       3.729  17.871   9.194  1.00 33.16     0.009 C 
ENDBRANCH  36  37
ENDBRANCH  35  36
BRANCH  35  40
ATOM     40  N   LEU B   3       0.390  18.593  11.961  1.00 32.48    -0.346 N 
ATOM     41  C   ASN B   2      -0.867  18.125  12.077  1.00 36.40     0.241 C 
ATOM     42  O   ASN B   2      -1.129  17.024  12.577  1.00 34.95    -0.271 OA
ATOM     43  H   LEU B   3       0.596  19.346  11.600  1.00 32.48     0.163 HD
BRANCH  41  44
ATOM     44  CA  ASN B   2      -1.993  18.972  11.477  1.00 32.65     0.185 C 
BRANCH  44  45
ATOM     45  N   ASN B   2      -2.577  18.179  10.401  1.00 32.45    -0.345 N 
ATOM     46  H   ASN B   2      -2.925  17.446  10.685  1.00 32.45     0.163 HD
ATOM     47  C   THR B   1      -2.593  18.513   9.106  1.00 35.22     0.251 C 
ATOM     48  O   THR B   1      -2.222  19.618   8.664  1.00 34.61    -0.271 OA
BRANCH  47  49
ATOM     49  CA  THR B   1      -3.129  17.427   8.206  1.00 32.53     0.302 C 
BRANCH  49  50
ATOM     50  CB  THR B   1      -2.080  17.039   7.152  1.00 31.51     0.153 C 
ATOM     51  CG2 THR B   1      -0.760  16.483   7.771  1.00 30.77     0.042 C 
BRANCH  50  52
ATOM     52  OG1 THR B   1      -2.654  16.082   6.261  1.00 21.64    -0.393 OA
ATOM     53  HG1 THR B   1      -2.149  15.979   5.598  1.00 21.64     0.210 HD
ENDBRANCH  50  52
ENDBRANCH  49  50
BRANCH  49  54
ATOM     54  N   THR B   1      -4.399  17.811   7.597  1.00 34.33    -0.064 N 
ATOM     55  H2  THR B   1      -5.068  17.594   8.143  1.00 34.33     0.275 HD
ATOM     56  H1  THR B   1      -4.498  17.384   6.822  1.00 34.33     0.275 HD
ATOM     57  H3  THR B   1      -4.407  18.689   7.454  1.00 34.33     0.275 HD
ENDBRANCH  49  54
ENDBRANCH  47  49
ENDBRANCH  44  45
BRANCH  44  58
ATOM     58  CB  ASN B   2      -3.053  19.363  12.523  1.00 33.77     0.137 C 
BRANCH  58  59
ATOM     59  CG  ASN B   2      -2.636  20.520  13.409  1.00 47.71     0.217 C 
ATOM     60  OD1 ASN B   2      -1.448  20.804  13.600  1.00 37.59    -0.274 OA
ATOM     61  ND2 ASN B   2      -3.607  21.200  14.000  1.00 40.38    -0.370 N 
ATOM     62 2HD2 ASN B   2      -4.428  20.990  13.856  1.00 40.38     0.159 HD
ATOM     63 1HD2 ASN B   2      -3.416  21.852  14.527  1.00 40.38     0.159 HD
ENDBRANCH  58  59
ENDBRANCH  44  58
ENDBRANCH  41  44
ENDBRANCH  35  40
ENDBRANCH   1  35
TORSDOF 26
