REMARK  11 active torsions:
REMARK  status: ('A' for Active; 'I' for Inactive)
REMARK    1  A    between atoms: N_1  and  CA_2 
REMARK    2  A    between atoms: CA_2  and  C_3 
REMARK       I    between atoms: C_3  and  N_9 
REMARK    3  A    between atoms: N_9  and  CA_10 
REMARK    4  A    between atoms: CA_10  and  C_11 
REMARK    5  A    between atoms: CA_10  and  CB_13 
REMARK       I    between atoms: C_11  and  N_18 
REMARK    6  A    between atoms: CB_13  and  CG1_14 
REMARK    7  A    between atoms: N_18  and  CA_19 
REMARK    8  A    between atoms: CA_19  and  C_20 
REMARK       I    between atoms: C_20  and  N_24 
REMARK    9  A    between atoms: N_24  and  CA_25 
REMARK   10  A    between atoms: CA_25  and  CB_28 
REMARK   11  A    between atoms: CA_25  and  C_26 
ROOT
ATOM      1  C   ILE B   2      28.154  34.836  11.185  1.00 15.80     0.241 C 
ATOM      2  O   ILE B   2      27.625  35.349  12.168  1.00 15.82    -0.271 OA
ATOM      3  N   ALA B   3      28.488  33.552  11.127  1.00 15.83    -0.346 N 
ATOM      4  H   ALA B   3      28.821  33.173  10.431  1.00 15.83     0.163 HD
ENDROOT
BRANCH   1   5
ATOM      5  CA  ILE B   2      28.519  35.644   9.954  1.00 17.33     0.180 C 
BRANCH   5   6
ATOM      6  CB  ILE B   2      29.986  36.105  10.003  1.00 21.75     0.013 C 
ATOM      7  CG2 ILE B   2      30.379  36.782   8.698  1.00 23.79     0.012 C 
BRANCH   6   8
ATOM      8  CG1 ILE B   2      30.228  37.010  11.177  1.00 23.11     0.002 C 
ATOM      9  CD1 ILE B   2      31.689  37.426  11.310  1.00 27.15     0.005 C 
ENDBRANCH   6   8
ENDBRANCH   5   6
BRANCH   5  10
ATOM     10  N   ILE B   2      27.570  36.735   9.768  1.00 15.33    -0.346 N 
ATOM     11  C   ALA B   1      26.807  36.788   8.682  1.00 14.45     0.248 C 
ATOM     12  O   ALA B   1      26.874  36.004   7.745  1.00 16.00    -0.271 OA
ATOM     13  H   ILE B   2      27.555  37.314  10.403  1.00 15.33     0.163 HD
BRANCH  11  14
ATOM     14  CA  ALA B   1      25.757  37.900   8.637  1.00 14.39     0.270 C 
ATOM     15  CB  ALA B   1      24.599  37.581   9.582  1.00 14.30     0.050 C 
BRANCH  14  16
ATOM     16  N   ALA B   1      25.282  38.024   7.247  1.00 15.51    -0.067 N 
ATOM     17  H3  ALA B   1      24.897  37.262   6.995  1.00 15.51     0.275 HD
ATOM     18  H2  ALA B   1      25.971  38.198   6.712  1.00 15.51     0.275 HD
ATOM     19  H1  ALA B   1      24.690  38.687   7.193  1.00 15.51     0.275 HD
ENDBRANCH  14  16
ENDBRANCH  11  14
ENDBRANCH   5  10
ENDBRANCH   1   5
BRANCH   3  20
ATOM     20  CA  ALA B   3      28.308  32.658  12.280  1.00 17.37     0.172 C 
ATOM     21  CB  ALA B   3      28.229  31.201  11.843  1.00 18.86     0.042 C 
BRANCH  20  22
ATOM     22  C   ALA B   3      29.430  32.824  13.235  1.00 19.46     0.240 C 
ATOM     23  N   VAL B   4      29.129  32.763  14.519  1.00 19.29    -0.344 N 
ATOM     24  H   VAL B   4      28.330  32.635  14.810  1.00 19.29     0.163 HD
ATOM     25  O   ALA B   3      30.576  33.002  12.824  1.00 22.03    -0.271 OA
BRANCH  23  26
ATOM     26  CA  VAL B   4      30.127  32.907  15.581  1.00 21.21     0.189 C 
BRANCH  26  27
ATOM     27  CB  VAL B   4      29.541  33.665  16.786  1.00 21.09     0.010 C 
ATOM     28  CG2 VAL B   4      29.006  35.024  16.336  1.00 23.07     0.012 C 
ATOM     29  CG1 VAL B   4      30.555  33.830  17.914  1.00 23.35     0.012 C 
ENDBRANCH  26  27
BRANCH  26  30
ATOM     30  C   VAL B   4      30.582  31.512  15.977  1.00 22.92     0.197 C 
ATOM     31  O   VAL B   4      29.771  30.685  16.401  1.00 22.82    -0.646 OA
ATOM     32  OXT VAL B   4      31.775  31.165  15.827  1.00 22.76    -0.646 OA
ENDBRANCH  26  30
ENDBRANCH  23  26
ENDBRANCH  20  22
ENDBRANCH   3  20
TORSDOF 11
