USER: ADFR SOLUTION from run 0
USER: SCORE 15.393873 LL:  -2.741 LR: -12.747 RR:   0.000 FEB:  -9.167
USER: RMSD 0.867755
USER: STATUS Locally minimized using BFGS
USER: GENES 14
USER: genes 0 Translation |==|  0.49559 0.51730 0.43128
USER: genes 1 Rotation |==|  0.50655 0.47288 0.51381 0.99903
USER: genes 2 Torsion [N]-C--CA-[N] |==|  0.41672
USER: genes 3 Torsion [C]-CA--CB-[CG1] |==|  0.53678
USER: genes 4 Torsion [C]-CA--N-[C] |==|  0.63092
USER: genes 5 Torsion [N]-C--CA-[N] |==|  0.47210
USER: genes 6 Torsion [C]-CA--N-[H3] |==|  0.29043
USER: genes 7 Torsion [C]-CA--CB-[OG] |==|  0.94497
USER: genes 8 Torsion [CA]-CB--OG-[HG] |==|  0.81507
USER: genes 9 Torsion [N]-CA--C-[O] |==|  0.97851
USER: genes 10 Torsion [C]-N--CA-[C] |==|  0.58829
USER: genes 11 Torsion [N]-CA--C-[OXT] |==|  0.42328
USER: genes 12 Torsion [N]-CA--CB-[CG1] |==|  0.99872
USER: genes 13 Torsion [CA]-CB--CG1-[CD1] |==|  0.42685
ROOT
ATOM      1  C   VAL B   2      27.773  34.926  11.021  1.00 16.87 LIG 0.24  C 
ATOM      2 O    VAL B   2      27.258  35.488  11.986  1.00 15.05 LIG-0.27  OA
ATOM      3  N   PRO B   3      28.105  33.614  11.041  1.00 17.17 LIG-0.34  N 
ATOM      4  CA  PRO B   3      27.838  32.840  12.261  1.00 17.78 LIG 0.18  C 
ATOM      5  CB  PRO B   3      27.965  31.375  11.799  1.00 18.80 LIG 0.04  C 
ATOM      6  CG  PRO B   3      28.888  31.429  10.620  1.00 20.85 LIG 0.02  C 
ATOM      7  CD  PRO B   3      28.615  32.770   9.940  1.00 18.92 LIG 0.13  C 
ENDROOT
BRANCH 1 8
ATOM      8  CA  VAL B   2      28.144  35.704   9.767  1.00 17.17 LIG 0.18  C 
BRANCH 8 9
ATOM      9  CB  VAL B   2      29.609  36.201   9.877  1.00 19.35 LIG 0.01  C 
ATOM     10  CG1 VAL B   2      29.898  37.240   8.809  1.00 20.75 LIG 0.01  C 
ATOM     11  CG2 VAL B   2      29.938  36.698  11.255  1.00 20.63 LIG 0.01  C 
ENDBRANCH 8 9
BRANCH 8 12
ATOM     12  N   VAL B   2      27.175  36.795   9.552  1.00 15.32 LIG-0.35  N 
ATOM     13  C   SER B   1      26.635  37.006   8.364  1.00 14.89 LIG 0.25  C 
ATOM     14 O    SER B   1      26.835  36.335   7.342  1.00 16.72 LIG-0.27  OA
ATOM     15 H    VAL B   2      27.002  37.264  10.251  1.00 15.32 LIG 0.16  HD
BRANCH 13 16
ATOM     16  CA  SER B   1      25.552  38.100   8.326  1.00 15.81 LIG 0.30  C 
BRANCH 16 17
ATOM     17  N   SER B   1      25.221  38.390   6.904  1.00 17.29 LIG-0.06  N 
ATOM     18 H3   SER B   1      24.437  38.021   6.701  1.00 17.29 LIG 0.28  HD
ATOM     19 H1   SER B   1      25.174  39.271   6.784  1.00 17.29 LIG 0.28  HD
ATOM     20 H2   SER B   1      25.853  38.053   6.377  1.00 17.29 LIG 0.28  HD
ENDBRANCH 16 17
BRANCH 16 21
ATOM     21  CB  SER B   1      24.292  37.631   9.105  1.00 15.46 LIG 0.21  C 
BRANCH 21 22
ATOM     22 OG   SER B   1      24.292  36.211   9.237  1.00 16.65 LIG-0.40  OA
ATOM     23 HG   SER B   1      24.199  35.859   8.480  1.00 16.65 LIG 0.21  HD
ENDBRANCH 21 22
ENDBRANCH 16 21
ENDBRANCH 13 16
ENDBRANCH 8 12
ENDBRANCH 1 8
BRANCH 4 24
ATOM     24  C   PRO B   3      28.832  33.158  13.323  1.00 20.81 LIG 0.24  C 
ATOM     25 O    PRO B   3      29.803  33.866  13.063  1.00 24.11 LIG-0.27  OA
ATOM     26  N   ILE B   4      28.596  32.669  14.529  1.00 19.75 LIG-0.34  N 
ATOM     27 H    ILE B   4      27.858  32.288  14.752  1.00 19.75 LIG 0.16  HD
BRANCH 26 28
ATOM     28  CA  ILE B   4      29.592  32.737  15.613  1.00 21.11 LIG 0.19  C 
BRANCH 28 29
ATOM     29  C   ILE B   4      29.386  31.509  16.474  1.00 24.50 LIG 0.20  C 
ATOM     30 OXT  ILE B   4      30.345  31.021  17.124  1.00 23.18 LIG-0.65  OA
ATOM     31 O    ILE B   4      28.258  30.973  16.511  1.00 23.14 LIG-0.65  OA
ENDBRANCH 28 29
BRANCH 28 32
ATOM     32  CB  ILE B   4      29.406  34.001  16.425  1.00 22.38 LIG 0.01  C 
ATOM     33  CG2 ILE B   4      30.677  34.852  16.453  1.00 23.66 LIG 0.01  C 
BRANCH 32 34
ATOM     34  CG1 ILE B   4      28.242  34.785  15.824  1.00 23.74 LIG 0.00  C 
ATOM     35  CD1 ILE B   4      27.574  35.654  16.818  1.00 25.09 LIG 0.01  C 
ENDBRANCH 32 34
ENDBRANCH 28 32
ENDBRANCH 26 28
ENDBRANCH 4 24
TORSDOF 12
