USER: ADFR SOLUTION from run 0
USER: SCORE 18.597970 LL:  -3.771 LR: -16.344 RR:   0.000 FEB:  -7.693
USER: RMSD 0.241265
USER: STATUS Locally minimized using BFGS
USER: GENES 31
USER: genes 0 Translation |==|  0.58304 0.48654 0.54850
USER: genes 1 Rotation |==|  0.50422 0.49731 0.50085 0.99997
USER: genes 2 Torsion [N]-C--CA-[N] |==|  0.40839
USER: genes 3 Torsion [C]-CA--CB-[CG] |==|  0.45554
USER: genes 4 Torsion [CA]-CB--CG-[CD] |==|  0.48863
USER: genes 5 Torsion [CB]-CG--CD-[OE1] |==|  0.19451
USER: genes 6 Torsion [C]-CA--N-[C] |==|  0.81364
USER: genes 7 Torsion [N]-C--CA-[N] |==|  0.34983
USER: genes 8 Torsion [C]-CA--CB-[CG] |==|  0.37068
USER: genes 9 Torsion [CA]-CB--CG-[CD] |==|  0.78529
USER: genes 10 Torsion [CB]-CG--CD-[CE] |==|  0.53969
USER: genes 11 Torsion [CG]-CD--CE-[NZ] |==|  0.56829
USER: genes 12 Torsion [CD]-CE--NZ-[HZ2] |==|  0.82217
USER: genes 13 Torsion [C]-CA--N-[C] |==|  0.81478
USER: genes 14 Torsion [N]-C--CA-[N] |==|  0.65036
USER: genes 15 Torsion [C]-CA--N-[H1] |==|  0.49994
USER: genes 16 Torsion [C]-N--CA-[C] |==|  0.16922
USER: genes 17 Torsion [N]-CA--C-[N] |==|  0.11417
USER: genes 18 Torsion [C]-N--CA-[CB] |==|  0.46932
USER: genes 19 Torsion [N]-CA--CB-[OG] |==|  0.51219
USER: genes 20 Torsion [CA]-CB--OG-[HG] |==|  0.49985
USER: genes 21 Torsion [N]-CA--C-[N] |==|  0.90228
USER: genes 22 Torsion [C]-N--CA-[C] |==|  0.79565
USER: genes 23 Torsion [N]-CA--CB-[CG] |==|  0.80696
USER: genes 24 Torsion [CA]-CB--CG-[OD1] |==|  0.94948
USER: genes 25 Torsion [N]-CA--C-[OXT] |==|  0.45997
USER: genes 26 Torsion [N]-CA--CB-[CG] |==|  0.81277
USER: genes 27 Torsion [CA]-CB--CG-[CD] |==|  0.78195
USER: genes 28 Torsion [CB]-CG--CD-[CE] |==|  0.51314
USER: genes 29 Torsion [CG]-CD--CE-[NZ] |==|  0.52240
USER: genes 30 Torsion [CD]-CE--NZ-[HZ1] |==|  0.46145
ROOT
ATOM      1  C   GLU D   2     -28.682 -15.465   3.071  1.00 31.02 LIG 0.24  C 
ATOM      2 O    GLU D   2     -28.363 -16.301   2.223  1.00 27.38 LIG-0.27  OA
ATOM      3  N   LYS D   3     -28.889 -14.173   2.783  1.00 31.55 LIG-0.35  N 
ATOM      4 H    LYS D   3     -29.249 -13.611   3.326  1.00 31.55 LIG 0.16  HD
ENDROOT
BRANCH 1 5
ATOM      5  CA  GLU D   2     -28.854 -15.872   4.536  1.00 33.66 LIG 0.18  C 
BRANCH 5 6
ATOM      6  CB  GLU D   2     -27.502 -15.783   5.232  1.00 31.60 LIG 0.04  C 
BRANCH 6 7
ATOM      7  CG  GLU D   2     -27.610 -15.786   6.731  1.00 40.13 LIG 0.12  C 
BRANCH 7 8
ATOM      8  CD  GLU D   2     -26.244 -15.797   7.371  1.00 42.76 LIG 0.17  C 
ATOM      9 OE2  GLU D   2     -25.860 -16.854   7.906  1.00 44.96 LIG-0.65  OA
ATOM     10 OE1  GLU D   2     -25.538 -14.766   7.286  1.00 41.64 LIG-0.65  OA
ENDBRANCH 7 8
ENDBRANCH 6 7
ENDBRANCH 5 6
BRANCH 5 11
ATOM     11  N   GLU D   2     -29.370 -17.239   4.611  1.00 44.67 LIG-0.35  N 
ATOM     12 H    GLU D   2     -28.829 -17.821   4.940  1.00 44.67 LIG 0.16  HD
ATOM     13  C   LYS D   1     -30.600 -17.497   4.184  1.00 49.40 LIG 0.24  C 
ATOM     14 O    LYS D   1     -31.409 -16.602   3.913  1.00 45.15 LIG-0.27  OA
BRANCH 13 15
ATOM     15  CA  LYS D   1     -30.990 -18.957   4.004  1.00 54.12 LIG 0.18  C 
BRANCH 15 16
ATOM     16  CB  LYS D   1     -31.276 -19.162   2.511  1.00 51.59 LIG 0.04  C 
BRANCH 16 17
ATOM     17  CG  LYS D   1     -30.654 -20.375   1.890  1.00 49.71 LIG 0.00  C 
BRANCH 17 18
ATOM     18  CD  LYS D   1     -29.171 -20.192   1.603  1.00 43.42 LIG 0.03  C 
BRANCH 18 19
ATOM     19  CE  LYS D   1     -28.746 -21.305   0.678  1.00 42.27 LIG 0.23  C 
BRANCH 19 20
ATOM     20  NZ  LYS D   1     -27.318 -21.666   0.710  1.00 37.99 LIG-0.08  N 
ATOM     21 HZ2  LYS D   1     -26.830 -20.977   0.429  1.00 37.99 LIG 0.27  HD
ATOM     22 HZ1  LYS D   1     -27.177 -22.365   0.177  1.00 37.99 LIG 0.27  HD
ATOM     23 HZ3  LYS D   1     -27.084 -21.877   1.542  1.00 37.99 LIG 0.27  HD
ENDBRANCH 19 20
ENDBRANCH 18 19
ENDBRANCH 17 18
ENDBRANCH 16 17
ENDBRANCH 15 16
BRANCH 15 24
ATOM     24  N   LYS D   1     -32.209 -19.217   4.761  1.00 57.33 LIG-0.35  N 
ATOM     25  C   ALA D   0     -32.272 -19.178   6.094  1.00 63.38 LIG 0.25  C 
ATOM     26 O    ALA D   0     -31.273 -19.093   6.824  1.00 63.83 LIG-0.27  OA
ATOM     27 H    LYS D   1     -32.888 -19.399   4.265  1.00 57.33 LIG 0.16  HD
BRANCH 25 28
ATOM     28  CA  ALA D   0     -33.685 -19.244   6.697  1.00 65.61 LIG 0.27  C 
ATOM     29  CB  ALA D   0     -34.761 -19.250   5.583  1.00 68.28 LIG 0.05  C 
BRANCH 28 30
ATOM     30  N   ALA D   0     -33.907 -18.119   7.598  1.00 67.78 LIG-0.07  N 
ATOM     31 H3   ALA D   0     -33.820 -17.356   7.148  1.00 67.78 LIG 0.28  HD
ATOM     32 H2   ALA D   0     -33.310 -18.143   8.258  1.00 67.78 LIG 0.28  HD
ATOM     33 H1   ALA D   0     -34.728 -18.169   7.939  1.00 67.78 LIG 0.28  HD
ENDBRANCH 28 30
ENDBRANCH 25 28
ENDBRANCH 15 24
ENDBRANCH 13 15
ENDBRANCH 5 11
ENDBRANCH 1 5
BRANCH 3 34
ATOM     34  CA  LYS D   3     -28.510 -13.611   1.494  1.00 28.89 LIG 0.18  C 
BRANCH 34 35
ATOM     35  C   LYS D   3     -29.277 -14.328   0.403  1.00 25.10 LIG 0.24  C 
ATOM     36 O    LYS D   3     -28.742 -14.617  -0.663  1.00 27.04 LIG-0.27  OA
ATOM     37  N   SER D   4     -30.552 -14.569   0.705  1.00 24.57 LIG-0.34  N 
ATOM     38 H    SER D   4     -30.902 -14.327   1.451  1.00 24.57 LIG 0.16  HD
BRANCH 37 39
ATOM     39  CA  SER D   4     -31.490 -15.256  -0.166  1.00 30.79 LIG 0.20  C 
BRANCH 39 40
ATOM     40  CB  SER D   4     -32.745 -15.559   0.691  1.00 34.88 LIG 0.20  C 
BRANCH 40 41
ATOM     41 OG   SER D   4     -33.726 -16.311   0.034  1.00 44.92 LIG-0.40  OA
ATOM     42 HG   SER D   4     -34.375 -16.439   0.551  1.00 44.92 LIG 0.21  HD
ENDBRANCH 40 41
ENDBRANCH 39 40
BRANCH 39 43
ATOM     43  C   SER D   4     -31.849 -14.341  -1.340  1.00 32.71 LIG 0.24  C 
ATOM     44 O    SER D   4     -32.053 -14.814  -2.462  1.00 26.72 LIG-0.27  OA
ATOM     45  N   ASP D   5     -31.934 -13.028  -1.105  1.00 33.82 LIG-0.34  N 
ATOM     46 H    ASP D   5     -31.731 -12.642  -0.363  1.00 33.82 LIG 0.16  HD
BRANCH 45 47
ATOM     47  CA  ASP D   5     -32.409 -12.138  -2.179  1.00 26.21 LIG 0.20  C 
BRANCH 47 48
ATOM     48  CB  ASP D   5     -32.814 -10.737  -1.682  1.00 31.21 LIG 0.15  C 
BRANCH 48 49
ATOM     49  CG  ASP D   5     -34.082 -10.740  -0.837  1.00 42.12 LIG 0.17  C 
ATOM     50 OD2  ASP D   5     -34.277  -9.753  -0.092  1.00 42.23 LIG-0.65  OA
ATOM     51 OD1  ASP D   5     -34.855 -11.713  -0.888  1.00 39.47 LIG-0.65  OA
ENDBRANCH 48 49
ENDBRANCH 47 48
BRANCH 47 52
ATOM     52  C   ASP D   5     -31.353 -11.959  -3.258  1.00 28.95 LIG 0.20  C 
ATOM     53 OXT  ASP D   5     -31.677 -11.468  -4.354  1.00 28.91 LIG-0.65  OA
ATOM     54 O    ASP D   5     -30.176 -12.262  -3.050  1.00 26.13 LIG-0.65  OA
ENDBRANCH 47 52
ENDBRANCH 45 47
ENDBRANCH 39 43
ENDBRANCH 37 39
ENDBRANCH 34 35
BRANCH 34 55
ATOM     55  CB  LYS D   3     -26.986 -13.709   1.297  1.00 31.87 LIG 0.04  C 
BRANCH 55 56
ATOM     56  CG  LYS D   3     -26.219 -12.809   2.265  1.00 32.54 LIG 0.00  C 
BRANCH 56 57
ATOM     57  CD  LYS D   3     -26.328 -11.411   1.677  1.00 38.19 LIG 0.03  C 
BRANCH 57 58
ATOM     58  CE  LYS D   3     -25.540 -10.384   2.425  1.00 36.51 LIG 0.23  C 
BRANCH 58 59
ATOM     59  NZ  LYS D   3     -25.886  -9.057   1.876  1.00 31.52 LIG-0.08  N 
ATOM     60 HZ2  LYS D   3     -25.506  -8.958   1.078  1.00 31.52 LIG 0.27  HD
ATOM     61 HZ1  LYS D   3     -25.592  -8.423   2.426  1.00 31.52 LIG 0.27  HD
ATOM     62 HZ3  LYS D   3     -26.770  -8.991   1.794  1.00 31.52 LIG 0.27  HD
ENDBRANCH 58 59
ENDBRANCH 57 58
ENDBRANCH 56 57
ENDBRANCH 55 56
ENDBRANCH 34 55
ENDBRANCH 3 34
TORSDOF 29
