REMARK  26 active torsions:
REMARK  status: ('A' for Active; 'I' for Inactive)
REMARK    1  A    between atoms: N_1  and  CA_2 
REMARK    2  A    between atoms: CA_2  and  C_3 
REMARK    3  A    between atoms: CA_2  and  CB_5 
REMARK       I    between atoms: C_3  and  N_16 
REMARK    4  A    between atoms: CB_5  and  CG_6 
REMARK    5  A    between atoms: CG_6  and  CD_7 
REMARK    6  A    between atoms: CD_7  and  CE_8 
REMARK    7  A    between atoms: CE_8  and  NZ_9 
REMARK    8  A    between atoms: N_16  and  CA_17 
REMARK    9  A    between atoms: CA_17  and  C_18 
REMARK   10  A    between atoms: CA_17  and  CB_20 
REMARK       I    between atoms: C_18  and  N_25 
REMARK   11  A    between atoms: CB_20  and  OG1_21 
REMARK   12  A    between atoms: N_25  and  CA_26 
REMARK   13  A    between atoms: CA_26  and  CB_29 
REMARK   14  A    between atoms: CA_26  and  C_27 
REMARK       I    between atoms: C_27  and  N_38 
REMARK   15  A    between atoms: CB_29  and  CG_30 
REMARK   16  A    between atoms: CG_30  and  CD_31 
REMARK   17  A    between atoms: CD_31  and  CE_32 
REMARK   18  A    between atoms: CE_32  and  NZ_33 
REMARK   19  A    between atoms: N_38  and  CA_39 
REMARK   20  A    between atoms: CA_39  and  CB_42 
REMARK   21  A    between atoms: CA_39  and  C_40 
REMARK       I    between atoms: C_40  and  N_47 
REMARK   22  A    between atoms: CB_42  and  CG_43 
REMARK   23  A    between atoms: N_47  and  CA_48 
REMARK   24  A    between atoms: CA_48  and  C_49 
REMARK   25  A    between atoms: CA_48  and  CB_51 
REMARK   26  A    between atoms: CB_51  and  CG_52 
ROOT
ATOM      1  CA  LYS B   3       1.683   5.529  19.974  1.00 16.28     0.176 C 
ENDROOT
BRANCH   1   2
ATOM      2  N   LYS B   3       2.809   4.898  19.293  1.00 16.24    -0.346 N 
ATOM      3  C   THR B   2       2.811   3.600  19.019  1.00 15.43     0.243 C 
ATOM      4  O   THR B   2       1.884   2.852  19.332  1.00 16.46    -0.271 OA
ATOM      5  H   LYS B   3       3.451   5.434  19.093  1.00 16.24     0.163 HD
BRANCH   3   6
ATOM      6  CA  THR B   2       4.046   3.053  18.287  1.00 18.42     0.205 C 
BRANCH   6   7
ATOM      7  CB  THR B   2       4.018   3.427  16.787  1.00 34.78     0.146 C 
ATOM      8  CG2 THR B   2       2.738   3.002  16.162  1.00 27.89     0.042 C 
BRANCH   7   9
ATOM      9  OG1 THR B   2       4.145   4.848  16.636  1.00 42.87    -0.393 OA
ATOM     10  HG1 THR B   2       4.131   5.046  15.820  1.00 42.87     0.210 HD
ENDBRANCH   7   9
ENDBRANCH   6   7
BRANCH   6  11
ATOM     11  N   THR B   2       4.132   1.611  18.505  1.00 21.00    -0.344 N 
ATOM     12  H   THR B   2       3.917   1.125  17.829  1.00 21.00     0.163 HD
ATOM     13  C   LYS B   1       4.521   1.138  19.687  1.00 25.53     0.249 C 
ATOM     14  O   LYS B   1       4.894   1.872  20.601  1.00 25.75    -0.271 OA
BRANCH  13  15
ATOM     15  CA  LYS B   1       4.497  -0.377  19.875  1.00 28.68     0.274 C 
BRANCH  15  16
ATOM     16  N   LYS B   1       5.855  -0.914  19.916  1.00 32.90    -0.067 N 
ATOM     17  H2  LYS B   1       6.272  -0.726  19.153  1.00 32.90     0.275 HD
ATOM     18  H1  LYS B   1       5.822  -1.797  20.026  1.00 32.90     0.275 HD
ATOM     19  H3  LYS B   1       6.299  -0.547  20.595  1.00 32.90     0.275 HD
ENDBRANCH  15  16
BRANCH  15  20
ATOM     20  CB  LYS B   1       3.744  -0.752  21.162  1.00 29.25     0.042 C 
BRANCH  20  21
ATOM     21  CG  LYS B   1       2.342  -0.139  21.305  1.00 22.42     0.004 C 
BRANCH  21  22
ATOM     22  CD  LYS B   1       1.385  -0.573  20.186  1.00 17.84     0.027 C 
BRANCH  22  23
ATOM     23  CE  LYS B   1       0.818  -1.980  20.391  1.00 19.17     0.229 C 
BRANCH  23  24
ATOM     24  NZ  LYS B   1      -0.012  -2.383  19.202  1.00 16.78    -0.079 N 
ATOM     25  HZ3 LYS B   1       0.524  -2.588  18.521  1.00 16.78     0.274 HD
ATOM     26  HZ2 LYS B   1      -0.543  -1.708  18.968  1.00 16.78     0.274 HD
ATOM     27  HZ1 LYS B   1      -0.508  -3.092  19.412  1.00 16.78     0.274 HD
ENDBRANCH  23  24
ENDBRANCH  22  23
ENDBRANCH  21  22
ENDBRANCH  20  21
ENDBRANCH  15  20
ENDBRANCH  13  15
ENDBRANCH   6  11
ENDBRANCH   3   6
ENDBRANCH   1   2
BRANCH   1  28
ATOM     28  CB  LYS B   3       0.444   5.549  19.073  1.00 18.38     0.035 C 
BRANCH  28  29
ATOM     29  CG  LYS B   3       0.641   6.300  17.759  1.00 26.14     0.004 C 
BRANCH  29  30
ATOM     30  CD  LYS B   3       0.857   7.779  17.997  1.00 31.23     0.027 C 
BRANCH  30  31
ATOM     31  CE  LYS B   3      -0.376   8.557  17.582  1.00 22.88     0.229 C 
BRANCH  31  32
ATOM     32  NZ  LYS B   3      -0.326   9.959  18.064  1.00 17.22    -0.079 N 
ATOM     33  HZ1 LYS B   3      -1.134  10.206  18.345  1.00 17.22     0.274 HD
ATOM     34  HZ2 LYS B   3       0.253  10.021  18.737  1.00 17.22     0.274 HD
ATOM     35  HZ3 LYS B   3      -0.067  10.492  17.400  1.00 17.22     0.274 HD
ENDBRANCH  31  32
ENDBRANCH  30  31
ENDBRANCH  29  30
ENDBRANCH  28  29
ENDBRANCH   1  28
BRANCH   1  36
ATOM     36  C   LYS B   3       1.376   4.822  21.293  1.00 15.99     0.241 C 
ATOM     37  O   LYS B   3       0.221   4.524  21.601  1.00 15.51    -0.271 OA
ATOM     38  N   LEU B   4       2.416   4.552  22.070  1.00 15.71    -0.346 N 
ATOM     39  H   LEU B   4       3.231   4.738  21.866  1.00 15.71     0.163 HD
BRANCH  38  40
ATOM     40  CA  LEU B   4       2.250   3.901  23.364  1.00 14.62     0.177 C 
BRANCH  40  41
ATOM     41  CB  LEU B   4       3.588   3.324  23.840  1.00 15.80     0.038 C 
BRANCH  41  42
ATOM     42  CG  LEU B   4       3.571   2.558  25.167  1.00 19.66    -0.020 C 
ATOM     43  CD1 LEU B   4       2.699   1.305  25.082  1.00 24.77     0.009 C 
ATOM     44  CD2 LEU B   4       4.994   2.203  25.605  1.00 23.70     0.009 C 
ENDBRANCH  41  42
ENDBRANCH  40  41
BRANCH  40  45
ATOM     45  C   LEU B   4       1.697   4.869  24.409  1.00 16.87     0.241 C 
ATOM     46  O   LEU B   4       0.964   4.457  25.309  1.00 17.11    -0.271 OA
ATOM     47  N   LEU B   5       2.047   6.150  24.291  1.00 16.48    -0.345 N 
ATOM     48  H   LEU B   5       2.553   6.453  23.665  1.00 16.48     0.163 HD
BRANCH  47  49
ATOM     49  CA  LEU B   5       1.584   7.169  25.243  1.00 15.20     0.185 C 
BRANCH  49  50
ATOM     50  C   LEU B   5       0.069   7.267  25.271  1.00 16.61     0.196 C 
ATOM     51  O   LEU B   5      -0.585   6.962  24.266  1.00 15.12    -0.646 OA
ATOM     52  OXT LEU B   5      -0.505   7.710  26.278  1.00 16.68    -0.646 OA
ENDBRANCH  49  50
BRANCH  49  53
ATOM     53  CB  LEU B   5       2.124   8.551  24.866  1.00 18.07     0.040 C 
BRANCH  53  54
ATOM     54  CG  LEU B   5       3.595   8.856  25.156  1.00 20.47    -0.020 C 
ATOM     55  CD2 LEU B   5       3.873   8.792  26.639  1.00 26.52     0.009 C 
ATOM     56  CD1 LEU B   5       3.938  10.234  24.613  1.00 24.90     0.009 C 
ENDBRANCH  53  54
ENDBRANCH  49  53
ENDBRANCH  47  49
ENDBRANCH  40  45
ENDBRANCH  38  40
ENDBRANCH   1  36
TORSDOF 26
