USER: ADFR SOLUTION from run 0
USER: SCORE 19.756056 LL:  -3.957 LR: -16.678 RR:   0.000 FEB:  -8.922
USER: RMSD 0.251700
USER: STATUS Locally minimized using BFGS
USER: GENES 28
USER: genes 0 Translation |==|  0.43809 0.58392 0.43860
USER: genes 1 Rotation |==|  0.50041 0.49061 0.49240 0.99985
USER: genes 2 Torsion [CB]-CA--N-[C] |==|  0.81101
USER: genes 3 Torsion [N]-C--CA-[N] |==|  0.43779
USER: genes 4 Torsion [C]-CA--CB-[CG2] |==|  0.85452
USER: genes 5 Torsion [CA]-CB--OG1-[HG1] |==|  0.49951
USER: genes 6 Torsion [C]-CA--N-[C] |==|  0.79243
USER: genes 7 Torsion [N]-C--CA-[N] |==|  0.29981
USER: genes 8 Torsion [C]-CA--N-[H1] |==|  0.50001
USER: genes 9 Torsion [C]-CA--CB-[CG] |==|  0.14420
USER: genes 10 Torsion [CA]-CB--CG-[CD] |==|  0.17198
USER: genes 11 Torsion [CB]-CG--CD-[CE] |==|  0.21677
USER: genes 12 Torsion [CG]-CD--CE-[NZ] |==|  0.51324
USER: genes 13 Torsion [CD]-CE--NZ-[HZ3] |==|  0.20911
USER: genes 14 Torsion [N]-CA--CB-[CG] |==|  0.84552
USER: genes 15 Torsion [CA]-CB--CG-[CD] |==|  0.81849
USER: genes 16 Torsion [CB]-CG--CD-[CE] |==|  0.70139
USER: genes 17 Torsion [CG]-CD--CE-[NZ] |==|  0.47054
USER: genes 18 Torsion [CD]-CE--NZ-[HZ1] |==|  0.60987
USER: genes 19 Torsion [N]-CA--C-[N] |==|  0.12557
USER: genes 20 Torsion [C]-N--CA-[C] |==|  0.79169
USER: genes 21 Torsion [N]-CA--CB-[CG] |==|  0.50734
USER: genes 22 Torsion [CA]-CB--CG-[CD1] |==|  0.17510
USER: genes 23 Torsion [N]-CA--C-[N] |==|  0.91583
USER: genes 24 Torsion [C]-N--CA-[C] |==|  0.83888
USER: genes 25 Torsion [N]-CA--C-[O] |==|  0.92355
USER: genes 26 Torsion [N]-CA--CB-[CG] |==|  0.78778
USER: genes 27 Torsion [CA]-CB--CG-[CD2] |==|  0.82721
ROOT
ATOM      1  CA  LYS B   3       1.608   5.525  20.033  1.00 16.28 LIG 0.18  C 
ENDROOT
BRANCH 1 2
ATOM      2  N   LYS B   3       2.739   4.861  19.393  1.00 16.24 LIG-0.35  N 
ATOM      3  C   THR B   2       2.708   3.566  19.108  1.00 15.43 LIG 0.24  C 
ATOM      4 O    THR B   2       1.744   2.848  19.376  1.00 16.46 LIG-0.27  OA
ATOM      5 H    LYS B   3       3.407   5.376  19.224  1.00 16.24 LIG 0.16  HD
BRANCH 3 6
ATOM      6  CA  THR B   2       3.953   2.982  18.423  1.00 18.42 LIG 0.20  C 
BRANCH 6 7
ATOM      7  CB  THR B   2       3.983   3.340  16.919  1.00 34.78 LIG 0.15  C 
ATOM      8  CG2 THR B   2       2.704   2.963  16.262  1.00 27.89 LIG 0.04  C 
BRANCH 7 9
ATOM      9 OG1  THR B   2       4.175   4.752  16.757  1.00 42.87 LIG-0.39  OA
ATOM     10 HG1  THR B   2       4.193   4.942  15.939  1.00 42.87 LIG 0.21  HD
ENDBRANCH 7 9
ENDBRANCH 6 7
BRANCH 6 11
ATOM     11  N   THR B   2       3.998   1.541  18.658  1.00 21.00 LIG-0.34  N 
ATOM     12 H    THR B   2       3.784   1.053  17.983  1.00 21.00 LIG 0.16  HD
ATOM     13  C   LYS B   1       4.351   1.072  19.853  1.00 25.53 LIG 0.25  C 
ATOM     14 O    LYS B   1       4.725   1.807  20.766  1.00 25.75 LIG-0.27  OA
BRANCH 13 15
ATOM     15  CA  LYS B   1       4.285  -0.440  20.057  1.00 28.68 LIG 0.27  C 
BRANCH 15 16
ATOM     16  N   LYS B   1       5.627  -1.013  20.115  1.00 32.90 LIG-0.07  N 
ATOM     17 H2   LYS B   1       6.056  -0.844  19.354  1.00 32.90 LIG 0.28  HD
ATOM     18 H1   LYS B   1       5.570  -1.893  20.234  1.00 32.90 LIG 0.28  HD
ATOM     19 H3   LYS B   1       6.076  -0.650  20.794  1.00 32.90 LIG 0.28  HD
ENDBRANCH 15 16
BRANCH 15 20
ATOM     20  CB  LYS B   1       3.512  -0.780  21.342  1.00 29.25 LIG 0.04  C 
BRANCH 20 21
ATOM     21  CG  LYS B   1       2.126  -0.126  21.467  1.00 22.42 LIG 0.00  C 
BRANCH 21 22
ATOM     22  CD  LYS B   1       1.160  -0.559  20.355  1.00 17.84 LIG 0.03  C 
BRANCH 22 23
ATOM     23  CE  LYS B   1       0.564  -1.950  20.583  1.00 19.17 LIG 0.23  C 
BRANCH 23 24
ATOM     24  NZ  LYS B   1      -0.278  -2.353  19.403  1.00 16.78 LIG-0.08  N 
ATOM     25 HZ3  LYS B   1       0.252  -2.584  18.725  1.00 16.78 LIG 0.27  HD
ATOM     26 HZ2  LYS B   1      -0.792  -1.669  19.157  1.00 16.78 LIG 0.27  HD
ATOM     27 HZ1  LYS B   1      -0.791  -3.045  19.626  1.00 16.78 LIG 0.27  HD
ENDBRANCH 23 24
ENDBRANCH 22 23
ENDBRANCH 21 22
ENDBRANCH 20 21
ENDBRANCH 15 20
ENDBRANCH 13 15
ENDBRANCH 6 11
ENDBRANCH 3 6
ENDBRANCH 1 2
BRANCH 1 28
ATOM     28  CB  LYS B   3       0.405   5.584  19.086  1.00 18.38 LIG 0.04  C 
BRANCH 28 29
ATOM     29  CG  LYS B   3       0.700   6.248  17.744  1.00 26.14 LIG 0.00  C 
BRANCH 29 30
ATOM     30  CD  LYS B   3       1.032   7.715  17.917  1.00 31.23 LIG 0.03  C 
BRANCH 30 31
ATOM     31  CE  LYS B   3      -0.116   8.570  17.419  1.00 22.88 LIG 0.23  C 
BRANCH 31 32
ATOM     32  NZ  LYS B   3       0.057   9.993  17.798  1.00 17.22 LIG-0.08  N 
ATOM     33 HZ1  LYS B   3      -0.729  10.336  18.037  1.00 17.22 LIG 0.27  HD
ATOM     34 HZ2  LYS B   3       0.624  10.051  18.482  1.00 17.22 LIG 0.27  HD
ATOM     35 HZ3  LYS B   3       0.381  10.448  17.105  1.00 17.22 LIG 0.27  HD
ENDBRANCH 31 32
ENDBRANCH 30 31
ENDBRANCH 29 30
ENDBRANCH 28 29
ENDBRANCH 1 28
BRANCH 1 36
ATOM     36  C   LYS B   3       1.230   4.827  21.338  1.00 15.99 LIG 0.24  C 
ATOM     37 O    LYS B   3       0.054   4.582  21.611  1.00 15.51 LIG-0.27  OA
ATOM     38  N   LEU B   4       2.234   4.503  22.142  1.00 15.71 LIG-0.35  N 
ATOM     39 H    LEU B   4       3.062   4.651  21.962  1.00 15.71 LIG 0.16  HD
BRANCH 38 40
ATOM     40  CA  LEU B   4       2.000   3.854  23.426  1.00 14.62 LIG 0.18  C 
BRANCH 40 41
ATOM     41  CB  LEU B   4       3.297   3.216  23.939  1.00 15.80 LIG 0.04  C 
BRANCH 41 42
ATOM     42  CG  LEU B   4       3.204   2.437  25.255  1.00 19.66 LIG-0.02  C 
ATOM     43  CD1 LEU B   4       2.275   1.229  25.128  1.00 24.77 LIG 0.01  C 
ATOM     44  CD2 LEU B   4       4.594   2.008  25.729  1.00 23.70 LIG 0.01  C 
ENDBRANCH 41 42
ENDBRANCH 40 41
BRANCH 40 45
ATOM     45  C   LEU B   4       1.459   4.840  24.460  1.00 16.87 LIG 0.24  C 
ATOM     46 O    LEU B   4       0.708   4.450  25.355  1.00 17.11 LIG-0.27  OA
ATOM     47  N   LEU B   5       1.839   6.112  24.339  1.00 16.48 LIG-0.34  N 
ATOM     48 H    LEU B   5       2.358   6.400  23.716  1.00 16.48 LIG 0.16  HD
BRANCH 47 49
ATOM     49  CA  LEU B   5       1.390   7.147  25.280  1.00 15.20 LIG 0.18  C 
BRANCH 49 50
ATOM     50  C   LEU B   5      -0.125   7.249  25.325  1.00 16.61 LIG 0.20  C 
ATOM     51 O    LEU B   5      -0.791   6.930  24.333  1.00 15.12 LIG-0.65  OA
ATOM     52 OXT  LEU B   5      -0.686   7.708  26.332  1.00 16.68 LIG-0.65  OA
ENDBRANCH 49 50
BRANCH 49 53
ATOM     53  CB  LEU B   5       1.928   8.522  24.875  1.00 18.07 LIG 0.04  C 
BRANCH 53 54
ATOM     54  CG  LEU B   5       3.396   8.838  25.167  1.00 20.47 LIG-0.02  C 
ATOM     55  CD2 LEU B   5       3.666   8.805  26.653  1.00 26.52 LIG 0.01  C 
ATOM     56  CD1 LEU B   5       3.738  10.205  24.598  1.00 24.90 LIG 0.01  C 
ENDBRANCH 53 54
ENDBRANCH 49 53
ENDBRANCH 47 49
ENDBRANCH 40 45
ENDBRANCH 38 40
ENDBRANCH 1 36
TORSDOF 26
