USER: ADFR SOLUTION from run 0
USER: SCORE 17.714473 LL:  -5.119 LR: -14.595 RR:   0.000 FEB:  -6.541
USER: RMSD 0.220242
USER: STATUS Locally minimized using BFGS
USER: GENES 29
USER: genes 0 Translation |==|  0.39385 0.54653 0.43431
USER: genes 1 Rotation |==|  0.50343 0.49980 0.49924 0.99999
USER: genes 2 Torsion [N]-C--CA-[N] |==|  0.47606
USER: genes 3 Torsion [C]-CA--N-[C] |==|  0.74117
USER: genes 4 Torsion [N]-C--CA-[N] |==|  0.34001
USER: genes 5 Torsion [C]-CA--CB-[CG] |==|  0.19139
USER: genes 6 Torsion [CA]-CB--CG-[CD] |==|  0.50777
USER: genes 7 Torsion [CB]-CG--CD-[CE] |==|  0.76976
USER: genes 8 Torsion [CG]-CD--CE-[NZ] |==|  0.84525
USER: genes 9 Torsion [CD]-CE--NZ-[HZ1] |==|  0.58455
USER: genes 10 Torsion [C]-CA--N-[C] |==|  0.80185
USER: genes 11 Torsion [N]-C--CA-[N] |==|  0.90246
USER: genes 12 Torsion [C]-CA--CB-[CG] |==|  0.22334
USER: genes 13 Torsion [CA]-CB--CG-[CD] |==|  0.49140
USER: genes 14 Torsion [CB]-CG--CD-[OE1] |==|  0.96083
USER: genes 15 Torsion [C]-CA--N-[H1] |==|  0.49999
USER: genes 16 Torsion [C]-CA--CB-[CG2] |==|  0.81634
USER: genes 17 Torsion [C]-N--CA-[CB] |==|  0.77549
USER: genes 18 Torsion [N]-CA--CB-[CG] |==|  0.81984
USER: genes 19 Torsion [CA]-CB--CG-[ND1] |==|  0.23268
USER: genes 20 Torsion [N]-CA--C-[N] |==|  0.14375
USER: genes 21 Torsion [C]-N--CA-[CB] |==|  0.43678
USER: genes 22 Torsion [N]-CA--CB-[CG1] |==|  0.46461
USER: genes 23 Torsion [N]-CA--C-[N] |==|  0.91536
USER: genes 24 Torsion [C]-N--CA-[C] |==|  0.79455
USER: genes 25 Torsion [N]-CA--C-[OXT] |==|  0.96826
USER: genes 26 Torsion [N]-CA--CB-[CG] |==|  0.80445
USER: genes 27 Torsion [CA]-CB--CG-[CD] |==|  0.53883
USER: genes 28 Torsion [CB]-CG--CD-[OE1] |==|  0.26835
ROOT
ATOM      1  C   VAL B   3       2.496 -21.528  19.005  1.00 28.64 LIG 0.24  C 
ATOM      2 O    VAL B   3       1.605 -22.355  19.236  1.00 27.24 LIG-0.27  OA
ATOM      3  N   HIS B   4       2.439 -20.125  19.450  1.00 29.63 LIG-0.35  N 
ATOM      4 H    HIS B   4       2.993 -19.502  19.239  1.00 29.63 LIG 0.16  HD
ENDROOT
BRANCH 1 5
ATOM      5  CA  VAL B   3       3.736 -21.925  18.183  1.00 30.81 LIG 0.18  C 
BRANCH 5 6
ATOM      6  N   VAL B   3       3.751 -23.368  17.994  1.00 30.70 LIG-0.35  N 
ATOM      7 H    VAL B   3       3.308 -23.644  17.311  1.00 30.70 LIG 0.16  HD
ATOM      8  C   LYS B   2       4.409 -24.166  18.830  1.00 38.89 LIG 0.24  C 
ATOM      9 O    LYS B   2       5.098 -23.740  19.764  1.00 35.72 LIG-0.27  OA
BRANCH 8 10
ATOM     10  CA  LYS B   2       4.287 -25.660  18.558  1.00 39.86 LIG 0.18  C 
BRANCH 10 11
ATOM     11  CB  LYS B   2       3.493 -26.351  19.684  1.00 33.57 LIG 0.04  C 
BRANCH 11 12
ATOM     12  CG  LYS B   2       2.003 -25.953  19.690  1.00 34.54 LIG 0.00  C 
BRANCH 12 13
ATOM     13  CD  LYS B   2       1.213 -26.573  20.836  1.00 30.34 LIG 0.03  C 
BRANCH 13 14
ATOM     14  CE  LYS B   2       0.750 -27.988  20.553  1.00 26.25 LIG 0.23  C 
BRANCH 14 15
ATOM     15  NZ  LYS B   2      -0.055 -28.037  19.287  1.00 28.72 LIG-0.08  N 
ATOM     16 HZ2  LYS B   2      -0.468 -27.257  19.167  1.00 28.72 LIG 0.27  HD
ATOM     17 HZ3  LYS B   2       0.485 -28.195  18.597  1.00 28.72 LIG 0.27  HD
ATOM     18 HZ1  LYS B   2      -0.659 -28.687  19.344  1.00 28.72 LIG 0.27  HD
ENDBRANCH 14 15
ENDBRANCH 13 14
ENDBRANCH 12 13
ENDBRANCH 11 12
ENDBRANCH 10 11
BRANCH 10 19
ATOM     19  N   LYS B   2       5.626 -26.224  18.362  1.00 40.88 LIG-0.35  N 
ATOM     20  C   GLU B   1       6.298 -25.933  17.243  1.00 50.16 LIG 0.25  C 
ATOM     21 O    GLU B   1       5.790 -25.303  16.311  1.00 45.73 LIG-0.27  OA
ATOM     22 H    LYS B   2       5.915 -26.727  18.998  1.00 40.88 LIG 0.16  HD
BRANCH 20 23
ATOM     23  CA  GLU B   1       7.739 -26.432  17.125  1.00 56.89 LIG 0.28  C 
BRANCH 23 24
ATOM     24  CB  GLU B   1       7.758 -27.824  16.498  1.00 44.84 LIG 0.05  C 
BRANCH 24 25
ATOM     25  CG  GLU B   1       7.625 -27.819  14.983  1.00 43.84 LIG 0.12  C 
BRANCH 25 26
ATOM     26  CD  GLU B   1       7.722 -29.211  14.378  1.00 58.57 LIG 0.17  C 
ATOM     27 OE1  GLU B   1       8.155 -30.142  15.094  1.00 59.35 LIG-0.65  OA
ATOM     28 OE2  GLU B   1       7.370 -29.373  13.187  1.00 59.65 LIG-0.65  OA
ENDBRANCH 25 26
ENDBRANCH 24 25
ENDBRANCH 23 24
BRANCH 23 29
ATOM     29  N   GLU B   1       8.447 -26.420  18.399  1.00 43.96 LIG-0.07  N 
ATOM     30 H1   GLU B   1       9.277 -26.717  18.280  1.00 43.96 LIG 0.28  HD
ATOM     31 H2   GLU B   1       8.472 -25.589  18.717  1.00 43.96 LIG 0.28  HD
ATOM     32 H3   GLU B   1       8.025 -26.947  18.978  1.00 43.96 LIG 0.28  HD
ENDBRANCH 23 29
ENDBRANCH 20 23
ENDBRANCH 10 19
ENDBRANCH 8 10
ENDBRANCH 5 6
BRANCH 5 33
ATOM     33  CB  VAL B   3       3.744 -21.190  16.836  1.00 34.43 LIG 0.01  C 
ATOM     34  CG2 VAL B   3       2.590 -21.654  15.983  1.00 33.75 LIG 0.01  C 
ATOM     35  CG1 VAL B   3       5.073 -21.439  16.106  1.00 37.65 LIG 0.01  C 
ENDBRANCH 5 33
ENDBRANCH 1 5
BRANCH 3 36
ATOM     36  CA  HIS B   4       1.339 -19.748  20.337  1.00 28.98 LIG 0.18  C 
BRANCH 36 37
ATOM     37  CB  HIS B   4       0.044 -19.494  19.542  1.00 26.24 LIG 0.10  C 
BRANCH 37 38
ATOM     38  CG  HIS B   4       0.139 -18.320  18.615  1.00 30.41 LIG 0.06  A 
ATOM     39 ND1  HIS B   4       0.684 -18.410  17.351  1.00 34.08 LIG-0.24  NA
ATOM     40  CE1 HIS B   4       0.632 -17.224  16.766  1.00 29.96 LIG 0.23  A 
ATOM     41 NE2  HIS B   4       0.055 -16.376  17.598  1.00 35.16 LIG-0.25  NA
ATOM     42  CD2 HIS B   4      -0.268 -17.035  18.761  1.00 34.95 LIG 0.14  A 
ENDBRANCH 37 38
ENDBRANCH 36 37
BRANCH 36 43
ATOM     43  C   HIS B   4       1.096 -20.769  21.435  1.00 27.46 LIG 0.24  C 
ATOM     44 O    HIS B   4      -0.049 -21.123  21.735  1.00 25.24 LIG-0.27  OA
ATOM     45  N   VAL B   5       2.076 -21.122  22.128  1.00 26.31 LIG-0.35  N 
ATOM     46 H    VAL B   5       2.892 -20.902  21.963  1.00 26.31 LIG 0.16  HD
BRANCH 45 47
ATOM     47  CA  VAL B   5       1.894 -21.968  23.314  1.00 25.23 LIG 0.18  C 
BRANCH 47 48
ATOM     48  CB  VAL B   5       3.195 -22.727  23.667  1.00 26.56 LIG 0.01  C 
ATOM     49  CG2 VAL B   5       3.483 -23.799  22.626  1.00 31.17 LIG 0.01  C 
ATOM     50  CG1 VAL B   5       3.121 -23.351  25.041  1.00 34.68 LIG 0.01  C 
ENDBRANCH 47 48
BRANCH 47 51
ATOM     51  C   VAL B   5       1.396 -21.156  24.500  1.00 27.03 LIG 0.24  C 
ATOM     52  N   GLN B   6       1.777 -19.885  24.552  1.00 26.89 LIG-0.34  N 
ATOM     53 H    GLN B   6       2.283 -19.496  23.975  1.00 26.89 LIG 0.16  HD
ATOM     54 O    VAL B   5       0.660 -21.665  25.358  1.00 28.01 LIG-0.27  OA
BRANCH 52 55
ATOM     55  CA  GLN B   6       1.322 -19.040  25.660  1.00 25.51 LIG 0.19  C 
BRANCH 55 56
ATOM     56  C   GLN B   6      -0.148 -18.664  25.508  1.00 28.77 LIG 0.20  C 
ATOM     57 OXT  GLN B   6      -0.775 -18.872  24.450  1.00 27.06 LIG-0.65  OA
ATOM     58 O    GLN B   6      -0.738 -18.108  26.450  1.00 25.73 LIG-0.65  OA
ENDBRANCH 55 56
BRANCH 55 59
ATOM     59  CB  GLN B   6       2.141 -17.754  25.736  1.00 31.03 LIG 0.04  C 
BRANCH 59 60
ATOM     60  CG  GLN B   6       3.567 -17.940  26.192  1.00 39.52 LIG 0.10  C 
BRANCH 60 61
ATOM     61  CD  GLN B   6       4.201 -16.619  26.565  1.00 49.24 LIG 0.21  C 
ATOM     62  NE2 GLN B   6       4.681 -15.893  25.564  1.00 50.05 LIG-0.37  N 
ATOM     63 21HE GLN B   6       4.636 -16.190  24.758  1.00 50.05 LIG 0.16  HD
ATOM     64 22HE GLN B   6       5.036 -15.126  25.721  1.00 50.05 LIG 0.16  HD
ATOM     65 OE1  GLN B   6       4.238 -16.242  27.743  1.00 58.78 LIG-0.27  OA
ENDBRANCH 60 61
ENDBRANCH 59 60
ENDBRANCH 55 59
ENDBRANCH 52 55
ENDBRANCH 47 51
ENDBRANCH 45 47
ENDBRANCH 36 43
ENDBRANCH 3 36
TORSDOF 27
