REMARK  25 active torsions:
REMARK  status: ('A' for Active; 'I' for Inactive)
REMARK    1  A    between atoms: N_1  and  CA_2 
REMARK    2  A    between atoms: CA_2  and  C_3 
REMARK    3  A    between atoms: CA_2  and  CB_5 
REMARK       I    between atoms: C_3  and  N_16 
REMARK    4  A    between atoms: CB_5  and  CG_6 
REMARK    5  A    between atoms: CG_6  and  CD_7 
REMARK    6  A    between atoms: CD_7  and  CE_8 
REMARK    7  A    between atoms: CE_8  and  NZ_9 
REMARK    8  A    between atoms: N_16  and  CA_17 
REMARK    9  A    between atoms: CA_17  and  C_18 
REMARK   10  A    between atoms: CA_17  and  CB_20 
REMARK       I    between atoms: C_18  and  N_24 
REMARK   11  A    between atoms: CB_20  and  OG_21 
REMARK   12  A    between atoms: N_24  and  CA_25 
REMARK   13  A    between atoms: CA_25  and  CB_28 
REMARK   14  A    between atoms: CA_25  and  C_26 
REMARK       I    between atoms: C_26  and  N_35 
REMARK   15  A    between atoms: CB_28  and  CG_29 
REMARK   16  A    between atoms: N_35  and  CA_36 
REMARK   17  A    between atoms: CA_36  and  C_37 
REMARK   18  A    between atoms: CA_36  and  CB_39 
REMARK       I    between atoms: C_37  and  N_47 
REMARK   19  A    between atoms: CB_39  and  CG_40 
REMARK   20  A    between atoms: CG_40  and  CD_41 
REMARK       I    between atoms: CD_41  and  NE2_43 
REMARK   21  A    between atoms: N_47  and  CA_48 
REMARK   22  A    between atoms: CA_48  and  CB_51 
REMARK   23  A    between atoms: CA_48  and  C_49 
REMARK   24  A    between atoms: CB_51  and  CG_52 
REMARK   25  A    between atoms: CG_52  and  CD_53 
ROOT
ATOM      1  CA  HIS C   3     -24.362 111.634-130.517  1.00 19.60     0.182 C 
ENDROOT
BRANCH   1   2
ATOM      2  CB  HIS C   3     -24.077 111.957-129.046  1.00 23.73     0.095 C 
BRANCH   2   3
ATOM      3  CG  HIS C   3     -25.274 112.466-128.308  1.00 30.80     0.056 A 
ATOM      4  ND1 HIS C   3     -26.411 111.710-128.121  1.00 38.28    -0.245 NA
ATOM      5  CE1 HIS C   3     -27.300 112.415-127.447  1.00 40.75     0.232 A 
ATOM      6  NE2 HIS C   3     -26.783 113.604-127.192  1.00 37.68    -0.252 NA
ATOM      7  CD2 HIS C   3     -25.515 113.661-127.719  1.00 33.77     0.145 A 
ENDBRANCH   2   3
ENDBRANCH   1   2
BRANCH   1   8
ATOM      8  C   HIS C   3     -23.064 111.436-131.271  1.00 20.49     0.241 C 
ATOM      9  N   GLN C   4     -23.163 110.917-132.492  1.00 22.11    -0.346 N 
ATOM     10  H   GLN C   4     -23.900 110.644-132.842  1.00 22.11     0.163 HD
ATOM     11  O   HIS C   3     -21.995 111.760-130.762  1.00 22.31    -0.271 OA
BRANCH   9  12
ATOM     12  CA  GLN C   4     -21.995 110.769-133.349  1.00 24.42     0.177 C 
BRANCH  12  13
ATOM     13  C   GLN C   4     -21.436 112.138-133.735  1.00 25.27     0.241 C 
ATOM     14  O   GLN C   4     -20.220 112.339-133.769  1.00 26.26    -0.271 OA
ATOM     15  N   GLU C   5     -22.329 113.082-134.008  1.00 23.86    -0.345 N 
ATOM     16  H   GLU C   5     -23.179 112.978-133.930  1.00 23.86     0.163 HD
BRANCH  15  17
ATOM     17  CA  GLU C   5     -21.919 114.405-134.474  1.00 25.08     0.186 C 
BRANCH  17  18
ATOM     18  CB  GLU C   5     -23.110 115.161-135.062  1.00 28.24     0.046 C 
BRANCH  18  19
ATOM     19  CG  GLU C   5     -23.675 114.511-136.313  1.00 35.55     0.116 C 
BRANCH  19  20
ATOM     20  CD  GLU C   5     -24.795 115.318-136.927  1.00 50.11     0.172 C 
ATOM     21  OE2 GLU C   5     -24.561 115.952-137.980  1.00 51.97    -0.648 OA
ATOM     22  OE1 GLU C   5     -25.906 115.321-136.354  1.00 61.02    -0.648 OA
ENDBRANCH  19  20
ENDBRANCH  18  19
ENDBRANCH  17  18
BRANCH  17  23
ATOM     23  C   GLU C   5     -21.228 115.261-133.416  1.00 25.62     0.196 C 
ATOM     24  OXT GLU C   5     -20.554 116.227-133.785  1.00 22.77    -0.646 OA
ATOM     25  O   GLU C   5     -21.311 115.029-132.203  1.00 24.56    -0.646 OA
ENDBRANCH  17  23
ENDBRANCH  15  17
ENDBRANCH  12  13
BRANCH  12  26
ATOM     26  CB  GLN C   4     -22.363 109.985-134.611  1.00 29.25     0.044 C 
BRANCH  26  27
ATOM     27  CG  GLN C   4     -21.233 109.875-135.626  1.00 33.50     0.105 C 
BRANCH  27  28
ATOM     28  CD  GLN C   4     -19.959 109.309-135.021  1.00 35.44     0.215 C 
ATOM     29  NE2 GLN C   4     -18.824 109.905-135.373  1.00 29.14    -0.370 N 
ATOM     30 2HE2 GLN C   4     -18.075 109.626-135.056  1.00 29.14     0.159 HD
ATOM     31 1HE2 GLN C   4     -18.839 110.570-135.918  1.00 29.14     0.159 HD
ATOM     32  OE1 GLN C   4     -19.993 108.352-134.243  1.00 33.33    -0.274 OA
ENDBRANCH  27  28
ENDBRANCH  26  27
ENDBRANCH  12  26
ENDBRANCH   9  12
ENDBRANCH   1   8
BRANCH   1  33
ATOM     33  N   HIS C   3     -25.246 110.479-130.623  1.00 25.18    -0.346 N 
ATOM     34  C   SER C   2     -24.893 109.270-130.197  1.00 31.86     0.243 C 
ATOM     35  O   SER C   2     -23.777 109.003-129.749  1.00 26.79    -0.271 OA
ATOM     36  H   HIS C   3     -26.008 110.653-130.983  1.00 25.18     0.163 HD
BRANCH  34  37
ATOM     37  CA  SER C   2     -25.962 108.197-130.302  1.00 34.72     0.200 C 
BRANCH  37  38
ATOM     38  N   SER C   2     -25.364 106.940-130.727  1.00 38.98    -0.344 N 
ATOM     39  C   LYS C   1     -24.900 106.783-131.963  1.00 41.15     0.249 C 
ATOM     40  O   LYS C   1     -25.007 107.650-132.837  1.00 40.86    -0.271 OA
ATOM     41  H   SER C   2     -25.341 106.330-130.121  1.00 38.98     0.163 HD
BRANCH  39  42
ATOM     42  CA  LYS C   1     -24.212 105.460-132.263  1.00 44.71     0.274 C 
BRANCH  42  43
ATOM     43  N   LYS C   1     -25.047 104.609-133.106  1.00 52.31    -0.067 N 
ATOM     44  H3  LYS C   1     -25.212 105.024-133.876  1.00 52.31     0.275 HD
ATOM     45  H2  LYS C   1     -25.815 104.441-132.690  1.00 52.31     0.275 HD
ATOM     46  H1  LYS C   1     -24.623 103.843-133.267  1.00 52.31     0.275 HD
ENDBRANCH  42  43
BRANCH  42  47
ATOM     47  CB  LYS C   1     -22.866 105.734-132.939  1.00 46.48     0.042 C 
BRANCH  47  48
ATOM     48  CG  LYS C   1     -21.663 105.088-132.256  1.00 53.12     0.004 C 
BRANCH  48  49
ATOM     49  CD  LYS C   1     -21.282 105.798-130.963  1.00 36.86     0.027 C 
BRANCH  49  50
ATOM     50  CE  LYS C   1     -19.918 105.315-130.468  1.00 31.94     0.229 C 
BRANCH  50  51
ATOM     51  NZ  LYS C   1     -19.916 104.949-129.019  1.00 27.86    -0.079 N 
ATOM     52  HZ3 LYS C   1     -20.658 104.498-128.826  1.00 27.86     0.274 HD
ATOM     53  HZ1 LYS C   1     -19.206 104.442-128.842  1.00 27.86     0.274 HD
ATOM     54  HZ2 LYS C   1     -19.882 105.689-128.526  1.00 27.86     0.274 HD
ENDBRANCH  50  51
ENDBRANCH  49  50
ENDBRANCH  48  49
ENDBRANCH  47  48
ENDBRANCH  42  47
ENDBRANCH  39  42
ENDBRANCH  37  38
BRANCH  37  55
ATOM     55  CB  SER C   2     -26.672 108.035-128.957  1.00 36.44     0.199 C 
BRANCH  55  56
ATOM     56  OG  SER C   2     -27.188 109.279-128.510  1.00 50.02    -0.398 OA
ATOM     57  HG  SER C   2     -26.553 109.805-128.351  1.00 50.02     0.209 HD
ENDBRANCH  55  56
ENDBRANCH  37  55
ENDBRANCH  34  37
ENDBRANCH   1  33
TORSDOF 25
