USER: ADFR SOLUTION from run 0
USER: SCORE 17.763053 LL:  -3.741 LR: -15.050 RR:   0.000 FEB:  -7.592
USER: RMSD 0.169600
USER: STATUS Locally minimized using BFGS
USER: GENES 27
USER: genes 0 Translation |==|  0.40350 0.57646 0.60608
USER: genes 1 Rotation |==|  0.50016 0.50190 0.50844 0.99993
USER: genes 2 Torsion [C]-CA--CB-[CG] |==|  0.46382
USER: genes 3 Torsion [CA]-CB--CG-[ND1] |==|  0.17446
USER: genes 4 Torsion [N]-CA--C-[N] |==|  0.12628
USER: genes 5 Torsion [C]-N--CA-[C] |==|  0.81832
USER: genes 6 Torsion [N]-CA--C-[N] |==|  0.89045
USER: genes 7 Torsion [C]-N--CA-[CB] |==|  0.45939
USER: genes 8 Torsion [N]-CA--CB-[CG] |==|  0.81946
USER: genes 9 Torsion [CA]-CB--CG-[CD] |==|  0.51043
USER: genes 10 Torsion [CB]-CG--CD-[OE2] |==|  0.29436
USER: genes 11 Torsion [N]-CA--C-[OXT] |==|  0.44957
USER: genes 12 Torsion [N]-CA--CB-[CG] |==|  0.48660
USER: genes 13 Torsion [CA]-CB--CG-[CD] |==|  0.14971
USER: genes 14 Torsion [CB]-CG--CD-[OE1] |==|  0.11800
USER: genes 15 Torsion [CB]-CA--N-[C] |==|  0.82501
USER: genes 16 Torsion [N]-C--CA-[N] |==|  0.39150
USER: genes 17 Torsion [C]-CA--N-[C] |==|  0.80556
USER: genes 18 Torsion [N]-C--CA-[N] |==|  0.29680
USER: genes 19 Torsion [C]-CA--N-[H3] |==|  0.16662
USER: genes 20 Torsion [C]-CA--CB-[CG] |==|  0.34802
USER: genes 21 Torsion [CA]-CB--CG-[CD] |==|  0.79362
USER: genes 22 Torsion [CB]-CG--CD-[CE] |==|  0.53357
USER: genes 23 Torsion [CG]-CD--CE-[NZ] |==|  0.63416
USER: genes 24 Torsion [CD]-CE--NZ-[HZ3] |==|  0.11674
USER: genes 25 Torsion [C]-CA--CB-[OG] |==|  0.15249
USER: genes 26 Torsion [CA]-CB--OG-[HG] |==|  0.81860
ROOT
ATOM      1  CA  HIS C   3     -24.353 111.641-130.517  1.00 19.60 LIG 0.18  C 
ENDROOT
BRANCH 1 2
ATOM      2  CB  HIS C   3     -24.068 111.972-129.048  1.00 23.73 LIG 0.10  C 
BRANCH 2 3
ATOM      3  CG  HIS C   3     -25.275 112.441-128.301  1.00 30.80 LIG 0.06  A 
ATOM      4 ND1  HIS C   3     -26.385 111.647-128.106  1.00 38.28 LIG-0.24  NA
ATOM      5  CE1 HIS C   3     -27.292 112.321-127.425  1.00 40.75 LIG 0.23  A 
ATOM      6 NE2  HIS C   3     -26.813 113.527-127.173  1.00 37.68 LIG-0.25  NA
ATOM      7  CD2 HIS C   3     -25.552 113.627-127.710  1.00 33.77 LIG 0.14  A 
ENDBRANCH 2 3
ENDBRANCH 1 2
BRANCH 1 8
ATOM      8  C   HIS C   3     -23.055 111.487-131.281  1.00 20.49 LIG 0.24  C 
ATOM      9  N   GLN C   4     -23.147 110.981-132.508  1.00 22.11 LIG-0.35  N 
ATOM     10 H    GLN C   4     -23.879 110.693-132.858  1.00 22.11 LIG 0.16  HD
ATOM     11 O    HIS C   3     -21.991 111.833-130.775  1.00 22.31 LIG-0.27  OA
BRANCH 9 12
ATOM     12  CA  GLN C   4     -21.981 110.875-133.374  1.00 24.42 LIG 0.18  C 
BRANCH 12 13
ATOM     13  C   GLN C   4     -21.455 112.263-133.737  1.00 25.27 LIG 0.24  C 
ATOM     14 O    GLN C   4     -20.243 112.491-133.778  1.00 26.26 LIG-0.27  OA
ATOM     15  N   GLU C   5     -22.370 113.193-133.983  1.00 23.86 LIG-0.34  N 
ATOM     16 H    GLU C   5     -23.217 113.070-133.899  1.00 23.86 LIG 0.16  HD
BRANCH 15 17
ATOM     17  CA  GLU C   5     -21.992 114.534-134.425  1.00 25.08 LIG 0.19  C 
BRANCH 17 18
ATOM     18  CB  GLU C   5     -23.207 115.280-134.976  1.00 28.24 LIG 0.05  C 
BRANCH 18 19
ATOM     19  CG  GLU C   5     -23.776 114.653-136.237  1.00 35.55 LIG 0.12  C 
BRANCH 19 20
ATOM     20  CD  GLU C   5     -24.917 115.455-136.816  1.00 50.11 LIG 0.17  C 
ATOM     21 OE2  GLU C   5     -24.707 116.122-137.854  1.00 51.97 LIG-0.65  OA
ATOM     22 OE1  GLU C   5     -26.022 115.421-136.232  1.00 61.02 LIG-0.65  OA
ENDBRANCH 19 20
ENDBRANCH 18 19
ENDBRANCH 17 18
BRANCH 17 23
ATOM     23  C   GLU C   5     -21.299 115.379-133.360  1.00 25.62 LIG 0.20  C 
ATOM     24 OXT  GLU C   5     -20.651 116.367-133.717  1.00 22.77 LIG-0.65  OA
ATOM     25 O    GLU C   5     -21.356 115.117-132.151  1.00 24.56 LIG-0.65  OA
ENDBRANCH 17 23
ENDBRANCH 15 17
ENDBRANCH 12 13
BRANCH 12 26
ATOM     26  CB  GLN C   4     -22.338 110.107-134.649  1.00 29.25 LIG 0.04  C 
BRANCH 26 27
ATOM     27  CG  GLN C   4     -21.213 110.043-135.672  1.00 33.50 LIG 0.10  C 
BRANCH 27 28
ATOM     28  CD  GLN C   4     -19.921 109.498-135.085  1.00 35.44 LIG 0.21  C 
ATOM     29  NE2 GLN C   4     -18.804 110.128-135.434  1.00 29.14 LIG-0.37  N 
ATOM     30 22HE GLN C   4     -18.046 109.863-135.126  1.00 29.14 LIG 0.16  HD
ATOM     31 21HE GLN C   4     -18.839 110.802-135.967  1.00 29.14 LIG 0.16  HD
ATOM     32 OE1  GLN C   4     -19.926 108.527-134.324  1.00 33.33 LIG-0.27  OA
ENDBRANCH 27 28
ENDBRANCH 26 27
ENDBRANCH 12 26
ENDBRANCH 9 12
ENDBRANCH 1 8
BRANCH 1 33
ATOM     33  N   HIS C   3     -25.198 110.457-130.618  1.00 25.18 LIG-0.35  N 
ATOM     34  C   SER C   2     -24.805 109.262-130.186  1.00 31.86 LIG 0.24  C 
ATOM     35 O    SER C   2     -23.681 109.034-129.736  1.00 26.79 LIG-0.27  OA
ATOM     36 H    HIS C   3     -25.965 110.603-130.978  1.00 25.18 LIG 0.16  HD
BRANCH 34 37
ATOM     37  CA  SER C   2     -25.838 108.154-130.285  1.00 34.72 LIG 0.20  C 
BRANCH 37 38
ATOM     38  N   SER C   2     -25.197 106.912-130.692  1.00 38.98 LIG-0.34  N 
ATOM     39  C   LYS C   1     -24.719 106.757-131.923  1.00 41.15 LIG 0.25  C 
ATOM     40 O    LYS C   1     -24.847 107.611-132.807  1.00 40.86 LIG-0.27  OA
ATOM     41 H    SER C   2     -25.159 106.310-130.080  1.00 38.98 LIG 0.16  HD
BRANCH 39 42
ATOM     42  CA  LYS C   1     -23.986 105.454-132.204  1.00 44.71 LIG 0.27  C 
BRANCH 42 43
ATOM     43  N   LYS C   1     -24.789 104.565-133.039  1.00 52.31 LIG-0.07  N 
ATOM     44 H3   LYS C   1     -24.965 104.965-133.815  1.00 52.31 LIG 0.28  HD
ATOM     45 H2   LYS C   1     -25.553 104.377-132.624  1.00 52.31 LIG 0.28  HD
ATOM     46 H1   LYS C   1     -24.340 103.812-133.189  1.00 52.31 LIG 0.28  HD
ENDBRANCH 42 43
BRANCH 42 47
ATOM     47  CB  LYS C   1     -22.647 105.764-132.878  1.00 46.48 LIG 0.04  C 
BRANCH 47 48
ATOM     48  CG  LYS C   1     -21.426 105.171-132.179  1.00 53.12 LIG 0.00  C 
BRANCH 48 49
ATOM     49  CD  LYS C   1     -21.073 105.918-130.899  1.00 36.86 LIG 0.03  C 
BRANCH 49 50
ATOM     50  CE  LYS C   1     -19.693 105.495-130.395  1.00 31.94 LIG 0.23  C 
BRANCH 50 51
ATOM     51  NZ  LYS C   1     -19.678 105.159-128.939  1.00 27.86 LIG-0.08  N 
ATOM     52 HZ3  LYS C   1     -20.403 104.685-128.736  1.00 27.86 LIG 0.27  HD
ATOM     53 HZ1  LYS C   1     -18.950 104.682-128.751  1.00 27.86 LIG 0.27  HD
ATOM     54 HZ2  LYS C   1     -19.671 105.910-128.461  1.00 27.86 LIG 0.27  HD
ENDBRANCH 50 51
ENDBRANCH 49 50
ENDBRANCH 48 49
ENDBRANCH 47 48
ENDBRANCH 42 47
ENDBRANCH 39 42
ENDBRANCH 37 38
BRANCH 37 55
ATOM     55  CB  SER C   2     -26.551 107.984-128.943  1.00 36.44 LIG 0.20  C 
BRANCH 55 56
ATOM     56 OG   SER C   2     -27.110 109.215-128.513  1.00 50.02 LIG-0.40  OA
ATOM     57 HG   SER C   2     -26.493 109.763-128.356  1.00 50.02 LIG 0.21  HD
ENDBRANCH 55 56
ENDBRANCH 37 55
ENDBRANCH 34 37
ENDBRANCH 1 33
TORSDOF 25
