USER: ADFR SOLUTION from run 0
USER: SCORE 15.009075 LL:  -1.643 LR: -14.779 RR:   0.000 FEB:  -8.813
USER: RMSD 0.454434
USER: STATUS Locally minimized using BFGS
USER: GENES 22
USER: genes 0 Translation |==|  0.40905 0.51307 0.46414
USER: genes 1 Rotation |==|  0.50546 0.49377 0.50988 0.99983
USER: genes 2 Torsion [N]-CA--C-[N] |==|  0.12704
USER: genes 3 Torsion [C]-N--CA-[CB] |==|  0.45533
USER: genes 4 Torsion [N]-CA--CB-[CG] |==|  0.49551
USER: genes 5 Torsion [CA]-CB--CG-[CD1] |==|  0.16001
USER: genes 6 Torsion [N]-CA--C-[N] |==|  0.90332
USER: genes 7 Torsion [C]-N--CA-[CB] |==|  0.46679
USER: genes 8 Torsion [N]-CA--C-[O] |==|  0.45645
USER: genes 9 Torsion [N]-CA--CB-[CG] |==|  0.80448
USER: genes 10 Torsion [CA]-CB--CG-[OD2] |==|  0.46515
USER: genes 11 Torsion [C]-CA--CB-[CG] |==|  0.46102
USER: genes 12 Torsion [CA]-CB--CG-[CD] |==|  0.79497
USER: genes 13 Torsion [CB]-CG--CD-[CE] |==|  0.48073
USER: genes 14 Torsion [CG]-CD--CE-[NZ] |==|  0.52601
USER: genes 15 Torsion [CD]-CE--NZ-[HZ2] |==|  0.80501
USER: genes 16 Torsion [C]-CA--N-[C] |==|  0.16961
USER: genes 17 Torsion [N]-C--CA-[N] |==|  0.38161
USER: genes 18 Torsion [C]-CA--CB-[CG] |==|  0.15217
USER: genes 19 Torsion [CA]-CB--CG-[CD] |==|  0.22256
USER: genes 20 Torsion [CB]-CG--CD-[NE] |==|  0.51780
USER: genes 21 Torsion [CG]-CD--NE-[CZ] |==|  0.75150
ROOT
ATOM      1  CA  LYS D   8      18.428-118.491 161.681  1.00 12.19 LIG 0.18  C 
ENDROOT
BRANCH 1 2
ATOM      2  C   LYS D   8      17.901-117.907 160.372  1.00 13.86 LIG 0.24  C 
ATOM      3 O    LYS D   8      16.733-118.099 160.026  1.00 13.19 LIG-0.27  OA
ATOM      4  N   LEU D   9      18.750-117.207 159.627  1.00 13.79 LIG-0.35  N 
ATOM      5 H    LEU D   9      19.572-117.060 159.831  1.00 13.79 LIG 0.16  HD
BRANCH 4 6
ATOM      6  CA  LEU D   9      18.317-116.620 158.366  1.00 13.45 LIG 0.18  C 
BRANCH 6 7
ATOM      7  CB  LEU D   9      19.314-115.558 157.901  1.00 15.24 LIG 0.04  C 
BRANCH 7 8
ATOM      8  CG  LEU D   9      18.999-114.887 156.564  1.00 15.65 LIG-0.02  C 
ATOM      9  CD1 LEU D   9      17.630-114.233 156.601  1.00 23.17 LIG 0.01  C 
ATOM     10  CD2 LEU D   9      20.063-113.852 156.259  1.00 23.01 LIG 0.01  C 
ENDBRANCH 7 8
ENDBRANCH 6 7
BRANCH 6 11
ATOM     11  C   LEU D   9      18.092-117.662 157.266  1.00 13.91 LIG 0.24  C 
ATOM     12  N   ASP D  10      18.904-118.714 157.263  1.00 15.10 LIG-0.34  N 
ATOM     13 H    ASP D  10      19.510-118.852 157.858  1.00 15.10 LIG 0.16  HD
ATOM     14 O    LEU D   9      17.185-117.514 156.445  1.00 14.13 LIG-0.27  OA
BRANCH 12 15
ATOM     15  CA  ASP D  10      18.833-119.745 156.226  1.00 14.88 LIG 0.20  C 
BRANCH 15 16
ATOM     16  C   ASP D  10      17.570-120.593 156.324  1.00 18.09 LIG 0.20  C 
ATOM     17 O    ASP D  10      17.225-121.296 155.372  1.00 15.20 LIG-0.65  OA
ATOM     18 OXT  ASP D  10      16.881-120.611 157.347  1.00 15.71 LIG-0.65  OA
ENDBRANCH 15 16
BRANCH 15 19
ATOM     19  CB  ASP D  10      20.054-120.667 156.293  1.00 14.49 LIG 0.15  C 
BRANCH 19 20
ATOM     20  CG  ASP D  10      21.332-119.983 155.851  1.00 20.14 LIG 0.17  C 
ATOM     21 OD2  ASP D  10      22.413-120.559 156.090  1.00 22.62 LIG-0.65  OA
ATOM     22 OD1  ASP D  10      21.259-118.885 155.258  1.00 23.52 LIG-0.65  OA
ENDBRANCH 19 20
ENDBRANCH 15 19
ENDBRANCH 12 15
ENDBRANCH 6 11
ENDBRANCH 4 6
ENDBRANCH 1 2
BRANCH 1 23
ATOM     23  CB  LYS D   8      17.250-119.016 162.508  1.00 14.93 LIG 0.04  C 
BRANCH 23 24
ATOM     24  CG  LYS D   8      17.651-119.911 163.663  1.00 16.49 LIG 0.00  C 
BRANCH 24 25
ATOM     25  CD  LYS D   8      18.084-121.265 163.155  1.00 20.48 LIG 0.03  C 
BRANCH 25 26
ATOM     26  CE  LYS D   8      18.650-122.125 164.265  1.00 18.72 LIG 0.23  C 
BRANCH 26 27
ATOM     27  NZ  LYS D   8      19.266-123.349 163.690  1.00 16.35 LIG-0.08  N 
ATOM     28 HZ2  LYS D   8      18.628-123.883 163.374  1.00 16.35 LIG 0.27  HD
ATOM     29 HZ3  LYS D   8      19.817-123.122 163.028  1.00 16.35 LIG 0.27  HD
ATOM     30 HZ1  LYS D   8      19.724-123.776 164.323  1.00 16.35 LIG 0.27  HD
ENDBRANCH 26 27
ENDBRANCH 25 26
ENDBRANCH 24 25
ENDBRANCH 23 24
ENDBRANCH 1 23
BRANCH 1 31
ATOM     31  N   LYS D   8      19.213-117.535 162.462  1.00 12.29 LIG-0.35  N 
ATOM     32  C   ARG D   7      18.692-116.396 162.919  1.00 12.18 LIG 0.26  C 
ATOM     33 O    ARG D   7      17.541-116.050 162.691  1.00 12.68 LIG-0.27  OA
ATOM     34 H    LYS D   8      20.028-117.775 162.596  1.00 12.29 LIG 0.16  HD
BRANCH 32 35
ATOM     35  CA  ARG D   7      19.607-115.511 163.764  1.00 18.47 LIG 0.40  C 
ATOM     36  N   ARG D   7      19.459-114.105 163.393  1.00 16.79 LIG 0.61  N 
BRANCH 35 37
ATOM     37  CB  ARG D   7      19.274-115.695 165.246  1.00 18.75 LIG 0.05  C 
BRANCH 37 38
ATOM     38  CG  ARG D   7      19.321-117.139 165.731  1.00 15.67 LIG 0.02  C 
BRANCH 38 39
ATOM     39  CD  ARG D   7      20.752-117.589 166.007  1.00 21.79 LIG 0.14  C 
BRANCH 39 40
ATOM     40  NE  ARG D   7      20.841-119.013 166.329  1.00 19.93 LIG-0.23  N 
ATOM     41  CZ  ARG D   7      20.744-119.513 167.560  1.00 19.53 LIG 0.67  C 
ATOM     42  NH2 ARG D   7      20.843-120.818 167.744  1.00 23.42 LIG-0.23  N 
ATOM     43  NH1 ARG D   7      20.549-118.715 168.601  1.00 23.45 LIG-0.23  N 
ATOM     44 2HH2 ARG D   7      20.781-121.146 168.537  1.00 23.42 LIG 0.17  HD
ATOM     45 1HH2 ARG D   7      20.969-121.339 167.072  1.00 23.42 LIG 0.17  HD
ATOM     46 2HH1 ARG D   7      20.487-119.048 169.392  1.00 23.45 LIG 0.17  HD
ATOM     47 1HH1 ARG D   7      20.484-117.865 168.485  1.00 23.45 LIG 0.17  HD
ATOM     48 HE   ARG D   7      20.963-119.565 165.681  1.00 19.93 LIG 0.18  HD
ENDBRANCH 39 40
ENDBRANCH 38 39
ENDBRANCH 37 38
ENDBRANCH 35 37
ENDBRANCH 32 35
ENDBRANCH 1 31
TORSDOF 20
