REMARK  30 active torsions:
REMARK  status: ('A' for Active; 'I' for Inactive)
REMARK    1  A    between atoms: N_1  and  CA_2 
REMARK    2  A    between atoms: CA_2  and  C_3 
REMARK    3  A    between atoms: CA_2  and  CB_5 
REMARK       I    between atoms: C_3  and  N_12 
REMARK    4  A    between atoms: CB_5  and  OG1_6 
REMARK    5  A    between atoms: N_12  and  CA_13 
REMARK    6  A    between atoms: CA_13  and  CB_16 
REMARK    7  A    between atoms: CA_13  and  C_14 
REMARK       I    between atoms: C_14  and  N_24 
REMARK    8  A    between atoms: CB_16  and  CG_17 
REMARK    9  A    between atoms: N_24  and  CA_25 
REMARK   10  A    between atoms: CA_25  and  C_26 
REMARK   11  A    between atoms: CA_25  and  CB_28 
REMARK       I    between atoms: C_26  and  N_37 
REMARK   12  A    between atoms: CB_28  and  CG_29 
REMARK   13  A    between atoms: CG_29  and  CD_30 
REMARK   14  A    between atoms: CD_30  and  CE_31 
REMARK   15  A    between atoms: CE_31  and  NZ_32 
REMARK   16  A    between atoms: N_37  and  CA_38 
REMARK   17  A    between atoms: CA_38  and  C_39 
REMARK   18  A    between atoms: CA_38  and  CB_41 
REMARK       I    between atoms: C_39  and  N_50 
REMARK   19  A    between atoms: CB_41  and  CG_42 
REMARK   20  A    between atoms: CG_42  and  CD_43 
REMARK   21  A    between atoms: CD_43  and  CE_44 
REMARK   22  A    between atoms: CE_44  and  NZ_45 
REMARK   23  A    between atoms: N_50  and  CA_51 
REMARK   24  A    between atoms: CA_51  and  CB_54 
REMARK   25  A    between atoms: CA_51  and  C_52 
REMARK       I    between atoms: C_52  and  N_59 
REMARK   26  A    between atoms: CB_54  and  OG1_55 
REMARK   27  A    between atoms: N_59  and  CA_60 
REMARK   28  A    between atoms: CA_60  and  C_61 
REMARK   29  A    between atoms: CA_60  and  CB_63 
REMARK   30  A    between atoms: CB_63  and  CG_64 
REMARK       I    between atoms: CG_64  and  ND2_66 
ROOT
ATOM      1  C   LYS C   3     -22.651 -10.175 -18.533  1.00 11.14     0.241 C 
ATOM      2  O   LYS C   3     -21.490  -9.883 -18.817  1.00 12.07    -0.271 OA
ATOM      3  N   LYS C   4     -23.129 -11.402 -18.669  1.00 10.21    -0.346 N 
ATOM      4  H   LYS C   4     -23.933 -11.627 -18.463  1.00 10.21     0.163 HD
ENDROOT
BRANCH   1   5
ATOM      5  CA  LYS C   3     -23.619  -9.117 -18.034  1.00 10.58     0.176 C 
BRANCH   5   6
ATOM      6  N   LYS C   3     -24.924  -9.229 -18.709  1.00  9.84    -0.346 N 
ATOM      7  H   LYS C   3     -25.599  -9.380 -18.199  1.00  9.84     0.163 HD
ATOM      8  C   PHE C   2     -24.969  -9.091 -20.037  1.00 10.80     0.241 C 
ATOM      9  O   PHE C   2     -23.965  -8.833 -20.711  1.00 13.01    -0.271 OA
BRANCH   8  10
ATOM     10  CA  PHE C   2     -26.325  -9.250 -20.728  1.00 15.48     0.180 C 
BRANCH  10  11
ATOM     11  N   PHE C   2     -27.095 -10.271 -20.065  1.00 17.78    -0.346 N 
ATOM     12  C   THR C   1     -26.656 -11.521 -20.016  1.00 15.41     0.251 C 
ATOM     13  O   THR C   1     -25.623 -11.886 -20.574  1.00 17.69    -0.271 OA
ATOM     14  H   PHE C   2     -27.835 -10.000 -19.720  1.00 17.78     0.163 HD
BRANCH  12  15
ATOM     15  CA  THR C   1     -27.483 -12.496 -19.199  1.00 18.75     0.302 C 
BRANCH  15  16
ATOM     16  N   THR C   1     -27.122 -13.886 -19.565  1.00 21.65    -0.064 N 
ATOM     17  H2  THR C   1     -27.349 -14.039 -20.412  1.00 21.65     0.275 HD
ATOM     18  H1  THR C   1     -27.555 -14.455 -19.035  1.00 21.65     0.275 HD
ATOM     19  H3  THR C   1     -26.245 -14.000 -19.469  1.00 21.65     0.275 HD
ENDBRANCH  15  16
BRANCH  15  20
ATOM     20  CB  THR C   1     -27.163 -12.221 -17.735  1.00 20.13     0.153 C 
ATOM     21  CG2 THR C   1     -27.981 -13.134 -16.812  1.00 23.33     0.042 C 
BRANCH  20  22
ATOM     22  OG1 THR C   1     -25.766 -12.454 -17.526  1.00 16.75    -0.393 OA
ATOM     23  HG1 THR C   1     -25.574 -12.305 -16.722  1.00 16.75     0.210 HD
ENDBRANCH  20  22
ENDBRANCH  15  20
ENDBRANCH  12  15
ENDBRANCH  10  11
BRANCH  10  24
ATOM     24  CB  PHE C   2     -27.072  -7.926 -20.716  1.00 17.75     0.073 C 
BRANCH  24  25
ATOM     25  CG  PHE C   2     -28.292  -7.899 -21.596  1.00 24.94    -0.056 A 
ATOM     26  CD1 PHE C   2     -28.232  -8.334 -22.908  1.00 30.32     0.007 A 
ATOM     27  CE1 PHE C   2     -29.365  -8.293 -23.723  1.00 38.50     0.001 A 
ATOM     28  CZ  PHE C   2     -30.556  -7.808 -23.217  1.00 31.85     0.000 A 
ATOM     29  CE2 PHE C   2     -30.623  -7.373 -21.904  1.00 29.60     0.001 A 
ATOM     30  CD2 PHE C   2     -29.495  -7.420 -21.105  1.00 31.76     0.007 A 
ENDBRANCH  24  25
ENDBRANCH  10  24
ENDBRANCH   8  10
ENDBRANCH   5   6
BRANCH   5  31
ATOM     31  CB  LYS C   3     -23.742  -9.185 -16.503  1.00 13.67     0.035 C 
BRANCH  31  32
ATOM     32  CG  LYS C   3     -22.392  -9.042 -15.789  1.00 11.01     0.004 C 
BRANCH  32  33
ATOM     33  CD  LYS C   3     -21.716  -7.718 -16.124  1.00 13.71     0.027 C 
BRANCH  33  34
ATOM     34  CE  LYS C   3     -20.405  -7.561 -15.359  1.00 11.77     0.229 C 
BRANCH  34  35
ATOM     35  NZ  LYS C   3     -19.814  -6.217 -15.618  1.00 11.88    -0.079 N 
ATOM     36  HZ1 LYS C   3     -19.124  -6.085 -15.071  1.00 11.88     0.274 HD
ATOM     37  HZ2 LYS C   3     -19.535  -6.173 -16.462  1.00 11.88     0.274 HD
ATOM     38  HZ3 LYS C   3     -20.429  -5.590 -15.476  1.00 11.88     0.274 HD
ENDBRANCH  34  35
ENDBRANCH  33  34
ENDBRANCH  32  33
ENDBRANCH  31  32
ENDBRANCH   5  31
ENDBRANCH   1   5
BRANCH   3  39
ATOM     39  CA  LYS C   4     -22.321 -12.489 -19.186  1.00 11.64     0.176 C 
BRANCH  39  40
ATOM     40  C   LYS C   4     -21.832 -12.188 -20.604  1.00 11.74     0.241 C 
ATOM     41  O   LYS C   4     -20.657 -12.342 -20.904  1.00 13.09    -0.271 OA
ATOM     42  N   THR C   5     -22.726 -11.744 -21.482  1.00 10.35    -0.344 N 
ATOM     43  H   THR C   5     -23.510 -11.453 -21.282  1.00 10.35     0.163 HD
BRANCH  42  44
ATOM     44  CA  THR C   5     -22.397 -11.729 -22.906  1.00 10.42     0.205 C 
BRANCH  44  45
ATOM     45  CB  THR C   5     -23.568 -12.274 -23.750  1.00 12.47     0.146 C 
ATOM     46  CG2 THR C   5     -23.921 -13.674 -23.311  1.00 14.12     0.042 C 
BRANCH  45  47
ATOM     47  OG1 THR C   5     -24.699 -11.411 -23.618  1.00 13.71    -0.393 OA
ATOM     48  HG1 THR C   5     -24.926 -11.368 -22.810  1.00 13.71     0.210 HD
ENDBRANCH  45  47
ENDBRANCH  44  45
BRANCH  44  49
ATOM     49  C   THR C   5     -21.923 -10.411 -23.522  1.00  8.61     0.243 C 
ATOM     50  O   THR C   5     -21.256 -10.460 -24.552  1.00 10.36    -0.271 OA
ATOM     51  N   ASN C   6     -22.256  -9.268 -22.913  1.00 11.14    -0.344 N 
ATOM     52  H   ASN C   6     -22.690  -9.227 -22.172  1.00 11.14     0.163 HD
BRANCH  51  53
ATOM     53  CA  ASN C   6     -21.899  -7.973 -23.474  1.00 11.30     0.194 C 
BRANCH  53  54
ATOM     54  C   ASN C   6     -20.415  -7.888 -23.782  1.00 12.97     0.197 C 
ATOM     55  O   ASN C   6     -19.603  -8.428 -23.009  1.00 12.35    -0.646 OA
ATOM     56  OXT ASN C   6     -20.021  -7.242 -24.759  1.00 10.83    -0.646 OA
ENDBRANCH  53  54
BRANCH  53  57
ATOM     57  CB  ASN C   6     -22.217  -6.852 -22.478  1.00 12.67     0.138 C 
BRANCH  57  58
ATOM     58  CG  ASN C   6     -23.673  -6.401 -22.516  1.00 14.94     0.217 C 
ATOM     59  OD1 ASN C   6     -24.433  -6.782 -23.401  1.00 14.04    -0.274 OA
ATOM     60  ND2 ASN C   6     -24.057  -5.581 -21.539  1.00 17.84    -0.370 N 
ATOM     61 1HD2 ASN C   6     -24.868  -5.296 -21.511  1.00 17.84     0.159 HD
ATOM     62 2HD2 ASN C   6     -23.494  -5.337 -20.937  1.00 17.84     0.159 HD
ENDBRANCH  57  58
ENDBRANCH  53  57
ENDBRANCH  51  53
ENDBRANCH  44  49
ENDBRANCH  42  44
ENDBRANCH  39  40
BRANCH  39  63
ATOM     63  CB  LYS C   4     -23.182 -13.762 -19.187  1.00 16.38     0.035 C 
BRANCH  63  64
ATOM     64  CG  LYS C   4     -22.631 -14.969 -19.922  1.00 24.16     0.004 C 
BRANCH  64  65
ATOM     65  CD  LYS C   4     -21.578 -15.618 -19.088  1.00 15.05     0.027 C 
BRANCH  65  66
ATOM     66  CE  LYS C   4     -21.148 -16.999 -19.582  1.00 12.97     0.229 C 
BRANCH  66  67
ATOM     67  NZ  LYS C   4     -20.098 -17.538 -18.650  1.00 11.01    -0.079 N 
ATOM     68  HZ3 LYS C   4     -20.487 -17.846 -17.911  1.00 11.01     0.274 HD
ATOM     69  HZ2 LYS C   4     -19.528 -16.888 -18.437  1.00 11.01     0.274 HD
ATOM     70  HZ1 LYS C   4     -19.657 -18.199 -19.050  1.00 11.01     0.274 HD
ENDBRANCH  66  67
ENDBRANCH  65  66
ENDBRANCH  64  65
ENDBRANCH  63  64
ENDBRANCH  39  63
ENDBRANCH   3  39
TORSDOF 30
