USER: ADFR SOLUTION from run 0
USER: SCORE 18.689714 LL:  -6.065 LR: -15.310 RR:   0.000 FEB:  -6.361
USER: RMSD 0.337568
USER: STATUS Locally minimized using BFGS
USER: GENES 32
USER: genes 0 Translation |==|  0.61988 0.57519 0.57535
USER: genes 1 Rotation |==|  0.50713 0.49160 0.50292 0.99987
USER: genes 2 Torsion [N]-C--CA-[N] |==|  0.87402
USER: genes 3 Torsion [C]-CA--N-[C] |==|  0.82859
USER: genes 4 Torsion [N]-C--CA-[N] |==|  0.89351
USER: genes 5 Torsion [C]-CA--N-[C] |==|  0.82341
USER: genes 6 Torsion [N]-C--CA-[N] |==|  0.45247
USER: genes 7 Torsion [C]-CA--N-[H3] |==|  0.15279
USER: genes 8 Torsion [C]-CA--CB-[OG1] |==|  0.82967
USER: genes 9 Torsion [CA]-CB--OG1-[HG1] |==|  0.49956
USER: genes 10 Torsion [C]-CA--CB-[CG] |==|  0.46756
USER: genes 11 Torsion [CA]-CB--CG-[CD1] |==|  0.86397
USER: genes 12 Torsion [C]-CA--CB-[CG] |==|  0.15917
USER: genes 13 Torsion [CA]-CB--CG-[CD] |==|  0.17092
USER: genes 14 Torsion [CB]-CG--CD-[CE] |==|  0.49173
USER: genes 15 Torsion [CG]-CD--CE-[NZ] |==|  0.51653
USER: genes 16 Torsion [CD]-CE--NZ-[HZ2] |==|  0.80860
USER: genes 17 Torsion [C]-N--CA-[CB] |==|  0.49086
USER: genes 18 Torsion [N]-CA--C-[N] |==|  0.86960
USER: genes 19 Torsion [C]-N--CA-[CB] |==|  0.37534
USER: genes 20 Torsion [N]-CA--CB-[CG2] |==|  0.83718
USER: genes 21 Torsion [CA]-CB--OG1-[HG1] |==|  0.83530
USER: genes 22 Torsion [N]-CA--C-[N] |==|  0.93494
USER: genes 23 Torsion [C]-N--CA-[C] |==|  0.86149
USER: genes 24 Torsion [N]-CA--C-[O] |==|  0.89893
USER: genes 25 Torsion [N]-CA--CB-[CG] |==|  0.76116
USER: genes 26 Torsion [CA]-CB--CG-[OD1] |==|  0.97304
USER: genes 27 Torsion [N]-CA--CB-[CG] |==|  0.45781
USER: genes 28 Torsion [CA]-CB--CG-[CD] |==|  0.21713
USER: genes 29 Torsion [CB]-CG--CD-[CE] |==|  0.46675
USER: genes 30 Torsion [CG]-CD--CE-[NZ] |==|  0.50068
USER: genes 31 Torsion [CD]-CE--NZ-[HZ2] |==|  0.88566
ROOT
ATOM      1  C   LYS C   3     -22.535 -10.169 -18.559  1.00 11.14 LIG 0.24  C 
ATOM      2 O    LYS C   3     -21.369  -9.856 -18.795  1.00 12.07 LIG-0.27  OA
ATOM      3  N   LYS C   4     -22.994 -11.397 -18.745  1.00 10.21 LIG-0.35  N 
ATOM      4 H    LYS C   4     -23.801 -11.637 -18.573  1.00 10.21 LIG 0.16  HD
ENDROOT
BRANCH 1 5
ATOM      5  CA  LYS C   3     -23.532  -9.137 -18.063  1.00 10.58 LIG 0.18  C 
BRANCH 5 6
ATOM      6  N   LYS C   3     -24.801  -9.222 -18.807  1.00  9.84 LIG-0.35  N 
ATOM      7 H    LYS C   3     -25.497  -9.416 -18.342  1.00  9.84 LIG 0.16  HD
ATOM      8  C   PHE C   2     -24.785  -8.998 -20.124  1.00 10.80 LIG 0.24  C 
ATOM      9 O    PHE C   2     -23.754  -8.683 -20.730  1.00 13.01 LIG-0.27  OA
BRANCH 8 10
ATOM     10  CA  PHE C   2     -26.103  -9.130 -20.889  1.00 15.48 LIG 0.18  C 
BRANCH 10 11
ATOM     11  N   PHE C   2     -26.864 -10.236 -20.367  1.00 17.78 LIG-0.35  N 
ATOM     12  C   THR C   1     -26.399 -11.475 -20.455  1.00 15.41 LIG 0.25  C 
ATOM     13 O    THR C   1     -25.348 -11.752 -21.029  1.00 17.69 LIG-0.27  OA
ATOM     14 H    PHE C   2     -27.615 -10.021 -20.008  1.00 17.78 LIG 0.16  HD
BRANCH 12 15
ATOM     15  CA  THR C   1     -27.221 -12.554 -19.775  1.00 18.75 LIG 0.30  C 
BRANCH 15 16
ATOM     16  N   THR C   1     -26.824 -13.885 -20.293  1.00 21.65 LIG-0.06  N 
ATOM     17 H2   THR C   1     -27.031 -13.941 -21.157  1.00 21.65 LIG 0.28  HD
ATOM     18 H1   THR C   1     -27.255 -14.520 -19.843  1.00 21.65 LIG 0.28  HD
ATOM     19 H3   THR C   1     -25.947 -13.993 -20.192  1.00 21.65 LIG 0.28  HD
ENDBRANCH 15 16
BRANCH 15 20
ATOM     20  CB  THR C   1     -26.934 -12.447 -18.282  1.00 20.13 LIG 0.15  C 
ATOM     21  CG2 THR C   1     -27.753 -13.473 -17.489  1.00 23.33 LIG 0.04  C 
BRANCH 20 22
ATOM     22 OG1  THR C   1     -25.537 -12.682 -18.072  1.00 16.75 LIG-0.39  OA
ATOM     23 HG1  THR C   1     -25.363 -12.624 -17.253  1.00 16.75 LIG 0.21  HD
ENDBRANCH 20 22
ENDBRANCH 15 20
ENDBRANCH 12 15
ENDBRANCH 10 11
BRANCH 10 24
ATOM     24  CB  PHE C   2     -26.897  -7.838 -20.782  1.00 17.75 LIG 0.07  C 
BRANCH 24 25
ATOM     25  CG  PHE C   2     -28.072  -7.758 -21.718  1.00 24.94 LIG-0.06  A 
ATOM     26  CD1 PHE C   2     -27.932  -8.054 -23.062  1.00 30.32 LIG 0.01  A 
ATOM     27  CE1 PHE C   2     -29.024  -7.963 -23.928  1.00 38.50 LIG 0.00  A 
ATOM     28  CZ  PHE C   2     -30.255  -7.569 -23.439  1.00 31.85 LIG 0.00  A 
ATOM     29  CE2 PHE C   2     -30.402  -7.274 -22.094  1.00 29.60 LIG 0.00  A 
ATOM     30  CD2 PHE C   2     -29.314  -7.368 -21.246  1.00 31.76 LIG 0.01  A 
ENDBRANCH 24 25
ENDBRANCH 10 24
ENDBRANCH 8 10
ENDBRANCH 5 6
BRANCH 5 31
ATOM     31  CB  LYS C   3     -23.732  -9.273 -16.545  1.00 13.67 LIG 0.04  C 
BRANCH 31 32
ATOM     32  CG  LYS C   3     -22.423  -9.135 -15.756  1.00 11.01 LIG 0.00  C 
BRANCH 32 33
ATOM     33  CD  LYS C   3     -21.786  -7.766 -15.958  1.00 13.71 LIG 0.03  C 
BRANCH 33 34
ATOM     34  CE  LYS C   3     -20.525  -7.616 -15.112  1.00 11.77 LIG 0.23  C 
BRANCH 34 35
ATOM     35  NZ  LYS C   3     -19.998  -6.225 -15.213  1.00 11.88 LIG-0.08  N 
ATOM     36 HZ1  LYS C   3     -19.343  -6.112 -14.620  1.00 11.88 LIG 0.27  HD
ATOM     37 HZ2  LYS C   3     -19.683  -6.085 -16.033  1.00 11.88 LIG 0.27  HD
ATOM     38 HZ3  LYS C   3     -20.653  -5.647 -15.044  1.00 11.88 LIG 0.27  HD
ENDBRANCH 34 35
ENDBRANCH 33 34
ENDBRANCH 32 33
ENDBRANCH 31 32
ENDBRANCH 5 31
ENDBRANCH 1 5
BRANCH 3 39
ATOM     39  CA  LYS C   4     -22.156 -12.459 -19.265  1.00 11.64 LIG 0.18  C 
BRANCH 39 40
ATOM     40  C   LYS C   4     -21.673 -12.140 -20.681  1.00 11.74 LIG 0.24  C 
ATOM     41 O    LYS C   4     -20.496 -12.273 -20.984  1.00 13.09 LIG-0.27  OA
ATOM     42  N   THR C   5     -22.574 -11.703 -21.555  1.00 10.35 LIG-0.34  N 
ATOM     43 H    THR C   5     -23.363 -11.426 -21.352  1.00 10.35 LIG 0.16  HD
BRANCH 42 44
ATOM     44  CA  THR C   5     -22.247 -11.671 -22.979  1.00 10.42 LIG 0.20  C 
BRANCH 44 45
ATOM     45  CB  THR C   5     -23.409 -12.231 -23.826  1.00 12.47 LIG 0.15  C 
ATOM     46  CG2 THR C   5     -23.719 -13.650 -23.415  1.00 14.12 LIG 0.04  C 
BRANCH 45 47
ATOM     47 OG1  THR C   5     -24.562 -11.404 -23.668  1.00 13.71 LIG-0.39  OA
ATOM     48 HG1  THR C   5     -24.783 -11.383 -22.858  1.00 13.71 LIG 0.21  HD
ENDBRANCH 45 47
ENDBRANCH 44 45
BRANCH 44 49
ATOM     49  C   THR C   5     -21.798 -10.340 -23.586  1.00  8.61 LIG 0.24  C 
ATOM     50 O    THR C   5     -21.122 -10.370 -24.611  1.00 10.36 LIG-0.27  OA
ATOM     51  N   ASN C   6     -22.160  -9.208 -22.974  1.00 11.14 LIG-0.34  N 
ATOM     52 H    ASN C   6     -22.601  -9.180 -22.237  1.00 11.14 LIG 0.16  HD
BRANCH 51 53
ATOM     53  CA  ASN C   6     -21.828  -7.903 -23.527  1.00 11.30 LIG 0.19  C 
BRANCH 53 54
ATOM     54  C   ASN C   6     -20.356  -7.807 -23.887  1.00 12.97 LIG 0.20  C 
ATOM     55 O    ASN C   6     -19.517  -8.373 -23.163  1.00 12.35 LIG-0.65  OA
ATOM     56 OXT  ASN C   6     -19.998  -7.129 -24.855  1.00 10.83 LIG-0.65  OA
ENDBRANCH 53 54
BRANCH 53 57
ATOM     57  CB  ASN C   6     -22.114  -6.799 -22.502  1.00 12.67 LIG 0.14  C 
BRANCH 57 58
ATOM     58  CG  ASN C   6     -23.557  -6.307 -22.526  1.00 14.94 LIG 0.22  C 
ATOM     59 OD1  ASN C   6     -24.329  -6.647 -23.417  1.00 14.04 LIG-0.27  OA
ATOM     60  ND2 ASN C   6     -23.915  -5.499 -21.530  1.00 17.84 LIG-0.37  N 
ATOM     61 21HD ASN C   6     -24.718  -5.192 -21.493  1.00 17.84 LIG 0.16  HD
ATOM     62 22HD ASN C   6     -23.344  -5.284 -20.924  1.00 17.84 LIG 0.16  HD
ENDBRANCH 57 58
ENDBRANCH 53 57
ENDBRANCH 51 53
ENDBRANCH 44 49
ENDBRANCH 42 44
ENDBRANCH 39 40
BRANCH 39 63
ATOM     63  CB  LYS C   4     -22.982 -13.755 -19.273  1.00 16.38 LIG 0.04  C 
BRANCH 63 64
ATOM     64  CG  LYS C   4     -22.445 -14.913 -20.093  1.00 24.16 LIG 0.00  C 
BRANCH 64 65
ATOM     65  CD  LYS C   4     -21.344 -15.583 -19.343  1.00 15.05 LIG 0.03  C 
BRANCH 65 66
ATOM     66  CE  LYS C   4     -20.915 -16.929 -19.926  1.00 12.97 LIG 0.23  C 
BRANCH 66 67
ATOM     67  NZ  LYS C   4     -19.810 -17.491 -19.075  1.00 11.01 LIG-0.08  N 
ATOM     68 HZ3  LYS C   4     -20.157 -17.854 -18.339  1.00 11.01 LIG 0.27  HD
ATOM     69 HZ2  LYS C   4     -19.248 -16.839 -18.848  1.00 11.01 LIG 0.27  HD
ATOM     70 HZ1  LYS C   4     -19.370 -18.114 -19.533  1.00 11.01 LIG 0.27  HD
ENDBRANCH 66 67
ENDBRANCH 65 66
ENDBRANCH 64 65
ENDBRANCH 63 64
ENDBRANCH 39 63
ENDBRANCH 3 39
TORSDOF 30
