REMARK  13 active torsions:
REMARK  status: ('A' for Active; 'I' for Inactive)
REMARK    1  A    between atoms: CA_2  and  C_3 
REMARK       I    between atoms: C_3  and  N_6 
REMARK    2  A    between atoms: N_6  and  CA_7 
REMARK    3  A    between atoms: CA_7  and  C_8 
REMARK    4  A    between atoms: CA_7  and  CB_10 
REMARK       I    between atoms: C_8  and  N_14 
REMARK    5  A    between atoms: CB_10  and  OG_11 
REMARK    6  A    between atoms: N_14  and  CA_15 
REMARK    7  A    between atoms: CA_15  and  C_16 
REMARK    8  A    between atoms: CA_15  and  CB_18 
REMARK       I    between atoms: C_16  and  N_23 
REMARK    9  A    between atoms: CB_18  and  OG1_19 
REMARK   10  A    between atoms: N_23  and  CA_24 
REMARK   11  A    between atoms: CA_24  and  C_25 
REMARK   12  A    between atoms: CA_24  and  CB_27 
REMARK   13  A    between atoms: CB_27  and  OG_28 
ROOT
ATOM      1  C   SER B  13      35.867 -12.247  -9.950  1.00 23.09     0.243 C 
ATOM      2  O   SER B  13      35.041 -12.123 -10.854  1.00 20.43    -0.271 OA
ATOM      3  N   THR B  14      37.097 -11.747 -10.020  1.00 21.89    -0.344 N 
ATOM      4  H   THR B  14      37.677 -11.801  -9.387  1.00 21.89     0.163 HD
ENDROOT
BRANCH   3   5
ATOM      5  CA  THR B  14      37.563 -11.050 -11.214  1.00 22.97     0.205 C 
BRANCH   5   6
ATOM      6  C   THR B  14      38.031 -12.137 -12.173  1.00 23.95     0.243 C 
ATOM      7  N   SER B  15      38.144 -11.807 -13.455  1.00 23.79    -0.345 N 
ATOM      8  H   SER B  15      37.973 -11.027 -13.773  1.00 23.79     0.163 HD
ATOM      9  O   THR B  14      38.288 -13.266 -11.749  1.00 24.21    -0.271 OA
BRANCH   7  10
ATOM     10  CA  SER B  15      38.583 -12.789 -14.441  1.00 24.78     0.186 C 
BRANCH  10  11
ATOM     11  C   SER B  15      40.052 -13.135 -14.247  1.00 26.56     0.221 C 
ATOM     12  O   SER B  15      40.450 -14.179 -14.806  1.00 28.00    -0.287 OA
ENDBRANCH  10  11
BRANCH  10  13
ATOM     13  CB  SER B  15      38.369 -12.259 -15.861  1.00 23.87     0.197 C 
BRANCH  13  14
ATOM     14  OG  SER B  15      39.175 -11.120 -16.107  1.00 25.06    -0.398 OA
ATOM     15  HG  SER B  15      38.887 -10.470 -15.659  1.00 25.06     0.209 HD
ENDBRANCH  13  14
ENDBRANCH  10  13
ENDBRANCH   7  10
ENDBRANCH   5   6
BRANCH   5  16
ATOM     16  CB  THR B  14      38.755 -10.128 -10.907  1.00 24.21     0.146 C 
ATOM     17  CG2 THR B  14      38.361  -9.057  -9.902  1.00 24.44     0.042 C 
BRANCH  16  18
ATOM     18  OG1 THR B  14      39.832 -10.909 -10.375  1.00 24.18    -0.393 OA
ATOM     19  HG1 THR B  14      40.485 -10.408 -10.208  1.00 24.18     0.210 HD
ENDBRANCH  16  18
ENDBRANCH   5  16
ENDBRANCH   3   5
BRANCH   1  20
ATOM     20  CA  SER B  13      35.514 -12.992  -8.668  1.00 24.49     0.200 C 
BRANCH  20  21
ATOM     21  CB  SER B  13      36.502 -14.148  -8.487  1.00 26.86     0.199 C 
BRANCH  21  22
ATOM     22  OG  SER B  13      36.593 -14.924  -9.675  1.00 27.16    -0.398 OA
ATOM     23  HG  SER B  13      35.949 -15.462  -9.708  1.00 27.16     0.209 HD
ENDBRANCH  21  22
ENDBRANCH  20  21
BRANCH  20  24
ATOM     24  N   SER B  13      34.149 -13.502  -8.746  1.00 26.25    -0.344 N 
ATOM     25  H   SER B  13      33.782 -13.415  -9.519  1.00 26.25     0.163 HD
ATOM     26  C   ALA B  12      33.545 -14.051  -7.696  1.00 27.91     0.257 C 
ATOM     27  O   ALA B  12      34.083 -14.165  -6.594  1.00 29.06    -0.271 OA
BRANCH  26  28
ATOM     28  CA  ALA B  12      32.121 -14.546  -7.914  1.00 28.19     0.396 C 
ATOM     29  N   ALA B  12      31.856 -15.730  -7.045  1.00 28.78     0.614 N 
ATOM     30  CB  ALA B  12      31.124 -13.433  -7.603  1.00 26.50     0.059 C 
ENDBRANCH  26  28
ENDBRANCH  20  24
ENDBRANCH   1  20
TORSDOF 13
