REMARK  20 active torsions:
REMARK  status: ('A' for Active; 'I' for Inactive)
REMARK    1  A    between atoms: N_1  and  CA_2 
REMARK    2  A    between atoms: CA_2  and  CB_5 
REMARK    3  A    between atoms: CA_2  and  C_3 
REMARK       I    between atoms: C_3  and  N_12 
REMARK    4  A    between atoms: CB_5  and  CG_6 
REMARK    5  A    between atoms: N_12  and  CA_13 
REMARK    6  A    between atoms: CA_13  and  C_14 
REMARK    7  A    between atoms: CA_13  and  CB_16 
REMARK       I    between atoms: C_14  and  N_21 
REMARK    8  A    between atoms: CB_16  and  CG_17 
REMARK    9  A    between atoms: N_21  and  CA_22 
REMARK   10  A    between atoms: CA_22  and  C_23 
REMARK   11  A    between atoms: CA_22  and  CB_25 
REMARK       I    between atoms: C_23  and  N_30 
REMARK   12  A    between atoms: CB_25  and  CG1_26 
REMARK   13  A    between atoms: N_30  and  CA_31 
REMARK   14  A    between atoms: CA_31  and  C_32 
REMARK   15  A    between atoms: CA_31  and  CB_34 
REMARK       I    between atoms: C_32  and  N_38 
REMARK   16  A    between atoms: CA_39  and  C_40 
REMARK       I    between atoms: C_40  and  N_45 
REMARK   17  A    between atoms: N_45  and  CA_46 
REMARK   18  A    between atoms: CA_46  and  CB_49 
REMARK   19  A    between atoms: CA_46  and  C_47 
REMARK   20  A    between atoms: CB_49  and  SG_50 
ROOT
ATOM      1  CA  ILE E   3     -25.837  30.356   3.751  1.00 36.34     0.180 C 
ENDROOT
BRANCH   1   2
ATOM      2  C   ILE E   3     -24.701  29.343   3.797  1.00 39.45     0.241 C 
ATOM      3  N   VAL E   4     -25.049  28.059   3.890  1.00 32.94    -0.346 N 
ATOM      4  H   VAL E   4     -25.861  27.779   3.855  1.00 32.94     0.163 HD
ATOM      5  O   ILE E   3     -23.535  29.722   3.764  1.00 42.21    -0.271 OA
BRANCH   3   6
ATOM      6  CA  VAL E   4     -24.057  27.004   4.062  1.00 33.21     0.180 C 
BRANCH   6   7
ATOM      7  C   VAL E   4     -24.032  26.103   2.825  1.00 35.41     0.243 C 
ATOM      8  O   VAL E   4     -24.990  25.362   2.576  1.00 29.15    -0.271 OA
ATOM      9  N   PRO E   5     -22.946  26.176   2.037  1.00 36.11    -0.337 N 
ATOM     10  CA  PRO E   5     -22.820  25.296   0.868  1.00 34.10     0.179 C 
ATOM     11  CD  PRO E   5     -21.826  27.133   2.149  1.00 37.00     0.127 C 
ATOM     12  CB  PRO E   5     -21.480  25.724   0.237  1.00 38.74     0.037 C 
ATOM     13  CG  PRO E   5     -21.225  27.117   0.759  1.00 43.00     0.022 C 
BRANCH  10  14
ATOM     14  C   PRO E   5     -22.748  23.854   1.348  1.00 34.89     0.241 C 
ATOM     15  N   CYS E   6     -23.416  22.930   0.670  1.00 33.29    -0.344 N 
ATOM     16  H   CYS E   6     -23.870  23.080  -0.045  1.00 33.29     0.163 HD
ATOM     17  O   PRO E   5     -22.091  23.597   2.358  1.00 33.04    -0.271 OA
BRANCH  15  18
ATOM     18  CA  CYS E   6     -23.416  21.534   1.125  1.00 33.63     0.194 C 
BRANCH  18  19
ATOM     19  CB  CYS E   6     -24.841  21.059   1.436  1.00 31.18     0.106 C 
BRANCH  19  20
ATOM     20  SG  CYS E   6     -25.521  21.798   2.982  1.00 33.89    -0.180 SA
ATOM     21  HG  CYS E   6     -25.373  22.989   2.956  1.00 33.89     0.101 HD
ENDBRANCH  19  20
ENDBRANCH  18  19
BRANCH  18  22
ATOM     22  C   CYS E   6     -22.662  20.570   0.182  1.00 36.36     0.197 C 
ATOM     23  OXT CYS E   6     -22.891  19.342   0.092  1.00 31.64    -0.646 OA
ATOM     24  O   CYS E   6     -21.746  21.032  -0.499  1.00 36.48    -0.646 OA
ENDBRANCH  18  22
ENDBRANCH  15  18
ENDBRANCH  10  14
ENDBRANCH   6   7
BRANCH   6  25
ATOM     25  CB  VAL E   4     -24.395  26.131   5.297  1.00 33.86     0.009 C 
ATOM     26  CG2 VAL E   4     -24.573  27.006   6.543  1.00 37.12     0.012 C 
ATOM     27  CG1 VAL E   4     -23.323  25.068   5.511  1.00 36.74     0.012 C 
ENDBRANCH   6  25
ENDBRANCH   3   6
ENDBRANCH   1   2
BRANCH   1  28
ATOM     28  CB  ILE E   3     -25.736  31.210   2.496  1.00 41.05     0.013 C 
ATOM     29  CG2 ILE E   3     -25.810  30.333   1.253  1.00 37.15     0.012 C 
BRANCH  28  30
ATOM     30  CG1 ILE E   3     -26.842  32.269   2.500  1.00 42.94     0.002 C 
ATOM     31  CD1 ILE E   3     -28.235  31.676   2.512  1.00 40.89     0.005 C 
ENDBRANCH  28  30
ENDBRANCH   1  28
BRANCH   1  32
ATOM     32  N   ILE E   3     -25.782  31.161   4.956  1.00 40.60    -0.346 N 
ATOM     33  H   ILE E   3     -25.291  31.865   4.902  1.00 40.60     0.163 HD
ATOM     34  C   ASP E   2     -26.459  30.792   6.036  1.00 44.87     0.241 C 
ATOM     35  O   ASP E   2     -27.238  29.832   6.045  1.00 39.41    -0.271 OA
BRANCH  34  36
ATOM     36  CA  ASP E   2     -26.221  31.610   7.295  1.00 43.58     0.186 C 
BRANCH  36  37
ATOM     37  N   ASP E   2     -27.471  32.098   7.855  1.00 45.35    -0.345 N 
ATOM     38  C   ASP E   1     -27.997  33.254   7.473  1.00 51.19     0.249 C 
ATOM     39  O   ASP E   1     -27.476  33.977   6.629  1.00 56.05    -0.271 OA
ATOM     40  H   ASP E   2     -27.826  31.578   8.441  1.00 45.35     0.163 HD
BRANCH  38  41
ATOM     41  CA  ASP E   1     -29.308  33.648   8.132  1.00 54.43     0.284 C 
BRANCH  41  42
ATOM     42  CB  ASP E   1     -30.443  33.563   7.111  1.00 57.23     0.155 C 
BRANCH  42  43
ATOM     43  CG  ASP E   1     -31.815  33.608   7.762  1.00 60.86     0.175 C 
ATOM     44  OD2 ASP E   1     -32.824  33.591   7.027  1.00 61.39    -0.648 OA
ATOM     45  OD1 ASP E   1     -31.878  33.644   9.014  1.00 65.62    -0.648 OA
ENDBRANCH  42  43
ENDBRANCH  41  42
BRANCH  41  46
ATOM     46  N   ASP E   1     -29.226  34.989   8.695  1.00 57.81    -0.066 N 
ATOM     47  H1  ASP E   1     -30.003  35.200   9.075  1.00 57.81     0.275 HD
ATOM     48  H3  ASP E   1     -29.045  35.572   8.048  1.00 57.81     0.275 HD
ATOM     49  H2  ASP E   1     -28.580  35.015   9.306  1.00 57.81     0.275 HD
ENDBRANCH  41  46
ENDBRANCH  38  41
ENDBRANCH  36  37
BRANCH  36  50
ATOM     50  CB  ASP E   2     -25.511  30.729   8.308  1.00 41.52     0.147 C 
BRANCH  50  51
ATOM     51  CG  ASP E   2     -25.193  31.460   9.583  1.00 49.49     0.175 C 
ATOM     52  OD1 ASP E   2     -24.784  32.637   9.503  1.00 51.56    -0.648 OA
ATOM     53  OD2 ASP E   2     -25.359  30.855  10.660  1.00 52.06    -0.648 OA
ENDBRANCH  50  51
ENDBRANCH  36  50
ENDBRANCH  34  36
ENDBRANCH   1  32
TORSDOF 20
