USER: ADFR SOLUTION from run 0
USER: SCORE 16.153576 LL:  -5.107 LR: -11.621 RR:   0.000 FEB:  -5.655
USER: RMSD 0.618456
USER: STATUS Locally minimized using BFGS
USER: GENES 22
USER: genes 0 Translation |==|  0.55830 0.60448 0.42881
USER: genes 1 Rotation |==|  0.51415 0.48460 0.49739 0.99956
USER: genes 2 Torsion [N]-CA--C-[N] |==|  0.31269
USER: genes 3 Torsion [C]-N--CA-[C] |==|  0.65792
USER: genes 4 Torsion [N]-CA--C-[N] |==|  0.28333
USER: genes 5 Torsion [N]-CA--C-[O] |==|  0.90359
USER: genes 6 Torsion [C]-N--CA-[CB] |==|  0.31822
USER: genes 7 Torsion [N]-CA--CB-[SG] |==|  0.82333
USER: genes 8 Torsion [CA]-CB--SG-[HG] |==|  0.13822
USER: genes 9 Torsion [N]-CA--C-[OXT] |==|  0.62820
USER: genes 10 Torsion [N]-CA--CB-[CG1] |==|  0.51008
USER: genes 11 Torsion [C]-CA--CB-[CG2] |==|  0.15181
USER: genes 12 Torsion [CA]-CB--CG1-[CD1] |==|  0.84269
USER: genes 13 Torsion [C]-CA--N-[C] |==|  0.74572
USER: genes 14 Torsion [N]-C--CA-[N] |==|  0.33295
USER: genes 15 Torsion [C]-CA--N-[C] |==|  0.77111
USER: genes 16 Torsion [N]-C--CA-[N] |==|  0.36283
USER: genes 17 Torsion [C]-CA--CB-[CG] |==|  0.49818
USER: genes 18 Torsion [CA]-CB--CG-[OD2] |==|  0.50917
USER: genes 19 Torsion [C]-CA--N-[H1] |==|  0.49898
USER: genes 20 Torsion [C]-CA--CB-[CG] |==|  0.53708
USER: genes 21 Torsion [CA]-CB--CG-[OD1] |==|  0.88255
ROOT
ATOM      1  CA  ILE E   3     -25.843  30.043   3.692  1.00 36.34 LIG 0.18  C 
ENDROOT
BRANCH 1 2
ATOM      2  C   ILE E   3     -24.721  29.015   3.750  1.00 39.45 LIG 0.24  C 
ATOM      3  N   VAL E   4     -25.086  27.733   3.778  1.00 32.94 LIG-0.35  N 
ATOM      4 H    VAL E   4     -25.899  27.464   3.695  1.00 32.94 LIG 0.16  HD
ATOM      5 O    ILE E   3     -23.551  29.381   3.783  1.00 42.21 LIG-0.27  OA
BRANCH 3 6
ATOM      6  CA  VAL E   4     -24.114  26.660   3.953  1.00 33.21 LIG 0.18  C 
BRANCH 6 7
ATOM      7  C   VAL E   4     -24.202  25.678   2.783  1.00 35.41 LIG 0.24  C 
ATOM      8 O    VAL E   4     -25.121  24.852   2.731  1.00 29.15 LIG-0.27  OA
ATOM      9  N   PRO E   5     -23.259  25.775   1.830  1.00 36.11 LIG-0.34  N 
ATOM     10  CA  PRO E   5     -23.239  24.826   0.710  1.00 34.10 LIG 0.18  C 
ATOM     11  CD  PRO E   5     -22.220  26.818   1.708  1.00 37.00 LIG 0.13  C 
ATOM     12  CB  PRO E   5     -22.052  25.306  -0.149  1.00 38.74 LIG 0.04  C 
ATOM     13  CG  PRO E   5     -21.838  26.748   0.244  1.00 43.00 LIG 0.02  C 
BRANCH 10 14
ATOM     14  C   PRO E   5     -22.974  23.431   1.256  1.00 34.89 LIG 0.24  C 
ATOM     15  N   CYS E   6     -23.578  22.402   0.677  1.00 33.29 LIG-0.34  N 
ATOM     16 H    CYS E   6     -24.093  22.459  -0.010  1.00 33.29 LIG 0.16  HD
ATOM     17 O    PRO E   5     -22.226  23.306   2.227  1.00 33.04 LIG-0.27  OA
BRANCH 15 18
ATOM     18  CA  CYS E   6     -23.391  21.043   1.201  1.00 33.63 LIG 0.19  C 
BRANCH 18 19
ATOM     19  CB  CYS E   6     -24.707  20.484   1.757  1.00 31.18 LIG 0.11  C 
BRANCH 19 20
ATOM     20 SG   CYS E   6     -25.338  21.440   3.201  1.00 33.89 LIG-0.18  SA
ATOM     21 HG   CYS E   6     -25.344  22.611   2.935  1.00 33.89 LIG 0.10  HD
ENDBRANCH 19 20
ENDBRANCH 18 19
BRANCH 18 22
ATOM     22  C   CYS E   6     -22.710  20.078   0.205  1.00 36.36 LIG 0.20  C 
ATOM     23 OXT  CYS E   6     -23.103  18.914  -0.036  1.00 31.64 LIG-0.65  OA
ATOM     24 O    CYS E   6     -21.686  20.464  -0.360  1.00 36.48 LIG-0.65  OA
ENDBRANCH 18 22
ENDBRANCH 15 18
ENDBRANCH 10 14
ENDBRANCH 6 7
BRANCH 6 25
ATOM     25  CB  VAL E   4     -24.388  25.883   5.266  1.00 33.86 LIG 0.01  C 
ATOM     26  CG2 VAL E   4     -24.479  26.848   6.454  1.00 37.12 LIG 0.01  C 
ATOM     27  CG1 VAL E   4     -23.318  24.821   5.492  1.00 36.74 LIG 0.01  C 
ENDBRANCH 6 25
ENDBRANCH 3 6
ENDBRANCH 1 2
BRANCH 1 28
ATOM     28  CB  ILE E   3     -25.658  30.965   2.496  1.00 41.05 LIG 0.01  C 
ATOM     29  CG2 ILE E   3     -25.537  30.150   1.215  1.00 37.15 LIG 0.01  C 
BRANCH 28 30
ATOM     30  CG1 ILE E   3     -26.822  31.956   2.421  1.00 42.94 LIG 0.00  C 
ATOM     31  CD1 ILE E   3     -28.176  31.281   2.350  1.00 40.89 LIG 0.01  C 
ENDBRANCH 28 30
ENDBRANCH 1 28
BRANCH 1 32
ATOM     32  N   ILE E   3     -25.856  30.778   4.942  1.00 40.60 LIG-0.35  N 
ATOM     33 H    ILE E   3     -25.349  31.473   4.961  1.00 40.60 LIG 0.16  HD
ATOM     34  C   ASP E   2     -26.612  30.365   5.951  1.00 44.87 LIG 0.24  C 
ATOM     35 O    ASP E   2     -27.408  29.423   5.853  1.00 39.41 LIG-0.27  OA
BRANCH 34 36
ATOM     36  CA  ASP E   2     -26.446  31.106   7.268  1.00 43.58 LIG 0.19  C 
BRANCH 36 37
ATOM     37  N   ASP E   2     -27.692  31.723   7.691  1.00 45.35 LIG-0.34  N 
ATOM     38  C   ASP E   1     -28.082  32.896   7.211  1.00 51.19 LIG 0.25  C 
ATOM     39 O    ASP E   1     -27.431  33.529   6.385  1.00 56.05 LIG-0.27  OA
ATOM     40 H    ASP E   2     -28.140  31.265   8.265  1.00 45.35 LIG 0.16  HD
BRANCH 38 41
ATOM     41  CA  ASP E   1     -29.406  33.430   7.731  1.00 54.43 LIG 0.28  C 
BRANCH 41 42
ATOM     42  CB  ASP E   1     -30.472  33.314   6.641  1.00 57.23 LIG 0.15  C 
BRANCH 42 43
ATOM     43  CG  ASP E   1     -31.830  33.817   7.100  1.00 60.86 LIG 0.17  C 
ATOM     44 OD2  ASP E   1     -32.798  33.715   6.318  1.00 61.39 LIG-0.65  OA
ATOM     45 OD1  ASP E   1     -31.927  34.299   8.253  1.00 65.62 LIG-0.65  OA
ENDBRANCH 42 43
ENDBRANCH 41 42
BRANCH 41 46
ATOM     46  N   ASP E   1     -29.274  34.813   8.171  1.00 57.81 LIG-0.07  N 
ATOM     47 H1   ASP E   1     -30.061  35.107   8.466  1.00 57.81 LIG 0.28  HD
ATOM     48 H3   ASP E   1     -29.006  35.317   7.489  1.00 57.81 LIG 0.28  HD
ATOM     49 H2   ASP E   1     -28.675  34.859   8.827  1.00 57.81 LIG 0.28  HD
ENDBRANCH 41 46
ENDBRANCH 38 41
ENDBRANCH 36 37
BRANCH 36 50
ATOM     50  CB  ASP E   2     -25.980  30.112   8.318  1.00 41.52 LIG 0.15  C 
BRANCH 50 51
ATOM     51  CG  ASP E   2     -26.090  30.658   9.715  1.00 49.49 LIG 0.17  C 
ATOM     52 OD1  ASP E   2     -25.740  31.839   9.917  1.00 51.56 LIG-0.65  OA
ATOM     53 OD2  ASP E   2     -26.531  29.903  10.603  1.00 52.06 LIG-0.65  OA
ENDBRANCH 50 51
ENDBRANCH 36 50
ENDBRANCH 34 36
ENDBRANCH 1 32
TORSDOF 20
