USER: ADFR SOLUTION from run 0
USER: SCORE 12.675943 LL:  -3.018 LR: -11.218 RR:   0.000 FEB:  -4.655
USER: RMSD 0.739625
USER: STATUS Locally minimized using BFGS
USER: GENES 24
USER: genes 0 Translation |==|  0.37544 0.45959 0.38624
USER: genes 1 Rotation |==|  0.49114 0.48697 0.51432 0.99955
USER: genes 2 Torsion [C]-N--CA-[CB] |==|  0.29629
USER: genes 3 Torsion [N]-CA--CB-[CG2] |==|  0.49624
USER: genes 4 Torsion [CA]-CB--OG1-[HG1] |==|  0.30465
USER: genes 5 Torsion [N]-CA--C-[N] |==|  0.35065
USER: genes 6 Torsion [C]-N--CA-[C] |==|  0.78790
USER: genes 7 Torsion [N]-CA--CB-[CG] |==|  0.48709
USER: genes 8 Torsion [CA]-CB--CG-[CD] |==|  0.52273
USER: genes 9 Torsion [CB]-CG--CD-[OE1] |==|  0.00419
USER: genes 10 Torsion [N]-CA--C-[N] |==|  0.37852
USER: genes 11 Torsion [C]-N--CA-[CB] |==|  0.28438
USER: genes 12 Torsion [N]-CA--CB-[CG2] |==|  0.14168
USER: genes 13 Torsion [N]-CA--C-[OXT] |==|  0.97166
USER: genes 14 Torsion [N]-C--CA-[N] |==|  0.34668
USER: genes 15 Torsion [C]-CA--N-[C] |==|  0.63283
USER: genes 16 Torsion [N]-C--CA-[N] |==|  0.63265
USER: genes 17 Torsion [C]-CA--CB-[CG] |==|  0.74851
USER: genes 18 Torsion [CA]-CB--CG-[CD] |==|  0.49081
USER: genes 19 Torsion [CB]-CG--CD-[NE] |==|  0.25950
USER: genes 20 Torsion [CG]-CD--NE-[HE] |==|  0.98065
USER: genes 21 Torsion [C]-CA--CB-[CG] |==|  0.16057
USER: genes 22 Torsion [CA]-CB--CG-[CD] |==|  0.50186
USER: genes 23 Torsion [CB]-CG--CD-[OE2] |==|  0.61497
ROOT
ATOM      1  C   GLU D   7      18.624  23.369   0.480  1.00 11.94 LIG 0.24  C 
ATOM      2 O    GLU D   7      18.437  23.402   1.696  1.00 14.56 LIG-0.27  OA
ATOM      3  N   THR D   8      19.817  23.587  -0.074  1.00  6.63 LIG-0.34  N 
ATOM      4 H    THR D   8      19.966  23.547  -0.920  1.00  6.63 LIG 0.16  HD
ENDROOT
BRANCH 3 5
ATOM      5  CA  THR D   8      20.989  23.918   0.726  1.00  8.00 LIG 0.20  C 
BRANCH 5 6
ATOM      6  CB  THR D   8      21.961  22.731   0.804  1.00  7.16 LIG 0.15  C 
ATOM      7  CG2 THR D   8      23.198  23.092   1.612  1.00  8.54 LIG 0.04  C 
BRANCH 6 8
ATOM      8 OG1  THR D   8      21.296  21.619   1.432  1.00  7.76 LIG-0.39  OA
ATOM      9 HG1  THR D   8      21.153  21.019   0.862  1.00  7.76 LIG 0.21  HD
ENDBRANCH 6 8
ENDBRANCH 5 6
BRANCH 5 10
ATOM     10  C   THR D   8      21.729  25.118   0.139  1.00  6.30 LIG 0.24  C 
ATOM     11 O    THR D   8      22.084  25.124  -1.048  1.00  7.25 LIG-0.27  OA
ATOM     12  N   GLN D   9      21.956  26.132   0.970  1.00  7.34 LIG-0.35  N 
ATOM     13 H    GLN D   9      21.648  26.174   1.771  1.00  7.34 LIG 0.16  HD
BRANCH 12 14
ATOM     14  CA  GLN D   9      22.761  27.276   0.576  1.00  6.42 LIG 0.18  C 
BRANCH 14 15
ATOM     15  CB  GLN D   9      22.510  28.424   1.553  1.00  8.55 LIG 0.04  C 
BRANCH 15 16
ATOM     16  CG  GLN D   9      23.372  29.636   1.317  1.00 10.19 LIG 0.10  C 
BRANCH 16 17
ATOM     17  CD  GLN D   9      23.236  30.671   2.421  1.00 10.51 LIG 0.21  C 
ATOM     18 OE1  GLN D   9      22.504  30.476   3.401  1.00 10.16 LIG-0.27  OA
ATOM     19  NE2 GLN D   9      23.957  31.779   2.270  1.00 11.61 LIG-0.37  N 
ATOM     20 22HE GLN D   9      23.927  32.396   2.869  1.00 11.61 LIG 0.16  HD
ATOM     21 21HE GLN D   9      24.454  31.877   1.575  1.00 11.61 LIG 0.16  HD
ENDBRANCH 16 17
ENDBRANCH 15 16
ENDBRANCH 14 15
BRANCH 14 22
ATOM     22  C   GLN D   9      24.223  26.890   0.608  1.00  5.32 LIG 0.24  C 
ATOM     23 O    GLN D   9      24.669  26.243   1.548  1.00  6.01 LIG-0.27  OA
ATOM     24  N   VAL D  10      24.976  27.291  -0.419  1.00  6.34 LIG-0.34  N 
ATOM     25 H    VAL D  10      24.676  27.744  -1.086  1.00  6.34 LIG 0.16  HD
BRANCH 24 26
ATOM     26  CA  VAL D  10      26.402  26.985  -0.492  1.00  7.66 LIG 0.19  C 
BRANCH 26 27
ATOM     27  CB  VAL D  10      26.702  25.819  -1.468  1.00  6.96 LIG 0.01  C 
ATOM     28  CG1 VAL D  10      26.204  24.509  -0.893  1.00  7.91 LIG 0.01  C 
ATOM     29  CG2 VAL D  10      26.041  26.066  -2.829  1.00  7.70 LIG 0.01  C 
ENDBRANCH 26 27
BRANCH 26 30
ATOM     30  C   VAL D  10      27.226  28.196  -0.916  1.00  6.04 LIG 0.20  C 
ATOM     31 OXT  VAL D  10      26.680  29.223  -1.334  1.00  6.83 LIG-0.65  OA
ATOM     32 O    VAL D  10      28.457  28.129  -0.847  1.00  6.68 LIG-0.65  OA
ENDBRANCH 26 30
ENDBRANCH 24 26
ENDBRANCH 14 22
ENDBRANCH 12 14
ENDBRANCH 5 10
ENDBRANCH 3 5
BRANCH 1 33
ATOM     33  CA  GLU D   7      17.475  23.050  -0.467  1.00 10.87 LIG 0.18  C 
BRANCH 33 34
ATOM     34  N   GLU D   7      16.863  21.785  -0.071  1.00 12.61 LIG-0.35  N 
ATOM     35  C   ARG D   6      16.603  20.828  -0.956  1.00 15.63 LIG 0.26  C 
ATOM     36 O    ARG D   6      16.914  20.912  -2.141  1.00 17.14 LIG-0.27  OA
ATOM     37 H    GLU D   7      16.692  21.721   0.769  1.00 12.61 LIG 0.16  HD
BRANCH 35 38
ATOM     38  CA  ARG D   6      15.879  19.592  -0.431  1.00 20.39 LIG 0.40  C 
ATOM     39  N   ARG D   6      16.526  18.361  -0.877  1.00 31.26 LIG 0.61  N 
BRANCH 38 40
ATOM     40  CB  ARG D   6      15.780  19.623   1.095  1.00 20.29 LIG 0.05  C 
BRANCH 40 41
ATOM     41  CG  ARG D   6      16.949  18.952   1.794  1.00 28.41 LIG 0.02  C 
BRANCH 41 42
ATOM     42  CD  ARG D   6      16.849  19.077   3.310  1.00 36.78 LIG 0.14  C 
BRANCH 42 43
ATOM     43  NE  ARG D   6      16.191  17.931   3.931  1.00 40.20 LIG-0.23  N 
ATOM     44  CZ  ARG D   6      16.104  17.746   5.246  1.00 47.18 LIG 0.67  C 
ATOM     45  NH2 ARG D   6      15.489  16.676   5.733  1.00 45.83 LIG-0.23  N 
ATOM     46  NH1 ARG D   6      16.638  18.633   6.077  1.00 52.71 LIG-0.23  N 
ATOM     47 1HH2 ARG D   6      15.143  16.098   5.199  1.00 45.83 LIG 0.17  HD
ATOM     48 2HH2 ARG D   6      15.435  16.561   6.584  1.00 45.83 LIG 0.17  HD
ATOM     49 1HH1 ARG D   6      17.040  19.327   5.765  1.00 52.71 LIG 0.17  HD
ATOM     50 2HH1 ARG D   6      16.582  18.515   6.926  1.00 52.71 LIG 0.17  HD
ATOM     51 HE   ARG D   6      15.837  17.340   3.416  1.00 40.20 LIG 0.18  HD
ENDBRANCH 42 43
ENDBRANCH 41 42
ENDBRANCH 40 41
ENDBRANCH 38 40
ENDBRANCH 35 38
ENDBRANCH 33 34
BRANCH 33 52
ATOM     52  CB  GLU D   7      16.432  24.163  -0.430  1.00 13.53 LIG 0.04  C 
BRANCH 52 53
ATOM     53  CG  GLU D   7      16.959  25.534  -0.783  1.00 15.67 LIG 0.12  C 
BRANCH 53 54
ATOM     54  CD  GLU D   7      15.873  26.591  -0.710  1.00 22.62 LIG 0.17  C 
ATOM     55 OE2  GLU D   7      15.825  27.465  -1.597  1.00 20.96 LIG-0.65  OA
ATOM     56 OE1  GLU D   7      15.046  26.530   0.225  1.00 32.46 LIG-0.65  OA
ENDBRANCH 53 54
ENDBRANCH 52 53
ENDBRANCH 33 52
ENDBRANCH 1 33
TORSDOF 22
