REMARK  22 active torsions:
REMARK  status: ('A' for Active; 'I' for Inactive)
REMARK    1  A    between atoms: CA_2  and  C_3 
REMARK    2  A    between atoms: CA_2  and  CB_5 
REMARK       I    between atoms: C_3  and  N_17 
REMARK    3  A    between atoms: CB_5  and  CG_6 
REMARK    4  A    between atoms: CG_6  and  CD_7 
REMARK    5  A    between atoms: CD_7  and  NE_8 
REMARK       I    between atoms: NE_8  and  CZ_9 
REMARK       I    between atoms: CZ_9  and  NH1_10 
REMARK    6  A    between atoms: N_17  and  CA_18 
REMARK    7  A    between atoms: CA_18  and  C_19 
REMARK    8  A    between atoms: CA_18  and  CB_21 
REMARK       I    between atoms: C_19  and  N_27 
REMARK    9  A    between atoms: CB_21  and  CG_22 
REMARK   10  A    between atoms: CG_22  and  CD_23 
REMARK   11  A    between atoms: N_27  and  CA_28 
REMARK   12  A    between atoms: CA_28  and  CB_31 
REMARK   13  A    between atoms: CA_28  and  C_29 
REMARK       I    between atoms: C_29  and  N_36 
REMARK   14  A    between atoms: CB_31  and  OG1_32 
REMARK   15  A    between atoms: N_36  and  CA_37 
REMARK   16  A    between atoms: CA_37  and  CB_40 
REMARK   17  A    between atoms: CA_37  and  C_38 
REMARK       I    between atoms: C_38  and  N_48 
REMARK   18  A    between atoms: CB_40  and  CG_41 
REMARK   19  A    between atoms: CG_41  and  CD_42 
REMARK       I    between atoms: CD_42  and  NE2_44 
REMARK   20  A    between atoms: N_48  and  CA_49 
REMARK   21  A    between atoms: CA_49  and  CB_52 
REMARK   22  A    between atoms: CA_49  and  C_50 
ROOT
ATOM      1  C   GLU D   7      18.456  23.667   0.893  1.00 11.94     0.241 C 
ATOM      2  O   GLU D   7      18.333  23.666   2.117  1.00 14.56    -0.271 OA
ATOM      3  N   THR D   8      19.629  23.838   0.284  1.00  6.63    -0.344 N 
ATOM      4  H   THR D   8      19.732  23.821  -0.570  1.00  6.63     0.163 HD
ENDROOT
BRANCH   3   5
ATOM      5  CA  THR D   8      20.858  24.073   1.031  1.00  8.00     0.205 C 
BRANCH   5   6
ATOM      6  CB  THR D   8      21.853  22.918   0.840  1.00  7.16     0.146 C 
ATOM      7  CG2 THR D   8      23.147  23.183   1.595  1.00  8.54     0.042 C 
BRANCH   6   8
ATOM      8  OG1 THR D   8      21.262  21.701   1.331  1.00  7.76    -0.393 OA
ATOM      9  HG1 THR D   8      21.202  21.145   0.704  1.00  7.76     0.210 HD
ENDBRANCH   6   8
ENDBRANCH   5   6
BRANCH   5  10
ATOM     10  C   THR D   8      21.526  25.373   0.588  1.00  6.30     0.243 C 
ATOM     11  O   THR D   8      21.689  25.623  -0.614  1.00  7.25    -0.271 OA
ATOM     12  N   GLN D   9      21.907  26.198   1.560  1.00  7.34    -0.346 N 
ATOM     13  H   GLN D   9      21.731  26.073   2.392  1.00  7.34     0.163 HD
BRANCH  12  14
ATOM     14  CA  GLN D   9      22.669  27.404   1.282  1.00  6.42     0.177 C 
BRANCH  14  15
ATOM     15  CB  GLN D   9      22.371  28.443   2.362  1.00  8.55     0.044 C 
BRANCH  15  16
ATOM     16  CG  GLN D   9      23.040  29.774   2.140  1.00 10.19     0.105 C 
BRANCH  16  17
ATOM     17  CD  GLN D   9      22.841  30.727   3.307  1.00 10.51     0.215 C 
ATOM     18  OE1 GLN D   9      22.265  30.367   4.342  1.00 10.16    -0.274 OA
ATOM     19  NE2 GLN D   9      23.334  31.952   3.146  1.00 11.61    -0.370 N 
ATOM     20 2HE2 GLN D   9      23.259  32.532   3.777  1.00 11.61     0.159 HD
ATOM     21 1HE2 GLN D   9      23.728  32.164   2.411  1.00 11.61     0.159 HD
ENDBRANCH  16  17
ENDBRANCH  15  16
ENDBRANCH  14  15
BRANCH  14  22
ATOM     22  C   GLN D   9      24.144  27.073   1.286  1.00  5.32     0.241 C 
ATOM     23  O   GLN D   9      24.627  26.420   2.204  1.00  6.01    -0.271 OA
ATOM     24  N   VAL D  10      24.868  27.527   0.260  1.00  6.34    -0.344 N 
ATOM     25  H   VAL D  10      24.543  27.984  -0.392  1.00  6.34     0.163 HD
BRANCH  24  26
ATOM     26  CA  VAL D  10      26.304  27.276   0.162  1.00  7.66     0.189 C 
BRANCH  26  27
ATOM     27  CB  VAL D  10      26.634  26.147  -0.846  1.00  6.96     0.010 C 
ATOM     28  CG1 VAL D  10      26.069  24.827  -0.363  1.00  7.91     0.012 C 
ATOM     29  CG2 VAL D  10      26.065  26.472  -2.232  1.00  7.70     0.012 C 
ENDBRANCH  26  27
BRANCH  26  30
ATOM     30  C   VAL D  10      27.076  28.528  -0.242  1.00  6.04     0.197 C 
ATOM     31  OXT VAL D  10      26.485  29.556  -0.590  1.00  6.83    -0.646 OA
ATOM     32  O   VAL D  10      28.310  28.493  -0.228  1.00  6.68    -0.646 OA
ENDBRANCH  26  30
ENDBRANCH  24  26
ENDBRANCH  14  22
ENDBRANCH  12  14
ENDBRANCH   5  10
ENDBRANCH   3   5
BRANCH   1  33
ATOM     33  CA  GLU D   7      17.243  23.449  -0.002  1.00 10.87     0.177 C 
BRANCH  33  34
ATOM     34  N   GLU D   7      16.505  22.279   0.466  1.00 12.61    -0.346 N 
ATOM     35  C   ARG D   6      15.993  21.391  -0.381  1.00 15.63     0.257 C 
ATOM     36  O   ARG D   6      16.159  21.455  -1.596  1.00 17.14    -0.271 OA
ATOM     37  H   GLU D   7      16.436  22.222   1.321  1.00 12.61     0.163 HD
BRANCH  35  38
ATOM     38  CA  ARG D   6      15.167  20.264   0.230  1.00 20.39     0.400 C 
ATOM     39  N   ARG D   6      15.540  18.965  -0.322  1.00 31.26     0.615 N 
BRANCH  38  40
ATOM     40  CB  ARG D   6      15.294  20.256   1.754  1.00 20.29     0.053 C 
BRANCH  40  41
ATOM     41  CG  ARG D   6      16.380  19.327   2.269  1.00 28.41     0.023 C 
BRANCH  41  42
ATOM     42  CD  ARG D   6      16.391  19.258   3.791  1.00 36.78     0.138 C 
BRANCH  42  43
ATOM     43  NE  ARG D   6      15.667  18.101   4.312  1.00 40.20    -0.227 N 
ATOM     44  CZ  ARG D   6      15.698  17.716   5.585  1.00 47.18     0.665 C 
ATOM     45  NH2 ARG D   6      15.012  16.651   5.980  1.00 45.83    -0.235 N 
ATOM     46  NH1 ARG D   6      16.421  18.397   6.466  1.00 52.71    -0.235 N 
ATOM     47 HH21 ARG D   6      14.544  16.206   5.412  1.00 45.83     0.174 HD
ATOM     48 HH22 ARG D   6      15.035  16.406   6.804  1.00 45.83     0.174 HD
ATOM     49 HH11 ARG D   6      16.869  19.086   6.214  1.00 52.71     0.174 HD
ATOM     50 HH12 ARG D   6      16.441  18.149   7.289  1.00 52.71     0.174 HD
ATOM     51  HE  ARG D   6      15.192  17.641   3.762  1.00 40.20     0.177 HD
ENDBRANCH  42  43
ENDBRANCH  41  42
ENDBRANCH  40  41
ENDBRANCH  38  40
ENDBRANCH  35  38
ENDBRANCH  33  34
BRANCH  33  52
ATOM     52  CB  GLU D   7      16.337  24.676   0.022  1.00 13.53     0.045 C 
BRANCH  52  53
ATOM     53  CG  GLU D   7      16.943  25.920  -0.582  1.00 15.67     0.116 C 
BRANCH  53  54
ATOM     54  CD  GLU D   7      15.959  27.075  -0.600  1.00 22.62     0.172 C 
ATOM     55  OE2 GLU D   7      15.857  27.761  -1.635  1.00 20.96    -0.648 OA
ATOM     56  OE1 GLU D   7      15.265  27.280   0.419  1.00 32.46    -0.648 OA
ENDBRANCH  53  54
ENDBRANCH  52  53
ENDBRANCH  33  52
ENDBRANCH   1  33
TORSDOF 22
