USER: ADFR SOLUTION from run 0
USER: SCORE 20.154338 LL:  -4.456 LR: -17.507 RR:   0.000 FEB: -12.137
USER: RMSD 0.564824
USER: STATUS Locally minimized using BFGS
USER: GENES 20
USER: genes 0 Translation |==|  0.45279 0.43990 0.52952
USER: genes 1 Rotation |==|  0.50823 0.47331 0.52854 0.99840
USER: genes 2 Torsion [C]-N--CA-[CB] |==|  0.37030
USER: genes 3 Torsion [N]-CA--C-[N] |==|  0.40033
USER: genes 4 Torsion [N]-CA--C-[O] |==|  0.94725
USER: genes 5 Torsion [C]-N--CA-[C] |==|  0.74591
USER: genes 6 Torsion [N]-CA--C-[N] |==|  0.40556
USER: genes 7 Torsion [N]-CA--C-[O] |==|  0.37238
USER: genes 8 Torsion [N]-CA--CB-[CG] |==|  0.49267
USER: genes 9 Torsion [CA]-CB--CG-[CD1] |==|  0.26003
USER: genes 10 Torsion [N]-CA--CB-[CG] |==|  0.79045
USER: genes 11 Torsion [CA]-CB--CG-[CD2] |==|  0.79625
USER: genes 12 Torsion [O]-C--CA-[CB] |==|  0.20710
USER: genes 13 Torsion [N]-C--CA-[N] |==|  0.40491
USER: genes 14 Torsion [C]-CA--CB-[CG] |==|  0.41573
USER: genes 15 Torsion [CA]-CB--CG-[CD] |==|  0.35672
USER: genes 16 Torsion [CB]-CG--CD-[NE] |==|  0.44283
USER: genes 17 Torsion [CG]-CD--NE-[HE] |==|  0.99196
USER: genes 18 Torsion [C]-CA--N-[C] |==|  0.80843
USER: genes 19 Torsion [N]-C--CA-[CB] |==|  0.71300
ROOT
ATOM      1  C   PRO C  17     -12.463   8.270  -9.372  1.00 34.10 LIG 0.24  C 
ATOM      2 O    PRO C  17     -13.610   8.669  -9.183  1.00 31.91 LIG-0.27  OA
ATOM      3  N   LEU C  18     -11.645   8.836 -10.240  1.00 30.88 LIG-0.35  N 
ATOM      4 H    LEU C  18     -10.863   8.527 -10.416  1.00 30.88 LIG 0.16  HD
ENDROOT
BRANCH 3 5
ATOM      5  CA  LEU C  18     -11.978  10.039 -10.989  1.00 30.78 LIG 0.18  C 
BRANCH 5 6
ATOM      6  C   LEU C  18     -12.315   9.776 -12.446  1.00 33.73 LIG 0.24  C 
ATOM      7  N   PRO C  19     -13.283  10.537 -13.022  1.00 33.17 LIG-0.34  N 
ATOM      8  CA  PRO C  19     -13.601  10.362 -14.455  1.00 33.85 LIG 0.18  C 
ATOM      9  CD  PRO C  19     -14.142  11.570 -12.390  1.00 35.22 LIG 0.13  C 
ATOM     10  CB  PRO C  19     -14.912  11.133 -14.634  1.00 35.69 LIG 0.04  C 
ATOM     11  CG  PRO C  19     -14.962  12.107 -13.521  1.00 39.92 LIG 0.02  C 
ATOM     12 O    LEU C  18     -11.639   8.959 -13.074  1.00 31.40 LIG-0.27  OA
BRANCH 8 13
ATOM     13  C   PRO C  19     -12.497  10.830 -15.415  1.00 39.47 LIG 0.24  C 
ATOM     14  N   PHE C  20     -12.532  10.319 -16.647  1.00 41.20 LIG-0.35  N 
ATOM     15 H    PHE C  20     -13.139   9.763 -16.897  1.00 41.20 LIG 0.16  HD
ATOM     16 O    PRO C  19     -11.619  11.604 -15.045  1.00 36.20 LIG-0.27  OA
BRANCH 14 17
ATOM     17  CA  PHE C  20     -11.571  10.626 -17.705  1.00 43.59 LIG 0.18  C 
BRANCH 17 18
ATOM     18  C   PHE C  20     -12.086  11.817 -18.533  1.00 48.54 LIG 0.24  C 
ATOM     19  N   PRO C  21     -11.207  12.711 -19.059  1.00 46.41 LIG-0.34  N 
ATOM     20  CA  PRO C  21     -11.697  13.827 -19.903  1.00 51.72 LIG 0.17  C 
ATOM     21  CD  PRO C  21      -9.740  12.771 -18.907  1.00 49.19 LIG 0.13  C 
ATOM     22  CB  PRO C  21     -10.412  14.569 -20.306  1.00 52.56 LIG 0.04  C 
ATOM     23  CG  PRO C  21      -9.401  14.175 -19.306  1.00 54.82 LIG 0.02  C 
ATOM     24 O    PHE C  20     -13.301  11.912 -18.722  1.00 48.67 LIG-0.27  OA
BRANCH 20 25
ATOM     25  C   PRO C  21     -12.463  13.377 -21.148  1.00 87.57 LIG 0.22  C 
ATOM     26 O    PRO C  21     -13.528  13.918 -21.443  1.00 58.80 LIG-0.29  OA
ENDBRANCH 20 25
ENDBRANCH 17 18
BRANCH 17 27
ATOM     27  CB  PHE C  20     -11.371   9.370 -18.591  1.00 46.79 LIG 0.07  C 
BRANCH 27 28
ATOM     28  CG  PHE C  20     -10.451   9.501 -19.789  1.00 50.46 LIG-0.06  A 
ATOM     29  CD2 PHE C  20     -10.943   9.917 -21.023  1.00 54.33 LIG 0.01  A 
ATOM     30  CE2 PHE C  20     -10.092  10.038 -22.130  1.00 57.68 LIG 0.00  A 
ATOM     31  CZ  PHE C  20      -8.752   9.720 -22.010  1.00 55.81 LIG 0.00  A 
ATOM     32  CE1 PHE C  20      -8.251   9.293 -20.799  1.00 56.05 LIG 0.00  A 
ATOM     33  CD1 PHE C  20      -9.104   9.162 -19.696  1.00 54.84 LIG 0.01  A 
ENDBRANCH 27 28
ENDBRANCH 17 27
ENDBRANCH 14 17
ENDBRANCH 8 13
ENDBRANCH 5 6
BRANCH 5 34
ATOM     34  CB  LEU C  18     -10.801  11.009 -10.921  1.00 31.46 LIG 0.04  C 
BRANCH 34 35
ATOM     35  CG  LEU C  18     -10.616  11.746  -9.620  1.00 36.62 LIG-0.02  C 
ATOM     36  CD2 LEU C  18     -11.685  12.818  -9.472  1.00 38.91 LIG 0.01  C 
ATOM     37  CD1 LEU C  18      -9.215  12.362  -9.564  1.00 36.98 LIG 0.01  C 
ENDBRANCH 34 35
ENDBRANCH 5 34
ENDBRANCH 3 5
BRANCH 1 38
ATOM     38  CA  PRO C  17     -11.915   7.032  -8.676  1.00 33.71 LIG 0.18  C 
ATOM     39  CB  PRO C  17     -12.470   5.729  -9.259  1.00 36.04 LIG 0.04  C 
ATOM     40  CG  PRO C  17     -13.397   5.153  -8.209  1.00 41.66 LIG 0.02  C 
ATOM     41  CD  PRO C  17     -13.416   6.072  -7.024  1.00 37.74 LIG 0.13  C 
ATOM     42  N   PRO C  17     -12.235   6.935  -7.248  1.00 35.06 LIG-0.34  N 
ATOM     43  C   ARG C  16     -11.452   7.573  -6.358  1.00 37.80 LIG 0.24  C 
ATOM     44 O    ARG C  16     -10.489   8.234  -6.739  1.00 34.25 LIG-0.27  OA
BRANCH 43 45
ATOM     45  CA  ARG C  16     -11.739   7.455  -4.849  1.00 39.10 LIG 0.18  C 
BRANCH 45 46
ATOM     46  CB  ARG C  16     -12.649   8.611  -4.393  1.00 42.59 LIG 0.04  C 
BRANCH 46 47
ATOM     47  CG  ARG C  16     -13.570   8.274  -3.225  1.00 54.51 LIG 0.02  C 
BRANCH 47 48
ATOM     48  CD  ARG C  16     -13.465   9.290  -2.104  1.00 71.70 LIG 0.14  C 
BRANCH 48 49
ATOM     49  NE  ARG C  16     -14.647   9.255  -1.236  1.00 86.72 LIG-0.23  N 
ATOM     50 HE   ARG C  16     -15.283   8.716  -1.450  1.00 86.72 LIG 0.18  HD
ATOM     51  CZ  ARG C  16     -14.808   9.994  -0.141  1.00 98.48 LIG 0.67  C 
ATOM     52  NH2 ARG C  16     -15.921   9.898   0.576  1.00 86.10 LIG-0.23  N 
ATOM     53  NH1 ARG C  16     -13.862  10.843   0.240  1.00 81.98 LIG-0.23  N 
ATOM     54 2HH2 ARG C  16     -16.020  10.378   1.282  1.00 86.10 LIG 0.17  HD
ATOM     55 1HH2 ARG C  16     -16.542   9.355   0.334  1.00 86.10 LIG 0.17  HD
ATOM     56 1HH1 ARG C  16     -13.139  10.918  -0.221  1.00 81.98 LIG 0.17  HD
ATOM     57 2HH1 ARG C  16     -13.971  11.318   0.948  1.00 81.98 LIG 0.17  HD
ENDBRANCH 48 49
ENDBRANCH 47 48
ENDBRANCH 46 47
ENDBRANCH 45 46
BRANCH 45 58
ATOM     58  N   ARG C  16     -10.472   7.472  -4.109  1.00 40.87 LIG-0.35  N 
ATOM     59  C   PRO C  15      -9.549   6.483  -4.133  1.00 47.02 LIG 0.25  C 
ATOM     60 O    PRO C  15      -9.696   5.435  -4.762  1.00 46.36 LIG-0.27  OA
ATOM     61 H    ARG C  16     -10.365   8.188  -3.646  1.00 40.87 LIG 0.16  HD
BRANCH 59 62
ATOM     62  CA  PRO C  15      -8.249   6.727  -3.362  1.00 46.56 LIG 0.35  C 
ATOM     63  N   PRO C  15      -7.753   5.535  -2.659  1.00 47.38 LIG 0.32  N 
ATOM     64  CD  PRO C  15      -6.448   5.097  -3.187  1.00 49.28 LIG 0.32  C 
ATOM     65  CG  PRO C  15      -5.904   6.341  -3.819  1.00 53.38 LIG 0.04  C 
ATOM     66  CB  PRO C  15      -7.102   7.078  -4.324  1.00 48.49 LIG 0.05  C 
ENDBRANCH 59 62
ENDBRANCH 45 58
ENDBRANCH 43 45
ENDBRANCH 1 38
TORSDOF 18
