USER: ADFR SOLUTION from run 0
USER: SCORE 13.136809 LL:  -4.036 LR: -11.134 RR:   0.000 FEB:  -5.466
USER: RMSD 0.604373
USER: STATUS Locally minimized using BFGS
USER: GENES 21
USER: genes 0 Translation |==|  0.55359 0.40975 0.45083
USER: genes 1 Rotation |==|  0.51583 0.50470 0.48623 0.99954
USER: genes 2 Torsion [CB]-CA--N-[C] |==|  0.34610
USER: genes 3 Torsion [N]-C--CA-[N] |==|  0.47157
USER: genes 4 Torsion [C]-CA--N-[C] |==|  0.74802
USER: genes 5 Torsion [N]-C--CA-[N] |==|  0.34204
USER: genes 6 Torsion [C]-CA--N-[C] |==|  0.79165
USER: genes 7 Torsion [C]-CA--CB-[CG] |==|  0.14982
USER: genes 8 Torsion [CA]-CB--CG-[CD] |==|  0.17283
USER: genes 9 Torsion [CB]-CG--CD-[OE1] |==|  0.11484
USER: genes 10 Torsion [N]-CA--CB-[CG] |==|  0.75670
USER: genes 11 Torsion [CA]-CB--CG-[OD1] |==|  0.15676
USER: genes 12 Torsion [N]-CA--C-[N] |==|  0.40996
USER: genes 13 Torsion [C]-N--CA-[C] |==|  0.78050
USER: genes 14 Torsion [N]-CA--CB-[CG] |==|  0.81179
USER: genes 15 Torsion [CA]-CB--CG-[CD2] |==|  0.79813
USER: genes 16 Torsion [N]-CA--C-[N] |==|  0.92223
USER: genes 17 Torsion [C]-N--CA-[CB] |==|  0.20012
USER: genes 18 Torsion [N]-CA--C-[O] |==|  0.98973
USER: genes 19 Torsion [N]-CA--CB-[CG] |==|  0.15457
USER: genes 20 Torsion [CA]-CB--CG-[CD2] |==|  0.73860
ROOT
ATOM      1  CA  ASP E   2       5.129  -6.846 -12.222  1.00 33.44 LIG 0.19  C 
ENDROOT
BRANCH 1 2
ATOM      2  N   ASP E   2       3.868  -6.993 -12.960  1.00 33.24 LIG-0.35  N 
ATOM      3 H    ASP E   2       3.948  -7.370 -13.729  1.00 33.24 LIG 0.16  HD
ATOM      4  C   ALA E   1       2.709  -6.568 -12.456  1.00 32.93 LIG 0.24  C 
ATOM      5 O    ALA E   1       2.630  -5.931 -11.405  1.00 31.71 LIG-0.27  OA
BRANCH 4 6
ATOM      6  CA  ALA E   1       1.449  -6.891 -13.254  1.00 33.97 LIG 0.17  C 
ATOM      7  CB  ALA E   1       1.435  -6.110 -14.564  1.00 34.31 LIG 0.04  C 
BRANCH 6 8
ATOM      8  N   ALA E   1       0.256  -6.579 -12.463  1.00 34.07 LIG-0.35  N 
ATOM      9  C   GLN E   0      -0.341  -7.467 -11.664  1.00 34.65 LIG 0.24  C 
ATOM     10 O    GLN E   0       0.030  -8.637 -11.543  1.00 33.74 LIG-0.27  OA
ATOM     11 H    ALA E   1      -0.023  -5.771 -12.561  1.00 34.07 LIG 0.16  HD
BRANCH 9 12
ATOM     12  CA  GLN E   0      -1.525  -6.949 -10.849  1.00 34.37 LIG 0.18  C 
BRANCH 12 13
ATOM     13  N   GLN E   0      -2.788  -7.740 -11.103  1.00 34.90 LIG-0.35  N 
ATOM     14  C   ACE E  -1      -3.546  -7.635 -12.229  1.00 34.22 LIG 0.21  C 
ATOM     15  CH3 ACE E  -1      -4.679  -8.651 -12.238  1.00 34.51 LIG 0.12  C 
ATOM     16 O    ACE E  -1      -2.915  -7.563 -13.281  1.00 33.28 LIG-0.27  OA
ATOM     17 H    GLN E   0      -2.988  -8.274 -10.458  1.00 34.90 LIG 0.16  HD
ENDBRANCH 12 13
BRANCH 12 18
ATOM     18  CB  GLN E   0      -1.150  -6.991  -9.362  1.00 34.11 LIG 0.04  C 
BRANCH 18 19
ATOM     19  CG  GLN E   0       0.146  -6.264  -9.022  1.00 32.87 LIG 0.10  C 
BRANCH 19 20
ATOM     20  CD  GLN E   0       0.073  -4.783  -9.332  1.00 32.43 LIG 0.21  C 
ATOM     21 OE1  GLN E   0      -0.941  -4.142  -9.072  1.00 31.11 LIG-0.27  OA
ATOM     22  NE2 GLN E   0       1.141  -4.232  -9.901  1.00 32.01 LIG-0.37  N 
ATOM     23 22HE GLN E   0       1.138  -3.396 -10.102  1.00 32.01 LIG 0.16  HD
ATOM     24 21HE GLN E   0       1.835  -4.712 -10.068  1.00 32.01 LIG 0.16  HD
ENDBRANCH 19 20
ENDBRANCH 18 19
ENDBRANCH 12 18
ENDBRANCH 9 12
ENDBRANCH 6 8
ENDBRANCH 4 6
ENDBRANCH 1 2
BRANCH 1 25
ATOM     25  CB  ASP E   2       5.818  -8.201 -12.066  1.00 34.81 LIG 0.15  C 
BRANCH 25 26
ATOM     26  CG  ASP E   2       5.348  -8.938 -10.832  1.00 36.48 LIG 0.17  C 
ATOM     27 OD1  ASP E   2       4.123  -9.157 -10.709  1.00 36.59 LIG-0.65  OA
ATOM     28 OD2  ASP E   2       6.196  -9.273  -9.975  1.00 38.36 LIG-0.65  OA
ENDBRANCH 25 26
ENDBRANCH 1 25
BRANCH 1 29
ATOM     29  C   ASP E   2       6.094  -5.844 -12.832  1.00 31.85 LIG 0.24  C 
ATOM     30 O    ASP E   2       6.147  -5.679 -14.053  1.00 30.99 LIG-0.27  OA
ATOM     31  N   LEU E   3       6.860  -5.188 -11.957  1.00 29.32 LIG-0.35  N 
ATOM     32 H    LEU E   3       6.831  -5.332 -11.109  1.00 29.32 LIG 0.16  HD
BRANCH 31 33
ATOM     33  CA  LEU E   3       7.828  -4.154 -12.343  1.00 27.73 LIG 0.18  C 
BRANCH 33 34
ATOM     34  CB  LEU E   3       8.145  -3.234 -11.146  1.00 28.26 LIG 0.04  C 
BRANCH 34 35
ATOM     35  CG  LEU E   3       7.029  -2.321 -10.632  1.00 28.58 LIG-0.02  C 
ATOM     36  CD2 LEU E   3       6.760  -1.166 -11.591  1.00 28.56 LIG 0.01  C 
ATOM     37  CD1 LEU E   3       7.381  -1.784  -9.250  1.00 28.86 LIG 0.01  C 
ENDBRANCH 34 35
ENDBRANCH 33 34
BRANCH 33 38
ATOM     38  C   LEU E   3       9.128  -4.722 -12.886  1.00 26.19 LIG 0.24  C 
ATOM     39  N   PHE E   4       9.478  -5.926 -12.441  1.00 24.40 LIG-0.34  N 
ATOM     40 H    PHE E   4       8.970  -6.412 -11.944  1.00 24.40 LIG 0.16  HD
ATOM     41 O    LEU E   3       9.800  -4.065 -13.682  1.00 26.01 LIG-0.27  OA
BRANCH 39 42
ATOM     42  CA  PHE E   4      10.760  -6.543 -12.753  1.00 23.80 LIG 0.19  C 
BRANCH 42 43
ATOM     43  C   PHE E   4      10.750  -8.016 -12.350  1.00 24.08 LIG 0.20  C 
ATOM     44 O    PHE E   4       9.787  -8.530 -11.776  1.00 22.36 LIG-0.65  OA
ATOM     45 OXT  PHE E   4      11.747  -8.702 -12.552  1.00 24.21 LIG-0.65  OA
ENDBRANCH 42 43
BRANCH 42 46
ATOM     46  CB  PHE E   4      11.888  -5.839 -11.989  1.00 23.46 LIG 0.07  C 
BRANCH 46 47
ATOM     47  CG  PHE E   4      11.678  -5.801 -10.490  1.00 22.76 LIG-0.06  A 
ATOM     48  CD1 PHE E   4      12.058  -6.868  -9.690  1.00 22.71 LIG 0.01  A 
ATOM     49  CE1 PHE E   4      11.861  -6.837  -8.319  1.00 22.42 LIG 0.00  A 
ATOM     50  CZ  PHE E   4      11.263  -5.732  -7.735  1.00 22.02 LIG 0.00  A 
ATOM     51  CE2 PHE E   4      10.871  -4.665  -8.521  1.00 22.12 LIG 0.00  A 
ATOM     52  CD2 PHE E   4      11.078  -4.704  -9.889  1.00 22.51 LIG 0.01  A 
ENDBRANCH 46 47
ENDBRANCH 42 46
ENDBRANCH 39 42
ENDBRANCH 33 38
ENDBRANCH 31 33
ENDBRANCH 1 29
TORSDOF 19
