REMARK  19 active torsions:
REMARK  status: ('A' for Active; 'I' for Inactive)
REMARK       I    between atoms: C_1  and  N_4 
REMARK    1  A    between atoms: N_4  and  CA_5 
REMARK    2  A    between atoms: CA_5  and  C_6 
REMARK    3  A    between atoms: CA_5  and  CB_8 
REMARK       I    between atoms: C_6  and  N_16 
REMARK    4  A    between atoms: CB_8  and  CG_9 
REMARK    5  A    between atoms: CG_9  and  CD_10 
REMARK       I    between atoms: CD_10  and  NE2_12 
REMARK    6  A    between atoms: N_16  and  CA_17 
REMARK    7  A    between atoms: CA_17  and  C_18 
REMARK       I    between atoms: C_18  and  N_22 
REMARK    8  A    between atoms: N_22  and  CA_23 
REMARK    9  A    between atoms: CA_23  and  CB_26 
REMARK   10  A    between atoms: CA_23  and  C_24 
REMARK       I    between atoms: C_24  and  N_31 
REMARK   11  A    between atoms: CB_26  and  CG_27 
REMARK   12  A    between atoms: N_31  and  CA_32 
REMARK   13  A    between atoms: CA_32  and  CB_35 
REMARK   14  A    between atoms: CA_32  and  C_33 
REMARK       I    between atoms: C_33  and  N_40 
REMARK   15  A    between atoms: CB_35  and  CG_36 
REMARK   16  A    between atoms: N_40  and  CA_41 
REMARK   17  A    between atoms: CA_41  and  C_42 
REMARK   18  A    between atoms: CA_41  and  CB_44 
REMARK   19  A    between atoms: CB_44  and  CG_45 
ROOT
ATOM      1  CA  ASP E   2       5.156  -7.047 -12.343  1.00 33.44     0.186 C 
ENDROOT
BRANCH   1   2
ATOM      2  N   ASP E   2       3.920  -7.310 -13.092  1.00 33.24    -0.346 N 
ATOM      3  H   ASP E   2       4.037  -7.718 -13.840  1.00 33.24     0.163 HD
ATOM      4  C   ALA E   1       2.727  -6.935 -12.627  1.00 32.93     0.240 C 
ATOM      5  O   ALA E   1       2.590  -6.254 -11.611  1.00 31.71    -0.271 OA
BRANCH   4   6
ATOM      6  CA  ALA E   1       1.505  -7.377 -13.427  1.00 33.97     0.172 C 
ATOM      7  CB  ALA E   1       1.399  -6.577 -14.721  1.00 34.31     0.042 C 
BRANCH   6   8
ATOM      8  N   ALA E   1       0.290  -7.210 -12.625  1.00 34.07    -0.346 N 
ATOM      9  C   GLN E   0      -0.287  -8.214 -11.960  1.00 34.65     0.241 C 
ATOM     10  O   GLN E   0       0.124  -9.377 -11.984  1.00 33.74    -0.271 OA
ATOM     11  H   ALA E   1      -0.016  -6.406 -12.623  1.00 34.07     0.163 HD
BRANCH   9  12
ATOM     12  CA  GLN E   0      -1.501  -7.846 -11.108  1.00 34.37     0.177 C 
BRANCH  12  13
ATOM     13  N   GLN E   0      -2.720  -8.668 -11.459  1.00 34.90    -0.348 N 
HETATM   14  C   ACE E  -1      -3.571  -8.380 -12.482  1.00 34.22     0.214 C 
HETATM   15  CH3 ACE E  -1      -4.626  -9.464 -12.654  1.00 34.51     0.117 C 
HETATM   16  O   ACE E  -1      -3.033  -8.019 -13.526  1.00 33.28    -0.274 OA
ATOM     17  H   GLN E   0      -2.829  -9.348 -10.943  1.00 34.90     0.163 HD
ENDBRANCH  12  13
BRANCH  12  18
ATOM     18  CB  GLN E   0      -1.133  -8.028  -9.630  1.00 34.11     0.044 C 
BRANCH  18  19
ATOM     19  CG  GLN E   0       0.063  -7.199  -9.175  1.00 32.87     0.105 C 
BRANCH  19  20
ATOM     20  CD  GLN E   0      -0.181  -5.710  -9.317  1.00 32.43     0.215 C 
ATOM     21  OE1 GLN E   0      -1.200  -5.200  -8.859  1.00 31.11    -0.274 OA
ATOM     22  NE2 GLN E   0       0.743  -5.006  -9.964  1.00 32.01    -0.370 N 
ATOM     23 2HE2 GLN E   0       0.639  -4.160 -10.075  1.00 32.01     0.159 HD
ATOM     24 1HE2 GLN E   0       1.445  -5.397 -10.271  1.00 32.01     0.159 HD
ENDBRANCH  19  20
ENDBRANCH  18  19
ENDBRANCH  12  18
ENDBRANCH   9  12
ENDBRANCH   6   8
ENDBRANCH   4   6
ENDBRANCH   1   2
BRANCH   1  25
ATOM     25  CB  ASP E   2       5.914  -8.349 -12.090  1.00 34.81     0.147 C 
BRANCH  25  26
ATOM     26  CG  ASP E   2       5.439  -9.047 -10.835  1.00 36.48     0.175 C 
ATOM     27  OD1 ASP E   2       4.221  -9.307 -10.732  1.00 36.59    -0.648 OA
ATOM     28  OD2 ASP E   2       6.276  -9.310  -9.943  1.00 38.36    -0.648 OA
ENDBRANCH  25  26
ENDBRANCH   1  25
BRANCH   1  29
ATOM     29  C   ASP E   2       6.077  -6.033 -13.000  1.00 31.85     0.241 C 
ATOM     30  O   ASP E   2       6.093  -5.892 -14.225  1.00 30.99    -0.271 OA
ATOM     31  N   LEU E   3       6.848  -5.339 -12.159  1.00 29.32    -0.346 N 
ATOM     32  H   LEU E   3       6.846  -5.466 -11.308  1.00 29.32     0.163 HD
BRANCH  31  33
ATOM     33  CA  LEU E   3       7.778  -4.289 -12.592  1.00 27.73     0.177 C 
BRANCH  33  34
ATOM     34  CB  LEU E   3       8.163  -3.382 -11.405  1.00 28.26     0.038 C 
BRANCH  34  35
ATOM     35  CG  LEU E   3       7.102  -2.417 -10.870  1.00 28.58    -0.020 C 
ATOM     36  CD2 LEU E   3       6.870  -1.250 -11.824  1.00 28.56     0.009 C 
ATOM     37  CD1 LEU E   3       7.505  -1.899  -9.495  1.00 28.86     0.009 C 
ENDBRANCH  34  35
ENDBRANCH  33  34
BRANCH  33  38
ATOM     38  C   LEU E   3       9.045  -4.834 -13.228  1.00 26.19     0.241 C 
ATOM     39  N   PHE E   4       9.420  -6.052 -12.846  1.00 24.40    -0.344 N 
ATOM     40  H   PHE E   4       8.942  -6.556 -12.339  1.00 24.40     0.163 HD
ATOM     41  O   LEU E   3       9.671  -4.147 -14.036  1.00 26.01    -0.271 OA
BRANCH  39  42
ATOM     42  CA  PHE E   4      10.683  -6.654 -13.252  1.00 23.80     0.189 C 
BRANCH  42  43
ATOM     43  C   PHE E   4      10.700  -8.138 -12.894  1.00 24.08     0.197 C 
ATOM     44  O   PHE E   4       9.767  -8.677 -12.294  1.00 22.36    -0.646 OA
ATOM     45  OXT PHE E   4      11.691  -8.811 -13.161  1.00 24.21    -0.646 OA
ENDBRANCH  42  43
BRANCH  42  46
ATOM     46  CB  PHE E   4      11.853  -5.969 -12.534  1.00 23.46     0.074 C 
BRANCH  46  47
ATOM     47  CG  PHE E   4      11.745  -6.002 -11.024  1.00 22.76    -0.056 A 
ATOM     48  CD1 PHE E   4      12.152  -7.115 -10.305  1.00 22.71     0.007 A 
ATOM     49  CE1 PHE E   4      12.048  -7.149  -8.924  1.00 22.42     0.001 A 
ATOM     50  CZ  PHE E   4      11.519  -6.062  -8.247  1.00 22.02     0.000 A 
ATOM     51  CE2 PHE E   4      11.102  -4.949  -8.952  1.00 22.12     0.001 A 
ATOM     52  CD2 PHE E   4      11.215  -4.923 -10.331  1.00 22.51     0.007 A 
ENDBRANCH  46  47
ENDBRANCH  42  46
ENDBRANCH  39  42
ENDBRANCH  33  38
ENDBRANCH  31  33
ENDBRANCH   1  29
TORSDOF 19
