USER: ADFR SOLUTION from run 0
USER: SCORE 14.624243 LL:  -5.142 LR: -12.202 RR:   0.000 FEB:  -6.534
USER: RMSD 0.428579
USER: STATUS Locally minimized using BFGS
USER: GENES 21
USER: genes 0 Translation |==|  0.45275 0.40149 0.49341
USER: genes 1 Rotation |==|  0.51112 0.50397 0.49826 0.99986
USER: genes 2 Torsion [C]-N--CA-[CB] |==|  0.43333
USER: genes 3 Torsion [N]-CA--C-[N] |==|  0.36911
USER: genes 4 Torsion [C]-N--CA-[CB] |==|  0.47682
USER: genes 5 Torsion [N]-CA--C-[N] |==|  0.91608
USER: genes 6 Torsion [C]-N--CA-[C] |==|  0.52673
USER: genes 7 Torsion [N]-CA--C-[OXT] |==|  0.47266
USER: genes 8 Torsion [N]-CA--CB-[CG] |==|  0.15533
USER: genes 9 Torsion [CA]-CB--CG-[CD1] |==|  0.23344
USER: genes 10 Torsion [N]-CA--CB-[CG] |==|  0.69607
USER: genes 11 Torsion [CA]-CB--CG-[CD2] |==|  0.85759
USER: genes 12 Torsion [N]-C--CA-[N] |==|  0.44028
USER: genes 13 Torsion [C]-CA--CB-[CG] |==|  0.49264
USER: genes 14 Torsion [CA]-CB--CG-[CD1] |==|  0.46004
USER: genes 15 Torsion [C]-CA--N-[C] |==|  0.76774
USER: genes 16 Torsion [N]-C--CA-[N] |==|  0.34260
USER: genes 17 Torsion [C]-CA--N-[C] |==|  0.82083
USER: genes 18 Torsion [C]-CA--CB-[CG] |==|  0.13299
USER: genes 19 Torsion [CA]-CB--CG-[CD] |==|  0.19711
USER: genes 20 Torsion [CB]-CG--CD-[OE1] |==|  0.16587
ROOT
ATOM      1  C   LEU E   1       2.463  -6.644 -12.934  1.00 34.74 LIG 0.24  C 
ATOM      2 O    LEU E   1       2.467  -5.996 -11.892  1.00 33.94 LIG-0.27  OA
ATOM      3  N   ALA E   2       3.545  -7.249 -13.419  1.00 36.28 LIG-0.35  N 
ATOM      4 H    ALA E   2       3.544  -7.719 -14.140  1.00 36.28 LIG 0.16  HD
ENDROOT
BRANCH 3 5
ATOM      5  CA  ALA E   2       4.853  -7.169 -12.763  1.00 35.94 LIG 0.17  C 
ATOM      6  CB  ALA E   2       5.716  -8.363 -13.152  1.00 33.95 LIG 0.04  C 
BRANCH 5 7
ATOM      7  C   ALA E   2       5.542  -5.860 -13.139  1.00 35.46 LIG 0.24  C 
ATOM      8 O    ALA E   2       5.569  -5.492 -14.315  1.00 34.79 LIG-0.27  OA
ATOM      9  N   LEU E   3       6.083  -5.156 -12.140  1.00 35.08 LIG-0.35  N 
ATOM     10 H    LEU E   3       5.980  -5.352 -11.309  1.00 35.08 LIG 0.16  HD
BRANCH 9 11
ATOM     11  CA  LEU E   3       6.916  -3.961 -12.382  1.00 35.40 LIG 0.18  C 
BRANCH 11 12
ATOM     12  C   LEU E   3       8.231  -4.304 -13.077  1.00 36.56 LIG 0.24  C 
ATOM     13  N   PHE E   4       8.722  -5.515 -12.808  1.00 37.64 LIG-0.34  N 
ATOM     14 H    PHE E   4       8.310  -6.081 -12.309  1.00 37.64 LIG 0.16  HD
ATOM     15 O    LEU E   3       8.790  -3.483 -13.806  1.00 36.99 LIG-0.27  OA
BRANCH 13 16
ATOM     16  CA  PHE E   4       9.992  -6.016 -13.316  1.00 39.79 LIG 0.19  C 
BRANCH 16 17
ATOM     17  C   PHE E   4      10.114  -7.515 -13.001  1.00 40.57 LIG 0.20  C 
ATOM     18 OXT  PHE E   4      11.017  -8.183 -13.491  1.00 44.77 LIG-0.65  OA
ATOM     19 O    PHE E   4       9.339  -8.115 -12.243  1.00 38.71 LIG-0.65  OA
ENDBRANCH 16 17
BRANCH 16 20
ATOM     20  CB  PHE E   4      11.167  -5.248 -12.691  1.00 41.62 LIG 0.07  C 
BRANCH 20 21
ATOM     21  CG  PHE E   4      11.175  -5.273 -11.187  1.00 42.37 LIG-0.06  A 
ATOM     22  CD1 PHE E   4      11.739  -6.353 -10.496  1.00 43.46 LIG 0.01  A 
ATOM     23  CE1 PHE E   4      11.738  -6.390  -9.113  1.00 44.96 LIG 0.00  A 
ATOM     24  CZ  PHE E   4      11.165  -5.343  -8.401  1.00 45.96 LIG 0.00  A 
ATOM     25  CE2 PHE E   4      10.604  -4.259  -9.074  1.00 43.80 LIG 0.00  A 
ATOM     26  CD2 PHE E   4      10.612  -4.230 -10.460  1.00 42.63 LIG 0.01  A 
ENDBRANCH 20 21
ENDBRANCH 16 20
ENDBRANCH 13 16
ENDBRANCH 11 12
BRANCH 11 27
ATOM     27  CB  LEU E   3       7.237  -3.226 -11.073  1.00 33.50 LIG 0.04  C 
BRANCH 27 28
ATOM     28  CG  LEU E   3       6.622  -1.866 -10.736  1.00 34.48 LIG-0.02  C 
ATOM     29  CD2 LEU E   3       6.794  -0.860 -11.859  1.00 30.77 LIG 0.01  C 
ATOM     30  CD1 LEU E   3       7.246  -1.332  -9.450  1.00 32.68 LIG 0.01  C 
ENDBRANCH 27 28
ENDBRANCH 11 27
ENDBRANCH 9 11
ENDBRANCH 5 7
ENDBRANCH 3 5
BRANCH 1 31
ATOM     31  CA  LEU E   1       1.178  -6.809 -13.741  1.00 33.78 LIG 0.18  C 
BRANCH 31 32
ATOM     32  CB  LEU E   1       1.187  -5.893 -14.965  1.00 32.47 LIG 0.04  C 
BRANCH 32 33
ATOM     33  CG  LEU E   1      -0.029  -6.015 -15.893  1.00 32.32 LIG-0.02  C 
ATOM     34  CD1 LEU E   1      -0.086  -4.835 -16.856  1.00 30.19 LIG 0.01  C 
ATOM     35  CD2 LEU E   1      -0.030  -7.354 -16.635  1.00 31.57 LIG 0.01  C 
ENDBRANCH 32 33
ENDBRANCH 31 32
BRANCH 31 36
ATOM     36  N   LEU E   1      -0.005  -6.566 -12.911  1.00 33.92 LIG-0.35  N 
ATOM     37  C   GLN E   0      -0.517  -7.528 -12.146  1.00 32.69 LIG 0.24  C 
ATOM     38 O    GLN E   0      -0.091  -8.686 -12.145  1.00 35.54 LIG-0.27  OA
ATOM     39 H    LEU E   1      -0.325  -5.769 -12.965  1.00 33.92 LIG 0.16  HD
BRANCH 37 40
ATOM     40  CA  GLN E   0      -1.675  -7.137 -11.251  1.00 31.66 LIG 0.18  C 
BRANCH 40 41
ATOM     41  N   GLN E   0      -2.864  -8.001 -11.528  1.00 30.66 LIG-0.35  N 
ATOM     42  C   ACE E  -1      -3.521  -8.011 -12.693  1.00 29.47 LIG 0.21  C 
ATOM     43 O    ACE E  -1      -3.057  -7.625 -13.757  1.00 28.51 LIG-0.27  OA
ATOM     44  CH3 ACE E  -1      -4.909  -8.603 -12.654  1.00 29.76 LIG 0.12  C 
ATOM     45 H    GLN E   0      -3.089  -8.497 -10.862  1.00 30.66 LIG 0.16  HD
ENDBRANCH 40 41
BRANCH 40 46
ATOM     46  CB  GLN E   0      -1.258  -7.247  -9.774  1.00 31.02 LIG 0.04  C 
BRANCH 46 47
ATOM     47  CG  GLN E   0       0.082  -6.596  -9.426  1.00 30.22 LIG 0.10  C 
BRANCH 47 48
ATOM     48  CD  GLN E   0       0.037  -5.075  -9.466  1.00 30.34 LIG 0.21  C 
ATOM     49 OE1  GLN E   0      -0.735  -4.436  -8.737  1.00 29.98 LIG-0.27  OA
ATOM     50  NE2 GLN E   0       0.865  -4.484 -10.316  1.00 28.66 LIG-0.37  N 
ATOM     51 21HE GLN E   0       1.387  -4.959 -10.807  1.00 28.66 LIG 0.16  HD
ATOM     52 22HE GLN E   0       0.880  -3.626 -10.377  1.00 28.66 LIG 0.16  HD
ENDBRANCH 47 48
ENDBRANCH 46 47
ENDBRANCH 40 46
ENDBRANCH 37 40
ENDBRANCH 31 36
ENDBRANCH 1 31
TORSDOF 19
