USER: ADFR SOLUTION from run 0
USER: SCORE 10.716831 LL:  -4.335 LR:  -9.961 RR:   0.000 FEB:  -4.293
USER: RMSD 0.388052
USER: STATUS Locally minimized using BFGS
USER: GENES 21
USER: genes 0 Translation |==|  0.45909 0.52701 0.49736
USER: genes 1 Rotation |==|  0.49885 0.49307 0.49163 0.99988
USER: genes 2 Torsion [C]-N--CA-[CB] |==|  0.38604
USER: genes 3 Torsion [N]-CA--C-[N] |==|  0.40899
USER: genes 4 Torsion [C]-N--CA-[CB] |==|  0.43179
USER: genes 5 Torsion [N]-CA--C-[N] |==|  0.91132
USER: genes 6 Torsion [C]-N--CA-[CB] |==|  0.21460
USER: genes 7 Torsion [N]-CA--C-[O] |==|  0.98951
USER: genes 8 Torsion [N]-CA--CB-[CG] |==|  0.14205
USER: genes 9 Torsion [CA]-CB--CG-[CD1] |==|  0.22319
USER: genes 10 Torsion [N]-CA--CB-[CG] |==|  0.82781
USER: genes 11 Torsion [CA]-CB--CG-[OD2] |==|  0.37572
USER: genes 12 Torsion [N]-C--CA-[N] |==|  0.45265
USER: genes 13 Torsion [C]-CA--CB-[CG] |==|  0.47797
USER: genes 14 Torsion [CA]-CB--CG-[CD2] |==|  0.83934
USER: genes 15 Torsion [C]-CA--N-[C] |==|  0.75522
USER: genes 16 Torsion [N]-C--CA-[N] |==|  0.34627
USER: genes 17 Torsion [C]-CA--N-[C] |==|  0.84544
USER: genes 18 Torsion [C]-CA--CB-[CG] |==|  0.14651
USER: genes 19 Torsion [CA]-CB--CG-[CD] |==|  0.17212
USER: genes 20 Torsion [CB]-CG--CD-[OE1] |==|  0.15008
ROOT
ATOM      1  C   LEU E   1       2.737  -6.574 -12.626  1.00 39.66 LIG 0.24  C 
ATOM      2 O    LEU E   1       2.659  -5.998 -11.537  1.00 37.26 LIG-0.27  OA
ATOM      3  N   ASP E   2       3.868  -7.111 -13.087  1.00 41.55 LIG-0.35  N 
ATOM      4 H    ASP E   2       3.929  -7.514 -13.844  1.00 41.55 LIG 0.16  HD
ENDROOT
BRANCH 3 5
ATOM      5  CA  ASP E   2       5.127  -7.062 -12.335  1.00 42.33 LIG 0.19  C 
BRANCH 5 6
ATOM      6  C   ASP E   2       6.020  -5.928 -12.828  1.00 41.58 LIG 0.24  C 
ATOM      7 O    ASP E   2       6.014  -5.596 -14.019  1.00 40.78 LIG-0.27  OA
ATOM      8  N   ALA E   3       6.788  -5.347 -11.904  1.00 40.17 LIG-0.35  N 
ATOM      9 H    ALA E   3       6.803  -5.594 -11.081  1.00 40.17 LIG 0.16  HD
BRANCH 8 10
ATOM     10  CA  ALA E   3       7.686  -4.224 -12.200  1.00 38.52 LIG 0.17  C 
ATOM     11  CB  ALA E   3       7.946  -3.410 -10.935  1.00 38.62 LIG 0.04  C 
BRANCH 10 12
ATOM     12  C   ALA E   3       9.008  -4.654 -12.836  1.00 38.02 LIG 0.24  C 
ATOM     13 O    ALA E   3       9.584  -3.922 -13.642  1.00 36.71 LIG-0.27  OA
ATOM     14  N   PHE E   4       9.471  -5.844 -12.462  1.00 38.01 LIG-0.34  N 
ATOM     15 H    PHE E   4       9.025  -6.389 -11.968  1.00 38.01 LIG 0.16  HD
BRANCH 14 16
ATOM     16  CA  PHE E   4      10.787  -6.347 -12.852  1.00 38.29 LIG 0.19  C 
BRANCH 16 17
ATOM     17  C   PHE E   4      10.837  -7.861 -12.661  1.00 39.00 LIG 0.20  C 
ATOM     18 OXT  PHE E   4      11.843  -8.503 -12.971  1.00 39.22 LIG-0.65  OA
ATOM     19 O    PHE E   4       9.883  -8.471 -12.169  1.00 39.04 LIG-0.65  OA
ENDBRANCH 16 17
BRANCH 16 20
ATOM     20  CB  PHE E   4      11.889  -5.683 -12.008  1.00 37.57 LIG 0.07  C 
BRANCH 20 21
ATOM     21  CG  PHE E   4      11.638  -5.750 -10.522  1.00 36.97 LIG-0.06  A 
ATOM     22  CD1 PHE E   4      11.926  -6.909  -9.800  1.00 35.77 LIG 0.01  A 
ATOM     23  CE1 PHE E   4      11.680  -6.975  -8.437  1.00 35.50 LIG 0.00  A 
ATOM     24  CZ  PHE E   4      11.144  -5.875  -7.781  1.00 35.20 LIG 0.00  A 
ATOM     25  CE2 PHE E   4      10.849  -4.717  -8.489  1.00 34.71 LIG 0.00  A 
ATOM     26  CD2 PHE E   4      11.096  -4.659  -9.850  1.00 35.45 LIG 0.01  A 
ENDBRANCH 20 21
ENDBRANCH 16 20
ENDBRANCH 14 16
ENDBRANCH 10 12
ENDBRANCH 8 10
ENDBRANCH 5 6
BRANCH 5 27
ATOM     27  CB  ASP E   2       5.877  -8.397 -12.431  1.00 43.54 LIG 0.15  C 
BRANCH 27 28
ATOM     28  CG  ASP E   2       5.093  -9.558 -11.833  1.00 45.99 LIG 0.17  C 
ATOM     29 OD2  ASP E   2       5.043 -10.634 -12.472  1.00 46.35 LIG-0.65  OA
ATOM     30 OD1  ASP E   2       4.537  -9.404 -10.723  1.00 46.97 LIG-0.65  OA
ENDBRANCH 27 28
ENDBRANCH 5 27
ENDBRANCH 3 5
BRANCH 1 31
ATOM     31  CA  LEU E   1       1.499  -6.728 -13.520  1.00 39.47 LIG 0.18  C 
BRANCH 31 32
ATOM     32  CB  LEU E   1       1.578  -5.838 -14.774  1.00 38.97 LIG 0.04  C 
BRANCH 32 33
ATOM     33  CG  LEU E   1       0.487  -6.044 -15.838  1.00 40.05 LIG-0.02  C 
ATOM     34  CD2 LEU E   1       0.459  -7.483 -16.345  1.00 40.58 LIG 0.01  C 
ATOM     35  CD1 LEU E   1       0.654  -5.074 -16.999  1.00 39.33 LIG 0.01  C 
ENDBRANCH 32 33
ENDBRANCH 31 32
BRANCH 31 36
ATOM     36  N   LEU E   1       0.260  -6.478 -12.783  1.00 38.97 LIG-0.35  N 
ATOM     37  C   GLN E   0      -0.375  -7.446 -12.126  1.00 38.27 LIG 0.24  C 
ATOM     38 O    GLN E   0       0.015  -8.619 -12.099  1.00 40.12 LIG-0.27  OA
ATOM     39 H    LEU E   1      -0.011  -5.662 -12.814  1.00 38.97 LIG 0.16  HD
BRANCH 37 40
ATOM     40  CA  GLN E   0      -1.633  -7.025 -11.369  1.00 36.47 LIG 0.18  C 
BRANCH 40 41
ATOM     41  N   GLN E   0      -2.836  -7.823 -11.767  1.00 35.61 LIG-0.35  N 
ATOM     42  C   ACE E  -1      -3.277  -7.936 -13.024  1.00 35.56 LIG 0.21  C 
ATOM     43 O    ACE E  -1      -2.758  -7.390 -13.988  1.00 35.09 LIG-0.27  OA
ATOM     44  CH3 ACE E  -1      -4.599  -8.649 -13.191  1.00 35.40 LIG 0.12  C 
ATOM     45 H    GLN E   0      -3.223  -8.208 -11.102  1.00 35.61 LIG 0.16  HD
ENDBRANCH 40 41
BRANCH 40 46
ATOM     46  CB  GLN E   0      -1.384  -7.134  -9.858  1.00 35.42 LIG 0.04  C 
BRANCH 46 47
ATOM     47  CG  GLN E   0      -0.134  -6.396  -9.383  1.00 33.87 LIG 0.10  C 
BRANCH 47 48
ATOM     48  CD  GLN E   0      -0.215  -4.902  -9.637  1.00 33.67 LIG 0.21  C 
ATOM     49 OE1  GLN E   0      -1.170  -4.246  -9.225  1.00 31.67 LIG-0.27  OA
ATOM     50  NE2 GLN E   0       0.785  -4.360 -10.330  1.00 33.23 LIG-0.37  N 
ATOM     51 22HE GLN E   0       0.779  -3.518 -10.505  1.00 33.23 LIG 0.16  HD
ATOM     52 21HE GLN E   0       1.436  -4.852 -10.602  1.00 33.23 LIG 0.16  HD
ENDBRANCH 47 48
ENDBRANCH 46 47
ENDBRANCH 40 46
ENDBRANCH 37 40
ENDBRANCH 31 36
ENDBRANCH 1 31
TORSDOF 19
