REMARK  19 active torsions:
REMARK  status: ('A' for Active; 'I' for Inactive)
REMARK       I    between atoms: C_1  and  N_4 
REMARK    1  A    between atoms: N_4  and  CA_5 
REMARK    2  A    between atoms: CA_5  and  C_6 
REMARK    3  A    between atoms: CA_5  and  CB_8 
REMARK       I    between atoms: C_6  and  N_16 
REMARK    4  A    between atoms: CB_8  and  CG_9 
REMARK    5  A    between atoms: CG_9  and  CD_10 
REMARK       I    between atoms: CD_10  and  NE2_12 
REMARK    6  A    between atoms: N_16  and  CA_17 
REMARK    7  A    between atoms: CA_17  and  CB_20 
REMARK    8  A    between atoms: CA_17  and  C_18 
REMARK       I    between atoms: C_18  and  N_25 
REMARK    9  A    between atoms: CB_20  and  CG_21 
REMARK   10  A    between atoms: N_25  and  CA_26 
REMARK   11  A    between atoms: CA_26  and  C_27 
REMARK   12  A    between atoms: CA_26  and  CB_29 
REMARK       I    between atoms: C_27  and  N_34 
REMARK   13  A    between atoms: CB_29  and  CG_30 
REMARK   14  A    between atoms: N_34  and  CA_35 
REMARK   15  A    between atoms: CA_35  and  C_36 
REMARK       I    between atoms: C_36  and  N_40 
REMARK   16  A    between atoms: N_40  and  CA_41 
REMARK   17  A    between atoms: CA_41  and  C_42 
REMARK   18  A    between atoms: CA_41  and  CB_44 
REMARK   19  A    between atoms: CB_44  and  CG_45 
ROOT
ATOM      1  C   LEU E   1       2.741  -6.635 -12.660  1.00 39.66     0.241 C 
ATOM      2  O   LEU E   1       2.674  -6.067 -11.566  1.00 37.26    -0.271 OA
ATOM      3  N   ASP E   2       3.876  -7.132 -13.154  1.00 41.55    -0.346 N 
ATOM      4  H   ASP E   2       3.929  -7.530 -13.915  1.00 41.55     0.163 HD
ENDROOT
BRANCH   3   5
ATOM      5  CA  ASP E   2       5.153  -7.044 -12.437  1.00 42.33     0.186 C 
BRANCH   5   6
ATOM      6  C   ASP E   2       6.007  -5.899 -12.971  1.00 41.58     0.241 C 
ATOM      7  O   ASP E   2       5.940  -5.567 -14.160  1.00 40.78    -0.271 OA
ATOM      8  N   ALA E   3       6.812  -5.310 -12.085  1.00 40.17    -0.346 N 
ATOM      9  H   ALA E   3       6.870  -5.558 -11.264  1.00 40.17     0.163 HD
BRANCH   8  10
ATOM     10  CA  ALA E   3       7.682  -4.176 -12.423  1.00 38.52     0.172 C 
ATOM     11  CB  ALA E   3       8.020  -3.379 -11.165  1.00 38.62     0.042 C 
BRANCH  10  12
ATOM     12  C   ALA E   3       8.961  -4.587 -13.152  1.00 38.02     0.240 C 
ATOM     13  O   ALA E   3       9.493  -3.828 -13.963  1.00 36.71    -0.271 OA
ATOM     14  N   PHE E   4       9.439  -5.792 -12.850  1.00 38.01    -0.344 N 
ATOM     15  H   PHE E   4       9.020  -6.353 -12.351  1.00 38.01     0.163 HD
BRANCH  14  16
ATOM     16  CA  PHE E   4      10.726  -6.285 -13.336  1.00 38.29     0.189 C 
BRANCH  16  17
ATOM     17  C   PHE E   4      10.768  -7.807 -13.231  1.00 39.00     0.197 C 
ATOM     18  OXT PHE E   4      11.749  -8.441 -13.626  1.00 39.22    -0.646 OA
ATOM     19  O   PHE E   4       9.832  -8.435 -12.725  1.00 39.04    -0.646 OA
ENDBRANCH  16  17
BRANCH  16  20
ATOM     20  CB  PHE E   4      11.879  -5.679 -12.516  1.00 37.57     0.074 C 
BRANCH  20  21
ATOM     21  CG  PHE E   4      11.701  -5.819 -11.025  1.00 36.97    -0.056 A 
ATOM     22  CD1 PHE E   4      12.003  -7.018 -10.378  1.00 35.77     0.007 A 
ATOM     23  CE1 PHE E   4      11.824  -7.151  -9.010  1.00 35.50     0.001 A 
ATOM     24  CZ  PHE E   4      11.343  -6.078  -8.272  1.00 35.20     0.000 A 
ATOM     25  CE2 PHE E   4      11.035  -4.880  -8.904  1.00 34.71     0.001 A 
ATOM     26  CD2 PHE E   4      11.215  -4.755 -10.271  1.00 35.45     0.007 A 
ENDBRANCH  20  21
ENDBRANCH  16  20
ENDBRANCH  14  16
ENDBRANCH  10  12
ENDBRANCH   8  10
ENDBRANCH   5   6
BRANCH   5  27
ATOM     27  CB  ASP E   2       5.929  -8.364 -12.533  1.00 43.54     0.147 C 
BRANCH  27  28
ATOM     28  CG  ASP E   2       5.185  -9.533 -11.900  1.00 45.99     0.175 C 
ATOM     29  OD2 ASP E   2       5.145 -10.619 -12.521  1.00 46.35    -0.648 OA
ATOM     30  OD1 ASP E   2       4.650  -9.374 -10.780  1.00 46.97    -0.648 OA
ENDBRANCH  27  28
ENDBRANCH   5  27
ENDBRANCH   3   5
BRANCH   1  31
ATOM     31  CA  LEU E   1       1.484  -6.827 -13.520  1.00 39.47     0.177 C 
BRANCH  31  32
ATOM     32  CB  LEU E   1       1.458  -5.870 -14.725  1.00 38.97     0.038 C 
BRANCH  32  33
ATOM     33  CG  LEU E   1       0.362  -6.111 -15.777  1.00 40.05    -0.020 C 
ATOM     34  CD2 LEU E   1       0.439  -7.521 -16.357  1.00 40.58     0.009 C 
ATOM     35  CD1 LEU E   1       0.422  -5.074 -16.889  1.00 39.33     0.009 C 
ENDBRANCH  32  33
ENDBRANCH  31  32
BRANCH  31  36
ATOM     36  N   LEU E   1       0.259  -6.701 -12.730  1.00 38.97    -0.346 N 
ATOM     37  C   GLN E   0      -0.305  -7.750 -12.135  1.00 38.27     0.241 C 
ATOM     38  O   GLN E   0       0.144  -8.899 -12.213  1.00 40.12    -0.271 OA
ATOM     39  H   LEU E   1      -0.054  -5.901 -12.688  1.00 38.97     0.163 HD
BRANCH  37  40
ATOM     40  CA  GLN E   0      -1.558  -7.456 -11.311  1.00 36.47     0.177 C 
BRANCH  40  41
ATOM     41  N   GLN E   0      -2.735  -8.272 -11.747  1.00 35.61    -0.348 N 
HETATM   42  C   ACE E  -1      -3.210  -8.293 -12.997  1.00 35.56     0.214 C 
HETATM   43  O   ACE E  -1      -2.747  -7.639 -13.921  1.00 35.09    -0.274 OA
HETATM   44  CH3 ACE E  -1      -4.503  -9.051 -13.191  1.00 35.40     0.117 C 
ATOM     45  H   GLN E   0      -3.083  -8.733 -11.110  1.00 35.61     0.163 HD
ENDBRANCH  40  41
BRANCH  40  46
ATOM     46  CB  GLN E   0      -1.259  -7.685  -9.823  1.00 35.42     0.044 C 
BRANCH  46  47
ATOM     47  CG  GLN E   0      -0.029  -6.933  -9.317  1.00 33.87     0.105 C 
BRANCH  47  48
ATOM     48  CD  GLN E   0      -0.184  -5.428  -9.435  1.00 33.67     0.215 C 
ATOM     49  OE1 GLN E   0      -1.149  -4.855  -8.932  1.00 31.67    -0.274 OA
ATOM     50  NE2 GLN E   0       0.763  -4.782 -10.112  1.00 33.23    -0.370 N 
ATOM     51 2HE2 GLN E   0       0.714  -3.929 -10.212  1.00 33.23     0.159 HD
ATOM     52 1HE2 GLN E   0       1.423  -5.218 -10.450  1.00 33.23     0.159 HD
ENDBRANCH  47  48
ENDBRANCH  46  47
ENDBRANCH  40  46
ENDBRANCH  37  40
ENDBRANCH  31  36
ENDBRANCH   1  31
TORSDOF 19
