REMARK  19 active torsions:
REMARK  status: ('A' for Active; 'I' for Inactive)
REMARK       I    between atoms: C_1  and  N_4 
REMARK    1  A    between atoms: N_4  and  CA_5 
REMARK    2  A    between atoms: CA_5  and  C_6 
REMARK    3  A    between atoms: CA_5  and  CB_8 
REMARK       I    between atoms: C_6  and  N_16 
REMARK    4  A    between atoms: CB_8  and  CG_9 
REMARK    5  A    between atoms: CG_9  and  CD_10 
REMARK       I    between atoms: CD_10  and  NE2_12 
REMARK    6  A    between atoms: N_16  and  CA_17 
REMARK    7  A    between atoms: CA_17  and  CB_20 
REMARK    8  A    between atoms: CA_17  and  C_18 
REMARK       I    between atoms: C_18  and  N_25 
REMARK    9  A    between atoms: CB_20  and  CG_21 
REMARK   10  A    between atoms: N_25  and  CA_26 
REMARK   11  A    between atoms: CA_26  and  CB_29 
REMARK   12  A    between atoms: CA_26  and  C_27 
REMARK       I    between atoms: C_27  and  N_34 
REMARK   13  A    between atoms: CB_29  and  CG_30 
REMARK   14  A    between atoms: N_34  and  CA_35 
REMARK   15  A    between atoms: CA_35  and  C_36 
REMARK   16  A    between atoms: CA_35  and  CB_38 
REMARK       I    between atoms: C_36  and  N_43 
REMARK   17  A    between atoms: CB_38  and  CG_39 
REMARK   18  A    between atoms: N_43  and  CA_44 
REMARK   19  A    between atoms: CA_44  and  C_45 
ROOT
ATOM      1  C   LEU E   1       2.705  -6.553 -13.099  1.00 28.67     0.241 C 
ATOM      2  O   LEU E   1       2.723  -5.791 -12.127  1.00 26.53    -0.271 OA
ATOM      3  N   ASP E   2       3.739  -7.312 -13.450  1.00 29.47    -0.346 N 
ATOM      4  H   ASP E   2       3.709  -7.913 -14.064  1.00 29.47     0.163 HD
ENDROOT
BRANCH   3   5
ATOM      5  CA  ASP E   2       5.031  -7.176 -12.802  1.00 30.54     0.186 C 
BRANCH   5   6
ATOM      6  CB  ASP E   2       5.973  -8.323 -13.182  1.00 32.40     0.147 C 
BRANCH   6   7
ATOM      7  CG  ASP E   2       5.549  -9.646 -12.584  1.00 34.09     0.175 C 
ATOM      8  OD2 ASP E   2       5.845 -10.692 -13.194  1.00 37.71    -0.648 OA
ATOM      9  OD1 ASP E   2       4.927  -9.645 -11.499  1.00 36.77    -0.648 OA
ENDBRANCH   6   7
ENDBRANCH   5   6
BRANCH   5  10
ATOM     10  C   ASP E   2       5.620  -5.857 -13.238  1.00 30.01     0.241 C 
ATOM     11  O   ASP E   2       5.482  -5.458 -14.395  1.00 27.94    -0.271 OA
ATOM     12  N   LEU E   3       6.269  -5.183 -12.298  1.00 30.14    -0.346 N 
ATOM     13  H   LEU E   3       6.352  -5.457 -11.487  1.00 30.14     0.163 HD
BRANCH  12  14
ATOM     14  CA  LEU E   3       6.906  -3.905 -12.559  1.00 30.90     0.177 C 
BRANCH  14  15
ATOM     15  C   LEU E   3       8.079  -4.099 -13.520  1.00 32.33     0.241 C 
ATOM     16  O   LEU E   3       9.000  -4.878 -13.247  1.00 31.45    -0.271 OA
ATOM     17  N   ALA E   4       8.017  -3.409 -14.655  1.00 33.58    -0.345 N 
ATOM     18  H   ALA E   4       7.383  -2.860 -14.846  1.00 33.58     0.163 HD
BRANCH  17  19
ATOM     19  CA  ALA E   4       9.039  -3.528 -15.693  1.00 35.71     0.181 C 
ATOM     20  CB  ALA E   4       8.916  -4.866 -16.404  1.00 36.03     0.043 C 
BRANCH  19  21
ATOM     21  C   ALA E   4       8.918  -2.389 -16.695  1.00 37.05     0.196 C 
ATOM     22  OXT ALA E   4       9.885  -2.043 -17.370  1.00 36.72    -0.646 OA
ATOM     23  O   ALA E   4       7.852  -1.791 -16.855  1.00 37.61    -0.646 OA
ENDBRANCH  19  21
ENDBRANCH  17  19
ENDBRANCH  14  15
BRANCH  14  24
ATOM     24  CB  LEU E   3       7.377  -3.293 -11.239  1.00 30.03     0.038 C 
BRANCH  24  25
ATOM     25  CG  LEU E   3       7.937  -1.874 -11.224  1.00 29.85    -0.020 C 
ATOM     26  CD1 LEU E   3       7.023  -0.892 -11.935  1.00 29.46     0.009 C 
ATOM     27  CD2 LEU E   3       8.166  -1.464  -9.779  1.00 29.65     0.009 C 
ENDBRANCH  24  25
ENDBRANCH  14  24
ENDBRANCH  12  14
ENDBRANCH   5  10
ENDBRANCH   3   5
BRANCH   1  28
ATOM     28  CA  LEU E   1       1.464  -6.683 -13.964  1.00 29.46     0.177 C 
BRANCH  28  29
ATOM     29  CB  LEU E   1       1.531  -5.715 -15.146  1.00 29.35     0.038 C 
BRANCH  29  30
ATOM     30  CG  LEU E   1       0.402  -5.874 -16.175  1.00 30.22    -0.020 C 
ATOM     31  CD2 LEU E   1       0.516  -7.199 -16.916  1.00 31.32     0.009 C 
ATOM     32  CD1 LEU E   1       0.383  -4.710 -17.149  1.00 30.06     0.009 C 
ENDBRANCH  29  30
ENDBRANCH  28  29
BRANCH  28  33
ATOM     33  N   LEU E   1       0.279  -6.445 -13.145  1.00 28.73    -0.346 N 
ATOM     34  C   GLN E   0      -0.324  -7.447 -12.515  1.00 28.95     0.241 C 
ATOM     35  O   GLN E   0      -0.007  -8.623 -12.674  1.00 30.73    -0.271 OA
ATOM     36  H   LEU E   1       0.021  -5.625 -13.113  1.00 28.73     0.163 HD
BRANCH  34  37
ATOM     37  CA  GLN E   0      -1.458  -7.087 -11.569  1.00 28.12     0.177 C 
BRANCH  37  38
ATOM     38  CB  GLN E   0      -1.018  -7.366 -10.126  1.00 27.70     0.044 C 
BRANCH  38  39
ATOM     39  CG  GLN E   0       0.228  -6.608  -9.673  1.00 26.51     0.105 C 
BRANCH  39  40
ATOM     40  CD  GLN E   0       0.040  -5.103  -9.717  1.00 26.51     0.215 C 
ATOM     41  OE1 GLN E   0      -0.872  -4.566  -9.078  1.00 26.66    -0.274 OA
ATOM     42  NE2 GLN E   0       0.898  -4.411 -10.465  1.00 24.64    -0.370 N 
ATOM     43 2HE2 GLN E   0       0.830  -3.555 -10.517  1.00 24.64     0.159 HD
ATOM     44 1HE2 GLN E   0       1.520  -4.820 -10.896  1.00 24.64     0.159 HD
ENDBRANCH  39  40
ENDBRANCH  38  39
ENDBRANCH  37  38
BRANCH  37  45
ATOM     45  N   GLN E   0      -2.683  -7.893 -11.912  1.00 28.94    -0.348 N 
HETATM   46  C   ACE E  -1      -3.373  -7.730 -13.067  1.00 29.25     0.214 C 
HETATM   47  O   ACE E  -1      -2.716  -7.399 -14.058  1.00 28.69    -0.274 OA
HETATM   48  CH3 ACE E  -1      -4.361  -8.864 -13.288  1.00 29.73     0.117 C 
ATOM     49  H   GLN E   0      -2.903  -8.464 -11.308  1.00 28.94     0.163 HD
ENDBRANCH  37  45
ENDBRANCH  34  37
ENDBRANCH  28  33
ENDBRANCH   1  28
TORSDOF 19
