USER: ADFR SOLUTION from run 0
USER: SCORE 21.294140 LL:  -4.676 LR: -18.492 RR:   0.000 FEB:  -8.947
USER: RMSD 0.697193
USER: STATUS Locally minimized using BFGS
USER: GENES 34
USER: genes 0 Translation |==|  0.55432 0.49046 0.51583
USER: genes 1 Rotation |==|  0.48870 0.49664 0.50733 0.99981
USER: genes 2 Torsion [C]-N--CA-[C] |==|  0.61464
USER: genes 3 Torsion [N]-CA--C-[N] |==|  0.35270
USER: genes 4 Torsion [C]-N--CA-[C] |==|  0.62613
USER: genes 5 Torsion [N]-CA--C-[N] |==|  0.34174
USER: genes 6 Torsion [C]-N--CA-[CB] |==|  0.45131
USER: genes 7 Torsion [N]-CA--CB-[CG] |==|  0.54389
USER: genes 8 Torsion [CA]-CB--CG-[CD] |==|  0.45136
USER: genes 9 Torsion [CB]-CG--CD-[NE] |==|  0.50665
USER: genes 10 Torsion [CG]-CD--NE-[CZ] |==|  0.45320
USER: genes 11 Torsion [N]-CA--C-[N] |==|  0.37546
USER: genes 12 Torsion [C]-N--CA-[C] |==|  0.66486
USER: genes 13 Torsion [N]-CA--C-[O] |==|  0.95476
USER: genes 14 Torsion [N]-CA--CB-[CG] |==|  0.86418
USER: genes 15 Torsion [CA]-CB--CG-[CD2] |==|  0.80061
USER: genes 16 Torsion [N]-CA--CB-[CG2] |==|  0.47862
USER: genes 17 Torsion [CA]-CB--OG1-[HG1] |==|  0.29307
USER: genes 18 Torsion [N]-CA--CB-[CG] |==|  0.51010
USER: genes 19 Torsion [CA]-CB--CG-[OD2] |==|  0.76663
USER: genes 20 Torsion [N]-C--CA-[N] |==|  0.43553
USER: genes 21 Torsion [C]-CA--CB-[CG] |==|  0.52436
USER: genes 22 Torsion [CA]-CB--CG-[CD] |==|  0.40475
USER: genes 23 Torsion [CB]-CG--CD-[OE1] |==|  0.20245
USER: genes 24 Torsion [C]-CA--N-[C] |==|  0.82778
USER: genes 25 Torsion [N]-C--CA-[N] |==|  0.39970
USER: genes 26 Torsion [C]-CA--CB-[CG] |==|  0.49578
USER: genes 27 Torsion [CA]-CB--CG-[CD1] |==|  0.98515
USER: genes 28 Torsion [C]-CA--N-[C] |==|  0.70835
USER: genes 29 Torsion [N]-C--CA-[N] |==|  0.01180
USER: genes 30 Torsion [C]-CA--CB-[CG] |==|  0.71958
USER: genes 31 Torsion [CA]-CB--CG-[CD] |==|  0.44044
USER: genes 32 Torsion [CB]-CG--CD-[NE] |==|  0.75940
USER: genes 33 Torsion [CG]-CD--NE-[HE] |==|  0.02676
ROOT
ATOM      1  C   GLN B   6      23.407  20.194  33.815  1.00 31.06 LIG 0.24  C 
ATOM      2 O    GLN B   6      22.814  21.205  33.663  1.00 27.89 LIG-0.27  OA
ATOM      3  N   ASP B   7      22.925  19.023  33.487  1.00 28.12 LIG-0.35  N 
ATOM      4 H    ASP B   7      23.348  18.282  33.596  1.00 28.12 LIG 0.16  HD
ENDROOT
BRANCH 3 5
ATOM      5  CA  ASP B   7      21.602  18.880  32.898  1.00 30.55 LIG 0.19  C 
BRANCH 5 6
ATOM      6  C   ASP B   7      20.904  17.672  33.511  1.00 32.99 LIG 0.24  C 
ATOM      7 O    ASP B   7      21.452  16.571  33.518  1.00 33.42 LIG-0.27  OA
ATOM      8  N   THR B   8      19.693  17.874  34.026  1.00 18.35 LIG-0.34  N 
ATOM      9 H    THR B   8      19.251  18.608  33.948  1.00 18.35 LIG 0.16  HD
BRANCH 8 10
ATOM     10  CA  THR B   8      19.009  16.827  34.783  1.00 17.94 LIG 0.20  C 
BRANCH 10 11
ATOM     11  C   THR B   8      17.549  16.663  34.384  1.00 21.68 LIG 0.24  C 
ATOM     12  N   ARG B   9      17.181  15.453  33.976  1.00 16.45 LIG-0.35  N 
ATOM     13 H    ARG B   9      17.730  14.802  33.858  1.00 16.45 LIG 0.16  HD
ATOM     14 O    THR B   8      16.777  17.615  34.440  1.00 15.82 LIG-0.27  OA
BRANCH 12 15
ATOM     15  CA  ARG B   9      15.793  15.121  33.688  1.00 15.69 LIG 0.18  C 
BRANCH 15 16
ATOM     16  CB  ARG B   9      15.721  13.847  32.847  1.00 22.22 LIG 0.04  C 
BRANCH 16 17
ATOM     17  CG  ARG B   9      14.383  13.623  32.183  1.00 27.38 LIG 0.02  C 
BRANCH 17 18
ATOM     18  CD  ARG B   9      14.526  12.613  31.058  1.00 35.32 LIG 0.14  C 
BRANCH 18 19
ATOM     19  NE  ARG B   9      13.275  12.397  30.341  1.00 37.77 LIG-0.23  N 
ATOM     20  CZ  ARG B   9      13.200  11.826  29.141  1.00 46.08 LIG 0.67  C 
ATOM     21  NH2 ARG B   9      12.024  11.660  28.554  1.00 49.48 LIG-0.23  N 
ATOM     22  NH1 ARG B   9      14.305  11.428  28.527  1.00 43.14 LIG-0.23  N 
ATOM     23 2HH2 ARG B   9      11.979  11.292  27.778  1.00 49.48 LIG 0.17  HD
ATOM     24 1HH2 ARG B   9      11.306  11.921  28.948  1.00 49.48 LIG 0.17  HD
ATOM     25 2HH1 ARG B   9      14.257  11.059  27.751  1.00 43.14 LIG 0.17  HD
ATOM     26 1HH1 ARG B   9      15.070  11.537  28.903  1.00 43.14 LIG 0.17  HD
ATOM     27 HE   ARG B   9      12.543  12.652  30.715  1.00 37.77 LIG 0.18  HD
ENDBRANCH 18 19
ENDBRANCH 17 18
ENDBRANCH 16 17
ENDBRANCH 15 16
BRANCH 15 28
ATOM     28  C   ARG B   9      14.966  14.961  34.966  1.00 19.99 LIG 0.24  C 
ATOM     29  N   LEU B  10      13.772  15.549  34.964  1.00 16.17 LIG-0.34  N 
ATOM     30 H    LEU B  10      13.450  15.963  34.283  1.00 16.17 LIG 0.16  HD
ATOM     31 O    ARG B   9      15.399  14.314  35.936  1.00 21.50 LIG-0.27  OA
BRANCH 29 32
ATOM     32  CA  LEU B  10      12.888  15.548  36.123  1.00 18.39 LIG 0.18  C 
BRANCH 32 33
ATOM     33  C   LEU B  10      11.555  14.890  35.801  1.00 17.68 LIG 0.20  C 
ATOM     34 O    LEU B  10      11.208  14.711  34.626  1.00 17.59 LIG-0.65  OA
ATOM     35 OXT  LEU B  10      10.790  14.562  36.707  1.00 18.80 LIG-0.65  OA
ENDBRANCH 32 33
BRANCH 32 36
ATOM     36  CB  LEU B  10      12.624  16.984  36.593  1.00 18.94 LIG 0.04  C 
BRANCH 36 37
ATOM     37  CG  LEU B  10      13.836  17.898  36.771  1.00 21.44 LIG-0.02  C 
ATOM     38  CD2 LEU B  10      14.643  17.488  37.993  1.00 24.01 LIG 0.01  C 
ATOM     39  CD1 LEU B  10      13.400  19.355  36.875  1.00 19.43 LIG 0.01  C 
ENDBRANCH 36 37
ENDBRANCH 32 36
ENDBRANCH 29 32
ENDBRANCH 15 28
ENDBRANCH 12 15
ENDBRANCH 10 11
BRANCH 10 40
ATOM     40  CB  THR B   8      19.086  17.106  36.288  1.00 18.75 LIG 0.15  C 
ATOM     41  CG2 THR B   8      18.216  16.125  37.072  1.00 17.36 LIG 0.04  C 
BRANCH 40 42
ATOM     42 OG1  THR B   8      20.450  17.005  36.713  1.00 21.53 LIG-0.39  OA
ATOM     43 HG1  THR B   8      20.758  17.774  36.852  1.00 21.53 LIG 0.21  HD
ENDBRANCH 40 42
ENDBRANCH 10 40
ENDBRANCH 8 10
ENDBRANCH 5 6
BRANCH 5 44
ATOM     44  CB  ASP B   7      21.719  18.719  31.386  1.00 37.24 LIG 0.15  C 
BRANCH 44 45
ATOM     45  CG  ASP B   7      20.374  18.654  30.704  1.00 42.69 LIG 0.17  C 
ATOM     46 OD2  ASP B   7      19.787  17.553  30.653  1.00 42.74 LIG-0.65  OA
ATOM     47 OD1  ASP B   7      19.908  19.706  30.220  1.00 42.89 LIG-0.65  OA
ENDBRANCH 44 45
ENDBRANCH 5 44
ENDBRANCH 3 5
BRANCH 1 48
ATOM     48  CA  GLN B   6      24.767  20.197  34.512  1.00 35.47 LIG 0.18  C 
BRANCH 48 49
ATOM     49  CB  GLN B   6      24.576  19.935  36.009  1.00 41.05 LIG 0.04  C 
BRANCH 49 50
ATOM     50  CG  GLN B   6      25.852  20.135  36.784  1.00 49.54 LIG 0.10  C 
BRANCH 50 51
ATOM     51  CD  GLN B   6      25.679  20.689  38.171  1.00 53.43 LIG 0.21  C 
ATOM     52 OE1  GLN B   6      25.226  20.011  39.089  1.00 55.51 LIG-0.27  OA
ATOM     53  NE2 GLN B   6      26.071  21.912  38.331  1.00 53.53 LIG-0.37  N 
ATOM     54 21HE GLN B   6      26.383  22.355  37.663  1.00 53.53 LIG 0.16  HD
ATOM     55 22HE GLN B   6      26.020  22.281  39.106  1.00 53.53 LIG 0.16  HD
ENDBRANCH 50 51
ENDBRANCH 49 50
ENDBRANCH 48 49
BRANCH 48 56
ATOM     56  N   GLN B   6      25.414  21.470  34.332  1.00 36.83 LIG-0.35  N 
ATOM     57 H    GLN B   6      25.565  21.900  35.060  1.00 36.83 LIG 0.16  HD
ATOM     58  C   TRP B   5      25.734  21.908  33.134  1.00 39.64 LIG 0.24  C 
ATOM     59 O    TRP B   5      25.612  21.209  32.126  1.00 35.62 LIG-0.27  OA
BRANCH 58 60
ATOM     60  CA  TRP B   5      26.228  23.350  33.032  1.00 41.33 LIG 0.18  C 
BRANCH 60 61
ATOM     61  CB  TRP B   5      25.029  24.246  32.723  1.00 37.29 LIG 0.07  C 
BRANCH 61 62
ATOM     62  CG  TRP B   5      25.344  25.699  32.627  1.00 36.98 LIG-0.03  A 
ATOM     63  CD2 TRP B   5      24.440  26.742  32.250  1.00 30.66 LIG-0.00  A 
ATOM     64  CE3 TRP B   5      23.094  26.768  31.875  1.00 30.80 LIG 0.01  A 
ATOM     65  CE2 TRP B   5      25.159  27.953  32.294  1.00 30.13 LIG 0.04  A 
ATOM     66  CZ3 TRP B   5      22.517  27.985  31.558  1.00 32.32 LIG 0.00  A 
ATOM     67  CH2 TRP B   5      23.256  29.173  31.617  1.00 34.93 LIG 0.00  A 
ATOM     68  CZ2 TRP B   5      24.576  29.176  31.982  1.00 27.67 LIG 0.03  A 
ATOM     69  NE1 TRP B   5      26.439  27.659  32.687  1.00 35.78 LIG-0.36  N 
ATOM     70 HE1  TRP B   5      27.073  28.229  32.794  1.00 35.78 LIG 0.17  HD
ATOM     71  CD1 TRP B   5      26.542  26.302  32.882  1.00 40.20 LIG 0.10  A 
ENDBRANCH 61 62
ENDBRANCH 60 61
BRANCH 60 72
ATOM     72  N   TRP B   5      27.279  23.547  32.031  1.00 47.38 LIG-0.34  N 
ATOM     73 H    TRP B   5      27.002  23.541  31.217  1.00 47.38 LIG 0.16  HD
ATOM     74  C   ARG B   4      28.552  23.718  32.384  1.00 50.84 LIG 0.26  C 
ATOM     75 O    ARG B   4      28.942  23.603  33.546  1.00 48.34 LIG-0.27  OA
BRANCH 74 76
ATOM     76  CA  ARG B   4      29.543  24.053  31.266  1.00 49.37 LIG 0.40  C 
ATOM     77  N   ARG B   4      28.893  24.229  29.973  1.00 52.51 LIG 0.61  N 
BRANCH 76 78
ATOM     78  CB  ARG B   4      30.349  25.305  31.637  1.00 51.85 LIG 0.05  C 
BRANCH 78 79
ATOM     79  CG  ARG B   4      29.872  26.588  30.962  1.00 50.44 LIG 0.02  C 
BRANCH 79 80
ATOM     80  CD  ARG B   4      30.320  27.838  31.721  1.00 48.76 LIG 0.14  C 
BRANCH 80 81
ATOM     81  NE  ARG B   4      29.383  28.205  32.781  1.00 51.98 LIG-0.23  N 
ATOM     82 HE   ARG B   4      28.758  27.646  32.972  1.00 51.98 LIG 0.18  HD
ATOM     83  CZ  ARG B   4      29.427  29.342  33.472  1.00 51.78 LIG 0.67  C 
ATOM     84  NH1 ARG B   4      30.369  30.246  33.227  1.00 46.01 LIG-0.23  N 
ATOM     85  NH2 ARG B   4      28.521  29.578  34.413  1.00 56.06 LIG-0.23  N 
ATOM     86 2HH1 ARG B   4      30.391  30.977  33.678  1.00 46.01 LIG 0.17  HD
ATOM     87 1HH1 ARG B   4      30.958  30.099  32.617  1.00 46.01 LIG 0.17  HD
ATOM     88 1HH2 ARG B   4      27.908  28.998  34.574  1.00 56.06 LIG 0.17  HD
ATOM     89 2HH2 ARG B   4      28.547  30.311  34.861  1.00 56.06 LIG 0.17  HD
ENDBRANCH 80 81
ENDBRANCH 79 80
ENDBRANCH 78 79
ENDBRANCH 76 78
ENDBRANCH 74 76
ENDBRANCH 60 72
ENDBRANCH 58 60
ENDBRANCH 48 56
ENDBRANCH 1 48
TORSDOF 32
