USER: ADFR SOLUTION from run 0
USER: SCORE 12.765593 LL:  -3.850 LR:  -9.899 RR:   0.000 FEB:  -2.739
USER: RMSD 1.397893
USER: STATUS Locally minimized using BFGS
USER: GENES 26
USER: genes 0 Translation |==|  0.38463 0.68230 0.49228
USER: genes 1 Rotation |==|  0.50717 0.50003 0.48088 0.99958
USER: genes 2 Torsion [C]-N--CA-[C] |==|  0.79098
USER: genes 3 Torsion [N]-CA--C-[N] |==|  0.48776
USER: genes 4 Torsion [C]-N--CA-[C] |==|  0.81667
USER: genes 5 Torsion [N]-CA--C-[N] |==|  0.97650
USER: genes 6 Torsion [C]-N--CA-[CB] |==|  0.46321
USER: genes 7 Torsion [N]-CA--C-[O] |==|  0.35356
USER: genes 8 Torsion [N]-CA--CB-[CG] |==|  0.51852
USER: genes 9 Torsion [CA]-CB--CG-[CD2] |==|  0.69344
USER: genes 10 Torsion [CE2]-CZ--OH-[HH] |==|  0.99974
USER: genes 11 Torsion [N]-CA--CB-[OG] |==|  0.17592
USER: genes 12 Torsion [CA]-CB--OG-[HG] |==|  0.68486
USER: genes 13 Torsion [N]-CA--CB-[CG2] |==|  0.83135
USER: genes 14 Torsion [CA]-CB--OG1-[HG1] |==|  0.86408
USER: genes 15 Torsion [N]-C--CA-[N] |==|  0.50349
USER: genes 16 Torsion [C]-CA--N-[C] |==|  0.50953
USER: genes 17 Torsion [N]-C--CA-[CB] |==|  0.74799
USER: genes 18 Torsion [N]-C--CA-[N] |==|  0.39982
USER: genes 19 Torsion [C]-CA--N-[C] |==|  0.67031
USER: genes 20 Torsion [N]-C--CA-[N] |==|  0.88842
USER: genes 21 Torsion [C]-CA--CB-[CG2] |==|  0.51843
USER: genes 22 Torsion [C]-CA--CB-[OG] |==|  0.46984
USER: genes 23 Torsion [CA]-CB--OG-[HG] |==|  0.49989
USER: genes 24 Torsion [C]-CA--CB-[OG] |==|  0.87365
USER: genes 25 Torsion [CA]-CB--OG-[HG] |==|  0.22679
ROOT
ATOM      1  C   SER B 156      35.764 -12.131  -9.991  1.00 15.87 LIG 0.24  C 
ATOM      2 O    SER B 156      34.910 -11.926 -10.854  1.00 15.60 LIG-0.27  OA
ATOM      3  N   THR B 157      37.011 -11.677 -10.077  1.00 16.26 LIG-0.34  N 
ATOM      4 H    THR B 157      37.606 -11.778  -9.465  1.00 16.26 LIG 0.16  HD
ENDROOT
BRANCH 3 5
ATOM      5  CA  THR B 157      37.466 -10.952 -11.251  1.00 15.91 LIG 0.20  C 
BRANCH 5 6
ATOM      6  C   THR B 157      37.647 -12.042 -12.304  1.00 16.14 LIG 0.24  C 
ATOM      7 O    THR B 157      37.486 -13.229 -12.005  1.00 15.69 LIG-0.27  OA
ATOM      8  N   SER B 158      37.979 -11.649 -13.528  1.00 15.14 LIG-0.34  N 
ATOM      9 H    SER B 158      38.097 -10.829 -13.758  1.00 15.14 LIG 0.16  HD
BRANCH 8 10
ATOM     10  CA  SER B 158      38.171 -12.618 -14.602  1.00 18.36 LIG 0.20  C 
BRANCH 10 11
ATOM     11  C   SER B 158      39.380 -13.507 -14.326  1.00 20.96 LIG 0.24  C 
ATOM     12 O    SER B 158      39.617 -14.486 -15.037  1.00 20.92 LIG-0.27  OA
ATOM     13  N   TYR B 159      40.141 -13.160 -13.293  1.00 23.40 LIG-0.35  N 
ATOM     14 H    TYR B 159      39.986 -12.481 -12.789  1.00 23.40 LIG 0.16  HD
BRANCH 13 15
ATOM     15  CA  TYR B 159      41.329 -13.926 -12.927  1.00 28.83 LIG 0.17  C 
BRANCH 15 16
ATOM     16  C   TYR B 159      40.945 -15.267 -12.312  1.00 30.09 LIG 0.22  C 
ATOM     17 O    TYR B 159      41.466 -16.287 -12.813  1.00 33.46 LIG-0.29  OA
ENDBRANCH 15 16
BRANCH 15 18
ATOM     18  CB  TYR B 159      42.182 -13.135 -11.932  1.00 32.38 LIG 0.07  C 
BRANCH 18 19
ATOM     19  CG  TYR B 159      43.512 -13.786 -11.621  1.00 36.58 LIG-0.06  A 
ATOM     20  CD2 TYR B 159      43.763 -14.340 -10.366  1.00 38.67 LIG 0.01  A 
ATOM     21  CE2 TYR B 159      44.983 -14.951 -10.080  1.00 40.79 LIG 0.04  A 
ATOM     22  CZ  TYR B 159      45.965 -15.007 -11.056  1.00 41.05 LIG 0.07  A 
ATOM     23  CE1 TYR B 159      45.740 -14.463 -12.310  1.00 40.09 LIG 0.04  A 
ATOM     24  CD1 TYR B 159      44.516 -13.857 -12.586  1.00 38.09 LIG 0.01  A 
BRANCH 22 25
ATOM     25 OH   TYR B 159      47.172 -15.609 -10.779  1.00 43.66 LIG-0.36  OA
ATOM     26 HH   TYR B 159      47.170 -15.891  -9.988  1.00 43.66 LIG 0.22  HD
ENDBRANCH 22 25
ENDBRANCH 18 19
ENDBRANCH 15 18
ENDBRANCH 13 15
ENDBRANCH 10 11
BRANCH 10 27
ATOM     27  CB  SER B 158      38.362 -11.895 -15.936  1.00 15.79 LIG 0.20  C 
BRANCH 27 28
ATOM     28 OG   SER B 158      39.536 -11.104 -15.920  1.00 17.90 LIG-0.40  OA
ATOM     29 HG   SER B 158      39.327 -10.291 -15.962  1.00 17.90 LIG 0.21  HD
ENDBRANCH 27 28
ENDBRANCH 10 27
ENDBRANCH 8 10
ENDBRANCH 5 6
BRANCH 5 30
ATOM     30  CB  THR B 157      38.826 -10.260 -11.017  1.00 18.18 LIG 0.15  C 
ATOM     31  CG2 THR B 157      38.727  -9.250  -9.886  1.00 16.96 LIG 0.04  C 
BRANCH 30 32
ATOM     32 OG1  THR B 157      39.817 -11.247 -10.699  1.00 15.90 LIG-0.39  OA
ATOM     33 HG1  THR B 157      39.522 -11.757 -10.099  1.00 15.90 LIG 0.21  HD
ENDBRANCH 30 32
ENDBRANCH 5 30
ENDBRANCH 3 5
BRANCH 1 34
ATOM     34  CA  SER B 156      35.429 -12.931  -8.745  1.00 16.58 LIG 0.20  C 
BRANCH 34 35
ATOM     35  N   SER B 156      34.042 -13.367  -8.841  1.00 15.80 LIG-0.34  N 
ATOM     36 H    SER B 156      33.657 -13.154  -9.580  1.00 15.80 LIG 0.16  HD
ATOM     37  C   PRO B 155      33.438 -14.035  -7.863  1.00 18.36 LIG 0.24  C 
ATOM     38 O    PRO B 155      33.992 -14.326  -6.802  1.00 18.57 LIG-0.27  OA
BRANCH 37 39
ATOM     39  CA  PRO B 155      31.986 -14.421  -8.113  1.00 19.30 LIG 0.18  C 
ATOM     40  CB  PRO B 155      31.016 -13.355  -7.621  1.00 17.99 LIG 0.04  C 
ATOM     41  CG  PRO B 155      30.865 -13.716  -6.174  1.00 20.29 LIG 0.02  C 
ATOM     42  CD  PRO B 155      30.711 -15.230  -6.221  1.00 20.15 LIG 0.13  C 
ATOM     43  N   PRO B 155      31.587 -15.606  -7.347  1.00 20.34 LIG-0.34  N 
ATOM     44  C   SER B 154      31.932 -16.852  -7.714  1.00 23.17 LIG 0.24  C 
ATOM     45 O    SER B 154      32.607 -17.076  -8.718  1.00 21.43 LIG-0.27  OA
BRANCH 44 46
ATOM     46  CA  SER B 154      31.452 -17.998  -6.828  1.00 26.04 LIG 0.20  C 
BRANCH 46 47
ATOM     47  N   SER B 154      31.109 -19.180  -7.613  1.00 29.08 LIG-0.34  N 
ATOM     48 H    SER B 154      31.765 -19.510  -8.061  1.00 29.08 LIG 0.16  HD
ATOM     49  C   VAL B 153      29.879 -19.684  -7.617  1.00 31.74 LIG 0.26  C 
ATOM     50 O    VAL B 153      28.953 -19.195  -6.974  1.00 31.76 LIG-0.27  OA
BRANCH 49 51
ATOM     51  CA  VAL B 153      29.659 -20.923  -8.480  1.00 34.29 LIG 0.40  C 
ATOM     52  N   VAL B 153      30.396 -20.798  -9.767  1.00 34.52 LIG 0.61  N 
BRANCH 51 53
ATOM     53  CB  VAL B 153      30.126 -22.167  -7.685  1.00 36.17 LIG 0.03  C 
ATOM     54  CG2 VAL B 153      30.076 -23.399  -8.568  1.00 38.03 LIG 0.01  C 
ATOM     55  CG1 VAL B 153      29.253 -22.359  -6.455  1.00 38.39 LIG 0.01  C 
ENDBRANCH 51 53
ENDBRANCH 49 51
ENDBRANCH 46 47
BRANCH 46 56
ATOM     56  CB  SER B 154      32.539 -18.336  -5.804  1.00 27.48 LIG 0.20  C 
BRANCH 56 57
ATOM     57 OG   SER B 154      32.045 -19.218  -4.810  1.00 30.72 LIG-0.40  OA
ATOM     58 HG   SER B 154      32.656 -19.390  -4.260  1.00 30.72 LIG 0.21  HD
ENDBRANCH 56 57
ENDBRANCH 46 56
ENDBRANCH 44 46
ENDBRANCH 37 39
ENDBRANCH 34 35
BRANCH 34 59
ATOM     59  CB  SER B 156      36.364 -14.140  -8.688  1.00 16.81 LIG 0.20  C 
BRANCH 59 60
ATOM     60 OG   SER B 156      36.444 -14.768  -9.959  1.00 16.65 LIG-0.40  OA
ATOM     61 HG   SER B 156      36.993 -14.355 -10.442  1.00 16.65 LIG 0.21  HD
ENDBRANCH 59 60
ENDBRANCH 34 59
ENDBRANCH 1 34
TORSDOF 24
