USER: ADFR SOLUTION from run 0
USER: SCORE 12.768083 LL:  -0.575 LR: -13.980 RR:   0.000 FEB: -10.103
USER: RMSD 0.271355
USER: STATUS Locally minimized using BFGS
USER: GENES 15
USER: genes 0 Translation |==|  0.54927 0.44531 0.59360
USER: genes 1 Rotation |==|  0.51323 0.50275 0.50924 0.99973
USER: genes 2 Torsion [CB]-CA--N-[C] |==|  0.31506
USER: genes 3 Torsion [N]-C--CA-[N] |==|  0.57242
USER: genes 4 Torsion [C]-CA--N-[C] |==|  0.26667
USER: genes 5 Torsion [N]-C--CA-[N] |==|  0.14095
USER: genes 6 Torsion [C]-CA--CB-[OG] |==|  0.80759
USER: genes 7 Torsion [CA]-CB--OG-[HG] |==|  0.92489
USER: genes 8 Torsion [N]-CA--CB-[CG] |==|  0.81322
USER: genes 9 Torsion [CA]-CB--CG-[CD] |==|  0.50384
USER: genes 10 Torsion [CB]-CG--CD-[NE] |==|  0.16915
USER: genes 11 Torsion [CG]-CD--NE-[CZ] |==|  0.50623
USER: genes 12 Torsion [N]-CA--C-[N] |==|  0.37464
USER: genes 13 Torsion [C]-N--CA-[C] |==|  0.38666
USER: genes 14 Torsion [N]-CA--C-[O] |==|  0.00820
ROOT
ATOM      1  CA  ARG E   4       6.805   4.622  24.104  1.00 23.90 LIG 0.18  C 
ENDROOT
BRANCH 1 2
ATOM      2  N   ARG E   4       7.176   3.951  22.873  1.00 30.77 LIG-0.35  N 
ATOM      3 H    ARG E   4       7.295   3.102  22.937  1.00 30.77 LIG 0.16  HD
ATOM      4  C   GLY E   3       7.307   4.654  21.758  1.00 25.66 LIG 0.24  C 
ATOM      5 O    GLY E   3       7.664   5.831  21.757  1.00 29.19 LIG-0.27  OA
BRANCH 4 6
ATOM      6  CA  GLY E   3       7.078   3.918  20.462  1.00 22.47 LIG 0.23  C 
BRANCH 6 7
ATOM      7  N   GLY E   3       7.834   4.603  19.432  1.00 33.62 LIG-0.35  N 
ATOM      8  C   SER E   2       9.042   4.163  19.105  1.00 31.79 LIG 0.26  C 
ATOM      9 O    SER E   2       9.486   3.088  19.540  1.00 29.25 LIG-0.27  OA
ATOM     10 H    GLY E   3       7.443   5.281  19.077  1.00 33.62 LIG 0.16  HD
BRANCH 8 11
ATOM     11  CA  SER E   2       9.849   5.040  18.128  1.00 26.25 LIG 0.42  C 
ATOM     12  N   SER E   2       9.895   6.431  18.560  1.00 36.21 LIG 0.62  N 
BRANCH 11 13
ATOM     13  CB  SER E   2      11.274   4.496  17.921  1.00 32.03 LIG 0.21  C 
BRANCH 13 14
ATOM     14 OG   SER E   2      12.081   4.640  19.088  1.00 34.92 LIG-0.40  OA
ATOM     15 HG   SER E   2      11.804   5.290  19.542  1.00 34.92 LIG 0.21  HD
ENDBRANCH 13 14
ENDBRANCH 11 13
ENDBRANCH 8 11
ENDBRANCH 6 7
ENDBRANCH 4 6
ENDBRANCH 1 2
BRANCH 1 16
ATOM     16  CB  ARG E   4       5.415   4.117  24.480  1.00 27.29 LIG 0.04  C 
BRANCH 16 17
ATOM     17  CG  ARG E   4       4.351   4.569  23.497  1.00 23.54 LIG 0.02  C 
BRANCH 17 18
ATOM     18  CD  ARG E   4       2.960   4.093  23.892  1.00 24.92 LIG 0.14  C 
BRANCH 18 19
ATOM     19  NE  ARG E   4       2.520   4.601  25.198  1.00 26.33 LIG-0.23  N 
ATOM     20  CZ  ARG E   4       1.352   4.273  25.757  1.00 30.25 LIG 0.67  C 
ATOM     21  NH2 ARG E   4       1.003   4.759  26.950  1.00 27.06 LIG-0.23  N 
ATOM     22  NH1 ARG E   4       0.525   3.451  25.110  1.00 23.50 LIG-0.23  N 
ATOM     23 2HH2 ARG E   4       0.248   4.541  27.299  1.00 27.06 LIG 0.17  HD
ATOM     24 1HH2 ARG E   4       1.534   5.291  27.370  1.00 27.06 LIG 0.17  HD
ATOM     25 2HH1 ARG E   4      -0.230   3.235  25.462  1.00 23.50 LIG 0.17  HD
ATOM     26 1HH1 ARG E   4       0.745   3.137  24.340  1.00 23.50 LIG 0.17  HD
ATOM     27 HE   ARG E   4       3.041   5.136  25.624  1.00 26.33 LIG 0.18  HD
ENDBRANCH 18 19
ENDBRANCH 17 18
ENDBRANCH 16 17
ENDBRANCH 1 16
BRANCH 1 28
ATOM     28  C   ARG E   4       7.774   4.545  25.299  1.00 22.79 LIG 0.24  C 
ATOM     29 O    ARG E   4       8.290   3.485  25.654  1.00 23.55 LIG-0.27  OA
ATOM     30  N   GLY E   5       7.988   5.689  25.935  1.00 27.73 LIG-0.35  N 
ATOM     31 H    GLY E   5       7.572   6.420  25.757  1.00 27.73 LIG 0.16  HD
BRANCH 30 32
ATOM     32  CA  GLY E   5       8.963   5.804  27.005  1.00 23.99 LIG 0.21  C 
BRANCH 32 33
ATOM     33  C   GLY E   5       9.669   7.124  26.807  1.00 34.17 LIG 0.21  C 
ATOM     34 O    GLY E   5       9.307   7.868  25.889  1.00 39.09 LIG-0.29  OA
ENDBRANCH 32 33
ENDBRANCH 30 32
ENDBRANCH 1 28
TORSDOF 13
