USER: ADFR SOLUTION from run 0
USER: SCORE 21.152371 LL:  -5.574 LR: -21.388 RR:   0.000 FEB: -14.826
USER: RMSD 0.435900
USER: STATUS Locally minimized using BFGS
USER: GENES 24
USER: genes 0 Translation |==|  0.56531 0.68062 0.52382
USER: genes 1 Rotation |==|  0.49683 0.51069 0.50341 0.99986
USER: genes 2 Torsion [CB]-CA--N-[C] |==|  0.41383
USER: genes 3 Torsion [N]-C--CA-[N] |==|  0.20352
USER: genes 4 Torsion [C]-CA--N-[C] |==|  0.69184
USER: genes 5 Torsion [N]-C--CA-[N] |==|  0.89067
USER: genes 6 Torsion [C]-CA--N-[C] |==|  0.80423
USER: genes 7 Torsion [C]-CA--CB-[CG1] |==|  0.14602
USER: genes 8 Torsion [C]-CA--CB-[CG] |==|  0.50636
USER: genes 9 Torsion [CA]-CB--CG-[CD2] |==|  0.32249
USER: genes 10 Torsion [N]-CA--C-[N] |==|  0.99520
USER: genes 11 Torsion [C]-N--CA-[CB] |==|  0.33877
USER: genes 12 Torsion [N]-CA--C-[N] |==|  0.53009
USER: genes 13 Torsion [C]-N--CA-[CB] |==|  0.83127
USER: genes 14 Torsion [N]-CA--C-[N] |==|  0.62222
USER: genes 15 Torsion [C]-N--CA-[C] |==|  0.78462
USER: genes 16 Torsion [N]-CA--C-[N] |==|  0.99874
USER: genes 17 Torsion [N]-CA--CB-[CG] |==|  0.13419
USER: genes 18 Torsion [CA]-CB--CG-[OD1] |==|  0.85710
USER: genes 19 Torsion [N]-CA--CB-[CG] |==|  0.88110
USER: genes 20 Torsion [CA]-CB--CG-[CD] |==|  0.45910
USER: genes 21 Torsion [CB]-CG--CD-[OE2] |==|  0.36406
USER: genes 22 Torsion [N]-CA--CB-[CG] |==|  0.11424
USER: genes 23 Torsion [CA]-CB--CG-[CD1] |==|  0.20596
ROOT
ATOM      1  CA  PHE B  20     -25.003   3.315   4.682  1.00 13.23 LIG 0.18  C 
ENDROOT
BRANCH 1 2
ATOM      2  N   PHE B  20     -25.977   2.348   5.209  1.00 12.51 LIG-0.35  N 
ATOM      3  C   PHE B  19     -26.467   1.363   4.463  1.00 15.18 LIG 0.24  C 
ATOM      4 O    PHE B  19     -25.978   1.062   3.340  1.00 16.84 LIG-0.27  OA
ATOM      5 H    PHE B  20     -26.194   2.479   6.031  1.00 12.51 LIG 0.16  HD
BRANCH 3 6
ATOM      6  CA  PHE B  19     -27.681   0.651   5.060  1.00 13.80 LIG 0.18  C 
BRANCH 6 7
ATOM      7  N   PHE B  19     -28.839   1.559   4.941  1.00 15.46 LIG-0.35  N 
ATOM      8 H    PHE B  19     -29.121   1.694   4.139  1.00 15.46 LIG 0.16  HD
ATOM      9  C   VAL B  18     -29.374   2.110   6.057  1.00 17.87 LIG 0.24  C 
ATOM     10 O    VAL B  18     -28.806   2.032   7.216  1.00 14.98 LIG-0.27  OA
BRANCH 9 11
ATOM     11  CA  VAL B  18     -30.693   2.835   5.932  1.00 19.74 LIG 0.18  C 
BRANCH 11 12
ATOM     12  N   VAL B  18     -30.682   3.582   4.685  1.00 21.15 LIG-0.35  N 
ATOM     13 H    VAL B  18     -31.214   3.250   4.098  1.00 21.15 LIG 0.16  HD
ATOM     14  C   ACE B  17     -29.895   4.738   4.418  1.00 26.64 LIG 0.21  C 
ATOM     15  CH3 ACE B  17     -29.960   5.443   3.056  1.00 30.92 LIG 0.12  C 
ATOM     16 O    ACE B  17     -29.074   5.006   5.287  1.00 27.10 LIG-0.27  OA
ENDBRANCH 11 12
BRANCH 11 17
ATOM     17  CB  VAL B  18     -31.889   1.877   5.927  1.00 20.98 LIG 0.01  C 
ATOM     18  CG1 VAL B  18     -31.813   0.953   7.136  1.00 20.40 LIG 0.01  C 
ATOM     19  CG2 VAL B  18     -33.159   2.698   6.064  1.00 23.95 LIG 0.01  C 
ENDBRANCH 11 17
ENDBRANCH 9 11
ENDBRANCH 6 7
BRANCH 6 20
ATOM     20  CB  PHE B  19     -27.990  -0.703   4.384  1.00 13.70 LIG 0.07  C 
BRANCH 20 21
ATOM     21  CG  PHE B  19     -29.210  -1.344   4.952  1.00 13.96 LIG-0.06  A 
ATOM     22  CD2 PHE B  19     -30.357  -1.560   4.160  1.00 16.27 LIG 0.01  A 
ATOM     23  CE2 PHE B  19     -31.513  -2.142   4.717  1.00 18.04 LIG 0.00  A 
ATOM     24  CZ  PHE B  19     -31.512  -2.506   6.071  1.00 16.65 LIG 0.00  A 
ATOM     25  CE1 PHE B  19     -30.396  -2.237   6.864  1.00 14.87 LIG 0.00  A 
ATOM     26  CD1 PHE B  19     -29.238  -1.673   6.305  1.00 13.97 LIG 0.01  A 
ENDBRANCH 20 21
ENDBRANCH 6 20
ENDBRANCH 3 6
ENDBRANCH 1 2
BRANCH 1 27
ATOM     27  C   PHE B  20     -23.535   2.905   4.852  1.00 13.67 LIG 0.24  C 
ATOM     28  N   ALA B  21     -23.302   1.759   5.476  1.00 11.86 LIG-0.35  N 
ATOM     29 H    ALA B  21     -23.902   1.226   5.784  1.00 11.86 LIG 0.16  HD
ATOM     30 O    PHE B  20     -22.680   3.679   4.404  1.00 17.11 LIG-0.27  OA
BRANCH 28 31
ATOM     31  CA  ALA B  21     -21.892   1.334   5.677  1.00 10.94 LIG 0.17  C 
ATOM     32  CB  ALA B  21     -21.648   1.150   7.205  1.00 11.33 LIG 0.04  C 
BRANCH 31 33
ATOM     33  C   ALA B  21     -21.704  -0.025   4.956  1.00  9.64 LIG 0.24  C 
ATOM     34  N   GLU B  22     -20.553  -0.687   5.211  1.00 10.05 LIG-0.35  N 
ATOM     35 H    GLU B  22     -19.908  -0.383   5.693  1.00 10.05 LIG 0.16  HD
ATOM     36 O    ALA B  21     -22.546  -0.448   4.140  1.00 10.80 LIG-0.27  OA
BRANCH 34 37
ATOM     37  CA  GLU B  22     -20.336  -2.018   4.656  1.00 10.43 LIG 0.18  C 
BRANCH 37 38
ATOM     38  C   GLU B  22     -20.221  -2.043   3.146  1.00 11.07 LIG 0.24  C 
ATOM     39  N   ASP B  23     -20.897  -3.029   2.516  1.00 12.14 LIG-0.34  N 
ATOM     40 H    ASP B  23     -21.357  -3.628   2.928  1.00 12.14 LIG 0.16  HD
ATOM     41 O    GLU B  22     -19.436  -1.229   2.603  1.00 12.27 LIG-0.27  OA
BRANCH 39 42
ATOM     42  CA  ASP B  23     -20.907  -3.165   1.083  1.00 13.57 LIG 0.19  C 
BRANCH 42 43
ATOM     43  C   ASP B  23     -21.853  -2.161   0.370  1.00 15.91 LIG 0.28  C 
ATOM     44  N   NH2 B  24     -22.550  -1.306   1.123  1.00 17.15 LIG-0.11  N 
ATOM     45 O    ASP B  23     -21.867  -2.070  -0.844  1.00 19.42 LIG-0.27  OA
ENDBRANCH 42 43
BRANCH 42 46
ATOM     46  CB  ASP B  23     -21.367  -4.602   0.733  1.00 14.94 LIG 0.15  C 
BRANCH 46 47
ATOM     47  CG  ASP B  23     -22.638  -5.015   1.498  1.00 15.16 LIG 0.17  C 
ATOM     48 OD1  ASP B  23     -22.671  -4.880   2.728  1.00 16.89 LIG-0.65  OA
ATOM     49 OD2  ASP B  23     -23.473  -5.644   0.842  1.00 15.99 LIG-0.65  OA
ENDBRANCH 46 47
ENDBRANCH 42 46
ENDBRANCH 39 42
ENDBRANCH 37 38
BRANCH 37 50
ATOM     50  CB  GLU B  22     -21.449  -3.037   5.181  1.00 10.35 LIG 0.04  C 
BRANCH 50 51
ATOM     51  CG  GLU B  22     -21.748  -2.881   6.679  1.00 11.07 LIG 0.12  C 
BRANCH 51 52
ATOM     52  CD  GLU B  22     -23.041  -3.603   7.034  1.00 10.74 LIG 0.17  C 
ATOM     53 OE2  GLU B  22     -23.049  -4.380   8.025  1.00 11.81 LIG-0.65  OA
ATOM     54 OE1  GLU B  22     -24.027  -3.379   6.334  1.00 10.65 LIG-0.65  OA
ENDBRANCH 51 52
ENDBRANCH 50 51
ENDBRANCH 37 50
ENDBRANCH 34 37
ENDBRANCH 31 33
ENDBRANCH 28 31
ENDBRANCH 1 27
BRANCH 1 55
ATOM     55  CB  PHE B  20     -25.165   4.665   5.348  1.00 13.46 LIG 0.07  C 
BRANCH 55 56
ATOM     56  CG  PHE B  20     -25.416   4.570   6.828  1.00 12.78 LIG-0.06  A 
ATOM     57  CD2 PHE B  20     -26.686   4.774   7.340  1.00 14.51 LIG 0.01  A 
ATOM     58  CE2 PHE B  20     -26.979   4.588   8.718  1.00 14.84 LIG 0.00  A 
ATOM     59  CZ  PHE B  20     -25.913   4.269   9.593  1.00 14.03 LIG 0.00  A 
ATOM     60  CE1 PHE B  20     -24.653   4.090   9.071  1.00 13.64 LIG 0.00  A 
ATOM     61  CD1 PHE B  20     -24.358   4.234   7.683  1.00 13.32 LIG 0.01  A 
ENDBRANCH 55 56
ENDBRANCH 1 55
TORSDOF 22
