USER: ADFR SOLUTION from run 0
USER: SCORE 13.883690 LL:  -3.784 LR: -13.427 RR:   0.000 FEB:  -7.163
USER: RMSD 0.549425
USER: STATUS Locally minimized using BFGS
USER: GENES 23
USER: genes 0 Translation |==|  0.42918 0.52007 0.54614
USER: genes 1 Rotation |==|  0.49946 0.50365 0.50823 0.99992
USER: genes 2 Torsion [N]-C--CA-[N] |==|  0.42726
USER: genes 3 Torsion [C]-CA--CB-[CG2] |==|  0.49012
USER: genes 4 Torsion [CA]-CB--OG1-[HG1] |==|  0.47534
USER: genes 5 Torsion [C]-CA--N-[C] |==|  0.65701
USER: genes 6 Torsion [N]-C--CA-[N] |==|  0.39924
USER: genes 7 Torsion [N]-C--CA-[N] |==|  0.24242
USER: genes 8 Torsion [C]-CA--CB-[CG] |==|  0.23184
USER: genes 9 Torsion [CA]-CB--CG-[CD1] |==|  0.14732
USER: genes 10 Torsion [CE2]-CZ--OH-[HH] |==|  0.52757
USER: genes 11 Torsion [C]-N--CA-[CB] |==|  0.32010
USER: genes 12 Torsion [N]-CA--C-[N] |==|  0.36698
USER: genes 13 Torsion [C]-N--CA-[CB] |==|  0.42610
USER: genes 14 Torsion [N]-CA--CB-[CG2] |==|  0.49431
USER: genes 15 Torsion [CA]-CB--CG1-[CD1] |==|  0.43995
USER: genes 16 Torsion [N]-CA--C-[N] |==|  0.35584
USER: genes 17 Torsion [C]-N--CA-[C] |==|  0.63402
USER: genes 18 Torsion [N]-CA--C-[O] |==|  0.94660
USER: genes 19 Torsion [N]-CA--CB-[CG2] |==|  0.83542
USER: genes 20 Torsion [CA]-CB--CG1-[CD1] |==|  0.46437
USER: genes 21 Torsion [N]-CA--CB-[OG] |==|  0.81114
USER: genes 22 Torsion [CA]-CB--OG-[HG] |==|  0.23020
ROOT
ATOM      1  C   THR C   7      13.426  48.724  63.960  1.00 18.08 LIG 0.24  C 
ATOM      2 O    THR C   7      12.224  48.948  64.148  1.00 21.38 LIG-0.27  OA
ATOM      3  N   SER C   8      14.109  49.234  62.945  1.00 10.50 LIG-0.34  N 
ATOM      4 H    SER C   8      14.945  49.086  62.807  1.00 10.50 LIG 0.16  HD
ENDROOT
BRANCH 1 5
ATOM      5  CA  THR C   7      14.217  47.835  64.903  1.00 13.33 LIG 0.20  C 
BRANCH 5 6
ATOM      6  CB  THR C   7      14.362  46.420  64.314  1.00 16.97 LIG 0.15  C 
ATOM      7  CG2 THR C   7      15.230  45.555  65.218  1.00 19.32 LIG 0.04  C 
BRANCH 6 8
ATOM      8 OG1  THR C   7      13.063  45.825  64.158  1.00 21.79 LIG-0.39  OA
ATOM      9 HG1  THR C   7      13.134  45.107  63.727  1.00 21.79 LIG 0.21  HD
ENDBRANCH 6 8
ENDBRANCH 5 6
BRANCH 5 10
ATOM     10  N   THR C   7      13.622  47.837  66.223  1.00 19.25 LIG-0.34  N 
ATOM     11 H    THR C   7      12.796  47.599  66.245  1.00 19.25 LIG 0.16  HD
ATOM     12  C   PRO C   6      14.329  48.185  67.289  1.00 35.57 LIG 0.24  C 
ATOM     13 O    PRO C   6      15.556  48.330  67.266  1.00 20.23 LIG-0.27  OA
BRANCH 12 14
ATOM     14  CA  PRO C   6      13.537  48.388  68.572  1.00 23.31 LIG 0.18  C 
ATOM     15  N   PRO C   6      14.278  47.936  69.751  1.00 34.44 LIG-0.34  N 
ATOM     16  CD  PRO C   6      14.652  49.057  70.629  1.00 34.96 LIG 0.13  C 
ATOM     17  C   TYR C   5      14.591  46.648  69.925  1.00 33.78 LIG 0.26  C 
ATOM     18  CG  PRO C   6      14.473  50.250  69.739  1.00 38.31 LIG 0.02  C 
ATOM     19  CB  PRO C   6      13.356  49.888  68.830  1.00 34.95 LIG 0.04  C 
ATOM     20 O    TYR C   5      14.276  45.769  69.122  1.00 45.70 LIG-0.27  OA
BRANCH 17 21
ATOM     21  CA  TYR C   5      15.373  46.302  71.186  1.00 58.74 LIG 0.40  C 
ATOM     22  N   TYR C   5      14.484  46.051  72.313  1.00 59.06 LIG 0.61  N 
BRANCH 21 23
ATOM     23  CB  TYR C   5      16.257  45.087  70.925  1.00 34.94 LIG 0.09  C 
BRANCH 23 24
ATOM     24  CG  TYR C   5      17.572  45.426  70.269  1.00 34.23 LIG-0.06  A 
ATOM     25  CD2 TYR C   5      17.988  44.776  69.114  1.00 27.31 LIG 0.01  A 
ATOM     26  CE2 TYR C   5      19.192  45.084  68.518  1.00 26.06 LIG 0.04  A 
ATOM     27  CZ  TYR C   5      20.003  46.048  69.088  1.00 36.51 LIG 0.07  A 
ATOM     28  CE1 TYR C   5      19.612  46.700  70.234  1.00 26.29 LIG 0.04  A 
ATOM     29  CD1 TYR C   5      18.408  46.387  70.818  1.00 43.81 LIG 0.01  A 
BRANCH 27 30
ATOM     30 OH   TYR C   5      21.209  46.367  68.516  1.00 29.24 LIG-0.36  OA
ATOM     31 HH   TYR C   5      21.645  46.861  69.038  1.00 29.24 LIG 0.22  HD
ENDBRANCH 27 30
ENDBRANCH 23 24
ENDBRANCH 21 23
ENDBRANCH 17 21
ENDBRANCH 12 14
ENDBRANCH 5 10
ENDBRANCH 1 5
BRANCH 3 32
ATOM     32  CA  SER C   8      13.485  50.102  61.962  1.00 11.88 LIG 0.20  C 
BRANCH 32 33
ATOM     33  C   SER C   8      13.652  49.537  60.557  1.00 17.35 LIG 0.24  C 
ATOM     34  N   ILE C   9      12.551  49.502  59.809  1.00 10.16 LIG-0.35  N 
ATOM     35 H    ILE C   9      11.779  49.761  60.087  1.00 10.16 LIG 0.16  HD
ATOM     36 O    SER C   8      14.747  49.141  60.169  1.00 14.22 LIG-0.27  OA
BRANCH 34 37
ATOM     37  CA  ILE C   9      12.552  49.014  58.435  1.00 13.20 LIG 0.18  C 
BRANCH 37 38
ATOM     38  CB  ILE C   9      11.153  48.465  58.049  1.00  8.93 LIG 0.01  C 
ATOM     39  CG2 ILE C   9      11.143  48.000  56.588  1.00 11.66 LIG 0.01  C 
BRANCH 38 40
ATOM     40  CG1 ILE C   9      10.738  47.345  59.017  1.00 12.22 LIG 0.00  C 
ATOM     41  CD1 ILE C   9       9.211  47.107  59.061  1.00 19.01 LIG 0.01  C 
ENDBRANCH 38 40
ENDBRANCH 37 38
BRANCH 37 42
ATOM     42  C   ILE C   9      12.938  50.137  57.476  1.00 14.83 LIG 0.24  C 
ATOM     43 O    ILE C   9      12.360  51.220  57.531  1.00 18.18 LIG-0.27  OA
ATOM     44  N   ILE C  10      13.922  49.889  56.614  1.00 11.92 LIG-0.34  N 
ATOM     45 H    ILE C  10      14.348  49.143  56.567  1.00 11.92 LIG 0.16  HD
BRANCH 44 46
ATOM     46  CA  ILE C  10      14.361  50.904  55.657  1.00 12.50 LIG 0.19  C 
BRANCH 46 47
ATOM     47  C   ILE C  10      14.475  50.355  54.238  1.00 15.06 LIG 0.20  C 
ATOM     48 O    ILE C  10      14.562  49.144  53.999  1.00 13.42 LIG-0.65  OA
ATOM     49 OXT  ILE C  10      14.479  51.134  53.290  1.00 18.96 LIG-0.65  OA
ENDBRANCH 46 47
BRANCH 46 50
ATOM     50  CB  ILE C  10      15.715  51.527  56.056  1.00 14.56 LIG 0.01  C 
ATOM     51  CG2 ILE C  10      15.617  52.177  57.431  1.00 21.35 LIG 0.01  C 
BRANCH 50 52
ATOM     52  CG1 ILE C  10      16.807  50.458  56.022  1.00 14.22 LIG 0.00  C 
ATOM     53  CD1 ILE C  10      18.203  51.024  56.097  1.00 24.35 LIG 0.01  C 
ENDBRANCH 50 52
ENDBRANCH 46 50
ENDBRANCH 44 46
ENDBRANCH 37 42
ENDBRANCH 34 37
ENDBRANCH 32 33
BRANCH 32 54
ATOM     54  CB  SER C   8      14.085  51.508  62.020  1.00 17.33 LIG 0.20  C 
BRANCH 54 55
ATOM     55 OG   SER C   8      13.735  52.150  63.232  1.00 18.52 LIG-0.40  OA
ATOM     56 HG   SER C   8      14.262  51.908  63.839  1.00 18.52 LIG 0.21  HD
ENDBRANCH 54 55
ENDBRANCH 32 54
ENDBRANCH 3 32
TORSDOF 21
