REMARK  21 active torsions:
REMARK  status: ('A' for Active; 'I' for Inactive)
REMARK    1  A    between atoms: CA_2  and  C_3 
REMARK    2  A    between atoms: CA_2  and  CB_5 
REMARK       I    between atoms: C_3  and  N_14 
REMARK    3  A    between atoms: CB_5  and  CG_6 
REMARK    4  A    between atoms: CZ_11  and  OH_12 
REMARK    5  A    between atoms: CA_15  and  C_16 
REMARK       I    between atoms: C_16  and  N_21 
REMARK    6  A    between atoms: N_21  and  CA_22 
REMARK    7  A    between atoms: CA_22  and  CB_25 
REMARK    8  A    between atoms: CA_22  and  C_23 
REMARK       I    between atoms: C_23  and  N_30 
REMARK    9  A    between atoms: CB_25  and  OG1_26 
REMARK   10  A    between atoms: N_30  and  CA_31 
REMARK   11  A    between atoms: CA_31  and  C_32 
REMARK   12  A    between atoms: CA_31  and  CB_34 
REMARK       I    between atoms: C_32  and  N_38 
REMARK   13  A    between atoms: CB_34  and  OG_35 
REMARK   14  A    between atoms: N_38  and  CA_39 
REMARK   15  A    between atoms: CA_39  and  CB_42 
REMARK   16  A    between atoms: CA_39  and  C_40 
REMARK       I    between atoms: C_40  and  N_47 
REMARK   17  A    between atoms: CB_42  and  CG1_43 
REMARK   18  A    between atoms: N_47  and  CA_48 
REMARK   19  A    between atoms: CA_48  and  C_49 
REMARK   20  A    between atoms: CA_48  and  CB_51 
REMARK   21  A    between atoms: CB_51  and  CG1_52 
ROOT
ATOM      1  C   THR C   7      13.146  48.836  63.971  1.00 18.08     0.243 C 
ATOM      2  O   THR C   7      11.949  49.099  64.142  1.00 21.38    -0.271 OA
ATOM      3  N   SER C   8      13.860  49.325  62.967  1.00 10.50    -0.344 N 
ATOM      4  H   SER C   8      14.693  49.150  62.841  1.00 10.50     0.163 HD
ENDROOT
BRANCH   1   5
ATOM      5  CA  THR C   7      13.894  47.919  64.923  1.00 13.33     0.205 C 
BRANCH   5   6
ATOM      6  CB  THR C   7      14.051  46.517  64.308  1.00 16.97     0.146 C 
ATOM      7  CG2 THR C   7      14.854  45.617  65.238  1.00 19.32     0.042 C 
BRANCH   6   8
ATOM      8  OG1 THR C   7      12.754  45.946  64.066  1.00 21.79    -0.393 OA
ATOM      9  HG1 THR C   7      12.838  45.239  63.620  1.00 21.79     0.210 HD
ENDBRANCH   6   8
ENDBRANCH   5   6
BRANCH   5  10
ATOM     10  N   THR C   7      13.248  47.897  66.219  1.00 19.25    -0.344 N 
ATOM     11  H   THR C   7      12.419  47.670  66.204  1.00 19.25     0.163 HD
ATOM     12  C   PRO C   6      13.918  48.209  67.320  1.00 35.57     0.241 C 
ATOM     13  O   PRO C   6      15.147  48.337  67.348  1.00 20.23    -0.271 OA
BRANCH  12  14
ATOM     14  CA  PRO C   6      13.080  48.391  68.577  1.00 23.31     0.179 C 
ATOM     15  N   PRO C   6      13.717  47.794  69.752  1.00 34.44    -0.337 N 
ATOM     16  CD  PRO C   6      14.138  48.814  70.727  1.00 34.96     0.127 C 
ATOM     17  C   TYR C   5      13.911  46.475  69.845  1.00 33.78     0.260 C 
ATOM     18  CG  PRO C   6      14.107  50.077  69.920  1.00 38.31     0.022 C 
ATOM     19  CB  PRO C   6      13.012  49.879  68.936  1.00 34.95     0.037 C 
ATOM     20  O   TYR C   5      13.566  45.685  68.965  1.00 45.70    -0.271 OA
BRANCH  17  21
ATOM     21  CA  TYR C   5      14.594  45.975  71.111  1.00 58.74     0.404 C 
ATOM     22  N   TYR C   5      13.625  45.685  72.161  1.00 59.06     0.615 N 
BRANCH  21  23
ATOM     23  CB  TYR C   5      15.421  44.733  70.793  1.00 34.94     0.089 C 
BRANCH  23  24
ATOM     24  CG  TYR C   5      16.750  45.041  70.150  1.00 34.23    -0.055 A 
ATOM     25  CD2 TYR C   5      17.136  44.423  68.968  1.00 27.31     0.010 A 
ATOM     26  CE2 TYR C   5      18.353  44.701  68.384  1.00 26.06     0.037 A 
ATOM     27  CZ  TYR C   5      19.206  45.603  68.993  1.00 36.51     0.065 A 
ATOM     28  CE1 TYR C   5      18.845  46.222  70.166  1.00 26.29     0.037 A 
ATOM     29  CD1 TYR C   5      17.628  45.939  70.738  1.00 43.81     0.010 A 
BRANCH  27  30
ATOM     30  OH  TYR C   5      20.426  45.892  68.433  1.00 29.24    -0.361 OA
ATOM     31  HH  TYR C   5      20.883  46.343  68.975  1.00 29.24     0.217 HD
ENDBRANCH  27  30
ENDBRANCH  23  24
ENDBRANCH  21  23
ENDBRANCH  17  21
ENDBRANCH  12  14
ENDBRANCH   5  10
ENDBRANCH   1   5
BRANCH   3  32
ATOM     32  CA  SER C   8      13.280  50.215  61.977  1.00 11.88     0.200 C 
BRANCH  32  33
ATOM     33  C   SER C   8      13.373  49.609  60.583  1.00 17.35     0.243 C 
ATOM     34  N   ILE C   9      12.271  49.687  59.839  1.00 10.16    -0.346 N 
ATOM     35  H   ILE C   9      11.536  50.039  60.114  1.00 10.16     0.163 HD
ATOM     36  O   SER C   8      14.413  49.081  60.199  1.00 14.22    -0.271 OA
BRANCH  34  37
ATOM     37  CA  ILE C   9      12.209  49.177  58.475  1.00 13.20     0.180 C 
BRANCH  37  38
ATOM     38  CB  ILE C   9      10.779  48.671  58.145  1.00  8.93     0.013 C 
ATOM     39  CG2 ILE C   9      10.698  48.203  56.687  1.00 11.66     0.012 C 
BRANCH  38  40
ATOM     40  CG1 ILE C   9      10.368  47.566  59.132  1.00 12.22     0.002 C 
ATOM     41  CD1 ILE C   9       8.838  47.374  59.235  1.00 19.01     0.005 C 
ENDBRANCH  38  40
ENDBRANCH  37  38
BRANCH  37  42
ATOM     42  C   ILE C   9      12.600  50.270  57.484  1.00 14.83     0.241 C 
ATOM     43  O   ILE C   9      12.044  51.365  57.523  1.00 18.18    -0.271 OA
ATOM     44  N   ILE C  10      13.565  49.983  56.612  1.00 11.92    -0.344 N 
ATOM     45  H   ILE C  10      13.975  49.228  56.575  1.00 11.92     0.163 HD
BRANCH  44  46
ATOM     46  CA  ILE C  10      14.007  50.967  55.624  1.00 12.50     0.189 C 
BRANCH  46  47
ATOM     47  C   ILE C  10      14.178  50.361  54.235  1.00 15.06     0.197 C 
ATOM     48  O   ILE C  10      14.183  49.139  54.039  1.00 13.42    -0.646 OA
ATOM     49  OXT ILE C  10      14.315  51.102  53.267  1.00 18.96    -0.646 OA
ENDBRANCH  46  47
BRANCH  46  50
ATOM     50  CB  ILE C  10      15.332  51.642  56.036  1.00 14.56     0.014 C 
ATOM     51  CG2 ILE C  10      15.171  52.363  57.369  1.00 21.35     0.012 C 
BRANCH  50  52
ATOM     52  CG1 ILE C  10      16.447  50.599  56.098  1.00 14.22     0.002 C 
ATOM     53  CD1 ILE C  10      17.826  51.201  56.216  1.00 24.35     0.005 C 
ENDBRANCH  50  52
ENDBRANCH  46  50
ENDBRANCH  44  46
ENDBRANCH  37  42
ENDBRANCH  34  37
ENDBRANCH  32  33
BRANCH  32  54
ATOM     54  CB  SER C   8      13.982  51.574  61.990  1.00 17.33     0.199 C 
BRANCH  54  55
ATOM     55  OG  SER C   8      13.666  52.288  63.170  1.00 18.52    -0.398 OA
ATOM     56  HG  SER C   8      14.165  52.031  63.795  1.00 18.52     0.209 HD
ENDBRANCH  54  55
ENDBRANCH  32  54
ENDBRANCH   3  32
TORSDOF 21
