USER: ADFR SOLUTION from run 0
USER: SCORE 12.817234 LL:  -4.452 LR: -11.812 RR:   0.000 FEB:  -6.442
USER: RMSD 0.714426
USER: STATUS Locally minimized using BFGS
USER: GENES 20
USER: genes 0 Translation |==|  0.41289 0.51133 0.48326
USER: genes 1 Rotation |==|  0.52326 0.49746 0.49429 0.99942
USER: genes 2 Torsion [C]-CA--CB-[CG] |==|  0.46134
USER: genes 3 Torsion [CA]-CB--CG-[CD1] |==|  0.80136
USER: genes 4 Torsion [CE2]-CZ--OH-[HH] |==|  0.03510
USER: genes 5 Torsion [N]-CA--C-[N] |==|  0.98111
USER: genes 6 Torsion [C]-N--CA-[CB] |==|  0.33988
USER: genes 7 Torsion [N]-CA--CB-[CG] |==|  0.81628
USER: genes 8 Torsion [CA]-CB--CG-[CD1] |==|  0.74390
USER: genes 9 Torsion [N]-CA--C-[N] |==|  0.08660
USER: genes 10 Torsion [C]-N--CA-[C] |==|  0.74912
USER: genes 11 Torsion [N]-CA--C-[O] |==|  0.94756
USER: genes 12 Torsion [N]-CA--CB-[CG] |==|  0.85913
USER: genes 13 Torsion [CA]-CB--CG-[CD2] |==|  0.83097
USER: genes 14 Torsion [CB]-CA--N-[C] |==|  0.40244
USER: genes 15 Torsion [N]-C--CA-[N] |==|  0.08751
USER: genes 16 Torsion [C]-CA--N-[C] |==|  0.67228
USER: genes 17 Torsion [N]-C--CA-[N] |==|  0.97080
USER: genes 18 Torsion [C]-CA--CB-[CG] |==|  0.46901
USER: genes 19 Torsion [CA]-CB--CG-[OD1] |==|  0.93818
ROOT
ATOM      1  CA  TYR C 307      14.304   6.539  13.314  1.00 19.42 LIG 0.18  C 
ENDROOT
BRANCH 1 2
ATOM      2  CB  TYR C 307      13.575   5.975  12.091  1.00 20.09 LIG 0.07  C 
BRANCH 2 3
ATOM      3  CG  TYR C 307      14.320   6.176  10.796  1.00 17.22 LIG-0.06  A 
ATOM      4  CD2 TYR C 307      14.910   5.105  10.140  1.00 23.64 LIG 0.01  A 
ATOM      5  CE2 TYR C 307      15.594   5.282   8.953  1.00 23.84 LIG 0.04  A 
ATOM      6  CZ  TYR C 307      15.693   6.544   8.405  1.00 20.80 LIG 0.07  A 
ATOM      7  CE1 TYR C 307      15.113   7.625   9.034  1.00 18.70 LIG 0.04  A 
ATOM      8  CD1 TYR C 307      14.428   7.438  10.223  1.00 26.65 LIG 0.01  A 
BRANCH 6 9
ATOM      9 OH   TYR C 307      16.373   6.718   7.221  1.00 27.63 LIG-0.36  OA
ATOM     10 HH   TYR C 307      16.518   5.970   6.869  1.00 27.63 LIG 0.22  HD
ENDBRANCH 6 9
ENDBRANCH 2 3
ENDBRANCH 1 2
BRANCH 1 11
ATOM     11  C   TYR C 307      13.347   6.604  14.500  1.00 24.68 LIG 0.24  C 
ATOM     12 O    TYR C 307      12.343   7.314  14.452  1.00 26.67 LIG-0.27  OA
ATOM     13  N   PHE C 308      13.658   5.879  15.568  1.00 19.41 LIG-0.35  N 
ATOM     14 H    PHE C 308      14.397   5.450  15.667  1.00 19.41 LIG 0.16  HD
BRANCH 13 15
ATOM     15  CA  PHE C 308      12.725   5.764  16.683  1.00 14.41 LIG 0.18  C 
BRANCH 15 16
ATOM     16  CB  PHE C 308      12.393   4.294  16.934  1.00 18.98 LIG 0.07  C 
BRANCH 16 17
ATOM     17  CG  PHE C 308      11.633   3.659  15.814  1.00 22.36 LIG-0.06  A 
ATOM     18  CD1 PHE C 308      10.249   3.640  15.823  1.00 16.86 LIG 0.01  A 
ATOM     19  CE1 PHE C 308       9.545   3.073  14.786  1.00 17.00 LIG 0.00  A 
ATOM     20  CZ  PHE C 308      10.221   2.523  13.724  1.00 20.65 LIG 0.00  A 
ATOM     21  CE2 PHE C 308      11.600   2.532  13.703  1.00 20.83 LIG 0.00  A 
ATOM     22  CD2 PHE C 308      12.299   3.103  14.736  1.00 21.63 LIG 0.01  A 
ENDBRANCH 16 17
ENDBRANCH 15 16
BRANCH 15 23
ATOM     23  C   PHE C 308      13.218   6.432  17.961  1.00 40.94 LIG 0.24  C 
ATOM     24  N   LEU C 309      13.991   7.499  17.801  1.00 39.04 LIG-0.34  N 
ATOM     25 H    LEU C 309      14.231   7.805  17.033  1.00 39.04 LIG 0.16  HD
ATOM     26 O    PHE C 308      12.891   5.997  19.065  1.00 37.89 LIG-0.27  OA
BRANCH 24 27
ATOM     27  CA  LEU C 309      14.508   8.253  18.934  1.00 41.86 LIG 0.18  C 
BRANCH 27 28
ATOM     28  C   LEU C 309      13.551   9.375  19.327  1.00 52.06 LIG 0.20  C 
ATOM     29 O    LEU C 309      12.693   9.782  18.542  1.00 44.07 LIG-0.65  OA
ATOM     30 OXT  LEU C 309      13.613   9.899  20.441  1.00 57.31 LIG-0.65  OA
ENDBRANCH 27 28
BRANCH 27 31
ATOM     31  CB  LEU C 309      15.886   8.826  18.603  1.00 45.69 LIG 0.04  C 
BRANCH 31 32
ATOM     32  CG  LEU C 309      16.896   7.821  18.046  1.00 42.90 LIG-0.02  C 
ATOM     33  CD2 LEU C 309      17.158   6.713  19.054  1.00 51.11 LIG 0.01  C 
ATOM     34  CD1 LEU C 309      18.191   8.519  17.662  1.00 45.19 LIG 0.01  C 
ENDBRANCH 31 32
ENDBRANCH 27 31
ENDBRANCH 24 27
ENDBRANCH 15 23
ENDBRANCH 13 15
ENDBRANCH 1 11
BRANCH 1 35
ATOM     35  N   TYR C 307      15.533   5.793  13.587  1.00 25.78 LIG-0.35  N 
ATOM     36 H    TYR C 307      15.490   4.950  13.421  1.00 25.78 LIG 0.16  HD
ATOM     37  C   ASP C 306      16.609   6.418  14.057  1.00 34.41 LIG 0.24  C 
ATOM     38 O    ASP C 306      16.611   7.623  14.306  1.00 33.93 LIG-0.27  OA
BRANCH 37 39
ATOM     39  CA  ASP C 306      17.871   5.584  14.306  1.00 28.99 LIG 0.19  C 
BRANCH 39 40
ATOM     40  N   ASP C 306      18.064   4.442  13.412  1.00 47.80 LIG-0.34  N 
ATOM     41  C   PRO C 305      18.097   3.197  13.882  1.00 55.24 LIG 0.25  C 
ATOM     42 O    PRO C 305      17.857   2.911  15.056  1.00 37.29 LIG-0.27  OA
ATOM     43 H    ASP C 306      18.151   4.648  12.582  1.00 47.80 LIG 0.16  HD
BRANCH 41 44
ATOM     44  CA  PRO C 305      18.430   2.081  12.894  1.00 46.84 LIG 0.35  C 
ATOM     45  N   PRO C 305      18.428   2.539  11.499  1.00 55.65 LIG 0.32  N 
ATOM     46  CD  PRO C 305      19.770   2.480  10.897  1.00 37.59 LIG 0.32  C 
ATOM     47  CG  PRO C 305      20.670   2.359  12.090  1.00 48.04 LIG 0.04  C 
ATOM     48  CB  PRO C 305      19.874   1.608  13.103  1.00 49.04 LIG 0.05  C 
ENDBRANCH 41 44
ENDBRANCH 39 40
BRANCH 39 49
ATOM     49  CB  ASP C 306      19.096   6.504  14.265  1.00 37.50 LIG 0.15  C 
BRANCH 49 50
ATOM     50  CG  ASP C 306      20.356   5.821  14.764  1.00 60.25 LIG 0.17  C 
ATOM     51 OD1  ASP C 306      20.241   4.830  15.517  1.00 61.15 LIG-0.65  OA
ATOM     52 OD2  ASP C 306      21.461   6.281  14.407  1.00 58.41 LIG-0.65  OA
ENDBRANCH 49 50
ENDBRANCH 39 49
ENDBRANCH 37 39
ENDBRANCH 1 35
TORSDOF 18
