REMARK  19 active torsions:
REMARK  status: ('A' for Active; 'I' for Inactive)
REMARK    1  A    between atoms: CA_2  and  C_3 
REMARK       I    between atoms: C_3  and  N_8 
REMARK    2  A    between atoms: N_8  and  CA_9 
REMARK    3  A    between atoms: CA_9  and  C_10 
REMARK       I    between atoms: C_10  and  N_14 
REMARK    4  A    between atoms: CA_15  and  C_16 
REMARK       I    between atoms: C_16  and  N_21 
REMARK    5  A    between atoms: N_21  and  CA_22 
REMARK    6  A    between atoms: CA_22  and  CB_25 
REMARK    7  A    between atoms: CA_22  and  C_23 
REMARK       I    between atoms: C_23  and  N_31 
REMARK    8  A    between atoms: CB_25  and  CG_26 
REMARK    9  A    between atoms: CG_26  and  CD_27 
REMARK   10  A    between atoms: N_31  and  CA_32 
REMARK   11  A    between atoms: CA_32  and  CB_35 
REMARK   12  A    between atoms: CA_32  and  C_33 
REMARK       I    between atoms: C_33  and  N_40 
REMARK   13  A    between atoms: CB_35  and  CG_36 
REMARK   14  A    between atoms: N_40  and  CA_41 
REMARK   15  A    between atoms: CA_41  and  C_42 
REMARK   16  A    between atoms: CA_41  and  CB_44 
REMARK       I    between atoms: C_42  and  N_49 
REMARK   17  A    between atoms: CB_44  and  CG_45 
REMARK   18  A    between atoms: N_49  and  CA_50 
REMARK   19  A    between atoms: CA_50  and  C_51 
ROOT
ATOM      1  CA  GLU A 233       1.706  24.867 -49.547  1.00 24.61     0.177 C 
ENDROOT
BRANCH   1   2
ATOM      2  CB  GLU A 233       2.982  24.071 -49.278  1.00 26.56     0.045 C 
BRANCH   2   3
ATOM      3  CG  GLU A 233       2.709  22.797 -48.471  1.00 28.50     0.116 C 
BRANCH   3   4
ATOM      4  CD  GLU A 233       3.320  21.558 -49.051  1.00 31.23     0.172 C 
ATOM      5  OE1 GLU A 233       4.215  21.677 -49.886  1.00 40.78    -0.648 OA
ATOM      6  OE2 GLU A 233       2.943  20.454 -48.640  1.00 32.56    -0.648 OA
ENDBRANCH   3   4
ENDBRANCH   2   3
ENDBRANCH   1   2
BRANCH   1   7
ATOM      7  C   GLU A 233       0.951  25.185 -48.251  1.00 22.49     0.241 C 
ATOM      8  N   LEU A 234      -0.321  24.793 -48.222  1.00 21.03    -0.346 N 
ATOM      9  H   LEU A 234      -0.707  24.370 -48.863  1.00 21.03     0.163 HD
ATOM     10  O   GLU A 233       1.482  25.814 -47.327  1.00 21.03    -0.271 OA
BRANCH   8  11
ATOM     11  CA  LEU A 234      -1.183  25.059 -47.066  1.00 20.74     0.177 C 
BRANCH  11  12
ATOM     12  CB  LEU A 234      -2.344  25.942 -47.525  1.00 23.04     0.038 C 
BRANCH  12  13
ATOM     13  CG  LEU A 234      -1.818  27.279 -48.088  1.00 25.06    -0.020 C 
ATOM     14  CD1 LEU A 234      -2.694  27.799 -49.234  1.00 33.19     0.009 C 
ATOM     15  CD2 LEU A 234      -1.665  28.299 -46.947  1.00 27.29     0.009 C 
ENDBRANCH  12  13
ENDBRANCH  11  12
BRANCH  11  16
ATOM     16  C   LEU A 234      -1.674  23.756 -46.437  1.00 18.65     0.241 C 
ATOM     17  O   LEU A 234      -2.013  22.827 -47.158  1.00 20.08    -0.271 OA
ATOM     18  N   LEU A 235      -1.776  23.725 -45.103  1.00 16.33    -0.346 N 
ATOM     19  H   LEU A 235      -1.680  24.417 -44.601  1.00 16.33     0.163 HD
BRANCH  18  20
ATOM     20  CA  LEU A 235      -2.063  22.500 -44.379  1.00 16.00     0.177 C 
BRANCH  20  21
ATOM     21  C   LEU A 235      -3.354  22.572 -43.552  1.00 15.60     0.240 C 
ATOM     22  O   LEU A 235      -3.503  21.875 -42.579  1.00 16.00    -0.271 OA
ATOM     23  N   GLY A 236      -4.285  23.418 -43.948  1.00 15.05    -0.349 N 
ATOM     24  H   GLY A 236      -4.216  23.944 -44.625  1.00 15.05     0.163 HD
BRANCH  23  25
ATOM     25  CA  GLY A 236      -5.566  23.508 -43.204  1.00 15.88     0.235 C 
BRANCH  25  26
ATOM     26  C   GLY A 236      -6.677  22.780 -43.909  1.00 16.68     0.191 C 
ATOM     27  O   GLY A 236      -6.451  22.181 -44.965  1.00 18.78    -0.647 OA
ATOM     28  OXT GLY A 236      -7.820  22.780 -43.458  1.00 16.61    -0.647 OA
ENDBRANCH  25  26
ENDBRANCH  23  25
ENDBRANCH  20  21
BRANCH  20  29
ATOM     29  CB  LEU A 235      -0.865  22.117 -43.482  1.00 17.17     0.038 C 
BRANCH  29  30
ATOM     30  CG  LEU A 235       0.024  20.955 -43.941  1.00 20.01    -0.020 C 
ATOM     31  CD1 LEU A 235       0.685  21.283 -45.203  1.00 21.18     0.009 C 
ATOM     32  CD2 LEU A 235       1.082  20.646 -42.858  1.00 23.81     0.009 C 
ENDBRANCH  29  30
ENDBRANCH  20  29
ENDBRANCH  18  20
ENDBRANCH  11  16
ENDBRANCH   8  11
ENDBRANCH   1   7
BRANCH   1  33
ATOM     33  N   GLU A 233       1.998  26.136 -50.220  1.00 26.21    -0.346 N 
ATOM     34  H   GLU A 233       2.560  26.636 -49.803  1.00 26.21     0.163 HD
ATOM     35  C   PRO A 232       1.433  26.466 -51.374  1.00 29.12     0.241 C 
ATOM     36  O   PRO A 232       0.715  25.703 -52.037  1.00 29.57    -0.271 OA
BRANCH  35  37
ATOM     37  CA  PRO A 232       1.740  27.874 -51.886  1.00 32.50     0.179 C 
ATOM     38  CB  PRO A 232       0.560  28.804 -51.576  1.00 34.03     0.037 C 
ATOM     39  CG  PRO A 232       0.279  29.563 -52.818  1.00 39.71     0.022 C 
ATOM     40  CD  PRO A 232       1.113  29.052 -53.939  1.00 41.14     0.127 C 
ATOM     41  N   PRO A 232       1.878  27.942 -53.339  1.00 36.81    -0.337 N 
ATOM     42  C   ALA A 231       2.788  27.166 -53.951  1.00 38.01     0.243 C 
ATOM     43  O   ALA A 231       3.476  26.350 -53.342  1.00 37.25    -0.271 OA
BRANCH  42  44
ATOM     44  CA  ALA A 231       2.914  27.289 -55.457  1.00 42.70     0.172 C 
ATOM     45  CB  ALA A 231       2.129  26.172 -56.117  1.00 44.12     0.042 C 
BRANCH  44  46
ATOM     46  N   ALA A 231       4.319  27.259 -55.875  1.00 44.69    -0.346 N 
ATOM     47  H   ALA A 231       4.552  26.541 -56.288  1.00 44.69     0.163 HD
ATOM     48  C   PRO A 230       5.144  28.274 -55.623  1.00 46.57     0.254 C 
ATOM     49  O   PRO A 230       4.849  29.192 -54.866  1.00 46.08    -0.271 OA
BRANCH  48  50
ATOM     50  CA  PRO A 230       6.513  28.279 -56.348  1.00 51.04     0.352 C 
ATOM     51  N   PRO A 230       6.530  29.177 -57.504  1.00 55.48     0.318 N 
ATOM     52  CD  PRO A 230       7.070  30.501 -57.157  1.00 58.51     0.315 C 
ATOM     53  CG  PRO A 230       8.070  30.178 -56.093  1.00 57.35     0.035 C 
ATOM     54  CB  PRO A 230       7.647  28.838 -55.458  1.00 52.45     0.050 C 
ENDBRANCH  48  50
ENDBRANCH  44  46
ENDBRANCH  42  44
ENDBRANCH  35  37
ENDBRANCH   1  33
TORSDOF 19
