USER: ADFR SOLUTION from run 0
USER: SCORE 16.243153 LL:  -4.307 LR: -16.413 RR:   0.000 FEB: -10.746
USER: RMSD 0.702455
USER: STATUS Locally minimized using BFGS
USER: GENES 21
USER: genes 0 Translation |==|  0.57240 0.46229 0.53768
USER: genes 1 Rotation |==|  0.50166 0.49955 0.49749 0.99999
USER: genes 2 Torsion [C]-CA--CB-[CG] |==|  0.17745
USER: genes 3 Torsion [CA]-CB--CG-[CD] |==|  0.37594
USER: genes 4 Torsion [CB]-CG--CD-[OE1] |==|  0.01282
USER: genes 5 Torsion [N]-CA--C-[N] |==|  0.33000
USER: genes 6 Torsion [C]-N--CA-[CB] |==|  0.29765
USER: genes 7 Torsion [N]-CA--CB-[CG] |==|  0.79557
USER: genes 8 Torsion [CA]-CB--CG-[CD1] |==|  0.37786
USER: genes 9 Torsion [N]-CA--C-[N] |==|  0.43661
USER: genes 10 Torsion [C]-N--CA-[CB] |==|  0.28889
USER: genes 11 Torsion [N]-CA--C-[N] |==|  0.05551
USER: genes 12 Torsion [C]-N--CA-[C] |==|  0.75733
USER: genes 13 Torsion [N]-CA--C-[O] |==|  0.99783
USER: genes 14 Torsion [N]-CA--CB-[CG] |==|  0.72933
USER: genes 15 Torsion [CA]-CB--CG-[CD2] |==|  0.52181
USER: genes 16 Torsion [CB]-CA--N-[C] |==|  0.38317
USER: genes 17 Torsion [N]-C--CA-[N] |==|  0.35940
USER: genes 18 Torsion [N]-C--CA-[N] |==|  0.40249
USER: genes 19 Torsion [C]-CA--N-[C] |==|  0.82736
USER: genes 20 Torsion [N]-C--CA-[N] |==|  0.29049
ROOT
ATOM      1  CA  GLU A 233       1.863  24.770 -49.165  1.00 24.61 LIG 0.18  C 
ENDROOT
BRANCH 1 2
ATOM      2  CB  GLU A 233       3.130  23.959 -48.899  1.00 26.56 LIG 0.04  C 
BRANCH 2 3
ATOM      3  CG  GLU A 233       2.820  22.579 -48.309  1.00 28.50 LIG 0.12  C 
BRANCH 3 4
ATOM      4  CD  GLU A 233       3.597  21.457 -48.927  1.00 31.23 LIG 0.17  C 
ATOM      5 OE1  GLU A 233       4.455  21.725 -49.766  1.00 40.78 LIG-0.65  OA
ATOM      6 OE2  GLU A 233       3.388  20.300 -48.543  1.00 32.56 LIG-0.65  OA
ENDBRANCH 3 4
ENDBRANCH 2 3
ENDBRANCH 1 2
BRANCH 1 7
ATOM      7  C   GLU A 233       1.109  25.087 -47.868  1.00 22.49 LIG 0.24  C 
ATOM      8  N   LEU A 234      -0.123  24.587 -47.789  1.00 21.03 LIG-0.35  N 
ATOM      9 H    LEU A 234      -0.482  24.099 -48.398  1.00 21.03 LIG 0.16  HD
ATOM     10 O    GLU A 233       1.600  25.807 -46.990  1.00 21.03 LIG-0.27  OA
BRANCH 8 11
ATOM     11  CA  LEU A 234      -0.982  24.836 -46.626  1.00 20.74 LIG 0.18  C 
BRANCH 11 12
ATOM     12  CB  LEU A 234      -2.076  25.821 -47.039  1.00 23.04 LIG 0.04  C 
BRANCH 12 13
ATOM     13  CG  LEU A 234      -1.495  27.243 -47.188  1.00 25.06 LIG-0.02  C 
ATOM     14  CD1 LEU A 234      -2.011  27.940 -48.453  1.00 33.19 LIG 0.01  C 
ATOM     15  CD2 LEU A 234      -1.770  28.053 -45.910  1.00 27.29 LIG 0.01  C 
ENDBRANCH 12 13
ENDBRANCH 11 12
BRANCH 11 16
ATOM     16  C   LEU A 234      -1.566  23.531 -46.088  1.00 18.65 LIG 0.24  C 
ATOM     17 O    LEU A 234      -1.711  22.577 -46.841  1.00 20.08 LIG-0.27  OA
ATOM     18  N   LEU A 235      -1.962  23.523 -44.809  1.00 16.33 LIG-0.35  N 
ATOM     19 H    LEU A 235      -1.998  24.228 -44.317  1.00 16.33 LIG 0.16  HD
BRANCH 18 20
ATOM     20  CA  LEU A 235      -2.371  22.305 -44.134  1.00 16.00 LIG 0.18  C 
BRANCH 20 21
ATOM     21  C   LEU A 235      -3.699  22.446 -43.378  1.00 15.60 LIG 0.24  C 
ATOM     22 O    LEU A 235      -3.993  21.674 -42.499  1.00 16.00 LIG-0.27  OA
ATOM     23  N   GLY A 236      -4.497  23.436 -43.728  1.00 15.05 LIG-0.35  N 
ATOM     24 H    GLY A 236      -4.322  24.017 -44.337  1.00 15.05 LIG 0.16  HD
BRANCH 23 25
ATOM     25  CA  GLY A 236      -5.807  23.602 -43.051  1.00 15.88 LIG 0.23  C 
BRANCH 25 26
ATOM     26  C   GLY A 236      -6.888  22.794 -43.714  1.00 16.68 LIG 0.19  C 
ATOM     27 O    GLY A 236      -6.627  22.112 -44.710  1.00 18.78 LIG-0.65  OA
ATOM     28 OXT  GLY A 236      -8.041  22.808 -43.288  1.00 16.61 LIG-0.65  OA
ENDBRANCH 25 26
ENDBRANCH 23 25
ENDBRANCH 20 21
BRANCH 20 29
ATOM     29  CB  LEU A 235      -1.253  21.821 -43.183  1.00 17.17 LIG 0.04  C 
BRANCH 29 30
ATOM     30  CG  LEU A 235      -0.306  20.730 -43.696  1.00 20.01 LIG-0.02  C 
ATOM     31  CD1 LEU A 235       0.510  21.236 -44.798  1.00 21.18 LIG 0.01  C 
ATOM     32  CD2 LEU A 235       0.605  20.245 -42.546  1.00 23.81 LIG 0.01  C 
ENDBRANCH 29 30
ENDBRANCH 20 29
ENDBRANCH 18 20
ENDBRANCH 11 16
ENDBRANCH 8 11
ENDBRANCH 1 7
BRANCH 1 33
ATOM     33  N   GLU A 233       2.169  26.040 -49.829  1.00 26.21 LIG-0.35  N 
ATOM     34 H    GLU A 233       2.860  26.445 -49.516  1.00 26.21 LIG 0.16  HD
ATOM     35  C   PRO A 232       1.430  26.508 -50.827  1.00 29.12 LIG 0.24  C 
ATOM     36 O    PRO A 232       0.506  25.876 -51.360  1.00 29.57 LIG-0.27  OA
BRANCH 35 37
ATOM     37  CA  PRO A 232       1.800  27.904 -51.331  1.00 32.50 LIG 0.18  C 
ATOM     38  CB  PRO A 232       0.649  28.877 -51.044  1.00 34.03 LIG 0.04  C 
ATOM     39  CG  PRO A 232       0.422  29.646 -52.291  1.00 39.71 LIG 0.02  C 
ATOM     40  CD  PRO A 232       1.260  29.105 -53.395  1.00 41.14 LIG 0.13  C 
ATOM     41  N   PRO A 232       1.970  27.967 -52.780  1.00 36.81 LIG-0.34  N 
ATOM     42  C   ALA A 231       2.863  27.158 -53.374  1.00 38.01 LIG 0.24  C 
ATOM     43 O    ALA A 231       3.508  26.317 -52.752  1.00 37.25 LIG-0.27  OA
BRANCH 42 44
ATOM     44  CA  ALA A 231       3.025  27.277 -54.877  1.00 42.70 LIG 0.17  C 
ATOM     45  CB  ALA A 231       2.101  26.287 -55.559  1.00 44.12 LIG 0.04  C 
BRANCH 44 46
ATOM     46  N   ALA A 231       4.418  27.056 -55.279  1.00 44.69 LIG-0.35  N 
ATOM     47 H    ALA A 231       4.536  26.377 -55.794  1.00 44.69 LIG 0.16  HD
ATOM     48  C   PRO A 230       5.399  27.856 -54.866  1.00 46.57 LIG 0.25  C 
ATOM     49 O    PRO A 230       5.242  28.690 -53.981  1.00 46.08 LIG-0.27  OA
BRANCH 48 50
ATOM     50  CA  PRO A 230       6.774  27.721 -55.566  1.00 51.04 LIG 0.35  C 
ATOM     51  N   PRO A 230       7.035  28.816 -56.502  1.00 55.48 LIG 0.32  N 
ATOM     52  CD  PRO A 230       7.820  29.892 -55.875  1.00 58.51 LIG 0.32  C 
ATOM     53  CG  PRO A 230       8.676  29.148 -54.901  1.00 57.35 LIG 0.04  C 
ATOM     54  CB  PRO A 230       7.953  27.826 -54.571  1.00 52.45 LIG 0.05  C 
ENDBRANCH 48 50
ENDBRANCH 44 46
ENDBRANCH 42 44
ENDBRANCH 35 37
ENDBRANCH 1 33
TORSDOF 19
