REMARK  17 active torsions:
REMARK  status: ('A' for Active; 'I' for Inactive)
REMARK    1  A    between atoms: CA_2  and  C_3 
REMARK       I    between atoms: C_3  and  N_6 
REMARK    2  A    between atoms: CA_7  and  C_8 
REMARK       I    between atoms: C_8  and  N_13 
REMARK    3  A    between atoms: N_13  and  CA_14 
REMARK    4  A    between atoms: CA_14  and  CB_17 
REMARK    5  A    between atoms: CA_14  and  C_15 
REMARK       I    between atoms: C_15  and  N_23 
REMARK    6  A    between atoms: CB_17  and  CG_18 
REMARK    7  A    between atoms: CG_18  and  CD_19 
REMARK    8  A    between atoms: N_23  and  CA_24 
REMARK    9  A    between atoms: CA_24  and  C_25 
REMARK   10  A    between atoms: CA_24  and  CB_27 
REMARK       I    between atoms: C_25  and  N_32 
REMARK   11  A    between atoms: CB_27  and  CG_28 
REMARK   12  A    between atoms: N_32  and  CA_33 
REMARK   13  A    between atoms: CA_33  and  CB_36 
REMARK   14  A    between atoms: CA_33  and  C_34 
REMARK       I    between atoms: C_34  and  N_41 
REMARK   15  A    between atoms: CB_36  and  CG_37 
REMARK   16  A    between atoms: N_41  and  CA_42 
REMARK   17  A    between atoms: CA_42  and  C_43 
ROOT
ATOM      1  C   GLU N 233      54.439  22.935   2.701  1.00 68.48     0.241 C 
ATOM      2  O   GLU N 233      53.956  22.960   1.590  1.00 65.22    -0.271 OA
ATOM      3  N   LEU N 234      55.523  23.632   2.984  1.00 77.80    -0.346 N 
ATOM      4  H   LEU N 234      55.924  23.610   3.744  1.00 77.80     0.163 HD
ENDROOT
BRANCH   3   5
ATOM      5  CA  LEU N 234      56.138  24.515   2.001  1.00 75.39     0.177 C 
BRANCH   5   6
ATOM      6  C   LEU N 234      56.720  23.751   0.837  1.00 71.67     0.241 C 
ATOM      7  O   LEU N 234      57.497  22.851   1.016  1.00 71.06    -0.271 OA
ATOM      8  N   LEU N 235      56.343  24.135  -0.362  1.00 52.85    -0.346 N 
ATOM      9  H   LEU N 235      55.837  24.814  -0.511  1.00 52.85     0.163 HD
BRANCH   8  10
ATOM     10  CA  LEU N 235      56.765  23.421  -1.568  1.00 54.39     0.177 C 
BRANCH  10  11
ATOM     11  CB  LEU N 235      55.558  22.844  -2.309  1.00 50.34     0.038 C 
BRANCH  11  12
ATOM     12  CG  LEU N 235      55.765  21.434  -2.868  1.00 52.64    -0.020 C 
ATOM     13  CD2 LEU N 235      54.635  21.026  -3.800  1.00 52.33     0.009 C 
ATOM     14  CD1 LEU N 235      55.905  20.440  -1.730  1.00 53.22     0.009 C 
ENDBRANCH  11  12
ENDBRANCH  10  11
BRANCH  10  15
ATOM     15  C   LEU N 235      57.570  24.328  -2.507  1.00 52.64     0.240 C 
ATOM     16  O   LEU N 235      58.376  23.855  -3.310  1.00 52.05    -0.271 OA
ATOM     17  N   GLY N 236      57.322  25.632  -2.402  1.00 57.75    -0.349 N 
ATOM     18  H   GLY N 236      56.740  25.954  -1.857  1.00 57.75     0.163 HD
BRANCH  17  19
ATOM     19  CA  GLY N 236      57.999  26.647  -3.187  1.00 57.52     0.235 C 
BRANCH  19  20
ATOM     20  C   GLY N 236      59.301  27.105  -2.557  1.00 60.52     0.191 C 
ATOM     21  OXT GLY N 236      60.156  27.683  -3.227  1.00 61.85    -0.647 OA
ATOM     22  O   GLY N 236      59.541  26.917  -1.366  1.00 62.19    -0.647 OA
ENDBRANCH  19  20
ENDBRANCH  17  19
ENDBRANCH  10  15
ENDBRANCH   8  10
ENDBRANCH   5   6
BRANCH   5  23
ATOM     23  CB  LEU N 234      57.231  25.358   2.667  1.00 79.47     0.038 C 
BRANCH  23  24
ATOM     24  CG  LEU N 234      58.096  26.252   1.775  1.00 81.24    -0.020 C 
ATOM     25  CD1 LEU N 234      57.265  27.346   1.122  1.00 81.52     0.009 C 
ATOM     26  CD2 LEU N 234      59.246  26.850   2.575  1.00 82.88     0.009 C 
ENDBRANCH  23  24
ENDBRANCH   5  23
ENDBRANCH   3   5
BRANCH   1  27
ATOM     27  CA  GLU N 233      53.811  22.090   3.812  1.00 71.40     0.177 C 
BRANCH  27  28
ATOM     28  CB  GLU N 233      54.753  20.944   4.193  1.00 70.45     0.045 C 
BRANCH  28  29
ATOM     29  CG  GLU N 233      55.064  19.977   3.067  1.00 66.32     0.116 C 
BRANCH  29  30
ATOM     30  CD  GLU N 233      56.100  18.940   3.459  1.00 63.12     0.172 C 
ATOM     31  OE1 GLU N 233      57.058  19.295   4.177  1.00 63.49    -0.648 OA
ATOM     32  OE2 GLU N 233      55.959  17.770   3.046  1.00 60.69    -0.648 OA
ENDBRANCH  29  30
ENDBRANCH  28  29
ENDBRANCH  27  28
BRANCH  27  33
ATOM     33  N   GLU N 233      52.497  21.590   3.398  1.00 74.02    -0.346 N 
ATOM     34  H   GLU N 233      52.435  21.458   2.551  1.00 74.02     0.163 HD
ATOM     35  C   PRO N 232      51.491  21.359   4.239  1.00 90.40     0.241 C 
ATOM     36  O   PRO N 232      51.563  21.519   5.443  1.00 95.63    -0.271 OA
BRANCH  35  37
ATOM     37  CA  PRO N 232      50.175  20.896   3.659  1.00 87.45     0.179 C 
ATOM     38  N   PRO N 232      49.154  20.706   4.680  1.00 90.22    -0.337 N 
ATOM     39  C   ALA N 231      48.776  19.579   5.295  1.00 63.79     0.259 C 
ATOM     40  CD  PRO N 232      48.234  21.857   4.727  1.00 90.52     0.127 C 
ATOM     41  O   ALA N 231      48.005  19.539   6.249  1.00 66.65    -0.271 OA
ATOM     42  CG  PRO N 232      48.854  22.837   3.759  1.00 87.66     0.022 C 
ATOM     43  CB  PRO N 232      49.573  21.989   2.778  1.00 84.55     0.037 C 
BRANCH  39  44
ATOM     44  CA  ALA N 231      49.370  18.293   4.764  1.00 62.23     0.396 C 
ATOM     45  CB  ALA N 231      48.386  17.597   3.834  1.00 54.17     0.059 C 
ATOM     46  N   ALA N 231      49.747  17.411   5.857  1.00 63.17     0.614 N 
ENDBRANCH  39  44
ENDBRANCH  35  37
ENDBRANCH  27  33
ENDBRANCH   1  27
TORSDOF 17
