USER: ADFR SOLUTION from run 0
USER: SCORE 16.173866 LL:  -3.852 LR: -13.921 RR:   0.000 FEB:  -8.850
USER: RMSD 1.131021
USER: STATUS Locally minimized using BFGS
USER: GENES 19
USER: genes 0 Translation |==|  0.52810 0.52244 0.56346
USER: genes 1 Rotation |==|  0.47421 0.51192 0.55781 0.99583
USER: genes 2 Torsion [C]-N--CA-[C] |==|  0.81289
USER: genes 3 Torsion [N]-CA--C-[N] |==|  0.38915
USER: genes 4 Torsion [C]-N--CA-[CB] |==|  0.33892
USER: genes 5 Torsion [N]-CA--CB-[CG] |==|  0.63864
USER: genes 6 Torsion [CA]-CB--CG-[CD1] |==|  0.17724
USER: genes 7 Torsion [N]-CA--C-[N] |==|  0.93989
USER: genes 8 Torsion [C]-N--CA-[C] |==|  0.76094
USER: genes 9 Torsion [N]-CA--C-[OXT] |==|  0.44167
USER: genes 10 Torsion [N]-CA--CB-[CG] |==|  0.47299
USER: genes 11 Torsion [CA]-CB--CG-[CD2] |==|  0.51493
USER: genes 12 Torsion [N]-C--CA-[N] |==|  0.46833
USER: genes 13 Torsion [C]-CA--CB-[CG] |==|  0.83980
USER: genes 14 Torsion [CA]-CB--CG-[CD] |==|  0.53965
USER: genes 15 Torsion [CB]-CG--CD-[OE1] |==|  0.94222
USER: genes 16 Torsion [C]-CA--N-[C] |==|  0.57617
USER: genes 17 Torsion [N]-C--CA-[N] |==|  0.47297
USER: genes 18 Torsion [N]-C--CA-[N] |==|  0.38906
ROOT
ATOM      1  C   GLU N 233      54.650  22.968   2.414  1.00 68.48 LIG 0.24  C 
ATOM      2 O    GLU N 233      54.136  22.763   1.336  1.00 65.22 LIG-0.27  OA
ATOM      3  N   LEU N 234      55.552  23.919   2.563  1.00 77.80 LIG-0.35  N 
ATOM      4 H    LEU N 234      55.974  24.071   3.297  1.00 77.80 LIG 0.16  HD
ENDROOT
BRANCH 3 5
ATOM      5  CA  LEU N 234      55.911  24.807   1.465  1.00 75.39 LIG 0.18  C 
BRANCH 5 6
ATOM      6  C   LEU N 234      56.626  24.077   0.355  1.00 71.67 LIG 0.24  C 
ATOM      7 O    LEU N 234      57.452  23.238   0.600  1.00 71.06 LIG-0.27  OA
ATOM      8  N   LEU N 235      56.307  24.421  -0.873  1.00 52.85 LIG-0.35  N 
ATOM      9 H    LEU N 235      55.765  25.060  -1.066  1.00 52.85 LIG 0.16  HD
BRANCH 8 10
ATOM     10  CA  LEU N 235      56.863  23.729  -2.036  1.00 54.39 LIG 0.18  C 
BRANCH 10 11
ATOM     11  CB  LEU N 235      55.748  23.146  -2.906  1.00 50.34 LIG 0.04  C 
BRANCH 11 12
ATOM     12  CG  LEU N 235      55.933  21.674  -3.281  1.00 52.64 LIG-0.02  C 
ATOM     13  CD2 LEU N 235      54.887  21.211  -4.282  1.00 52.33 LIG 0.01  C 
ATOM     14  CD1 LEU N 235      55.897  20.812  -2.032  1.00 53.22 LIG 0.01  C 
ENDBRANCH 11 12
ENDBRANCH 10 11
BRANCH 10 15
ATOM     15  C   LEU N 235      57.748  24.659  -2.875  1.00 52.64 LIG 0.24  C 
ATOM     16 O    LEU N 235      58.591  24.204  -3.651  1.00 52.05 LIG-0.27  OA
ATOM     17  N   GLY N 236      57.528  25.963  -2.718  1.00 57.75 LIG-0.35  N 
ATOM     18 H    GLY N 236      56.921  26.273  -2.193  1.00 57.75 LIG 0.16  HD
BRANCH 17 19
ATOM     19  CA  GLY N 236      58.278  26.996  -3.405  1.00 57.52 LIG 0.23  C 
BRANCH 19 20
ATOM     20  C   GLY N 236      59.555  27.376  -2.679  1.00 60.52 LIG 0.19  C 
ATOM     21 OXT  GLY N 236      60.480  27.927  -3.276  1.00 61.85 LIG-0.65  OA
ATOM     22 O    GLY N 236      59.706  27.150  -1.480  1.00 62.19 LIG-0.65  OA
ENDBRANCH 19 20
ENDBRANCH 17 19
ENDBRANCH 10 15
ENDBRANCH 8 10
ENDBRANCH 5 6
BRANCH 5 23
ATOM     23  CB  LEU N 234      56.788  25.952   1.983  1.00 79.47 LIG 0.04  C 
BRANCH 23 24
ATOM     24  CG  LEU N 234      57.459  26.868   0.956  1.00 81.24 LIG-0.02  C 
ATOM     25  CD1 LEU N 234      56.426  27.599   0.113  1.00 81.52 LIG 0.01  C 
ATOM     26  CD2 LEU N 234      58.389  27.855   1.650  1.00 82.88 LIG 0.01  C 
ENDBRANCH 23 24
ENDBRANCH 5 23
ENDBRANCH 3 5
BRANCH 1 27
ATOM     27  CA  GLU N 233      54.275  22.127   3.637  1.00 71.40 LIG 0.18  C 
BRANCH 27 28
ATOM     28  CB  GLU N 233      55.462  21.255   4.056  1.00 70.45 LIG 0.04  C 
BRANCH 28 29
ATOM     29  CG  GLU N 233      55.976  20.322   2.977  1.00 66.32 LIG 0.12  C 
BRANCH 29 30
ATOM     30  CD  GLU N 233      56.902  19.252   3.525  1.00 63.12 LIG 0.17  C 
ATOM     31 OE1  GLU N 233      57.456  19.449   4.627  1.00 63.49 LIG-0.65  OA
ATOM     32 OE2  GLU N 233      57.081  18.216   2.852  1.00 60.69 LIG-0.65  OA
ENDBRANCH 29 30
ENDBRANCH 28 29
ENDBRANCH 27 28
BRANCH 27 33
ATOM     33  N   GLU N 233      53.085  21.317   3.359  1.00 74.02 LIG-0.35  N 
ATOM     34 H    GLU N 233      52.991  21.126   2.526  1.00 74.02 LIG 0.16  HD
ATOM     35  C   PRO N 232      52.227  20.912   4.293  1.00 90.40 LIG 0.24  C 
ATOM     36 O    PRO N 232      52.352  21.154   5.479  1.00 95.63 LIG-0.27  OA
BRANCH 35 37
ATOM     37  CA  PRO N 232      51.014  20.129   3.849  1.00 87.45 LIG 0.18  C 
ATOM     38  N   PRO N 232      50.283  19.555   4.970  1.00 90.22 LIG-0.34  N 
ATOM     39  C   ALA N 231      50.350  18.318   5.476  1.00 63.79 LIG 0.26  C 
ATOM     40  CD  PRO N 232      49.099  20.369   5.300  1.00 90.52 LIG 0.13  C 
ATOM     41 O    ALA N 231      49.801  17.967   6.516  1.00 66.65 LIG-0.27  OA
ATOM     42  CG  PRO N 232      49.239  21.569   4.393  1.00 87.66 LIG 0.02  C 
ATOM     43  CB  PRO N 232      49.985  21.063   3.216  1.00 84.55 LIG 0.04  C 
BRANCH 39 44
ATOM     44  CA  ALA N 231      51.180  17.319   4.700  1.00 62.23 LIG 0.40  C 
ATOM     45  CB  ALA N 231      50.289  16.472   3.802  1.00 54.17 LIG 0.06  C 
ATOM     46  N   ALA N 231      51.943  16.473   5.603  1.00 63.17 LIG 0.61  N 
ENDBRANCH 39 44
ENDBRANCH 35 37
ENDBRANCH 27 33
ENDBRANCH 1 27
TORSDOF 17
