REMARK  23 active torsions:
REMARK  status: ('A' for Active; 'I' for Inactive)
REMARK       I    between atoms: C_1  and  N_4 
REMARK    1  A    between atoms: CA_5  and  C_6 
REMARK       I    between atoms: C_6  and  N_11 
REMARK    2  A    between atoms: N_11  and  CA_12 
REMARK    3  A    between atoms: CA_12  and  CB_15 
REMARK    4  A    between atoms: CA_12  and  C_13 
REMARK       I    between atoms: C_13  and  N_27 
REMARK    5  A    between atoms: CB_15  and  CG_16 
REMARK    6  A    between atoms: N_27  and  CA_28 
REMARK    7  A    between atoms: CA_28  and  C_29 
REMARK       I    between atoms: C_29  and  N_33 
REMARK    8  A    between atoms: N_33  and  CA_34 
REMARK    9  A    between atoms: CA_34  and  C_35 
REMARK   10  A    between atoms: CA_34  and  CB_37 
REMARK       I    between atoms: C_35  and  N_42 
REMARK   11  A    between atoms: CB_37  and  OG1_38 
REMARK   12  A    between atoms: N_42  and  CA_43 
REMARK   13  A    between atoms: CA_43  and  C_44 
REMARK   14  A    between atoms: CA_43  and  CB_46 
REMARK       I    between atoms: C_44  and  N_50 
REMARK   15  A    between atoms: CB_46  and  SG_47 
REMARK   16  A    between atoms: N_50  and  CA_51 
REMARK   17  A    between atoms: CA_51  and  C_52 
REMARK   18  A    between atoms: CA_51  and  CB_54 
REMARK       I    between atoms: C_52  and  N_59 
REMARK   19  A    between atoms: CB_54  and  CG_55 
REMARK   20  A    between atoms: N_59  and  CA_60 
REMARK   21  A    between atoms: CA_60  and  C_61 
REMARK   22  A    between atoms: CA_60  and  CB_63 
REMARK   23  A    between atoms: CB_63  and  OG_64 
ROOT
ATOM      1  C   ALA E  68      10.674   4.289  28.705  1.00 21.38     0.240 C 
ATOM      2  O   ALA E  68      11.493   3.372  28.578  1.00 23.30    -0.271 OA
ATOM      3  N   THR E  69       9.350   4.102  28.680  1.00 18.30    -0.344 N 
ATOM      4  H   THR E  69       8.773   4.740  28.663  1.00 18.30     0.163 HD
ENDROOT
BRANCH   3   5
ATOM      5  CA  THR E  69       8.771   2.760  28.680  1.00 19.45     0.205 C 
BRANCH   5   6
ATOM      6  C   THR E  69       7.686   2.604  27.598  1.00 19.66     0.243 C 
ATOM      7  N   CYS E  70       7.290   1.375  27.321  1.00 18.57    -0.345 N 
ATOM      8  H   CYS E  70       7.554   0.676  27.747  1.00 18.57     0.163 HD
ATOM      9  O   THR E  69       7.238   3.571  27.015  1.00 20.15    -0.271 OA
BRANCH   7  10
ATOM     10  CA  CYS E  70       6.351   1.107  26.245  1.00 18.45     0.185 C 
BRANCH  10  11
ATOM     11  C   CYS E  70       5.301   0.169  26.810  1.00 19.42     0.241 C 
ATOM     12  N   ASP E  71       4.269  -0.117  25.997  1.00 17.61    -0.345 N 
ATOM     13  H   ASP E  71       4.174   0.228  25.215  1.00 17.61     0.163 HD
ATOM     14  O   CYS E  70       5.420  -0.242  27.969  1.00 18.07    -0.271 OA
BRANCH  12  15
ATOM     15  CA  ASP E  71       3.211  -1.039  26.361  1.00 16.95     0.186 C 
BRANCH  15  16
ATOM     16  C   ASP E  71       3.513  -2.276  25.570  1.00 18.90     0.241 C 
ATOM     17  O   ASP E  71       3.520  -2.224  24.315  1.00 16.52    -0.271 OA
ATOM     18  N   SER E  72       3.739  -3.385  26.276  1.00 19.80    -0.344 N 
ATOM     19  H   SER E  72       3.671  -3.436  27.132  1.00 19.80     0.163 HD
BRANCH  18  20
ATOM     20  CA  SER E  72       4.130  -4.628  25.620  1.00 20.01     0.204 C 
BRANCH  20  21
ATOM     21  C   SER E  72       3.129  -5.730  25.768  1.00 24.22     0.286 C 
HETATM   22  N   NH2 E  73       3.154  -6.680  24.768  1.00 28.43    -0.106 N 
ATOM     23  O   SER E  72       2.223  -5.648  26.566  1.00 27.83    -0.267 OA
ENDBRANCH  20  21
BRANCH  20  24
ATOM     24  CB  SER E  72       5.466  -5.097  26.146  1.00 25.59     0.199 C 
BRANCH  24  25
ATOM     25  OG  SER E  72       6.466  -4.137  25.909  1.00 28.15    -0.398 OA
ATOM     26  HG  SER E  72       6.112  -3.424  25.639  1.00 28.15     0.209 HD
ENDBRANCH  24  25
ENDBRANCH  20  24
ENDBRANCH  18  20
ENDBRANCH  15  16
BRANCH  15  27
ATOM     27  CB  ASP E  71       1.829  -0.451  26.035  1.00 12.80     0.147 C 
BRANCH  27  28
ATOM     28  CG  ASP E  71       1.542   0.792  26.833  1.00 14.21     0.175 C 
ATOM     29  OD2 ASP E  71       1.263   1.860  26.269  1.00 15.44    -0.648 OA
ATOM     30  OD1 ASP E  71       1.621   0.718  28.067  1.00 16.80    -0.648 OA
ENDBRANCH  27  28
ENDBRANCH  15  27
ENDBRANCH  12  15
ENDBRANCH  10  11
BRANCH  10  31
ATOM     31  CB  CYS E  70       7.069   0.490  25.013  1.00 19.19     0.105 C 
BRANCH  31  32
ATOM     32  SG  CYS E  70       7.785  -1.156  25.229  1.00 25.14    -0.180 SA
ATOM     33  HG  CYS E  70       7.283  -1.690  26.180  1.00 25.14     0.101 HD
ENDBRANCH  31  32
ENDBRANCH  10  31
ENDBRANCH   7  10
ENDBRANCH   5   6
BRANCH   5  34
ATOM     34  CB  THR E  69       8.240   2.406  30.081  1.00 17.77     0.146 C 
ATOM     35  CG2 THR E  69       9.343   2.480  31.079  1.00 20.71     0.042 C 
BRANCH  34  36
ATOM     36  OG1 THR E  69       7.243   3.323  30.493  1.00 16.43    -0.393 OA
ATOM     37  HG1 THR E  69       6.545   2.904  30.699  1.00 16.43     0.210 HD
ENDBRANCH  34  36
ENDBRANCH   5  34
ENDBRANCH   3   5
BRANCH   1  38
ATOM     38  CA  ALA E  68      11.172   5.717  28.908  1.00 20.08     0.172 C 
ATOM     39  CB  ALA E  68      11.290   6.031  30.380  1.00 20.16     0.042 C 
BRANCH  38  40
ATOM     40  N   ALA E  68      10.290   6.657  28.273  1.00 18.16    -0.346 N 
ATOM     41  H   ALA E  68       9.970   7.262  28.794  1.00 18.16     0.163 HD
ATOM     42  C   TRP E  67      10.019   6.563  26.986  1.00 18.88     0.241 C 
ATOM     43  O   TRP E  67      10.432   5.658  26.243  1.00 21.47    -0.271 OA
BRANCH  42  44
ATOM     44  CA  TRP E  67       9.074   7.592  26.481  1.00 17.18     0.181 C 
BRANCH  44  45
ATOM     45  N   TRP E  67       8.439   8.378  27.598  1.00 16.72    -0.346 N 
ATOM     46  C   PRO E  66       7.607   7.861  28.515  1.00 16.87     0.241 C 
ATOM     47  O   PRO E  66       7.157   6.718  28.463  1.00 18.41    -0.271 OA
ATOM     48  H   TRP E  67       8.663   9.208  27.595  1.00 16.72     0.163 HD
BRANCH  46  49
ATOM     49  CA  PRO E  66       7.156   8.774  29.681  1.00 17.04     0.179 C 
ATOM     50  CB  PRO E  66       5.654   9.096  29.611  1.00 18.40     0.037 C 
ATOM     51  CG  PRO E  66       5.547  10.511  29.121  1.00 18.41     0.022 C 
ATOM     52  CD  PRO E  66       6.800  11.201  29.582  1.00 21.21     0.127 C 
ATOM     53  N   PRO E  66       7.777  10.113  29.727  1.00 19.82    -0.339 N 
HETATM   54  C   ACE E  65       9.113  10.200  30.018  1.00 17.72     0.216 C 
HETATM   55  CH3 ACE E  65       9.694  11.551  30.112  1.00 22.93     0.117 C 
HETATM   56  O   ACE E  65       9.834   9.240  30.155  1.00 18.13    -0.274 OA
ENDBRANCH  46  49
ENDBRANCH  44  45
BRANCH  44  57
ATOM     57  CB  TRP E  67       9.760   8.537  25.460  1.00 18.36     0.075 C 
BRANCH  57  58
ATOM     58  CG  TRP E  67      10.573   9.567  26.060  1.00 19.51    -0.028 A 
ATOM     59  CD1 TRP E  67      11.853   9.453  26.479  1.00 20.71     0.096 A 
ATOM     60  NE1 TRP E  67      12.290  10.643  26.982  1.00 21.73    -0.365 N 
ATOM     61  CE2 TRP E  67      11.279  11.556  26.892  1.00 22.59     0.042 A 
ATOM     62  HE1 TRP E  67      13.074  10.793  27.303  1.00 21.73     0.165 HD
ATOM     63  CD2 TRP E  67      10.178  10.903  26.308  1.00 20.57    -0.002 A 
ATOM     64  CZ2 TRP E  67      11.236  12.890  27.265  1.00 23.91     0.030 A 
ATOM     65  CE3 TRP E  67       9.001  11.620  26.094  1.00 19.56     0.014 A 
ATOM     66  CZ3 TRP E  67       8.957  12.923  26.457  1.00 20.82     0.001 A 
ATOM     67  CH2 TRP E  67      10.066  13.560  27.038  1.00 24.07     0.002 A 
ENDBRANCH  57  58
ENDBRANCH  44  57
ENDBRANCH  42  44
ENDBRANCH  38  40
ENDBRANCH   1  38
TORSDOF 23
