USER: ADFR SOLUTION from run 0
USER: SCORE 11.480037 LL:  -1.856 LR:  -9.624 RR:   0.000 FEB:  -6.939
USER: RMSD 0.961448
USER: STATUS Locally minimized using BFGS
USER: GENES 11
USER: genes 0 Translation |==|  0.62063 0.35569 0.51508
USER: genes 1 Rotation |==|  0.52407 0.48776 0.50696 0.99922
USER: genes 2 Torsion [N]-C--CA-[N] |==|  0.48489
USER: genes 3 Torsion [C]-CA--CB-[CG] |==|  0.56531
USER: genes 4 Torsion [CA]-CB--CG-[CD2] |==|  0.34877
USER: genes 5 Torsion [CE2]-CZ--OH-[HH] |==|  0.99699
USER: genes 6 Torsion [N]-CA--C-[N] |==|  0.09342
USER: genes 7 Torsion [C]-N--CA-[C] |==|  0.79589
USER: genes 8 Torsion [N]-CA--CB-[CG] |==|  0.90321
USER: genes 9 Torsion [CA]-CB--CG-[ND1] |==|  0.22733
USER: genes 10 Torsion [N]-CA--C-[O] |==|  0.85971
ROOT
ATOM      1  C   TYR C  64      14.413  -3.022   7.348  1.00 51.57 LIG 0.26  C 
ATOM      2 O    TYR C  64      14.360  -3.660   6.297  1.00 54.62 LIG-0.27  OA
ATOM      3  N   PRO C  65      15.577  -2.614   7.882  1.00 43.10 LIG-0.34  N 
ATOM      4  CA  PRO C  65      15.788  -1.750   9.048  1.00 38.90 LIG 0.18  C 
ATOM      5  CB  PRO C  65      17.015  -2.370   9.702  1.00 40.80 LIG 0.04  C 
ATOM      6  CG  PRO C  65      17.802  -2.891   8.549  1.00 42.19 LIG 0.02  C 
ATOM      7  CD  PRO C  65      16.816  -3.310   7.494  1.00 44.37 LIG 0.13  C 
ENDROOT
BRANCH 1 8
ATOM      8  CA  TYR C  64      13.127  -2.671   8.095  1.00 49.73 LIG 0.40  C 
ATOM      9  N   TYR C  64      11.979  -3.086   7.292  1.00 50.52 LIG 0.61  N 
BRANCH 8 10
ATOM     10  CB  TYR C  64      13.124  -3.381   9.454  1.00 50.46 LIG 0.09  C 
BRANCH 10 11
ATOM     11  CG  TYR C  64      11.760  -3.606  10.068  1.00 47.68 LIG-0.06  A 
ATOM     12  CD2 TYR C  64      11.361  -4.881  10.454  1.00 48.34 LIG 0.01  A 
ATOM     13  CE2 TYR C  64      10.118  -5.104  11.016  1.00 49.15 LIG 0.04  A 
ATOM     14  CZ  TYR C  64       9.255  -4.044  11.199  1.00 50.59 LIG 0.07  A 
ATOM     15  CE1 TYR C  64       9.624  -2.766  10.827  1.00 46.73 LIG 0.04  A 
ATOM     16  CD1 TYR C  64      10.872  -2.553  10.266  1.00 46.22 LIG 0.01  A 
BRANCH 14 17
ATOM     17 OH   TYR C  64       8.015  -4.259  11.757  1.00 53.82 LIG-0.36  OA
ATOM     18 HH   TYR C  64       7.919  -5.078  11.920  1.00 53.82 LIG 0.22  HD
ENDBRANCH 14 17
ENDBRANCH 10 11
ENDBRANCH 8 10
ENDBRANCH 1 8
BRANCH 4 19
ATOM     19  C   PRO C  65      16.093  -0.311   8.644  1.00 37.07 LIG 0.24  C 
ATOM     20  N   HIS C  66      15.485   0.121   7.541  1.00 40.38 LIG-0.35  N 
ATOM     21 H    HIS C  66      14.980  -0.373   7.053  1.00 40.38 LIG 0.16  HD
ATOM     22 O    PRO C  65      16.877   0.376   9.324  1.00 29.28 LIG-0.27  OA
BRANCH 20 23
ATOM     23  CA  HIS C  66      15.622   1.488   7.058  1.00 40.25 LIG 0.17  C 
BRANCH 23 24
ATOM     24  CB  HIS C  66      15.151   1.593   5.601  1.00 42.68 LIG 0.09  C 
BRANCH 24 25
ATOM     25  CG  HIS C  66      15.448   0.378   4.776  1.00 48.80 LIG 0.06  A 
ATOM     26 ND1  HIS C  66      14.652  -0.748   4.790  1.00 53.13 LIG-0.24  NA
ATOM     27  CE1 HIS C  66      15.156  -1.651   3.968  1.00 55.16 LIG 0.23  A 
ATOM     28 NE2  HIS C  66      16.251  -1.153   3.420  1.00 53.86 LIG-0.25  NA
ATOM     29  CD2 HIS C  66      16.455   0.116   3.911  1.00 53.41 LIG 0.14  A 
ENDBRANCH 24 25
ENDBRANCH 23 24
BRANCH 23 30
ATOM     30  C   HIS C  66      14.833   2.464   7.931  1.00 41.89 LIG 0.22  C 
ATOM     31 O    HIS C  66      13.649   2.251   8.202  1.00 44.58 LIG-0.29  OA
ENDBRANCH 23 30
ENDBRANCH 20 23
ENDBRANCH 4 19
TORSDOF 9
