USER: ADFR SOLUTION from run 0
USER: SCORE 20.676260 LL:  -8.254 LR: -13.829 RR:   0.000 FEB:  -6.372
USER: RMSD 0.320889
USER: STATUS Locally minimized using BFGS
USER: GENES 27
USER: genes 0 Translation |==|  0.54972 0.55387 0.62709
USER: genes 1 Rotation |==|  0.48542 0.50337 0.49571 0.99976
USER: genes 2 Torsion [C]-CA--N-[C] |==|  0.77692
USER: genes 3 Torsion [N]-C--CA-[N] |==|  0.92507
USER: genes 4 Torsion [C]-CA--N-[C] |==|  0.83564
USER: genes 5 Torsion [N]-C--CA-[N] |==|  0.91352
USER: genes 6 Torsion [C]-CA--N-[C] |==|  0.84973
USER: genes 7 Torsion [N]-C--CA-[N] |==|  0.92141
USER: genes 8 Torsion [C]-CA--N-[H1] |==|  0.39213
USER: genes 9 Torsion [C]-CA--CB-[CG] |==|  0.43877
USER: genes 10 Torsion [CA]-CB--CG-[OD2] |==|  0.48112
USER: genes 11 Torsion [C]-CA--CB-[CG] |==|  0.82013
USER: genes 12 Torsion [CA]-CB--CG-[CD] |==|  0.76349
USER: genes 13 Torsion [CB]-CG--CD-[OE1] |==|  0.04646
USER: genes 14 Torsion [N]-CA--C-[N] |==|  0.96713
USER: genes 15 Torsion [C]-N--CA-[CB] |==|  0.36082
USER: genes 16 Torsion [N]-CA--CB-[CG] |==|  0.82364
USER: genes 17 Torsion [CA]-CB--CG-[CD] |==|  0.50182
USER: genes 18 Torsion [CB]-CG--CD-[NE] |==|  0.84163
USER: genes 19 Torsion [CG]-CD--NE-[HE] |==|  0.77575
USER: genes 20 Torsion [N]-CA--C-[N] |==|  0.93107
USER: genes 21 Torsion [C]-N--CA-[CB] |==|  0.38544
USER: genes 22 Torsion [N]-CA--CB-[CG] |==|  0.81247
USER: genes 23 Torsion [CA]-CB--CG-[ND1] |==|  0.50889
USER: genes 24 Torsion [N]-CA--C-[O] |==|  0.74625
USER: genes 25 Torsion [N]-CA--CB-[CG] |==|  0.82808
USER: genes 26 Torsion [CA]-CB--CG-[CD2] |==|  0.30156
ROOT
ATOM      1  CA  PHE A   4      63.711  46.757 110.641  1.00  8.73 LIG 0.18  C 
ENDROOT
BRANCH 1 2
ATOM      2  N   PHE A   4      62.675  45.943 110.023  1.00  8.80 LIG-0.35  N 
ATOM      3  C   GLU A   3      61.388  46.241 110.168  1.00  9.88 LIG 0.24  C 
ATOM      4 O    GLU A   3      61.008  47.207 110.846  1.00 11.78 LIG-0.27  OA
ATOM      5 H    PHE A   4      62.969  45.274 109.570  1.00  8.80 LIG 0.16  HD
BRANCH 3 6
ATOM      6  CA  GLU A   3      60.374  45.296 109.504  1.00  9.13 LIG 0.18  C 
BRANCH 6 7
ATOM      7  N   GLU A   3      60.896  44.587 108.328  1.00  7.51 LIG-0.35  N 
ATOM      8  C   ALA A   2      61.350  45.257 107.271  1.00 12.24 LIG 0.24  C 
ATOM      9 O    ALA A   2      61.389  46.499 107.242  1.00 10.29 LIG-0.27  OA
ATOM     10 H    GLU A   3      60.880  43.729 108.388  1.00  7.51 LIG 0.16  HD
BRANCH 8 11
ATOM     11  CA  ALA A   2      61.848  44.426 106.085  1.00  7.33 LIG 0.17  C 
ATOM     12  CB  ALA A   2      60.726  44.219 105.073  1.00  8.39 LIG 0.04  C 
BRANCH 11 13
ATOM     13  N   ALA A   2      62.427  43.136 106.479  1.00  8.02 LIG-0.35  N 
ATOM     14 H    ALA A   2      62.078  42.457 106.083  1.00  8.02 LIG 0.16  HD
ATOM     15  C   ASP A   1      63.409  43.048 107.376  1.00  8.83 LIG 0.25  C 
ATOM     16 O    ASP A   1      63.893  44.027 107.940  1.00  7.52 LIG-0.27  OA
BRANCH 15 17
ATOM     17  CA  ASP A   1      63.928  41.653 107.697  1.00  7.69 LIG 0.28  C 
BRANCH 17 18
ATOM     18  N   ASP A   1      62.883  40.605 107.506  1.00 12.20 LIG-0.07  N 
ATOM     19 H3   ASP A   1      62.250  40.912 106.961  1.00 12.20 LIG 0.28  HD
ATOM     20 H1   ASP A   1      63.253  39.878 107.151  1.00 12.20 LIG 0.28  HD
ATOM     21 H2   ASP A   1      62.523  40.399 108.294  1.00 12.20 LIG 0.28  HD
ENDBRANCH 17 18
BRANCH 17 22
ATOM     22  CB  ASP A   1      65.142  41.364 106.811  1.00 12.14 LIG 0.15  C 
BRANCH 22 23
ATOM     23  CG  ASP A   1      66.049  40.278 107.382  1.00 11.50 LIG 0.17  C 
ATOM     24 OD2  ASP A   1      66.987  39.892 106.661  1.00  7.11 LIG-0.65  OA
ATOM     25 OD1  ASP A   1      65.850  39.824 108.541  1.00  8.56 LIG-0.65  OA
ENDBRANCH 22 23
ENDBRANCH 17 22
ENDBRANCH 15 17
ENDBRANCH 11 13
ENDBRANCH 8 11
ENDBRANCH 6 7
BRANCH 6 26
ATOM     26  CB  GLU A   3      59.840  44.297 110.544  1.00  8.36 LIG 0.04  C 
BRANCH 26 27
ATOM     27  CG  GLU A   3      60.878  43.320 111.121  1.00  8.75 LIG 0.12  C 
BRANCH 27 28
ATOM     28  CD  GLU A   3      61.096  42.069 110.271  1.00 11.41 LIG 0.17  C 
ATOM     29 OE1  GLU A   3      60.704  42.065 109.088  1.00  7.99 LIG-0.65  OA
ATOM     30 OE2  GLU A   3      61.679  41.083 110.788  1.00 13.12 LIG-0.65  OA
ENDBRANCH 27 28
ENDBRANCH 26 27
ENDBRANCH 6 26
ENDBRANCH 3 6
ENDBRANCH 1 2
BRANCH 1 31
ATOM     31  C   PHE A   4      64.006  48.022 109.829  1.00 10.65 LIG 0.24  C 
ATOM     32  N   ARG A   5      63.495  48.089 108.606  1.00  9.73 LIG-0.35  N 
ATOM     33 H    ARG A   5      63.012  47.472 108.252  1.00  9.73 LIG 0.16  HD
ATOM     34 O    PHE A   4      64.649  48.938 110.321  1.00 11.27 LIG-0.27  OA
BRANCH 32 35
ATOM     35  CA  ARG A   5      63.721  49.249 107.745  1.00 16.16 LIG 0.18  C 
BRANCH 35 36
ATOM     36  CB  ARG A   5      64.209  48.802 106.353  1.00 18.38 LIG 0.04  C 
BRANCH 36 37
ATOM     37  CG  ARG A   5      65.564  48.081 106.324  1.00 17.37 LIG 0.02  C 
BRANCH 37 38
ATOM     38  CD  ARG A   5      65.983  47.684 104.893  1.00 18.74 LIG 0.14  C 
BRANCH 38 39
ATOM     39  NE  ARG A   5      64.980  46.837 104.238  1.00 16.23 LIG-0.23  N 
ATOM     40 HE   ARG A   5      64.975  45.998 104.429  1.00 16.23 LIG 0.18  HD
ATOM     41  CZ  ARG A   5      64.079  47.283 103.371  1.00 23.02 LIG 0.67  C 
ATOM     42  NH2 ARG A   5      63.184  46.454 102.843  1.00 17.77 LIG-0.23  N 
ATOM     43  NH1 ARG A   5      64.070  48.567 103.026  1.00 22.06 LIG-0.23  N 
ATOM     44 1HH2 ARG A   5      63.185  45.622 103.061  1.00 17.77 LIG 0.17  HD
ATOM     45 2HH2 ARG A   5      62.603  46.750 102.281  1.00 17.77 LIG 0.17  HD
ATOM     46 2HH1 ARG A   5      63.487  48.857 102.465  1.00 22.06 LIG 0.17  HD
ATOM     47 1HH1 ARG A   5      64.646  49.107 103.365  1.00 22.06 LIG 0.17  HD
ENDBRANCH 38 39
ENDBRANCH 37 38
ENDBRANCH 36 37
ENDBRANCH 35 36
BRANCH 35 48
ATOM     48  C   ARG A   5      62.441  50.099 107.593  1.00 22.64 LIG 0.24  C 
ATOM     49 O    ARG A   5      62.507  51.290 107.320  1.00 28.37 LIG-0.27  OA
ATOM     50  N   HIS A   6      61.290  49.466 107.778  1.00 30.17 LIG-0.35  N 
ATOM     51 H    HIS A   6      61.240  48.674 108.109  1.00 30.17 LIG 0.16  HD
BRANCH 50 52
ATOM     52  CA  HIS A   6      59.989  50.042 107.441  1.00 40.98 LIG 0.17  C 
BRANCH 52 53
ATOM     53  CB  HIS A   6      59.073  48.977 106.785  1.00 38.64 LIG 0.09  C 
BRANCH 53 54
ATOM     54  CG  HIS A   6      59.519  48.513 105.426  1.00 38.02 LIG 0.06  A 
ATOM     55 ND1  HIS A   6      58.786  47.617 104.673  1.00 51.26 LIG-0.24  NA
ATOM     56  CE1 HIS A   6      59.407  47.391 103.526  1.00 35.95 LIG 0.23  A 
ATOM     57 NE2  HIS A   6      60.516  48.110 103.507  1.00 45.10 LIG-0.25  NA
ATOM     58  CD2 HIS A   6      60.611  48.817 104.685  1.00 36.38 LIG 0.14  A 
ENDBRANCH 53 54
ENDBRANCH 52 53
BRANCH 52 59
ATOM     59  C   HIS A   6      59.317  50.542 108.714  1.00 40.61 LIG 0.22  C 
ATOM     60 O    HIS A   6      58.566  49.796 109.352  1.00 40.83 LIG-0.29  OA
ENDBRANCH 52 59
ENDBRANCH 50 52
ENDBRANCH 35 48
ENDBRANCH 32 35
ENDBRANCH 1 31
BRANCH 1 61
ATOM     61  CB  PHE A   4      64.991  45.936 110.855  1.00  8.88 LIG 0.07  C 
BRANCH 61 62
ATOM     62  CG  PHE A   4      64.803  44.763 111.781  1.00  5.46 LIG-0.06  A 
ATOM     63  CD2 PHE A   4      64.809  43.462 111.291  1.00  6.98 LIG 0.01  A 
ATOM     64  CE2 PHE A   4      64.628  42.376 112.155  1.00  8.89 LIG 0.00  A 
ATOM     65  CZ  PHE A   4      64.435  42.602 113.517  1.00  4.47 LIG 0.00  A 
ATOM     66  CE1 PHE A   4      64.431  43.889 114.008  1.00  8.64 LIG 0.00  A 
ATOM     67  CD1 PHE A   4      64.600  44.966 113.140  1.00  9.90 LIG 0.01  A 
ENDBRANCH 61 62
ENDBRANCH 1 61
TORSDOF 25
