USER: ADFR SOLUTION from run 0
USER: SCORE 5.626755 LL:  -1.830 LR:  -5.283 RR:   0.000 FEB:  -2.599
USER: RMSD 0.567684
USER: STATUS Locally minimized using BFGS
USER: GENES 11
USER: genes 0 Translation |==|  0.36540 0.40276 0.54366
USER: genes 1 Rotation |==|  0.49919 0.49146 0.47017 0.99904
USER: genes 2 Torsion [C]-N--CA-[CB] |==|  0.43127
USER: genes 3 Torsion [N]-CA--C-[N] |==|  0.46562
USER: genes 4 Torsion [C]-N--CA-[C] |==|  0.83661
USER: genes 5 Torsion [N]-CA--CB-[CG1] |==|  0.49471
USER: genes 6 Torsion [N]-CA--C-[O] |==|  0.39698
USER: genes 7 Torsion [N]-C--CA-[N] |==|  0.05349
USER: genes 8 Torsion [C]-CA--N-[C] |==|  0.65797
USER: genes 9 Torsion [N]-C--CA-[N] |==|  0.89996
USER: genes 10 Torsion [C]-CA--N-[H3] |==|  0.17830
ROOT
ATOM      1  C   ALA C   2      -7.991  16.867  32.565  1.00 14.06 LIG 0.24  C 
ATOM      2 O    ALA C   2      -8.262  15.765  32.097  1.00 12.98 LIG-0.27  OA
ATOM      3  N   ALA C   3      -7.354  17.803  31.875  1.00 13.94 LIG-0.35  N 
ATOM      4 H    ALA C   3      -7.157  18.579  32.190  1.00 13.94 LIG 0.16  HD
ENDROOT
BRANCH 3 5
ATOM      5  CA  ALA C   3      -6.927  17.586  30.494  1.00 13.65 LIG 0.17  C 
ATOM      6  CB  ALA C   3      -6.797  18.916  29.762  1.00 15.05 LIG 0.04  C 
BRANCH 5 7
ATOM      7  C   ALA C   3      -5.616  16.794  30.407  1.00 12.34 LIG 0.24  C 
ATOM      8  N   VAL C   4      -5.290  16.333  29.201  1.00 12.14 LIG-0.34  N 
ATOM      9 H    VAL C   4      -5.812  16.352  28.519  1.00 12.14 LIG 0.16  HD
ATOM     10 O    ALA C   3      -4.912  16.604  31.404  1.00 12.93 LIG-0.27  OA
BRANCH 8 11
ATOM     11  CA  VAL C   4      -3.982  15.746  28.948  1.00 11.36 LIG 0.19  C 
BRANCH 11 12
ATOM     12  CB  VAL C   4      -3.831  15.290  27.491  1.00 10.99 LIG 0.01  C 
ATOM     13  CG2 VAL C   4      -4.892  14.267  27.152  1.00 10.63 LIG 0.01  C 
ATOM     14  CG1 VAL C   4      -2.435  14.721  27.239  1.00  9.95 LIG 0.01  C 
ENDBRANCH 11 12
BRANCH 11 15
ATOM     15  C   VAL C   4      -2.924  16.797  29.275  1.00 12.38 LIG 0.20  C 
ATOM     16 O    VAL C   4      -1.865  16.425  29.804  1.00 12.95 LIG-0.65  OA
ATOM     17 OXT  VAL C   4      -3.113  17.997  29.000  1.00 15.04 LIG-0.65  OA
ENDBRANCH 11 15
ENDBRANCH 8 11
ENDBRANCH 5 7
ENDBRANCH 3 5
BRANCH 1 18
ATOM     18  CA  ALA C   2      -8.363  17.193  34.015  1.00 15.83 LIG 0.17  C 
ATOM     19  CB  ALA C   2      -9.704  16.574  34.406  1.00 17.22 LIG 0.04  C 
BRANCH 18 20
ATOM     20  N   ALA C   2      -8.363  18.628  34.298  1.00 18.67 LIG-0.35  N 
ATOM     21 H    ALA C   2      -8.883  19.090  33.791  1.00 18.67 LIG 0.16  HD
ATOM     22  C   ALA C   1      -7.609  19.152  35.266  1.00 21.34 LIG 0.25  C 
ATOM     23 O    ALA C   1      -6.880  18.466  35.997  1.00 22.28 LIG-0.27  OA
BRANCH 22 24
ATOM     24  CA  ALA C   1      -7.709  20.673  35.464  1.00 22.82 LIG 0.27  C 
ATOM     25  CB  ALA C   1      -8.854  21.019  36.426  1.00 23.12 LIG 0.05  C 
BRANCH 24 26
ATOM     26  N   ALA C   1      -7.881  21.409  34.179  1.00 23.94 LIG-0.07  N 
ATOM     27 H1   ALA C   1      -7.873  22.285  34.336  1.00 23.94 LIG 0.28  HD
ATOM     28 H3   ALA C   1      -8.657  21.182  33.808  1.00 23.94 LIG 0.28  HD
ATOM     29 H2   ALA C   1      -7.215  21.202  33.626  1.00 23.94 LIG 0.28  HD
ENDBRANCH 24 26
ENDBRANCH 22 24
ENDBRANCH 18 20
ENDBRANCH 1 18
TORSDOF 9
