USER: ADFR SOLUTION from run 0
USER: SCORE 24.856187 LL:  -3.809 LR: -22.203 RR:   0.000 FEB: -13.254
USER: RMSD 0.636306
USER: STATUS Locally minimized using BFGS
USER: GENES 32
USER: genes 0 Translation |==|  0.50482 0.39452 0.47200
USER: genes 1 Rotation |==|  0.50711 0.51686 0.50645 0.99962
USER: genes 2 Torsion [N]-CA--C-[N] |==|  0.45762
USER: genes 3 Torsion [C]-N--CA-[C] |==|  0.76381
USER: genes 4 Torsion [N]-CA--C-[N] |==|  0.39211
USER: genes 5 Torsion [C]-N--CA-[CB] |==|  0.48009
USER: genes 6 Torsion [N]-CA--C-[N] |==|  0.43070
USER: genes 7 Torsion [C]-N--CA-[CB] |==|  0.47160
USER: genes 8 Torsion [N]-CA--C-[O] |==|  0.85397
USER: genes 9 Torsion [N]-CA--CB-[OG1] |==|  0.16172
USER: genes 10 Torsion [CA]-CB--OG1-[HG1] |==|  0.53193
USER: genes 11 Torsion [N]-CA--CB-[CG] |==|  0.84041
USER: genes 12 Torsion [CA]-CB--CG-[CD] |==|  0.78422
USER: genes 13 Torsion [CB]-CG--CD-[NE2] |==|  0.45863
USER: genes 14 Torsion [C]-CA--CB-[CG] |==|  0.84896
USER: genes 15 Torsion [CA]-CB--CG-[CD] |==|  0.48391
USER: genes 16 Torsion [CB]-CG--CD-[CE] |==|  0.48263
USER: genes 17 Torsion [CG]-CD--CE-[NZ] |==|  0.50185
USER: genes 18 Torsion [CD]-CE--NZ-[HZ3] |==|  0.12469
USER: genes 19 Torsion [C]-CA--N-[C] |==|  0.58032
USER: genes 20 Torsion [N]-C--CA-[N] |==|  0.43751
USER: genes 21 Torsion [C]-CA--CB-[CG2] |==|  0.52030
USER: genes 22 Torsion [CA]-CB--OG1-[HG1] |==|  0.48858
USER: genes 23 Torsion [C]-CA--N-[C] |==|  0.64560
USER: genes 24 Torsion [N]-C--CA-[N] |==|  0.40861
USER: genes 25 Torsion [C]-CA--CB-[CG] |==|  0.48062
USER: genes 26 Torsion [CA]-CB--CG-[CD] |==|  0.45766
USER: genes 27 Torsion [CB]-CG--CD-[NE] |==|  0.80831
USER: genes 28 Torsion [CG]-CD--NE-[HE] |==|  0.78195
USER: genes 29 Torsion [C]-CA--N-[C] |==|  0.79519
USER: genes 30 Torsion [N]-C--CA-[N] |==|  0.38035
USER: genes 31 Torsion [C]-CA--N-[H2] |==|  0.87477
ROOT
ATOM      1  CA  LYS P   4      25.827 -33.772   8.877  1.00 25.22 LIG 0.18  C 
ENDROOT
BRANCH 1 2
ATOM      2  C   LYS P   4      24.309 -33.749   8.742  1.00 27.71 LIG 0.24  C 
ATOM      3  N   GLN P   5      23.698 -34.929   8.691  1.00 26.60 LIG-0.35  N 
ATOM      4 H    GLN P   5      24.111 -35.683   8.665  1.00 26.60 LIG 0.16  HD
ATOM      5 O    LYS P   4      23.702 -32.681   8.692  1.00 22.94 LIG-0.27  OA
BRANCH 3 6
ATOM      6  CA  GLN P   5      22.243 -35.036   8.677  1.00 30.64 LIG 0.18  C 
BRANCH 6 7
ATOM      7  C   GLN P   5      21.726 -35.005  10.109  1.00 34.53 LIG 0.24  C 
ATOM      8 O    GLN P   5      22.344 -35.585  11.002  1.00 31.76 LIG-0.27  OA
ATOM      9  N   THR P   6      20.602 -34.332  10.342  1.00 31.32 LIG-0.34  N 
ATOM     10 H    THR P   6      20.111 -33.971   9.736  1.00 31.32 LIG 0.16  HD
BRANCH 9 11
ATOM     11  CA  THR P   6      20.124 -34.170  11.714  1.00 35.73 LIG 0.20  C 
BRANCH 11 12
ATOM     12  C   THR P   6      19.716 -35.478  12.366  1.00 36.89 LIG 0.24  C 
ATOM     13 O    THR P   6      19.339 -36.431  11.686  1.00 31.31 LIG-0.27  OA
ATOM     14  N   ALA P   7      19.774 -35.493  13.696  1.00 39.63 LIG-0.35  N 
ATOM     15 H    ALA P   7      20.032 -34.821  14.167  1.00 39.63 LIG 0.16  HD
BRANCH 14 16
ATOM     16  CA  ALA P   7      19.405 -36.662  14.484  1.00 40.80 LIG 0.16  C 
ATOM     17  CB  ALA P   7      19.813 -36.461  15.933  1.00 41.57 LIG 0.04  C 
BRANCH 16 18
ATOM     18  C   ALA P   7      17.910 -36.951  14.388  1.00 41.43 LIG 0.22  C 
ATOM     19 O    ALA P   7      17.082 -36.067  14.626  1.00 42.77 LIG-0.29  OA
ENDBRANCH 16 18
ENDBRANCH 14 16
ENDBRANCH 11 12
BRANCH 11 20
ATOM     20  CB  THR P   6      18.928 -33.231  11.798  1.00 30.67 LIG 0.15  C 
ATOM     21  CG2 THR P   6      19.326 -31.853  11.338  1.00 25.27 LIG 0.04  C 
BRANCH 20 22
ATOM     22 OG1  THR P   6      17.867 -33.736  10.977  1.00 31.72 LIG-0.39  OA
ATOM     23 HG1  THR P   6      17.272 -33.149  10.896  1.00 31.72 LIG 0.21  HD
ENDBRANCH 20 22
ENDBRANCH 11 20
ENDBRANCH 9 11
ENDBRANCH 6 7
BRANCH 6 24
ATOM     24  CB  GLN P   5      21.789 -36.320   7.970  1.00 38.94 LIG 0.04  C 
BRANCH 24 25
ATOM     25  CG  GLN P   5      22.283 -36.464   6.530  1.00 42.79 LIG 0.10  C 
BRANCH 25 26
ATOM     26  CD  GLN P   5      21.501 -35.618   5.533  1.00 45.14 LIG 0.21  C 
ATOM     27  NE2 GLN P   5      22.056 -35.454   4.332  1.00 40.57 LIG-0.37  N 
ATOM     28 21HE GLN P   5      22.816 -35.816   4.157  1.00 40.57 LIG 0.16  HD
ATOM     29 22HE GLN P   5      21.654 -34.986   3.733  1.00 40.57 LIG 0.16  HD
ATOM     30 OE1  GLN P   5      20.415 -35.122   5.835  1.00 46.24 LIG-0.27  OA
ENDBRANCH 25 26
ENDBRANCH 24 25
ENDBRANCH 6 24
ENDBRANCH 3 6
ENDBRANCH 1 2
BRANCH 1 31
ATOM     31  CB  LYS P   4      26.219 -34.199  10.287  1.00 18.02 LIG 0.04  C 
BRANCH 31 32
ATOM     32  CG  LYS P   4      25.585 -33.364  11.375  1.00 21.69 LIG 0.00  C 
BRANCH 32 33
ATOM     33  CD  LYS P   4      25.906 -33.932  12.759  1.00 22.86 LIG 0.03  C 
BRANCH 33 34
ATOM     34  CE  LYS P   4      25.392 -32.996  13.851  1.00 21.56 LIG 0.23  C 
BRANCH 34 35
ATOM     35  NZ  LYS P   4      25.700 -33.509  15.222  1.00 19.01 LIG-0.08  N 
ATOM     36 HZ2  LYS P   4      25.152 -34.182  15.418  1.00 19.01 LIG 0.27  HD
ATOM     37 HZ1  LYS P   4      25.590 -32.855  15.816  1.00 19.01 LIG 0.27  HD
ATOM     38 HZ3  LYS P   4      26.543 -33.795  15.249  1.00 19.01 LIG 0.27  HD
ENDBRANCH 34 35
ENDBRANCH 33 34
ENDBRANCH 32 33
ENDBRANCH 31 32
ENDBRANCH 1 31
BRANCH 1 39
ATOM     39  N   LYS P   4      26.373 -32.460   8.560  1.00 21.49 LIG-0.35  N 
ATOM     40 H    LYS P   4      25.839 -31.808   8.730  1.00 21.49 LIG 0.16  HD
ATOM     41  C   THR P   3      27.587 -32.303   8.056  1.00 20.06 LIG 0.24  C 
ATOM     42 O    THR P   3      28.410 -33.209   7.991  1.00 20.20 LIG-0.27  OA
BRANCH 41 43
ATOM     43  CA  THR P   3      27.933 -30.895   7.577  1.00 21.79 LIG 0.20  C 
BRANCH 43 44
ATOM     44  CB  THR P   3      27.282 -30.643   6.195  1.00 23.67 LIG 0.15  C 
ATOM     45  CG2 THR P   3      27.762 -29.309   5.612  1.00 27.17 LIG 0.04  C 
BRANCH 44 46
ATOM     46 OG1  THR P   3      27.598 -31.716   5.297  1.00 23.16 LIG-0.39  OA
ATOM     47 HG1  THR P   3      27.196 -31.601   4.569  1.00 23.16 LIG 0.21  HD
ENDBRANCH 44 46
ENDBRANCH 43 44
BRANCH 43 48
ATOM     48  N   THR P   3      29.376 -30.697   7.547  1.00 19.24 LIG-0.34  N 
ATOM     49 H    THR P   3      29.811 -31.297   7.111  1.00 19.24 LIG 0.16  HD
ATOM     50  C   ARG P   2      29.940 -29.656   8.159  1.00 23.72 LIG 0.24  C 
ATOM     51 O    ARG P   2      29.298 -28.751   8.704  1.00 20.72 LIG-0.27  OA
BRANCH 50 52
ATOM     52  CA  ARG P   2      31.450 -29.605   8.160  1.00 19.94 LIG 0.18  C 
BRANCH 52 53
ATOM     53  CB  ARG P   2      31.998 -30.303   9.406  1.00 20.09 LIG 0.04  C 
BRANCH 53 54
ATOM     54  CG  ARG P   2      33.518 -30.449   9.410  1.00 23.61 LIG 0.02  C 
BRANCH 54 55
ATOM     55  CD  ARG P   2      34.060 -30.799  10.801  1.00 28.00 LIG 0.14  C 
BRANCH 55 56
ATOM     56  NE  ARG P   2      33.915 -29.682  11.734  1.00 23.66 LIG-0.23  N 
ATOM     57  CZ  ARG P   2      32.960 -29.594  12.659  1.00 25.68 LIG 0.67  C 
ATOM     58  NH1 ARG P   2      32.063 -30.568  12.796  1.00 22.73 LIG-0.23  N 
ATOM     59  NH2 ARG P   2      32.898 -28.530  13.450  1.00 20.68 LIG-0.23  N 
ATOM     60 2HH1 ARG P   2      31.449 -30.507  13.394  1.00 22.73 LIG 0.17  HD
ATOM     61 1HH1 ARG P   2      32.099 -31.260  12.286  1.00 22.73 LIG 0.17  HD
ATOM     62 2HH2 ARG P   2      32.281 -28.472  14.047  1.00 20.68 LIG 0.17  HD
ATOM     63 1HH2 ARG P   2      33.475 -27.898  13.366  1.00 20.68 LIG 0.17  HD
ATOM     64 HE   ARG P   2      34.485 -29.040  11.682  1.00 23.66 LIG 0.18  HD
ENDBRANCH 55 56
ENDBRANCH 54 55
ENDBRANCH 53 54
ENDBRANCH 52 53
BRANCH 52 65
ATOM     65  N   ARG P   2      31.860 -28.205   8.112  1.00 18.68 LIG-0.35  N 
ATOM     66  C   ALA P   1      31.743 -27.504   6.986  1.00 22.59 LIG 0.25  C 
ATOM     67 O    ALA P   1      31.437 -28.022   5.909  1.00 23.11 LIG-0.27  OA
ATOM     68 H    ARG P   2      32.170 -27.892   8.850  1.00 18.68 LIG 0.16  HD
BRANCH 66 69
ATOM     69  CA  ALA P   1      32.002 -26.007   7.074  1.00 20.73 LIG 0.27  C 
ATOM     70  CB  ALA P   1      30.677 -25.245   7.126  1.00 22.81 LIG 0.05  C 
BRANCH 69 71
ATOM     71  N   ALA P   1      32.808 -25.550   5.946  1.00 20.88 LIG-0.07  N 
ATOM     72 H1   ALA P   1      33.128 -24.738   6.120  1.00 20.88 LIG 0.28  HD
ATOM     73 H2   ALA P   1      33.483 -26.114   5.816  1.00 20.88 LIG 0.28  HD
ATOM     74 H3   ALA P   1      32.303 -25.519   5.214  1.00 20.88 LIG 0.28  HD
ENDBRANCH 69 71
ENDBRANCH 66 69
ENDBRANCH 52 65
ENDBRANCH 50 52
ENDBRANCH 43 48
ENDBRANCH 41 43
ENDBRANCH 1 39
TORSDOF 30
