REMARK  19 active torsions:
REMARK  status: ('A' for Active; 'I' for Inactive)
REMARK    1  A    between atoms: CA_2  and  C_3 
REMARK    2  A    between atoms: CA_2  and  CB_5 
REMARK       I    between atoms: C_3  and  N_8 
REMARK    3  A    between atoms: N_8  and  CA_9 
REMARK    4  A    between atoms: CA_9  and  C_10 
REMARK    5  A    between atoms: CA_9  and  CB_12 
REMARK       I    between atoms: C_10  and  N_17 
REMARK    6  A    between atoms: CB_12  and  CG_13 
REMARK    7  A    between atoms: N_17  and  CA_18 
REMARK    8  A    between atoms: CA_18  and  CB_21 
REMARK    9  A    between atoms: CA_18  and  C_19 
REMARK       I    between atoms: C_19  and  N_26 
REMARK   10  A    between atoms: CB_21  and  CG_22 
REMARK   11  A    between atoms: N_26  and  CA_27 
REMARK   12  A    between atoms: CA_27  and  C_28 
REMARK   13  A    between atoms: CA_27  and  CB_30 
REMARK       I    between atoms: C_28  and  N_35 
REMARK   14  A    between atoms: CB_30  and  CG_31 
REMARK   15  A    between atoms: N_35  and  CA_36 
REMARK   16  A    between atoms: CA_36  and  CB_39 
REMARK   17  A    between atoms: CA_36  and  C_37 
REMARK   18  A    between atoms: CB_39  and  CG_40 
REMARK   19  A    between atoms: CG_40  and  SD_41 
ROOT
ATOM      1  CA  ASP E 180       2.506 -27.941  26.096  1.00 46.29     0.186 C 
ENDROOT
BRANCH   1   2
ATOM      2  CB  ASP E 180       1.307 -28.766  25.640  1.00 53.57     0.147 C 
BRANCH   2   3
ATOM      3  CG  ASP E 180       0.314 -27.954  24.842  1.00 52.91     0.175 C 
ATOM      4  OD1 ASP E 180       0.415 -27.950  23.595  1.00 53.16    -0.648 OA
ATOM      5  OD2 ASP E 180      -0.571 -27.326  25.459  1.00 39.91    -0.648 OA
ENDBRANCH   2   3
ENDBRANCH   1   2
BRANCH   1   6
ATOM      6  C   ASP E 180       2.258 -27.398  27.510  1.00 46.16     0.241 C 
ATOM      7  O   ASP E 180       2.003 -28.166  28.440  1.00 47.92    -0.271 OA
ATOM      8  N   ASP E 181       2.331 -26.082  27.681  1.00 48.75    -0.345 N 
ATOM      9  H   ASP E 181       2.458 -25.513  27.049  1.00 48.75     0.163 HD
BRANCH   8  10
ATOM     10  CA  ASP E 181       2.192 -25.506  29.015  1.00 45.01     0.186 C 
BRANCH  10  11
ATOM     11  C   ASP E 181       1.102 -24.441  29.093  1.00 47.33     0.241 C 
ATOM     12  O   ASP E 181       1.074 -23.487  28.305  1.00 41.27    -0.271 OA
ATOM     13  N   MET E 182       0.217 -24.613  30.071  1.00 63.00    -0.347 N 
ATOM     14  H   MET E 182       0.275 -25.240  30.656  1.00 63.00     0.163 HD
BRANCH  13  15
ATOM     15  CA  MET E 182      -0.942 -23.750  30.245  1.00 43.88     0.163 C 
BRANCH  15  16
ATOM     16  CB  MET E 182      -2.098 -24.246  29.377  1.00 44.38     0.043 C 
BRANCH  16  17
ATOM     17  CG  MET E 182      -2.471 -25.694  29.624  1.00 63.17     0.076 C 
BRANCH  17  18
ATOM     18  SD  MET E 182      -4.022 -26.153  28.831  1.00101.17    -0.173 SA
ATOM     19  CE  MET E 182      -4.275 -27.790  29.515  1.00 68.91     0.089 C 
ENDBRANCH  17  18
ENDBRANCH  16  17
ENDBRANCH  15  16
BRANCH  15  20
ATOM     20  C   MET E 182      -1.374 -23.682  31.711  1.00 60.82     0.219 C 
ATOM     21  O   MET E 182      -1.744 -24.693  32.317  1.00 58.83    -0.287 OA
ENDBRANCH  15  20
ENDBRANCH  13  15
ENDBRANCH  10  11
BRANCH  10  22
ATOM     22  CB  ASP E 181       3.528 -24.923  29.473  1.00 40.72     0.147 C 
BRANCH  22  23
ATOM     23  CG  ASP E 181       4.706 -25.757  29.014  1.00 40.82     0.175 C 
ATOM     24  OD1 ASP E 181       5.280 -26.503  29.839  1.00 47.44    -0.648 OA
ATOM     25  OD2 ASP E 181       5.047 -25.669  27.818  1.00 24.37    -0.648 OA
ENDBRANCH  22  23
ENDBRANCH  10  22
ENDBRANCH   8  10
ENDBRANCH   1   6
BRANCH   1  26
ATOM     26  N   ASP E 180       3.743 -28.728  26.084  1.00 48.48    -0.345 N 
ATOM     27  C   ASP E 179       3.996 -29.765  25.282  1.00 52.76     0.241 C 
ATOM     28  O   ASP E 179       3.205 -30.218  24.454  1.00 54.54    -0.271 OA
ATOM     29  H   ASP E 180       4.315 -28.451  26.663  1.00 48.48     0.163 HD
BRANCH  27  30
ATOM     30  CA  ASP E 179       5.382 -30.382  25.458  1.00 62.98     0.186 C 
BRANCH  30  31
ATOM     31  N   ASP E 179       6.056 -30.778  24.218  1.00 68.60    -0.345 N 
ATOM     32  C   VAL E 178       6.199 -29.957  23.178  1.00 59.78     0.257 C 
ATOM     33  O   VAL E 178       5.599 -28.885  23.077  1.00 49.42    -0.271 OA
ATOM     34  H   ASP E 179       6.349 -31.586  24.225  1.00 68.60     0.163 HD
BRANCH  32  35
ATOM     35  CA  VAL E 178       7.144 -30.435  22.071  1.00 59.92     0.403 C 
ATOM     36  N   VAL E 178       6.662 -30.062  20.745  1.00 55.12     0.615 N 
BRANCH  35  37
ATOM     37  CB  VAL E 178       8.562 -29.866  22.337  1.00 50.97     0.026 C 
ATOM     38  CG2 VAL E 178       8.490 -28.479  22.959  1.00 47.22     0.012 C 
ATOM     39  CG1 VAL E 178       9.358 -29.829  21.050  1.00 50.59     0.012 C 
ENDBRANCH  35  37
ENDBRANCH  32  35
ENDBRANCH  30  31
BRANCH  30  40
ATOM     40  CB  ASP E 179       6.259 -29.390  26.221  1.00 47.75     0.147 C 
BRANCH  40  41
ATOM     41  CG  ASP E 179       6.658 -29.903  27.582  1.00 48.80     0.175 C 
ATOM     42  OD2 ASP E 179       5.822 -29.846  28.516  1.00 55.56    -0.648 OA
ATOM     43  OD1 ASP E 179       7.809 -30.365  27.713  1.00 40.87    -0.648 OA
ENDBRANCH  40  41
ENDBRANCH  30  40
ENDBRANCH  27  30
ENDBRANCH   1  26
TORSDOF 19
