REMARK  16 active torsions:
REMARK  status: ('A' for Active; 'I' for Inactive)
REMARK    1  A    between atoms: CA_2  and  C_3 
REMARK       I    between atoms: C_3  and  N_5 
REMARK    2  A    between atoms: N_5  and  CA_6 
REMARK    3  A    between atoms: CA_6  and  CB_9 
REMARK    4  A    between atoms: CA_6  and  C_7 
REMARK       I    between atoms: C_7  and  N_13 
REMARK    5  A    between atoms: N_13  and  CA_14 
REMARK    6  A    between atoms: CA_14  and  CB_17 
REMARK    7  A    between atoms: CA_14  and  C_15 
REMARK       I    between atoms: C_15  and  N_22 
REMARK    8  A    between atoms: CB_17  and  CG_18 
REMARK    9  A    between atoms: N_22  and  CA_23 
REMARK   10  A    between atoms: CA_23  and  C_24 
REMARK   11  A    between atoms: CA_23  and  CB_26 
REMARK       I    between atoms: C_24  and  N_31 
REMARK   12  A    between atoms: CB_26  and  CG_27 
REMARK   13  A    between atoms: N_31  and  CA_32 
REMARK   14  A    between atoms: CA_32  and  CB_35 
REMARK   15  A    between atoms: CA_32  and  C_33 
REMARK   16  A    between atoms: CB_35  and  CG_36 
ROOT
ATOM      1  C   ASP D 179      72.126 -26.216  78.903  1.00 41.71     0.241 C 
ATOM      2  O   ASP D 179      71.787 -27.144  79.637  1.00 47.20    -0.271 OA
ATOM      3  N   ASP D 180      72.362 -24.979  79.339  1.00 48.22    -0.345 N 
ATOM      4  H   ASP D 180      72.671 -24.356  78.833  1.00 48.22     0.163 HD
ENDROOT
BRANCH   1   5
ATOM      5  CA  ASP D 179      72.318 -26.417  77.399  1.00 44.60     0.186 C 
BRANCH   5   6
ATOM      6  CB  ASP D 179      71.239 -27.332  76.810  1.00 48.27     0.147 C 
BRANCH   6   7
ATOM      7  CG  ASP D 179      69.870 -26.660  76.773  1.00 46.68     0.175 C 
ATOM      8  OD1 ASP D 179      69.719 -25.566  77.362  1.00 58.91    -0.648 OA
ATOM      9  OD2 ASP D 179      68.944 -27.207  76.139  1.00 62.78    -0.648 OA
ENDBRANCH   6   7
ENDBRANCH   5   6
BRANCH   5  10
ATOM     10  N   ASP D 179      73.686 -26.883  77.136  1.00 43.40    -0.345 N 
ATOM     11  H   ASP D 179      74.192 -26.246  76.857  1.00 43.40     0.163 HD
ATOM     12  C   VAL D 178      74.155 -28.119  77.287  1.00 52.66     0.241 C 
ATOM     13  O   VAL D 178      73.454 -29.133  77.370  1.00 53.52    -0.271 OA
BRANCH  12  14
ATOM     14  CA  VAL D 178      75.685 -28.203  77.351  1.00 43.72     0.180 C 
BRANCH  14  15
ATOM     15  N   VAL D 178      76.118 -29.463  77.924  1.00 54.34    -0.346 N 
ATOM     16  C   GLY D 177      76.114 -29.691  79.233  1.00 48.99     0.252 C 
ATOM     17  O   GLY D 177      76.466 -30.762  79.708  1.00 61.87    -0.271 OA
ATOM     18  H   VAL D 178      76.375 -30.042  77.342  1.00 54.34     0.163 HD
BRANCH  16  19
ATOM     19  CA  GLY D 177      75.636 -28.573  80.144  1.00 38.66     0.466 C 
ATOM     20  N   GLY D 177      74.347 -28.876  80.742  1.00 37.02     0.609 N 
ENDBRANCH  16  19
ENDBRANCH  14  15
BRANCH  14  21
ATOM     21  CB  VAL D 178      76.314 -27.993  75.957  1.00 39.80     0.009 C 
ATOM     22  CG2 VAL D 178      75.652 -28.886  74.930  1.00 46.96     0.012 C 
ATOM     23  CG1 VAL D 178      77.811 -28.302  76.019  1.00 37.07     0.012 C 
ENDBRANCH  14  21
ENDBRANCH  12  14
ENDBRANCH   5  10
ENDBRANCH   1   5
BRANCH   3  24
ATOM     24  CA  ASP D 180      72.124 -24.549  80.715  1.00 47.37     0.186 C 
BRANCH  24  25
ATOM     25  C   ASP D 180      71.078 -23.436  80.712  1.00 52.09     0.241 C 
ATOM     26  O   ASP D 180      71.100 -22.561  79.843  1.00 46.90    -0.271 OA
ATOM     27  N   ASP D 181      70.172 -23.454  81.683  1.00 56.67    -0.347 N 
ATOM     28  H   ASP D 181      70.139 -24.046  82.306  1.00 56.67     0.163 HD
BRANCH  27  29
ATOM     29  CA  ASP D 181      69.137 -22.431  81.756  1.00 54.32     0.172 C 
BRANCH  29  30
ATOM     30  CB  ASP D 181      67.759 -23.078  81.882  1.00 57.98     0.146 C 
BRANCH  30  31
ATOM     31  CG  ASP D 181      67.362 -23.843  80.639  1.00 59.80     0.174 C 
ATOM     32  OD2 ASP D 181      66.587 -24.816  80.760  1.00 65.59    -0.648 OA
ATOM     33  OD1 ASP D 181      67.826 -23.473  79.540  1.00 62.88    -0.648 OA
ENDBRANCH  30  31
ENDBRANCH  29  30
BRANCH  29  34
ATOM     34  C   ASP D 181      69.379 -21.472  82.916  1.00 55.94     0.220 C 
ATOM     35  O   ASP D 181      69.337 -20.251  82.743  1.00 49.69    -0.287 OA
ENDBRANCH  29  34
ENDBRANCH  27  29
ENDBRANCH  24  25
BRANCH  24  36
ATOM     36  CB  ASP D 180      73.409 -24.038  81.369  1.00 41.39     0.147 C 
BRANCH  36  37
ATOM     37  CG  ASP D 180      74.638 -24.814  80.940  1.00 35.24     0.175 C 
ATOM     38  OD1 ASP D 180      75.054 -25.740  81.670  1.00 51.10    -0.648 OA
ATOM     39  OD2 ASP D 180      75.174 -24.510  79.853  1.00 19.64    -0.648 OA
ENDBRANCH  36  37
ENDBRANCH  24  36
ENDBRANCH   3  24
TORSDOF 16
