USER: ADFR SOLUTION from run 0
USER: SCORE 7.483724 LL:  -2.642 LR:  -7.637 RR:   0.000 FEB:  -2.864
USER: RMSD 0.787125
USER: STATUS Locally minimized using BFGS
USER: GENES 18
USER: genes 0 Translation |==|  0.50972 0.47590 0.49415
USER: genes 1 Rotation |==|  0.48383 0.52262 0.48015 0.99883
USER: genes 2 Torsion [N]-C--CA-[N] |==|  0.21953
USER: genes 3 Torsion [C]-CA--CB-[CG] |==|  0.22382
USER: genes 4 Torsion [CA]-CB--CG-[OD1] |==|  0.98462
USER: genes 5 Torsion [C]-CA--N-[C] |==|  0.22004
USER: genes 6 Torsion [N]-C--CA-[N] |==|  0.43479
USER: genes 7 Torsion [C]-CA--N-[C] |==|  0.81666
USER: genes 8 Torsion [N]-C--CA-[N] |==|  0.29207
USER: genes 9 Torsion [C]-CA--CB-[CG1] |==|  0.50949
USER: genes 10 Torsion [C]-N--CA-[CB] |==|  0.33842
USER: genes 11 Torsion [N]-CA--C-[N] |==|  0.37079
USER: genes 12 Torsion [C]-N--CA-[CB] |==|  0.35898
USER: genes 13 Torsion [N]-CA--CB-[CG] |==|  0.80139
USER: genes 14 Torsion [CA]-CB--CG-[OD2] |==|  0.41537
USER: genes 15 Torsion [N]-CA--C-[O] |==|  0.37459
USER: genes 16 Torsion [N]-CA--CB-[CG] |==|  0.87688
USER: genes 17 Torsion [CA]-CB--CG-[OD1] |==|  0.71355
ROOT
ATOM      1  C   ASP D 179      72.389 -25.959  78.826  1.00 41.71 LIG 0.24  C 
ATOM      2 O    ASP D 179      72.049 -26.809  79.649  1.00 47.20 LIG-0.27  OA
ATOM      3  N   ASP D 180      72.758 -24.721  79.155  1.00 48.22 LIG-0.34  N 
ATOM      4 H    ASP D 180      73.065 -24.158  78.582  1.00 48.22 LIG 0.16  HD
ENDROOT
BRANCH 1 5
ATOM      5  CA  ASP D 179      72.424 -26.266  77.329  1.00 44.60 LIG 0.19  C 
BRANCH 5 6
ATOM      6  CB  ASP D 179      71.449 -27.390  76.960  1.00 48.27 LIG 0.15  C 
BRANCH 6 7
ATOM      7  CG  ASP D 179      70.015 -26.887  76.826  1.00 46.68 LIG 0.17  C 
ATOM      8 OD1  ASP D 179      69.763 -25.697  77.120  1.00 58.91 LIG-0.65  OA
ATOM      9 OD2  ASP D 179      69.137 -27.669  76.406  1.00 62.78 LIG-0.65  OA
ENDBRANCH 6 7
ENDBRANCH 5 6
BRANCH 5 10
ATOM     10  N   ASP D 179      73.808 -26.535  76.915  1.00 43.40 LIG-0.34  N 
ATOM     11 H    ASP D 179      74.164 -25.853  76.530  1.00 43.40 LIG 0.16  HD
ATOM     12  C   VAL D 178      74.489 -27.666  77.080  1.00 52.66 LIG 0.24  C 
ATOM     13 O    VAL D 178      73.980 -28.766  77.321  1.00 53.52 LIG-0.27  OA
BRANCH 12 14
ATOM     14  CA  VAL D 178      76.008 -27.506  76.944  1.00 43.72 LIG 0.18  C 
BRANCH 14 15
ATOM     15  N   VAL D 178      76.712 -28.563  77.643  1.00 54.34 LIG-0.35  N 
ATOM     16  C   GLY D 177      76.677 -28.692  78.965  1.00 48.99 LIG 0.25  C 
ATOM     17 O    GLY D 177      77.261 -29.596  79.547  1.00 61.87 LIG-0.27  OA
ATOM     18 H    VAL D 178      77.151 -29.093  77.126  1.00 54.34 LIG 0.16  HD
BRANCH 16 19
ATOM     19  CA  GLY D 177      75.863 -27.679  79.752  1.00 38.66 LIG 0.47  C 
ATOM     20  N   GLY D 177      74.613 -28.243  80.230  1.00 37.02 LIG 0.61  N 
ENDBRANCH 16 19
ENDBRANCH 14 15
BRANCH 14 21
ATOM     21  CB  VAL D 178      76.433 -27.456  75.460  1.00 39.80 LIG 0.01  C 
ATOM     22  CG2 VAL D 178      75.936 -28.679  74.719  1.00 46.96 LIG 0.01  C 
ATOM     23  CG1 VAL D 178      77.958 -27.382  75.366  1.00 37.07 LIG 0.01  C 
ENDBRANCH 14 21
ENDBRANCH 12 14
ENDBRANCH 5 10
ENDBRANCH 1 5
BRANCH 3 24
ATOM     24  CA  ASP D 180      72.682 -24.190  80.514  1.00 47.37 LIG 0.19  C 
BRANCH 24 25
ATOM     25  C   ASP D 180      71.709 -23.013  80.532  1.00 52.09 LIG 0.24  C 
ATOM     26 O    ASP D 180      71.780 -22.131  79.673  1.00 46.90 LIG-0.27  OA
ATOM     27  N   ASP D 181      70.810 -22.986  81.510  1.00 56.67 LIG-0.35  N 
ATOM     28 H    ASP D 181      70.744 -23.582  82.126  1.00 56.67 LIG 0.16  HD
BRANCH 27 29
ATOM     29  CA  ASP D 181      69.842 -21.900  81.603  1.00 54.32 LIG 0.17  C 
BRANCH 29 30
ATOM     30  CB  ASP D 181      68.428 -22.461  81.745  1.00 57.98 LIG 0.15  C 
BRANCH 30 31
ATOM     31  CG  ASP D 181      67.922 -23.090  80.466  1.00 59.80 LIG 0.17  C 
ATOM     32 OD2  ASP D 181      67.116 -24.041  80.548  1.00 65.59 LIG-0.65  OA
ATOM     33 OD1  ASP D 181      68.332 -22.634  79.377  1.00 62.88 LIG-0.65  OA
ENDBRANCH 30 31
ENDBRANCH 29 30
BRANCH 29 34
ATOM     34  C   ASP D 181      70.160 -20.965  82.764  1.00 55.94 LIG 0.22  C 
ATOM     35 O    ASP D 181      70.123 -19.741  82.615  1.00 49.69 LIG-0.29  OA
ENDBRANCH 29 34
ENDBRANCH 27 29
ENDBRANCH 24 25
BRANCH 24 36
ATOM     36  CB  ASP D 180      74.053 -23.724  81.007  1.00 41.39 LIG 0.15  C 
BRANCH 36 37
ATOM     37  CG  ASP D 180      75.161 -24.706  80.683  1.00 35.24 LIG 0.17  C 
ATOM     38 OD1  ASP D 180      75.602 -25.442  81.593  1.00 51.10 LIG-0.65  OA
ATOM     39 OD2  ASP D 180      75.574 -24.757  79.505  1.00 19.64 LIG-0.65  OA
ENDBRANCH 36 37
ENDBRANCH 24 36
ENDBRANCH 3 24
TORSDOF 16
