USER: ADFR SOLUTION from run 0
USER: SCORE 15.297552 LL:  -1.325 LR: -16.883 RR:   0.000 FEB:  -8.232
USER: RMSD 0.509094
USER: STATUS Locally minimized using BFGS
USER: GENES 31
USER: genes 0 Translation |==|  0.45211 0.48094 0.40820
USER: genes 1 Rotation |==|  0.49259 0.49942 0.49292 0.99989
USER: genes 2 Torsion [C]-CA--CB-[CG] |==|  0.45151
USER: genes 3 Torsion [CA]-CB--CG-[CD] |==|  0.49126
USER: genes 4 Torsion [CB]-CG--CD-[NE] |==|  0.84787
USER: genes 5 Torsion [CG]-CD--NE-[HE] |==|  0.86891
USER: genes 6 Torsion [N]-CA--C-[N] |==|  0.29075
USER: genes 7 Torsion [C]-N--CA-[CB] |==|  0.44120
USER: genes 8 Torsion [N]-CA--CB-[CG] |==|  0.79250
USER: genes 9 Torsion [CA]-CB--CG-[CD] |==|  0.48972
USER: genes 10 Torsion [CB]-CG--CD-[CE] |==|  0.51017
USER: genes 11 Torsion [CG]-CD--CE-[NZ] |==|  0.78203
USER: genes 12 Torsion [CD]-CE--NZ-[HZ2] |==|  0.83959
USER: genes 13 Torsion [N]-CA--C-[N] |==|  0.45400
USER: genes 14 Torsion [C]-N--CA-[CB] |==|  0.50306
USER: genes 15 Torsion [N]-CA--C-[O] |==|  0.34792
USER: genes 16 Torsion [N]-CA--CB-[CG1] |==|  0.47749
USER: genes 17 Torsion [CB]-CA--N-[C] |==|  0.36720
USER: genes 18 Torsion [N]-C--CA-[N] |==|  0.38608
USER: genes 19 Torsion [C]-CA--CB-[CG] |==|  0.50245
USER: genes 20 Torsion [CA]-CB--CG-[CD] |==|  0.82657
USER: genes 21 Torsion [CB]-CG--CD-[CE] |==|  0.53730
USER: genes 22 Torsion [CG]-CD--CE-[NZ] |==|  0.24771
USER: genes 23 Torsion [CD]-CE--NZ-[HZ1] |==|  0.44118
USER: genes 24 Torsion [C]-CA--N-[C] |==|  0.73545
USER: genes 25 Torsion [N]-C--CA-[N] |==|  0.99180
USER: genes 26 Torsion [C]-CA--CB-[CG] |==|  0.22245
USER: genes 27 Torsion [CA]-CB--CG-[CD] |==|  0.51795
USER: genes 28 Torsion [CB]-CG--CD-[CE] |==|  0.48910
USER: genes 29 Torsion [CG]-CD--CE-[NZ] |==|  0.55065
USER: genes 30 Torsion [CD]-CE--NZ-[HZ2] |==|  0.84265
ROOT
ATOM      1  CA  ARG A 130     -31.852  86.316 200.885  1.00 33.49 LIG 0.18  C 
ENDROOT
BRANCH 1 2
ATOM      2  CB  ARG A 130     -30.815  85.466 200.148  1.00 35.16 LIG 0.04  C 
BRANCH 2 3
ATOM      3  CG  ARG A 130     -30.406  85.976 198.781  1.00 39.71 LIG 0.02  C 
BRANCH 3 4
ATOM      4  CD  ARG A 130     -29.316  85.084 198.190  1.00 38.05 LIG 0.14  C 
BRANCH 4 5
ATOM      5  NE  ARG A 130     -28.170  84.955 199.092  1.00 39.97 LIG-0.23  N 
ATOM      6 HE   ARG A 130     -27.854  85.673 199.445  1.00 39.97 LIG 0.18  HD
ATOM      7  CZ  ARG A 130     -27.582  83.803 199.402  1.00 35.35 LIG 0.67  C 
ATOM      8  NH1 ARG A 130     -28.017  82.664 198.876  1.00 35.08 LIG-0.23  N 
ATOM      9  NH2 ARG A 130     -26.551  83.788 200.234  1.00 36.08 LIG-0.23  N 
ATOM     10 2HH1 ARG A 130     -27.633  81.923 199.081  1.00 35.08 LIG 0.17  HD
ATOM     11 1HH1 ARG A 130     -28.682  82.669 198.331  1.00 35.08 LIG 0.17  HD
ATOM     12 1HH2 ARG A 130     -26.262  84.523 200.572  1.00 36.08 LIG 0.17  HD
ATOM     13 2HH2 ARG A 130     -26.171  83.043 200.435  1.00 36.08 LIG 0.17  HD
ENDBRANCH 4 5
ENDBRANCH 3 4
ENDBRANCH 2 3
ENDBRANCH 1 2
BRANCH 1 14
ATOM     14  C   ARG A 130     -32.468  85.487 201.996  1.00 35.02 LIG 0.24  C 
ATOM     15  N   LYS A 131     -33.794  85.497 202.090  1.00 32.29 LIG-0.35  N 
ATOM     16 H    LYS A 131     -34.315  85.957 201.584  1.00 32.29 LIG 0.16  HD
ATOM     17 O    ARG A 130     -31.757  84.829 202.750  1.00 31.53 LIG-0.27  OA
BRANCH 15 18
ATOM     18  CA  LYS A 131     -34.471  84.694 203.097  1.00 31.30 LIG 0.18  C 
BRANCH 18 19
ATOM     19  CB  LYS A 131     -35.881  85.249 203.360  1.00 33.79 LIG 0.04  C 
BRANCH 19 20
ATOM     20  CG  LYS A 131     -35.833  86.528 204.184  1.00 34.08 LIG 0.00  C 
BRANCH 20 21
ATOM     21  CD  LYS A 131     -37.169  87.165 204.400  1.00 36.35 LIG 0.03  C 
BRANCH 21 22
ATOM     22  CE  LYS A 131     -37.015  88.480 205.153  1.00 32.79 LIG 0.23  C 
BRANCH 22 23
ATOM     23  NZ  LYS A 131     -36.810  88.251 206.611  1.00 29.22 LIG-0.08  N 
ATOM     24 HZ3  LYS A 131     -36.056  87.795 206.737  1.00 29.22 LIG 0.27  HD
ATOM     25 HZ2  LYS A 131     -37.495  87.786 206.938  1.00 29.22 LIG 0.27  HD
ATOM     26 HZ1  LYS A 131     -36.756  89.033 207.031  1.00 29.22 LIG 0.27  HD
ENDBRANCH 22 23
ENDBRANCH 21 22
ENDBRANCH 20 21
ENDBRANCH 19 20
ENDBRANCH 18 19
BRANCH 18 27
ATOM     27  C   LYS A 131     -34.515  83.234 202.660  1.00 34.74 LIG 0.24  C 
ATOM     28  N   VAL A 132     -34.788  82.337 203.603  1.00 33.85 LIG-0.35  N 
ATOM     29 H    VAL A 132     -34.916  82.532 204.431  1.00 33.85 LIG 0.16  HD
ATOM     30 O    LYS A 131     -34.271  82.922 201.493  1.00 35.56 LIG-0.27  OA
BRANCH 28 31
ATOM     31  CA  VAL A 132     -34.893  80.914 203.292  1.00 36.14 LIG 0.17  C 
BRANCH 31 32
ATOM     32  C   VAL A 132     -35.944  80.643 202.212  1.00 41.88 LIG 0.22  C 
ATOM     33 O    VAL A 132     -35.637  80.019 201.190  1.00 46.22 LIG-0.29  OA
ENDBRANCH 31 32
BRANCH 31 34
ATOM     34  CB  VAL A 132     -35.244  80.083 204.548  1.00 35.83 LIG 0.01  C 
ATOM     35  CG1 VAL A 132     -35.544  78.638 204.163  1.00 39.48 LIG 0.01  C 
ATOM     36  CG2 VAL A 132     -34.115  80.134 205.549  1.00 35.02 LIG 0.01  C 
ENDBRANCH 31 34
ENDBRANCH 28 31
ENDBRANCH 18 27
ENDBRANCH 15 18
ENDBRANCH 1 14
BRANCH 1 37
ATOM     37  N   ARG A 130     -31.258  87.544 201.417  1.00 35.65 LIG-0.35  N 
ATOM     38 H    ARG A 130     -30.522  87.423 201.843  1.00 35.65 LIG 0.16  HD
ATOM     39  C   LYS A 129     -31.826  88.735 201.245  1.00 38.36 LIG 0.24  C 
ATOM     40 O    LYS A 129     -32.861  88.892 200.605  1.00 38.91 LIG-0.27  OA
BRANCH 39 41
ATOM     41  CA  LYS A 129     -31.133  89.927 201.901  1.00 41.62 LIG 0.18  C 
BRANCH 41 42
ATOM     42  CB  LYS A 129     -31.818  90.248 203.227  1.00 37.07 LIG 0.04  C 
BRANCH 42 43
ATOM     43  CG  LYS A 129     -31.233  91.435 203.976  1.00 37.25 LIG 0.00  C 
BRANCH 43 44
ATOM     44  CD  LYS A 129     -29.778  91.201 204.378  1.00 32.25 LIG 0.03  C 
BRANCH 44 45
ATOM     45  CE  LYS A 129     -29.342  92.249 205.394  1.00 33.17 LIG 0.23  C 
BRANCH 45 46
ATOM     46  NZ  LYS A 129     -29.606  91.843 206.811  1.00 31.02 LIG-0.08  N 
ATOM     47 HZ2  LYS A 129     -30.458  92.001 207.011  1.00 31.02 LIG 0.27  HD
ATOM     48 HZ3  LYS A 129     -29.435  90.975 206.908  1.00 31.02 LIG 0.27  HD
ATOM     49 HZ1  LYS A 129     -29.081  92.311 207.357  1.00 31.02 LIG 0.27  HD
ENDBRANCH 45 46
ENDBRANCH 44 45
ENDBRANCH 43 44
ENDBRANCH 42 43
ENDBRANCH 41 42
BRANCH 41 50
ATOM     50  N   LYS A 129     -31.119  91.106 201.036  1.00 48.91 LIG-0.35  N 
ATOM     51  C   LYS A 128     -30.077  91.393 200.256  1.00 46.33 LIG 0.26  C 
ATOM     52 O    LYS A 128     -29.091  90.666 200.160  1.00 48.39 LIG-0.27  OA
ATOM     53 H    LYS A 129     -31.831  91.585 201.078  1.00 48.91 LIG 0.16  HD
BRANCH 51 54
ATOM     54  CA  LYS A 128     -30.167  92.691 199.451  1.00 52.62 LIG 0.40  C 
ATOM     55  N   LYS A 128     -31.453  93.341 199.660  1.00 52.42 LIG 0.61  N 
BRANCH 54 56
ATOM     56  CB  LYS A 128     -29.020  93.635 199.836  1.00 53.69 LIG 0.05  C 
BRANCH 56 57
ATOM     57  CG  LYS A 128     -27.690  93.308 199.172  1.00 48.68 LIG 0.00  C 
BRANCH 57 58
ATOM     58  CD  LYS A 128     -26.572  94.181 199.718  1.00 52.15 LIG 0.03  C 
BRANCH 58 59
ATOM     59  CE  LYS A 128     -25.235  93.778 199.117  1.00 44.05 LIG 0.23  C 
BRANCH 59 60
ATOM     60  NZ  LYS A 128     -24.063  94.275 199.902  1.00 43.39 LIG-0.08  N 
ATOM     61 HZ1  LYS A 128     -23.310  94.055 199.482  1.00 43.39 LIG 0.27  HD
ATOM     62 HZ2  LYS A 128     -24.111  95.161 199.978  1.00 43.39 LIG 0.27  HD
ATOM     63 HZ3  LYS A 128     -24.070  93.907 200.711  1.00 43.39 LIG 0.27  HD
ENDBRANCH 59 60
ENDBRANCH 58 59
ENDBRANCH 57 58
ENDBRANCH 56 57
ENDBRANCH 54 56
ENDBRANCH 51 54
ENDBRANCH 41 50
ENDBRANCH 39 41
ENDBRANCH 1 37
TORSDOF 29
