USER: ADFR SOLUTION from run 0
USER: SCORE 14.718797 LL:  -4.199 LR: -12.458 RR:   0.000 FEB:  -4.702
USER: RMSD 0.472775
USER: STATUS Locally minimized using BFGS
USER: GENES 28
USER: genes 0 Translation |==|  0.54511 0.58823 0.58211
USER: genes 1 Rotation |==|  0.47053 0.52042 0.51840 0.99837
USER: genes 2 Torsion [N]-CA--C-[N] |==|  0.38560
USER: genes 3 Torsion [C]-N--CA-[CB] |==|  0.33112
USER: genes 4 Torsion [N]-CA--CB-[CG] |==|  0.18071
USER: genes 5 Torsion [CA]-CB--CG-[CD] |==|  0.49683
USER: genes 6 Torsion [CB]-CG--CD-[OE1] |==|  0.91992
USER: genes 7 Torsion [N]-CA--C-[N] |==|  0.44801
USER: genes 8 Torsion [C]-N--CA-[CB] |==|  0.47034
USER: genes 9 Torsion [N]-CA--C-[O] |==|  0.39623
USER: genes 10 Torsion [N]-CA--CB-[CG] |==|  0.49534
USER: genes 11 Torsion [CA]-CB--CG-[CD1] |==|  0.74713
USER: genes 12 Torsion [CE1]-CZ--OH-[HH] |==|  0.49919
USER: genes 13 Torsion [C]-CA--CB-[OG] |==|  0.50204
USER: genes 14 Torsion [CA]-CB--OG-[HG] |==|  0.49981
USER: genes 15 Torsion [C]-CA--N-[C] |==|  0.73675
USER: genes 16 Torsion [N]-C--CA-[N] |==|  0.88862
USER: genes 17 Torsion [C]-CA--CB-[CG1] |==|  0.13901
USER: genes 18 Torsion [C]-CA--N-[C] |==|  0.79332
USER: genes 19 Torsion [N]-C--CA-[N] |==|  0.36187
USER: genes 20 Torsion [C]-CA--CB-[CG] |==|  0.44524
USER: genes 21 Torsion [CA]-CB--CG-[CD] |==|  0.46931
USER: genes 22 Torsion [CB]-CG--CD-[OE1] |==|  0.76974
USER: genes 23 Torsion [C]-CA--N-[C] |==|  0.84846
USER: genes 24 Torsion [N]-C--CA-[N] |==|  0.38803
USER: genes 25 Torsion [C]-CA--CB-[CG] |==|  0.53662
USER: genes 26 Torsion [CA]-CB--CG-[CD] |==|  0.86593
USER: genes 27 Torsion [CB]-CG--CD-[OE1] |==|  0.79759
ROOT
ATOM      1  CA  SER T 970      33.522  39.730  -7.770  1.00 53.81 LIG 0.20  C 
ENDROOT
BRANCH 1 2
ATOM      2  C   SER T 970      33.488  38.559  -8.744  1.00 54.98 LIG 0.24  C 
ATOM      3  N   GLU T 971      34.064  38.772  -9.919  1.00 36.24 LIG-0.35  N 
ATOM      4 H    GLU T 971      34.414  39.513 -10.181  1.00 36.24 LIG 0.16  HD
ATOM      5 O    SER T 970      32.995  37.461  -8.436  1.00 50.73 LIG-0.27  OA
BRANCH 3 6
ATOM      6  CA  GLU T 971      34.119  37.676 -10.857  1.00 34.69 LIG 0.18  C 
BRANCH 6 7
ATOM      7  CB  GLU T 971      33.375  38.005 -12.149  1.00 35.28 LIG 0.04  C 
BRANCH 7 8
ATOM      8  CG  GLU T 971      34.017  39.146 -12.935  1.00 38.63 LIG 0.12  C 
BRANCH 8 9
ATOM      9  CD  GLU T 971      33.280  39.447 -14.239  1.00 44.02 LIG 0.17  C 
ATOM     10 OE1  GLU T 971      32.664  38.523 -14.818  1.00 46.94 LIG-0.65  OA
ATOM     11 OE2  GLU T 971      33.318  40.611 -14.688  1.00 38.45 LIG-0.65  OA
ENDBRANCH 8 9
ENDBRANCH 7 8
ENDBRANCH 6 7
BRANCH 6 12
ATOM     12  C   GLU T 971      35.559  37.345 -11.167  1.00 38.38 LIG 0.24  C 
ATOM     13  N   TYR T 972      35.742  36.147 -11.686  1.00 34.07 LIG-0.34  N 
ATOM     14 H    TYR T 972      35.118  35.562 -11.773  1.00 34.07 LIG 0.16  HD
ATOM     15 O    GLU T 971      36.472  38.157 -10.953  1.00 36.91 LIG-0.27  OA
BRANCH 13 16
ATOM     16  CA  TYR T 972      37.035  35.715 -12.161  1.00 35.97 LIG 0.19  C 
BRANCH 16 17
ATOM     17  C   TYR T 972      37.413  36.506 -13.420  1.00 45.43 LIG 0.20  C 
ATOM     18 OXT  TYR T 972      36.531  36.771 -14.238  1.00 40.76 LIG-0.65  OA
ATOM     19 O    TYR T 972      38.575  36.879 -13.663  1.00 41.72 LIG-0.65  OA
ENDBRANCH 16 17
BRANCH 16 20
ATOM     20  CB  TYR T 972      37.023  34.220 -12.462  1.00 33.99 LIG 0.07  C 
BRANCH 20 21
ATOM     21  CG  TYR T 972      38.343  33.767 -12.993  1.00 33.93 LIG-0.06  A 
ATOM     22  CD1 TYR T 972      38.597  33.757 -14.357  1.00 33.64 LIG 0.01  A 
ATOM     23  CE1 TYR T 972      39.823  33.352 -14.844  1.00 37.50 LIG 0.04  A 
ATOM     24  CZ  TYR T 972      40.801  32.973 -13.961  1.00 37.64 LIG 0.07  A 
ATOM     25  CE2 TYR T 972      40.582  32.998 -12.605  1.00 36.30 LIG 0.04  A 
ATOM     26  CD2 TYR T 972      39.361  33.389 -12.126  1.00 38.70 LIG 0.01  A 
BRANCH 24 27
ATOM     27 OH   TYR T 972      42.012  32.570 -14.440  1.00 40.25 LIG-0.36  OA
ATOM     28 HH   TYR T 972      42.515  32.371 -13.798  1.00 40.25 LIG 0.22  HD
ENDBRANCH 24 27
ENDBRANCH 20 21
ENDBRANCH 16 20
ENDBRANCH 13 16
ENDBRANCH 6 12
ENDBRANCH 3 6
ENDBRANCH 1 2
BRANCH 1 29
ATOM     29  CB  SER T 970      34.702  39.519  -6.815  1.00 55.16 LIG 0.20  C 
BRANCH 29 30
ATOM     30 OG   SER T 970      34.778  40.570  -5.870  1.00 59.72 LIG-0.40  OA
ATOM     31 HG   SER T 970      35.429  40.438  -5.355  1.00 59.72 LIG 0.21  HD
ENDBRANCH 29 30
ENDBRANCH 1 29
BRANCH 1 32
ATOM     32  N   SER T 970      32.290  39.967  -7.006  1.00 52.51 LIG-0.34  N 
ATOM     33  C   VAL T 969      31.370  40.840  -7.410  1.00 50.69 LIG 0.24  C 
ATOM     34 O    VAL T 969      31.342  41.294  -8.555  1.00 50.98 LIG-0.27  OA
ATOM     35 H    SER T 970      32.223  39.498  -6.288  1.00 52.51 LIG 0.16  HD
BRANCH 33 36
ATOM     36  CA  VAL T 969      30.281  41.212  -6.388  1.00 48.28 LIG 0.18  C 
BRANCH 36 37
ATOM     37  CB  VAL T 969      30.771  42.301  -5.421  1.00 45.61 LIG 0.01  C 
ATOM     38  CG1 VAL T 969      31.385  43.482  -6.170  1.00 51.33 LIG 0.01  C 
ATOM     39  CG2 VAL T 969      29.617  42.773  -4.536  1.00 51.13 LIG 0.01  C 
ENDBRANCH 36 37
BRANCH 36 40
ATOM     40  N   VAL T 969      29.883  40.020  -5.663  1.00 42.62 LIG-0.35  N 
ATOM     41  C   GLU T 968      29.126  39.105  -6.245  1.00 39.23 LIG 0.24  C 
ATOM     42 O    GLU T 968      28.645  39.250  -7.363  1.00 41.64 LIG-0.27  OA
ATOM     43 H    VAL T 969      30.175  39.971  -4.855  1.00 42.62 LIG 0.16  HD
BRANCH 41 44
ATOM     44  CA  GLU T 968      28.914  37.808  -5.493  1.00 43.46 LIG 0.18  C 
BRANCH 44 45
ATOM     45  CB  GLU T 968      29.720  36.746  -6.220  1.00 39.65 LIG 0.04  C 
BRANCH 45 46
ATOM     46  CG  GLU T 968      30.062  35.512  -5.488  1.00 48.42 LIG 0.12  C 
BRANCH 46 47
ATOM     47  CD  GLU T 968      30.616  34.498  -6.466  1.00 46.07 LIG 0.17  C 
ATOM     48 OE1  GLU T 968      29.792  33.812  -7.121  1.00 37.62 LIG-0.65  OA
ATOM     49 OE2  GLU T 968      31.860  34.443  -6.625  1.00 42.01 LIG-0.65  OA
ENDBRANCH 46 47
ENDBRANCH 45 46
ENDBRANCH 44 45
BRANCH 44 50
ATOM     50  N   GLU T 968      27.499  37.450  -5.423  1.00 42.28 LIG-0.35  N 
ATOM     51  C   GLU T 967      26.585  38.291  -4.938  1.00 44.22 LIG 0.26  C 
ATOM     52 O    GLU T 967      26.869  39.353  -4.404  1.00 45.73 LIG-0.27  OA
ATOM     53 H    GLU T 968      27.317  36.663  -5.718  1.00 42.28 LIG 0.16  HD
BRANCH 51 54
ATOM     54  CA  GLU T 967      25.126  37.874  -5.061  1.00 63.10 LIG 0.40  C 
ATOM     55  N   GLU T 967      24.397  38.219  -3.844  1.00 61.06 LIG 0.61  N 
BRANCH 54 56
ATOM     56  CB  GLU T 967      24.493  38.548  -6.277  1.00 76.10 LIG 0.06  C 
BRANCH 56 57
ATOM     57  CG  GLU T 967      22.983  38.453  -6.307  1.00 93.75 LIG 0.12  C 
BRANCH 57 58
ATOM     58  CD  GLU T 967      22.494  37.042  -6.048  1.00103.86 LIG 0.17  C 
ATOM     59 OE1  GLU T 967      22.640  36.187  -6.946  1.00104.00 LIG-0.65  OA
ATOM     60 OE2  GLU T 967      21.971  36.789  -4.941  1.00109.28 LIG-0.65  OA
ENDBRANCH 57 58
ENDBRANCH 56 57
ENDBRANCH 54 56
ENDBRANCH 51 54
ENDBRANCH 44 50
ENDBRANCH 41 44
ENDBRANCH 36 40
ENDBRANCH 33 36
ENDBRANCH 1 32
TORSDOF 26
