REMARK  26 active torsions:
REMARK  status: ('A' for Active; 'I' for Inactive)
REMARK    1  A    between atoms: CA_2  and  CB_5 
REMARK    2  A    between atoms: CA_2  and  C_3 
REMARK       I    between atoms: C_3  and  N_10 
REMARK    3  A    between atoms: CB_5  and  CG_6 
REMARK    4  A    between atoms: CG_6  and  CD_7 
REMARK    5  A    between atoms: N_10  and  CA_11 
REMARK    6  A    between atoms: CA_11  and  CB_14 
REMARK    7  A    between atoms: CA_11  and  C_12 
REMARK       I    between atoms: C_12  and  N_20 
REMARK    8  A    between atoms: CB_14  and  CG_15 
REMARK    9  A    between atoms: CG_15  and  CD_16 
REMARK   10  A    between atoms: N_20  and  CA_21 
REMARK   11  A    between atoms: CA_21  and  C_22 
REMARK   12  A    between atoms: CA_21  and  CB_24 
REMARK       I    between atoms: C_22  and  N_28 
REMARK   13  A    between atoms: N_28  and  CA_29 
REMARK   14  A    between atoms: CA_29  and  C_30 
REMARK   15  A    between atoms: CA_29  and  CB_32 
REMARK       I    between atoms: C_30  and  N_36 
REMARK   16  A    between atoms: CB_32  and  OG_33 
REMARK   17  A    between atoms: N_36  and  CA_37 
REMARK   18  A    between atoms: CA_37  and  CB_40 
REMARK   19  A    between atoms: CA_37  and  C_38 
REMARK       I    between atoms: C_38  and  N_46 
REMARK   20  A    between atoms: CB_40  and  CG_41 
REMARK   21  A    between atoms: CG_41  and  CD_42 
REMARK   22  A    between atoms: N_46  and  CA_47 
REMARK   23  A    between atoms: CA_47  and  C_48 
REMARK   24  A    between atoms: CA_47  and  CB_50 
REMARK   25  A    between atoms: CB_50  and  CG_51 
REMARK   26  A    between atoms: CZ_56  and  OH_57 
ROOT
ATOM      1  CA  SER T 970      33.555  39.890  -7.751  1.00 53.81     0.200 C 
ENDROOT
BRANCH   1   2
ATOM      2  C   SER T 970      33.525  38.844  -8.859  1.00 54.98     0.243 C 
ATOM      3  N   GLU T 971      34.243  39.128  -9.937  1.00 36.24    -0.346 N 
ATOM      4  H   GLU T 971      34.684  39.854 -10.071  1.00 36.24     0.163 HD
ATOM      5  O   SER T 970      32.906  37.774  -8.737  1.00 50.73    -0.271 OA
BRANCH   3   6
ATOM      6  CA  GLU T 971      34.303  38.143 -10.991  1.00 34.69     0.177 C 
BRANCH   6   7
ATOM      7  CB  GLU T 971      33.753  38.693 -12.304  1.00 35.28     0.045 C 
BRANCH   7   8
ATOM      8  CG  GLU T 971      34.597  39.829 -12.878  1.00 38.63     0.116 C 
BRANCH   8   9
ATOM      9  CD  GLU T 971      34.092  40.306 -14.239  1.00 44.02     0.172 C 
ATOM     10  OE1 GLU T 971      33.502  39.494 -14.988  1.00 46.94    -0.648 OA
ATOM     11  OE2 GLU T 971      34.286  41.496 -14.561  1.00 38.45    -0.648 OA
ENDBRANCH   8   9
ENDBRANCH   7   8
ENDBRANCH   6   7
BRANCH   6  12
ATOM     12  C   GLU T 971      35.731  37.693 -11.184  1.00 38.38     0.241 C 
ATOM     13  N   TYR T 972      35.860  36.565 -11.853  1.00 34.07    -0.344 N 
ATOM     14  H   TYR T 972      35.198  36.073 -12.096  1.00 34.07     0.163 HD
ATOM     15  O   GLU T 971      36.685  38.357 -10.750  1.00 36.91    -0.271 OA
BRANCH  13  16
ATOM     16  CA  TYR T 972      37.154  36.055 -12.240  1.00 35.97     0.189 C 
BRANCH  16  17
ATOM     17  C   TYR T 972      37.773  36.972 -13.302  1.00 45.43     0.197 C 
ATOM     18  OXT TYR T 972      37.037  37.466 -14.157  1.00 40.76    -0.646 OA
ATOM     19  O   TYR T 972      38.990  37.227 -13.352  1.00 41.72    -0.646 OA
ENDBRANCH  16  17
BRANCH  16  20
ATOM     20  CB  TYR T 972      37.031  34.633 -12.778  1.00 33.99     0.074 C 
BRANCH  20  21
ATOM     21  CG  TYR T 972      38.362  34.096 -13.190  1.00 33.93    -0.056 A 
ATOM     22  CD1 TYR T 972      38.840  34.289 -14.478  1.00 33.64     0.010 A 
ATOM     23  CE1 TYR T 972      40.077  33.805 -14.852  1.00 37.50     0.037 A 
ATOM     24  CZ  TYR T 972      40.842  33.141 -13.928  1.00 37.64     0.065 A 
ATOM     25  CE2 TYR T 972      40.401  32.959 -12.640  1.00 36.30     0.037 A 
ATOM     26  CD2 TYR T 972      39.169  33.430 -12.276  1.00 38.70     0.010 A 
BRANCH  24  27
ATOM     27  OH  TYR T 972      42.063  32.659 -14.296  1.00 40.25    -0.361 OA
ATOM     28  HH  TYR T 972      42.423  32.278 -13.640  1.00 40.25     0.217 HD
ENDBRANCH  24  27
ENDBRANCH  20  21
ENDBRANCH  16  20
ENDBRANCH  13  16
ENDBRANCH   6  12
ENDBRANCH   3   6
ENDBRANCH   1   2
BRANCH   1  29
ATOM     29  CB  SER T 970      34.632  39.479  -6.740  1.00 55.16     0.199 C 
BRANCH  29  30
ATOM     30  OG  SER T 970      34.705  40.411  -5.677  1.00 59.72    -0.398 OA
ATOM     31  HG  SER T 970      35.298  40.170  -5.133  1.00 59.72     0.209 HD
ENDBRANCH  29  30
ENDBRANCH   1  29
BRANCH   1  32
ATOM     32  N   SER T 970      32.282  40.133  -7.061  1.00 52.51    -0.344 N 
ATOM     33  C   VAL T 969      31.411  41.041  -7.495  1.00 50.69     0.241 C 
ATOM     34  O   VAL T 969      31.469  41.532  -8.623  1.00 50.98    -0.271 OA
ATOM     35  H   SER T 970      32.157  39.643  -6.365  1.00 52.51     0.163 HD
BRANCH  33  36
ATOM     36  CA  VAL T 969      30.265  41.408  -6.534  1.00 48.28     0.180 C 
BRANCH  36  37
ATOM     37  CB  VAL T 969      30.661  42.571  -5.611  1.00 45.61     0.009 C 
ATOM     38  CG1 VAL T 969      31.242  43.742  -6.402  1.00 51.33     0.012 C 
ATOM     39  CG2 VAL T 969      29.451  43.027  -4.795  1.00 51.13     0.012 C 
ENDBRANCH  36  37
BRANCH  36  40
ATOM     40  N   VAL T 969      29.902  40.236  -5.759  1.00 42.62    -0.346 N 
ATOM     41  C   GLU T 968      29.147  39.290  -6.292  1.00 39.23     0.241 C 
ATOM     42  O   GLU T 968      28.640  39.388  -7.404  1.00 41.64    -0.271 OA
ATOM     43  H   VAL T 969      30.212  40.220  -4.957  1.00 42.62     0.163 HD
BRANCH  41  44
ATOM     44  CA  GLU T 968      28.972  38.017  -5.491  1.00 43.46     0.177 C 
BRANCH  44  45
ATOM     45  CB  GLU T 968      29.776  36.942  -6.201  1.00 39.65     0.045 C 
BRANCH  45  46
ATOM     46  CG  GLU T 968      30.130  35.726  -5.443  1.00 48.42     0.116 C 
BRANCH  46  47
ATOM     47  CD  GLU T 968      30.698  34.700  -6.399  1.00 46.07     0.172 C 
ATOM     48  OE1 GLU T 968      29.884  34.021  -7.075  1.00 37.62    -0.648 OA
ATOM     49  OE2 GLU T 968      31.945  34.627  -6.521  1.00 42.01    -0.648 OA
ENDBRANCH  46  47
ENDBRANCH  45  46
ENDBRANCH  44  45
BRANCH  44  50
ATOM     50  N   GLU T 968      27.565  37.643  -5.374  1.00 42.28    -0.346 N 
ATOM     51  C   GLU T 967      26.650  38.490  -4.902  1.00 44.22     0.257 C 
ATOM     52  O   GLU T 967      26.930  39.577  -4.418  1.00 45.73    -0.271 OA
ATOM     53  H   GLU T 968      27.388  36.842  -5.633  1.00 42.28     0.163 HD
BRANCH  51  54
ATOM     54  CA  GLU T 967      25.194  38.048  -4.974  1.00 63.10     0.400 C 
ATOM     55  N   GLU T 967      24.489  38.428  -3.754  1.00 61.06     0.615 N 
BRANCH  54  56
ATOM     56  CB  GLU T 967      24.523  38.668  -6.199  1.00 76.10     0.062 C 
BRANCH  56  57
ATOM     57  CG  GLU T 967      23.015  38.539  -6.195  1.00 93.75     0.116 C 
BRANCH  57  58
ATOM     58  CD  GLU T 967      22.563  37.120  -5.915  1.00103.86     0.172 C 
ATOM     59  OE1 GLU T 967      22.729  36.256  -6.801  1.00104.00    -0.648 OA
ATOM     60  OE2 GLU T 967      22.050  36.869  -4.803  1.00109.28    -0.648 OA
ENDBRANCH  57  58
ENDBRANCH  56  57
ENDBRANCH  54  56
ENDBRANCH  51  54
ENDBRANCH  44  50
ENDBRANCH  41  44
ENDBRANCH  36  40
ENDBRANCH  33  36
ENDBRANCH   1  32
TORSDOF 26
