REMARK  19 active torsions:
REMARK  status: ('A' for Active; 'I' for Inactive)
REMARK    1  A    between atoms: CA_2  and  CB_5 
REMARK    2  A    between atoms: CA_2  and  C_3 
REMARK       I    between atoms: C_3  and  N_9 
REMARK    3  A    between atoms: CB_5  and  CG_6 
REMARK    4  A    between atoms: N_9  and  CA_10 
REMARK    5  A    between atoms: CA_10  and  C_11 
REMARK    6  A    between atoms: CA_10  and  CB_13 
REMARK       I    between atoms: C_11  and  N_20 
REMARK    7  A    between atoms: CB_13  and  CG_14 
REMARK    8  A    between atoms: N_20  and  CA_21 
REMARK    9  A    between atoms: CA_21  and  C_22 
REMARK   10  A    between atoms: CA_21  and  CB_24 
REMARK       I    between atoms: C_22  and  N_29 
REMARK   11  A    between atoms: CB_24  and  CG_25 
REMARK   12  A    between atoms: N_29  and  CA_30 
REMARK   13  A    between atoms: CA_30  and  C_31 
REMARK       I    between atoms: C_31  and  N_35 
REMARK   14  A    between atoms: N_35  and  CA_36 
REMARK   15  A    between atoms: CA_36  and  C_37 
REMARK   16  A    between atoms: CA_36  and  CB_39 
REMARK       I    between atoms: C_37  and  N_46 
REMARK   17  A    between atoms: CB_39  and  CG_40 
REMARK   18  A    between atoms: N_46  and  CA_47 
REMARK   19  A    between atoms: CA_47  and  C_48 
ROOT
ATOM      1  CA  ASP C 155     -10.720  12.892 -24.074  1.00 34.31     0.186 C 
ENDROOT
BRANCH   1   2
ATOM      2  C   ASP C 155     -10.139  11.494 -23.944  1.00 33.42     0.241 C 
ATOM      3  O   ASP C 155      -8.947  11.277 -24.186  1.00 32.60    -0.271 OA
ATOM      4  N   ALA C 156     -10.989  10.558 -23.531  1.00 30.74    -0.346 N 
ATOM      5  H   ALA C 156     -11.798  10.723 -23.292  1.00 30.74     0.163 HD
BRANCH   4   6
ATOM      6  CA  ALA C 156     -10.621   9.156 -23.446  1.00 30.13     0.172 C 
ATOM      7  CB  ALA C 156     -10.489   8.731 -21.992  1.00 30.23     0.042 C 
BRANCH   6   8
ATOM      8  C   ALA C 156     -11.687   8.335 -24.151  1.00 29.70     0.240 C 
ATOM      9  N   HIS C 157     -11.238   7.479 -25.064  1.00 30.21    -0.346 N 
ATOM     10  H   HIS C 157     -10.403   7.348 -25.222  1.00 30.21     0.163 HD
ATOM     11  O   ALA C 156     -12.887   8.483 -23.875  1.00 27.33    -0.271 OA
BRANCH   9  12
ATOM     12  CA  HIS C 157     -12.133   6.675 -25.890  1.00 31.06     0.182 C 
BRANCH  12  13
ATOM     13  C   HIS C 157     -12.460   5.384 -25.162  1.00 30.33     0.241 C 
ATOM     14  N   ALA C 158     -13.747   5.157 -24.914  1.00 29.79    -0.345 N 
ATOM     15  H   ALA C 158     -14.384   5.673 -25.175  1.00 29.79     0.163 HD
ATOM     16  O   HIS C 157     -11.557   4.618 -24.808  1.00 30.67    -0.271 OA
BRANCH  14  17
ATOM     17  CA  ALA C 158     -14.192   3.984 -24.159  1.00 31.13     0.181 C 
ATOM     18  CB  ALA C 158     -15.624   4.166 -23.670  1.00 30.84     0.043 C 
BRANCH  17  19
ATOM     19  C   ALA C 158     -14.077   2.713 -24.986  1.00 31.87     0.196 C 
ATOM     20  OXT ALA C 158     -13.874   2.768 -26.202  1.00 33.04    -0.646 OA
ATOM     21  O   ALA C 158     -14.190   1.610 -24.445  1.00 31.17    -0.646 OA
ENDBRANCH  17  19
ENDBRANCH  14  17
ENDBRANCH  12  13
BRANCH  12  22
ATOM     22  CB  HIS C 157     -11.497   6.408 -27.258  1.00 32.09     0.095 C 
BRANCH  22  23
ATOM     23  CG  HIS C 157     -11.285   7.653 -28.063  1.00 35.38     0.056 A 
ATOM     24  ND1 HIS C 157     -12.196   8.097 -29.000  1.00 36.48    -0.245 NA
ATOM     25  CE1 HIS C 157     -11.764   9.230 -29.527  1.00 37.27     0.232 A 
ATOM     26  NE2 HIS C 157     -10.611   9.543 -28.958  1.00 37.33    -0.252 NA
ATOM     27  CD2 HIS C 157     -10.291   8.576 -28.036  1.00 35.91     0.145 A 
ENDBRANCH  22  23
ENDBRANCH  12  22
ENDBRANCH   9  12
ENDBRANCH   6   8
ENDBRANCH   4   6
ENDBRANCH   1   2
BRANCH   1  28
ATOM     28  CB  ASP C 155     -11.157  13.127 -25.508  1.00 35.23     0.147 C 
BRANCH  28  29
ATOM     29  CG  ASP C 155     -11.898  14.439 -25.692  1.00 35.97     0.175 C 
ATOM     30  OD2 ASP C 155     -12.137  14.789 -26.859  1.00 39.40    -0.648 OA
ATOM     31  OD1 ASP C 155     -12.245  15.126 -24.706  1.00 38.01    -0.648 OA
ENDBRANCH  28  29
ENDBRANCH   1  28
BRANCH   1  32
ATOM     32  N   ASP C 155      -9.734  13.876 -23.679  1.00 36.13    -0.345 N 
ATOM     33  H   ASP C 155      -9.084  13.968 -24.235  1.00 36.13     0.163 HD
ATOM     34  C   HIS C 154      -9.843  14.564 -22.553  1.00 38.66     0.241 C 
ATOM     35  O   HIS C 154     -10.799  14.450 -21.791  1.00 35.33    -0.271 OA
BRANCH  34  36
ATOM     36  CA  HIS C 154      -8.726  15.549 -22.252  1.00 42.51     0.182 C 
BRANCH  36  37
ATOM     37  CB  HIS C 154      -7.912  15.085 -21.044  1.00 45.16     0.095 C 
BRANCH  37  38
ATOM     38  CG  HIS C 154      -6.974  16.128 -20.519  1.00 48.44     0.056 A 
ATOM     39  ND1 HIS C 154      -7.347  17.054 -19.567  1.00 50.51    -0.245 NA
ATOM     40  CE1 HIS C 154      -6.327  17.853 -19.308  1.00 51.05     0.232 A 
ATOM     41  NE2 HIS C 154      -5.307  17.480 -20.059  1.00 50.26    -0.252 NA
ATOM     42  CD2 HIS C 154      -5.685  16.405 -20.827  1.00 50.26     0.145 A 
ENDBRANCH  37  38
ENDBRANCH  36  37
BRANCH  36  43
ATOM     43  N   HIS C 154      -9.356  16.826 -21.981  1.00 45.99    -0.345 N 
ATOM     44  C   ASP C 153      -9.520  17.751 -22.920  1.00 51.00     0.258 C 
ATOM     45  O   ASP C 153      -8.992  17.694 -24.033  1.00 50.83    -0.271 OA
ATOM     46  H   HIS C 154      -9.610  16.926 -21.165  1.00 45.99     0.163 HD
BRANCH  44  47
ATOM     47  CA  ASP C 153     -10.418  18.923 -22.540  1.00 53.77     0.409 C 
ATOM     48  N   ASP C 153      -9.679  20.229 -22.523  1.00 52.50     0.615 N 
BRANCH  47  49
ATOM     49  CB  ASP C 153     -11.612  18.959 -23.503  1.00 54.86     0.164 C 
BRANCH  49  50
ATOM     50  CG  ASP C 153     -12.933  19.133 -22.786  1.00 56.45     0.175 C 
ATOM     51  OD2 ASP C 153     -13.814  18.251 -22.934  1.00 58.24    -0.648 OA
ATOM     52  OD1 ASP C 153     -13.085  20.149 -22.078  1.00 54.42    -0.648 OA
ENDBRANCH  49  50
ENDBRANCH  47  49
ENDBRANCH  44  47
ENDBRANCH  36  43
ENDBRANCH  34  36
ENDBRANCH   1  32
TORSDOF 19
