USER: ADFR SOLUTION from run 0
USER: SCORE 12.215606 LL:  -2.290 LR: -11.774 RR:   0.000 FEB:  -5.808
USER: RMSD 0.570414
USER: STATUS Locally minimized using BFGS
USER: GENES 22
USER: genes 0 Translation |==|  0.52552 0.57025 0.60787
USER: genes 1 Rotation |==|  0.50847 0.50918 0.50983 0.99975
USER: genes 2 Torsion [CB]-CA--N-[C] |==|  0.23902
USER: genes 3 Torsion [N]-C--CA-[N] |==|  0.36667
USER: genes 4 Torsion [C]-CA--N-[C] |==|  0.56736
USER: genes 5 Torsion [N]-C--CA-[N] |==|  0.46453
USER: genes 6 Torsion [C]-CA--N-[C] |==|  0.57957
USER: genes 7 Torsion [N]-C--CA-[N] |==|  0.42307
USER: genes 8 Torsion [C]-CA--CB-[OG] |==|  0.50099
USER: genes 9 Torsion [CA]-CB--OG-[HG] |==|  0.37866
USER: genes 10 Torsion [C]-CA--CB-[OG] |==|  0.83996
USER: genes 11 Torsion [CA]-CB--OG-[HG] |==|  0.49999
USER: genes 12 Torsion [N]-CA--C-[N] |==|  0.39555
USER: genes 13 Torsion [C]-N--CA-[C] |==|  0.75282
USER: genes 14 Torsion [N]-CA--C-[N] |==|  0.38648
USER: genes 15 Torsion [C]-N--CA-[CB] |==|  0.51672
USER: genes 16 Torsion [N]-CA--CB-[CG] |==|  0.44297
USER: genes 17 Torsion [CA]-CB--CG-[CD1] |==|  0.40671
USER: genes 18 Torsion [N]-CA--C-[O] |==|  0.29523
USER: genes 19 Torsion [N]-CA--CB-[CG] |==|  0.48282
USER: genes 20 Torsion [CA]-CB--CG-[OD2] |==|  0.71721
USER: genes 21 Torsion [N]-CA--CB-[CG2] |==|  0.52211
ROOT
ATOM      1  CA  VAL B  11      33.962  21.260  52.366  1.00 37.38 LIG 0.18  C 
ENDROOT
BRANCH 1 2
ATOM      2  N   VAL B  11      32.805  20.758  51.630  1.00 31.05 LIG-0.35  N 
ATOM      3  C   GLY B  10      31.753  20.251  52.267  1.00 33.93 LIG 0.24  C 
ATOM      4 O    GLY B  10      31.669  20.206  53.495  1.00 34.12 LIG-0.27  OA
ATOM      5 H    VAL B  11      32.869  20.821  50.774  1.00 31.05 LIG 0.16  HD
BRANCH 3 6
ATOM      6  CA  GLY B  10      30.626  19.712  51.410  1.00 30.55 LIG 0.23  C 
BRANCH 6 7
ATOM      7  N   GLY B  10      30.232  18.397  51.880  1.00 34.58 LIG-0.35  N 
ATOM      8  C   SER B   9      29.638  17.517  51.078  1.00 38.05 LIG 0.24  C 
ATOM      9 O    SER B   9      29.296  17.780  49.931  1.00 29.17 LIG-0.27  OA
ATOM     10 H    GLY B  10      30.415  18.246  52.707  1.00 34.58 LIG 0.16  HD
BRANCH 8 11
ATOM     11  CA  SER B   9      29.395  16.131  51.660  1.00 34.70 LIG 0.20  C 
BRANCH 11 12
ATOM     12  N   SER B   9      28.486  15.343  50.831  1.00 35.55 LIG-0.34  N 
ATOM     13  C   SER B   8      27.712  14.402  51.359  1.00 40.46 LIG 0.26  C 
ATOM     14 O    SER B   8      27.661  14.187  52.571  1.00 45.68 LIG-0.27  OA
ATOM     15 H    SER B   9      28.502  15.541  49.994  1.00 35.55 LIG 0.16  HD
BRANCH 13 16
ATOM     16  CA  SER B   8      26.843  13.602  50.384  1.00 36.95 LIG 0.42  C 
ATOM     17  N   SER B   8      26.549  12.254  50.878  1.00 41.16 LIG 0.62  N 
BRANCH 16 18
ATOM     18  CB  SER B   8      25.552  14.375  50.118  1.00 41.03 LIG 0.21  C 
BRANCH 18 19
ATOM     19 OG   SER B   8      24.685  13.694  49.226  1.00 28.13 LIG-0.40  OA
ATOM     20 HG   SER B   8      23.898  13.736  49.514  1.00 28.13 LIG 0.21  HD
ENDBRANCH 18 19
ENDBRANCH 16 18
ENDBRANCH 13 16
ENDBRANCH 11 12
BRANCH 11 21
ATOM     21  CB  SER B   9      30.729  15.403  51.819  1.00 39.19 LIG 0.20  C 
BRANCH 21 22
ATOM     22 OG   SER B   9      31.401  15.316  50.570  1.00 46.55 LIG-0.40  OA
ATOM     23 HG   SER B   9      32.132  14.914  50.673  1.00 46.55 LIG 0.21  HD
ENDBRANCH 21 22
ENDBRANCH 11 21
ENDBRANCH 8 11
ENDBRANCH 6 7
ENDBRANCH 3 6
ENDBRANCH 1 2
BRANCH 1 24
ATOM     24  C   VAL B  11      34.680  22.383  51.603  1.00 38.72 LIG 0.24  C 
ATOM     25 O    VAL B  11      34.773  22.358  50.373  1.00 29.21 LIG-0.27  OA
ATOM     26  N   ASP B  12      35.165  23.385  52.330  1.00 41.61 LIG-0.34  N 
ATOM     27 H    ASP B  12      35.001  23.505  53.166  1.00 41.61 LIG 0.16  HD
BRANCH 26 28
ATOM     28  CA  ASP B  12      36.042  24.379  51.726  1.00 41.44 LIG 0.19  C 
BRANCH 28 29
ATOM     29  C   ASP B  12      37.499  23.930  51.823  1.00 45.77 LIG 0.24  C 
ATOM     30 O    ASP B  12      37.918  23.376  52.843  1.00 50.52 LIG-0.27  OA
ATOM     31  N   LEU B  13      38.247  24.156  50.745  1.00 51.98 LIG-0.35  N 
ATOM     32 H    LEU B  13      37.928  24.466  50.008  1.00 51.98 LIG 0.16  HD
BRANCH 31 33
ATOM     33  CA  LEU B  13      39.686  23.901  50.697  1.00 53.13 LIG 0.16  C 
BRANCH 33 34
ATOM     34  CB  LEU B  13      40.258  24.410  49.362  1.00 52.95 LIG 0.04  C 
BRANCH 34 35
ATOM     35  CG  LEU B  13      41.751  24.716  49.187  1.00 63.18 LIG-0.02  C 
ATOM     36  CD1 LEU B  13      42.203  24.395  47.771  1.00 59.33 LIG 0.01  C 
ATOM     37  CD2 LEU B  13      42.055  26.176  49.499  1.00 64.76 LIG 0.01  C 
ENDBRANCH 34 35
ENDBRANCH 33 34
BRANCH 33 38
ATOM     38  C   LEU B  13      40.413  24.548  51.876  1.00 54.04 LIG 0.22  C 
ATOM     39 O    LEU B  13      40.840  23.863  52.806  1.00 55.16 LIG-0.29  OA
ENDBRANCH 33 38
ENDBRANCH 31 33
ENDBRANCH 28 29
BRANCH 28 40
ATOM     40  CB  ASP B  12      35.866  25.750  52.381  1.00 42.16 LIG 0.15  C 
BRANCH 40 41
ATOM     41  CG  ASP B  12      36.876  26.769  51.871  1.00 44.94 LIG 0.17  C 
ATOM     42 OD2  ASP B  12      37.862  27.033  52.595  1.00 53.96 LIG-0.65  OA
ATOM     43 OD1  ASP B  12      36.688  27.301  50.749  1.00 32.79 LIG-0.65  OA
ENDBRANCH 40 41
ENDBRANCH 28 40
ENDBRANCH 26 28
ENDBRANCH 1 24
BRANCH 1 44
ATOM     44  CB  VAL B  11      34.957  20.108  52.679  1.00 40.95 LIG 0.01  C 
ATOM     45  CG2 VAL B  11      36.073  20.577  53.615  1.00 48.12 LIG 0.01  C 
ATOM     46  CG1 VAL B  11      35.525  19.516  51.394  1.00 38.34 LIG 0.01  C 
ENDBRANCH 1 44
TORSDOF 20
