USER: ADFR SOLUTION from run 0
USER: SCORE 12.654019 LL:  -3.914 LR: -10.514 RR:   0.000 FEB:  -3.354
USER: RMSD 0.721940
USER: STATUS Locally minimized using BFGS
USER: GENES 26
USER: genes 0 Translation |==|  0.45604 0.48809 0.48956
USER: genes 1 Rotation |==|  0.52239 0.51310 0.48811 0.99918
USER: genes 2 Torsion [CB]-CA--N-[C] |==|  0.36957
USER: genes 3 Torsion [N]-C--CA-[N] |==|  0.36822
USER: genes 4 Torsion [C]-CA--N-[C] |==|  0.82778
USER: genes 5 Torsion [N]-C--CA-[N] |==|  0.36836
USER: genes 6 Torsion [C]-CA--CB-[CG] |==|  0.14120
USER: genes 7 Torsion [CA]-CB--CG-[CD] |==|  0.49464
USER: genes 8 Torsion [CB]-CG--CD-[OE1] |==|  0.90995
USER: genes 9 Torsion [C]-CA--CB-[CG2] |==|  0.17023
USER: genes 10 Torsion [CA]-CB--CG1-[CD1] |==|  0.50908
USER: genes 11 Torsion [N]-CA--CB-[CG] |==|  0.51126
USER: genes 12 Torsion [CA]-CB--CG-[CD] |==|  0.49749
USER: genes 13 Torsion [CB]-CG--CD-[CE] |==|  0.49828
USER: genes 14 Torsion [CG]-CD--CE-[NZ] |==|  0.50531
USER: genes 15 Torsion [CD]-CE--NZ-[HZ1] |==|  0.49993
USER: genes 16 Torsion [N]-CA--C-[N] |==|  0.26755
USER: genes 17 Torsion [C]-N--CA-[C] |==|  0.76792
USER: genes 18 Torsion [N]-CA--CB-[CG] |==|  0.81029
USER: genes 19 Torsion [CA]-CB--CG-[OD1] |==|  0.87982
USER: genes 20 Torsion [N]-CA--C-[N] |==|  0.40037
USER: genes 21 Torsion [N]-CA--C-[O] |==|  0.34251
USER: genes 22 Torsion [C]-N--CA-[C] |==|  0.16156
USER: genes 23 Torsion [N]-CA--CB-[CG2] |==|  0.47311
USER: genes 24 Torsion [CA]-CB--CG1-[CD1] |==|  0.52981
USER: genes 25 Torsion [N]-CA--C-[O] |==|  0.73651
ROOT
ATOM      1  CA  LYS C   4     -38.594  26.351 -22.363  1.00 55.66 LIG 0.18  C 
ENDROOT
BRANCH 1 2
ATOM      2  N   LYS C   4     -39.229  25.661 -21.245  1.00 52.22 LIG-0.35  N 
ATOM      3  C   ILE C   3     -39.465  24.352 -21.254  1.00 49.48 LIG 0.24  C 
ATOM      4 O    ILE C   3     -39.198  23.624 -22.210  1.00 46.52 LIG-0.27  OA
ATOM      5 H    LYS C   4     -39.434  26.176 -20.588  1.00 52.22 LIG 0.16  HD
BRANCH 3 6
ATOM      6  CA  ILE C   3     -40.112  23.783 -19.994  1.00 52.28 LIG 0.18  C 
BRANCH 6 7
ATOM      7  N   ILE C   3     -41.231  22.917 -20.344  1.00 58.50 LIG-0.34  N 
ATOM      8 H    ILE C   3     -41.138  22.097 -20.099  1.00 58.50 LIG 0.16  HD
ATOM      9  C   GLN C   2     -42.295  23.385 -20.990  1.00 66.26 LIG 0.26  C 
ATOM     10 O    GLN C   2     -42.402  24.561 -21.333  1.00 73.27 LIG-0.27  OA
BRANCH 9 11
ATOM     11  CA  GLN C   2     -43.398  22.378 -21.301  1.00 65.71 LIG 0.40  C 
ATOM     12  N   GLN C   2     -44.703  22.914 -20.936  1.00 61.11 LIG 0.61  N 
BRANCH 11 13
ATOM     13  CB  GLN C   2     -43.365  22.004 -22.785  1.00 69.09 LIG 0.06  C 
BRANCH 13 14
ATOM     14  CG  GLN C   2     -41.989  21.579 -23.294  1.00 69.91 LIG 0.10  C 
BRANCH 14 15
ATOM     15  CD  GLN C   2     -42.002  21.171 -24.755  1.00 70.47 LIG 0.21  C 
ATOM     16 OE1  GLN C   2     -42.990  20.634 -25.253  1.00 73.69 LIG-0.27  OA
ATOM     17  NE2 GLN C   2     -40.899  21.427 -25.450  1.00 67.69 LIG-0.37  N 
ATOM     18 21HE GLN C   2     -40.227  21.804 -25.068  1.00 67.69 LIG 0.16  HD
ATOM     19 22HE GLN C   2     -40.856  21.215 -26.283  1.00 67.69 LIG 0.16  HD
ENDBRANCH 14 15
ENDBRANCH 13 14
ENDBRANCH 11 13
ENDBRANCH 9 11
ENDBRANCH 6 7
BRANCH 6 20
ATOM     20  CB  ILE C   3     -39.051  23.033 -19.163  1.00 50.18 LIG 0.01  C 
ATOM     21  CG2 ILE C   3     -37.936  23.991 -18.729  1.00 50.82 LIG 0.01  C 
BRANCH 20 22
ATOM     22  CG1 ILE C   3     -39.711  22.366 -17.951  1.00 50.01 LIG 0.00  C 
ATOM     23  CD1 ILE C   3     -38.748  21.663 -17.018  1.00 50.06 LIG 0.01  C 
ENDBRANCH 20 22
ENDBRANCH 6 20
ENDBRANCH 3 6
ENDBRANCH 1 2
BRANCH 1 24
ATOM     24  CB  LYS C   4     -39.369  27.623 -22.713  1.00 61.43 LIG 0.04  C 
BRANCH 24 25
ATOM     25  CG  LYS C   4     -38.844  28.367 -23.931  1.00 66.58 LIG 0.00  C 
BRANCH 25 26
ATOM     26  CD  LYS C   4     -39.686  29.603 -24.217  1.00 73.00 LIG 0.03  C 
BRANCH 26 27
ATOM     27  CE  LYS C   4     -39.169  30.371 -25.423  1.00 75.18 LIG 0.23  C 
BRANCH 27 28
ATOM     28  NZ  LYS C   4     -39.965  31.604 -25.675  1.00 76.64 LIG-0.08  N 
ATOM     29 HZ3  LYS C   4     -39.920  32.138 -24.964  1.00 76.64 LIG 0.27  HD
ATOM     30 HZ2  LYS C   4     -40.814  31.384 -25.826  1.00 76.64 LIG 0.27  HD
ATOM     31 HZ1  LYS C   4     -39.638  32.030 -26.384  1.00 76.64 LIG 0.27  HD
ENDBRANCH 27 28
ENDBRANCH 26 27
ENDBRANCH 25 26
ENDBRANCH 24 25
ENDBRANCH 1 24
BRANCH 1 32
ATOM     32  C   LYS C   4     -37.146  26.683 -22.016  1.00 57.21 LIG 0.24  C 
ATOM     33  N   ASN C   5     -36.227  25.825 -22.447  1.00 57.25 LIG-0.35  N 
ATOM     34 H    ASN C   5     -36.406  25.115 -22.899  1.00 57.25 LIG 0.16  HD
ATOM     35 O    LYS C   4     -36.869  27.696 -21.371  1.00 57.68 LIG-0.27  OA
BRANCH 33 36
ATOM     36  CA  ASN C   5     -34.808  26.024 -22.180  1.00 58.26 LIG 0.18  C 
BRANCH 36 37
ATOM     37  CB  ASN C   5     -34.073  24.683 -22.190  1.00 53.49 LIG 0.14  C 
BRANCH 37 38
ATOM     38  CG  ASN C   5     -34.461  23.799 -21.020  1.00 47.90 LIG 0.22  C 
ATOM     39 OD1  ASN C   5     -34.571  24.264 -19.885  1.00 45.37 LIG-0.27  OA
ATOM     40  ND2 ASN C   5     -34.669  22.516 -21.291  1.00 45.09 LIG-0.37  N 
ATOM     41 22HD ASN C   5     -34.583  22.227 -22.096  1.00 45.09 LIG 0.16  HD
ATOM     42 21HD ASN C   5     -34.891  21.974 -20.661  1.00 45.09 LIG 0.16  HD
ENDBRANCH 37 38
ENDBRANCH 36 37
BRANCH 36 43
ATOM     43  C   ASN C   5     -34.172  26.967 -23.196  1.00 62.82 LIG 0.24  C 
ATOM     44 O    ASN C   5     -34.537  26.951 -24.377  1.00 59.04 LIG-0.27  OA
ATOM     45  N   PRO C   6     -33.228  27.782 -22.737  1.00 69.97 LIG-0.34  N 
ATOM     46  CA  PRO C   6     -32.541  28.736 -23.614  1.00 73.90 LIG 0.18  C 
ATOM     47  CD  PRO C   6     -32.824  27.932 -21.328  1.00 74.49 LIG 0.13  C 
ATOM     48  CB  PRO C   6     -31.422  29.281 -22.726  1.00 75.59 LIG 0.04  C 
ATOM     49  CG  PRO C   6     -31.947  29.152 -21.338  1.00 76.33 LIG 0.02  C 
BRANCH 46 50
ATOM     50  C   PRO C   6     -31.956  28.065 -24.854  1.00 72.73 LIG 0.24  C 
ATOM     51 O    PRO C   6     -32.277  28.457 -25.976  1.00 74.17 LIG-0.27  OA
ATOM     52  N   ILE C   7     -31.108  27.063 -24.646  1.00 69.55 LIG-0.35  N 
ATOM     53 H    ILE C   7     -30.879  26.782 -23.865  1.00 69.55 LIG 0.16  HD
BRANCH 52 54
ATOM     54  CA  ILE C   7     -30.484  26.346 -25.751  1.00 67.58 LIG 0.17  C 
BRANCH 54 55
ATOM     55  CB  ILE C   7     -31.535  25.622 -26.612  1.00 70.68 LIG 0.01  C 
ATOM     56  CG2 ILE C   7     -30.898  25.083 -27.884  1.00 70.33 LIG 0.01  C 
BRANCH 55 57
ATOM     57  CG1 ILE C   7     -32.180  24.485 -25.817  1.00 72.59 LIG 0.00  C 
ATOM     58  CD1 ILE C   7     -33.033  23.562 -26.659  1.00 73.15 LIG 0.01  C 
ENDBRANCH 55 57
ENDBRANCH 54 55
BRANCH 54 59
ATOM     59  C   ILE C   7     -29.695  27.302 -26.639  1.00 63.70 LIG 0.22  C 
ATOM     60 O    ILE C   7     -30.204  27.790 -27.648  1.00 60.54 LIG-0.29  OA
ENDBRANCH 54 59
ENDBRANCH 52 54
ENDBRANCH 46 50
ENDBRANCH 36 43
ENDBRANCH 33 36
ENDBRANCH 1 32
TORSDOF 24
