REMARK  12 active torsions:
REMARK  status: ('A' for Active; 'I' for Inactive)
REMARK    1  A    between atoms: CA_2  and  CB_5 
REMARK    2  A    between atoms: CA_2  and  C_3 
REMARK       I    between atoms: C_3  and  N_9 
REMARK    3  A    between atoms: CB_5  and  CG_6 
REMARK    4  A    between atoms: N_9  and  CA_10 
REMARK    5  A    between atoms: CA_10  and  C_11 
REMARK    6  A    between atoms: CA_10  and  CB_13 
REMARK       I    between atoms: C_11  and  N_18 
REMARK    7  A    between atoms: CB_13  and  CG1_14 
REMARK    8  A    between atoms: CA_19  and  C_20 
REMARK       I    between atoms: C_20  and  N_25 
REMARK    9  A    between atoms: N_25  and  CA_26 
REMARK   10  A    between atoms: CA_26  and  CB_29 
REMARK   11  A    between atoms: CA_26  and  C_27 
REMARK   12  A    between atoms: CB_29  and  CG_30 
ROOT
ATOM      1  C   ILE D 175      86.761  44.621  30.873  1.00 46.12     0.243 C 
ATOM      2  O   ILE D 175      87.923  44.683  30.461  1.00 42.41    -0.271 OA
ATOM      3  N   PRO D 176      86.144  43.446  31.106  1.00 41.83    -0.337 N 
ATOM      4  CA  PRO D 176      86.885  42.184  31.046  1.00 39.90     0.179 C 
ATOM      5  CB  PRO D 176      86.052  41.285  31.954  1.00 38.91     0.037 C 
ATOM      6  CG  PRO D 176      84.652  41.724  31.671  1.00 40.22     0.022 C 
ATOM      7  CD  PRO D 176      84.716  43.208  31.394  1.00 41.02     0.127 C 
ENDROOT
BRANCH   4   8
ATOM      8  C   PRO D 176      86.995  41.589  29.629  1.00 41.09     0.241 C 
ATOM      9  N   PHE D 177      86.905  42.440  28.612  1.00 41.46    -0.344 N 
ATOM     10  H   PHE D 177      86.706  43.272  28.701  1.00 41.46     0.163 HD
ATOM     11  O   PRO D 176      87.156  40.369  29.466  1.00 40.08    -0.271 OA
BRANCH   9  12
ATOM     12  CA  PHE D 177      87.141  42.023  27.234  1.00 42.13     0.189 C 
BRANCH  12  13
ATOM     13  CB  PHE D 177      85.889  41.365  26.639  1.00 40.75     0.074 C 
BRANCH  13  14
ATOM     14  CG  PHE D 177      84.627  42.162  26.830  1.00 38.35    -0.056 A 
ATOM     15  CD1 PHE D 177      84.329  43.235  25.994  1.00 38.94     0.007 A 
ATOM     16  CE1 PHE D 177      83.165  43.966  26.167  1.00 37.83     0.001 A 
ATOM     17  CZ  PHE D 177      82.277  43.623  27.169  1.00 37.53     0.000 A 
ATOM     18  CE2 PHE D 177      82.553  42.551  28.000  1.00 36.58     0.001 A 
ATOM     19  CD2 PHE D 177      83.722  41.826  27.828  1.00 37.89     0.007 A 
ENDBRANCH  13  14
ENDBRANCH  12  13
BRANCH  12  20
ATOM     20  C   PHE D 177      87.564  43.222  26.400  1.00 42.35     0.197 C 
ATOM     21  OXT PHE D 177      88.052  43.072  25.286  1.00 44.55    -0.646 OA
ATOM     22  O   PHE D 177      87.420  44.369  26.824  1.00 42.35    -0.646 OA
ENDBRANCH  12  20
ENDBRANCH   9  12
ENDBRANCH   4   8
BRANCH   1  23
ATOM     23  CA  ILE D 175      85.967  45.914  31.165  1.00 50.15     0.180 C 
BRANCH  23  24
ATOM     24  CB  ILE D 175      85.570  46.673  29.872  1.00 52.56     0.013 C 
ATOM     25  CG2 ILE D 175      86.773  46.923  28.963  1.00 53.60     0.012 C 
BRANCH  24  26
ATOM     26  CG1 ILE D 175      84.463  45.919  29.119  1.00 53.43     0.002 C 
ATOM     27  CD1 ILE D 175      83.640  46.797  28.198  1.00 54.83     0.005 C 
ENDBRANCH  24  26
ENDBRANCH  23  24
BRANCH  23  28
ATOM     28  N   ILE D 175      86.771  46.741  32.065  1.00 52.48    -0.345 N 
ATOM     29  H   ILE D 175      87.073  47.465  31.713  1.00 52.48     0.163 HD
ATOM     30  C   ASP D 174      86.996  46.368  33.324  1.00 53.52     0.258 C 
ATOM     31  O   ASP D 174      86.368  45.462  33.870  1.00 50.42    -0.271 OA
BRANCH  30  32
ATOM     32  CA  ASP D 174      88.042  47.154  34.119  1.00 56.25     0.409 C 
ATOM     33  N   ASP D 174      89.208  47.633  33.308  1.00 55.41     0.615 N 
BRANCH  32  34
ATOM     34  CB  ASP D 174      87.341  48.314  34.818  1.00 59.33     0.164 C 
BRANCH  34  35
ATOM     35  CG  ASP D 174      86.333  47.836  35.849  1.00 62.66     0.175 C 
ATOM     36  OD2 ASP D 174      85.128  48.146  35.707  1.00 62.95    -0.648 OA
ATOM     37  OD1 ASP D 174      86.754  47.130  36.794  1.00 63.24    -0.648 OA
ENDBRANCH  34  35
ENDBRANCH  32  34
ENDBRANCH  30  32
ENDBRANCH  23  28
ENDBRANCH   1  23
TORSDOF 12
