USER: ADFR SOLUTION from run 0
USER: SCORE 17.969830 LL:  -3.563 LR: -15.403 RR:   0.000 FEB:  -5.858
USER: RMSD 1.025672
USER: STATUS Locally minimized using BFGS
USER: GENES 34
USER: genes 0 Translation |==|  0.59626 0.58086 0.50219
USER: genes 1 Rotation |==|  0.50125 0.50341 0.45865 0.99827
USER: genes 2 Torsion [C]-CA--N-[C] |==|  0.73698
USER: genes 3 Torsion [N]-C--CA-[N] |==|  0.42586
USER: genes 4 Torsion [C]-CA--N-[C] |==|  0.77222
USER: genes 5 Torsion [N]-C--CA-[N] |==|  0.17828
USER: genes 6 Torsion [C]-CA--CB-[CG] |==|  0.49174
USER: genes 7 Torsion [CA]-CB--CG-[CD] |==|  0.54039
USER: genes 8 Torsion [CB]-CG--CD-[NE] |==|  0.77293
USER: genes 9 Torsion [CG]-CD--NE-[HE] |==|  0.76676
USER: genes 10 Torsion [C]-CA--CB-[CG] |==|  0.46120
USER: genes 11 Torsion [CA]-CB--CG-[CD] |==|  0.50702
USER: genes 12 Torsion [CB]-CG--CD-[NE] |==|  0.56065
USER: genes 13 Torsion [CG]-CD--NE-[CZ] |==|  0.23032
USER: genes 14 Torsion [N]-CA--C-[N] |==|  0.42260
USER: genes 15 Torsion [C]-N--CA-[C] |==|  0.80452
USER: genes 16 Torsion [N]-CA--CB-[CG] |==|  0.81545
USER: genes 17 Torsion [CA]-CB--CG-[CD2] |==|  0.76427
USER: genes 18 Torsion [N]-CA--C-[N] |==|  0.41736
USER: genes 19 Torsion [N]-CA--C-[O] |==|  0.89602
USER: genes 20 Torsion [C]-N--CA-[CB] |==|  0.47792
USER: genes 21 Torsion [N]-CA--C-[N] |==|  0.42956
USER: genes 22 Torsion [C]-N--CA-[CB] |==|  0.36838
USER: genes 23 Torsion [N]-CA--C-[O] |==|  0.62663
USER: genes 24 Torsion [N]-CA--CB-[CG2] |==|  0.54594
USER: genes 25 Torsion [CA]-CB--CG1-[CD1] |==|  0.51829
USER: genes 26 Torsion [N]-CA--CB-[CG] |==|  0.74387
USER: genes 27 Torsion [CA]-CB--CG-[CD] |==|  0.49160
USER: genes 28 Torsion [CB]-CG--CD-[OE2] |==|  0.92620
USER: genes 29 Torsion [N]-CA--CB-[CG] |==|  0.73078
USER: genes 30 Torsion [CA]-CB--CG-[CD] |==|  0.60202
USER: genes 31 Torsion [CB]-CG--CD-[CE] |==|  0.86801
USER: genes 32 Torsion [CG]-CD--CE-[NZ] |==|  0.57640
USER: genes 33 Torsion [CD]-CE--NZ-[HZ2] |==|  0.83332
ROOT
ATOM      1  CA  LYS V 154      24.233  15.934 -64.955  1.00 29.23 LIG 0.18  C 
ENDROOT
BRANCH 1 2
ATOM      2  N   LYS V 154      23.742  17.094 -64.199  1.00 29.36 LIG-0.35  N 
ATOM      3 H    LYS V 154      23.298  16.888 -63.491  1.00 29.36 LIG 0.16  HD
ATOM      4  C   ARG V 153      23.971  18.351 -64.586  1.00 28.75 LIG 0.24  C 
ATOM      5 O    ARG V 153      24.732  18.651 -65.499  1.00 27.33 LIG-0.27  OA
BRANCH 4 6
ATOM      6  CA  ARG V 153      23.193  19.434 -63.860  1.00 29.80 LIG 0.18  C 
BRANCH 6 7
ATOM      7  N   ARG V 153      23.887  20.724 -63.857  1.00 31.02 LIG-0.35  N 
ATOM      8 H    ARG V 153      23.613  21.265 -64.467  1.00 31.02 LIG 0.16  HD
ATOM      9  C   ARG V 152      24.856  21.033 -62.987  1.00 33.76 LIG 0.26  C 
ATOM     10 O    ARG V 152      25.257  20.259 -62.105  1.00 32.85 LIG-0.27  OA
BRANCH 9 11
ATOM     11  CA  ARG V 152      25.479  22.430 -63.160  1.00 35.90 LIG 0.40  C 
ATOM     12  N   ARG V 152      24.489  23.523 -62.911  1.00 37.25 LIG 0.61  N 
BRANCH 11 13
ATOM     13  CB  ARG V 152      26.693  22.616 -62.251  1.00 38.16 LIG 0.05  C 
BRANCH 13 14
ATOM     14  CG  ARG V 152      27.374  23.962 -62.452  1.00 40.06 LIG 0.02  C 
BRANCH 14 15
ATOM     15  CD  ARG V 152      28.756  24.016 -61.827  1.00 42.07 LIG 0.14  C 
BRANCH 15 16
ATOM     16  NE  ARG V 152      28.712  24.296 -60.389  1.00 44.48 LIG-0.23  N 
ATOM     17  CZ  ARG V 152      28.752  23.384 -59.415  1.00 45.58 LIG 0.67  C 
ATOM     18  NH1 ARG V 152      28.846  22.082 -59.680  1.00 44.25 LIG-0.23  N 
ATOM     19  NH2 ARG V 152      28.696  23.783 -58.150  1.00 47.95 LIG-0.23  N 
ATOM     20 1HH1 ARG V 152      28.883  21.811 -60.495  1.00 44.25 LIG 0.17  HD
ATOM     21 2HH1 ARG V 152      28.871  21.513 -59.035  1.00 44.25 LIG 0.17  HD
ATOM     22 2HH2 ARG V 152      28.721  23.203 -57.515  1.00 47.95 LIG 0.17  HD
ATOM     23 1HH2 ARG V 152      28.634  24.621 -57.965  1.00 47.95 LIG 0.17  HD
ATOM     24 HE   ARG V 152      28.655  25.120 -60.151  1.00 44.48 LIG 0.18  HD
ENDBRANCH 15 16
ENDBRANCH 14 15
ENDBRANCH 13 14
ENDBRANCH 11 13
ENDBRANCH 9 11
ENDBRANCH 6 7
BRANCH 6 25
ATOM     25  CB  ARG V 153      21.811  19.549 -64.540  1.00 29.44 LIG 0.04  C 
BRANCH 25 26
ATOM     26  CG  ARG V 153      20.801  20.339 -63.735  1.00 30.46 LIG 0.02  C 
BRANCH 26 27
ATOM     27  CD  ARG V 153      19.426  20.393 -64.385  1.00 30.98 LIG 0.14  C 
BRANCH 27 28
ATOM     28  NE  ARG V 153      18.715  21.545 -63.855  1.00 31.91 LIG-0.23  N 
ATOM     29  CZ  ARG V 153      18.858  22.788 -64.305  1.00 32.21 LIG 0.67  C 
ATOM     30  NH2 ARG V 153      19.655  23.073 -65.336  1.00 31.04 LIG-0.23  N 
ATOM     31  NH1 ARG V 153      18.173  23.758 -63.728  1.00 34.14 LIG-0.23  N 
ATOM     32 2HH2 ARG V 153      19.732  23.885 -65.610  1.00 31.04 LIG 0.17  HD
ATOM     33 1HH2 ARG V 153      20.092  22.445 -65.728  1.00 31.04 LIG 0.17  HD
ATOM     34 2HH1 ARG V 153      18.255  24.568 -64.008  1.00 34.14 LIG 0.17  HD
ATOM     35 1HH1 ARG V 153      17.645  23.582 -63.073  1.00 34.14 LIG 0.17  HD
ATOM     36 HE   ARG V 153      18.165  21.414 -63.208  1.00 31.91 LIG 0.18  HD
ENDBRANCH 27 28
ENDBRANCH 26 27
ENDBRANCH 25 26
ENDBRANCH 6 25
ENDBRANCH 4 6
ENDBRANCH 1 2
BRANCH 1 37
ATOM     37  C   LYS V 154      23.194  15.375 -65.939  1.00 29.43 LIG 0.24  C 
ATOM     38 O    LYS V 154      21.982  15.453 -65.721  1.00 29.02 LIG-0.27  OA
ATOM     39  N   LEU V 155      23.699  14.767 -67.003  1.00 29.02 LIG-0.35  N 
ATOM     40 H    LEU V 155      24.542  14.734 -67.174  1.00 29.02 LIG 0.16  HD
BRANCH 39 41
ATOM     41  CA  LEU V 155      22.871  14.093 -67.993  1.00 29.55 LIG 0.18  C 
BRANCH 41 42
ATOM     42  CB  LEU V 155      23.739  13.751 -69.203  1.00 29.70 LIG 0.04  C 
BRANCH 42 43
ATOM     43  CG  LEU V 155      24.242  14.976 -69.968  1.00 30.04 LIG-0.02  C 
ATOM     44  CD1 LEU V 155      25.569  14.703 -70.673  1.00 30.27 LIG 0.01  C 
ATOM     45  CD2 LEU V 155      23.171  15.407 -70.959  1.00 30.44 LIG 0.01  C 
ENDBRANCH 42 43
ENDBRANCH 41 42
BRANCH 41 46
ATOM     46  C   LEU V 155      22.245  12.802 -67.443  1.00 29.88 LIG 0.24  C 
ATOM     47  N   PRO V 156      21.052  12.418 -67.945  1.00 30.63 LIG-0.34  N 
ATOM     48  CD  PRO V 156      20.080  13.168 -68.765  1.00 31.41 LIG 0.13  C 
ATOM     49  CA  PRO V 156      20.539  11.117 -67.546  1.00 30.89 LIG 0.18  C 
ATOM     50  CG  PRO V 156      19.054  12.127 -69.137  1.00 32.36 LIG 0.02  C 
ATOM     51  CB  PRO V 156      19.074  11.158 -68.005  1.00 32.27 LIG 0.04  C 
ATOM     52 O    LEU V 155      22.829  12.159 -66.568  1.00 29.02 LIG-0.27  OA
BRANCH 49 53
ATOM     53  C   PRO V 156      21.295   9.989 -68.237  1.00 31.44 LIG 0.24  C 
ATOM     54 O    PRO V 156      21.665  10.113 -69.405  1.00 31.00 LIG-0.27  OA
ATOM     55  N   GLU V 157      21.545   8.912 -67.497  1.00 32.40 LIG-0.35  N 
ATOM     56 H    GLU V 157      21.417   8.881 -66.647  1.00 32.40 LIG 0.16  HD
BRANCH 55 57
ATOM     57  CA  GLU V 157      22.064   7.667 -68.067  1.00 33.20 LIG 0.18  C 
BRANCH 57 58
ATOM     58  C   GLU V 157      21.006   7.017 -68.947  1.00 33.95 LIG 0.24  C 
ATOM     59 O    GLU V 157      19.815   7.225 -68.741  1.00 33.71 LIG-0.27  OA
ATOM     60  N   ILE V 158      21.451   6.218 -69.909  1.00 34.74 LIG-0.35  N 
ATOM     61 H    ILE V 158      22.284   6.076 -70.062  1.00 34.74 LIG 0.16  HD
BRANCH 60 62
ATOM     62  CA  ILE V 158      20.548   5.500 -70.805  1.00 36.41 LIG 0.17  C 
BRANCH 62 63
ATOM     63  C   ILE V 158      20.486   4.025 -70.385  1.00 36.37 LIG 0.22  C 
ATOM     64 O    ILE V 158      20.565   3.110 -71.206  1.00 37.57 LIG-0.29  OA
ENDBRANCH 62 63
BRANCH 62 65
ATOM     65  CB  ILE V 158      20.998   5.661 -72.275  1.00 38.09 LIG 0.01  C 
ATOM     66  CG2 ILE V 158      19.872   5.278 -73.223  1.00 39.83 LIG 0.01  C 
BRANCH 65 67
ATOM     67  CG1 ILE V 158      21.431   7.108 -72.547  1.00 37.40 LIG 0.00  C 
ATOM     68  CD1 ILE V 158      21.737   7.392 -74.000  1.00 39.06 LIG 0.01  C 
ENDBRANCH 65 67
ENDBRANCH 62 65
ENDBRANCH 60 62
ENDBRANCH 57 58
BRANCH 57 69
ATOM     69  CB  GLU V 157      22.436   6.677 -66.953  1.00 33.67 LIG 0.04  C 
BRANCH 69 70
ATOM     70  CG  GLU V 157      23.884   6.747 -66.492  1.00 33.36 LIG 0.12  C 
BRANCH 70 71
ATOM     71  CD  GLU V 157      24.186   5.805 -65.344  1.00 33.78 LIG 0.17  C 
ATOM     72 OE2  GLU V 157      23.256   5.474 -64.575  1.00 33.85 LIG-0.65  OA
ATOM     73 OE1  GLU V 157      25.356   5.385 -65.215  1.00 33.73 LIG-0.65  OA
ENDBRANCH 70 71
ENDBRANCH 69 70
ENDBRANCH 57 69
ENDBRANCH 55 57
ENDBRANCH 49 53
ENDBRANCH 41 46
ENDBRANCH 39 41
ENDBRANCH 1 37
BRANCH 1 74
ATOM     74  CB  LYS V 154      24.648  14.800 -64.022  1.00 30.73 LIG 0.04  C 
BRANCH 74 75
ATOM     75  CG  LYS V 154      26.139  14.723 -63.700  1.00 31.37 LIG 0.00  C 
BRANCH 75 76
ATOM     76  CD  LYS V 154      26.612  13.277 -63.596  1.00 32.31 LIG 0.03  C 
BRANCH 76 77
ATOM     77  CE  LYS V 154      25.687  12.434 -62.730  1.00 33.00 LIG 0.23  C 
BRANCH 77 78
ATOM     78  NZ  LYS V 154      26.388  11.296 -62.085  1.00 34.35 LIG-0.08  N 
ATOM     79 HZ3  LYS V 154      27.041  11.606 -61.565  1.00 34.35 LIG 0.27  HD
ATOM     80 HZ2  LYS V 154      26.733  10.766 -62.711  1.00 34.35 LIG 0.27  HD
ATOM     81 HZ1  LYS V 154      25.810  10.834 -61.591  1.00 34.35 LIG 0.27  HD
ENDBRANCH 77 78
ENDBRANCH 76 77
ENDBRANCH 75 76
ENDBRANCH 74 75
ENDBRANCH 1 74
TORSDOF 32
