REMARK  32 active torsions:
REMARK  status: ('A' for Active; 'I' for Inactive)
REMARK    1  A    between atoms: CA_2  and  C_3 
REMARK    2  A    between atoms: CA_2  and  CB_5 
REMARK       I    between atoms: C_3  and  N_17 
REMARK    3  A    between atoms: CB_5  and  CG_6 
REMARK    4  A    between atoms: CG_6  and  CD_7 
REMARK    5  A    between atoms: CD_7  and  NE_8 
REMARK       I    between atoms: NE_8  and  CZ_9 
REMARK       I    between atoms: CZ_9  and  NH1_10 
REMARK       I    between atoms: CZ_9  and  NH2_11 
REMARK    6  A    between atoms: N_17  and  CA_18 
REMARK    7  A    between atoms: CA_18  and  CB_21 
REMARK    8  A    between atoms: CA_18  and  C_19 
REMARK       I    between atoms: C_19  and  N_34 
REMARK    9  A    between atoms: CB_21  and  CG_22 
REMARK   10  A    between atoms: CG_22  and  CD_23 
REMARK   11  A    between atoms: CD_23  and  NE_24 
REMARK       I    between atoms: NE_24  and  CZ_25 
REMARK       I    between atoms: CZ_25  and  NH1_26 
REMARK   12  A    between atoms: N_34  and  CA_35 
REMARK   13  A    between atoms: CA_35  and  C_36 
REMARK   14  A    between atoms: CA_35  and  CB_38 
REMARK       I    between atoms: C_36  and  N_47 
REMARK   15  A    between atoms: CB_38  and  CG_39 
REMARK   16  A    between atoms: CG_39  and  CD_40 
REMARK   17  A    between atoms: CD_40  and  CE_41 
REMARK   18  A    between atoms: CE_41  and  NZ_42 
REMARK   19  A    between atoms: N_47  and  CA_48 
REMARK   20  A    between atoms: CA_48  and  CB_51 
REMARK   21  A    between atoms: CA_48  and  C_49 
REMARK       I    between atoms: C_49  and  N_56 
REMARK   22  A    between atoms: CB_51  and  CG_52 
REMARK   23  A    between atoms: CA_57  and  C_58 
REMARK       I    between atoms: C_58  and  N_63 
REMARK   24  A    between atoms: N_63  and  CA_64 
REMARK   25  A    between atoms: CA_64  and  C_65 
REMARK   26  A    between atoms: CA_64  and  CB_67 
REMARK       I    between atoms: C_65  and  N_73 
REMARK   27  A    between atoms: CB_67  and  CG_68 
REMARK   28  A    between atoms: CG_68  and  CD_69 
REMARK   29  A    between atoms: N_73  and  CA_74 
REMARK   30  A    between atoms: CA_74  and  C_75 
REMARK   31  A    between atoms: CA_74  and  CB_77 
REMARK   32  A    between atoms: CB_77  and  CG1_78 
ROOT
ATOM      1  CA  LYS V 154      24.344  15.738 -64.948  1.00 29.23     0.176 C 
ENDROOT
BRANCH   1   2
ATOM      2  N   LYS V 154      23.658  16.804 -64.205  1.00 29.36    -0.346 N 
ATOM      3  H   LYS V 154      23.153  16.519 -63.570  1.00 29.36     0.163 HD
ATOM      4  C   ARG V 153      23.814  18.097 -64.500  1.00 28.75     0.241 C 
ATOM      5  O   ARG V 153      24.648  18.515 -65.294  1.00 27.33    -0.271 OA
BRANCH   4   6
ATOM      6  CA  ARG V 153      22.855  19.063 -63.827  1.00 29.80     0.176 C 
BRANCH   6   7
ATOM      7  N   ARG V 153      23.482  20.345 -63.496  1.00 31.02    -0.346 N 
ATOM      8  H   ARG V 153      23.297  20.974 -64.053  1.00 31.02     0.163 HD
ATOM      9  C   ARG V 152      24.269  20.521 -62.428  1.00 33.76     0.257 C 
ATOM     10  O   ARG V 152      24.541  19.620 -61.621  1.00 32.85    -0.271 OA
BRANCH   9  11
ATOM     11  CA  ARG V 152      24.854  21.936 -62.264  1.00 35.90     0.400 C 
ATOM     12  N   ARG V 152      23.791  22.960 -62.022  1.00 37.25     0.615 N 
BRANCH  11  13
ATOM     13  CB  ARG V 152      25.885  21.987 -61.138  1.00 38.16     0.053 C 
BRANCH  13  14
ATOM     14  CG  ARG V 152      26.529  23.358 -60.995  1.00 40.06     0.023 C 
BRANCH  14  15
ATOM     15  CD  ARG V 152      27.773  23.332 -60.126  1.00 42.07     0.138 C 
BRANCH  15  16
ATOM     16  NE  ARG V 152      27.460  23.371 -58.695  1.00 44.48    -0.227 N 
ATOM     17  CZ  ARG V 152      27.356  22.312 -57.890  1.00 45.58     0.665 C 
ATOM     18  NH1 ARG V 152      27.543  21.072 -58.338  1.00 44.25    -0.235 N 
ATOM     19  NH2 ARG V 152      27.058  22.497 -56.609  1.00 47.95    -0.235 N 
ATOM     20 HH11 ARG V 152      27.736  20.938 -59.165  1.00 44.25     0.174 HD
ATOM     21 HH12 ARG V 152      27.471  20.405 -57.800  1.00 44.25     0.174 HD
ATOM     22 HH22 ARG V 152      26.989  21.821 -56.082  1.00 47.95     0.174 HD
ATOM     23 HH21 ARG V 152      26.934  23.293 -56.307  1.00 47.95     0.174 HD
ATOM     24  HE  ARG V 152      27.332  24.145 -58.343  1.00 44.48     0.177 HD
ENDBRANCH  15  16
ENDBRANCH  14  15
ENDBRANCH  13  14
ENDBRANCH  11  13
ENDBRANCH   9  11
ENDBRANCH   6   7
BRANCH   6  25
ATOM     25  CB  ARG V 153      21.653  19.262 -64.776  1.00 29.44     0.036 C 
BRANCH  25  26
ATOM     26  CG  ARG V 153      20.454  19.905 -64.112  1.00 30.46     0.023 C 
BRANCH  26  27
ATOM     27  CD  ARG V 153      19.280  20.107 -65.060  1.00 30.98     0.138 C 
BRANCH  27  28
ATOM     28  NE  ARG V 153      18.401  21.115 -64.491  1.00 31.91    -0.227 N 
ATOM     29  CZ  ARG V 153      18.625  22.425 -64.548  1.00 32.21     0.665 C 
ATOM     30  NH2 ARG V 153      19.681  22.928 -65.189  1.00 31.04    -0.235 N 
ATOM     31  NH1 ARG V 153      17.764  23.245 -63.974  1.00 34.14    -0.235 N 
ATOM     32 HH22 ARG V 153      19.805  23.779 -65.212  1.00 31.04     0.174 HD
ATOM     33 HH21 ARG V 153      20.238  22.402 -65.579  1.00 31.04     0.174 HD
ATOM     34 HH12 ARG V 153      17.895  24.095 -64.002  1.00 34.14     0.174 HD
ATOM     35 HH11 ARG V 153      17.072  22.930 -63.572  1.00 34.14     0.174 HD
ATOM     36  HE  ARG V 153      17.689  20.847 -64.091  1.00 31.91     0.177 HD
ENDBRANCH  27  28
ENDBRANCH  26  27
ENDBRANCH  25  26
ENDBRANCH   6  25
ENDBRANCH   4   6
ENDBRANCH   1   2
BRANCH   1  37
ATOM     37  C   LYS V 154      23.425  15.011 -65.942  1.00 29.43     0.241 C 
ATOM     38  O   LYS V 154      22.201  14.975 -65.791  1.00 29.02    -0.271 OA
ATOM     39  N   LEU V 155      24.050  14.394 -66.935  1.00 29.02    -0.346 N 
ATOM     40  H   LEU V 155      24.900  14.439 -67.060  1.00 29.02     0.163 HD
BRANCH  39  41
ATOM     41  CA  LEU V 155      23.352  13.575 -67.916  1.00 29.55     0.177 C 
BRANCH  41  42
ATOM     42  CB  LEU V 155      24.322  13.242 -69.049  1.00 29.70     0.038 C 
BRANCH  42  43
ATOM     43  CG  LEU V 155      24.774  14.461 -69.854  1.00 30.04    -0.020 C 
ATOM     44  CD1 LEU V 155      26.151  14.252 -70.481  1.00 30.27     0.009 C 
ATOM     45  CD2 LEU V 155      23.726  14.761 -70.916  1.00 30.44     0.009 C 
ENDBRANCH  42  43
ENDBRANCH  41  42
BRANCH  41  46
ATOM     46  C   LEU V 155      22.821  12.268 -67.308  1.00 29.88     0.243 C 
ATOM     47  N   PRO V 156      21.594  11.851 -67.688  1.00 30.63    -0.337 N 
ATOM     48  CD  PRO V 156      20.524  12.573 -68.404  1.00 31.41     0.127 C 
ATOM     49  CA  PRO V 156      21.160  10.536 -67.242  1.00 30.89     0.179 C 
ATOM     50  CG  PRO V 156      19.495  11.504 -68.673  1.00 32.36     0.022 C 
ATOM     51  CB  PRO V 156      19.656  10.536 -67.550  1.00 32.27     0.037 C 
ATOM     52  O   LEU V 155      23.508  11.642 -66.498  1.00 29.02    -0.271 OA
BRANCH  49  53
ATOM     53  C   PRO V 156      21.874   9.429 -68.008  1.00 31.44     0.241 C 
ATOM     54  O   PRO V 156      22.230   9.609 -69.173  1.00 31.00    -0.271 OA
ATOM     55  N   GLU V 157      22.103   8.305 -67.334  1.00 32.40    -0.346 N 
ATOM     56  H   GLU V 157      21.987   8.229 -66.485  1.00 32.40     0.163 HD
BRANCH  55  57
ATOM     57  CA  GLU V 157      22.578   7.081 -67.982  1.00 33.20     0.177 C 
BRANCH  57  58
ATOM     58  C   GLU V 157      21.572   6.622 -69.028  1.00 33.95     0.241 C 
ATOM     59  O   GLU V 157      20.388   6.926 -68.925  1.00 33.71    -0.271 OA
ATOM     60  N   ILE V 158      22.049   5.876 -70.016  1.00 34.74    -0.347 N 
ATOM     61  H   ILE V 158      22.879   5.667 -70.097  1.00 34.74     0.163 HD
BRANCH  60  62
ATOM     62  CA  ILE V 158      21.193   5.336 -71.069  1.00 36.41     0.166 C 
BRANCH  62  63
ATOM     63  C   ILE V 158      20.888   3.862 -70.767  1.00 36.37     0.219 C 
ATOM     64  O   ILE V 158      20.954   2.992 -71.636  1.00 37.57    -0.287 OA
ENDBRANCH  62  63
BRANCH  62  65
ATOM     65  CB  ILE V 158      21.854   5.514 -72.454  1.00 38.09     0.012 C 
ATOM     66  CG2 ILE V 158      20.828   5.339 -73.563  1.00 39.83     0.012 C 
BRANCH  65  67
ATOM     67  CG1 ILE V 158      22.501   6.901 -72.565  1.00 37.40     0.002 C 
ATOM     68  CD1 ILE V 158      23.031   7.222 -73.944  1.00 39.06     0.005 C 
ENDBRANCH  65  67
ENDBRANCH  62  65
ENDBRANCH  60  62
ENDBRANCH  57  58
BRANCH  57  69
ATOM     69  CB  GLU V 157      22.746   5.954 -66.951  1.00 33.67     0.045 C 
BRANCH  69  70
ATOM     70  CG  GLU V 157      24.137   5.843 -66.347  1.00 33.36     0.116 C 
BRANCH  70  71
ATOM     71  CD  GLU V 157      24.238   4.761 -65.290  1.00 33.78     0.172 C 
ATOM     72  OE2 GLU V 157      23.208   4.439 -64.657  1.00 33.85    -0.648 OA
ATOM     73  OE1 GLU V 157      25.350   4.224 -65.097  1.00 33.73    -0.648 OA
ENDBRANCH  70  71
ENDBRANCH  69  70
ENDBRANCH  57  69
ENDBRANCH  55  57
ENDBRANCH  49  53
ENDBRANCH  41  46
ENDBRANCH  39  41
ENDBRANCH   1  37
BRANCH   1  74
ATOM     74  CB  LYS V 154      24.927  14.691 -64.002  1.00 30.73     0.035 C 
BRANCH  74  75
ATOM     75  CG  LYS V 154      26.400  14.875 -63.643  1.00 31.37     0.004 C 
BRANCH  75  76
ATOM     76  CD  LYS V 154      27.108  13.533 -63.492  1.00 32.31     0.027 C 
BRANCH  76  77
ATOM     77  CE  LYS V 154      26.327  12.571 -62.608  1.00 33.00     0.229 C 
BRANCH  77  78
ATOM     78  NZ  LYS V 154      27.201  11.590 -61.919  1.00 34.35    -0.079 N 
ATOM     79  HZ3 LYS V 154      27.784  12.022 -61.403  1.00 34.35     0.274 HD
ATOM     80  HZ2 LYS V 154      27.641  11.108 -62.524  1.00 34.35     0.274 HD
ATOM     81  HZ1 LYS V 154      26.703  11.051 -61.416  1.00 34.35     0.274 HD
ENDBRANCH  77  78
ENDBRANCH  76  77
ENDBRANCH  75  76
ENDBRANCH  74  75
ENDBRANCH   1  74
TORSDOF 32
