USER: ADFR SOLUTION from run 0
USER: SCORE 22.874515 LL:  -5.292 LR: -20.690 RR:   0.000 FEB: -11.741
USER: RMSD 1.025065
USER: STATUS Locally minimized using BFGS
USER: GENES 32
USER: genes 0 Translation |==|  0.44246 0.45777 0.48335
USER: genes 1 Rotation |==|  0.55058 0.49586 0.48730 0.99726
USER: genes 2 Torsion [C]-N--CA-[C] |==|  0.61612
USER: genes 3 Torsion [N]-CA--C-[N] |==|  0.38225
USER: genes 4 Torsion [C]-N--CA-[CB] |==|  0.27276
USER: genes 5 Torsion [N]-CA--C-[N] |==|  0.36667
USER: genes 6 Torsion [C]-N--CA-[CB] |==|  0.44118
USER: genes 7 Torsion [N]-CA--CB-[CG2] |==|  0.85663
USER: genes 8 Torsion [N]-CA--C-[N] |==|  0.34123
USER: genes 9 Torsion [C]-N--CA-[C] |==|  0.67966
USER: genes 10 Torsion [N]-CA--C-[OXT] |==|  0.40187
USER: genes 11 Torsion [N]-CA--CB-[CG] |==|  0.89094
USER: genes 12 Torsion [CA]-CB--CG-[SD] |==|  0.85145
USER: genes 13 Torsion [CB]-CG--SD-[CE] |==|  0.83343
USER: genes 14 Torsion [N]-CA--CB-[CG2] |==|  0.50026
USER: genes 15 Torsion [CA]-CB--OG1-[HG1] |==|  0.25182
USER: genes 16 Torsion [N]-CA--CB-[CG] |==|  0.49867
USER: genes 17 Torsion [CA]-CB--CG-[CD] |==|  0.43898
USER: genes 18 Torsion [CB]-CG--CD-[OE2] |==|  0.46133
USER: genes 19 Torsion [N]-C--CA-[N] |==|  0.41718
USER: genes 20 Torsion [C]-CA--CB-[CG] |==|  0.41044
USER: genes 21 Torsion [CA]-CB--CG-[CD1] |==|  0.99081
USER: genes 22 Torsion [C]-CA--N-[C] |==|  0.63645
USER: genes 23 Torsion [N]-C--CA-[N] |==|  0.39404
USER: genes 24 Torsion [C]-CA--N-[C] |==|  0.71927
USER: genes 25 Torsion [N]-C--CA-[N] |==|  0.38444
USER: genes 26 Torsion [C]-CA--CB-[CG] |==|  0.15972
USER: genes 27 Torsion [CA]-CB--CG-[CD] |==|  0.53252
USER: genes 28 Torsion [CB]-CG--CD-[OE2] |==|  0.51869
USER: genes 29 Torsion [C]-CA--CB-[CG] |==|  0.42376
USER: genes 30 Torsion [CA]-CB--CG-[CD] |==|  0.53115
USER: genes 31 Torsion [CB]-CG--CD-[OE2] |==|  0.47666
ROOT
ATOM      1  C   TRP B 589     -11.364   0.103 -12.589  1.00  8.59 LIG 0.24  C 
ATOM      2 O    TRP B 589     -10.827   0.271 -11.499  1.00  9.54 LIG-0.27  OA
ATOM      3  N   GLU B 590     -10.695  -0.219 -13.684  1.00  8.93 LIG-0.35  N 
ATOM      4 H    GLU B 590     -11.074  -0.345 -14.445  1.00  8.93 LIG 0.16  HD
ENDROOT
BRANCH 3 5
ATOM      5  CA  GLU B 590      -9.249  -0.392 -13.719  1.00  8.22 LIG 0.18  C 
BRANCH 5 6
ATOM      6  C   GLU B 590      -8.703   0.252 -14.985  1.00  8.58 LIG 0.24  C 
ATOM      7 O    GLU B 590      -9.287   0.105 -16.054  1.00 10.27 LIG-0.27  OA
ATOM      8  N   THR B 591      -7.584   0.957 -14.856  1.00  8.10 LIG-0.34  N 
ATOM      9 H    THR B 591      -7.165   1.041 -14.111  1.00  8.10 LIG 0.16  HD
BRANCH 8 10
ATOM     10  CA  THR B 591      -6.953   1.659 -15.969  1.00  8.42 LIG 0.20  C 
BRANCH 10 11
ATOM     11  C   THR B 591      -5.444   1.490 -15.869  1.00  8.31 LIG 0.24  C 
ATOM     12  N   VAL B 592      -4.829   1.128 -16.984  1.00  8.54 LIG-0.35  N 
ATOM     13 H    VAL B 592      -5.248   0.982 -17.720  1.00  8.54 LIG 0.16  HD
ATOM     14 O    THR B 591      -4.854   1.708 -14.802  1.00  8.65 LIG-0.27  OA
BRANCH 12 15
ATOM     15  CA  VAL B 592      -3.398   0.937 -17.092  1.00  9.13 LIG 0.18  C 
BRANCH 15 16
ATOM     16  CB  VAL B 592      -3.064   0.035 -18.306  1.00  9.93 LIG 0.01  C 
ATOM     17  CG2 VAL B 592      -3.885  -1.256 -18.265  1.00 10.24 LIG 0.01  C 
ATOM     18  CG1 VAL B 592      -1.583  -0.265 -18.346  1.00 10.82 LIG 0.01  C 
ENDBRANCH 15 16
BRANCH 15 19
ATOM     19  C   VAL B 592      -2.731   2.294 -17.229  1.00  9.48 LIG 0.24  C 
ATOM     20 O    VAL B 592      -3.057   3.047 -18.144  1.00 10.72 LIG-0.27  OA
ATOM     21  N   MET B 593      -1.807   2.602 -16.318  1.00 10.11 LIG-0.34  N 
ATOM     22 H    MET B 593      -1.539   2.057 -15.709  1.00 10.11 LIG 0.16  HD
BRANCH 21 23
ATOM     23  CA  MET B 593      -1.157   3.914 -16.275  1.00 11.88 LIG 0.19  C 
BRANCH 23 24
ATOM     24  C   MET B 593       0.341   3.866 -16.560  1.00 15.28 LIG 0.20  C 
ATOM     25 OXT  MET B 593       0.866   4.792 -17.179  1.00 15.41 LIG-0.65  OA
ATOM     26 O    MET B 593       1.062   2.970 -16.106  1.00 17.52 LIG-0.65  OA
ENDBRANCH 23 24
BRANCH 23 27
ATOM     27  CB  MET B 593      -1.331   4.547 -14.899  1.00 10.86 LIG 0.05  C 
BRANCH 27 28
ATOM     28  CG  MET B 593      -2.689   4.328 -14.276  1.00 11.31 LIG 0.08  C 
BRANCH 28 29
ATOM     29 SD   MET B 593      -4.089   4.809 -15.295  1.00 11.06 LIG-0.17  SA
ATOM     30  CE  MET B 593      -3.777   6.554 -15.544  1.00 12.56 LIG 0.09  C 
ENDBRANCH 28 29
ENDBRANCH 27 28
ENDBRANCH 23 27
ENDBRANCH 21 23
ENDBRANCH 15 19
ENDBRANCH 12 15
ENDBRANCH 10 11
BRANCH 10 31
ATOM     31  CB  THR B 591      -7.347   3.163 -15.949  1.00  8.77 LIG 0.15  C 
ATOM     32  CG2 THR B 591      -6.715   3.935 -17.091  1.00  9.88 LIG 0.04  C 
BRANCH 31 33
ATOM     33 OG1  THR B 591      -8.770   3.260 -16.032  1.00  9.65 LIG-0.39  OA
ATOM     34 HG1  THR B 591      -9.096   3.265 -15.258  1.00  9.65 LIG 0.21  HD
ENDBRANCH 31 33
ENDBRANCH 10 31
ENDBRANCH 8 10
ENDBRANCH 5 6
BRANCH 5 35
ATOM     35  CB  GLU B 590      -8.890  -1.882 -13.641  1.00  9.50 LIG 0.04  C 
BRANCH 35 36
ATOM     36  CG  GLU B 590      -7.401  -2.181 -13.681  1.00  9.44 LIG 0.12  C 
BRANCH 36 37
ATOM     37  CD  GLU B 590      -7.004  -3.526 -13.096  1.00 10.34 LIG 0.17  C 
ATOM     38 OE2  GLU B 590      -5.853  -3.941 -13.337  1.00  9.56 LIG-0.65  OA
ATOM     39 OE1  GLU B 590      -7.806  -4.133 -12.360  1.00 12.93 LIG-0.65  OA
ENDBRANCH 36 37
ENDBRANCH 35 36
ENDBRANCH 5 35
ENDBRANCH 3 5
BRANCH 1 40
ATOM     40  CA  TRP B 589     -12.855   0.296 -12.756  1.00 10.41 LIG 0.18  C 
BRANCH 40 41
ATOM     41  CB  TRP B 589     -13.107   1.757 -13.104  1.00 16.42 LIG 0.07  C 
BRANCH 41 42
ATOM     42  CG  TRP B 589     -14.265   2.001 -13.987  1.00 28.27 LIG-0.03  A 
ATOM     43  CD1 TRP B 589     -15.075   1.070 -14.562  1.00 31.36 LIG 0.10  A 
ATOM     44  NE1 TRP B 589     -16.045   1.689 -15.315  1.00 35.25 LIG-0.36  N 
ATOM     45 HE1  TRP B 589     -16.664   1.289 -15.759  1.00 35.25 LIG 0.17  HD
ATOM     46  CE2 TRP B 589     -15.865   3.044 -15.242  1.00 40.47 LIG 0.04  A 
ATOM     47  CD2 TRP B 589     -14.750   3.276 -14.413  1.00 37.76 LIG-0.00  A 
ATOM     48  CZ2 TRP B 589     -16.584   4.080 -15.834  1.00 47.06 LIG 0.03  A 
ATOM     49  CE3 TRP B 589     -14.350   4.595 -14.175  1.00 44.39 LIG 0.01  A 
ATOM     50  CZ3 TRP B 589     -15.066   5.623 -14.763  1.00 48.60 LIG 0.00  A 
ATOM     51  CH2 TRP B 589     -16.170   5.359 -15.581  1.00 49.92 LIG 0.00  A 
ENDBRANCH 41 42
ENDBRANCH 40 41
BRANCH 40 52
ATOM     52  N   TRP B 589     -13.521  -0.056 -11.521  1.00 10.46 LIG-0.35  N 
ATOM     53 H    TRP B 589     -13.169   0.311 -10.827  1.00 10.46 LIG 0.16  HD
ATOM     54  C   GLU B 588     -14.564  -0.860 -11.456  1.00 14.97 LIG 0.24  C 
ATOM     55 O    GLU B 588     -15.100  -1.371 -12.440  1.00 17.61 LIG-0.27  OA
BRANCH 54 56
ATOM     56  CA  GLU B 588     -15.071  -1.105 -10.045  1.00 18.53 LIG 0.18  C 
BRANCH 56 57
ATOM     57  N   GLU B 588     -16.531  -1.168 -10.002  1.00 19.74 LIG-0.35  N 
ATOM     58 H    GLU B 588     -16.852  -1.922 -10.263  1.00 19.74 LIG 0.16  HD
ATOM     59  C   GLU B 587     -17.295  -0.149  -9.595  1.00 22.74 LIG 0.26  C 
ATOM     60 O    GLU B 587     -16.848   0.926  -9.206  1.00 21.09 LIG-0.27  OA
BRANCH 59 61
ATOM     61  CA  GLU B 587     -18.803  -0.368  -9.640  1.00 29.94 LIG 0.40  C 
ATOM     62  N   GLU B 587     -19.425   0.185  -8.436  1.00 28.95 LIG 0.61  N 
BRANCH 61 63
ATOM     63  CB  GLU B 587     -19.376   0.296 -10.896  1.00 39.60 LIG 0.06  C 
BRANCH 63 64
ATOM     64  CG  GLU B 587     -18.770  -0.193 -12.207  1.00 49.02 LIG 0.12  C 
BRANCH 64 65
ATOM     65  CD  GLU B 587     -19.153   0.677 -13.390  1.00 58.19 LIG 0.17  C 
ATOM     66 OE2  GLU B 587     -18.823   0.307 -14.536  1.00 61.83 LIG-0.65  OA
ATOM     67 OE1  GLU B 587     -19.782   1.735 -13.173  1.00 60.20 LIG-0.65  OA
ENDBRANCH 64 65
ENDBRANCH 63 64
ENDBRANCH 61 63
ENDBRANCH 59 61
ENDBRANCH 56 57
BRANCH 56 68
ATOM     68  CB  GLU B 588     -14.428  -2.374  -9.465  1.00 23.70 LIG 0.04  C 
BRANCH 68 69
ATOM     69  CG  GLU B 588     -14.323  -2.352  -7.932  1.00 29.39 LIG 0.12  C 
BRANCH 69 70
ATOM     70  CD  GLU B 588     -13.458  -3.459  -7.356  1.00 34.84 LIG 0.17  C 
ATOM     71 OE2  GLU B 588     -13.191  -3.417  -6.135  1.00 36.82 LIG-0.65  OA
ATOM     72 OE1  GLU B 588     -13.047  -4.368  -8.107  1.00 37.43 LIG-0.65  OA
ENDBRANCH 69 70
ENDBRANCH 68 69
ENDBRANCH 56 68
ENDBRANCH 54 56
ENDBRANCH 40 52
ENDBRANCH 1 40
TORSDOF 30
