REMARK  9 active torsions:
REMARK  status: ('A' for Active; 'I' for Inactive)
REMARK    1  A    between atoms: CA_2  and  C_3 
REMARK       I    between atoms: C_3  and  N_6 
REMARK    2  A    between atoms: N_6  and  CA_7 
REMARK    3  A    between atoms: CA_7  and  C_8 
REMARK       I    between atoms: C_8  and  N_11 
REMARK    4  A    between atoms: N_11  and  CA_12 
REMARK    5  A    between atoms: CA_12  and  C_13 
REMARK       I    between atoms: C_13  and  N_17 
REMARK    6  A    between atoms: N_17  and  CA_18 
REMARK    7  A    between atoms: CA_18  and  C_19 
REMARK       I    between atoms: C_19  and  N_22 
REMARK    8  A    between atoms: N_22  and  CA_23 
REMARK    9  A    between atoms: CA_23  and  C_24 
ROOT
ATOM      1  CA  ALA F 463      34.483 -25.326  25.158  1.00 80.84     0.172 C 
ATOM      2  CB  ALA F 463      34.063 -24.177  24.254  1.00 75.28     0.042 C 
ENDROOT
BRANCH   1   3
ATOM      3  C   ALA F 463      35.998 -25.359  25.315  1.00 84.46     0.240 C 
ATOM      4  O   ALA F 463      36.614 -26.424  25.265  1.00 85.06    -0.271 OA
ATOM      5  N   GLY F 464      36.595 -24.188  25.509  1.00 87.45    -0.351 N 
ATOM      6  H   GLY F 464      36.185 -23.432  25.491  1.00 87.45     0.163 HD
BRANCH   5   7
ATOM      7  CA  GLY F 464      38.019 -24.089  25.773  1.00 89.28     0.225 C 
BRANCH   7   8
ATOM      8  C   GLY F 464      38.912 -24.270  24.558  1.00 90.16     0.235 C 
ATOM      9  O   GLY F 464      40.102 -23.956  24.610  1.00 90.52    -0.272 OA
ATOM     10  N   ALA F 465      38.343 -24.775  23.465  1.00 88.18    -0.348 N 
ATOM     11  H   ALA F 465      37.509 -24.977  23.410  1.00 88.18     0.163 HD
BRANCH  10  12
ATOM     12  CA  ALA F 465      39.104 -25.033  22.245  1.00 85.90     0.158 C 
ATOM     13  CB  ALA F 465      39.661 -26.450  22.259  1.00 84.54     0.041 C 
BRANCH  12  14
ATOM     14  C   ALA F 465      38.255 -24.813  20.994  1.00 85.67     0.219 C 
ATOM     15  O   ALA F 465      38.720 -25.025  19.871  1.00 84.89    -0.287 OA
ENDBRANCH  12  14
ENDBRANCH  10  12
ENDBRANCH   7   8
ENDBRANCH   5   7
ENDBRANCH   1   3
BRANCH   1  16
ATOM     16  N   ALA F 463      33.845 -25.211  26.465  1.00 83.00    -0.347 N 
ATOM     17  C   GLY F 462      33.992 -26.146  27.401  1.00 85.58     0.236 C 
ATOM     18  O   GLY F 462      34.655 -27.170  27.232  1.00 87.56    -0.272 OA
ATOM     19  H   ALA F 463      33.376 -24.498  26.569  1.00 83.00     0.163 HD
BRANCH  17  20
ATOM     20  CA  GLY F 462      33.287 -25.894  28.718  1.00 87.31     0.225 C 
BRANCH  20  21
ATOM     21  N   GLY F 462      32.896 -27.124  29.380  1.00 88.73    -0.350 N 
ATOM     22  C   ALA F 461      31.908 -27.886  28.924  1.00 88.98     0.256 C 
ATOM     23  O   ALA F 461      31.254 -27.609  27.919  1.00 91.33    -0.271 OA
ATOM     24  H   GLY F 462      33.357 -27.309  30.082  1.00 88.73     0.163 HD
BRANCH  22  25
ATOM     25  CA  ALA F 461      31.612 -29.147  29.727  1.00 85.90     0.396 C 
ATOM     26  CB  ALA F 461      30.400 -29.871  29.160  1.00 82.87     0.059 C 
ATOM     27  N   ALA F 461      31.402 -28.827  31.135  1.00 83.73     0.614 N 
ENDBRANCH  22  25
ENDBRANCH  20  21
ENDBRANCH  17  20
ENDBRANCH   1  16
TORSDOF 9
