USER: ADFR SOLUTION from run 0
USER: SCORE 4.599296 LL:  -1.392 LR:  -5.173 RR:   0.000 FEB:  -2.489
USER: RMSD 1.138566
USER: STATUS Locally minimized using BFGS
USER: GENES 11
USER: genes 0 Translation |==|  0.43447 0.59170 0.45459
USER: genes 1 Rotation |==|  0.51818 0.50524 0.46906 0.99868
USER: genes 2 Torsion [N]-CA--C-[N] |==|  0.81362
USER: genes 3 Torsion [C]-N--CA-[C] |==|  0.23408
USER: genes 4 Torsion [N]-CA--C-[N] |==|  0.95000
USER: genes 5 Torsion [C]-N--CA-[C] |==|  0.62792
USER: genes 6 Torsion [N]-CA--C-[O] |==|  0.48127
USER: genes 7 Torsion [CB]-CA--N-[C] |==|  0.50990
USER: genes 8 Torsion [N]-C--CA-[N] |==|  0.36818
USER: genes 9 Torsion [C]-CA--N-[C] |==|  0.82015
USER: genes 10 Torsion [N]-C--CA-[N] |==|  0.22051
ROOT
ATOM      1  CA  ALA F 463      34.071 -25.276  24.618  1.00 80.84 LIG 0.17  C 
ATOM      2  CB  ALA F 463      33.783 -24.020  23.809  1.00 75.28 LIG 0.04  C 
ENDROOT
BRANCH 1 3
ATOM      3  C   ALA F 463      35.573 -25.506  24.733  1.00 84.46 LIG 0.24  C 
ATOM      4 O    ALA F 463      36.077 -26.571  24.377  1.00 85.06 LIG-0.27  OA
ATOM      5  N   GLY F 464      36.285 -24.503  25.237  1.00 87.45 LIG-0.35  N 
ATOM      6 H    GLY F 464      35.955 -23.735  25.438  1.00 87.45 LIG 0.16  HD
BRANCH 5 7
ATOM      7  CA  GLY F 464      37.708 -24.628  25.494  1.00 89.28 LIG 0.23  C 
BRANCH 7 8
ATOM      8  C   GLY F 464      38.603 -24.366  24.295  1.00 90.16 LIG 0.23  C 
ATOM      9 O    GLY F 464      39.799 -24.118  24.456  1.00 90.52 LIG-0.27  OA
ATOM     10  N   ALA F 465      38.029 -24.421  23.095  1.00 88.18 LIG-0.35  N 
ATOM     11 H    ALA F 465      37.191 -24.571  22.972  1.00 88.18 LIG 0.16  HD
BRANCH 10 12
ATOM     12  CA  ALA F 465      38.790 -24.226  21.863  1.00 85.90 LIG 0.16  C 
ATOM     13  CB  ALA F 465      39.047 -25.564  21.183  1.00 84.54 LIG 0.04  C 
BRANCH 12 14
ATOM     14  C   ALA F 465      38.076 -23.276  20.903  1.00 85.67 LIG 0.22  C 
ATOM     15 O    ALA F 465      38.626 -22.896  19.866  1.00 84.89 LIG-0.29  OA
ENDBRANCH 12 14
ENDBRANCH 10 12
ENDBRANCH 7 8
ENDBRANCH 5 7
ENDBRANCH 1 3
BRANCH 1 16
ATOM     16  N   ALA F 463      33.474 -25.180  25.945  1.00 83.00 LIG-0.35  N 
ATOM     17  C   GLY F 462      33.650 -26.129  26.862  1.00 85.58 LIG 0.24  C 
ATOM     18 O    GLY F 462      34.307 -27.150  26.658  1.00 87.56 LIG-0.27  OA
ATOM     19 H    ALA F 463      33.009 -24.469  26.074  1.00 83.00 LIG 0.16  HD
BRANCH 17 20
ATOM     20  CA  GLY F 462      32.986 -25.896  28.204  1.00 87.31 LIG 0.23  C 
BRANCH 20 21
ATOM     21  N   GLY F 462      32.261 -27.063  28.672  1.00 88.73 LIG-0.35  N 
ATOM     22  C   ALA F 461      31.199 -27.536  28.030  1.00 88.98 LIG 0.26  C 
ATOM     23 O    ALA F 461      30.751 -27.026  27.003  1.00 91.33 LIG-0.27  OA
ATOM     24 H    GLY F 462      32.580 -27.411  29.390  1.00 88.73 LIG 0.16  HD
BRANCH 22 25
ATOM     25  CA  ALA F 461      30.542 -28.767  28.643  1.00 85.90 LIG 0.40  C 
ATOM     26  CB  ALA F 461      29.735 -29.520  27.596  1.00 82.87 LIG 0.06  C 
ATOM     27  N   ALA F 461      29.693 -28.394  29.769  1.00 83.73 LIG 0.61  N 
ENDBRANCH 22 25
ENDBRANCH 20 21
ENDBRANCH 17 20
ENDBRANCH 1 16
TORSDOF 9
