REMARK  18 active torsions:
REMARK  status: ('A' for Active; 'I' for Inactive)
REMARK    1  A    between atoms: N_1  and  CA_2 
REMARK    2  A    between atoms: CA_2  and  C_3 
REMARK    3  A    between atoms: CA_2  and  CB_5 
REMARK       I    between atoms: C_3  and  N_19 
REMARK    4  A    between atoms: CB_5  and  CG_6 
REMARK    5  A    between atoms: N_19  and  CA_20 
REMARK    6  A    between atoms: CA_20  and  C_21 
REMARK    7  A    between atoms: CA_20  and  CB_23 
REMARK       I    between atoms: C_21  and  N_29 
REMARK    8  A    between atoms: CB_23  and  CG_24 
REMARK    9  A    between atoms: CG_24  and  CD_25 
REMARK   10  A    between atoms: N_29  and  CA_30 
REMARK   11  A    between atoms: CA_30  and  CB_33 
REMARK   12  A    between atoms: CA_30  and  C_31 
REMARK       I    between atoms: C_31  and  N_39 
REMARK   13  A    between atoms: CB_33  and  CG_34 
REMARK   14  A    between atoms: CG_34  and  CD_35 
REMARK   15  A    between atoms: N_39  and  CA_40 
REMARK   16  A    between atoms: CA_40  and  CB_43 
REMARK   17  A    between atoms: CA_40  and  C_41 
REMARK   18  A    between atoms: CB_43  and  CG_44 
ROOT
ATOM      1  CA  GLU C   2     -21.234  21.278  -2.586  1.00 17.05     0.177 C 
ENDROOT
BRANCH   1   2
ATOM      2  N   GLU C   2     -22.534  21.789  -2.992  1.00 17.18    -0.346 N 
ATOM      3  H   GLU C   2     -23.093  21.186  -3.245  1.00 17.18     0.163 HD
ATOM      4  C   TRP C   1     -22.802  23.087  -2.962  1.00 16.43     0.249 C 
ATOM      5  O   TRP C   1     -22.001  23.927  -2.562  1.00 19.21    -0.271 OA
BRANCH   4   6
ATOM      6  CA  TRP C   1     -24.174  23.495  -3.461  1.00 16.09     0.278 C 
BRANCH   6   7
ATOM      7  N   TRP C   1     -24.803  24.527  -2.594  1.00 14.00    -0.066 N 
ATOM      8  H2  TRP C   1     -25.168  24.135  -1.883  1.00 14.00     0.275 HD
ATOM      9  H1  TRP C   1     -25.434  24.956  -3.052  1.00 14.00     0.275 HD
ATOM     10  H3  TRP C   1     -24.184  25.108  -2.327  1.00 14.00     0.275 HD
ENDBRANCH   6   7
BRANCH   6  11
ATOM     11  CB  TRP C   1     -24.027  24.007  -4.898  1.00 13.46     0.083 C 
BRANCH  11  12
ATOM     12  CG  TRP C   1     -25.319  24.269  -5.578  1.00 14.84    -0.028 A 
ATOM     13  CD1 TRP C   1     -25.947  25.472  -5.720  1.00 13.19     0.096 A 
ATOM     14  NE1 TRP C   1     -27.153  25.304  -6.357  1.00 14.33    -0.365 N 
ATOM     15  HE1 TRP C   1     -27.710  25.931  -6.547  1.00 14.33     0.165 HD
ATOM     16  CE2 TRP C   1     -27.321  23.973  -6.639  1.00 14.48     0.042 A 
ATOM     17  CZ2 TRP C   1     -28.381  23.310  -7.269  1.00 13.61     0.030 A 
ATOM     18  CD2 TRP C   1     -26.182  23.290  -6.160  1.00 13.42    -0.002 A 
ATOM     19  CH2 TRP C   1     -28.279  21.948  -7.416  1.00 12.22     0.002 A 
ATOM     20  CZ3 TRP C   1     -27.155  21.240  -6.951  1.00 14.06     0.001 A 
ATOM     21  CE3 TRP C   1     -26.103  21.899  -6.325  1.00 13.53     0.014 A 
ENDBRANCH  11  12
ENDBRANCH   6  11
ENDBRANCH   4   6
ENDBRANCH   1   2
BRANCH   1  22
ATOM     22  C   GLU C   2     -20.989  19.933  -3.234  1.00 17.76     0.241 C 
ATOM     23  O   GLU C   2     -21.930  19.221  -3.581  1.00 15.11    -0.271 OA
ATOM     24  N   GLU C   3     -19.717  19.602  -3.421  1.00 16.84    -0.346 N 
ATOM     25  H   GLU C   3     -19.055  20.108  -3.208  1.00 16.84     0.163 HD
BRANCH  24  26
ATOM     26  CA  GLU C   3     -19.331  18.332  -4.013  1.00 19.32     0.177 C 
BRANCH  26  27
ATOM     27  CB  GLU C   3     -17.810  18.295  -4.178  1.00 21.63     0.045 C 
BRANCH  27  28
ATOM     28  CG  GLU C   3     -17.250  17.096  -4.924  1.00 28.11     0.116 C 
BRANCH  28  29
ATOM     29  CD  GLU C   3     -17.677  17.051  -6.378  1.00 31.25     0.172 C 
ATOM     30  OE2 GLU C   3     -17.905  15.936  -6.896  1.00 33.54    -0.648 OA
ATOM     31  OE1 GLU C   3     -17.768  18.126  -7.009  1.00 33.71    -0.648 OA
ENDBRANCH  28  29
ENDBRANCH  27  28
ENDBRANCH  26  27
BRANCH  26  32
ATOM     32  C   GLU C   3     -19.789  17.233  -3.056  1.00 20.73     0.241 C 
ATOM     33  N   LEU C   4     -20.454  16.209  -3.586  1.00 21.37    -0.345 N 
ATOM     34  H   LEU C   4     -20.639  16.133  -4.422  1.00 21.37     0.163 HD
ATOM     35  O   GLU C   3     -19.556  17.321  -1.850  1.00 19.68    -0.271 OA
BRANCH  33  36
ATOM     36  CA  LEU C   4     -20.929  15.110  -2.755  1.00 23.29     0.185 C 
BRANCH  36  37
ATOM     37  CB  LEU C   4     -21.729  14.104  -3.585  1.00 22.30     0.040 C 
BRANCH  37  38
ATOM     38  CG  LEU C   4     -22.270  12.924  -2.772  1.00 23.00    -0.020 C 
ATOM     39  CD2 LEU C   4     -22.803  11.853  -3.708  1.00 24.82     0.009 C 
ATOM     40  CD1 LEU C   4     -23.371  13.407  -1.840  1.00 24.76     0.009 C 
ENDBRANCH  37  38
ENDBRANCH  36  37
BRANCH  36  41
ATOM     41  C   LEU C   4     -19.753  14.390  -2.110  1.00 23.96     0.196 C 
ATOM     42  O   LEU C   4     -19.817  14.132  -0.889  1.00 25.84    -0.646 OA
ATOM     43  OXT LEU C   4     -18.790  14.080  -2.845  1.00 25.23    -0.646 OA
ENDBRANCH  36  41
ENDBRANCH  33  36
ENDBRANCH  26  32
ENDBRANCH  24  26
ENDBRANCH   1  22
BRANCH   1  44
ATOM     44  CB  GLU C   2     -21.131  21.145  -1.063  1.00 20.11     0.045 C 
BRANCH  44  45
ATOM     45  CG  GLU C   2     -22.045  20.114  -0.436  1.00 24.89     0.116 C 
BRANCH  45  46
ATOM     46  CD  GLU C   2     -21.736  19.896   1.038  1.00 27.65     0.172 C 
ATOM     47  OE1 GLU C   2     -20.820  19.106   1.358  1.00 28.60    -0.648 OA
ATOM     48  OE2 GLU C   2     -22.405  20.529   1.880  1.00 30.33    -0.648 OA
ENDBRANCH  45  46
ENDBRANCH  44  45
ENDBRANCH   1  44
TORSDOF 18
