USER: ADFR SOLUTION from run 0
USER: SCORE 6.526351 LL:  -2.167 LR:  -5.084 RR:   0.000 FEB:  -1.206
USER: RMSD 2.295089
USER: STATUS Locally minimized using BFGS
USER: GENES 15
USER: genes 0 Translation |==|  0.49756 0.52873 0.45718
USER: genes 1 Rotation |==|  0.48085 0.45585 0.60104 0.98731
USER: genes 2 Torsion [C]-N--CA-[CB] |==|  0.50000
USER: genes 3 Torsion [N]-CA--C-[N] |==|  0.39954
USER: genes 4 Torsion [C]-N--CA-[CB] |==|  0.43031
USER: genes 5 Torsion [N]-CA--CB-[CG] |==|  0.81103
USER: genes 6 Torsion [CA]-CB--CG-[OD1] |==|  0.02830
USER: genes 7 Torsion [N]-CA--C-[O] |==|  0.99867
USER: genes 8 Torsion [N]-CA--CB-[CG2] |==|  0.73398
USER: genes 9 Torsion [N]-C--CA-[N] |==|  0.38121
USER: genes 10 Torsion [C]-CA--N-[C] |==|  0.76774
USER: genes 11 Torsion [N]-C--CA-[N] |==|  0.21913
USER: genes 12 Torsion [C]-CA--CB-[CG] |==|  0.43120
USER: genes 13 Torsion [CA]-CB--CG-[CD2] |==|  0.42231
USER: genes 14 Torsion [C]-CA--CB-[CG2] |==|  0.76367
ROOT
ATOM      1  C   VAL D4842     -57.091  28.041  38.438  1.00 57.35 LIG 0.24  C 
ATOM      2 O    VAL D4842     -57.176  28.189  37.212  1.00 61.28 LIG-0.27  OA
ATOM      3  N   VAL D4843     -56.736  26.892  38.998  1.00 52.36 LIG-0.35  N 
ATOM      4 H    VAL D4843     -56.511  26.824  39.826  1.00 52.36 LIG 0.16  HD
ENDROOT
BRANCH 3 5
ATOM      5  CA  VAL D4843     -56.688  25.629  38.276  1.00 37.99 LIG 0.18  C 
BRANCH 5 6
ATOM      6  C   VAL D4843     -58.143  25.420  37.790  1.00 51.29 LIG 0.24  C 
ATOM      7  N   ASN D4844     -58.356  24.863  36.604  1.00 50.43 LIG-0.35  N 
ATOM      8 H    ASN D4844     -57.745  24.577  36.071  1.00 50.43 LIG 0.16  HD
ATOM      9 O    VAL D4843     -59.096  25.776  38.498  1.00 47.22 LIG-0.27  OA
BRANCH 7 10
ATOM     10  CA  ASN D4844     -59.740  24.708  36.130  1.00 46.88 LIG 0.17  C 
BRANCH 10 11
ATOM     11  CB  ASN D4844     -59.776  24.653  34.603  1.00 66.72 LIG 0.14  C 
BRANCH 11 12
ATOM     12  CG  ASN D4844     -59.401  25.974  33.960  1.00 62.42 LIG 0.22  C 
ATOM     13 OD1  ASN D4844     -58.929  26.898  34.625  1.00 56.11 LIG-0.27  OA
ATOM     14  ND2 ASN D4844     -59.611  26.066  32.652  1.00 67.26 LIG-0.37  N 
ATOM     15 21HD ASN D4844     -59.416  26.793  32.235  1.00 67.26 LIG 0.16  HD
ATOM     16 22HD ASN D4844     -59.943  25.399  32.222  1.00 67.26 LIG 0.16  HD
ENDBRANCH 11 12
ENDBRANCH 10 11
BRANCH 10 17
ATOM     17  C   ASN D4844     -60.520  23.526  36.730  1.00 52.57 LIG 0.22  C 
ATOM     18 O    ASN D4844     -59.997  22.757  37.554  1.00 48.91 LIG-0.29  OA
ENDBRANCH 10 17
ENDBRANCH 7 10
ENDBRANCH 5 6
BRANCH 5 19
ATOM     19  CB  VAL D4843     -56.229  24.524  39.277  1.00 37.59 LIG 0.01  C 
ATOM     20  CG1 VAL D4843     -56.993  23.242  39.102  1.00 42.19 LIG 0.01  C 
ATOM     21  CG2 VAL D4843     -54.719  24.286  39.178  1.00 33.91 LIG 0.01  C 
ENDBRANCH 5 19
ENDBRANCH 3 5
BRANCH 1 22
ATOM     22  CA  VAL D4842     -57.340  29.200  39.423  1.00 42.26 LIG 0.18  C 
BRANCH 22 23
ATOM     23  N   VAL D4842     -56.797  30.506  39.037  1.00 51.43 LIG-0.34  N 
ATOM     24 H    VAL D4842     -57.368  31.021  38.651  1.00 51.43 LIG 0.16  HD
ATOM     25  C   LEU D4841     -55.533  30.853  39.267  1.00 54.30 LIG 0.26  C 
ATOM     26 O    LEU D4841     -55.115  31.997  39.101  1.00 66.57 LIG-0.27  OA
BRANCH 25 27
ATOM     27  CA  LEU D4841     -54.612  29.762  39.793  1.00 50.85 LIG 0.40  C 
ATOM     28  N   LEU D4841     -54.176  28.881  38.705  1.00 66.18 LIG 0.61  N 
BRANCH 27 29
ATOM     29  CB  LEU D4841     -53.394  30.382  40.489  1.00 58.40 LIG 0.06  C 
BRANCH 29 30
ATOM     30  CG  LEU D4841     -52.691  29.526  41.550  1.00 54.26 LIG-0.02  C 
ATOM     31  CD2 LEU D4841     -51.188  29.870  41.685  1.00 54.78 LIG 0.01  C 
ATOM     32  CD1 LEU D4841     -52.901  28.027  41.298  1.00 32.44 LIG 0.01  C 
ENDBRANCH 29 30
ENDBRANCH 27 29
ENDBRANCH 25 27
ENDBRANCH 22 23
BRANCH 22 33
ATOM     33  CB  VAL D4842     -58.842  29.288  39.796  1.00 48.47 LIG 0.01  C 
ATOM     34  CG2 VAL D4842     -59.609  30.091  38.783  1.00 42.42 LIG 0.01  C 
ATOM     35  CG1 VAL D4842     -58.984  29.917  41.171  1.00 34.87 LIG 0.01  C 
ENDBRANCH 22 33
ENDBRANCH 1 22
TORSDOF 13
