REMARK  17 active torsions:
REMARK  status: ('A' for Active; 'I' for Inactive)
REMARK    1  A    between atoms: CA_2  and  CB_5 
REMARK    2  A    between atoms: CA_2  and  C_3 
REMARK       I    between atoms: C_3  and  N_9 
REMARK    3  A    between atoms: CB_5  and  CG_6 
REMARK    4  A    between atoms: N_9  and  CA_10 
REMARK    5  A    between atoms: CA_10  and  CB_13 
REMARK    6  A    between atoms: CA_10  and  C_11 
REMARK       I    between atoms: C_11  and  N_23 
REMARK    7  A    between atoms: CB_13  and  CG_14 
REMARK    8  A    between atoms: CZ_19  and  OH_20 
REMARK    9  A    between atoms: N_23  and  CA_24 
REMARK   10  A    between atoms: CA_24  and  CB_27 
REMARK   11  A    between atoms: CA_24  and  C_25 
REMARK       I    between atoms: C_25  and  N_35 
REMARK   12  A    between atoms: CB_27  and  CG_28 
REMARK   13  A    between atoms: N_35  and  CA_36 
REMARK   14  A    between atoms: CA_36  and  C_37 
REMARK   15  A    between atoms: CA_36  and  CB_39 
REMARK   16  A    between atoms: CB_39  and  CG_40 
REMARK   17  A    between atoms: CG_40  and  CD_41 
REMARK       I    between atoms: CD_41  and  NE2_43 
ROOT
ATOM      1  C   TYR C  12     -37.221  69.677  15.576  1.00 66.29     0.241 C 
ATOM      2  O   TYR C  12     -36.808  70.211  16.606  1.00 72.73    -0.271 OA
ATOM      3  N   PHE C  13     -36.415  69.103  14.687  1.00 62.12    -0.346 N 
ATOM      4  H   PHE C  13     -36.683  68.749  13.950  1.00 62.12     0.163 HD
ENDROOT
BRANCH   3   5
ATOM      5  CA  PHE C  13     -34.974  69.031  14.906  1.00 61.15     0.180 C 
BRANCH   5   6
ATOM      6  CB  PHE C  13     -34.302  68.150  13.846  1.00 57.79     0.073 C 
BRANCH   6   7
ATOM      7  CG  PHE C  13     -34.494  68.633  12.433  1.00 55.93    -0.056 A 
ATOM      8  CD1 PHE C  13     -33.596  69.520  11.859  1.00 55.40     0.007 A 
ATOM      9  CE1 PHE C  13     -33.767  69.959  10.557  1.00 55.08     0.001 A 
ATOM     10  CZ  PHE C  13     -34.838  69.508   9.812  1.00 53.84     0.000 A 
ATOM     11  CE2 PHE C  13     -35.732  68.616  10.369  1.00 62.38     0.001 A 
ATOM     12  CD2 PHE C  13     -35.560  68.183  11.672  1.00 55.52     0.007 A 
ENDBRANCH   6   7
ENDBRANCH   5   6
BRANCH   5  13
ATOM     13  C   PHE C  13     -34.352  70.422  14.913  1.00 64.85     0.241 C 
ATOM     14  O   PHE C  13     -34.837  71.333  14.243  1.00 62.65    -0.271 OA
ATOM     15  N   GLN C  14     -33.277  70.577  15.680  1.00 69.96    -0.345 N 
ATOM     16  H   GLN C  14     -32.913  69.939  16.127  1.00 69.96     0.163 HD
BRANCH  15  17
ATOM     17  CA  GLN C  14     -32.613  71.867  15.830  1.00 68.16     0.186 C 
BRANCH  17  18
ATOM     18  C   GLN C  14     -31.280  71.900  15.086  1.00 80.56     0.196 C 
ATOM     19  O   GLN C  14     -30.769  70.869  14.645  1.00 73.75    -0.646 OA
ATOM     20  OXT GLN C  14     -30.683  72.962  14.907  1.00 84.17    -0.646 OA
ENDBRANCH  17  18
BRANCH  17  21
ATOM     21  CB  GLN C  14     -32.395  72.182  17.312  1.00 71.08     0.045 C 
BRANCH  21  22
ATOM     22  CG  GLN C  14     -33.660  72.122  18.153  1.00 84.90     0.105 C 
BRANCH  22  23
ATOM     23  CD  GLN C  14     -34.645  73.219  17.804  1.00 85.71     0.215 C 
ATOM     24  NE2 GLN C  14     -35.823  72.831  17.328  1.00 87.27    -0.370 N 
ATOM     25 2HE2 GLN C  14     -36.414  73.417  17.114  1.00 87.27     0.159 HD
ATOM     26 1HE2 GLN C  14     -35.994  71.993  17.234  1.00 87.27     0.159 HD
ATOM     27  OE1 GLN C  14     -34.349  74.404  17.958  1.00 92.83    -0.274 OA
ENDBRANCH  22  23
ENDBRANCH  21  22
ENDBRANCH  17  21
ENDBRANCH  15  17
ENDBRANCH   5  13
ENDBRANCH   3   5
BRANCH   1  28
ATOM     28  CA  TYR C  12     -38.713  69.656  15.263  1.00 72.08     0.180 C 
BRANCH  28  29
ATOM     29  CB  TYR C  12     -39.475  70.442  16.332  1.00 70.95     0.073 C 
BRANCH  29  30
ATOM     30  CG  TYR C  12     -40.913  70.737  15.976  1.00 83.06    -0.056 A 
ATOM     31  CD1 TYR C  12     -41.925  69.836  16.284  1.00 86.94     0.010 A 
ATOM     32  CE1 TYR C  12     -43.243  70.103  15.962  1.00 80.65     0.037 A 
ATOM     33  CZ  TYR C  12     -43.563  71.285  15.328  1.00 81.62     0.065 A 
ATOM     34  CE2 TYR C  12     -42.576  72.197  15.014  1.00 86.89     0.037 A 
ATOM     35  CD2 TYR C  12     -41.262  71.921  15.338  1.00 81.98     0.010 A 
BRANCH  33  36
ATOM     36  OH  TYR C  12     -44.873  71.554  15.005  1.00 83.24    -0.361 OA
ATOM     37  HH  TYR C  12     -45.007  72.382  15.045  1.00 83.24     0.217 HD
ENDBRANCH  33  36
ENDBRANCH  29  30
ENDBRANCH  28  29
BRANCH  28  38
ATOM     38  N   TYR C  12     -39.224  68.293  15.169  1.00 66.73    -0.345 N 
ATOM     39  C   LEU C  11     -39.067  67.562  14.070  1.00 75.02     0.257 C 
ATOM     40  O   LEU C  11     -38.492  67.979  13.065  1.00 79.88    -0.271 OA
ATOM     41  H   TYR C  12     -39.627  68.015  15.876  1.00 66.73     0.163 HD
BRANCH  39  42
ATOM     42  CA  LEU C  11     -39.643  66.151  14.107  1.00 79.60     0.400 C 
ATOM     43  N   LEU C  11     -40.099  65.799  15.447  1.00 85.33     0.615 N 
BRANCH  42  44
ATOM     44  CB  LEU C  11     -40.788  66.027  13.099  1.00 82.02     0.055 C 
BRANCH  44  45
ATOM     45  CG  LEU C  11     -41.354  64.624  12.865  1.00 84.03    -0.020 C 
ATOM     46  CD1 LEU C  11     -42.458  64.658  11.821  1.00 79.83     0.009 C 
ATOM     47  CD2 LEU C  11     -40.251  63.663  12.449  1.00 84.62     0.009 C 
ENDBRANCH  44  45
ENDBRANCH  42  44
ENDBRANCH  39  42
ENDBRANCH  28  38
ENDBRANCH   1  28
TORSDOF 17
