USER: ADFR SOLUTION from run 0
USER: SCORE 17.780523 LL:  -3.038 LR: -15.054 RR:   0.000 FEB:  -9.684
USER: RMSD 0.617181
USER: STATUS Locally minimized using BFGS
USER: GENES 20
USER: genes 0 Translation |==|  0.50849 0.39566 0.43952
USER: genes 1 Rotation |==|  0.48799 0.52310 0.51427 0.99912
USER: genes 2 Torsion [N]-CA--C-[N] |==|  0.29171
USER: genes 3 Torsion [C]-N--CA-[C] |==|  0.75691
USER: genes 4 Torsion [N]-CA--C-[N] |==|  0.32295
USER: genes 5 Torsion [C]-N--CA-[CB] |==|  0.42314
USER: genes 6 Torsion [N]-CA--CB-[CG] |==|  0.81675
USER: genes 7 Torsion [CA]-CB--CG-[CD1] |==|  0.49465
USER: genes 8 Torsion [N]-CA--C-[OXT] |==|  0.42772
USER: genes 9 Torsion [N]-CA--CB-[CG] |==|  0.85863
USER: genes 10 Torsion [CA]-CB--CG-[CD] |==|  0.55441
USER: genes 11 Torsion [CB]-CG--CD-[OE2] |==|  0.55788
USER: genes 12 Torsion [C]-CA--CB-[CG] |==|  0.18287
USER: genes 13 Torsion [CA]-CB--CG-[CD] |==|  0.19573
USER: genes 14 Torsion [CB]-CG--CD-[OE1] |==|  0.03651
USER: genes 15 Torsion [C]-CA--N-[C] |==|  0.76666
USER: genes 16 Torsion [N]-C--CA-[N] |==|  0.37607
USER: genes 17 Torsion [C]-CA--N-[H2] |==|  0.76472
USER: genes 18 Torsion [C]-CA--CB-[CG] |==|  0.49133
USER: genes 19 Torsion [CA]-CB--CG-[CD1] |==|  0.21379
ROOT
ATOM      1  CA  GLU E   2     -21.836 -13.209 -25.463  1.00 18.96 LIG 0.18  C 
ENDROOT
BRANCH 1 2
ATOM      2  C   GLU E   2     -21.503 -11.753 -25.794  1.00 19.39 LIG 0.24  C 
ATOM      3 O    GLU E   2     -22.364 -11.001 -26.220  1.00 16.83 LIG-0.27  OA
ATOM      4  N   GLU E   3     -20.265 -11.340 -25.539  1.00 20.18 LIG-0.35  N 
ATOM      5 H    GLU E   3     -19.631 -11.847 -25.253  1.00 20.18 LIG 0.16  HD
BRANCH 4 6
ATOM      6  CA  GLU E   3     -19.891  -9.939 -25.738  1.00 16.65 LIG 0.18  C 
BRANCH 6 7
ATOM      7  C   GLU E   3     -19.437  -9.711 -27.181  1.00 17.64 LIG 0.24  C 
ATOM      8 O    GLU E   3     -18.440 -10.292 -27.624  1.00 25.54 LIG-0.27  OA
ATOM      9  N   LEU E   4     -20.176  -8.886 -27.920  1.00 17.38 LIG-0.34  N 
ATOM     10 H    LEU E   4     -20.864  -8.458 -27.633  1.00 17.38 LIG 0.16  HD
BRANCH 9 11
ATOM     11  CA  LEU E   4     -19.845  -8.651 -29.320  1.00 18.86 LIG 0.18  C 
BRANCH 11 12
ATOM     12  CB  LEU E   4     -21.095  -8.281 -30.117  1.00 23.62 LIG 0.04  C 
BRANCH 12 13
ATOM     13  CG  LEU E   4     -22.172  -9.354 -30.273  1.00 21.70 LIG-0.02  C 
ATOM     14  CD2 LEU E   4     -21.624 -10.584 -30.977  1.00 23.28 LIG 0.01  C 
ATOM     15  CD1 LEU E   4     -23.354  -8.784 -31.053  1.00 18.19 LIG 0.01  C 
ENDBRANCH 12 13
ENDBRANCH 11 12
BRANCH 11 16
ATOM     16  C   LEU E   4     -18.790  -7.551 -29.449  1.00 26.72 LIG 0.20  C 
ATOM     17 OXT  LEU E   4     -18.019  -7.486 -30.414  1.00 25.91 LIG-0.65  OA
ATOM     18 O    LEU E   4     -18.684  -6.696 -28.571  1.00 22.73 LIG-0.65  OA
ENDBRANCH 11 16
ENDBRANCH 9 11
ENDBRANCH 6 7
BRANCH 6 19
ATOM     19  CB  GLU E   3     -18.789  -9.538 -24.751  1.00 17.46 LIG 0.04  C 
BRANCH 19 20
ATOM     20  CG  GLU E   3     -19.116  -9.892 -23.303  1.00 17.22 LIG 0.12  C 
BRANCH 20 21
ATOM     21  CD  GLU E   3     -18.289  -9.099 -22.316  1.00 22.54 LIG 0.17  C 
ATOM     22 OE2  GLU E   3     -18.149  -9.534 -21.148  1.00 22.26 LIG-0.65  OA
ATOM     23 OE1  GLU E   3     -17.778  -8.034 -22.712  1.00 23.90 LIG-0.65  OA
ENDBRANCH 20 21
ENDBRANCH 19 20
ENDBRANCH 6 19
ENDBRANCH 4 6
ENDBRANCH 1 2
BRANCH 1 24
ATOM     24  CB  GLU E   2     -22.572 -13.911 -26.614  1.00 24.38 LIG 0.04  C 
BRANCH 24 25
ATOM     25  CG  GLU E   2     -21.742 -14.091 -27.895  1.00 27.62 LIG 0.12  C 
BRANCH 25 26
ATOM     26  CD  GLU E   2     -20.620 -15.123 -27.759  1.00 34.01 LIG 0.17  C 
ATOM     27 OE2  GLU E   2     -19.741 -15.166 -28.649  1.00 31.63 LIG-0.65  OA
ATOM     28 OE1  GLU E   2     -20.619 -15.890 -26.767  1.00 33.59 LIG-0.65  OA
ENDBRANCH 25 26
ENDBRANCH 24 25
ENDBRANCH 1 24
BRANCH 1 29
ATOM     29  N   GLU E   2     -22.638 -13.186 -24.258  1.00 16.88 LIG-0.35  N 
ATOM     30  C   TRP E   1     -22.054 -13.129 -23.065  1.00 25.23 LIG 0.25  C 
ATOM     31 O    TRP E   1     -20.841 -13.276 -22.906  1.00 23.92 LIG-0.27  OA
ATOM     32 H    GLU E   2     -23.488 -13.211 -24.385  1.00 16.88 LIG 0.16  HD
BRANCH 30 33
ATOM     33  CA  TRP E   1     -22.960 -12.836 -21.882  1.00 23.48 LIG 0.28  C 
BRANCH 33 34
ATOM     34  N   TRP E   1     -22.698 -13.695 -20.732  1.00 27.44 LIG-0.07  N 
ATOM     35 H2   TRP E   1     -23.143 -14.460 -20.824  1.00 27.44 LIG 0.28  HD
ATOM     36 H1   TRP E   1     -22.965 -13.285 -19.988  1.00 27.44 LIG 0.28  HD
ATOM     37 H3   TRP E   1     -21.826 -13.863 -20.680  1.00 27.44 LIG 0.28  HD
ENDBRANCH 33 34
BRANCH 33 38
ATOM     38  CB  TRP E   1     -22.790 -11.365 -21.501  1.00 28.17 LIG 0.08  C 
BRANCH 38 39
ATOM     39  CG  TRP E   1     -23.674 -10.914 -20.398  1.00 25.63 LIG-0.03  A 
ATOM     40  CD1 TRP E   1     -23.513 -11.161 -19.063  1.00 24.31 LIG 0.10  A 
ATOM     41  NE1 TRP E   1     -24.528 -10.575 -18.350  1.00 27.21 LIG-0.36  N 
ATOM     42 HE1  TRP E   1     -24.626 -10.612 -17.496  1.00 27.21 LIG 0.17  HD
ATOM     43  CE2 TRP E   1     -25.360  -9.919 -19.221  1.00 24.74 LIG 0.04  A 
ATOM     44  CD2 TRP E   1     -24.847 -10.109 -20.519  1.00 19.22 LIG-0.00  A 
ATOM     45  CZ2 TRP E   1     -26.510  -9.166 -18.973  1.00 22.29 LIG 0.03  A 
ATOM     46  CE3 TRP E   1     -25.519  -9.534 -21.600  1.00 22.29 LIG 0.01  A 
ATOM     47  CZ3 TRP E   1     -26.653  -8.792 -21.354  1.00 20.39 LIG 0.00  A 
ATOM     48  CH2 TRP E   1     -27.139  -8.619 -20.058  1.00 19.87 LIG 0.00  A 
ENDBRANCH 38 39
ENDBRANCH 33 38
ENDBRANCH 30 33
ENDBRANCH 1 29
TORSDOF 18
