REMARK  18 active torsions:
REMARK  status: ('A' for Active; 'I' for Inactive)
REMARK    1  A    between atoms: N_1  and  CA_2 
REMARK    2  A    between atoms: CA_2  and  C_3 
REMARK    3  A    between atoms: CA_2  and  CB_5 
REMARK       I    between atoms: C_3  and  N_19 
REMARK    4  A    between atoms: CB_5  and  CG_6 
REMARK    5  A    between atoms: N_19  and  CA_20 
REMARK    6  A    between atoms: CA_20  and  C_21 
REMARK    7  A    between atoms: CA_20  and  CB_23 
REMARK       I    between atoms: C_21  and  N_29 
REMARK    8  A    between atoms: CB_23  and  CG_24 
REMARK    9  A    between atoms: CG_24  and  CD_25 
REMARK   10  A    between atoms: N_29  and  CA_30 
REMARK   11  A    between atoms: CA_30  and  C_31 
REMARK   12  A    between atoms: CA_30  and  CB_33 
REMARK       I    between atoms: C_31  and  N_39 
REMARK   13  A    between atoms: CB_33  and  CG_34 
REMARK   14  A    between atoms: CG_34  and  CD_35 
REMARK   15  A    between atoms: N_39  and  CA_40 
REMARK   16  A    between atoms: CA_40  and  CB_43 
REMARK   17  A    between atoms: CA_40  and  C_41 
REMARK   18  A    between atoms: CB_43  and  CG_44 
ROOT
ATOM      1  CA  GLU E   2     -21.522 -13.257 -25.424  1.00 18.96     0.177 C 
ENDROOT
BRANCH   1   2
ATOM      2  C   GLU E   2     -21.080 -11.810 -25.649  1.00 19.39     0.241 C 
ATOM      3  O   GLU E   2     -21.895 -10.951 -25.944  1.00 16.83    -0.271 OA
ATOM      4  N   GLU E   3     -19.796 -11.529 -25.449  1.00 20.18    -0.346 N 
ATOM      5  H   GLU E   3     -19.194 -12.112 -25.255  1.00 20.18     0.163 HD
BRANCH   4   6
ATOM      6  CA  GLU E   3     -19.310 -10.152 -25.551  1.00 16.65     0.177 C 
BRANCH   6   7
ATOM      7  C   GLU E   3     -18.781  -9.879 -26.960  1.00 17.64     0.241 C 
ATOM      8  O   GLU E   3     -17.720 -10.386 -27.340  1.00 25.54    -0.271 OA
ATOM      9  N   LEU E   4     -19.525  -9.099 -27.741  1.00 17.38    -0.345 N 
ATOM     10  H   LEU E   4     -20.258  -8.722 -27.497  1.00 17.38     0.163 HD
BRANCH   9  11
ATOM     11  CA  LEU E   4     -19.121  -8.828 -29.115  1.00 18.86     0.185 C 
BRANCH  11  12
ATOM     12  CB  LEU E   4     -20.318  -8.378 -29.952  1.00 23.62     0.040 C 
BRANCH  12  13
ATOM     13  CG  LEU E   4     -21.455  -9.380 -30.147  1.00 21.70    -0.020 C 
ATOM     14  CD2 LEU E   4     -20.954 -10.662 -30.790  1.00 23.28     0.009 C 
ATOM     15  CD1 LEU E   4     -22.549  -8.752 -31.008  1.00 18.19     0.009 C 
ENDBRANCH  12  13
ENDBRANCH  11  12
BRANCH  11  16
ATOM     16  C   LEU E   4     -18.019  -7.769 -29.155  1.00 26.72     0.196 C 
ATOM     17  OXT LEU E   4     -17.198  -7.706 -30.079  1.00 25.91    -0.646 OA
ATOM     18  O   LEU E   4     -17.923  -6.946 -28.246  1.00 22.73    -0.646 OA
ENDBRANCH  11  16
ENDBRANCH   9  11
ENDBRANCH   6   7
BRANCH   6  19
ATOM     19  CB  GLU E   3     -18.223  -9.893 -24.501  1.00 17.46     0.045 C 
BRANCH  19  20
ATOM     20  CG  GLU E   3     -18.678 -10.187 -23.074  1.00 17.22     0.116 C 
BRANCH  20  21
ATOM     21  CD  GLU E   3     -17.772  -9.556 -22.040  1.00 22.54     0.172 C 
ATOM     22  OE2 GLU E   3     -17.781 -10.001 -20.868  1.00 22.26    -0.648 OA
ATOM     23  OE1 GLU E   3     -17.049  -8.609 -22.404  1.00 23.90    -0.648 OA
ENDBRANCH  20  21
ENDBRANCH  19  20
ENDBRANCH   6  19
ENDBRANCH   4   6
ENDBRANCH   1   2
BRANCH   1  24
ATOM     24  CB  GLU E   2     -22.184 -13.861 -26.671  1.00 24.38     0.045 C 
BRANCH  24  25
ATOM     25  CG  GLU E   2     -21.254 -14.013 -27.885  1.00 27.62     0.116 C 
BRANCH  25  26
ATOM     26  CD  GLU E   2     -20.173 -15.079 -27.700  1.00 34.01     0.172 C 
ATOM     27  OE2 GLU E   2     -19.235 -15.124 -28.528  1.00 31.63    -0.648 OA
ATOM     28  OE1 GLU E   2     -20.261 -15.871 -26.732  1.00 33.59    -0.648 OA
ENDBRANCH  25  26
ENDBRANCH  24  25
ENDBRANCH   1  24
BRANCH   1  29
ATOM     29  N   GLU E   2     -22.431 -13.241 -24.297  1.00 16.88    -0.346 N 
ATOM     30  C   TRP E   1     -21.971 -13.416 -23.062  1.00 25.23     0.249 C 
ATOM     31  O   TRP E   1     -20.817 -13.776 -22.823  1.00 23.92    -0.271 OA
ATOM     32  H   GLU E   2     -23.257 -13.113 -24.497  1.00 16.88     0.163 HD
BRANCH  30  33
ATOM     33  CA  TRP E   1     -22.939 -13.117 -21.931  1.00 23.48     0.278 C 
BRANCH  33  34
ATOM     34  N   TRP E   1     -22.944 -14.142 -20.893  1.00 27.44    -0.066 N 
ATOM     35  H2  TRP E   1     -23.498 -14.799 -21.126  1.00 27.44     0.275 HD
ATOM     36  H1  TRP E   1     -23.215 -13.785 -20.124  1.00 27.44     0.275 HD
ATOM     37  H3  TRP E   1     -22.122 -14.469 -20.794  1.00 27.44     0.275 HD
ENDBRANCH  33  34
BRANCH  33  38
ATOM     38  CB  TRP E   1     -22.574 -11.756 -21.336  1.00 28.17     0.083 C 
BRANCH  38  39
ATOM     39  CG  TRP E   1     -23.442 -11.329 -20.211  1.00 25.63    -0.028 A 
ATOM     40  CD1 TRP E   1     -23.252 -11.590 -18.883  1.00 24.31     0.096 A 
ATOM     41  NE1 TRP E   1     -24.260 -11.025 -18.143  1.00 27.21    -0.365 N 
ATOM     42  HE1 TRP E   1     -24.341 -11.074 -17.288  1.00 27.21     0.165 HD
ATOM     43  CE2 TRP E   1     -25.117 -10.369 -18.990  1.00 24.74     0.042 A 
ATOM     44  CD2 TRP E   1     -24.627 -10.537 -20.300  1.00 19.22    -0.002 A 
ATOM     45  CZ2 TRP E   1     -26.271  -9.634 -18.711  1.00 22.29     0.030 A 
ATOM     46  CE3 TRP E   1     -25.327  -9.958 -21.361  1.00 22.29     0.014 A 
ATOM     47  CZ3 TRP E   1     -26.465  -9.233 -21.084  1.00 20.39     0.001 A 
ATOM     48  CH2 TRP E   1     -26.928  -9.082 -19.777  1.00 19.87     0.002 A 
ENDBRANCH  38  39
ENDBRANCH  33  38
ENDBRANCH  30  33
ENDBRANCH   1  29
TORSDOF 18
