REMARK  27 active torsions:
REMARK  status: ('A' for Active; 'I' for Inactive)
REMARK    1  A    between atoms: CA_2  and  C_3 
REMARK    2  A    between atoms: CA_2  and  CB_5 
REMARK       I    between atoms: C_3  and  N_10 
REMARK    3  A    between atoms: CB_5  and  CG_6 
REMARK    4  A    between atoms: CG_6  and  CD_7 
REMARK    5  A    between atoms: N_10  and  CA_11 
REMARK    6  A    between atoms: CA_11  and  CB_14 
REMARK    7  A    between atoms: CA_11  and  C_12 
REMARK       I    between atoms: C_12  and  N_19 
REMARK    8  A    between atoms: CB_14  and  CG_15 
REMARK    9  A    between atoms: N_19  and  CA_20 
REMARK   10  A    between atoms: CA_20  and  C_21 
REMARK   11  A    between atoms: CA_20  and  CB_23 
REMARK       I    between atoms: C_21  and  N_31 
REMARK   12  A    between atoms: CB_23  and  CG_24 
REMARK   13  A    between atoms: CG_24  and  CD_25 
REMARK       I    between atoms: CD_25  and  NE2_27 
REMARK   14  A    between atoms: N_31  and  CA_32 
REMARK   15  A    between atoms: CA_32  and  CB_35 
REMARK   16  A    between atoms: CA_32  and  C_33 
REMARK       I    between atoms: C_33  and  N_41 
REMARK   17  A    between atoms: CB_35  and  CG_36 
REMARK   18  A    between atoms: CG_36  and  CD_37 
REMARK   19  A    between atoms: N_41  and  CA_42 
REMARK   20  A    between atoms: CA_42  and  CB_45 
REMARK   21  A    between atoms: CA_42  and  C_43 
REMARK       I    between atoms: C_43  and  N_50 
REMARK   22  A    between atoms: CB_45  and  OG1_46 
REMARK   23  A    between atoms: N_50  and  CA_51 
REMARK   24  A    between atoms: CA_51  and  C_52 
REMARK       I    between atoms: C_52  and  N_56 
REMARK   25  A    between atoms: N_56  and  CA_57 
REMARK   26  A    between atoms: CA_57  and  CB_60 
REMARK   27  A    between atoms: CA_57  and  C_58 
ROOT
ATOM      1  C   GLN P 203      48.421  23.700  62.839  1.00  9.42     0.241 C 
ATOM      2  O   GLN P 203      48.697  22.715  63.519  1.00  9.14    -0.271 OA
ATOM      3  N   GLU P 204      47.970  23.638  61.590  1.00  8.86    -0.346 N 
ATOM      4  H   GLU P 204      47.764  24.335  61.130  1.00  8.86     0.163 HD
ENDROOT
BRANCH   3   5
ATOM      5  CA  GLU P 204      47.779  22.392  60.874  1.00  8.20     0.177 C 
BRANCH   5   6
ATOM      6  CB  GLU P 204      46.282  22.110  60.687  1.00  8.38     0.045 C 
BRANCH   6   7
ATOM      7  CG  GLU P 204      45.982  20.783  60.019  1.00  8.68     0.116 C 
BRANCH   7   8
ATOM      8  CD  GLU P 204      44.533  20.361  60.097  1.00  9.48     0.172 C 
ATOM      9  OE2 GLU P 204      44.200  19.329  59.470  1.00  9.77    -0.648 OA
ATOM     10  OE1 GLU P 204      43.717  21.040  60.778  1.00 12.74    -0.648 OA
ENDBRANCH   7   8
ENDBRANCH   6   7
ENDBRANCH   5   6
BRANCH   5  11
ATOM     11  C   GLU P 204      48.486  22.480  59.524  1.00  7.44     0.241 C 
ATOM     12  N   THR P 205      49.233  21.434  59.187  1.00  7.26    -0.344 N 
ATOM     13  H   THR P 205      49.288  20.719  59.662  1.00  7.26     0.163 HD
ATOM     14  O   GLU P 204      48.339  23.466  58.798  1.00  9.81    -0.271 OA
BRANCH  12  15
ATOM     15  CA  THR P 205      50.042  21.399  57.962  1.00  8.42     0.205 C 
BRANCH  15  16
ATOM     16  CB  THR P 205      51.542  21.570  58.285  1.00  8.21     0.146 C 
ATOM     17  CG2 THR P 205      52.395  21.516  57.021  1.00 10.35     0.042 C 
BRANCH  16  18
ATOM     18  OG1 THR P 205      51.735  22.822  58.935  1.00  9.36    -0.393 OA
ATOM     19  HG1 THR P 205      51.463  22.771  59.728  1.00  9.36     0.210 HD
ENDBRANCH  16  18
ENDBRANCH  15  16
BRANCH  15  20
ATOM     20  C   THR P 205      49.833  20.062  57.266  1.00  8.16     0.243 C 
ATOM     21  N   ALA P 206      49.588  20.090  55.954  1.00  8.68    -0.346 N 
ATOM     22  H   ALA P 206      49.457  20.816  55.512  1.00  8.68     0.163 HD
ATOM     23  O   THR P 205      49.915  19.019  57.907  1.00  8.51    -0.271 OA
BRANCH  21  24
ATOM     24  CA  ALA P 206      49.518  18.876  55.138  1.00  9.43     0.172 C 
ATOM     25  CB  ALA P 206      48.660  19.112  53.915  1.00 10.70     0.042 C 
BRANCH  24  26
ATOM     26  C   ALA P 206      50.920  18.489  54.702  1.00  8.67     0.240 C 
ATOM     27  N   VAL P 207      51.267  17.218  54.843  1.00  8.87    -0.344 N 
ATOM     28  H   VAL P 207      50.743  16.618  55.167  1.00  8.87     0.163 HD
ATOM     29  O   ALA P 206      51.674  19.334  54.216  1.00 12.25    -0.271 OA
BRANCH  27  30
ATOM     30  CA  VAL P 207      52.586  16.709  54.457  1.00 10.42     0.189 C 
BRANCH  30  31
ATOM     31  CB  VAL P 207      53.437  16.365  55.695  1.00 10.06     0.010 C 
ATOM     32  CG2 VAL P 207      52.760  15.315  56.555  1.00  9.34     0.012 C 
ATOM     33  CG1 VAL P 207      53.713  17.614  56.509  1.00 12.13     0.012 C 
ENDBRANCH  30  31
BRANCH  30  34
ATOM     34  C   VAL P 207      52.466  15.478  53.562  1.00 10.78     0.197 C 
ATOM     35  OXT VAL P 207      51.364  14.905  53.394  1.00 11.55    -0.646 OA
ATOM     36  O   VAL P 207      53.480  15.028  53.025  1.00 12.79    -0.646 OA
ENDBRANCH  30  34
ENDBRANCH  27  30
ENDBRANCH  24  26
ENDBRANCH  21  24
ENDBRANCH  15  20
ENDBRANCH  12  15
ENDBRANCH   5  11
ENDBRANCH   3   5
BRANCH   1  37
ATOM     37  CA  GLN P 203      48.557  25.087  63.430  1.00 11.41     0.177 C 
BRANCH  37  38
ATOM     38  N   GLN P 203      48.370  24.940  64.865  1.00 12.67    -0.346 N 
ATOM     39  H   GLN P 203      48.748  24.241  65.193  1.00 12.67     0.163 HD
ATOM     40  C   ASP P 202      47.684  25.800  65.594  1.00 21.18     0.241 C 
ATOM     41  O   ASP P 202      47.198  26.835  65.142  1.00 33.25    -0.271 OA
BRANCH  40  42
ATOM     42  CA  ASP P 202      47.544  25.430  67.061  1.00 16.67     0.186 C 
BRANCH  42  43
ATOM     43  N   ASP P 202      47.119  26.592  67.834  1.00 26.09    -0.345 N 
ATOM     44  H   ASP P 202      46.326  26.865  67.645  1.00 26.09     0.163 HD
ATOM     45  C   GLU P 201      47.895  27.172  68.747  1.00 35.13     0.257 C 
ATOM     46  O   GLU P 201      49.050  26.809  69.011  1.00 29.54    -0.271 OA
BRANCH  45  47
ATOM     47  CA  GLU P 201      47.269  28.342  69.483  1.00 34.09     0.400 C 
ATOM     48  N   GLU P 201      46.749  27.903  70.773  1.00 44.06     0.615 N 
BRANCH  47  49
ATOM     49  CB  GLU P 201      48.306  29.444  69.664  1.00 39.23     0.062 C 
BRANCH  49  50
ATOM     50  CG  GLU P 201      47.739  30.705  70.273  1.00 50.88     0.116 C 
BRANCH  50  51
ATOM     51  CD  GLU P 201      48.768  31.802  70.399  1.00 53.24     0.172 C 
ATOM     52  OE1 GLU P 201      49.808  31.736  69.707  1.00 48.77    -0.648 OA
ATOM     53  OE2 GLU P 201      48.555  32.721  71.214  1.00 60.00    -0.648 OA
ENDBRANCH  50  51
ENDBRANCH  49  50
ENDBRANCH  47  49
ENDBRANCH  45  47
ENDBRANCH  42  43
BRANCH  42  54
ATOM     54  CB  ASP P 202      46.543  24.278  67.198  1.00 19.05     0.147 C 
BRANCH  54  55
ATOM     55  CG  ASP P 202      46.683  23.510  68.523  1.00 27.39     0.175 C 
ATOM     56  OD2 ASP P 202      46.078  22.422  68.649  1.00 38.79    -0.648 OA
ATOM     57  OD1 ASP P 202      47.390  23.983  69.437  1.00 28.21    -0.648 OA
ENDBRANCH  54  55
ENDBRANCH  42  54
ENDBRANCH  40  42
ENDBRANCH  37  38
BRANCH  37  58
ATOM     58  CB  GLN P 203      49.942  25.682  63.133  1.00 11.55     0.044 C 
BRANCH  58  59
ATOM     59  CG  GLN P 203      50.256  25.837  61.658  1.00 10.86     0.105 C 
BRANCH  59  60
ATOM     60  CD  GLN P 203      51.516  26.640  61.402  1.00 14.61     0.215 C 
ATOM     61  NE2 GLN P 203      51.900  26.736  60.134  1.00 16.54    -0.370 N 
ATOM     62 1HE2 GLN P 203      51.450  26.341  59.517  1.00 16.54     0.159 HD
ATOM     63 2HE2 GLN P 203      52.599  27.193  59.930  1.00 16.54     0.159 HD
ATOM     64  OE1 GLN P 203      52.123  27.185  62.324  1.00 19.59    -0.274 OA
ENDBRANCH  59  60
ENDBRANCH  58  59
ENDBRANCH  37  58
ENDBRANCH   1  37
TORSDOF 27
