USER: ADFR SOLUTION from run 0
USER: SCORE 4.232520 LL:  -1.259 LR:  -3.700 RR:   0.000 FEB:  -2.208
USER: RMSD 0.455631
USER: STATUS Locally minimized using BFGS
USER: GENES 7
USER: genes 0 Translation |==|  0.59775 0.56155 0.40605
USER: genes 1 Rotation |==|  0.45681 0.49840 0.51441 0.99792
USER: genes 2 Torsion [C]-N--CA-[C] |==|  0.20752
USER: genes 3 Torsion [N]-CA--C-[N] |==|  0.21667
USER: genes 4 Torsion [N]-CA--C-[O] |==|  0.80825
USER: genes 5 Torsion [N]-C--CA-[N] |==|  0.20337
USER: genes 6 Torsion [C]-CA--N-[H2] |==|  0.96474
ROOT
ATOM      1  C   GLY C   1      32.070 -29.905  -2.583  1.00 32.14 LIG 0.24  C 
ATOM      2 O    GLY C   1      32.242 -28.746  -3.047  1.00 29.76 LIG-0.27  OA
ATOM      3  N   GLY C   2      30.894 -30.534  -2.489  1.00 30.71 LIG-0.35  N 
ATOM      4 H    GLY C   2      30.208 -30.287  -2.946  1.00 30.71 LIG 0.16  HD
ENDROOT
BRANCH 3 5
ATOM      5  CA  GLY C   2      30.608 -31.698  -1.619  1.00 36.18 LIG 0.23  C 
BRANCH 5 6
ATOM      6  C   GLY C   2      30.507 -31.204  -0.246  1.00 30.91 LIG 0.23  C 
ATOM      7  N   GLY C   3      29.333 -30.652  -0.110  1.00 33.08 LIG-0.35  N 
ATOM      8 H    GLY C   3      28.928 -30.234  -0.743  1.00 33.08 LIG 0.16  HD
ATOM      9  CA  GLY C   3      28.653 -30.691   1.041  1.00 24.56 LIG 0.23  C 
ATOM     10 O    GLY C   2      31.497 -31.046   0.523  1.00 32.47 LIG-0.27  OA
BRANCH 9 11
ATOM     11  C   GLY C   3      27.234 -30.686   0.995  1.00 22.96 LIG 0.19  C 
ATOM     12 O    GLY C   3      26.560 -29.658   0.620  1.00 26.14 LIG-0.65  OA
ATOM     13 OXT  GLY C   3      26.931 -31.585   1.748  1.00 22.37 LIG-0.65  OA
ENDBRANCH 9 11
ENDBRANCH 5 6
ENDBRANCH 3 5
BRANCH 1 14
ATOM     14  CA  GLY C   1      33.251 -30.666  -2.106  1.00 40.65 LIG 0.33  C 
BRANCH 14 15
ATOM     15  N   GLY C   1      33.395 -31.647  -3.191  1.00 31.54 LIG-0.07  N 
ATOM     16 H1   GLY C   1      33.503 -32.460  -2.844  1.00 31.54 LIG 0.27  HD
ATOM     17 H2   GLY C   1      32.665 -31.637  -3.700  1.00 31.54 LIG 0.27  HD
ATOM     18 H3   GLY C   1      34.104 -31.441  -3.686  1.00 31.54 LIG 0.27  HD
ENDBRANCH 14 15
ENDBRANCH 1 14
TORSDOF 5
