REMARK  5 active torsions:
REMARK  status: ('A' for Active; 'I' for Inactive)
REMARK    1  A    between atoms: N_1  and  CA_2 
REMARK    2  A    between atoms: CA_2  and  C_3 
REMARK       I    between atoms: C_3  and  N_8 
REMARK    3  A    between atoms: N_8  and  CA_9 
REMARK    4  A    between atoms: CA_9  and  C_10 
REMARK       I    between atoms: C_10  and  N_13 
REMARK    5  A    between atoms: CA_14  and  C_15 
ROOT
ATOM      1  C   GLY C   1      32.161 -29.954  -2.665  1.00 32.14     0.243 C 
ATOM      2  O   GLY C   1      32.399 -28.744  -2.925  1.00 29.76    -0.272 OA
ATOM      3  N   GLY C   2      30.950 -30.521  -2.667  1.00 30.71    -0.351 N 
ATOM      4  H   GLY C   2      30.279 -30.161  -3.067  1.00 30.71     0.163 HD
ENDROOT
BRANCH   3   5
ATOM      5  CA  GLY C   2      30.599 -31.800  -2.007  1.00 36.18     0.225 C 
BRANCH   5   6
ATOM      6  C   GLY C   2      30.671 -31.581  -0.563  1.00 30.91     0.235 C 
ATOM      7  N   GLY C   3      29.639 -30.861  -0.220  1.00 33.08    -0.350 N 
ATOM      8  H   GLY C   3      29.292 -30.257  -0.724  1.00 33.08     0.163 HD
ATOM      9  CA  GLY C   3      29.027 -31.004   0.961  1.00 24.56     0.235 C 
ATOM     10  O   GLY C   2      31.713 -31.765   0.129  1.00 32.47    -0.272 OA
BRANCH   9  11
ATOM     11  C   GLY C   3      27.637 -30.729   1.046  1.00 22.96     0.191 C 
ATOM     12  O   GLY C   3      27.168 -29.532   1.023  1.00 26.14    -0.647 OA
ATOM     13  OXT GLY C   3      27.189 -31.732   1.555  1.00 22.37    -0.647 OA
ENDBRANCH   9  11
ENDBRANCH   5   6
ENDBRANCH   3   5
BRANCH   1  14
ATOM     14  CA  GLY C   1      33.296 -30.851  -2.339  1.00 40.65     0.332 C 
BRANCH  14  15
ATOM     15  N   GLY C   1      33.334 -31.687  -3.548  1.00 31.54    -0.071 N 
ATOM     16  H1  GLY C   1      33.396 -32.544  -3.315  1.00 31.54     0.274 HD
ATOM     17  H2  GLY C   1      32.590 -31.561  -4.020  1.00 31.54     0.274 HD
ATOM     18  H3  GLY C   1      34.039 -31.463  -4.042  1.00 31.54     0.274 HD
ENDBRANCH  14  15
ENDBRANCH   1  14
TORSDOF 5
