USER: ADFR SOLUTION from run 0
USER: SCORE 17.691428 LL:  -5.711 LR: -14.515 RR:   0.000 FEB:  -7.654
USER: RMSD 0.896528
USER: STATUS Locally minimized using BFGS
USER: GENES 25
USER: genes 0 Translation |==|  0.56295 0.59444 0.65840
USER: genes 1 Rotation |==|  0.49811 0.47893 0.50564 0.99952
USER: genes 2 Torsion [N]-C--CA-[N] |==|  0.11407
USER: genes 3 Torsion [C]-CA--N-[C] |==|  0.74310
USER: genes 4 Torsion [N]-C--CA-[N] |==|  0.99490
USER: genes 5 Torsion [C]-CA--CB-[CG] |==|  0.25709
USER: genes 6 Torsion [CA]-CB--CG-[CD2] |==|  0.21560
USER: genes 7 Torsion [C]-CA--N-[C] |==|  0.69325
USER: genes 8 Torsion [N]-C--CA-[N] |==|  0.41465
USER: genes 9 Torsion [C]-CA--CB-[CG] |==|  0.60596
USER: genes 10 Torsion [CA]-CB--CG-[OD2] |==|  0.40912
USER: genes 11 Torsion [C]-CA--CB-[CG] |==|  0.74973
USER: genes 12 Torsion [CA]-CB--CG-[ND2] |==|  0.63958
USER: genes 13 Torsion [C]-N--CA-[CB] |==|  0.38033
USER: genes 14 Torsion [N]-CA--CB-[CG] |==|  0.15955
USER: genes 15 Torsion [CA]-CB--CG-[CD1] |==|  0.74799
USER: genes 16 Torsion [N]-CA--C-[N] |==|  0.47937
USER: genes 17 Torsion [C]-N--CA-[C] |==|  0.63477
USER: genes 18 Torsion [N]-CA--C-[N] |==|  0.33583
USER: genes 19 Torsion [C]-N--CA-[CB] |==|  0.31812
USER: genes 20 Torsion [N]-CA--CB-[CG2] |==|  0.68228
USER: genes 21 Torsion [N]-CA--C-[O] |==|  0.38197
USER: genes 22 Torsion [N]-CA--CB-[CG] |==|  0.90018
USER: genes 23 Torsion [CA]-CB--CG-[CD] |==|  0.78691
USER: genes 24 Torsion [CB]-CG--CD-[OE1] |==|  0.00859
ROOT
ATOM      1  C   ASN P   4      35.202  -0.225 -28.038  1.00 47.61 LIG 0.24  C 
ATOM      2 O    ASN P   4      35.240  -0.378 -26.841  1.00 46.30 LIG-0.27  OA
ATOM      3  N   TRP P   5      34.866  -1.233 -28.841  1.00 43.61 LIG-0.35  N 
ATOM      4 H    TRP P   5      34.830  -1.209 -29.700  1.00 43.61 LIG 0.16  HD
ENDROOT
BRANCH 1 5
ATOM      5  CA  ASN P   4      35.517   1.148 -28.639  1.00 56.71 LIG 0.18  C 
BRANCH 5 6
ATOM      6  N   ASN P   4      34.576   1.447 -29.704  1.00 58.55 LIG-0.35  N 
ATOM      7  C   TRP P   3      34.855   1.141 -30.955  1.00 51.89 LIG 0.24  C 
ATOM      8 O    TRP P   3      35.974   0.796 -31.338  1.00 53.51 LIG-0.27  OA
ATOM      9 H    ASN P   4      33.849   1.829 -29.447  1.00 58.55 LIG 0.16  HD
BRANCH 7 10
ATOM     10  CA  TRP P   3      33.765   1.330 -31.940  1.00 49.09 LIG 0.18  C 
BRANCH 10 11
ATOM     11  CB  TRP P   3      34.375   2.341 -32.913  1.00 45.21 LIG 0.07  C 
BRANCH 11 12
ATOM     12  CG  TRP P   3      35.137   1.815 -34.196  1.00 38.74 LIG-0.03  A 
ATOM     13  CD1 TRP P   3      36.512   1.819 -34.458  1.00 32.85 LIG 0.10  A 
ATOM     14  NE1 TRP P   3      36.752   1.348 -35.762  1.00 33.71 LIG-0.36  N 
ATOM     15  CE2 TRP P   3      35.554   1.030 -36.345  1.00 32.42 LIG 0.04  A 
ATOM     16 HE1  TRP P   3      37.524   1.273 -36.132  1.00 33.71 LIG 0.17  HD
ATOM     17  CZ2 TRP P   3      35.281   0.585 -37.663  1.00 29.39 LIG 0.03  A 
ATOM     18  CD2 TRP P   3      34.515   1.317 -35.413  1.00 33.85 LIG-0.00  A 
ATOM     19  CH2 TRP P   3      33.977   0.341 -37.959  1.00 25.26 LIG 0.00  A 
ATOM     20  CZ3 TRP P   3      32.937   0.579 -37.066  1.00 33.31 LIG 0.00  A 
ATOM     21  CE3 TRP P   3      33.191   1.108 -35.789  1.00 32.67 LIG 0.01  A 
ENDBRANCH 11 12
ENDBRANCH 10 11
BRANCH 10 22
ATOM     22  N   TRP P   3      32.456   1.815 -31.336  1.00 48.62 LIG-0.34  N 
ATOM     23 H    TRP P   3      32.490   2.626 -31.052  1.00 48.62 LIG 0.16  HD
ATOM     24  C   ASP P   2      31.341   1.056 -31.249  1.00 44.46 LIG 0.26  C 
ATOM     25 O    ASP P   2      31.356  -0.171 -31.535  1.00 32.12 LIG-0.27  OA
BRANCH 24 26
ATOM     26  CA  ASP P   2      29.968   1.773 -30.845  1.00 48.39 LIG 0.41  C 
ATOM     27  N   ASP P   2      28.808   1.065 -31.487  1.00 44.52 LIG 0.61  N 
BRANCH 26 28
ATOM     28  CB  ASP P   2      29.707   1.979 -29.307  1.00 55.68 LIG 0.16  C 
BRANCH 28 29
ATOM     29  CG  ASP P   2      28.171   1.756 -28.882  1.00 65.31 LIG 0.17  C 
ATOM     30 OD2  ASP P   2      27.887   1.275 -27.728  1.00 61.23 LIG-0.65  OA
ATOM     31 OD1  ASP P   2      27.244   2.051 -29.709  1.00 59.39 LIG-0.65  OA
ENDBRANCH 28 29
ENDBRANCH 26 28
ENDBRANCH 24 26
ENDBRANCH 10 22
ENDBRANCH 7 10
ENDBRANCH 5 6
BRANCH 5 32
ATOM     32  CB  ASN P   4      35.493   2.280 -27.575  1.00 62.15 LIG 0.14  C 
BRANCH 32 33
ATOM     33  CG  ASN P   4      34.116   2.917 -27.421  1.00 66.74 LIG 0.22  C 
ATOM     34 OD1  ASN P   4      33.111   2.218 -27.279  1.00 65.57 LIG-0.27  OA
ATOM     35  ND2 ASN P   4      34.059   4.243 -27.473  1.00 62.00 LIG-0.37  N 
ATOM     36 21HD ASN P   4      33.301   4.644 -27.407  1.00 62.00 LIG 0.16  HD
ATOM     37 22HD ASN P   4      34.780   4.700 -27.574  1.00 62.00 LIG 0.16  HD
ENDBRANCH 32 33
ENDBRANCH 5 32
ENDBRANCH 1 5
BRANCH 3 38
ATOM     38  CA  TRP P   5      34.530  -2.492 -28.214  1.00 39.30 LIG 0.18  C 
BRANCH 38 39
ATOM     39  CB  TRP P   5      33.289  -3.165 -28.838  1.00 34.53 LIG 0.07  C 
BRANCH 39 40
ATOM     40  CG  TRP P   5      33.353  -3.450 -30.303  1.00 28.80 LIG-0.03  A 
ATOM     41  CD1 TRP P   5      32.946  -2.626 -31.290  1.00 24.67 LIG 0.10  A 
ATOM     42  NE1 TRP P   5      33.107  -3.215 -32.484  1.00 28.39 LIG-0.36  N 
ATOM     43 HE1  TRP P   5      32.880  -2.870 -33.239  1.00 28.39 LIG 0.17  HD
ATOM     44  CE2 TRP P   5      33.685  -4.450 -32.322  1.00 28.85 LIG 0.04  A 
ATOM     45  CZ2 TRP P   5      34.092  -5.379 -33.257  1.00 29.12 LIG 0.03  A 
ATOM     46  CD2 TRP P   5      33.877  -4.628 -30.945  1.00 31.26 LIG-0.00  A 
ATOM     47  CH2 TRP P   5      34.625  -6.556 -32.794  1.00 31.42 LIG 0.00  A 
ATOM     48  CZ3 TRP P   5      34.752  -6.815 -31.418  1.00 31.13 LIG 0.00  A 
ATOM     49  CE3 TRP P   5      34.388  -5.854 -30.481  1.00 35.06 LIG 0.01  A 
ENDBRANCH 39 40
ENDBRANCH 38 39
BRANCH 38 50
ATOM     50  C   TRP P   5      35.800  -3.318 -28.257  1.00 44.67 LIG 0.24  C 
ATOM     51 O    TRP P   5      36.778  -2.927 -28.861  1.00 47.12 LIG-0.27  OA
ATOM     52  N   GLU P   6      35.777  -4.463 -27.601  1.00 57.45 LIG-0.35  N 
ATOM     53 H    GLU P   6      35.055  -4.827 -27.307  1.00 57.45 LIG 0.16  HD
BRANCH 52 54
ATOM     54  CA  GLU P   6      36.984  -5.222 -27.312  1.00 54.50 LIG 0.18  C 
BRANCH 54 55
ATOM     55  C   GLU P   6      36.798  -6.658 -27.686  1.00 56.45 LIG 0.24  C 
ATOM     56 O    GLU P   6      35.879  -7.343 -27.152  1.00 44.81 LIG-0.27  OA
ATOM     57  N   VAL P   7      37.666  -7.114 -28.592  1.00 47.96 LIG-0.35  N 
ATOM     58 H    VAL P   7      38.161  -6.608 -29.080  1.00 47.96 LIG 0.16  HD
BRANCH 57 59
ATOM     59  CA  VAL P   7      37.844  -8.522 -28.827  1.00 55.51 LIG 0.17  C 
BRANCH 59 60
ATOM     60  CB  VAL P   7      37.380  -8.905 -30.265  1.00 57.72 LIG 0.01  C 
ATOM     61  CG2 VAL P   7      36.156  -9.832 -30.213  1.00 57.86 LIG 0.01  C 
ATOM     62  CG1 VAL P   7      38.517  -9.494 -31.105  1.00 55.94 LIG 0.01  C 
ENDBRANCH 59 60
BRANCH 59 63
ATOM     63  C   VAL P   7      39.331  -8.817 -28.539  1.00 56.50 LIG 0.22  C 
ATOM     64 O    VAL P   7      39.668  -9.826 -27.910  1.00 61.93 LIG-0.29  OA
ENDBRANCH 59 63
ENDBRANCH 57 59
ENDBRANCH 54 55
BRANCH 54 65
ATOM     65  CB  GLU P   6      37.248  -5.205 -25.813  1.00 55.84 LIG 0.04  C 
BRANCH 65 66
ATOM     66  CG  GLU P   6      36.880  -3.895 -25.148  1.00 56.62 LIG 0.12  C 
BRANCH 66 67
ATOM     67  CD  GLU P   6      37.906  -2.806 -25.408  1.00 56.54 LIG 0.17  C 
ATOM     68 OE1  GLU P   6      38.896  -3.072 -26.174  1.00 46.52 LIG-0.65  OA
ATOM     69 OE2  GLU P   6      37.684  -1.702 -24.829  1.00 53.74 LIG-0.65  OA
ENDBRANCH 66 67
ENDBRANCH 65 66
ENDBRANCH 54 65
ENDBRANCH 52 54
ENDBRANCH 38 50
ENDBRANCH 3 38
TORSDOF 23
