REMARK  11 active torsions:
REMARK  status: ('A' for Active; 'I' for Inactive)
REMARK       I    between atoms: C_1  and  N_4 
REMARK    1  A    between atoms: N_4  and  CA_5 
REMARK    2  A    between atoms: CA_5  and  CB_8 
REMARK    3  A    between atoms: CA_5  and  C_6 
REMARK       I    between atoms: C_6  and  N_16 
REMARK    4  A    between atoms: CB_8  and  CG_9 
REMARK    5  A    between atoms: N_16  and  CA_17 
REMARK    6  A    between atoms: CA_17  and  C_18 
REMARK    7  A    between atoms: CA_17  and  CB_20 
REMARK       I    between atoms: C_18  and  N_27 
REMARK    8  A    between atoms: CB_20  and  CG_21 
REMARK    9  A    between atoms: CA_28  and  C_29 
REMARK       I    between atoms: C_29  and  N_34 
REMARK   10  A    between atoms: N_34  and  CA_35 
REMARK   11  A    between atoms: CA_35  and  C_36 
ROOT
ATOM      1  CA  HIS C   2      25.791   2.546  44.527  1.00 12.40     0.182 C 
ENDROOT
BRANCH   1   2
ATOM      2  N   HIS C   2      25.751   2.185  43.102  1.00  9.19    -0.346 N 
ATOM      3  H   HIS C   2      25.154   2.607  42.650  1.00  9.19     0.163 HD
ATOM      4  C   PHE C   1      26.573   1.282  42.573  1.00 11.27     0.241 C 
ATOM      5  O   PHE C   1      27.489   0.746  43.211  1.00 15.22    -0.271 OA
BRANCH   4   6
ATOM      6  CA  PHE C   1      26.351   0.944  41.097  1.00  8.70     0.180 C 
BRANCH   6   7
ATOM      7  CB  PHE C   1      25.508  -0.326  40.971  1.00  9.29     0.073 C 
BRANCH   7   8
ATOM      8  CG  PHE C   1      25.038  -0.608  39.573  1.00  9.78    -0.056 A 
ATOM      9  CD1 PHE C   1      25.823  -1.343  38.687  1.00  9.46     0.007 A 
ATOM     10  CE1 PHE C   1      25.389  -1.598  37.380  1.00  9.12     0.001 A 
ATOM     11  CZ  PHE C   1      24.156  -1.119  36.957  1.00  8.05     0.000 A 
ATOM     12  CE2 PHE C   1      23.369  -0.379  37.837  1.00  7.93     0.001 A 
ATOM     13  CD2 PHE C   1      23.811  -0.132  39.138  1.00  6.20     0.007 A 
ENDBRANCH   7   8
ENDBRANCH   6   7
BRANCH   6  14
ATOM     14  N   PHE C   1      27.619   0.787  40.395  1.00 10.26    -0.348 N 
ATOM     15  H   PHE C   1      27.839  -0.029  40.234  1.00 10.26     0.163 HD
HETATM   16  C   ACE C   0      28.353   1.838  40.045  1.00 10.83     0.214 C 
HETATM   17  CH3 ACE C   0      29.659   1.499  39.381  1.00 14.43     0.117 C 
HETATM   18  O   ACE C   0      27.982   3.000  40.196  1.00 14.21    -0.274 OA
ENDBRANCH   6  14
ENDBRANCH   4   6
ENDBRANCH   1   2
BRANCH   1  19
ATOM     19  C   HIS C   2      24.370   2.665  45.073  1.00 15.02     0.243 C 
ATOM     20  N   PRO C   3      24.159   2.414  46.384  1.00 12.04    -0.337 N 
ATOM     21  CA  PRO C   3      22.811   2.606  46.950  1.00 11.10     0.179 C 
ATOM     22  CD  PRO C   3      25.126   1.947  47.397  1.00 17.75     0.127 C 
ATOM     23  CB  PRO C   3      23.008   2.329  48.446  1.00 15.56     0.037 C 
ATOM     24  CG  PRO C   3      24.236   1.488  48.527  1.00 20.46     0.022 C 
ATOM     25  O   HIS C   2      23.475   3.009  44.321  1.00  9.69    -0.271 OA
BRANCH  21  26
ATOM     26  C   PRO C   3      22.280   4.027  46.735  1.00 13.73     0.241 C 
ATOM     27  N   ALA C   4      20.971   4.157  46.517  1.00 10.66    -0.346 N 
ATOM     28  H   ALA C   4      20.412   3.509  46.600  1.00 10.66     0.163 HD
ATOM     29  O   PRO C   3      23.059   4.980  46.801  1.00 16.34    -0.271 OA
BRANCH  27  30
ATOM     30  CA  ALA C   4      20.354   5.421  46.113  1.00 15.22     0.176 C 
ATOM     31  CB  ALA C   4      18.996   5.152  45.484  1.00 14.26     0.042 C 
BRANCH  30  32
ATOM     32  C   ALA C   4      20.192   6.446  47.228  1.00 20.48     0.284 C 
ATOM     33  O   ALA C   4      19.941   7.619  46.954  1.00 25.68    -0.267 OA
HETATM   34  N   NH2 C   5      20.307   6.002  48.473  1.00 12.85    -0.106 N 
ENDBRANCH  30  32
ENDBRANCH  27  30
ENDBRANCH  21  26
ENDBRANCH   1  19
BRANCH   1  35
ATOM     35  CB  HIS C   2      26.520   3.874  44.738  1.00 13.77     0.095 C 
BRANCH  35  36
ATOM     36  CG  HIS C   2      27.895   3.922  44.149  1.00 15.95     0.056 A 
ATOM     37  CD2 HIS C   2      28.363   4.520  43.028  1.00 16.64     0.145 A 
ATOM     38  NE2 HIS C   2      29.713   4.262  42.965  1.00 23.10    -0.252 NA
ATOM     39  CE1 HIS C   2      30.060   3.537  44.014  1.00 23.56     0.232 A 
ATOM     40  ND1 HIS C   2      28.983   3.321  44.747  1.00 22.80    -0.245 NA
ENDBRANCH  35  36
ENDBRANCH   1  35
TORSDOF 11
