USER: ADFR SOLUTION from run 0
USER: SCORE 14.298319 LL:  -3.245 LR: -11.976 RR:   0.000 FEB:  -7.800
USER: RMSD 1.478644
USER: STATUS Locally minimized using BFGS
USER: GENES 16
USER: genes 0 Translation |==|  0.57872 0.45404 0.51558
USER: genes 1 Rotation |==|  0.48996 0.47420 0.51020 0.99913
USER: genes 2 Torsion [N]-CA--C-[N] |==|  0.54444
USER: genes 3 Torsion [C]-N--CA-[C] |==|  0.73026
USER: genes 4 Torsion [N]-CA--C-[N] |==|  0.38768
USER: genes 5 Torsion [C]-N--CA-[C] |==|  0.77212
USER: genes 6 Torsion [N]-CA--C-[N] |==|  0.91497
USER: genes 7 Torsion [N]-CA--CB-[CG2] |==|  0.56821
USER: genes 8 Torsion [CA]-CB--OG1-[HG1] |==|  0.87273
USER: genes 9 Torsion [C]-CA--CB-[CG] |==|  0.70380
USER: genes 10 Torsion [CA]-CB--CG-[ND1] |==|  0.28834
USER: genes 11 Torsion [C]-CA--N-[C] |==|  0.63789
USER: genes 12 Torsion [N]-C--CA-[N] |==|  0.34174
USER: genes 13 Torsion [C]-CA--N-[C] |==|  0.75758
USER: genes 14 Torsion [C]-CA--CB-[CG] |==|  0.42860
USER: genes 15 Torsion [CA]-CB--CG-[CD1] |==|  0.32708
ROOT
ATOM      1  CA  HIS E   2      16.691  -9.530   2.777  1.00 14.20 LIG 0.18  C 
ENDROOT
BRANCH 1 2
ATOM      2  C   HIS E   2      15.357 -10.204   2.470  1.00 15.34 LIG 0.24  C 
ATOM      3 O    HIS E   2      14.538  -9.689   1.703  1.00 13.21 LIG-0.27  OA
ATOM      4  N   THR E   3      15.137 -11.354   3.106  1.00 14.85 LIG-0.34  N 
ATOM      5 H    THR E   3      15.714 -11.750   3.606  1.00 14.85 LIG 0.16  HD
BRANCH 4 6
ATOM      6  CA  THR E   3      13.855 -12.040   2.993  1.00 13.22 LIG 0.20  C 
BRANCH 6 7
ATOM      7  C   THR E   3      12.960 -11.707   4.180  1.00 13.63 LIG 0.24  C 
ATOM      8  N   ALA E   4      11.672 -11.505   3.908  1.00  8.98 LIG-0.35  N 
ATOM      9 H    ALA E   4      11.335 -11.548   3.118  1.00  8.98 LIG 0.16  HD
ATOM     10 O    THR E   3      13.425 -11.625   5.321  1.00 14.15 LIG-0.27  OA
BRANCH 8 11
ATOM     11  CA  ALA E   4      10.710 -11.187   4.961  1.00 15.48 LIG 0.18  C 
ATOM     12  CB  ALA E   4       9.534 -10.419   4.383  1.00 13.80 LIG 0.04  C 
BRANCH 11 13
ATOM     13  C   ALA E   4      10.215 -12.435   5.698  1.00 23.80 LIG 0.28  C 
ATOM     14 O    ALA E   4       9.880 -12.370   6.882  1.00 30.75 LIG-0.27  OA
ATOM     15  N   NH2 E 101      10.160 -13.564   4.998  1.00 22.73 LIG-0.11  N 
ENDBRANCH 11 13
ENDBRANCH 8 11
ENDBRANCH 6 7
BRANCH 6 16
ATOM     16  CB  THR E   3      14.065 -13.552   2.914  1.00 20.99 LIG 0.15  C 
ATOM     17  CG2 THR E   3      12.884 -14.219   2.210  1.00 14.08 LIG 0.04  C 
BRANCH 16 18
ATOM     18 OG1  THR E   3      15.268 -13.824   2.190  1.00 27.33 LIG-0.39  OA
ATOM     19 HG1  THR E   3      15.290 -13.352   1.496  1.00 27.33 LIG 0.21  HD
ENDBRANCH 16 18
ENDBRANCH 6 16
ENDBRANCH 4 6
ENDBRANCH 1 2
BRANCH 1 20
ATOM     20  CB  HIS E   2      16.977  -9.656   4.279  1.00 18.36 LIG 0.10  C 
BRANCH 20 21
ATOM     21  CG  HIS E   2      16.807  -8.381   5.045  1.00 23.43 LIG 0.06  A 
ATOM     22  CD2 HIS E   2      17.605  -7.292   5.153  1.00 23.79 LIG 0.14  A 
ATOM     23 NE2  HIS E   2      16.977  -6.414   6.002  1.00 23.75 LIG-0.25  NA
ATOM     24  CE1 HIS E   2      15.836  -6.945   6.403  1.00 26.05 LIG 0.23  A 
ATOM     25 ND1  HIS E   2      15.710  -8.136   5.843  1.00 21.22 LIG-0.24  NA
ENDBRANCH 20 21
ENDBRANCH 1 20
BRANCH 1 26
ATOM     26  N   HIS E   2      16.653  -8.139   2.337  1.00 15.97 LIG-0.35  N 
ATOM     27 H    HIS E   2      15.960  -7.706   2.605  1.00 15.97 LIG 0.16  HD
ATOM     28  C   TRP E   1      17.616  -7.600   1.586  1.00 12.03 LIG 0.24  C 
ATOM     29 O    TRP E   1      18.629  -8.219   1.242  1.00 13.67 LIG-0.27  OA
BRANCH 28 30
ATOM     30  CA  TRP E   1      17.394  -6.163   1.126  1.00  9.26 LIG 0.18  C 
BRANCH 30 31
ATOM     31  N   TRP E   1      18.463  -5.246   1.525  1.00 13.05 LIG-0.35  N 
ATOM     32 H    TRP E   1      19.079  -5.158   0.931  1.00 13.05 LIG 0.16  HD
ATOM     33  C   ACE E   0      18.487  -4.605   2.693  1.00 12.60 LIG 0.21  C 
ATOM     34  CH3 ACE E   0      19.676  -3.693   2.919  1.00  6.27 LIG 0.12  C 
ATOM     35 O    ACE E   0      17.598  -4.745   3.532  1.00 15.02 LIG-0.27  OA
ENDBRANCH 30 31
BRANCH 30 36
ATOM     36  CB  TRP E   1      17.237  -6.141  -0.391  1.00 10.27 LIG 0.07  C 
BRANCH 36 37
ATOM     37  CG  TRP E   1      16.440  -4.976  -0.901  1.00  6.62 LIG-0.03  A 
ATOM     38  CD1 TRP E   1      16.869  -3.979  -1.734  1.00  7.94 LIG 0.10  A 
ATOM     39  NE1 TRP E   1      15.842  -3.087  -1.977  1.00 10.26 LIG-0.36  N 
ATOM     40  CE2 TRP E   1      14.730  -3.500  -1.290  1.00  6.86 LIG 0.04  A 
ATOM     41 HE1  TRP E   1      15.891  -2.389  -2.477  1.00 10.26 LIG 0.17  HD
ATOM     42  CZ2 TRP E   1      13.456  -2.935  -1.215  1.00  8.31 LIG 0.03  A 
ATOM     43  CD2 TRP E   1      15.073  -4.688  -0.601  1.00  9.88 LIG-0.00  A 
ATOM     44  CH2 TRP E   1      12.523  -3.585  -0.448  1.00 13.27 LIG 0.00  A 
ATOM     45  CZ3 TRP E   1      12.831  -4.762   0.247  1.00 13.61 LIG 0.00  A 
ATOM     46  CE3 TRP E   1      14.099  -5.324   0.176  1.00 14.26 LIG 0.01  A 
ENDBRANCH 36 37
ENDBRANCH 30 36
ENDBRANCH 28 30
ENDBRANCH 1 26
TORSDOF 14
