REMARK  12 active torsions:
REMARK  status: ('A' for Active; 'I' for Inactive)
REMARK       I    between atoms: C_1  and  N_4 
REMARK    1  A    between atoms: N_4  and  CA_5 
REMARK    2  A    between atoms: CA_5  and  CB_8 
REMARK    3  A    between atoms: CA_5  and  C_6 
REMARK       I    between atoms: C_6  and  N_16 
REMARK    4  A    between atoms: CB_8  and  CG_9 
REMARK    5  A    between atoms: N_16  and  CA_17 
REMARK    6  A    between atoms: CA_17  and  C_18 
REMARK    7  A    between atoms: CA_17  and  CB_20 
REMARK       I    between atoms: C_18  and  N_27 
REMARK    8  A    between atoms: CB_20  and  CG_21 
REMARK    9  A    between atoms: N_27  and  CA_28 
REMARK   10  A    between atoms: CA_28  and  C_29 
REMARK       I    between atoms: C_29  and  N_33 
REMARK   11  A    between atoms: N_33  and  CA_34 
REMARK   12  A    between atoms: CA_34  and  C_35 
ROOT
ATOM      1  CA  HIS C   2      11.901  22.335  32.100  1.00 10.06     0.182 C 
ENDROOT
BRANCH   1   2
ATOM      2  N   HIS C   2      13.017  21.390  32.072  1.00  9.48    -0.346 N 
ATOM      3  H   HIS C   2      13.593  21.547  31.453  1.00  9.48     0.163 HD
ATOM      4  C   PHE C   1      13.121  20.384  32.930  1.00  9.37     0.241 C 
ATOM      5  O   PHE C   1      12.343  20.209  33.862  1.00 11.27    -0.271 OA
BRANCH   4   6
ATOM      6  CA  PHE C   1      14.262  19.421  32.683  1.00  8.68     0.180 C 
BRANCH   6   7
ATOM      7  CB  PHE C   1      13.720  18.212  31.922  1.00  8.30     0.073 C 
BRANCH   7   8
ATOM      8  CG  PHE C   1      14.787  17.371  31.286  1.00  6.80    -0.056 A 
ATOM      9  CD1 PHE C   1      15.271  17.676  30.021  1.00  6.68     0.007 A 
ATOM     10  CE1 PHE C   1      16.263  16.904  29.446  1.00  6.85     0.001 A 
ATOM     11  CZ  PHE C   1      16.770  15.814  30.118  1.00  6.56     0.000 A 
ATOM     12  CE2 PHE C   1      16.297  15.494  31.377  1.00  6.82     0.001 A 
ATOM     13  CD2 PHE C   1      15.311  16.275  31.956  1.00  7.43     0.007 A 
ENDBRANCH   7   8
ENDBRANCH   6   7
BRANCH   6  14
ATOM     14  N   PHE C   1      14.884  19.002  33.942  1.00  9.64    -0.348 N 
ATOM     15  H   PHE C   1      14.734  18.183  34.158  1.00  9.64     0.163 HD
HETATM   16  C   ACE C   0      15.614  19.841  34.669  1.00 12.10     0.214 C 
HETATM   17  CH3 ACE C   0      16.137  19.307  35.971  1.00 13.09     0.117 C 
HETATM   18  O   ACE C   0      15.834  20.997  34.307  1.00 13.69    -0.274 OA
ENDBRANCH   6  14
ENDBRANCH   4   6
ENDBRANCH   1   2
BRANCH   1  19
ATOM     19  C   HIS C   2      11.474  22.644  30.681  1.00  9.05     0.241 C 
ATOM     20  N   ALA C   3      10.211  23.004  30.502  1.00  9.24    -0.346 N 
ATOM     21  H   ALA C   3       9.610  23.003  31.117  1.00  9.24     0.163 HD
ATOM     22  O   HIS C   2      12.283  22.599  29.762  1.00  8.29    -0.271 OA
BRANCH  20  23
ATOM     23  CA  ALA C   3       9.749  23.443  29.188  1.00  8.91     0.172 C 
ATOM     24  CB  ALA C   3       8.298  23.888  29.253  1.00  9.99     0.042 C 
BRANCH  23  25
ATOM     25  C   ALA C   3      10.628  24.586  28.675  1.00  9.36     0.240 C 
ATOM     26  N   ALA C   4      10.863  24.603  27.368  1.00  9.08    -0.346 N 
ATOM     27  H   ALA C   4      10.477  24.081  26.804  1.00  9.08     0.163 HD
ATOM     28  O   ALA C   3      11.065  25.449  29.448  1.00  9.90    -0.271 OA
BRANCH  26  29
ATOM     29  CA  ALA C   4      11.820  25.534  26.772  1.00  9.70     0.176 C 
ATOM     30  CB  ALA C   4      12.190  25.079  25.379  1.00  9.53     0.042 C 
BRANCH  29  31
ATOM     31  C   ALA C   4      11.334  26.971  26.728  1.00 11.00     0.284 C 
HETATM   32  N   NH2 C   5      10.023  27.165  26.770  1.00 10.22    -0.106 N 
ATOM     33  O   ALA C   4      12.144  27.881  26.623  1.00 13.70    -0.267 OA
ENDBRANCH  29  31
ENDBRANCH  26  29
ENDBRANCH  23  25
ENDBRANCH  20  23
ENDBRANCH   1  19
BRANCH   1  34
ATOM     34  CB  HIS C   2      12.307  23.657  32.763  1.00 12.23     0.095 C 
BRANCH  34  35
ATOM     35  CG  HIS C   2      12.826  23.509  34.153  1.00 15.24     0.056 A 
ATOM     36  ND1 HIS C   2      11.997  23.448  35.251  1.00 17.16    -0.245 NA
ATOM     37  CE1 HIS C   2      12.728  23.318  36.344  1.00 17.55     0.232 A 
ATOM     38  NE2 HIS C   2      14.001  23.292  35.993  1.00 18.01    -0.252 NA
ATOM     39  CD2 HIS C   2      14.089  23.408  34.628  1.00 16.53     0.145 A 
ENDBRANCH  34  35
ENDBRANCH   1  34
TORSDOF 12
