REMARK  16 active torsions:
REMARK  status: ('A' for Active; 'I' for Inactive)
REMARK    1  A    between atoms: CA_2  and  C_3 
REMARK       I    between atoms: C_3  and  N_10 
REMARK    2  A    between atoms: N_10  and  CA_11 
REMARK    3  A    between atoms: CA_11  and  C_12 
REMARK    4  A    between atoms: CA_11  and  CB_14 
REMARK       I    between atoms: C_12  and  N_19 
REMARK    5  A    between atoms: CB_14  and  CG_15 
REMARK    6  A    between atoms: N_19  and  CA_20 
REMARK    7  A    between atoms: CA_20  and  CB_23 
REMARK    8  A    between atoms: CA_20  and  C_21 
REMARK       I    between atoms: C_21  and  N_27 
REMARK    9  A    between atoms: CB_23  and  OG_24 
REMARK   10  A    between atoms: N_27  and  CA_28 
REMARK   11  A    between atoms: CA_28  and  CB_31 
REMARK   12  A    between atoms: CA_28  and  C_29 
REMARK   13  A    between atoms: CB_31  and  CG_32 
REMARK   14  A    between atoms: CG_32  and  CD_33 
REMARK   15  A    between atoms: CD_33  and  CE_34 
REMARK   16  A    between atoms: CE_34  and  NZ_35 
ROOT
ATOM      1  C   LEU D   2      28.929 -25.127  -3.160  1.00 63.17     0.241 C 
ATOM      2  O   LEU D   2      28.032 -24.405  -3.616  1.00 65.03    -0.271 OA
ATOM      3  N   SER D   3      28.973 -26.446  -3.343  1.00 44.71    -0.344 N 
ATOM      4  H   SER D   3      29.549 -26.961  -2.966  1.00 44.71     0.163 HD
ENDROOT
BRANCH   3   5
ATOM      5  CA  SER D   3      28.021 -27.146  -4.224  1.00 47.15     0.200 C 
BRANCH   5   6
ATOM      6  CB  SER D   3      28.486 -28.570  -4.551  1.00 46.48     0.199 C 
BRANCH   6   7
ATOM      7  OG  SER D   3      29.444 -28.554  -5.587  1.00 63.57    -0.398 OA
ATOM      8  HG  SER D   3      29.690 -29.340  -5.754  1.00 63.57     0.209 HD
ENDBRANCH   6   7
ENDBRANCH   5   6
BRANCH   5   9
ATOM      9  C   SER D   3      26.664 -27.215  -3.521  1.00 37.61     0.243 C 
ATOM     10  N   LYS D   4      25.583 -27.303  -4.303  1.00 35.09    -0.345 N 
ATOM     11  H   LYS D   4      25.606 -27.254  -5.161  1.00 35.09     0.163 HD
ATOM     12  O   SER D   3      26.612 -27.186  -2.284  1.00 37.14    -0.271 OA
BRANCH  10  13
ATOM     13  CA  LYS D   4      24.247 -27.494  -3.747  1.00 32.57     0.185 C 
BRANCH  13  14
ATOM     14  CB  LYS D   4      23.155 -26.949  -4.662  1.00 31.41     0.036 C 
BRANCH  14  15
ATOM     15  CG  LYS D   4      23.133 -25.423  -4.508  1.00 31.93     0.004 C 
BRANCH  15  16
ATOM     16  CD  LYS D   4      22.233 -24.678  -5.498  1.00 28.01     0.027 C 
BRANCH  16  17
ATOM     17  CE  LYS D   4      22.419 -23.154  -5.261  1.00 30.04     0.229 C 
BRANCH  17  18
ATOM     18  NZ  LYS D   4      21.780 -22.377  -6.320  1.00 33.56    -0.079 N 
ATOM     19  HZ3 LYS D   4      20.982 -22.726  -6.505  1.00 33.56     0.274 HD
ATOM     20  HZ2 LYS D   4      22.288 -22.396  -7.051  1.00 33.56     0.274 HD
ATOM     21  HZ1 LYS D   4      21.680 -21.535  -6.051  1.00 33.56     0.274 HD
ENDBRANCH  17  18
ENDBRANCH  16  17
ENDBRANCH  15  16
ENDBRANCH  14  15
ENDBRANCH  13  14
BRANCH  13  22
ATOM     22  C   LYS D   4      24.028 -28.956  -3.422  1.00 36.61     0.196 C 
ATOM     23  OXT LYS D   4      23.127 -29.282  -2.621  1.00 35.43    -0.646 OA
ATOM     24  O   LYS D   4      24.778 -29.788  -3.932  1.00 33.95    -0.646 OA
ENDBRANCH  13  22
ENDBRANCH  10  13
ENDBRANCH   5   9
ENDBRANCH   3   5
BRANCH   1  25
ATOM     25  CA  LEU D   2      30.035 -24.506  -2.307  1.00 72.77     0.177 C 
BRANCH  25  26
ATOM     26  CB  LEU D   2      29.403 -23.550  -1.256  1.00 74.70     0.038 C 
BRANCH  26  27
ATOM     27  CG  LEU D   2      29.165 -22.044  -1.604  1.00 82.94    -0.020 C 
ATOM     28  CD1 LEU D   2      27.741 -21.550  -1.374  1.00 82.40     0.009 C 
ATOM     29  CD2 LEU D   2      30.167 -21.127  -0.874  1.00 81.51     0.009 C 
ENDBRANCH  26  27
ENDBRANCH  25  26
BRANCH  25  30
ATOM     30  N   LEU D   2      30.946 -23.802  -3.225  1.00 75.65    -0.346 N 
ATOM     31  H   LEU D   2      30.829 -22.950  -3.209  1.00 75.65     0.163 HD
ATOM     32  C   PRO D   1      31.865 -24.368  -4.013  1.00 79.92     0.249 C 
ATOM     33  O   PRO D   1      32.359 -23.748  -4.962  1.00 91.02    -0.271 OA
BRANCH  32  34
ATOM     34  CA  PRO D   1      32.301 -25.823  -3.765  1.00 80.93     0.277 C 
ATOM     35  N   PRO D   1      33.022 -26.412  -4.895  1.00 82.79    -0.062 N 
ATOM     36  CD  PRO D   1      34.049 -27.372  -4.444  1.00 86.01     0.233 C 
ATOM     37  H3  PRO D   1      32.465 -26.810  -5.415  1.00 82.79     0.278 HD
ATOM     38  H2  PRO D   1      33.394 -25.788  -5.355  1.00 82.79     0.278 HD
ATOM     39  CG  PRO D   1      34.203 -27.079  -2.966  1.00 80.97     0.030 C 
ATOM     40  CB  PRO D   1      33.325 -25.906  -2.624  1.00 77.42     0.044 C 
ENDBRANCH  32  34
ENDBRANCH  25  30
ENDBRANCH   1  25
TORSDOF 16
