USER: ADFR SOLUTION from run 0
USER: SCORE 14.284720 LL:  -2.794 LR: -12.580 RR:   0.000 FEB:  -7.808
USER: RMSD 1.425625
USER: STATUS Locally minimized using BFGS
USER: GENES 18
USER: genes 0 Translation |==|  0.54591 0.55397 0.54442
USER: genes 1 Rotation |==|  0.53249 0.54644 0.54949 0.99431
USER: genes 2 Torsion [C]-N--CA-[CB] |==|  0.49222
USER: genes 3 Torsion [N]-CA--CB-[OG] |==|  0.81274
USER: genes 4 Torsion [CA]-CB--OG-[HG] |==|  0.50568
USER: genes 5 Torsion [N]-CA--C-[N] |==|  0.44444
USER: genes 6 Torsion [C]-N--CA-[CB] |==|  0.41289
USER: genes 7 Torsion [N]-CA--CB-[CG] |==|  0.77173
USER: genes 8 Torsion [CA]-CB--CG-[CD] |==|  0.42822
USER: genes 9 Torsion [CB]-CG--CD-[CE] |==|  0.51968
USER: genes 10 Torsion [CG]-CD--CE-[NZ] |==|  0.43791
USER: genes 11 Torsion [CD]-CE--NZ-[HZ1] |==|  0.44741
USER: genes 12 Torsion [N]-CA--C-[OXT] |==|  0.44695
USER: genes 13 Torsion [N]-C--CA-[N] |==|  0.30723
USER: genes 14 Torsion [C]-CA--CB-[CG] |==|  0.70974
USER: genes 15 Torsion [CA]-CB--CG-[CD1] |==|  0.34969
USER: genes 16 Torsion [C]-CA--N-[C] |==|  0.83650
USER: genes 17 Torsion [N]-C--CA-[N] |==|  0.45452
ROOT
ATOM      1  C   LEU D   2      28.592 -24.526  -3.329  1.00 63.17 LIG 0.24  C 
ATOM      2 O    LEU D   2      27.505 -23.960  -3.514  1.00 65.03 LIG-0.27  OA
ATOM      3  N   SER D   3      28.840 -25.779  -3.709  1.00 44.71 LIG-0.34  N 
ATOM      4 H    SER D   3      29.564 -26.201  -3.515  1.00 44.71 LIG 0.16  HD
ENDROOT
BRANCH 3 5
ATOM      5  CA  SER D   3      27.879 -26.560  -4.507  1.00 47.15 LIG 0.20  C 
BRANCH 5 6
ATOM      6  CB  SER D   3      28.429 -27.944  -4.870  1.00 46.48 LIG 0.20  C 
BRANCH 6 7
ATOM      7 OG   SER D   3      29.515 -27.828  -5.764  1.00 63.57 LIG-0.40  OA
ATOM      8 HG   SER D   3      29.788 -28.594  -5.976  1.00 63.57 LIG 0.21  HD
ENDBRANCH 6 7
ENDBRANCH 5 6
BRANCH 5 9
ATOM      9  C   SER D   3      26.594 -26.733  -3.694  1.00 37.61 LIG 0.24  C 
ATOM     10  N   LYS D   4      25.486 -27.040  -4.375  1.00 35.09 LIG-0.34  N 
ATOM     11 H    LYS D   4      25.444 -27.077  -5.233  1.00 35.09 LIG 0.16  HD
ATOM     12 O    SER D   3      26.622 -26.585  -2.465  1.00 37.14 LIG-0.27  OA
BRANCH 10 13
ATOM     13  CA  LYS D   4      24.229 -27.346  -3.699  1.00 32.57 LIG 0.18  C 
BRANCH 13 14
ATOM     14  CB  LYS D   4      23.013 -26.927  -4.518  1.00 31.41 LIG 0.04  C 
BRANCH 14 15
ATOM     15  CG  LYS D   4      22.782 -25.429  -4.281  1.00 31.93 LIG 0.00  C 
BRANCH 15 16
ATOM     16  CD  LYS D   4      22.060 -24.691  -5.412  1.00 28.01 LIG 0.03  C 
BRANCH 16 17
ATOM     17  CE  LYS D   4      22.078 -23.173  -5.082  1.00 30.04 LIG 0.23  C 
BRANCH 17 18
ATOM     18  NZ  LYS D   4      21.903 -22.372  -6.290  1.00 33.56 LIG-0.08  N 
ATOM     19 HZ3  LYS D   4      21.284 -22.747  -6.809  1.00 33.56 LIG 0.27  HD
ATOM     20 HZ2  LYS D   4      22.674 -22.329  -6.733  1.00 33.56 LIG 0.27  HD
ATOM     21 HZ1  LYS D   4      21.644 -21.551  -6.067  1.00 33.56 LIG 0.27  HD
ENDBRANCH 17 18
ENDBRANCH 16 17
ENDBRANCH 15 16
ENDBRANCH 14 15
ENDBRANCH 13 14
BRANCH 13 22
ATOM     22  C   LYS D   4      24.182 -28.815  -3.337  1.00 36.61 LIG 0.20  C 
ATOM     23 OXT  LYS D   4      23.386 -29.210  -2.460  1.00 35.43 LIG-0.65  OA
ATOM     24 O    LYS D   4      24.966 -29.581  -3.897  1.00 33.95 LIG-0.65  OA
ENDBRANCH 13 22
ENDBRANCH 10 13
ENDBRANCH 5 9
ENDBRANCH 3 5
BRANCH 1 25
ATOM     25  CA  LEU D   2      29.710 -23.786  -2.596  1.00 72.77 LIG 0.18  C 
BRANCH 25 26
ATOM     26  CB  LEU D   2      29.159 -23.204  -1.263  1.00 74.70 LIG 0.04  C 
BRANCH 26 27
ATOM     27  CG  LEU D   2      28.859 -21.675  -1.137  1.00 82.94 LIG-0.02  C 
ATOM     28  CD1 LEU D   2      27.446 -21.335  -0.675  1.00 82.40 LIG 0.01  C 
ATOM     29  CD2 LEU D   2      29.894 -20.965  -0.240  1.00 81.51 LIG 0.01  C 
ENDBRANCH 26 27
ENDBRANCH 25 26
BRANCH 25 30
ATOM     30  N   LEU D   2      30.202 -22.736  -3.503  1.00 75.65 LIG-0.35  N 
ATOM     31 H    LEU D   2      30.127 -21.950  -3.161  1.00 75.65 LIG 0.16  HD
ATOM     32  C   PRO D   1      30.714 -22.922  -4.723  1.00 79.92 LIG 0.25  C 
ATOM     33 O    PRO D   1      30.808 -21.985  -5.524  1.00 91.02 LIG-0.27  OA
BRANCH 32 34
ATOM     34  CA  PRO D   1      31.168 -24.326  -5.161  1.00 80.93 LIG 0.28  C 
ATOM     35  N   PRO D   1      31.342 -24.453  -6.609  1.00 82.79 LIG-0.06  N 
ATOM     36  CD  PRO D   1      32.434 -25.388  -6.945  1.00 86.01 LIG 0.23  C 
ATOM     37 H3   PRO D   1      30.609 -24.727  -6.964  1.00 82.79 LIG 0.28  HD
ATOM     38 H2   PRO D   1      31.512 -23.680  -6.946  1.00 82.79 LIG 0.28  HD
ATOM     39  CG  PRO D   1      33.191 -25.554  -5.644  1.00 80.97 LIG 0.03  C 
ATOM     40  CB  PRO D   1      32.567 -24.648  -4.617  1.00 77.42 LIG 0.04  C 
ENDBRANCH 32 34
ENDBRANCH 25 30
ENDBRANCH 1 25
TORSDOF 16
