REMARK  19 active torsions:
REMARK  status: ('A' for Active; 'I' for Inactive)
REMARK    1  A    between atoms: CA_2  and  C_3 
REMARK       I    between atoms: C_3  and  N_5 
REMARK    2  A    between atoms: N_5  and  CA_6 
REMARK    3  A    between atoms: CA_6  and  CB_9 
REMARK    4  A    between atoms: CA_6  and  C_7 
REMARK       I    between atoms: C_7  and  N_17 
REMARK    5  A    between atoms: CB_9  and  CG_10 
REMARK    6  A    between atoms: N_17  and  CA_18 
REMARK    7  A    between atoms: CA_18  and  C_19 
REMARK       I    between atoms: C_19  and  N_22 
REMARK    8  A    between atoms: N_22  and  CA_23 
REMARK    9  A    between atoms: CA_23  and  C_24 
REMARK   10  A    between atoms: CA_23  and  CB_26 
REMARK       I    between atoms: C_24  and  N_31 
REMARK   11  A    between atoms: CB_26  and  CG_27 
REMARK   12  A    between atoms: N_31  and  CA_32 
REMARK   13  A    between atoms: CA_32  and  C_33 
REMARK   14  A    between atoms: CA_32  and  CB_35 
REMARK       I    between atoms: C_33  and  N_43 
REMARK   15  A    between atoms: CB_35  and  CG_36 
REMARK   16  A    between atoms: N_43  and  CA_44 
REMARK   17  A    between atoms: CA_44  and  C_45 
REMARK   18  A    between atoms: CA_44  and  CB_47 
REMARK   19  A    between atoms: CB_47  and  CG_48 
ROOT
ATOM      1  CA  LEU C   5     -14.323  11.732  23.683  1.00 25.10     0.177 C 
ENDROOT
BRANCH   1   2
ATOM      2  N   LEU C   5     -15.458  10.789  24.037  1.00 25.35    -0.346 N 
ATOM      3  C   GLY C   4     -16.681  10.939  23.452  1.00 24.95     0.236 C 
ATOM      4  O   GLY C   4     -16.885  11.857  22.649  1.00 25.89    -0.272 OA
ATOM      5  H   LEU C   5     -15.262  10.182  24.614  1.00 25.35     0.163 HD
BRANCH   3   6
ATOM      6  CA  GLY C   4     -17.780   9.984  23.768  1.00 25.42     0.225 C 
BRANCH   6   7
ATOM      7  N   GLY C   4     -17.412   8.616  24.133  1.00 25.00    -0.351 N 
ATOM      8  C   PHE C   3     -16.621   7.833  23.358  1.00 25.70     0.241 C 
ATOM      9  O   PHE C   3     -16.106   8.237  22.298  1.00 20.17    -0.271 OA
ATOM     10  H   GLY C   4     -17.743   8.356  24.883  1.00 25.00     0.163 HD
BRANCH   8  11
ATOM     11  CA  PHE C   3     -16.252   6.464  23.927  1.00 26.56     0.180 C 
BRANCH  11  12
ATOM     12  CB  PHE C   3     -16.805   5.394  23.007  1.00 27.24     0.073 C 
BRANCH  12  13
ATOM     13  CG  PHE C   3     -16.371   4.036  23.357  1.00 26.12    -0.056 A 
ATOM     14  CD1 PHE C   3     -16.962   2.951  22.730  1.00 28.42     0.007 A 
ATOM     15  CE1 PHE C   3     -16.551   1.641  23.011  1.00 27.55     0.001 A 
ATOM     16  CZ  PHE C   3     -15.585   1.408  24.043  1.00 28.40     0.000 A 
ATOM     17  CE2 PHE C   3     -14.980   2.506  24.682  1.00 22.84     0.001 A 
ATOM     18  CD2 PHE C   3     -15.412   3.819  24.372  1.00 25.80     0.007 A 
ENDBRANCH  12  13
ENDBRANCH  11  12
BRANCH  11  19
ATOM     19  N   PHE C   3     -16.804   6.300  25.279  1.00 29.45    -0.346 N 
ATOM     20  H   PHE C   3     -17.583   5.936  25.314  1.00 29.45     0.163 HD
ATOM     21  C   GLY C   2     -16.107   6.703  26.341  1.00 31.80     0.252 C 
ATOM     22  O   GLY C   2     -15.043   7.369  26.241  1.00 33.21    -0.271 OA
BRANCH  21  23
ATOM     23  CA  GLY C   2     -16.735   6.403  27.701  1.00 32.25     0.466 C 
ATOM     24  N   GLY C   2     -17.984   5.581  27.591  1.00 32.96     0.609 N 
ENDBRANCH  21  23
ENDBRANCH  11  19
ENDBRANCH   8  11
ENDBRANCH   6   7
ENDBRANCH   3   6
ENDBRANCH   1   2
BRANCH   1  25
ATOM     25  C   LEU C   5     -14.013  11.870  22.186  1.00 23.49     0.241 C 
ATOM     26  N   PHE C   6     -14.401  10.872  21.388  1.00 22.96    -0.346 N 
ATOM     27  H   PHE C   6     -14.841  10.182  21.653  1.00 22.96     0.163 HD
ATOM     28  O   LEU C   5     -13.525  12.937  21.748  1.00 25.98    -0.271 OA
BRANCH  26  29
ATOM     29  CA  PHE C   6     -14.087  10.889  19.937  1.00 22.19     0.180 C 
BRANCH  29  30
ATOM     30  C   PHE C   6     -15.187  11.420  19.022  1.00 17.26     0.241 C 
ATOM     31  O   PHE C   6     -15.032  11.567  17.846  1.00 22.18    -0.271 OA
ATOM     32  N   ASP C   7     -16.342  11.739  19.617  1.00 22.18    -0.347 N 
ATOM     33  H   ASP C   7     -16.492  11.647  20.459  1.00 22.18     0.163 HD
BRANCH  32  34
ATOM     34  CA  ASP C   7     -17.472  12.287  18.852  1.00 22.70     0.172 C 
BRANCH  34  35
ATOM     35  C   ASP C   7     -17.462  13.787  18.725  1.00 27.36     0.220 C 
ATOM     36  O   ASP C   7     -16.724  14.500  19.447  1.00 28.20    -0.287 OA
ENDBRANCH  34  35
BRANCH  34  37
ATOM     37  CB  ASP C   7     -18.786  11.877  19.531  1.00 23.18     0.146 C 
BRANCH  37  38
ATOM     38  CG  ASP C   7     -19.067  10.394  19.445  1.00 26.80     0.174 C 
ATOM     39  OD2 ASP C   7     -18.765   9.805  18.360  1.00 27.82    -0.648 OA
ATOM     40  OD1 ASP C   7     -19.631   9.843  20.454  1.00 32.15    -0.648 OA
ENDBRANCH  37  38
ENDBRANCH  34  37
ENDBRANCH  32  34
ENDBRANCH  29  30
BRANCH  29  41
ATOM     41  CB  PHE C   6     -13.557   9.518  19.451  1.00 21.19     0.073 C 
BRANCH  41  42
ATOM     42  CG  PHE C   6     -12.395   9.020  20.234  1.00 25.43    -0.056 A 
ATOM     43  CD2 PHE C   6     -12.542   8.049  21.236  1.00 26.31     0.007 A 
ATOM     44  CE2 PHE C   6     -11.418   7.563  21.899  1.00 29.51     0.001 A 
ATOM     45  CZ  PHE C   6     -10.147   8.095  21.647  1.00 25.82     0.000 A 
ATOM     46  CE1 PHE C   6     -10.001   9.065  20.692  1.00 26.71     0.001 A 
ATOM     47  CD1 PHE C   6     -11.140   9.544  19.996  1.00 21.41     0.007 A 
ENDBRANCH  41  42
ENDBRANCH  29  41
ENDBRANCH  26  29
ENDBRANCH   1  25
BRANCH   1  48
ATOM     48  CB  LEU C   5     -12.961  11.519  24.445  1.00 26.63     0.038 C 
BRANCH  48  49
ATOM     49  CG  LEU C   5     -12.180  10.287  24.127  1.00 31.82    -0.020 C 
ATOM     50  CD2 LEU C   5     -13.134   9.066  24.395  1.00 33.90     0.009 C 
ATOM     51  CD1 LEU C   5     -10.877  10.189  24.930  1.00 30.04     0.009 C 
ENDBRANCH  48  49
ENDBRANCH   1  48
TORSDOF 19
