USER: ADFR SOLUTION from run 0
USER: SCORE 5.873470 LL:  -1.404 LR:  -4.795 RR:   0.000 FEB:  -1.514
USER: RMSD 1.883084
USER: STATUS Locally minimized using BFGS
USER: GENES 13
USER: genes 0 Translation |==|  0.44235 0.42571 0.47543
USER: genes 1 Rotation |==|  0.61948 0.59821 0.44314 0.97207
USER: genes 2 Torsion [C]-CA--N-[C] |==|  0.75137
USER: genes 3 Torsion [N]-C--CA-[N] |==|  0.47966
USER: genes 4 Torsion [C]-CA--N-[H1] |==|  0.37584
USER: genes 5 Torsion [C]-CA--CB-[OG] |==|  0.22464
USER: genes 6 Torsion [CA]-CB--OG-[HG] |==|  0.50252
USER: genes 7 Torsion [N]-CA--C-[N] |==|  0.52222
USER: genes 8 Torsion [C]-N--CA-[C] |==|  0.53984
USER: genes 9 Torsion [N]-CA--C-[O] |==|  0.13623
USER: genes 10 Torsion [N]-CA--CB-[CG] |==|  0.82181
USER: genes 11 Torsion [CA]-CB--CG-[CD2] |==|  0.69036
USER: genes 12 Torsion [CE2]-CZ--OH-[HH] |==|  0.09353
ROOT
ATOM      1  CA  TYR Z  -4       2.125  12.827   8.781  1.00 44.41 LIG 0.18  C 
ENDROOT
BRANCH 1 2
ATOM      2  N   TYR Z  -4       2.441  13.495  10.038  1.00 49.32 LIG-0.35  N 
ATOM      3 H    TYR Z  -4       3.044  13.101  10.508  1.00 49.32 LIG 0.16  HD
ATOM      4  C   SER Z  -5       1.833  14.620  10.402  1.00 53.16 LIG 0.25  C 
ATOM      5 O    SER Z  -5       0.908  15.121   9.760  1.00 46.54 LIG-0.27  OA
BRANCH 4 6
ATOM      6  CA  SER Z  -5       2.343  15.279  11.679  1.00 61.82 LIG 0.30  C 
BRANCH 6 7
ATOM      7  N   SER Z  -5       1.711  16.580  11.863  1.00 64.85 LIG-0.06  N 
ATOM      8 H1   SER Z  -5       1.454  16.669  12.710  1.00 64.85 LIG 0.28  HD
ATOM      9 H3   SER Z  -5       1.001  16.643  11.330  1.00 64.85 LIG 0.28  HD
ATOM     10 H2   SER Z  -5       2.291  17.223  11.661  1.00 64.85 LIG 0.28  HD
ENDBRANCH 6 7
BRANCH 6 11
ATOM     11  CB  SER Z  -5       2.084  14.376  12.890  1.00 66.88 LIG 0.21  C 
BRANCH 11 12
ATOM     12 OG   SER Z  -5       3.071  13.363  13.001  1.00 63.67 LIG-0.40  OA
ATOM     13 HG   SER Z  -5       2.899  12.875  13.664  1.00 63.67 LIG 0.21  HD
ENDBRANCH 11 12
ENDBRANCH 6 11
ENDBRANCH 4 6
ENDBRANCH 1 2
BRANCH 1 14
ATOM     14  C   TYR Z  -4       0.992  11.829   8.960  1.00 48.17 LIG 0.24  C 
ATOM     15  N   GLY Z  -3       0.734  11.047   7.918  1.00 50.01 LIG-0.35  N 
ATOM     16 H    GLY Z  -3       1.190  11.054   7.189  1.00 50.01 LIG 0.16  HD
ATOM     17 O    TYR Z  -4       0.354  11.778  10.011  1.00 57.82 LIG-0.27  OA
BRANCH 15 18
ATOM     18  CA  GLY Z  -3      -0.364  10.099   7.931  1.00 64.94 LIG 0.21  C 
BRANCH 18 19
ATOM     19  C   GLY Z  -3      -0.262   9.089   6.806  1.00 70.96 LIG 0.21  C 
ATOM     20 O    GLY Z  -3       0.791   8.487   6.596  1.00 75.87 LIG-0.29  OA
ENDBRANCH 18 19
ENDBRANCH 15 18
ENDBRANCH 1 14
BRANCH 1 21
ATOM     21  CB  TYR Z  -4       3.379  12.148   8.215  1.00 44.24 LIG 0.07  C 
BRANCH 21 22
ATOM     22  CG  TYR Z  -4       4.450  13.153   7.853  1.00 50.17 LIG-0.06  A 
ATOM     23  CD2 TYR Z  -4       4.797  13.382   6.527  1.00 45.93 LIG 0.01  A 
ATOM     24  CE2 TYR Z  -4       5.758  14.318   6.191  1.00 43.59 LIG 0.04  A 
ATOM     25  CZ  TYR Z  -4       6.382  15.044   7.184  1.00 44.55 LIG 0.07  A 
ATOM     26  CE1 TYR Z  -4       6.049  14.842   8.509  1.00 43.60 LIG 0.04  A 
ATOM     27  CD1 TYR Z  -4       5.085  13.904   8.836  1.00 43.85 LIG 0.01  A 
BRANCH 25 28
ATOM     28 OH   TYR Z  -4       7.339  15.974   6.854  1.00 43.23 LIG-0.36  OA
ATOM     29 HH   TYR Z  -4       7.143  16.329   6.117  1.00 43.23 LIG 0.22  HD
ENDBRANCH 25 28
ENDBRANCH 21 22
ENDBRANCH 1 21
TORSDOF 11
