REMARK  11 active torsions:
REMARK  status: ('A' for Active; 'I' for Inactive)
REMARK    1  A    between atoms: N_1  and  CA_2 
REMARK    2  A    between atoms: CA_2  and  CB_5 
REMARK    3  A    between atoms: CA_2  and  C_3 
REMARK       I    between atoms: C_3  and  N_11 
REMARK    4  A    between atoms: CB_5  and  OG_6 
REMARK    5  A    between atoms: N_11  and  CA_12 
REMARK    6  A    between atoms: CA_12  and  C_13 
REMARK    7  A    between atoms: CA_12  and  CB_15 
REMARK       I    between atoms: C_13  and  N_25 
REMARK    8  A    between atoms: CB_15  and  CG_16 
REMARK    9  A    between atoms: CZ_21  and  OH_22 
REMARK   10  A    between atoms: N_25  and  CA_26 
REMARK   11  A    between atoms: CA_26  and  C_27 
ROOT
ATOM      1  CA  TYR Z  -4       1.929  13.558   8.805  1.00 44.41     0.180 C 
ENDROOT
BRANCH   1   2
ATOM      2  N   TYR Z  -4       1.598  14.741   9.590  1.00 49.32    -0.346 N 
ATOM      3  H   TYR Z  -4       2.043  14.818  10.322  1.00 49.32     0.163 HD
ATOM      4  C   SER Z  -5       0.680  15.612   9.184  1.00 53.16     0.251 C 
ATOM      5  O   SER Z  -5      -0.012  15.439   8.179  1.00 46.54    -0.271 OA
BRANCH   4   6
ATOM      6  CA  SER Z  -5       0.517  16.866  10.037  1.00 61.82     0.297 C 
BRANCH   6   7
ATOM      7  N   SER Z  -5       0.299  18.030   9.186  1.00 64.85    -0.064 N 
ATOM      8  H1  SER Z  -5      -0.356  18.528   9.525  1.00 64.85     0.275 HD
ATOM      9  H3  SER Z  -5       0.074  17.762   8.368  1.00 64.85     0.275 HD
ATOM     10  H2  SER Z  -5       1.046  18.512   9.145  1.00 64.85     0.275 HD
ENDBRANCH   6   7
BRANCH   6  11
ATOM     11  CB  SER Z  -5      -0.640  16.696  11.027  1.00 66.88     0.206 C 
BRANCH  11  12
ATOM     12  OG  SER Z  -5      -0.336  15.726  12.017  1.00 63.67    -0.398 OA
ATOM     13  HG  SER Z  -5      -0.984  15.653  12.547  1.00 63.67     0.209 HD
ENDBRANCH  11  12
ENDBRANCH   6  11
ENDBRANCH   4   6
ENDBRANCH   1   2
BRANCH   1  14
ATOM     14  C   TYR Z  -4       0.958  12.422   9.086  1.00 48.17     0.241 C 
ATOM     15  N   GLY Z  -3       0.785  11.546   8.103  1.00 50.01    -0.352 N 
ATOM     16  H   GLY Z  -3       1.213  11.570   7.358  1.00 50.01     0.162 HD
ATOM     17  O   TYR Z  -4       0.365  12.349  10.162  1.00 57.82    -0.271 OA
BRANCH  15  18
ATOM     18  CA  GLY Z  -3      -0.164  10.454   8.215  1.00 64.94     0.209 C 
BRANCH  18  19
ATOM     19  C   GLY Z  -3      -0.717  10.035   6.868  1.00 70.96     0.213 C 
ATOM     20  O   GLY Z  -3       0.039   9.690   5.959  1.00 75.87    -0.287 OA
ENDBRANCH  18  19
ENDBRANCH  15  18
ENDBRANCH   1  14
BRANCH   1  21
ATOM     21  CB  TYR Z  -4       3.377  13.131   9.081  1.00 44.24     0.073 C 
BRANCH  21  22
ATOM     22  CG  TYR Z  -4       4.374  14.056   8.419  1.00 50.17    -0.056 A 
ATOM     23  CD2 TYR Z  -4       4.931  13.742   7.185  1.00 45.93     0.010 A 
ATOM     24  CE2 TYR Z  -4       5.824  14.597   6.565  1.00 43.59     0.037 A 
ATOM     25  CZ  TYR Z  -4       6.166  15.786   7.175  1.00 44.55     0.065 A 
ATOM     26  CE1 TYR Z  -4       5.620  16.126   8.396  1.00 43.60     0.037 A 
ATOM     27  CD1 TYR Z  -4       4.727  15.264   9.009  1.00 43.85     0.010 A 
BRANCH  25  28
ATOM     28  OH  TYR Z  -4       7.055  16.638   6.562  1.00 43.23    -0.361 OA
ATOM     29  HH  TYR Z  -4       7.136  16.425   5.753  1.00 43.23     0.217 HD
ENDBRANCH  25  28
ENDBRANCH  21  22
ENDBRANCH   1  21
TORSDOF 11
