USER: ADFR SOLUTION from run 0
USER: SCORE 18.454950 LL:  -4.299 LR: -16.270 RR:   0.000 FEB: -10.006
USER: RMSD 0.188802
USER: STATUS Locally minimized using BFGS
USER: GENES 23
USER: genes 0 Translation |==|  0.39238 0.54297 0.58399
USER: genes 1 Rotation |==|  0.50250 0.49507 0.50326 0.99996
USER: genes 2 Torsion [C]-N--CA-[CB] |==|  0.47222
USER: genes 3 Torsion [N]-CA--CB-[CG] |==|  0.81635
USER: genes 4 Torsion [CA]-CB--CG-[CD1] |==|  0.49640
USER: genes 5 Torsion [N]-CA--C-[N] |==|  0.46073
USER: genes 6 Torsion [C]-N--CA-[CB] |==|  0.46750
USER: genes 7 Torsion [N]-CA--C-[N] |==|  0.46391
USER: genes 8 Torsion [C]-N--CA-[C] |==|  0.58473
USER: genes 9 Torsion [N]-CA--C-[N] |==|  0.44053
USER: genes 10 Torsion [N]-CA--CB-[CG] |==|  0.15262
USER: genes 11 Torsion [CA]-CB--CG-[CD2] |==|  0.24517
USER: genes 12 Torsion [N]-C--CA-[N] |==|  0.44092
USER: genes 13 Torsion [C]-CA--N-[C] |==|  0.56181
USER: genes 14 Torsion [N]-C--CA-[N] |==|  0.45481
USER: genes 15 Torsion [C]-CA--CB-[CG] |==|  0.81713
USER: genes 16 Torsion [CA]-CB--CG-[CD] |==|  0.49090
USER: genes 17 Torsion [CB]-CG--CD-[OE1] |==|  0.49822
USER: genes 18 Torsion [C]-CA--N-[C] |==|  0.62021
USER: genes 19 Torsion [N]-C--CA-[N] |==|  0.53541
USER: genes 20 Torsion [C]-CA--N-[C] |==|  0.20074
USER: genes 21 Torsion [N]-C--CA-[N] |==|  0.95714
USER: genes 22 Torsion [C]-CA--N-[C] |==|  0.71668
ROOT
ATOM      1  C   ALA B   4     -13.407 -14.003  18.193  1.00 18.54 LIG 0.24  C 
ATOM      2 O    ALA B   4     -13.139 -13.025  18.919  1.00 17.25 LIG-0.27  OA
ATOM      3  N   LEU B   5     -14.065 -15.095  18.600  1.00 18.87 LIG-0.35  N 
ATOM      4 H    LEU B   5     -14.361 -15.709  18.075  1.00 18.87 LIG 0.16  HD
ENDROOT
BRANCH 3 5
ATOM      5  CA  LEU B   5     -14.334 -15.323  20.034  1.00 18.34 LIG 0.18  C 
BRANCH 5 6
ATOM      6  CB  LEU B   5     -15.294 -16.487  20.193  1.00 23.26 LIG 0.04  C 
BRANCH 6 7
ATOM      7  CG  LEU B   5     -16.696 -16.250  19.651  1.00 28.17 LIG-0.02  C 
ATOM      8  CD1 LEU B   5     -17.519 -17.525  19.862  1.00 29.22 LIG 0.01  C 
ATOM      9  CD2 LEU B   5     -17.373 -15.062  20.316  1.00 30.00 LIG 0.01  C 
ENDBRANCH 6 7
ENDBRANCH 5 6
BRANCH 5 10
ATOM     10  C   LEU B   5     -13.038 -15.637  20.764  1.00 16.86 LIG 0.24  C 
ATOM     11 O    LEU B   5     -12.066 -15.973  20.157  1.00 19.60 LIG-0.27  OA
ATOM     12  N   ALA B   6     -13.066 -15.582  22.093  1.00 16.13 LIG-0.35  N 
ATOM     13 H    ALA B   6     -13.759 -15.335  22.537  1.00 16.13 LIG 0.16  HD
BRANCH 12 14
ATOM     14  CA  ALA B   6     -11.921 -15.935  22.939  1.00 17.44 LIG 0.17  C 
ATOM     15  CB  ALA B   6     -12.208 -15.480  24.365  1.00 18.99 LIG 0.04  C 
BRANCH 14 16
ATOM     16  C   ALA B   6     -11.677 -17.446  22.935  1.00 24.46 LIG 0.24  C 
ATOM     17 O    ALA B   6     -12.564 -18.199  22.547  1.00 27.52 LIG-0.27  OA
ATOM     18  N   TRP B   7     -10.532 -17.918  23.431  1.00 32.31 LIG-0.35  N 
ATOM     19 H    TRP B   7      -9.842 -17.444  23.629  1.00 32.31 LIG 0.16  HD
BRANCH 18 20
ATOM     20  CA  TRP B   7     -10.400 -19.405  23.679  1.00 35.59 LIG 0.18  C 
BRANCH 20 21
ATOM     21  C   TRP B   7      -9.492 -19.847  24.824  1.00 36.87 LIG 0.25  C 
ATOM     22 N    NH2 B   8      -9.700 -21.143  25.372  1.00 48.35 LIG-0.06  NA
ATOM     23 O    TRP B   7      -8.596 -19.126  25.236  1.00 43.64 LIG-0.28  OA
ENDBRANCH 20 21
BRANCH 20 24
ATOM     24  CB  TRP B   7      -9.972 -20.127  22.414  1.00 36.27 LIG 0.07  C 
BRANCH 24 25
ATOM     25  CG  TRP B   7      -8.719 -19.592  21.806  1.00 35.16 LIG-0.03  A 
ATOM     26  CD2 TRP B   7      -7.383 -19.990  22.107  1.00 33.00 LIG-0.00  A 
ATOM     27  CE3 TRP B   7      -6.818 -20.909  23.003  1.00 33.14 LIG 0.01  A 
ATOM     28  CE2 TRP B   7      -6.526 -19.222  21.287  1.00 37.76 LIG 0.04  A 
ATOM     29  CZ3 TRP B   7      -5.432 -21.043  23.035  1.00 39.74 LIG 0.00  A 
ATOM     30  CH2 TRP B   7      -4.601 -20.262  22.200  1.00 37.98 LIG 0.00  A 
ATOM     31  CZ2 TRP B   7      -5.122 -19.341  21.336  1.00 35.74 LIG 0.03  A 
ATOM     32  NE1 TRP B   7      -7.321 -18.403  20.527  1.00 36.87 LIG-0.36  N 
ATOM     33  CD1 TRP B   7      -8.633 -18.626  20.853  1.00 32.46 LIG 0.10  A 
ATOM     34 HE1  TRP B   7      -7.041 -17.840  19.940  1.00 36.87 LIG 0.17  HD
ENDBRANCH 24 25
ENDBRANCH 20 24
ENDBRANCH 18 20
ENDBRANCH 14 16
ENDBRANCH 12 14
ENDBRANCH 5 10
ENDBRANCH 3 5
BRANCH 1 35
ATOM     35  CA  ALA B   4     -13.009 -14.013  16.746  1.00 18.93 LIG 0.17  C 
ATOM     36  CB  ALA B   4     -11.777 -14.873  16.566  1.00 20.14 LIG 0.04  C 
BRANCH 35 37
ATOM     37  N   ALA B   4     -12.770 -12.669  16.267  1.00 16.93 LIG-0.35  N 
ATOM     38  C   GLU B   3     -12.837 -12.372  14.974  1.00 16.00 LIG 0.24  C 
ATOM     39 O    GLU B   3     -13.173 -13.180  14.125  1.00 18.04 LIG-0.27  OA
ATOM     40 H    ALA B   4     -12.586 -12.098  16.883  1.00 16.93 LIG 0.16  HD
BRANCH 38 41
ATOM     41  CA  GLU B   3     -12.486 -10.935  14.592  1.00 15.64 LIG 0.18  C 
BRANCH 41 42
ATOM     42  CB  GLU B   3     -13.600  -9.945  14.994  1.00 16.94 LIG 0.04  C 
BRANCH 42 43
ATOM     43  CG  GLU B   3     -14.894 -10.153  14.237  1.00 17.50 LIG 0.12  C 
BRANCH 43 44
ATOM     44  CD  GLU B   3     -16.040  -9.254  14.653  1.00 19.64 LIG 0.17  C 
ATOM     45 OE1  GLU B   3     -17.125  -9.381  14.047  1.00 22.12 LIG-0.65  OA
ATOM     46 OE2  GLU B   3     -15.867  -8.432  15.568  1.00 20.68 LIG-0.65  OA
ENDBRANCH 43 44
ENDBRANCH 42 43
ENDBRANCH 41 42
BRANCH 41 47
ATOM     47  N   GLU B   3     -12.232 -10.892  13.142  1.00 14.76 LIG-0.35  N 
ATOM     48 H    GLU B   3     -12.803 -11.342  12.682  1.00 14.76 LIG 0.16  HD
ATOM     49  C   GLY B   2     -11.229 -10.231  12.589  1.00 15.24 LIG 0.24  C 
ATOM     50 O    GLY B   2     -10.421  -9.578  13.238  1.00 16.96 LIG-0.27  OA
BRANCH 49 51
ATOM     51  CA  GLY B   2     -11.128 -10.309  11.065  1.00 16.40 LIG 0.23  C 
BRANCH 51 52
ATOM     52  N   GLY B   2      -9.847  -9.816  10.514  1.00 16.09 LIG-0.35  N 
ATOM     53 H    GLY B   2      -9.908  -9.060  10.108  1.00 16.09 LIG 0.16  HD
ATOM     54  C   GLY B   1      -8.713 -10.487  10.642  1.00 19.38 LIG 0.23  C 
ATOM     55 O    GLY B   1      -8.766 -11.609  11.233  1.00 21.51 LIG-0.27  OA
BRANCH 54 56
ATOM     56  CA  GLY B   1      -7.429 -10.332  10.048  1.00 21.19 LIG 0.23  C 
BRANCH 56 57
ATOM     57  N   GLY B   1      -7.993  -9.470   9.047  1.00 20.21 LIG-0.35  N 
ATOM     58  C   ACE B   0      -8.257  -9.891   7.800  1.00 20.42 LIG 0.21  C 
ATOM     59 O    ACE B   0      -8.379 -11.056   7.563  1.00 26.00 LIG-0.27  OA
ATOM     60  CH3 ACE B   0      -8.460  -8.905   6.680  1.00 26.85 LIG 0.12  C 
ATOM     61 H    GLY B   1      -8.144  -8.668   9.320  1.00 20.21 LIG 0.16  HD
ENDBRANCH 56 57
ENDBRANCH 54 56
ENDBRANCH 51 52
ENDBRANCH 49 51
ENDBRANCH 41 47
ENDBRANCH 38 41
ENDBRANCH 35 37
ENDBRANCH 1 35
TORSDOF 21
