USER: ADFR SOLUTION from run 0
USER: SCORE 12.437398 LL:  -4.751 LR:  -9.099 RR:   0.000 FEB:  -1.642
USER: RMSD 0.641790
USER: STATUS Locally minimized using BFGS
USER: GENES 27
USER: genes 0 Translation |==|  0.42468 0.43463 0.51321
USER: genes 1 Rotation |==|  0.49253 0.50809 0.48512 0.99966
USER: genes 2 Torsion [C]-N--CA-[CB] |==|  0.52222
USER: genes 3 Torsion [N]-CA--C-[N] |==|  0.88519
USER: genes 4 Torsion [C]-N--CA-[C] |==|  0.74307
USER: genes 5 Torsion [N]-CA--CB-[OG] |==|  0.15448
USER: genes 6 Torsion [CA]-CB--OG-[HG] |==|  0.49966
USER: genes 7 Torsion [N]-CA--C-[N] |==|  0.41819
USER: genes 8 Torsion [C]-N--CA-[CB] |==|  0.35410
USER: genes 9 Torsion [N]-CA--C-[O] |==|  0.28579
USER: genes 10 Torsion [N]-CA--CB-[CG] |==|  0.88473
USER: genes 11 Torsion [CA]-CB--CG-[CD] |==|  0.80088
USER: genes 12 Torsion [CB]-CG--CD-[NE2] |==|  0.23904
USER: genes 13 Torsion [N]-CA--CB-[CG] |==|  0.53589
USER: genes 14 Torsion [CA]-CB--CG-[OD1] |==|  0.02410
USER: genes 15 Torsion [N]-C--CA-[N] |==|  0.40220
USER: genes 16 Torsion [C]-CA--N-[C] |==|  0.81674
USER: genes 17 Torsion [N]-C--CA-[N] |==|  0.94427
USER: genes 18 Torsion [C]-CA--CB-[OG] |==|  0.86004
USER: genes 19 Torsion [CA]-CB--OG-[HG] |==|  0.34398
USER: genes 20 Torsion [C]-CA--N-[C] |==|  0.72576
USER: genes 21 Torsion [N]-C--CA-[N] |==|  0.56501
USER: genes 22 Torsion [C]-CA--CB-[CG] |==|  0.28154
USER: genes 23 Torsion [CA]-CB--CG-[CD] |==|  0.20126
USER: genes 24 Torsion [CB]-CG--CD-[OE1] |==|  0.11574
USER: genes 25 Torsion [C]-CA--CB-[OG] |==|  0.49839
USER: genes 26 Torsion [CA]-CB--OG-[HG] |==|  0.49954
ROOT
ATOM      1  C   SER C 503      77.972  24.985 -14.296  1.00 42.27 LIG 0.24  C 
ATOM      2 O    SER C 503      79.122  25.416 -14.323  1.00 46.84 LIG-0.27  OA
ATOM      3  N   ASP C 504      77.619  23.813 -14.806  1.00 51.15 LIG-0.34  N 
ATOM      4 H    ASP C 504      76.837  23.468 -14.703  1.00 51.15 LIG 0.16  HD
ENDROOT
BRANCH 3 5
ATOM      5  CA  ASP C 504      78.529  22.988 -15.598  1.00 56.79 LIG 0.19  C 
BRANCH 5 6
ATOM      6  C   ASP C 504      79.188  23.831 -16.699  1.00 67.42 LIG 0.24  C 
ATOM      7  N   SER C 505      78.396  24.694 -17.330  1.00 81.52 LIG-0.34  N 
ATOM      8 H    SER C 505      77.559  24.787 -17.159  1.00 81.52 LIG 0.16  HD
ATOM      9 O    ASP C 504      80.386  23.706 -16.965  1.00 66.01 LIG-0.27  OA
BRANCH 7 10
ATOM     10  CA  SER C 505      78.893  25.572 -18.386  1.00 90.64 LIG 0.20  C 
BRANCH 10 11
ATOM     11  CB  SER C 505      77.828  25.781 -19.457  1.00 89.01 LIG 0.20  C 
BRANCH 11 12
ATOM     12 OG   SER C 505      76.637  26.276 -18.877  1.00 87.22 LIG-0.40  OA
ATOM     13 HG   SER C 505      76.059  26.388 -19.476  1.00 87.22 LIG 0.21  HD
ENDBRANCH 11 12
ENDBRANCH 10 11
BRANCH 10 14
ATOM     14  C   SER C 505      79.326  26.913 -17.801  1.00 98.93 LIG 0.24  C 
ATOM     15  N   GLN C 506      80.302  27.548 -18.444  1.00110.12 LIG-0.35  N 
ATOM     16 H    GLN C 506      80.587  27.328 -19.225  1.00110.12 LIG 0.16  HD
ATOM     17 O    SER C 505      78.778  27.368 -16.795  1.00 94.47 LIG-0.27  OA
BRANCH 15 18
ATOM     18  CA  GLN C 506      80.981  28.697 -17.857  1.00115.19 LIG 0.16  C 
BRANCH 18 19
ATOM     19  C   GLN C 506      80.623  30.004 -18.564  1.00118.66 LIG 0.22  C 
ATOM     20 O    GLN C 506      79.826  30.798 -18.061  1.00117.46 LIG-0.29  OA
ENDBRANCH 18 19
BRANCH 18 21
ATOM     21  CB  GLN C 506      82.496  28.468 -17.887  1.00118.15 LIG 0.04  C 
BRANCH 21 22
ATOM     22  CG  GLN C 506      82.909  27.036 -17.518  1.00119.48 LIG 0.10  C 
BRANCH 22 23
ATOM     23  CD  GLN C 506      82.732  26.705 -16.035  1.00116.76 LIG 0.21  C 
ATOM     24  NE2 GLN C 506      81.531  26.278 -15.661  1.00111.94 LIG-0.37  N 
ATOM     25 21HE GLN C 506      80.901  26.202 -16.242  1.00111.94 LIG 0.16  HD
ATOM     26 22HE GLN C 506      81.383  26.077 -14.838  1.00111.94 LIG 0.16  HD
ATOM     27 OE1  GLN C 506      83.666  26.829 -15.242  1.00116.06 LIG-0.27  OA
ENDBRANCH 22 23
ENDBRANCH 21 22
ENDBRANCH 18 21
ENDBRANCH 15 18
ENDBRANCH 10 14
ENDBRANCH 7 10
ENDBRANCH 5 6
BRANCH 5 28
ATOM     28  CB  ASP C 504      77.762  21.799 -16.204  1.00 57.84 LIG 0.15  C 
BRANCH 28 29
ATOM     29  CG  ASP C 504      78.675  20.722 -16.781  1.00 60.92 LIG 0.17  C 
ATOM     30 OD2  ASP C 504      78.151  19.796 -17.445  1.00 60.43 LIG-0.65  OA
ATOM     31 OD1  ASP C 504      79.906  20.797 -16.577  1.00 59.69 LIG-0.65  OA
ENDBRANCH 28 29
ENDBRANCH 5 28
ENDBRANCH 3 5
BRANCH 1 32
ATOM     32  CA  SER C 503      76.861  25.787 -13.643  1.00 44.19 LIG 0.20  C 
BRANCH 32 33
ATOM     33  N   SER C 503      77.367  26.526 -12.484  1.00 47.77 LIG-0.34  N 
ATOM     34 H    SER C 503      77.353  27.381 -12.571  1.00 47.77 LIG 0.16  HD
ATOM     35  C   SER C 502      77.806  25.892 -11.397  1.00 50.79 LIG 0.24  C 
ATOM     36 O    SER C 502      77.558  24.718 -11.163  1.00 48.58 LIG-0.27  OA
BRANCH 35 37
ATOM     37  CA  SER C 502      78.660  26.700 -10.438  1.00 60.54 LIG 0.20  C 
BRANCH 37 38
ATOM     38  CB  SER C 502      77.857  27.107  -9.214  1.00 53.64 LIG 0.20  C 
BRANCH 38 39
ATOM     39 OG   SER C 502      76.634  27.705  -9.575  1.00 59.09 LIG-0.40  OA
ATOM     40 HG   SER C 502      76.001  27.287  -9.216  1.00 59.09 LIG 0.21  HD
ENDBRANCH 38 39
ENDBRANCH 37 38
BRANCH 37 41
ATOM     41  N   SER C 502      79.195  27.849 -11.159  1.00 72.56 LIG-0.34  N 
ATOM     42 H    SER C 502      78.656  28.514 -11.236  1.00 72.56 LIG 0.16  HD
ATOM     43  C   GLU C 501      80.433  27.817 -11.642  1.00101.90 LIG 0.26  C 
ATOM     44 O    GLU C 501      81.284  27.032 -11.221  1.00103.22 LIG-0.27  OA
BRANCH 43 45
ATOM     45  CA  GLU C 501      80.783  28.826 -12.744  1.00101.55 LIG 0.40  C 
ATOM     46  N   GLU C 501      81.911  28.342 -13.535  1.00100.94 LIG 0.61  N 
BRANCH 45 47
ATOM     47  CB  GLU C 501      79.573  29.079 -13.648  1.00104.94 LIG 0.06  C 
BRANCH 47 48
ATOM     48  CG  GLU C 501      78.839  30.376 -13.355  1.00111.45 LIG 0.12  C 
BRANCH 48 49
ATOM     49  CD  GLU C 501      79.616  31.597 -13.803  1.00115.68 LIG 0.17  C 
ATOM     50 OE1  GLU C 501      80.205  31.562 -14.906  1.00117.56 LIG-0.65  OA
ATOM     51 OE2  GLU C 501      79.635  32.592 -13.048  1.00122.11 LIG-0.65  OA
ENDBRANCH 48 49
ENDBRANCH 47 48
ENDBRANCH 45 47
ENDBRANCH 43 45
ENDBRANCH 37 41
ENDBRANCH 35 37
ENDBRANCH 32 33
BRANCH 32 52
ATOM     52  CB  SER C 503      76.249  26.731 -14.669  1.00 49.05 LIG 0.20  C 
BRANCH 52 53
ATOM     53 OG   SER C 503      75.199  27.482 -14.086  1.00 54.59 LIG-0.40  OA
ATOM     54 HG   SER C 503      74.872  28.000 -14.662  1.00 54.59 LIG 0.21  HD
ENDBRANCH 52 53
ENDBRANCH 32 52
ENDBRANCH 1 32
TORSDOF 25
