USER: ADFR SOLUTION from run 0
USER: SCORE 14.521430 LL:  -7.523 LR:  -8.398 RR:   0.000 FEB:  -0.045
USER: RMSD 1.199862
USER: STATUS Locally minimized using BFGS
USER: GENES 30
USER: genes 0 Translation |==|  0.50175 0.39647 0.42916
USER: genes 1 Rotation |==|  0.47704 0.52471 0.50402 0.99884
USER: genes 2 Torsion [N]-CA--C-[N] |==|  0.90804
USER: genes 3 Torsion [C]-N--CA-[C] |==|  0.76846
USER: genes 4 Torsion [N]-CA--C-[N] |==|  0.87854
USER: genes 5 Torsion [C]-N--CA-[C] |==|  0.83630
USER: genes 6 Torsion [N]-CA--C-[N] |==|  0.88625
USER: genes 7 Torsion [C]-N--CA-[CB] |==|  0.46535
USER: genes 8 Torsion [N]-CA--C-[O] |==|  0.45459
USER: genes 9 Torsion [N]-CA--CB-[CG] |==|  0.88407
USER: genes 10 Torsion [CA]-CB--CG-[OD2] |==|  0.90126
USER: genes 11 Torsion [N]-CA--CB-[CG] |==|  0.54465
USER: genes 12 Torsion [CA]-CB--CG-[CD2] |==|  0.50743
USER: genes 13 Torsion [N]-CA--CB-[CG] |==|  0.63140
USER: genes 14 Torsion [CA]-CB--CG-[CD1] |==|  0.11310
USER: genes 15 Torsion [C]-CA--CB-[CG] |==|  0.08261
USER: genes 16 Torsion [CA]-CB--CG-[CD1] |==|  0.72197
USER: genes 17 Torsion [C]-CA--N-[C] |==|  0.88889
USER: genes 18 Torsion [N]-C--CA-[N] |==|  0.83603
USER: genes 19 Torsion [C]-CA--CB-[CG] |==|  0.13393
USER: genes 20 Torsion [CA]-CB--CG-[CD] |==|  0.19194
USER: genes 21 Torsion [CB]-CG--CD-[NE2] |==|  0.51816
USER: genes 22 Torsion [C]-CA--N-[C] |==|  0.86516
USER: genes 23 Torsion [N]-C--CA-[N] |==|  0.88399
USER: genes 24 Torsion [C]-CA--CB-[CG] |==|  0.26695
USER: genes 25 Torsion [CA]-CB--CG-[CD2] |==|  0.88545
USER: genes 26 Torsion [C]-CA--N-[C] |==|  0.83697
USER: genes 27 Torsion [N]-C--CA-[N] |==|  0.33470
USER: genes 28 Torsion [C]-CA--CB-[OG] |==|  0.12675
USER: genes 29 Torsion [CA]-CB--OG-[HG] |==|  0.49878
ROOT
ATOM      1  CA  PHE G  65     -24.232 -11.764 -18.911  1.00 79.88 LIG 0.18  C 
ENDROOT
BRANCH 1 2
ATOM      2  C   PHE G  65     -25.600 -11.035 -18.693  1.00 81.88 LIG 0.24  C 
ATOM      3 O    PHE G  65     -26.475 -11.008 -19.580  1.00 83.91 LIG-0.27  OA
ATOM      4  N   LEU G  66     -25.799 -10.488 -17.504  1.00 80.12 LIG-0.35  N 
ATOM      5 H    LEU G  66     -25.229 -10.523 -16.861  1.00 80.12 LIG 0.16  HD
BRANCH 4 6
ATOM      6  CA  LEU G  66     -27.034  -9.762 -17.175  1.00 73.95 LIG 0.18  C 
BRANCH 6 7
ATOM      7  C   LEU G  66     -26.959  -8.297 -17.669  1.00 70.37 LIG 0.24  C 
ATOM      8 O    LEU G  66     -27.924  -7.751 -18.244  1.00 65.91 LIG-0.27  OA
ATOM      9  N   LEU G  67     -25.802  -7.668 -17.436  1.00 70.17 LIG-0.35  N 
ATOM     10 H    LEU G  67     -25.160  -8.008 -16.975  1.00 70.17 LIG 0.16  HD
BRANCH 9 11
ATOM     11  CA  LEU G  67     -25.524  -6.331 -17.953  1.00 68.48 LIG 0.18  C 
BRANCH 11 12
ATOM     12  C   LEU G  67     -25.624  -6.344 -19.485  1.00 69.74 LIG 0.24  C 
ATOM     13  N   ASP G  68     -25.100  -7.414 -20.114  1.00 68.02 LIG-0.35  N 
ATOM     14 H    ASP G  68     -24.474  -7.894 -19.772  1.00 68.02 LIG 0.16  HD
ATOM     15 O    LEU G  67     -26.210  -5.417 -20.050  1.00 68.13 LIG-0.27  OA
BRANCH 13 16
ATOM     16  CA  ASP G  68     -25.536  -7.886 -21.459  1.00 74.55 LIG 0.17  C 
BRANCH 16 17
ATOM     17  C   ASP G  68     -26.929  -8.566 -21.278  1.00 77.35 LIG 0.22  C 
ATOM     18 O    ASP G  68     -27.699  -8.803 -22.214  1.00 79.38 LIG-0.29  OA
ENDBRANCH 16 17
BRANCH 16 19
ATOM     19  CB  ASP G  68     -24.562  -8.924 -22.045  1.00 74.32 LIG 0.15  C 
BRANCH 19 20
ATOM     20  CG  ASP G  68     -23.059  -8.572 -21.817  1.00 79.04 LIG 0.17  C 
ATOM     21 OD1  ASP G  68     -22.232  -9.518 -21.606  1.00 79.61 LIG-0.65  OA
ATOM     22 OD2  ASP G  68     -22.690  -7.365 -21.850  1.00 79.33 LIG-0.65  OA
ENDBRANCH 19 20
ENDBRANCH 16 19
ENDBRANCH 13 16
ENDBRANCH 11 12
BRANCH 11 23
ATOM     23  CB  LEU G  67     -24.190  -5.789 -17.448  1.00 63.56 LIG 0.04  C 
BRANCH 23 24
ATOM     24  CG  LEU G  67     -24.124  -4.273 -17.674  1.00 66.22 LIG-0.02  C 
ATOM     25  CD2 LEU G  67     -22.773  -3.696 -17.240  1.00 64.35 LIG 0.01  C 
ATOM     26  CD1 LEU G  67     -25.338  -3.515 -17.047  1.00 61.82 LIG 0.01  C 
ENDBRANCH 23 24
ENDBRANCH 11 23
ENDBRANCH 9 11
ENDBRANCH 6 7
BRANCH 6 27
ATOM     27  CB  LEU G  66     -27.204  -9.799 -15.669  1.00 68.20 LIG 0.04  C 
BRANCH 27 28
ATOM     28  CG  LEU G  66     -28.503 -10.156 -14.988  1.00 70.51 LIG-0.02  C 
ATOM     29  CD1 LEU G  66     -29.289 -11.312 -15.611  1.00 68.17 LIG 0.01  C 
ATOM     30  CD2 LEU G  66     -28.062 -10.462 -13.557  1.00 69.71 LIG 0.01  C 
ENDBRANCH 27 28
ENDBRANCH 6 27
ENDBRANCH 4 6
ENDBRANCH 1 2
BRANCH 1 31
ATOM     31  CB  PHE G  65     -24.414 -13.286 -18.706  1.00 81.70 LIG 0.07  C 
BRANCH 31 32
ATOM     32  CG  PHE G  65     -25.820 -13.770 -19.067  1.00 88.02 LIG-0.06  A 
ATOM     33  CD1 PHE G  65     -26.792 -14.006 -18.065  1.00 90.65 LIG 0.01  A 
ATOM     34  CE1 PHE G  65     -28.101 -14.406 -18.412  1.00 91.87 LIG 0.00  A 
ATOM     35  CZ  PHE G  65     -28.465 -14.554 -19.759  1.00 92.49 LIG 0.00  A 
ATOM     36  CE2 PHE G  65     -27.526 -14.299 -20.753  1.00 89.30 LIG 0.00  A 
ATOM     37  CD2 PHE G  65     -26.221 -13.904 -20.412  1.00 89.13 LIG 0.01  A 
ENDBRANCH 31 32
ENDBRANCH 1 31
BRANCH 1 38
ATOM     38  N   PHE G  65     -23.049 -11.194 -18.194  1.00 74.58 LIG-0.35  N 
ATOM     39  C   GLN G  64     -22.879  -9.861 -18.096  1.00 72.54 LIG 0.24  C 
ATOM     40 O    GLN G  64     -23.639  -9.041 -18.637  1.00 72.49 LIG-0.27  OA
ATOM     41 H    PHE G  65     -22.511 -11.778 -17.865  1.00 74.58 LIG 0.16  HD
BRANCH 39 42
ATOM     42  CA  GLN G  64     -21.722  -9.318 -17.230  1.00 69.04 LIG 0.18  C 
BRANCH 42 43
ATOM     43  CB  GLN G  64     -20.334  -9.602 -17.812  1.00 71.00 LIG 0.04  C 
BRANCH 43 44
ATOM     44  CG  GLN G  64     -20.182  -9.257 -19.276  1.00 72.96 LIG 0.10  C 
BRANCH 44 45
ATOM     45  CD  GLN G  64     -20.211  -7.766 -19.572  1.00 76.87 LIG 0.21  C 
ATOM     46 OE1  GLN G  64     -20.205  -6.908 -18.674  1.00 74.88 LIG-0.27  OA
ATOM     47  NE2 GLN G  64     -20.215  -7.450 -20.860  1.00 81.47 LIG-0.37  N 
ATOM     48 21HE GLN G  64     -20.219  -8.070 -21.455  1.00 81.47 LIG 0.16  HD
ATOM     49 22HE GLN G  64     -20.215  -6.624 -21.099  1.00 81.47 LIG 0.16  HD
ENDBRANCH 44 45
ENDBRANCH 43 44
ENDBRANCH 42 43
BRANCH 42 50
ATOM     50  N   GLN G  64     -21.769  -9.716 -15.849  1.00 68.17 LIG-0.35  N 
ATOM     51  C   LEU G  63     -22.881  -9.608 -15.116  1.00 67.58 LIG 0.24  C 
ATOM     52 O    LEU G  63     -24.003  -9.288 -15.572  1.00 63.10 LIG-0.27  OA
ATOM     53 H    GLN G  64     -21.026 -10.024 -15.545  1.00 68.17 LIG 0.16  HD
BRANCH 51 54
ATOM     54  CA  LEU G  63     -22.719  -9.958 -13.649  1.00 66.76 LIG 0.18  C 
BRANCH 54 55
ATOM     55  CB  LEU G  63     -22.105  -8.757 -12.908  1.00 69.31 LIG 0.04  C 
BRANCH 55 56
ATOM     56  CG  LEU G  63     -23.026  -7.752 -12.163  1.00 73.12 LIG-0.02  C 
ATOM     57  CD2 LEU G  63     -24.318  -7.371 -12.897  1.00 75.26 LIG 0.01  C 
ATOM     58  CD1 LEU G  63     -22.307  -6.481 -11.766  1.00 70.75 LIG 0.01  C 
ENDBRANCH 55 56
ENDBRANCH 54 55
BRANCH 54 59
ATOM     59  N   LEU G  63     -21.884 -11.139 -13.523  1.00 64.77 LIG-0.35  N 
ATOM     60  C   SER G  62     -22.173 -12.335 -14.082  1.00 63.11 LIG 0.26  C 
ATOM     61 O    SER G  62     -23.278 -12.662 -14.602  1.00 57.72 LIG-0.27  OA
ATOM     62 H    LEU G  63     -21.176 -11.005 -13.053  1.00 64.77 LIG 0.16  HD
BRANCH 60 63
ATOM     63  CA  SER G  62     -20.983 -13.304 -14.024  1.00 64.68 LIG 0.42  C 
ATOM     64  N   SER G  62     -21.294 -14.560 -13.272  1.00 67.72 LIG 0.62  N 
BRANCH 63 65
ATOM     65  CB  SER G  62     -20.421 -13.565 -15.434  1.00 62.74 LIG 0.21  C 
BRANCH 65 66
ATOM     66 OG   SER G  62     -20.276 -12.340 -16.180  1.00 60.63 LIG-0.40  OA
ATOM     67 HG   SER G  62     -19.962 -12.510 -16.941  1.00 60.63 LIG 0.21  HD
ENDBRANCH 65 66
ENDBRANCH 63 65
ENDBRANCH 60 63
ENDBRANCH 54 59
ENDBRANCH 51 54
ENDBRANCH 42 50
ENDBRANCH 39 42
ENDBRANCH 1 38
TORSDOF 28
