USER: ADFR SOLUTION from run 0
USER: SCORE 13.608241 LL:  -5.080 LR: -11.125 RR:   0.000 FEB:  -2.474
USER: RMSD 0.690816
USER: STATUS Locally minimized using BFGS
USER: GENES 31
USER: genes 0 Translation |==|  0.34153 0.50294 0.40367
USER: genes 1 Rotation |==|  0.50856 0.51145 0.50551 0.99977
USER: genes 2 Torsion [C]-N--CA-[CB] |==|  0.24184
USER: genes 3 Torsion [N]-CA--CB-[CG] |==|  0.49858
USER: genes 4 Torsion [CA]-CB--CG-[CD] |==|  0.50682
USER: genes 5 Torsion [CB]-CG--CD-[OE2] |==|  0.59265
USER: genes 6 Torsion [N]-CA--C-[N] |==|  0.36567
USER: genes 7 Torsion [C]-N--CA-[CB] |==|  0.29157
USER: genes 8 Torsion [N]-CA--CB-[CG2] |==|  0.51580
USER: genes 9 Torsion [CA]-CB--OG1-[HG1] |==|  0.26485
USER: genes 10 Torsion [N]-CA--C-[N] |==|  0.36695
USER: genes 11 Torsion [C]-N--CA-[C] |==|  0.77695
USER: genes 12 Torsion [N]-CA--C-[N] |==|  0.35633
USER: genes 13 Torsion [C]-N--CA-[CB] |==|  0.29167
USER: genes 14 Torsion [N]-CA--CB-[CG2] |==|  0.16986
USER: genes 15 Torsion [N]-CA--C-[OXT] |==|  0.46491
USER: genes 16 Torsion [N]-CA--CB-[CG] |==|  0.82034
USER: genes 17 Torsion [CA]-CB--CG-[CD] |==|  0.54664
USER: genes 18 Torsion [CB]-CG--CD-[OE1] |==|  0.07488
USER: genes 19 Torsion [N]-C--CA-[N] |==|  0.31774
USER: genes 20 Torsion [C]-CA--CB-[CG] |==|  0.14826
USER: genes 21 Torsion [CA]-CB--CG-[CD] |==|  0.20472
USER: genes 22 Torsion [CB]-CG--CD-[NE] |==|  0.19286
USER: genes 23 Torsion [CG]-CD--NE-[HE] |==|  0.03169
USER: genes 24 Torsion [C]-CA--N-[C] |==|  0.80462
USER: genes 25 Torsion [N]-C--CA-[N] |==|  0.35805
USER: genes 26 Torsion [C]-CA--N-[H2] |==|  0.83327
USER: genes 27 Torsion [C]-CA--CB-[CG] |==|  0.14944
USER: genes 28 Torsion [CA]-CB--CG-[CD] |==|  0.52625
USER: genes 29 Torsion [CB]-CG--CD-[NE] |==|  0.17320
USER: genes 30 Torsion [CG]-CD--NE-[CZ] |==|  0.48051
ROOT
ATOM      1  C   ARG C   2      19.912  19.653  23.936  1.00 17.64 LIG 0.24  C 
ATOM      2 O    ARG C   2      19.692  20.557  23.123  1.00 18.48 LIG-0.27  OA
ATOM      3  N   GLU C   3      21.016  19.610  24.674  1.00 16.82 LIG-0.35  N 
ATOM      4 H    GLU C   3      21.191  18.994  25.249  1.00 16.82 LIG 0.16  HD
ENDROOT
BRANCH 3 5
ATOM      5  CA  GLU C   3      22.044  20.640  24.555  1.00 17.00 LIG 0.18  C 
BRANCH 5 6
ATOM      6  CB  GLU C   3      21.729  21.824  25.482  1.00 16.91 LIG 0.04  C 
BRANCH 6 7
ATOM      7  CG  GLU C   3      22.777  22.936  25.415  1.00 19.77 LIG 0.12  C 
BRANCH 7 8
ATOM      8  CD  GLU C   3      22.492  24.075  26.376  1.00 23.53 LIG 0.17  C 
ATOM      9 OE2  GLU C   3      22.810  25.233  26.040  1.00 22.35 LIG-0.65  OA
ATOM     10 OE1  GLU C   3      21.953  23.810  27.466  1.00 28.80 LIG-0.65  OA
ENDBRANCH 7 8
ENDBRANCH 6 7
ENDBRANCH 5 6
BRANCH 5 11
ATOM     11  C   GLU C   3      23.386  20.027  24.926  1.00 16.25 LIG 0.24  C 
ATOM     12  N   THR C   4      24.408  20.246  24.095  1.00 14.90 LIG-0.34  N 
ATOM     13 H    THR C   4      24.359  20.742  23.394  1.00 14.90 LIG 0.16  HD
ATOM     14 O    GLU C   3      23.485  19.355  25.955  1.00 19.18 LIG-0.27  OA
BRANCH 12 15
ATOM     15  CA  THR C   4      25.718  19.646  24.317  1.00 14.85 LIG 0.20  C 
BRANCH 15 16
ATOM     16  CB  THR C   4      25.954  18.490  23.342  1.00 16.75 LIG 0.15  C 
ATOM     17  CG2 THR C   4      27.260  17.772  23.663  1.00 16.70 LIG 0.04  C 
BRANCH 16 18
ATOM     18 OG1  THR C   4      24.857  17.575  23.428  1.00 17.36 LIG-0.39  OA
ATOM     19 HG1  THR C   4      24.296  17.752  22.828  1.00 17.36 LIG 0.21  HD
ENDBRANCH 16 18
ENDBRANCH 15 16
BRANCH 15 20
ATOM     20  C   THR C   4      26.813  20.687  24.134  1.00 14.69 LIG 0.24  C 
ATOM     21  N   GLN C   5      27.742  20.747  25.086  1.00 15.36 LIG-0.35  N 
ATOM     22 H    GLN C   5      27.692  20.327  25.834  1.00 15.36 LIG 0.16  HD
ATOM     23 O    THR C   4      26.818  21.418  23.138  1.00 15.54 LIG-0.27  OA
BRANCH 21 24
ATOM     24  CA  GLN C   5      28.943  21.553  24.924  1.00 16.48 LIG 0.18  C 
BRANCH 24 25
ATOM     25  C   GLN C   5      29.954  20.801  24.072  1.00 17.30 LIG 0.24  C 
ATOM     26 O    GLN C   5      30.299  19.650  24.372  1.00 19.53 LIG-0.27  OA
ATOM     27  N   VAL C   6      30.455  21.460  23.032  1.00 16.49 LIG-0.34  N 
ATOM     28 H    VAL C   6      30.218  22.258  22.812  1.00 16.49 LIG 0.16  HD
BRANCH 27 29
ATOM     29  CA  VAL C   6      31.469  20.875  22.159  1.00 18.07 LIG 0.19  C 
BRANCH 29 30
ATOM     30  CB  VAL C   6      30.873  20.438  20.807  1.00 20.19 LIG 0.01  C 
ATOM     31  CG1 VAL C   6      29.815  19.369  21.001  1.00 23.48 LIG 0.01  C 
ATOM     32  CG2 VAL C   6      30.291  21.635  20.067  1.00 21.65 LIG 0.01  C 
ENDBRANCH 29 30
BRANCH 29 33
ATOM     33  C   VAL C   6      32.630  21.835  21.934  1.00 18.86 LIG 0.20  C 
ATOM     34 O    VAL C   6      32.538  23.037  22.246  1.00 20.67 LIG-0.65  OA
ATOM     35 OXT  VAL C   6      33.681  21.418  21.416  1.00 19.38 LIG-0.65  OA
ENDBRANCH 29 33
ENDBRANCH 27 29
ENDBRANCH 24 25
BRANCH 24 36
ATOM     36  CB  GLN C   5      29.566  21.840  26.290  1.00 21.66 LIG 0.04  C 
BRANCH 36 37
ATOM     37  CG  GLN C   5      28.718  22.691  27.220  1.00 28.10 LIG 0.10  C 
BRANCH 37 38
ATOM     38  CD  GLN C   5      29.524  23.279  28.370  1.00 33.44 LIG 0.21  C 
ATOM     39  NE2 GLN C   5      28.857  23.548  29.486  1.00 35.38 LIG-0.37  N 
ATOM     40 21HE GLN C   5      28.013  23.388  29.532  1.00 35.38 LIG 0.16  HD
ATOM     41 22HE GLN C   5      29.269  23.882  30.163  1.00 35.38 LIG 0.16  HD
ATOM     42 OE1  GLN C   5      30.732  23.489  28.250  1.00 34.39 LIG-0.27  OA
ENDBRANCH 37 38
ENDBRANCH 36 37
ENDBRANCH 24 36
ENDBRANCH 21 24
ENDBRANCH 15 20
ENDBRANCH 12 15
ENDBRANCH 5 11
ENDBRANCH 3 5
BRANCH 1 43
ATOM     43  CA  ARG C   2      18.924  18.503  24.109  1.00 18.81 LIG 0.18  C 
BRANCH 43 44
ATOM     44  CB  ARG C   2      18.649  17.856  22.755  1.00 19.04 LIG 0.04  C 
BRANCH 44 45
ATOM     45  CG  ARG C   2      19.915  17.439  22.036  1.00 18.27 LIG 0.02  C 
BRANCH 45 46
ATOM     46  CD  ARG C   2      20.511  16.208  22.688  1.00 20.59 LIG 0.14  C 
BRANCH 46 47
ATOM     47  NE  ARG C   2      19.674  15.035  22.456  1.00 21.96 LIG-0.23  N 
ATOM     48 HE   ARG C   2      19.042  15.101  21.876  1.00 21.96 LIG 0.18  HD
ATOM     49  CZ  ARG C   2      19.826  13.872  23.081  1.00 22.93 LIG 0.67  C 
ATOM     50  NH2 ARG C   2      19.020  12.860  22.801  1.00 24.61 LIG-0.23  N 
ATOM     51  NH1 ARG C   2      20.782  13.723  23.988  1.00 22.65 LIG-0.23  N 
ATOM     52 1HH2 ARG C   2      18.399  12.955  22.214  1.00 24.61 LIG 0.17  HD
ATOM     53 2HH2 ARG C   2      19.118  12.107  23.206  1.00 24.61 LIG 0.17  HD
ATOM     54 1HH1 ARG C   2      21.305  14.380  24.172  1.00 22.65 LIG 0.17  HD
ATOM     55 2HH1 ARG C   2      20.879  12.970  24.392  1.00 22.65 LIG 0.17  HD
ENDBRANCH 46 47
ENDBRANCH 45 46
ENDBRANCH 44 45
ENDBRANCH 43 44
BRANCH 43 56
ATOM     56  N   ARG C   2      17.679  18.997  24.686  1.00 21.07 LIG-0.35  N 
ATOM     57  C   ARG C   1      17.628  19.401  25.953  1.00 27.96 LIG 0.25  C 
ATOM     58 O    ARG C   1      18.591  19.342  26.715  1.00 30.47 LIG-0.27  OA
ATOM     59 H    ARG C   2      17.008  19.001  24.147  1.00 21.07 LIG 0.16  HD
BRANCH 57 60
ATOM     60  CA  ARG C   1      16.297  19.961  26.440  1.00 31.07 LIG 0.27  C 
BRANCH 60 61
ATOM     61  N   ARG C   1      15.880  19.312  27.682  1.00 32.37 LIG-0.07  N 
ATOM     62 H2   ARG C   1      15.787  18.438  27.544  1.00 32.37 LIG 0.28  HD
ATOM     63 H1   ARG C   1      15.102  19.654  27.949  1.00 32.37 LIG 0.28  HD
ATOM     64 H3   ARG C   1      16.495  19.449  28.310  1.00 32.37 LIG 0.28  HD
ENDBRANCH 60 61
BRANCH 60 65
ATOM     65  CB  ARG C   1      16.426  21.474  26.625  1.00 35.21 LIG 0.04  C 
BRANCH 65 66
ATOM     66  CG  ARG C   1      16.940  22.192  25.381  1.00 38.18 LIG 0.02  C 
BRANCH 66 67
ATOM     67  CD  ARG C   1      17.277  23.650  25.655  1.00 40.83 LIG 0.14  C 
BRANCH 67 68
ATOM     68  NE  ARG C   1      18.348  23.785  26.636  1.00 41.61 LIG-0.23  N 
ATOM     69  CZ  ARG C   1      18.926  24.938  26.957  1.00 42.69 LIG 0.67  C 
ATOM     70  NH1 ARG C   1      18.538  26.065  26.370  1.00 43.45 LIG-0.23  N 
ATOM     71  NH2 ARG C   1      19.891  24.965  27.867  1.00 42.77 LIG-0.23  N 
ATOM     72 1HH1 ARG C   1      17.912  26.049  25.781  1.00 43.45 LIG 0.17  HD
ATOM     73 2HH1 ARG C   1      18.913  26.810  26.578  1.00 43.45 LIG 0.17  HD
ATOM     74 1HH2 ARG C   1      20.142  24.237  28.249  1.00 42.77 LIG 0.17  HD
ATOM     75 2HH2 ARG C   1      20.265  25.711  28.075  1.00 42.77 LIG 0.17  HD
ATOM     76 HE   ARG C   1      18.623  23.073  27.032  1.00 41.61 LIG 0.18  HD
ENDBRANCH 67 68
ENDBRANCH 66 67
ENDBRANCH 65 66
ENDBRANCH 60 65
ENDBRANCH 57 60
ENDBRANCH 43 56
ENDBRANCH 1 43
TORSDOF 29
