REMARK  29 active torsions:
REMARK  status: ('A' for Active; 'I' for Inactive)
REMARK    1  A    between atoms: N_1  and  CA_2 
REMARK    2  A    between atoms: CA_2  and  C_3 
REMARK    3  A    between atoms: CA_2  and  CB_5 
REMARK       I    between atoms: C_3  and  N_20 
REMARK    4  A    between atoms: CB_5  and  CG_6 
REMARK    5  A    between atoms: CG_6  and  CD_7 
REMARK    6  A    between atoms: CD_7  and  NE_8 
REMARK       I    between atoms: NE_8  and  CZ_9 
REMARK       I    between atoms: CZ_9  and  NH1_10 
REMARK       I    between atoms: CZ_9  and  NH2_11 
REMARK    7  A    between atoms: N_20  and  CA_21 
REMARK    8  A    between atoms: CA_21  and  CB_24 
REMARK    9  A    between atoms: CA_21  and  C_22 
REMARK       I    between atoms: C_22  and  N_37 
REMARK   10  A    between atoms: CB_24  and  CG_25 
REMARK   11  A    between atoms: CG_25  and  CD_26 
REMARK   12  A    between atoms: CD_26  and  NE_27 
REMARK       I    between atoms: NE_27  and  CZ_28 
REMARK       I    between atoms: CZ_28  and  NH1_29 
REMARK   13  A    between atoms: N_37  and  CA_38 
REMARK   14  A    between atoms: CA_38  and  CB_41 
REMARK   15  A    between atoms: CA_38  and  C_39 
REMARK       I    between atoms: C_39  and  N_47 
REMARK   16  A    between atoms: CB_41  and  CG_42 
REMARK   17  A    between atoms: CG_42  and  CD_43 
REMARK   18  A    between atoms: N_47  and  CA_48 
REMARK   19  A    between atoms: CA_48  and  CB_51 
REMARK   20  A    between atoms: CA_48  and  C_49 
REMARK       I    between atoms: C_49  and  N_56 
REMARK   21  A    between atoms: CB_51  and  OG1_52 
REMARK   22  A    between atoms: N_56  and  CA_57 
REMARK   23  A    between atoms: CA_57  and  C_58 
REMARK   24  A    between atoms: CA_57  and  CB_60 
REMARK       I    between atoms: C_58  and  N_68 
REMARK   25  A    between atoms: CB_60  and  CG_61 
REMARK   26  A    between atoms: CG_61  and  CD_62 
REMARK       I    between atoms: CD_62  and  NE2_64 
REMARK   27  A    between atoms: N_68  and  CA_69 
REMARK   28  A    between atoms: CA_69  and  CB_72 
REMARK   29  A    between atoms: CA_69  and  C_70 
ROOT
ATOM      1  C   ARG C   2      19.930  19.618  24.013  1.00 17.64     0.241 C 
ATOM      2  O   ARG C   2      19.767  20.497  23.161  1.00 18.48    -0.271 OA
ATOM      3  N   GLU C   3      20.998  19.577  24.802  1.00 16.82    -0.346 N 
ATOM      4  H   GLU C   3      21.132  18.978  25.405  1.00 16.82     0.163 HD
ENDROOT
BRANCH   3   5
ATOM      5  CA  GLU C   3      22.053  20.580  24.696  1.00 17.00     0.177 C 
BRANCH   5   6
ATOM      6  CB  GLU C   3      21.751  21.778  25.610  1.00 16.91     0.045 C 
BRANCH   6   7
ATOM      7  CG  GLU C   3      22.783  22.900  25.492  1.00 19.77     0.116 C 
BRANCH   7   8
ATOM      8  CD  GLU C   3      22.495  24.068  26.417  1.00 23.53     0.172 C 
ATOM      9  OE2 GLU C   3      22.750  25.221  26.019  1.00 22.35    -0.648 OA
ATOM     10  OE1 GLU C   3      22.016  23.829  27.541  1.00 28.80    -0.648 OA
ENDBRANCH   7   8
ENDBRANCH   6   7
ENDBRANCH   5   6
BRANCH   5  11
ATOM     11  C   GLU C   3      23.372  19.936  25.096  1.00 16.25     0.241 C 
ATOM     12  N   THR C   4      24.425  20.157  24.304  1.00 14.90    -0.344 N 
ATOM     13  H   THR C   4      24.407  20.670  23.614  1.00 14.90     0.163 HD
ATOM     14  O   GLU C   3      23.427  19.239  26.112  1.00 19.18    -0.271 OA
BRANCH  12  15
ATOM     15  CA  THR C   4      25.717  19.530  24.555  1.00 14.85     0.205 C 
BRANCH  15  16
ATOM     16  CB  THR C   4      25.995  18.437  23.520  1.00 16.75     0.146 C 
ATOM     17  CG2 THR C   4      27.237  17.639  23.901  1.00 16.70     0.042 C 
BRANCH  16  18
ATOM     18  OG1 THR C   4      24.860  17.569  23.440  1.00 17.36    -0.393 OA
ATOM     19  HG1 THR C   4      24.363  17.815  22.809  1.00 17.36     0.210 HD
ENDBRANCH  16  18
ENDBRANCH  15  16
BRANCH  15  20
ATOM     20  C   THR C   4      26.827  20.569  24.497  1.00 14.69     0.243 C 
ATOM     21  N   GLN C   5      27.726  20.535  25.478  1.00 15.36    -0.346 N 
ATOM     22  H   GLN C   5      27.649  20.052  26.185  1.00 15.36     0.163 HD
ATOM     23  O   THR C   4      26.871  21.384  23.569  1.00 15.54    -0.271 OA
BRANCH  21  24
ATOM     24  CA  GLN C   5      28.940  21.336  25.424  1.00 16.48     0.177 C 
BRANCH  24  25
ATOM     25  C   GLN C   5      29.999  20.608  24.611  1.00 17.30     0.241 C 
ATOM     26  O   GLN C   5      30.302  19.437  24.876  1.00 19.53    -0.271 OA
ATOM     27  N   VAL C   6      30.587  21.309  23.646  1.00 16.49    -0.344 N 
ATOM     28  H   VAL C   6      30.380  22.121  23.451  1.00 16.49     0.163 HD
BRANCH  27  29
ATOM     29  CA  VAL C   6      31.654  20.748  22.821  1.00 18.07     0.189 C 
BRANCH  29  30
ATOM     30  CB  VAL C   6      31.147  20.363  21.418  1.00 20.19     0.010 C 
ATOM     31  CG1 VAL C   6      30.068  19.301  21.504  1.00 23.48     0.012 C 
ATOM     32  CG2 VAL C   6      30.627  21.591  20.682  1.00 21.65     0.012 C 
ENDBRANCH  29  30
BRANCH  29  33
ATOM     33  C   VAL C   6      32.832  21.707  22.708  1.00 18.86     0.197 C 
ATOM     34  O   VAL C   6      32.742  22.883  23.109  1.00 20.67    -0.646 OA
ATOM     35  OXT VAL C   6      33.894  21.318  22.192  1.00 19.38    -0.646 OA
ENDBRANCH  29  33
ENDBRANCH  27  29
ENDBRANCH  24  25
BRANCH  24  36
ATOM     36  CB  GLN C   5      29.475  21.568  26.837  1.00 21.66     0.044 C 
BRANCH  36  37
ATOM     37  CG  GLN C   5      28.562  22.368  27.749  1.00 28.10     0.105 C 
BRANCH  37  38
ATOM     38  CD  GLN C   5      29.277  22.866  28.998  1.00 33.44     0.215 C 
ATOM     39  NE2 GLN C   5      28.523  23.067  30.073  1.00 35.38    -0.370 N 
ATOM     40 1HE2 GLN C   5      27.677  22.915  30.040  1.00 35.38     0.159 HD
ATOM     41 2HE2 GLN C   5      28.881  23.349  30.802  1.00 35.38     0.159 HD
ATOM     42  OE1 GLN C   5      30.492  23.068  28.991  1.00 34.39    -0.274 OA
ENDBRANCH  37  38
ENDBRANCH  36  37
ENDBRANCH  24  36
ENDBRANCH  21  24
ENDBRANCH  15  20
ENDBRANCH  12  15
ENDBRANCH   5  11
ENDBRANCH   3   5
BRANCH   1  43
ATOM     43  CA  ARG C   2      18.909  18.496  24.179  1.00 18.81     0.176 C 
BRANCH  43  44
ATOM     44  CB  ARG C   2      18.794  17.710  22.876  1.00 19.04     0.036 C 
BRANCH  44  45
ATOM     45  CG  ARG C   2      20.133  17.216  22.370  1.00 18.27     0.023 C 
BRANCH  45  46
ATOM     46  CD  ARG C   2      20.639  16.082  23.238  1.00 20.59     0.138 C 
BRANCH  46  47
ATOM     47  NE  ARG C   2      19.818  14.887  23.070  1.00 21.96    -0.227 N 
ATOM     48  HE  ARG C   2      19.249  14.878  22.425  1.00 21.96     0.177 HD
ATOM     49  CZ  ARG C   2      19.892  13.812  23.849  1.00 22.93     0.665 C 
ATOM     50  NH2 ARG C   2      19.108  12.771  23.617  1.00 24.61    -0.235 N 
ATOM     51  NH1 ARG C   2      20.749  13.781  24.860  1.00 22.65    -0.235 N 
ATOM     52 HH21 ARG C   2      18.551  12.790  22.962  1.00 24.61     0.174 HD
ATOM     53 HH22 ARG C   2      19.156  12.076  24.121  1.00 24.61     0.174 HD
ATOM     54 HH11 ARG C   2      21.258  14.457  25.013  1.00 22.65     0.174 HD
ATOM     55 HH12 ARG C   2      20.796  13.085  25.363  1.00 22.65     0.174 HD
ENDBRANCH  46  47
ENDBRANCH  45  46
ENDBRANCH  44  45
ENDBRANCH  43  44
BRANCH  43  56
ATOM     56  N   ARG C   2      17.610  19.052  24.540  1.00 21.07    -0.346 N 
ATOM     57  C   ARG C   1      17.423  19.638  25.720  1.00 27.96     0.248 C 
ATOM     58  O   ARG C   1      18.299  19.705  26.581  1.00 30.47    -0.271 OA
ATOM     59  H   ARG C   2      17.001  18.967  23.938  1.00 21.07     0.163 HD
BRANCH  57  60
ATOM     60  CA  ARG C   1      16.049  20.245  25.974  1.00 31.07     0.274 C 
BRANCH  60  61
ATOM     61  N   ARG C   1      15.529  19.836  27.278  1.00 32.37    -0.067 N 
ATOM     62  H2  ARG C   1      15.459  18.949  27.305  1.00 32.37     0.275 HD
ATOM     63  H1  ARG C   1      14.727  20.201  27.406  1.00 32.37     0.275 HD
ATOM     64  H3  ARG C   1      16.084  20.109  27.918  1.00 32.37     0.275 HD
ENDBRANCH  60  61
BRANCH  60  65
ATOM     65  CB  ARG C   1      16.145  21.768  25.872  1.00 35.21     0.044 C 
BRANCH  65  66
ATOM     66  CG  ARG C   1      16.658  22.250  24.518  1.00 38.18     0.023 C 
BRANCH  66  67
ATOM     67  CD  ARG C   1      16.927  23.747  24.504  1.00 40.83     0.138 C 
BRANCH  67  68
ATOM     68  NE  ARG C   1      17.991  24.117  25.431  1.00 41.61    -0.227 N 
ATOM     69  CZ  ARG C   1      18.517  25.335  25.517  1.00 42.69     0.665 C 
ATOM     70  NH1 ARG C   1      18.079  26.308  24.726  1.00 43.45    -0.235 N 
ATOM     71  NH2 ARG C   1      19.480  25.580  26.396  1.00 42.77    -0.235 N 
ATOM     72 HH11 ARG C   1      17.454  26.151  24.157  1.00 43.45     0.174 HD
ATOM     73 HH12 ARG C   1      18.421  27.095  24.783  1.00 43.45     0.174 HD
ATOM     74 HH21 ARG C   1      19.764  24.951  26.910  1.00 42.77     0.174 HD
ATOM     75 HH22 ARG C   1      19.821  26.368  26.452  1.00 42.77     0.174 HD
ATOM     76  HE  ARG C   1      18.298  23.508  25.955  1.00 41.61     0.177 HD
ENDBRANCH  67  68
ENDBRANCH  66  67
ENDBRANCH  65  66
ENDBRANCH  60  65
ENDBRANCH  57  60
ENDBRANCH  43  56
ENDBRANCH   1  43
TORSDOF 29
