REMARK  26 active torsions:
REMARK  status: ('A' for Active; 'I' for Inactive)
REMARK    1  A    between atoms: N_1  and  CA_2 
REMARK    2  A    between atoms: CA_2  and  C_3 
REMARK    3  A    between atoms: CA_2  and  CB_5 
REMARK       I    between atoms: C_3  and  N_11 
REMARK    4  A    between atoms: CB_5  and  OG_6 
REMARK    5  A    between atoms: N_11  and  CA_12 
REMARK    6  A    between atoms: CA_12  and  CB_15 
REMARK    7  A    between atoms: CA_12  and  C_13 
REMARK       I    between atoms: C_13  and  N_20 
REMARK    8  A    between atoms: CB_15  and  CG_16 
REMARK    9  A    between atoms: N_20  and  CA_21 
REMARK   10  A    between atoms: CA_21  and  C_22 
REMARK   11  A    between atoms: CA_21  and  CB_24 
REMARK       I    between atoms: C_22  and  N_30 
REMARK   12  A    between atoms: CB_24  and  CG_25 
REMARK   13  A    between atoms: CG_25  and  CD_26 
REMARK   14  A    between atoms: N_30  and  CA_31 
REMARK   15  A    between atoms: CA_31  and  CB_34 
REMARK   16  A    between atoms: CA_31  and  C_32 
REMARK       I    between atoms: C_32  and  N_38 
REMARK   17  A    between atoms: CB_34  and  OG_35 
REMARK   18  A    between atoms: N_38  and  CA_39 
REMARK   19  A    between atoms: CA_39  and  C_40 
REMARK   20  A    between atoms: CA_39  and  CB_42 
REMARK       I    between atoms: C_40  and  N_51 
REMARK   21  A    between atoms: CB_42  and  CG_43 
REMARK   22  A    between atoms: CG_43  and  CD_44 
REMARK   23  A    between atoms: CD_44  and  CE_45 
REMARK   24  A    between atoms: CE_45  and  NZ_46 
REMARK   25  A    between atoms: N_51  and  CA_52 
REMARK   26  A    between atoms: CA_52  and  C_53 
ROOT
ATOM      1  C   GLU C   3      43.935  30.683  21.627  1.00 22.71     0.241 C 
ATOM      2  O   GLU C   3      43.477  31.652  22.233  1.00 20.88    -0.271 OA
ATOM      3  N   SER C   4      45.178  30.238  21.790  1.00 24.79    -0.344 N 
ATOM      4  H   SER C   4      45.479  29.517  21.430  1.00 24.79     0.163 HD
ENDROOT
BRANCH   1   5
ATOM      5  CA  GLU C   3      43.085  29.949  20.609  1.00 22.43     0.177 C 
BRANCH   5   6
ATOM      6  N   GLU C   3      41.723  29.765  21.096  1.00 20.46    -0.346 N 
ATOM      7  C   ASP C   2      41.280  28.647  21.659  1.00 20.25     0.241 C 
ATOM      8  O   ASP C   2      41.999  27.686  21.934  1.00 19.04    -0.271 OA
ATOM      9  H   GLU C   3      41.226  30.457  20.983  1.00 20.46     0.163 HD
BRANCH   7  10
ATOM     10  CA  ASP C   2      39.787  28.628  21.997  1.00 20.64     0.186 C 
BRANCH  10  11
ATOM     11  N   ASP C   2      39.131  27.419  21.492  1.00 19.34    -0.345 N 
ATOM     12  C   SER C   1      39.018  27.165  20.188  1.00 18.84     0.251 C 
ATOM     13  O   SER C   1      39.323  27.968  19.316  1.00 16.35    -0.271 OA
ATOM     14  H   ASP C   2      38.831  26.898  22.107  1.00 19.34     0.163 HD
BRANCH  12  15
ATOM     15  CA  SER C   1      38.478  25.785  19.807  1.00 19.55     0.297 C 
BRANCH  15  16
ATOM     16  N   SER C   1      37.517  25.874  18.679  1.00 19.33    -0.064 N 
ATOM     17  H1  SER C   1      37.330  25.056  18.383  1.00 19.33     0.275 HD
ATOM     18  H2  SER C   1      36.768  26.267  18.957  1.00 19.33     0.275 HD
ATOM     19  H3  SER C   1      37.876  26.353  18.020  1.00 19.33     0.275 HD
ENDBRANCH  15  16
BRANCH  15  20
ATOM     20  CB  SER C   1      39.639  24.864  19.425  1.00 20.63     0.206 C 
BRANCH  20  21
ATOM     21  OG  SER C   1      40.197  25.246  18.180  1.00 22.73    -0.398 OA
ATOM     22  HG  SER C   1      40.832  24.731  17.988  1.00 22.73     0.209 HD
ENDBRANCH  20  21
ENDBRANCH  15  20
ENDBRANCH  12  15
ENDBRANCH  10  11
BRANCH  10  23
ATOM     23  CB  ASP C   2      39.637  28.757  23.516  1.00 22.15     0.147 C 
BRANCH  23  24
ATOM     24  CG  ASP C   2      38.302  29.309  23.923  1.00 25.02     0.175 C 
ATOM     25  OD2 ASP C   2      37.562  28.591  24.640  1.00 28.35    -0.648 OA
ATOM     26  OD1 ASP C   2      38.016  30.480  23.566  1.00 26.75    -0.648 OA
ENDBRANCH  23  24
ENDBRANCH  10  23
ENDBRANCH   7  10
ENDBRANCH   5   6
BRANCH   5  27
ATOM     27  CB  GLU C   3      43.072  30.808  19.341  1.00 23.87     0.045 C 
BRANCH  27  28
ATOM     28  CG  GLU C   3      42.222  30.290  18.198  1.00 26.88     0.116 C 
BRANCH  28  29
ATOM     29  CD  GLU C   3      42.741  28.988  17.635  1.00 28.35     0.172 C 
ATOM     30  OE2 GLU C   3      42.502  27.945  18.265  1.00 30.85    -0.648 OA
ATOM     31  OE1 GLU C   3      43.399  29.008  16.576  1.00 32.46    -0.648 OA
ENDBRANCH  28  29
ENDBRANCH  27  28
ENDBRANCH   5  27
ENDBRANCH   1   5
BRANCH   3  32
ATOM     32  CA  SER C   4      46.149  30.947  22.606  1.00 26.83     0.200 C 
BRANCH  32  33
ATOM     33  CB  SER C   4      47.138  29.987  23.272  1.00 27.54     0.199 C 
BRANCH  33  34
ATOM     34  OG  SER C   4      47.678  29.069  22.337  1.00 29.42    -0.398 OA
ATOM     35  HG  SER C   4      48.217  28.556  22.727  1.00 29.42     0.209 HD
ENDBRANCH  33  34
ENDBRANCH  32  33
BRANCH  32  36
ATOM     36  C   SER C   4      46.901  31.918  21.722  1.00 29.03     0.243 C 
ATOM     37  O   SER C   4      47.179  31.637  20.554  1.00 28.27    -0.271 OA
ATOM     38  N   LYS C   5      47.232  33.063  22.292  1.00 32.23    -0.346 N 
ATOM     39  H   LYS C   5      46.948  33.316  23.063  1.00 32.23     0.163 HD
BRANCH  38  40
ATOM     40  CA  LYS C   5      48.117  33.998  21.647  1.00 36.96     0.176 C 
BRANCH  40  41
ATOM     41  C   LYS C   5      49.539  33.533  21.931  1.00 40.14     0.240 C 
ATOM     42  O   LYS C   5      49.989  33.549  23.087  1.00 43.61    -0.271 OA
ATOM     43  N   GLY C   6      50.229  33.098  20.878  1.00 41.15    -0.352 N 
ATOM     44  H   GLY C   6      49.890  32.992  20.095  1.00 41.15     0.162 HD
BRANCH  43  45
ATOM     45  CA  GLY C   6      51.645  32.759  20.968  1.00 42.92     0.209 C 
BRANCH  45  46
ATOM     46  C   GLY C   6      52.487  34.009  21.130  1.00 41.89     0.213 C 
ATOM     47  O   GLY C   6      53.684  33.991  20.867  1.00 45.47    -0.287 OA
ENDBRANCH  45  46
ENDBRANCH  43  45
ENDBRANCH  40  41
BRANCH  40  48
ATOM     48  CB  LYS C   5      47.886  35.417  22.168  1.00 37.76     0.035 C 
BRANCH  48  49
ATOM     49  CG  LYS C   5      48.846  36.426  21.569  1.00 39.35     0.004 C 
BRANCH  49  50
ATOM     50  CD  LYS C   5      48.144  37.562  20.861  1.00 40.12     0.027 C 
BRANCH  50  51
ATOM     51  CE  LYS C   5      49.160  38.343  20.048  1.00 40.78     0.229 C 
BRANCH  51  52
ATOM     52  NZ  LYS C   5      48.495  39.139  18.993  1.00 41.17    -0.079 N 
ATOM     53  HZ3 LYS C   5      48.112  39.855  19.358  1.00 41.17     0.274 HD
ATOM     54  HZ2 LYS C   5      47.874  38.643  18.593  1.00 41.17     0.274 HD
ATOM     55  HZ1 LYS C   5      49.098  39.399  18.392  1.00 41.17     0.274 HD
ENDBRANCH  51  52
ENDBRANCH  50  51
ENDBRANCH  49  50
ENDBRANCH  48  49
ENDBRANCH  40  48
ENDBRANCH  38  40
ENDBRANCH  32  36
ENDBRANCH   3  32
TORSDOF 26
