REMARK  25 active torsions:
REMARK  status: ('A' for Active; 'I' for Inactive)
REMARK    1  A    between atoms: CA_2  and  C_3 
REMARK       I    between atoms: C_3  and  N_10 
REMARK    2  A    between atoms: N_10  and  CA_11 
REMARK    3  A    between atoms: CA_11  and  C_12 
REMARK    4  A    between atoms: CA_11  and  CB_14 
REMARK       I    between atoms: C_12  and  N_19 
REMARK    5  A    between atoms: CB_14  and  OG1_15 
REMARK    6  A    between atoms: N_19  and  CA_20 
REMARK    7  A    between atoms: CA_20  and  C_21 
REMARK    8  A    between atoms: CA_20  and  CB_23 
REMARK       I    between atoms: C_21  and  N_27 
REMARK    9  A    between atoms: N_27  and  CA_28 
REMARK   10  A    between atoms: CA_28  and  C_29 
REMARK   11  A    between atoms: CA_28  and  CB_31 
REMARK       I    between atoms: C_29  and  N_37 
REMARK   12  A    between atoms: CB_31  and  CG_32 
REMARK   13  A    between atoms: CG_32  and  CD_33 
REMARK   14  A    between atoms: N_37  and  CA_38 
REMARK   15  A    between atoms: CA_38  and  CB_41 
REMARK   16  A    between atoms: CA_38  and  C_39 
REMARK       I    between atoms: C_39  and  N_47 
REMARK   17  A    between atoms: CB_41  and  CG_42 
REMARK   18  A    between atoms: CG_42  and  CD_43 
REMARK   19  A    between atoms: N_47  and  CA_48 
REMARK   20  A    between atoms: CA_48  and  CB_51 
REMARK   21  A    between atoms: CA_48  and  C_49 
REMARK       I    between atoms: C_49  and  N_55 
REMARK   22  A    between atoms: N_55  and  CA_56 
REMARK   23  A    between atoms: CA_56  and  C_57 
REMARK   24  A    between atoms: CA_56  and  CB_59 
REMARK   25  A    between atoms: CB_59  and  CG_60 
ROOT
ATOM      1  CA  GLU C   4       5.370   6.557 -34.105  0.93 60.85     0.177 C 
ENDROOT
BRANCH   1   2
ATOM      2  N   GLU C   4       6.818   6.676 -34.199  0.93 65.59    -0.346 N 
ATOM      3  C   VAL C   3       7.627   5.710 -33.771  0.93 72.20     0.241 C 
ATOM      4  O   VAL C   3       7.212   4.604 -33.414  0.93 77.28    -0.271 OA
ATOM      5  H   GLU C   4       7.092   7.412 -34.549  0.93 65.59     0.163 HD
BRANCH   3   6
ATOM      6  CA  VAL C   3       9.115   6.040 -33.734  0.93 71.20     0.180 C 
BRANCH   6   7
ATOM      7  N   VAL C   3       9.443   6.298 -32.337  0.93 70.32    -0.346 N 
ATOM      8  H   VAL C   3       9.535   5.585 -31.865  0.93 70.32     0.163 HD
ATOM      9  C   THR C   2       9.586   7.522 -31.841  0.93 64.64     0.243 C 
ATOM     10  O   THR C   2       9.581   8.540 -32.543  0.93 54.59    -0.271 OA
BRANCH   9  11
ATOM     11  CA  THR C   2       9.797   7.612 -30.335  0.93 58.18     0.205 C 
BRANCH  11  12
ATOM     12  CB  THR C   2       8.615   8.333 -29.677  0.93 60.99     0.146 C 
ATOM     13  CG2 THR C   2       7.294   7.778 -30.194  0.93 48.18     0.042 C 
BRANCH  12  14
ATOM     14  OG1 THR C   2       8.668   8.168 -28.253  0.93 63.62    -0.393 OA
ATOM     15  HG1 THR C   2       8.018   8.567 -27.900  0.93 63.62     0.210 HD
ENDBRANCH  12  14
ENDBRANCH  11  12
BRANCH  11  16
ATOM     16  N   THR C   2      11.056   8.291 -30.048  0.93 64.91    -0.344 N 
ATOM     17  H   THR C   2      10.985   9.008 -29.578  0.93 64.91     0.163 HD
ATOM     18  C   PRO C   1      12.206   7.793 -30.506  0.93 70.66     0.249 C 
ATOM     19  O   PRO C   1      12.273   6.766 -31.183  0.93 77.74    -0.271 OA
BRANCH  18  20
ATOM     20  CA  PRO C   1      13.498   8.531 -30.165  0.93 66.63     0.277 C 
ATOM     21  N   PRO C   1      14.470   7.658 -29.510  0.93 58.96    -0.062 N 
ATOM     22  CD  PRO C   1      15.265   6.915 -30.500  0.93 58.89     0.233 C 
ATOM     23  H2  PRO C   1      14.061   7.105 -28.994  0.93 58.96     0.278 HD
ATOM     24  H3  PRO C   1      14.992   8.127 -29.013  0.93 58.96     0.278 HD
ATOM     25  CG  PRO C   1      15.161   7.776 -31.738  0.93 53.33     0.030 C 
ATOM     26  CB  PRO C   1      14.232   8.951 -31.433  0.93 65.50     0.044 C 
ENDBRANCH  18  20
ENDBRANCH  11  16
ENDBRANCH   9  11
ENDBRANCH   6   7
BRANCH   6  27
ATOM     27  CB  VAL C   3       9.969   4.915 -34.322  0.93 62.88     0.009 C 
ATOM     28  CG2 VAL C   3      11.451   5.246 -34.177  0.93 59.89     0.012 C 
ATOM     29  CG1 VAL C   3       9.607   4.690 -35.777  0.93 57.35     0.012 C 
ENDBRANCH   6  27
ENDBRANCH   3   6
ENDBRANCH   1   2
BRANCH   1  30
ATOM     30  C   GLU C   4       4.803   5.719 -35.247  0.93 53.82     0.241 C 
ATOM     31  N   GLU C   5       3.811   4.894 -34.918  0.93 55.67    -0.346 N 
ATOM     32  H   GLU C   5       3.535   4.779 -34.112  0.93 55.67     0.163 HD
ATOM     33  O   GLU C   4       5.257   5.807 -36.392  0.93 43.39    -0.271 OA
BRANCH  31  34
ATOM     34  CA  GLU C   5       3.097   4.103 -35.910  0.93 64.68     0.177 C 
BRANCH  34  35
ATOM     35  CB  GLU C   5       2.165   3.106 -35.215  0.93 77.75     0.045 C 
BRANCH  35  36
ATOM     36  CG  GLU C   5       1.498   2.091 -36.138  0.93 85.88     0.116 C 
BRANCH  36  37
ATOM     37  CD  GLU C   5       0.171   1.589 -35.593  0.93 94.62     0.172 C 
ATOM     38  OE1 GLU C   5      -0.633   2.422 -35.118  0.93 95.50    -0.648 OA
ATOM     39  OE2 GLU C   5      -0.068   0.362 -35.636  0.93 99.20    -0.648 OA
ENDBRANCH  36  37
ENDBRANCH  35  36
ENDBRANCH  34  35
BRANCH  34  40
ATOM     40  C   GLU C   5       2.288   5.001 -36.843  0.93 58.74     0.241 C 
ATOM     41  N   VAL C   6       2.107   4.529 -38.078  0.93 54.99    -0.346 N 
ATOM     42  H   VAL C   6       2.422   3.775 -38.345  0.93 54.99     0.163 HD
ATOM     43  O   GLU C   5       1.827   6.081 -36.462  0.93 57.59    -0.271 OA
BRANCH  41  44
ATOM     44  CA  VAL C   6       1.354   5.247 -39.103  0.93 52.37     0.180 C 
BRANCH  44  45
ATOM     45  CB  VAL C   6       1.577   4.608 -40.483  0.93 51.22     0.009 C 
ATOM     46  CG2 VAL C   6       1.264   3.123 -40.424  0.93 39.22     0.012 C 
ATOM     47  CG1 VAL C   6       3.006   4.846 -40.944  0.93 48.30     0.012 C 
ENDBRANCH  44  45
BRANCH  44  48
ATOM     48  C   VAL C   6      -0.131   5.279 -38.755  0.93 49.00     0.241 C 
ATOM     49  O   VAL C   6      -0.593   4.529 -37.888  0.93 48.27    -0.271 OA
ATOM     50  N   ASP C   7      -0.891   6.131 -39.443  0.93 47.73    -0.344 N 
ATOM     51  H   ASP C   7      -0.602   6.617 -40.091  0.93 47.73     0.163 HD
BRANCH  50  52
ATOM     52  CA  ASP C   7      -2.312   6.308 -39.140  0.93 61.81     0.195 C 
BRANCH  52  53
ATOM     53  C   ASP C   7      -3.224   6.028 -40.341  0.93 59.11     0.197 C 
ATOM     54  O   ASP C   7      -4.451   6.100 -40.232  0.93 61.68    -0.646 OA
ATOM     55  OXT ASP C   7      -2.777   5.725 -41.449  0.93 52.03    -0.646 OA
ENDBRANCH  52  53
BRANCH  52  56
ATOM     56  CB  ASP C   7      -2.563   7.727 -38.616  0.93 71.66     0.149 C 
BRANCH  56  57
ATOM     57  CG  ASP C   7      -1.680   8.075 -37.426  0.93 79.99     0.175 C 
ATOM     58  OD2 ASP C   7      -1.446   7.188 -36.576  0.93 82.35    -0.648 OA
ATOM     59  OD1 ASP C   7      -1.217   9.233 -37.343  0.93 83.64    -0.648 OA
ENDBRANCH  56  57
ENDBRANCH  52  56
ENDBRANCH  50  52
ENDBRANCH  44  48
ENDBRANCH  41  44
ENDBRANCH  34  40
ENDBRANCH  31  34
ENDBRANCH   1  30
BRANCH   1  60
ATOM     60  CB  GLU C   4       4.726   7.948 -34.093  0.93 65.31     0.045 C 
BRANCH  60  61
ATOM     61  CG  GLU C   4       4.793   8.663 -32.734  0.93 74.64     0.116 C 
BRANCH  61  62
ATOM     62  CD  GLU C   4       5.628   9.943 -32.751  0.93 82.62     0.172 C 
ATOM     63  OE1 GLU C   4       6.170  10.303 -33.823  0.93 83.84    -0.648 OA
ATOM     64  OE2 GLU C   4       5.742  10.591 -31.683  0.93 81.28    -0.648 OA
ENDBRANCH  61  62
ENDBRANCH  60  61
ENDBRANCH   1  60
TORSDOF 25
