USER: ADFR SOLUTION from run 0
USER: SCORE 13.671025 LL:  -4.213 LR: -11.486 RR:   0.000 FEB:  -4.029
USER: RMSD 1.089352
USER: STATUS Locally minimized using BFGS
USER: GENES 27
USER: genes 0 Translation |==|  0.49644 0.55771 0.52154
USER: genes 1 Rotation |==|  0.53338 0.49957 0.52604 0.99820
USER: genes 2 Torsion [C]-CA--N-[C] |==|  0.77429
USER: genes 3 Torsion [N]-C--CA-[N] |==|  0.27622
USER: genes 4 Torsion [C]-CA--N-[C] |==|  0.75569
USER: genes 5 Torsion [N]-C--CA-[N] |==|  0.36537
USER: genes 6 Torsion [C]-CA--CB-[CG2] |==|  0.12898
USER: genes 7 Torsion [CA]-CB--OG1-[HG1] |==|  0.49760
USER: genes 8 Torsion [C]-CA--N-[C] |==|  0.85216
USER: genes 9 Torsion [N]-C--CA-[N] |==|  0.36026
USER: genes 10 Torsion [C]-CA--CB-[CG2] |==|  0.52381
USER: genes 11 Torsion [N]-CA--C-[N] |==|  0.39830
USER: genes 12 Torsion [C]-N--CA-[CB] |==|  0.47639
USER: genes 13 Torsion [N]-CA--CB-[CG] |==|  0.52336
USER: genes 14 Torsion [CA]-CB--CG-[CD] |==|  0.56976
USER: genes 15 Torsion [CB]-CG--CD-[OE1] |==|  0.12285
USER: genes 16 Torsion [N]-CA--C-[N] |==|  0.43472
USER: genes 17 Torsion [C]-N--CA-[CB] |==|  0.46667
USER: genes 18 Torsion [N]-CA--CB-[CG2] |==|  0.14656
USER: genes 19 Torsion [N]-CA--C-[N] |==|  0.46754
USER: genes 20 Torsion [C]-N--CA-[C] |==|  0.67510
USER: genes 21 Torsion [N]-CA--C-[O] |==|  0.50811
USER: genes 22 Torsion [N]-CA--CB-[CG] |==|  0.84389
USER: genes 23 Torsion [CA]-CB--CG-[OD2] |==|  0.89957
USER: genes 24 Torsion [N]-CA--CB-[CG] |==|  0.77666
USER: genes 25 Torsion [CA]-CB--CG-[CD] |==|  0.33923
USER: genes 26 Torsion [CB]-CG--CD-[OE1] |==|  0.99215
ROOT
ATOM      1  CA  GLU C   4       5.308   6.558 -34.206  0.93 60.85 LIG 0.18  C 
ENDROOT
BRANCH 1 2
ATOM      2  N   GLU C   4       6.735   6.838 -34.270  0.93 65.59 LIG-0.35  N 
ATOM      3  C   VAL C   3       7.643   5.914 -33.963  0.93 72.20 LIG 0.24  C 
ATOM      4 O    VAL C   3       7.347   4.735 -33.754  0.93 77.28 LIG-0.27  OA
ATOM      5 H    GLU C   4       6.930   7.637 -34.521  0.93 65.59 LIG 0.16  HD
BRANCH 3 6
ATOM      6  CA  VAL C   3       9.088   6.390 -33.870  0.93 71.20 LIG 0.18  C 
BRANCH 6 7
ATOM      7  N   VAL C   3       9.368   6.578 -32.451  0.93 70.32 LIG-0.35  N 
ATOM      8 H    VAL C   3       9.702   5.885 -32.069  0.93 70.32 LIG 0.16  HD
ATOM      9  C   THR C   2       9.127   7.717 -31.811  0.93 64.64 LIG 0.24  C 
ATOM     10 O    THR C   2       8.767   8.752 -32.385  0.93 54.59 LIG-0.27  OA
BRANCH 9 11
ATOM     11  CA  THR C   2       9.354   7.698 -30.305  0.93 58.18 LIG 0.20  C 
BRANCH 11 12
ATOM     12  CB  THR C   2       8.010   7.672 -29.567  0.93 60.99 LIG 0.15  C 
ATOM     13  CG2 THR C   2       7.079   6.638 -30.186  0.93 48.18 LIG 0.04  C 
BRANCH 12 14
ATOM     14 OG1  THR C   2       8.213   7.352 -28.184  0.93 63.62 LIG-0.39  OA
ATOM     15 HG1  THR C   2       7.474   7.352 -27.784  0.93 63.62 LIG 0.21  HD
ENDBRANCH 12 14
ENDBRANCH 11 12
BRANCH 11 16
ATOM     16  N   THR C   2      10.153   8.851 -29.907  0.93 64.91 LIG-0.34  N 
ATOM     17 H    THR C   2       9.813   9.332 -29.280  0.93 64.91 LIG 0.16  HD
ATOM     18  C   PRO C   1      11.321   9.096 -30.504  0.93 70.66 LIG 0.25  C 
ATOM     19 O    PRO C   1      11.778   8.390 -31.405  0.93 77.74 LIG-0.27  OA
BRANCH 18 20
ATOM     20  CA  PRO C   1      12.128  10.306 -30.041  0.93 66.63 LIG 0.28  C 
ATOM     21  N   PRO C   1      13.517   9.958 -29.750  0.93 58.96 LIG-0.06  N 
ATOM     22  CD  PRO C   1      14.338   9.994 -30.971  0.93 58.89 LIG 0.23  C 
ATOM     23 H2   PRO C   1      13.552   9.172 -29.402  0.93 58.96 LIG 0.28  HD
ATOM     24 H3   PRO C   1      13.838  10.505 -29.170  0.93 58.96 LIG 0.28  HD
ATOM     25  CG  PRO C   1      13.563  10.923 -31.876  0.93 53.33 LIG 0.03  C 
ATOM     26  CB  PRO C   1      12.271  11.325 -31.166  0.93 65.50 LIG 0.04  C 
ENDBRANCH 18 20
ENDBRANCH 11 16
ENDBRANCH 9 11
ENDBRANCH 6 7
BRANCH 6 27
ATOM     27  CB  VAL C   3      10.062   5.402 -34.517  0.93 62.88 LIG 0.01  C 
ATOM     28  CG2 VAL C   3      11.501   5.807 -34.218  0.93 59.89 LIG 0.01  C 
ATOM     29  CG1 VAL C   3       9.820   5.334 -36.012  0.93 57.35 LIG 0.01  C 
ENDBRANCH 6 27
ENDBRANCH 3 6
ENDBRANCH 1 2
BRANCH 1 30
ATOM     30  C   GLU C   4       4.825   5.825 -35.454  0.93 53.82 LIG 0.24  C 
ATOM     31  N   GLU C   5       3.885   4.904 -35.253  0.93 55.67 LIG-0.35  N 
ATOM     32 H    GLU C   5       3.600   4.677 -34.474  0.93 55.67 LIG 0.16  HD
ATOM     33 O    GLU C   4       5.297   6.078 -36.567  0.93 43.39 LIG-0.27  OA
BRANCH 31 34
ATOM     34  CA  GLU C   5       3.249   4.190 -36.351  0.93 64.68 LIG 0.18  C 
BRANCH 34 35
ATOM     35  CB  GLU C   5       2.374   3.058 -35.805  0.93 77.75 LIG 0.04  C 
BRANCH 35 36
ATOM     36  CG  GLU C   5       1.811   2.109 -36.858  0.93 85.88 LIG 0.12  C 
BRANCH 36 37
ATOM     37  CD  GLU C   5       0.532   1.425 -36.404  0.93 94.62 LIG 0.17  C 
ATOM     38 OE1  GLU C   5      -0.344   2.114 -35.836  0.93 95.50 LIG-0.65  OA
ATOM     39 OE2  GLU C   5       0.403   0.199 -36.612  0.93 99.20 LIG-0.65  OA
ENDBRANCH 36 37
ENDBRANCH 35 36
ENDBRANCH 34 35
BRANCH 34 40
ATOM     40  C   GLU C   5       2.400   5.137 -37.196  0.93 58.74 LIG 0.24  C 
ATOM     41  N   VAL C   6       2.179   4.742 -38.451  0.93 54.99 LIG-0.35  N 
ATOM     42 H    VAL C   6       2.491   4.010 -38.777  0.93 54.99 LIG 0.16  HD
ATOM     43 O    GLU C   5       1.944   6.186 -36.731  0.93 57.59 LIG-0.27  OA
BRANCH 41 44
ATOM     44  CA  VAL C   6       1.384   5.516 -39.402  0.93 52.37 LIG 0.18  C 
BRANCH 44 45
ATOM     45  CB  VAL C   6       1.558   4.964 -40.826  0.93 51.22 LIG 0.01  C 
ATOM     46  CG2 VAL C   6       1.277   3.471 -40.842  0.93 39.22 LIG 0.01  C 
ATOM     47  CG1 VAL C   6       2.961   5.259 -41.333  0.93 48.30 LIG 0.01  C 
ENDBRANCH 44 45
BRANCH 44 48
ATOM     48  C   VAL C   6      -0.087   5.515 -38.997  0.93 49.00 LIG 0.24  C 
ATOM     49 O    VAL C   6      -0.504   4.735 -38.134  0.93 48.27 LIG-0.27  OA
ATOM     50  N   ASP C   7      -0.885   6.373 -39.632  0.93 47.73 LIG-0.34  N 
ATOM     51 H    ASP C   7      -0.628   6.880 -40.278  0.93 47.73 LIG 0.16  HD
BRANCH 50 52
ATOM     52  CA  ASP C   7      -2.296   6.519 -39.271  0.93 61.81 LIG 0.20  C 
BRANCH 52 53
ATOM     53  C   ASP C   7      -3.252   6.127 -40.404  0.93 59.11 LIG 0.20  C 
ATOM     54 O    ASP C   7      -4.473   6.248 -40.270  0.93 61.68 LIG-0.65  OA
ATOM     55 OXT  ASP C   7      -2.848   5.683 -41.481  0.93 52.03 LIG-0.65  OA
ENDBRANCH 52 53
BRANCH 52 56
ATOM     56  CB  ASP C   7      -2.576   7.961 -38.829  0.93 71.66 LIG 0.15  C 
BRANCH 56 57
ATOM     57  CG  ASP C   7      -1.681   8.404 -37.681  0.93 79.99 LIG 0.17  C 
ATOM     58 OD2  ASP C   7      -1.375   7.567 -36.804  0.93 82.35 LIG-0.65  OA
ATOM     59 OD1  ASP C   7      -1.279   9.588 -37.658  0.93 83.64 LIG-0.65  OA
ENDBRANCH 56 57
ENDBRANCH 52 56
ENDBRANCH 50 52
ENDBRANCH 44 48
ENDBRANCH 41 44
ENDBRANCH 34 40
ENDBRANCH 31 34
ENDBRANCH 1 30
BRANCH 1 60
ATOM     60  CB  GLU C   4       4.523   7.861 -34.014  0.93 65.31 LIG 0.04  C 
BRANCH 60 61
ATOM     61  CG  GLU C   4       4.491   8.371 -32.565  0.93 74.64 LIG 0.12  C 
BRANCH 61 62
ATOM     62  CD  GLU C   4       5.055   9.782 -32.395  0.93 82.62 LIG 0.17  C 
ATOM     63 OE1  GLU C   4       5.532  10.372 -33.394  0.93 83.84 LIG-0.65  OA
ATOM     64 OE2  GLU C   4       5.020  10.301 -31.254  0.93 81.28 LIG-0.65  OA
ENDBRANCH 61 62
ENDBRANCH 60 61
ENDBRANCH 1 60
TORSDOF 25
