REMARK  21 active torsions:
REMARK  status: ('A' for Active; 'I' for Inactive)
REMARK    1  A    between atoms: CA_2  and  C_3 
REMARK       I    between atoms: C_3  and  N_5 
REMARK    2  A    between atoms: N_5  and  CA_6 
REMARK    3  A    between atoms: CA_6  and  CB_9 
REMARK    4  A    between atoms: CA_6  and  C_7 
REMARK       I    between atoms: C_7  and  N_14 
REMARK    5  A    between atoms: CB_9  and  CG_10 
REMARK    6  A    between atoms: N_14  and  CA_15 
REMARK    7  A    between atoms: CA_15  and  CB_18 
REMARK    8  A    between atoms: CA_15  and  C_16 
REMARK       I    between atoms: C_16  and  N_23 
REMARK    9  A    between atoms: CB_18  and  CG_19 
REMARK   10  A    between atoms: N_23  and  CA_24 
REMARK   11  A    between atoms: CA_24  and  CB_27 
REMARK   12  A    between atoms: CA_24  and  C_25 
REMARK       I    between atoms: C_25  and  N_32 
REMARK   13  A    between atoms: CB_27  and  CG_28 
REMARK   14  A    between atoms: N_32  and  CA_33 
REMARK   15  A    between atoms: CA_33  and  C_34 
REMARK   16  A    between atoms: CA_33  and  CB_36 
REMARK       I    between atoms: C_34  and  N_43 
REMARK   17  A    between atoms: CB_36  and  CG_37 
REMARK       I    between atoms: CG_37  and  ND2_39 
REMARK   18  A    between atoms: N_43  and  CA_44 
REMARK   19  A    between atoms: CA_44  and  C_45 
REMARK   20  A    between atoms: CA_44  and  CB_47 
REMARK   21  A    between atoms: CB_47  and  CG_48 
ROOT
ATOM      1  CA  LEU D   5      -7.575 -35.507  16.087  1.00 45.78     0.177 C 
ENDROOT
BRANCH   1   2
ATOM      2  CB  LEU D   5      -8.733 -35.082  15.189  1.00 44.83     0.038 C 
BRANCH   2   3
ATOM      3  CG  LEU D   5      -9.049 -33.596  15.078  1.00 46.71    -0.020 C 
ATOM      4  CD1 LEU D   5     -10.234 -33.412  14.144  1.00 43.35     0.009 C 
ATOM      5  CD2 LEU D   5      -9.346 -32.985  16.448  1.00 50.41     0.009 C 
ENDBRANCH   2   3
ENDBRANCH   1   2
BRANCH   1   6
ATOM      6  C   LEU D   5      -7.565 -37.026  16.132  1.00 49.70     0.241 C 
ATOM      7  N   ASN D   6      -8.229 -37.568  17.155  1.00 52.00    -0.346 N 
ATOM      8  H   ASN D   6      -8.573 -37.103  17.791  1.00 52.00     0.163 HD
ATOM      9  O   LEU D   5      -7.006 -37.682  15.233  1.00 48.20    -0.271 OA
BRANCH   7  10
ATOM     10  CA  ASN D   6      -8.441 -39.009  17.301  1.00 59.27     0.185 C 
BRANCH  10  11
ATOM     11  C   ASN D   6      -9.909 -39.328  16.995  1.00 60.71     0.241 C 
ATOM     12  N   LEU D   7     -10.160 -39.899  15.817  1.00 62.75    -0.347 N 
ATOM     13  H   LEU D   7      -9.546 -40.190  15.290  1.00 62.75     0.163 HD
ATOM     14  O   ASN D   6     -10.792 -39.061  17.814  1.00 63.11    -0.271 OA
BRANCH  12  15
ATOM     15  CA  LEU D   7     -11.524 -40.086  15.305  1.00 66.71     0.163 C 
BRANCH  15  16
ATOM     16  C   LEU D   7     -12.094 -41.479  15.593  1.00 66.58     0.219 C 
ATOM     17  O   LEU D   7     -11.393 -42.480  15.490  1.00 70.30    -0.287 OA
ENDBRANCH  15  16
BRANCH  15  18
ATOM     18  CB  LEU D   7     -11.541 -39.804  13.796  1.00 67.13     0.037 C 
BRANCH  18  19
ATOM     19  CG  LEU D   7     -11.199 -38.357  13.411  1.00 64.50    -0.020 C 
ATOM     20  CD1 LEU D   7     -10.856 -38.262  11.929  1.00 64.54     0.009 C 
ATOM     21  CD2 LEU D   7     -12.336 -37.405  13.773  1.00 62.99     0.009 C 
ENDBRANCH  18  19
ENDBRANCH  15  18
ENDBRANCH  12  15
ENDBRANCH  10  11
BRANCH  10  22
ATOM     22  CB  ASN D   6      -8.058 -39.447  18.723  1.00 63.11     0.137 C 
BRANCH  22  23
ATOM     23  CG  ASN D   6      -8.275 -40.932  18.963  1.00 71.29     0.217 C 
ATOM     24  ND2 ASN D   6      -8.532 -41.295  20.221  1.00 72.89    -0.370 N 
ATOM     25 1HD2 ASN D   6      -8.657 -42.124  20.412  1.00 72.89     0.159 HD
ATOM     26 2HD2 ASN D   6      -8.572 -40.700  20.841  1.00 72.89     0.159 HD
ATOM     27  OD1 ASN D   6      -8.206 -41.748  18.035  1.00 74.05    -0.274 OA
ENDBRANCH  22  23
ENDBRANCH  10  22
ENDBRANCH   7  10
ENDBRANCH   1   6
BRANCH   1  28
ATOM     28  N   LEU D   5      -6.293 -34.979  15.591  1.00 43.46    -0.346 N 
ATOM     29  H   LEU D   5      -5.998 -35.377  14.888  1.00 43.46     0.163 HD
ATOM     30  C   LEU D   4      -5.660 -33.974  16.188  1.00 41.34     0.241 C 
ATOM     31  O   LEU D   4      -6.059 -33.442  17.213  1.00 44.89    -0.271 OA
BRANCH  30  32
ATOM     32  CA  LEU D   4      -4.436 -33.435  15.508  1.00 41.83     0.177 C 
BRANCH  32  33
ATOM     33  CB  LEU D   4      -4.877 -32.474  14.389  1.00 37.92     0.038 C 
BRANCH  33  34
ATOM     34  CG  LEU D   4      -3.753 -31.736  13.668  1.00 37.44    -0.020 C 
ATOM     35  CD1 LEU D   4      -4.333 -30.903  12.539  1.00 34.88     0.009 C 
ATOM     36  CD2 LEU D   4      -2.977 -30.845  14.641  1.00 37.22     0.009 C 
ENDBRANCH  33  34
ENDBRANCH  32  33
BRANCH  32  37
ATOM     37  N   LEU D   4      -3.550 -34.481  14.990  1.00 45.71    -0.346 N 
ATOM     38  H   LEU D   4      -3.676 -34.682  14.163  1.00 45.71     0.163 HD
ATOM     39  C   ASP D   3      -2.633 -35.052  15.769  1.00 59.12     0.241 C 
ATOM     40  O   ASP D   3      -2.560 -34.856  16.987  1.00 63.71    -0.271 OA
BRANCH  39  41
ATOM     41  CA  ASP D   3      -1.672 -36.032  15.104  1.00 63.74     0.186 C 
BRANCH  41  42
ATOM     42  N   ASP D   3      -2.360 -37.132  14.439  1.00 62.73    -0.346 N 
ATOM     43  H   ASP D   3      -2.096 -37.283  13.634  1.00 62.73     0.163 HD
ATOM     44  C   GLY D   2      -3.311 -37.826  15.050  1.00 63.13     0.252 C 
ATOM     45  O   GLY D   2      -3.722 -37.556  16.181  1.00 65.69    -0.271 OA
BRANCH  44  46
ATOM     46  CA  GLY D   2      -3.889 -38.990  14.273  1.00 64.97     0.466 C 
ATOM     47  N   GLY D   2      -4.445 -40.041  15.174  1.00 67.04     0.609 N 
ENDBRANCH  44  46
ENDBRANCH  41  42
BRANCH  41  48
ATOM     48  CB  ASP D   3      -0.753 -35.286  14.128  1.00 68.02     0.147 C 
BRANCH  48  49
ATOM     49  CG  ASP D   3       0.560 -35.998  13.906  1.00 72.98     0.175 C 
ATOM     50  OD1 ASP D   3       0.935 -36.842  14.749  1.00 76.93    -0.648 OA
ATOM     51  OD2 ASP D   3       1.226 -35.705  12.888  1.00 81.56    -0.648 OA
ENDBRANCH  48  49
ENDBRANCH  41  48
ENDBRANCH  39  41
ENDBRANCH  32  37
ENDBRANCH  30  32
ENDBRANCH   1  28
TORSDOF 21
