USER: ADFR SOLUTION from run 0
USER: SCORE 12.872194 LL:  -4.186 LR: -10.498 RR:   0.000 FEB:  -4.233
USER: RMSD 1.015931
USER: STATUS Locally minimized using BFGS
USER: GENES 23
USER: genes 0 Translation |==|  0.39117 0.58625 0.46881
USER: genes 1 Rotation |==|  0.51357 0.50413 0.47977 0.99939
USER: genes 2 Torsion [C]-CA--CB-[CG] |==|  0.47201
USER: genes 3 Torsion [CA]-CB--CG-[CD1] |==|  0.49316
USER: genes 4 Torsion [N]-CA--C-[N] |==|  0.40138
USER: genes 5 Torsion [C]-N--CA-[C] |==|  0.70000
USER: genes 6 Torsion [N]-CA--C-[N] |==|  0.26427
USER: genes 7 Torsion [C]-N--CA-[C] |==|  0.73811
USER: genes 8 Torsion [N]-CA--C-[O] |==|  0.89571
USER: genes 9 Torsion [N]-CA--CB-[CG] |==|  0.82955
USER: genes 10 Torsion [CA]-CB--CG-[CD1] |==|  0.43174
USER: genes 11 Torsion [N]-CA--CB-[CG] |==|  0.48258
USER: genes 12 Torsion [CA]-CB--CG-[ND2] |==|  0.57505
USER: genes 13 Torsion [CB]-CA--N-[C] |==|  0.24975
USER: genes 14 Torsion [N]-C--CA-[N] |==|  0.89460
USER: genes 15 Torsion [C]-CA--CB-[CG] |==|  0.49226
USER: genes 16 Torsion [CA]-CB--CG-[CD1] |==|  0.49810
USER: genes 17 Torsion [C]-CA--N-[C] |==|  0.74279
USER: genes 18 Torsion [N]-C--CA-[N] |==|  0.87253
USER: genes 19 Torsion [C]-CA--N-[C] |==|  0.86385
USER: genes 20 Torsion [N]-C--CA-[N] |==|  0.44126
USER: genes 21 Torsion [C]-CA--CB-[CG] |==|  0.41799
USER: genes 22 Torsion [CA]-CB--CG-[OD1] |==|  0.94529
ROOT
ATOM      1  CA  LEU D   5      -7.922 -34.915  15.847  1.00 45.78 LIG 0.18  C 
ENDROOT
BRANCH 1 2
ATOM      2  CB  LEU D   5      -9.054 -34.350  14.995  1.00 44.83 LIG 0.04  C 
BRANCH 2 3
ATOM      3  CG  LEU D   5      -9.315 -32.850  15.049  1.00 46.71 LIG-0.02  C 
ATOM      4  CD1 LEU D   5     -10.438 -32.510  14.082  1.00 43.35 LIG 0.01  C 
ATOM      5  CD2 LEU D   5      -9.670 -32.396  16.465  1.00 50.41 LIG 0.01  C 
ENDBRANCH 2 3
ENDBRANCH 1 2
BRANCH 1 6
ATOM      6  C   LEU D   5      -8.035 -36.430  15.810  1.00 49.70 LIG 0.24  C 
ATOM      7  N   ASN D   6      -8.734 -36.972  16.810  1.00 52.00 LIG-0.35  N 
ATOM      8 H    ASN D   6      -9.035 -36.516  17.474  1.00 52.00 LIG 0.16  HD
ATOM      9 O    LEU D   5      -7.537 -37.080  14.872  1.00 48.20 LIG-0.27  OA
BRANCH 7 10
ATOM     10  CA  ASN D   6      -9.061 -38.397  16.881  1.00 59.27 LIG 0.18  C 
BRANCH 10 11
ATOM     11  C   ASN D   6     -10.558 -38.577  16.600  1.00 60.71 LIG 0.24  C 
ATOM     12  N   LEU D   7     -10.896 -38.863  15.343  1.00 62.75 LIG-0.35  N 
ATOM     13 H    LEU D   7     -10.325 -39.057  14.730  1.00 62.75 LIG 0.16  HD
ATOM     14 O    ASN D   6     -11.384 -38.459  17.509  1.00 63.11 LIG-0.27  OA
BRANCH 12 15
ATOM     15  CA  LEU D   7     -12.292 -38.874  14.885  1.00 66.71 LIG 0.16  C 
BRANCH 15 16
ATOM     16  C   LEU D   7     -12.936 -40.263  14.935  1.00 66.58 LIG 0.22  C 
ATOM     17 O    LEU D   7     -12.291 -41.267  14.652  1.00 70.30 LIG-0.29  OA
ENDBRANCH 15 16
BRANCH 15 18
ATOM     18  CB  LEU D   7     -12.360 -38.305  13.460  1.00 67.13 LIG 0.04  C 
BRANCH 18 19
ATOM     19  CG  LEU D   7     -11.885 -36.851  13.328  1.00 64.50 LIG-0.02  C 
ATOM     20  CD1 LEU D   7     -11.414 -36.567  11.906  1.00 64.54 LIG 0.01  C 
ATOM     21  CD2 LEU D   7     -12.977 -35.871  13.750  1.00 62.99 LIG 0.01  C 
ENDBRANCH 18 19
ENDBRANCH 15 18
ENDBRANCH 12 15
ENDBRANCH 10 11
BRANCH 10 22
ATOM     22  CB  ASN D   6      -8.681 -38.947  18.264  1.00 63.11 LIG 0.14  C 
BRANCH 22 23
ATOM     23  CG  ASN D   6      -9.128 -40.385  18.472  1.00 71.29 LIG 0.22  C 
ATOM     24  ND2 ASN D   6      -9.356 -40.755  19.733  1.00 72.89 LIG-0.37  N 
ATOM     25 21HD ASN D   6      -9.606 -41.560  19.906  1.00 72.89 LIG 0.16  HD
ATOM     26 22HD ASN D   6      -9.254 -40.190  20.373  1.00 72.89 LIG 0.16  HD
ATOM     27 OD1  ASN D   6      -9.260 -41.159  17.516  1.00 74.05 LIG-0.27  OA
ENDBRANCH 22 23
ENDBRANCH 10 22
ENDBRANCH 7 10
ENDBRANCH 1 6
BRANCH 1 28
ATOM     28  N   LEU D   5      -6.609 -34.466  15.356  1.00 43.46 LIG-0.35  N 
ATOM     29 H    LEU D   5      -6.256 -34.987  14.770  1.00 43.46 LIG 0.16  HD
ATOM     30  C   LEU D   4      -6.032 -33.349  15.790  1.00 41.34 LIG 0.24  C 
ATOM     31 O    LEU D   4      -6.516 -32.636  16.656  1.00 44.89 LIG-0.27  OA
BRANCH 30 32
ATOM     32  CA  LEU D   4      -4.762 -32.926  15.112  1.00 41.83 LIG 0.18  C 
BRANCH 32 33
ATOM     33  CB  LEU D   4      -5.121 -32.091  13.869  1.00 37.92 LIG 0.04  C 
BRANCH 33 34
ATOM     34  CG  LEU D   4      -3.940 -31.519  13.092  1.00 37.44 LIG-0.02  C 
ATOM     35  CD1 LEU D   4      -4.449 -30.740  11.892  1.00 34.88 LIG 0.01  C 
ATOM     36  CD2 LEU D   4      -3.086 -30.618  13.987  1.00 37.22 LIG 0.01  C 
ENDBRANCH 33 34
ENDBRANCH 32 33
BRANCH 32 37
ATOM     37  N   LEU D   4      -3.888 -34.048  14.763  1.00 45.71 LIG-0.35  N 
ATOM     38 H    LEU D   4      -4.048 -34.404  13.995  1.00 45.71 LIG 0.16  HD
ATOM     39  C   ASP D   3      -2.930 -34.458  15.593  1.00 59.12 LIG 0.24  C 
ATOM     40 O    ASP D   3      -2.806 -34.033  16.747  1.00 63.71 LIG-0.27  OA
BRANCH 39 41
ATOM     41  CA  ASP D   3      -1.988 -35.543  15.083  1.00 63.74 LIG 0.19  C 
BRANCH 41 42
ATOM     42  N   ASP D   3      -2.693 -36.639  14.429  1.00 62.73 LIG-0.35  N 
ATOM     43 H    ASP D   3      -2.373 -36.860  13.661  1.00 62.73 LIG 0.16  HD
ATOM     44  C   GLY D   2      -3.738 -37.228  14.995  1.00 63.13 LIG 0.25  C 
ATOM     45 O    GLY D   2      -4.223 -36.856  16.066  1.00 65.69 LIG-0.27  OA
BRANCH 44 46
ATOM     46  CA  GLY D   2      -4.328 -38.402  14.243  1.00 64.97 LIG 0.47  C 
ATOM     47  N   GLY D   2      -5.126 -39.292  15.135  1.00 67.04 LIG 0.61  N 
ENDBRANCH 44 46
ENDBRANCH 41 42
BRANCH 41 48
ATOM     48  CB  ASP D   3      -0.936 -34.930  14.151  1.00 68.02 LIG 0.15  C 
BRANCH 48 49
ATOM     49  CG  ASP D   3       0.371 -35.685  14.172  1.00 72.98 LIG 0.17  C 
ATOM     50 OD1  ASP D   3       0.616 -36.435  15.143  1.00 76.93 LIG-0.65  OA
ATOM     51 OD2  ASP D   3       1.164 -35.522  13.217  1.00 81.56 LIG-0.65  OA
ENDBRANCH 48 49
ENDBRANCH 41 48
ENDBRANCH 39 41
ENDBRANCH 32 37
ENDBRANCH 30 32
ENDBRANCH 1 28
TORSDOF 21
