USER: ADFR SOLUTION from run 0
USER: SCORE 20.006869 LL:  -5.927 LR: -18.377 RR:   0.000 FEB:  -9.726
USER: RMSD 1.983898
USER: STATUS Locally minimized using BFGS
USER: GENES 31
USER: genes 0 Translation |==|  0.56464 0.64580 0.58640
USER: genes 1 Rotation |==|  0.41338 0.53687 0.48342 0.99078
USER: genes 2 Torsion [CB]-CA--N-[C] |==|  0.23781
USER: genes 3 Torsion [N]-C--CA-[N] |==|  0.94743
USER: genes 4 Torsion [C]-CA--N-[C] |==|  0.75755
USER: genes 5 Torsion [N]-C--CA-[N] |==|  0.33920
USER: genes 6 Torsion [C]-CA--N-[C] |==|  0.61197
USER: genes 7 Torsion [N]-C--CA-[N] |==|  0.37060
USER: genes 8 Torsion [C]-CA--N-[H3] |==|  0.09505
USER: genes 9 Torsion [C]-CA--CB-[CG] |==|  0.20172
USER: genes 10 Torsion [CA]-CB--CG-[CD] |==|  0.46316
USER: genes 11 Torsion [CB]-CG--CD-[OE2] |==|  0.49941
USER: genes 12 Torsion [C]-CA--CB-[CG2] |==|  0.16452
USER: genes 13 Torsion [CA]-CB--OG1-[HG1] |==|  0.49183
USER: genes 14 Torsion [C]-CA--CB-[CG] |==|  0.48633
USER: genes 15 Torsion [CA]-CB--CG-[CD2] |==|  0.86053
USER: genes 16 Torsion [N]-CA--C-[N] |==|  0.40140
USER: genes 17 Torsion [C]-N--CA-[CB] |==|  0.38774
USER: genes 18 Torsion [N]-CA--CB-[CG] |==|  0.46956
USER: genes 19 Torsion [CA]-CB--CG-[OD1] |==|  0.08529
USER: genes 20 Torsion [N]-CA--C-[N] |==|  0.34437
USER: genes 21 Torsion [C]-N--CA-[CB] |==|  0.42388
USER: genes 22 Torsion [N]-CA--CB-[CG] |==|  0.86362
USER: genes 23 Torsion [CA]-CB--CG-[CD2] |==|  0.85793
USER: genes 24 Torsion [N]-CA--C-[N] |==|  0.93832
USER: genes 25 Torsion [C]-N--CA-[CB] |==|  0.38391
USER: genes 26 Torsion [N]-CA--CB-[CG] |==|  0.62870
USER: genes 27 Torsion [CA]-CB--CG-[OD2] |==|  0.42766
USER: genes 28 Torsion [N]-CA--C-[O] |==|  0.31480
USER: genes 29 Torsion [N]-CA--CB-[CG] |==|  0.42544
USER: genes 30 Torsion [CA]-CB--CG-[CD2] |==|  0.51206
ROOT
ATOM      1  CA  LEU E   4      21.086 -17.212  -0.764  1.00 22.51 LIG 0.18  C 
ENDROOT
BRANCH 1 2
ATOM      2  N   LEU E   4      19.827 -16.927  -1.403  1.00 20.57 LIG-0.35  N 
ATOM      3  C   LEU E   3      19.551 -15.789  -2.035  1.00 20.37 LIG 0.24  C 
ATOM      4 O    LEU E   3      20.332 -14.829  -2.102  1.00 19.26 LIG-0.27  OA
ATOM      5 H    LEU E   4      19.260 -17.571  -1.339  1.00 20.57 LIG 0.16  HD
BRANCH 3 6
ATOM      6  CA  LEU E   3      18.152 -15.661  -2.645  1.00 20.55 LIG 0.18  C 
BRANCH 6 7
ATOM      7  N   LEU E   3      17.430 -16.893  -2.855  1.00 20.86 LIG-0.35  N 
ATOM      8  C   THR E   2      17.587 -17.579  -3.983  1.00 24.34 LIG 0.24  C 
ATOM      9 O    THR E   2      18.469 -17.313  -4.811  1.00 23.87 LIG-0.27  OA
ATOM     10 H    LEU E   3      16.914 -17.126  -2.208  1.00 20.86 LIG 0.16  HD
BRANCH 8 11
ATOM     11  CA  THR E   2      16.634 -18.724  -4.210  1.00 25.18 LIG 0.20  C 
BRANCH 11 12
ATOM     12  N   THR E   2      15.927 -18.490  -5.474  1.00 26.55 LIG-0.34  N 
ATOM     13  C   GLU E   1      14.632 -18.745  -5.623  1.00 27.17 LIG 0.25  C 
ATOM     14 O    GLU E   1      13.947 -19.313  -4.764  1.00 25.74 LIG-0.27  OA
ATOM     15 H    THR E   2      16.425 -18.176  -6.101  1.00 26.55 LIG 0.16  HD
BRANCH 13 16
ATOM     16  CA  GLU E   1      14.007 -18.352  -6.961  1.00 31.71 LIG 0.28  C 
BRANCH 16 17
ATOM     17  N   GLU E   1      13.193 -19.497  -7.423  1.00 33.09 LIG-0.07  N 
ATOM     18 H3   GLU E   1      12.832 -19.907  -6.720  1.00 33.09 LIG 0.28  HD
ATOM     19 H2   GLU E   1      13.710 -20.069  -7.866  1.00 33.09 LIG 0.28  HD
ATOM     20 H1   GLU E   1      12.546 -19.205  -7.960  1.00 33.09 LIG 0.28  HD
ENDBRANCH 16 17
BRANCH 16 21
ATOM     21  CB  GLU E   1      13.137 -17.097  -6.797  1.00 32.36 LIG 0.05  C 
BRANCH 21 22
ATOM     22  CG  GLU E   1      13.950 -15.829  -6.595  1.00 32.63 LIG 0.12  C 
BRANCH 22 23
ATOM     23  CD  GLU E   1      13.148 -14.542  -6.748  1.00 33.25 LIG 0.17  C 
ATOM     24 OE2  GLU E   1      13.744 -13.452  -6.592  1.00 34.04 LIG-0.65  OA
ATOM     25 OE1  GLU E   1      11.930 -14.600  -7.014  1.00 33.29 LIG-0.65  OA
ENDBRANCH 22 23
ENDBRANCH 21 22
ENDBRANCH 16 21
ENDBRANCH 13 16
ENDBRANCH 11 12
BRANCH 11 26
ATOM     26  CB  THR E   2      17.397 -20.061  -4.232  1.00 27.29 LIG 0.15  C 
ATOM     27  CG2 THR E   2      18.113 -20.271  -2.947  1.00 26.73 LIG 0.04  C 
BRANCH 26 28
ATOM     28 OG1  THR E   2      16.444 -21.118  -4.411  1.00 28.79 LIG-0.39  OA
ATOM     29 HG1  THR E   2      16.848 -21.852  -4.465  1.00 28.79 LIG 0.21  HD
ENDBRANCH 26 28
ENDBRANCH 11 26
ENDBRANCH 8 11
ENDBRANCH 6 7
BRANCH 6 30
ATOM     30  CB  LEU E   3      17.292 -14.716  -1.782  1.00 20.98 LIG 0.04  C 
BRANCH 30 31
ATOM     31  CG  LEU E   3      15.907 -14.384  -2.307  1.00 22.16 LIG-0.02  C 
ATOM     32  CD2 LEU E   3      15.890 -13.925  -3.742  1.00 24.43 LIG 0.01  C 
ATOM     33  CD1 LEU E   3      15.285 -13.347  -1.389  1.00 21.08 LIG 0.01  C 
ENDBRANCH 30 31
ENDBRANCH 6 30
ENDBRANCH 3 6
ENDBRANCH 1 2
BRANCH 1 34
ATOM     34  C   LEU E   4      21.252 -18.731  -0.737  1.00 22.59 LIG 0.24  C 
ATOM     35 O    LEU E   4      20.273 -19.452  -0.593  1.00 22.01 LIG-0.27  OA
ATOM     36  N   ASP E   5      22.485 -19.193  -0.895  1.00 23.28 LIG-0.35  N 
ATOM     37 H    ASP E   5      23.168 -18.691  -1.042  1.00 23.28 LIG 0.16  HD
BRANCH 36 38
ATOM     38  CA  ASP E   5      22.799 -20.641  -0.829  1.00 26.12 LIG 0.19  C 
BRANCH 38 39
ATOM     39  CB  ASP E   5      23.816 -21.008  -1.901  1.00 27.88 LIG 0.15  C 
BRANCH 39 40
ATOM     40  CG  ASP E   5      24.394 -22.428  -1.729  1.00 30.83 LIG 0.17  C 
ATOM     41 OD1  ASP E   5      23.715 -23.340  -1.223  1.00 34.24 LIG-0.65  OA
ATOM     42 OD2  ASP E   5      25.554 -22.602  -2.126  1.00 35.63 LIG-0.65  OA
ENDBRANCH 39 40
ENDBRANCH 38 39
BRANCH 38 43
ATOM     43  C   ASP E   5      23.347 -20.958   0.549  1.00 25.92 LIG 0.24  C 
ATOM     44 O    ASP E   5      24.310 -20.321   0.999  1.00 27.30 LIG-0.27  OA
ATOM     45  N   LEU E   6      22.711 -21.900   1.228  1.00 28.24 LIG-0.35  N 
ATOM     46 H    LEU E   6      22.029 -22.328   0.926  1.00 28.24 LIG 0.16  HD
BRANCH 45 47
ATOM     47  CA  LEU E   6      23.126 -22.303   2.583  1.00 31.78 LIG 0.18  C 
BRANCH 47 48
ATOM     48  CB  LEU E   6      21.930 -22.849   3.382  1.00 30.53 LIG 0.04  C 
BRANCH 48 49
ATOM     49  CG  LEU E   6      20.688 -21.954   3.342  1.00 30.12 LIG-0.02  C 
ATOM     50  CD1 LEU E   6      19.577 -22.477   4.236  1.00 29.14 LIG 0.01  C 
ATOM     51  CD2 LEU E   6      21.037 -20.513   3.711  1.00 31.89 LIG 0.01  C 
ENDBRANCH 48 49
ENDBRANCH 47 48
BRANCH 47 52
ATOM     52  C   LEU E   6      24.258 -23.329   2.569  1.00 36.88 LIG 0.24  C 
ATOM     53 O    LEU E   6      24.983 -23.443   3.569  1.00 37.54 LIG-0.27  OA
ATOM     54  N   ASP E   7      24.404 -24.048   1.451  1.00 40.21 LIG-0.35  N 
ATOM     55 H    ASP E   7      23.845 -24.018   0.798  1.00 40.21 LIG 0.16  HD
BRANCH 54 56
ATOM     56  CA  ASP E   7      25.527 -24.958   1.222  1.00 48.33 LIG 0.17  C 
BRANCH 56 57
ATOM     57  CB  ASP E   7      25.027 -26.241   0.578  1.00 51.73 LIG 0.15  C 
BRANCH 57 58
ATOM     58  CG  ASP E   7      25.598 -27.483   1.236  1.00 58.06 LIG 0.17  C 
ATOM     59 OD2  ASP E   7      24.936 -28.539   1.164  1.00 65.10 LIG-0.65  OA
ATOM     60 OD1  ASP E   7      26.708 -27.416   1.817  1.00 65.94 LIG-0.65  OA
ENDBRANCH 57 58
ENDBRANCH 56 57
BRANCH 56 61
ATOM     61  C   ASP E   7      26.592 -24.326   0.338  1.00 49.55 LIG 0.22  C 
ATOM     62 O    ASP E   7      27.704 -24.067   0.799  1.00 55.15 LIG-0.29  OA
ENDBRANCH 56 61
ENDBRANCH 54 56
ENDBRANCH 47 52
ENDBRANCH 45 47
ENDBRANCH 38 43
ENDBRANCH 36 38
ENDBRANCH 1 34
BRANCH 1 63
ATOM     63  CB  LEU E   4      21.084 -16.657   0.664  1.00 22.63 LIG 0.04  C 
BRANCH 63 64
ATOM     64  CG  LEU E   4      21.958 -17.295   1.739  1.00 23.40 LIG-0.02  C 
ATOM     65  CD2 LEU E   4      21.685 -16.620   3.083  1.00 23.91 LIG 0.01  C 
ATOM     66  CD1 LEU E   4      23.431 -17.227   1.386  1.00 22.51 LIG 0.01  C 
ENDBRANCH 63 64
ENDBRANCH 1 63
TORSDOF 29
