REMARK  29 active torsions:
REMARK  status: ('A' for Active; 'I' for Inactive)
REMARK    1  A    between atoms: N_1  and  CA_2 
REMARK    2  A    between atoms: CA_2  and  C_3 
REMARK    3  A    between atoms: CA_2  and  CB_5 
REMARK       I    between atoms: C_3  and  N_13 
REMARK    4  A    between atoms: CB_5  and  CG_6 
REMARK    5  A    between atoms: CG_6  and  CD_7 
REMARK    6  A    between atoms: N_13  and  CA_14 
REMARK    7  A    between atoms: CA_14  and  CB_17 
REMARK    8  A    between atoms: CA_14  and  C_15 
REMARK       I    between atoms: C_15  and  N_22 
REMARK    9  A    between atoms: CB_17  and  OG1_18 
REMARK   10  A    between atoms: N_22  and  CA_23 
REMARK   11  A    between atoms: CA_23  and  CB_26 
REMARK   12  A    between atoms: CA_23  and  C_24 
REMARK       I    between atoms: C_24  and  N_31 
REMARK   13  A    between atoms: CB_26  and  CG_27 
REMARK   14  A    between atoms: N_31  and  CA_32 
REMARK   15  A    between atoms: CA_32  and  C_33 
REMARK   16  A    between atoms: CA_32  and  CB_35 
REMARK       I    between atoms: C_33  and  N_40 
REMARK   17  A    between atoms: CB_35  and  CG_36 
REMARK   18  A    between atoms: N_40  and  CA_41 
REMARK   19  A    between atoms: CA_41  and  CB_44 
REMARK   20  A    between atoms: CA_41  and  C_42 
REMARK       I    between atoms: C_42  and  N_49 
REMARK   21  A    between atoms: CB_44  and  CG_45 
REMARK   22  A    between atoms: N_49  and  CA_50 
REMARK   23  A    between atoms: CA_50  and  CB_53 
REMARK   24  A    between atoms: CA_50  and  C_51 
REMARK       I    between atoms: C_51  and  N_58 
REMARK   25  A    between atoms: CB_53  and  CG_54 
REMARK   26  A    between atoms: N_58  and  CA_59 
REMARK   27  A    between atoms: CA_59  and  CB_62 
REMARK   28  A    between atoms: CA_59  and  C_60 
REMARK   29  A    between atoms: CB_62  and  CG_63 
ROOT
ATOM      1  CA  LEU E   4      20.808 -18.036  -1.020  1.00 22.51     0.177 C 
ENDROOT
BRANCH   1   2
ATOM      2  N   LEU E   4      19.625 -17.598  -1.715  1.00 20.57    -0.346 N 
ATOM      3  C   LEU E   3      19.501 -16.411  -2.303  1.00 20.37     0.241 C 
ATOM      4  O   LEU E   3      20.375 -15.532  -2.277  1.00 19.26    -0.271 OA
ATOM      5  H   LEU E   4      18.995 -18.184  -1.715  1.00 20.57     0.163 HD
BRANCH   3   6
ATOM      6  CA  LEU E   3      18.162 -16.116  -2.985  1.00 20.55     0.177 C 
BRANCH   6   7
ATOM      7  N   LEU E   3      17.292 -17.247  -3.203  1.00 20.86    -0.346 N 
ATOM      8  C   THR E   2      17.453 -18.022  -4.272  1.00 24.34     0.243 C 
ATOM      9  O   THR E   2      18.438 -17.936  -5.018  1.00 23.87    -0.271 OA
ATOM     10  H   LEU E   3      16.689 -17.363  -2.601  1.00 20.86     0.163 HD
BRANCH   8  11
ATOM     11  CA  THR E   2      16.370 -19.036  -4.535  1.00 25.18     0.205 C 
BRANCH  11  12
ATOM     12  N   THR E   2      15.763 -18.733  -5.836  1.00 26.55    -0.344 N 
ATOM     13  C   GLU E   1      14.448 -18.710  -6.020  1.00 27.17     0.249 C 
ATOM     14  O   GLU E   1      13.634 -19.062  -5.158  1.00 25.74    -0.271 OA
ATOM     15  H   THR E   2      16.333 -18.574  -6.460  1.00 26.55     0.163 HD
BRANCH  13  16
ATOM     16  CA  GLU E   1      13.958 -18.275  -7.401  1.00 31.71     0.275 C 
BRANCH  16  17
ATOM     17  N   GLU E   1      13.052 -19.331  -7.902  1.00 33.09    -0.066 N 
ATOM     18  H3  GLU E   1      12.595 -19.678  -7.222  1.00 33.09     0.275 HD
ATOM     19  H2  GLU E   1      13.530 -19.971  -8.294  1.00 33.09     0.275 HD
ATOM     20  H1  GLU E   1      12.485 -18.981  -8.492  1.00 33.09     0.275 HD
ENDBRANCH  16  17
BRANCH  16  21
ATOM     21  CB  GLU E   1      13.225 -16.929  -7.309  1.00 32.36     0.053 C 
BRANCH  21  22
ATOM     22  CG  GLU E   1      14.168 -15.742  -7.193  1.00 32.63     0.115 C 
BRANCH  22  23
ATOM     23  CD  GLU E   1      13.465 -14.396  -7.067  1.00 33.25     0.172 C 
ATOM     24  OE2 GLU E   1      14.172 -13.365  -6.990  1.00 34.04    -0.648 OA
ATOM     25  OE1 GLU E   1      12.218 -14.349  -7.037  1.00 33.29    -0.648 OA
ENDBRANCH  22  23
ENDBRANCH  21  22
ENDBRANCH  16  21
ENDBRANCH  13  16
ENDBRANCH  11  12
BRANCH  11  26
ATOM     26  CB  THR E   2      16.950 -20.461  -4.504  1.00 27.29     0.146 C 
ATOM     27  CG2 THR E   2      17.507 -20.765  -3.160  1.00 26.73     0.042 C 
BRANCH  26  28
ATOM     28  OG1 THR E   2      15.889 -21.384  -4.786  1.00 28.79    -0.393 OA
ATOM     29  HG1 THR E   2      16.189 -22.168  -4.774  1.00 28.79     0.210 HD
ENDBRANCH  26  28
ENDBRANCH  11  26
ENDBRANCH   8  11
ENDBRANCH   6   7
BRANCH   6  30
ATOM     30  CB  LEU E   3      17.397 -15.041  -2.187  1.00 20.98     0.038 C 
BRANCH  30  31
ATOM     31  CG  LEU E   3      16.132 -14.492  -2.822  1.00 22.16    -0.020 C 
ATOM     32  CD2 LEU E   3      16.304 -14.060  -4.255  1.00 24.43     0.009 C 
ATOM     33  CD1 LEU E   3      15.623 -13.351  -1.960  1.00 21.08     0.009 C 
ENDBRANCH  30  31
ENDBRANCH   6  30
ENDBRANCH   3   6
ENDBRANCH   1   2
BRANCH   1  34
ATOM     34  C   LEU E   4      21.106 -19.463  -1.478  1.00 22.59     0.241 C 
ATOM     35  O   LEU E   4      20.214 -20.301  -1.492  1.00 22.01    -0.271 OA
ATOM     36  N   ASP E   5      22.351 -19.712  -1.863  1.00 23.28    -0.346 N 
ATOM     37  H   ASP E   5      22.968 -19.114  -1.898  1.00 23.28     0.163 HD
BRANCH  36  38
ATOM     38  CA  ASP E   5      22.793 -21.067  -2.273  1.00 26.12     0.186 C 
BRANCH  38  39
ATOM     39  CB  ASP E   5      23.724 -20.975  -3.475  1.00 27.88     0.147 C 
BRANCH  39  40
ATOM     40  CG  ASP E   5      24.190 -22.352  -3.989  1.00 30.83     0.175 C 
ATOM     41  OD1 ASP E   5      23.753 -23.405  -3.489  1.00 34.24    -0.648 OA
ATOM     42  OD2 ASP E   5      25.008 -22.345  -4.919  1.00 35.63    -0.648 OA
ENDBRANCH  39  40
ENDBRANCH  38  39
BRANCH  38  43
ATOM     43  C   ASP E   5      23.504 -21.721  -1.104  1.00 25.92     0.241 C 
ATOM     44  O   ASP E   5      24.626 -21.327  -0.756  1.00 27.30    -0.271 OA
ATOM     45  N   LEU E   6      22.838 -22.679  -0.478  1.00 28.24    -0.346 N 
ATOM     46  H   LEU E   6      22.050 -22.939  -0.705  1.00 28.24     0.163 HD
BRANCH  45  47
ATOM     47  CA  LEU E   6      23.400 -23.394   0.681  1.00 31.78     0.177 C 
BRANCH  47  48
ATOM     48  CB  LEU E   6      22.366 -23.496   1.816  1.00 30.53     0.038 C 
BRANCH  48  49
ATOM     49  CG  LEU E   6      21.991 -22.151   2.445  1.00 30.12    -0.020 C 
ATOM     50  CD1 LEU E   6      20.874 -22.289   3.465  1.00 29.14     0.009 C 
ATOM     51  CD2 LEU E   6      23.211 -21.480   3.075  1.00 31.89     0.009 C 
ENDBRANCH  48  49
ENDBRANCH  47  48
BRANCH  47  52
ATOM     52  C   LEU E   6      23.917 -24.785   0.317  1.00 36.88     0.241 C 
ATOM     53  O   LEU E   6      24.268 -25.555   1.224  1.00 37.54    -0.271 OA
ATOM     54  N   ASP E   7      23.968 -25.086  -0.984  1.00 40.21    -0.347 N 
ATOM     55  H   ASP E   7      23.645 -24.576  -1.597  1.00 40.21     0.163 HD
BRANCH  54  56
ATOM     56  CA  ASP E   7      24.578 -26.312  -1.502  1.00 48.33     0.172 C 
BRANCH  56  57
ATOM     57  CB  ASP E   7      23.679 -26.925  -2.563  1.00 51.73     0.146 C 
BRANCH  57  58
ATOM     58  CG  ASP E   7      22.369 -27.435  -1.991  1.00 58.06     0.174 C 
ATOM     59  OD2 ASP E   7      21.365 -27.428  -2.733  1.00 65.10    -0.648 OA
ATOM     60  OD1 ASP E   7      22.336 -27.853  -0.808  1.00 65.94    -0.648 OA
ENDBRANCH  57  58
ENDBRANCH  56  57
BRANCH  56  61
ATOM     61  C   ASP E   7      25.956 -26.049  -2.092  1.00 49.55     0.220 C 
ATOM     62  O   ASP E   7      26.948 -26.597  -1.612  1.00 55.15    -0.287 OA
ENDBRANCH  56  61
ENDBRANCH  54  56
ENDBRANCH  47  52
ENDBRANCH  45  47
ENDBRANCH  38  43
ENDBRANCH  36  38
ENDBRANCH   1  34
BRANCH   1  63
ATOM     63  CB  LEU E   4      20.566 -18.008   0.493  1.00 22.63     0.038 C 
BRANCH  63  64
ATOM     64  CG  LEU E   4      21.631 -18.529   1.453  1.00 23.40    -0.020 C 
ATOM     65  CD2 LEU E   4      21.105 -18.452   2.886  1.00 23.91     0.009 C 
ATOM     66  CD1 LEU E   4      22.938 -17.774   1.312  1.00 22.51     0.009 C 
ENDBRANCH  63  64
ENDBRANCH   1  63
TORSDOF 29
