REMARK  20 active torsions:
REMARK  status: ('A' for Active; 'I' for Inactive)
REMARK    1  A    between atoms: CA_2  and  C_3 
REMARK       I    between atoms: C_3  and  N_8 
REMARK    2  A    between atoms: N_8  and  CA_9 
REMARK    3  A    between atoms: CA_9  and  CB_12 
REMARK    4  A    between atoms: CA_9  and  C_10 
REMARK       I    between atoms: C_10  and  N_25 
REMARK    5  A    between atoms: CB_12  and  CG_13 
REMARK    6  A    between atoms: CG_13  and  CD_14 
REMARK    7  A    between atoms: CD_14  and  NE_15 
REMARK       I    between atoms: NE_15  and  CZ_16 
REMARK       I    between atoms: CZ_16  and  NH1_17 
REMARK    8  A    between atoms: N_25  and  CA_26 
REMARK    9  A    between atoms: CA_26  and  CB_29 
REMARK   10  A    between atoms: CA_26  and  C_27 
REMARK       I    between atoms: C_27  and  N_34 
REMARK   11  A    between atoms: CB_29  and  CG_30 
REMARK   12  A    between atoms: CA_35  and  C_36 
REMARK       I    between atoms: C_36  and  N_41 
REMARK   13  A    between atoms: N_41  and  CA_42 
REMARK   14  A    between atoms: CA_42  and  C_43 
REMARK   15  A    between atoms: CA_42  and  CB_45 
REMARK       I    between atoms: C_43  and  N_50 
REMARK   16  A    between atoms: CB_45  and  CG_46 
REMARK   17  A    between atoms: N_50  and  CA_51 
REMARK   18  A    between atoms: CA_51  and  CB_54 
REMARK   19  A    between atoms: CA_51  and  C_52 
REMARK   20  A    between atoms: CB_54  and  CG_55 
ROOT
ATOM      1  CA  LEU G   4      40.634   4.439  25.849  1.00 72.45     0.177 C 
ENDROOT
BRANCH   1   2
ATOM      2  CB  LEU G   4      41.910   5.127  26.398  1.00 74.60     0.038 C 
BRANCH   2   3
ATOM      3  CG  LEU G   4      42.347   4.647  27.823  1.00 80.94    -0.020 C 
ATOM      4  CD2 LEU G   4      41.381   5.063  28.947  1.00 76.26     0.009 C 
ATOM      5  CD1 LEU G   4      43.783   5.077  28.150  1.00 74.38     0.009 C 
ENDBRANCH   2   3
ENDBRANCH   1   2
BRANCH   1   6
ATOM      6  C   LEU G   4      39.855   5.303  24.816  1.00 69.99     0.243 C 
ATOM      7  O   LEU G   4      40.095   5.233  23.574  1.00 62.75    -0.271 OA
ATOM      8  N   PRO G   5      38.860   6.073  25.327  1.00 68.53    -0.337 N 
ATOM      9  CA  PRO G   5      38.164   6.960  24.415  1.00 66.41     0.179 C 
ATOM     10  CD  PRO G   5      38.223   6.064  26.666  1.00 67.94     0.127 C 
ATOM     11  CB  PRO G   5      37.061   7.590  25.305  1.00 68.06     0.037 C 
ATOM     12  CG  PRO G   5      36.832   6.583  26.390  1.00 67.97     0.022 C 
BRANCH   9  13
ATOM     13  C   PRO G   5      39.152   7.985  23.848  1.00 65.16     0.241 C 
ATOM     14  N   LEU G   6      38.710   8.776  22.878  1.00 58.40    -0.346 N 
ATOM     15  H   LEU G   6      37.884   8.850  22.650  1.00 58.40     0.163 HD
ATOM     16  O   PRO G   5      40.313   8.046  24.290  1.00 57.12    -0.271 OA
BRANCH  14  17
ATOM     17  CA  LEU G   6      39.634   9.603  22.106  1.00 60.31     0.177 C 
BRANCH  17  18
ATOM     18  C   LEU G   6      39.897  10.987  22.693  1.00 60.34     0.241 C 
ATOM     19  O   LEU G   6      40.822  11.638  22.239  1.00 72.64    -0.271 OA
ATOM     20  N   LEU G   7      39.136  11.427  23.704  1.00 65.91    -0.347 N 
ATOM     21  H   LEU G   7      38.561  10.938  24.117  1.00 65.91     0.163 HD
BRANCH  20  22
ATOM     22  CA  LEU G   7      39.224  12.841  24.213  1.00 66.14     0.163 C 
BRANCH  22  23
ATOM     23  CB  LEU G   7      37.851  13.533  24.117  1.00 64.61     0.037 C 
BRANCH  23  24
ATOM     24  CG  LEU G   7      37.474  14.256  22.809  1.00 68.76    -0.020 C 
ATOM     25  CD2 LEU G   7      35.964  14.576  22.759  1.00 64.31     0.009 C 
ATOM     26  CD1 LEU G   7      37.957  13.495  21.569  1.00 66.72     0.009 C 
ENDBRANCH  23  24
ENDBRANCH  22  23
BRANCH  22  27
ATOM     27  C   LEU G   7      39.787  12.964  25.634  1.00 59.22     0.219 C 
ATOM     28  O   LEU G   7      39.633  12.041  26.420  1.00 55.72    -0.287 OA
ENDBRANCH  22  27
ENDBRANCH  20  22
ENDBRANCH  17  18
BRANCH  17  29
ATOM     29  CB  LEU G   6      39.193   9.684  20.623  1.00 54.67     0.038 C 
BRANCH  29  30
ATOM     30  CG  LEU G   6      38.984   8.247  20.093  1.00 53.09    -0.020 C 
ATOM     31  CD1 LEU G   6      38.292   8.294  18.756  1.00 49.97     0.009 C 
ATOM     32  CD2 LEU G   6      40.281   7.435  20.053  1.00 51.63     0.009 C 
ENDBRANCH  29  30
ENDBRANCH  17  29
ENDBRANCH  14  17
ENDBRANCH   9  13
ENDBRANCH   1   6
BRANCH   1  33
ATOM     33  N   LEU G   4      40.887   3.070  25.374  1.00 70.21    -0.346 N 
ATOM     34  C   ARG G   3      40.226   2.034  25.904  1.00 75.48     0.241 C 
ATOM     35  O   ARG G   3      39.427   2.185  26.870  1.00 65.52    -0.271 OA
ATOM     36  H   LEU G   4      41.475   3.005  24.750  1.00 70.21     0.163 HD
BRANCH  34  37
ATOM     37  CA  ARG G   3      40.522   0.613  25.293  1.00 78.48     0.176 C 
BRANCH  37  38
ATOM     38  CB  ARG G   3      39.850   0.428  23.915  1.00 76.51     0.036 C 
BRANCH  38  39
ATOM     39  CG  ARG G   3      40.679   0.888  22.726  1.00 78.92     0.023 C 
BRANCH  39  40
ATOM     40  CD  ARG G   3      40.108   0.393  21.394  1.00 76.70     0.138 C 
BRANCH  40  41
ATOM     41  NE  ARG G   3      40.918   0.748  20.201  1.00 80.12    -0.227 N 
ATOM     42  HE  ARG G   3      41.534   0.193  19.974  1.00 80.12     0.177 HD
ATOM     43  CZ  ARG G   3      40.787   1.852  19.436  1.00 82.69     0.665 C 
ATOM     44  NH1 ARG G   3      39.900   2.827  19.697  1.00 73.81    -0.235 N 
ATOM     45  NH2 ARG G   3      41.588   2.003  18.387  1.00 84.58    -0.235 N 
ATOM     46 HH11 ARG G   3      39.381   2.765  20.380  1.00 73.81     0.174 HD
ATOM     47 HH12 ARG G   3      39.851   3.514  19.181  1.00 73.81     0.174 HD
ATOM     48 HH22 ARG G   3      41.518   2.701  17.889  1.00 84.58     0.174 HD
ATOM     49 HH21 ARG G   3      42.177   1.403  18.206  1.00 84.58     0.174 HD
ENDBRANCH  40  41
ENDBRANCH  39  40
ENDBRANCH  38  39
ENDBRANCH  37  38
BRANCH  37  50
ATOM     50  N   ARG G   3      40.136  -0.500  26.209  1.00 95.22    -0.346 N 
ATOM     51  C   PRO G   2      40.545  -1.770  26.042  1.00105.18     0.254 C 
ATOM     52  O   PRO G   2      41.203  -2.133  25.060  1.00111.30    -0.271 OA
ATOM     53  H   ARG G   3      39.626  -0.252  26.856  1.00 95.22     0.163 HD
BRANCH  51  54
ATOM     54  CA  PRO G   2      40.154  -2.811  27.138  1.00104.44     0.352 C 
ATOM     55  N   PRO G   2      39.649  -4.085  26.610  1.00103.34     0.318 N 
ATOM     56  CD  PRO G   2      40.038  -5.233  27.462  1.00102.42     0.315 C 
ATOM     57  CG  PRO G   2      41.066  -4.655  28.417  1.00 98.38     0.035 C 
ATOM     58  CB  PRO G   2      41.382  -3.251  27.961  1.00102.80     0.050 C 
ENDBRANCH  51  54
ENDBRANCH  37  50
ENDBRANCH  34  37
ENDBRANCH   1  33
TORSDOF 20
