USER: ADFR SOLUTION from run 0
USER: SCORE 12.795597 LL:  -3.745 LR: -11.016 RR:   0.000 FEB:  -5.050
USER: RMSD 0.616069
USER: STATUS Locally minimized using BFGS
USER: GENES 22
USER: genes 0 Translation |==|  0.53184 0.48715 0.61677
USER: genes 1 Rotation |==|  0.49751 0.52107 0.48179 0.99922
USER: genes 2 Torsion [C]-CA--CB-[CG] |==|  0.42337
USER: genes 3 Torsion [CA]-CB--CG-[CD1] |==|  0.46189
USER: genes 4 Torsion [N]-CA--C-[N] |==|  0.36359
USER: genes 5 Torsion [N]-CA--C-[N] |==|  0.46978
USER: genes 6 Torsion [C]-N--CA-[C] |==|  0.75003
USER: genes 7 Torsion [N]-CA--C-[N] |==|  0.96613
USER: genes 8 Torsion [C]-N--CA-[CB] |==|  0.33919
USER: genes 9 Torsion [N]-CA--CB-[CG] |==|  0.75903
USER: genes 10 Torsion [CA]-CB--CG-[CD2] |==|  0.45287
USER: genes 11 Torsion [N]-CA--C-[O] |==|  0.92141
USER: genes 12 Torsion [N]-CA--CB-[CG] |==|  0.87440
USER: genes 13 Torsion [CA]-CB--CG-[CD2] |==|  0.82335
USER: genes 14 Torsion [CB]-CA--N-[C] |==|  0.35033
USER: genes 15 Torsion [N]-C--CA-[N] |==|  0.43361
USER: genes 16 Torsion [C]-CA--CB-[CG] |==|  0.27714
USER: genes 17 Torsion [CA]-CB--CG-[CD] |==|  0.45682
USER: genes 18 Torsion [CB]-CG--CD-[NE] |==|  0.52448
USER: genes 19 Torsion [CG]-CD--NE-[HE] |==|  0.24202
USER: genes 20 Torsion [C]-CA--N-[C] |==|  0.54254
USER: genes 21 Torsion [N]-C--CA-[CB] |==|  0.69039
ROOT
ATOM      1  CA  LEU G   4      40.398   4.305  25.695  1.00 72.45 LIG 0.18  C 
ENDROOT
BRANCH 1 2
ATOM      2  CB  LEU G   4      41.763   4.902  26.126  1.00 74.60 LIG 0.04  C 
BRANCH 2 3
ATOM      3  CG  LEU G   4      42.266   4.427  27.531  1.00 80.94 LIG-0.02  C 
ATOM      4  CD2 LEU G   4      41.407   4.927  28.706  1.00 76.26 LIG 0.01  C 
ATOM      5  CD1 LEU G   4      43.745   4.773  27.749  1.00 74.38 LIG 0.01  C 
ENDBRANCH 2 3
ENDBRANCH 1 2
BRANCH 1 6
ATOM      6  C   LEU G   4      39.599   5.216  24.720  1.00 69.99 LIG 0.24  C 
ATOM      7 O    LEU G   4      39.809   5.200  23.471  1.00 62.75 LIG-0.27  OA
ATOM      8  N   PRO G   5      38.621   5.967  25.288  1.00 68.53 LIG-0.34  N 
ATOM      9  CA  PRO G   5      37.908   6.896  24.432  1.00 66.41 LIG 0.18  C 
ATOM     10  CD  PRO G   5      38.016   5.902  26.640  1.00 67.94 LIG 0.13  C 
ATOM     11  CB  PRO G   5      36.829   7.491  25.375  1.00 68.06 LIG 0.04  C 
ATOM     12  CG  PRO G   5      36.621   6.438  26.420  1.00 67.97 LIG 0.02  C 
BRANCH 9 13
ATOM     13  C   PRO G   5      38.887   7.941  23.887  1.00 65.16 LIG 0.24  C 
ATOM     14  N   LEU G   6      38.447   8.731  22.916  1.00 58.40 LIG-0.35  N 
ATOM     15 H    LEU G   6      37.623   8.793  22.676  1.00 58.40 LIG 0.16  HD
ATOM     16 O    PRO G   5      40.040   8.018  24.347  1.00 57.12 LIG-0.27  OA
BRANCH 14 17
ATOM     17  CA  LEU G   6      39.368   9.579  22.164  1.00 60.31 LIG 0.18  C 
BRANCH 17 18
ATOM     18  C   LEU G   6      39.582  10.971  22.751  1.00 60.34 LIG 0.24  C 
ATOM     19 O    LEU G   6      40.518  11.632  22.338  1.00 72.64 LIG-0.27  OA
ATOM     20  N   LEU G   7      38.766  11.407  23.720  1.00 65.91 LIG-0.35  N 
ATOM     21 H    LEU G   7      38.178  10.912  24.109  1.00 65.91 LIG 0.16  HD
BRANCH 20 22
ATOM     22  CA  LEU G   7      38.808  12.826  24.221  1.00 66.14 LIG 0.16  C 
BRANCH 22 23
ATOM     23  CB  LEU G   7      37.431  13.496  24.053  1.00 64.61 LIG 0.04  C 
BRANCH 23 24
ATOM     24  CG  LEU G   7      37.096  14.178  22.712  1.00 68.76 LIG-0.02  C 
ATOM     25  CD2 LEU G   7      35.576  14.414  22.566  1.00 64.31 LIG 0.01  C 
ATOM     26  CD1 LEU G   7      37.693  13.426  21.517  1.00 66.72 LIG 0.01  C 
ENDBRANCH 23 24
ENDBRANCH 22 23
BRANCH 22 27
ATOM     27  C   LEU G   7      39.300  12.968  25.667  1.00 59.22 LIG 0.22  C 
ATOM     28 O    LEU G   7      39.123  12.048  26.451  1.00 55.72 LIG-0.29  OA
ENDBRANCH 22 27
ENDBRANCH 20 22
ENDBRANCH 17 18
BRANCH 17 29
ATOM     29  CB  LEU G   6      38.962   9.643  20.670  1.00 54.67 LIG 0.04  C 
BRANCH 29 30
ATOM     30  CG  LEU G   6      38.632   8.212  20.188  1.00 53.09 LIG-0.02  C 
ATOM     31  CD1 LEU G   6      38.005   8.269  18.819  1.00 49.97 LIG 0.01  C 
ATOM     32  CD2 LEU G   6      39.841   7.275  20.240  1.00 51.63 LIG 0.01  C 
ENDBRANCH 29 30
ENDBRANCH 17 29
ENDBRANCH 14 17
ENDBRANCH 9 13
ENDBRANCH 1 6
BRANCH 1 33
ATOM     33  N   LEU G   4      40.511   2.918  25.218  1.00 70.21 LIG-0.35  N 
ATOM     34  C   ARG G   3      39.754   1.952  25.753  1.00 75.48 LIG 0.24  C 
ATOM     35 O    ARG G   3      38.980   2.181  26.724  1.00 65.52 LIG-0.27  OA
ATOM     36 H    LEU G   4      41.085   2.795  24.590  1.00 70.21 LIG 0.16  HD
BRANCH 34 37
ATOM     37  CA  ARG G   3      39.903   0.509  25.140  1.00 78.48 LIG 0.18  C 
BRANCH 37 38
ATOM     38  CB  ARG G   3      39.123   0.364  23.815  1.00 76.51 LIG 0.04  C 
BRANCH 38 39
ATOM     39  CG  ARG G   3      39.965   0.487  22.554  1.00 78.92 LIG 0.02  C 
BRANCH 39 40
ATOM     40  CD  ARG G   3      39.234  -0.034  21.314  1.00 76.70 LIG 0.14  C 
BRANCH 40 41
ATOM     41  NE  ARG G   3      40.073  -0.131  20.093  1.00 80.12 LIG-0.23  N 
ATOM     42 HE   ARG G   3      40.513  -0.862  19.985  1.00 80.12 LIG 0.18  HD
ATOM     43  CZ  ARG G   3      40.217   0.809  19.136  1.00 82.69 LIG 0.67  C 
ATOM     44  NH1 ARG G   3      39.628   2.015  19.195  1.00 73.81 LIG-0.23  N 
ATOM     45  NH2 ARG G   3      40.998   0.547  18.093  1.00 84.58 LIG-0.23  N 
ATOM     46 1HH1 ARG G   3      39.132   2.219  19.866  1.00 73.81 LIG 0.17  HD
ATOM     47 2HH1 ARG G   3      39.748   2.584  18.560  1.00 73.81 LIG 0.17  HD
ATOM     48 2HH2 ARG G   3      41.101   1.135  17.474  1.00 84.58 LIG 0.17  HD
ATOM     49 1HH2 ARG G   3      41.401  -0.210  18.038  1.00 84.58 LIG 0.17  HD
ENDBRANCH 40 41
ENDBRANCH 39 40
ENDBRANCH 38 39
ENDBRANCH 37 38
BRANCH 37 50
ATOM     50  N   ARG G   3      39.503  -0.566  26.094  1.00 95.22 LIG-0.35  N 
ATOM     51  C   PRO G   2      39.816  -1.862  25.920  1.00105.18 LIG 0.25  C 
ATOM     52 O    PRO G   2      40.386  -2.278  24.904  1.00111.30 LIG-0.27  OA
ATOM     53 H    ARG G   3      39.052  -0.278  26.768  1.00 95.22 LIG 0.16  HD
BRANCH 51 54
ATOM     54  CA  PRO G   2      39.428  -2.864  27.053  1.00104.44 LIG 0.35  C 
ATOM     55  N   PRO G   2      38.767  -4.087  26.580  1.00103.34 LIG 0.32  N 
ATOM     56  CD  PRO G   2      39.122  -5.265  27.404  1.00102.42 LIG 0.32  C 
ATOM     57  CG  PRO G   2      40.276  -4.783  28.264  1.00 98.38 LIG 0.04  C 
ATOM     58  CB  PRO G   2      40.677  -3.413  27.772  1.00102.80 LIG 0.05  C 
ENDBRANCH 51 54
ENDBRANCH 37 50
ENDBRANCH 34 37
ENDBRANCH 1 33
TORSDOF 20
