REMARK  18 active torsions:
REMARK  status: ('A' for Active; 'I' for Inactive)
REMARK    1  A    between atoms: CA_2  and  C_3 
REMARK    2  A    between atoms: CA_2  and  CB_5 
REMARK       I    between atoms: C_3  and  N_12 
REMARK    3  A    between atoms: CB_5  and  CG_6 
REMARK    4  A    between atoms: CA_13  and  C_14 
REMARK       I    between atoms: C_14  and  N_19 
REMARK    5  A    between atoms: N_19  and  CA_20 
REMARK    6  A    between atoms: CA_20  and  C_21 
REMARK    7  A    between atoms: CA_20  and  CB_23 
REMARK       I    between atoms: C_21  and  N_28 
REMARK    8  A    between atoms: CB_23  and  CG_24 
REMARK    9  A    between atoms: N_28  and  CA_29 
REMARK   10  A    between atoms: CA_29  and  CB_32 
REMARK   11  A    between atoms: CA_29  and  C_30 
REMARK       I    between atoms: C_30  and  N_37 
REMARK   12  A    between atoms: CB_32  and  CG_33 
REMARK   13  A    between atoms: N_37  and  CA_38 
REMARK   14  A    between atoms: CA_38  and  CB_41 
REMARK   15  A    between atoms: CA_38  and  C_39 
REMARK       I    between atoms: C_39  and  N_46 
REMARK   16  A    between atoms: CB_41  and  CG_42 
REMARK   17  A    between atoms: N_46  and  CA_47 
REMARK   18  A    between atoms: CA_47  and  C_48 
ROOT
ATOM      1  C   LEU B 341      28.130   4.854 -43.435  1.00 14.43     0.241 C 
ATOM      2  O   LEU B 341      27.166   4.131 -43.186  1.00 17.21    -0.271 OA
ATOM      3  N   ASP B 342      29.349   4.382 -43.647  1.00 15.70    -0.346 N 
ATOM      4  H   ASP B 342      30.013   4.856 -43.919  1.00 15.70     0.163 HD
ENDROOT
BRANCH   1   5
ATOM      5  CA  LEU B 341      28.005   6.375 -43.509  1.00 14.64     0.177 C 
BRANCH   5   6
ATOM      6  CB  LEU B 341      28.196   6.955 -42.106  1.00 15.72     0.038 C 
BRANCH   6   7
ATOM      7  CG  LEU B 341      28.216   8.472 -42.068  1.00 16.60    -0.020 C 
ATOM      8  CD1 LEU B 341      27.951   8.938 -40.655  1.00 17.44     0.009 C 
ATOM      9  CD2 LEU B 341      29.525   9.036 -42.620  1.00 18.85     0.009 C 
ENDBRANCH   6   7
ENDBRANCH   5   6
BRANCH   5  10
ATOM     10  N   LEU B 341      26.697   6.813 -43.988  1.00 16.77    -0.346 N 
ATOM     11  C   PRO B 340      26.396   6.767 -45.281  1.00 19.25     0.241 C 
ATOM     12  O   PRO B 340      27.128   6.279 -46.149  1.00 21.28    -0.271 OA
ATOM     13  H   LEU B 341      26.163   7.092 -43.375  1.00 16.77     0.163 HD
BRANCH  11  14
ATOM     14  CA  PRO B 340      25.027   7.307 -45.629  1.00 21.04     0.179 C 
ATOM     15  N   PRO B 340      24.916   7.840 -47.008  1.00 20.95    -0.337 N 
ATOM     16  CD  PRO B 340      23.804   7.221 -47.749  1.00 22.76     0.127 C 
ATOM     17  C   PHE B 339      25.657   8.886 -47.368  1.00 19.72     0.260 C 
ATOM     18  CG  PRO B 340      23.046   6.535 -46.632  1.00 24.91     0.022 C 
ATOM     19  CB  PRO B 340      24.051   6.147 -45.631  1.00 23.27     0.037 C 
ATOM     20  O   PHE B 339      26.514   9.355 -46.605  1.00 19.38    -0.271 OA
BRANCH  17  21
ATOM     21  CA  PHE B 339      25.403   9.491 -48.748  1.00 21.94     0.404 C 
ATOM     22  N   PHE B 339      25.467  10.944 -48.713  1.00 23.90     0.615 N 
BRANCH  21  23
ATOM     23  CB  PHE B 339      26.423   8.963 -49.748  1.00 24.29     0.089 C 
BRANCH  23  24
ATOM     24  CG  PHE B 339      26.086   7.612 -50.310  1.00 28.97    -0.056 A 
ATOM     25  CD1 PHE B 339      24.905   7.411 -51.021  1.00 31.92     0.007 A 
ATOM     26  CE1 PHE B 339      24.590   6.163 -51.544  1.00 33.96     0.001 A 
ATOM     27  CZ  PHE B 339      25.474   5.102 -51.371  1.00 35.90     0.000 A 
ATOM     28  CE2 PHE B 339      26.665   5.292 -50.668  1.00 35.56     0.001 A 
ATOM     29  CD2 PHE B 339      26.962   6.547 -50.143  1.00 33.37     0.007 A 
ENDBRANCH  23  24
ENDBRANCH  21  23
ENDBRANCH  17  21
ENDBRANCH  11  14
ENDBRANCH   5  10
ENDBRANCH   1   5
BRANCH   3  30
ATOM     30  CA  ASP B 342      29.654   2.972 -43.423  1.00 16.21     0.186 C 
BRANCH  30  31
ATOM     31  CB  ASP B 342      30.934   2.608 -44.149  1.00 18.68     0.147 C 
BRANCH  31  32
ATOM     32  CG  ASP B 342      30.775   2.469 -45.619  1.00 22.92     0.175 C 
ATOM     33  OD1 ASP B 342      29.629   2.433 -46.140  1.00 25.81    -0.648 OA
ATOM     34  OD2 ASP B 342      31.847   2.395 -46.250  1.00 25.94    -0.648 OA
ENDBRANCH  31  32
ENDBRANCH  30  31
BRANCH  30  35
ATOM     35  C   ASP B 342      29.911   2.679 -41.939  1.00 16.03     0.241 C 
ATOM     36  N   LEU B 343      29.639   1.430 -41.540  1.00 16.72    -0.346 N 
ATOM     37  H   LEU B 343      29.151   0.886 -41.993  1.00 16.72     0.163 HD
ATOM     38  O   ASP B 342      30.433   3.523 -41.217  1.00 14.87    -0.271 OA
BRANCH  36  39
ATOM     39  CA  LEU B 343      30.150   0.865 -40.285  1.00 16.14     0.177 C 
BRANCH  39  40
ATOM     40  CB  LEU B 343      29.219  -0.204 -39.725  1.00 19.18     0.038 C 
BRANCH  40  41
ATOM     41  CG  LEU B 343      27.907   0.342 -39.130  1.00 20.67    -0.020 C 
ATOM     42  CD1 LEU B 343      26.951  -0.835 -38.862  1.00 23.87     0.009 C 
ATOM     43  CD2 LEU B 343      28.179   1.115 -37.850  1.00 22.92     0.009 C 
ENDBRANCH  40  41
ENDBRANCH  39  40
BRANCH  39  44
ATOM     44  C   LEU B 343      31.534   0.246 -40.515  1.00 14.33     0.241 C 
ATOM     45  O   LEU B 343      31.803  -0.365 -41.565  1.00 16.10    -0.271 OA
ATOM     46  N   ALA B 344      32.401   0.390 -39.539  1.00 14.89    -0.345 N 
ATOM     47  H   ALA B 344      32.266   0.862 -38.833  1.00 14.89     0.163 HD
BRANCH  46  48
ATOM     48  CA  ALA B 344      33.713  -0.278 -39.599  1.00 15.57     0.181 C 
ATOM     49  CB  ALA B 344      34.534   0.063 -38.392  1.00 18.12     0.043 C 
BRANCH  48  50
ATOM     50  C   ALA B 344      33.517  -1.789 -39.655  1.00 15.03     0.196 C 
ATOM     51  OXT ALA B 344      34.214  -2.495 -40.399  1.00 16.10    -0.646 OA
ATOM     52  O   ALA B 344      32.673  -2.280 -38.859  1.00 15.80    -0.646 OA
ENDBRANCH  48  50
ENDBRANCH  46  48
ENDBRANCH  39  44
ENDBRANCH  36  39
ENDBRANCH  30  35
ENDBRANCH   3  30
TORSDOF 18
