USER: ADFR SOLUTION from run 0
USER: SCORE 20.146019 LL:  -4.435 LR: -19.144 RR:   0.000 FEB: -11.388
USER: RMSD 0.369953
USER: STATUS Locally minimized using BFGS
USER: GENES 28
USER: genes 0 Translation |==|  0.59169 0.63368 0.53499
USER: genes 1 Rotation |==|  0.48481 0.49389 0.48590 0.99953
USER: genes 2 Torsion [CB]-CA--N-[C] |==|  0.27774
USER: genes 3 Torsion [N]-C--CA-[N] |==|  0.35222
USER: genes 4 Torsion [C]-CA--N-[C] |==|  0.63783
USER: genes 5 Torsion [N]-C--CA-[N] |==|  0.44359
USER: genes 6 Torsion [C]-CA--N-[C] |==|  0.66732
USER: genes 7 Torsion [N]-C--CA-[N] |==|  0.43973
USER: genes 8 Torsion [C]-CA--CB-[CG] |==|  0.45975
USER: genes 9 Torsion [CA]-CB--CG-[CD] |==|  0.53110
USER: genes 10 Torsion [CB]-CG--CD-[OE1] |==|  0.87235
USER: genes 11 Torsion [C]-CA--N-[C] |==|  0.65535
USER: genes 12 Torsion [C]-CA--CB-[CG] |==|  0.49748
USER: genes 13 Torsion [CA]-CB--CG-[CD] |==|  0.42748
USER: genes 14 Torsion [CB]-CG--CD-[OE1] |==|  0.78979
USER: genes 15 Torsion [N]-CA--C-[N] |==|  0.36125
USER: genes 16 Torsion [C]-N--CA-[CB] |==|  0.41467
USER: genes 17 Torsion [N]-CA--CB-[CG] |==|  0.49069
USER: genes 18 Torsion [CA]-CB--CG-[CD] |==|  0.45388
USER: genes 19 Torsion [CB]-CG--CD-[NE] |==|  0.76057
USER: genes 20 Torsion [CG]-CD--NE-[HE] |==|  0.27311
USER: genes 21 Torsion [N]-CA--C-[N] |==|  0.37246
USER: genes 22 Torsion [C]-N--CA-[CB] |==|  0.30345
USER: genes 23 Torsion [N]-CA--CB-[CG] |==|  0.82054
USER: genes 24 Torsion [CA]-CB--CG-[CD1] |==|  0.41413
USER: genes 25 Torsion [N]-CA--C-[OXT] |==|  0.96480
USER: genes 26 Torsion [N]-CA--CB-[OG1] |==|  0.84295
USER: genes 27 Torsion [CA]-CB--OG1-[HG1] |==|  0.23466
ROOT
ATOM      1  CA  THR B 990       2.637  -8.458 -21.473  1.00 21.72 LIG 0.20  C 
ENDROOT
BRANCH 1 2
ATOM      2  N   THR B 990       1.542  -9.067 -22.223  1.00 18.80 LIG-0.34  N 
ATOM      3  C   GLN B 989       1.102  -8.563 -23.373  1.00 20.29 LIG 0.24  C 
ATOM      4 O    GLN B 989       1.607  -7.570 -23.910  1.00 25.34 LIG-0.27  OA
ATOM      5 H    THR B 990       1.214  -9.772 -21.856  1.00 18.80 LIG 0.16  HD
BRANCH 3 6
ATOM      6  CA  GLN B 989      -0.064  -9.282 -24.039  1.00 20.93 LIG 0.18  C 
BRANCH 6 7
ATOM      7  N   GLN B 989      -1.118  -8.310 -24.308  1.00 21.51 LIG-0.35  N 
ATOM      8  C   ALA B 988      -2.396  -8.489 -23.973  1.00 19.82 LIG 0.24  C 
ATOM      9 O    ALA B 988      -2.816  -9.501 -23.406  1.00 21.07 LIG-0.27  OA
ATOM     10 H    GLN B 989      -0.836  -7.601 -24.706  1.00 21.51 LIG 0.16  HD
BRANCH 8 11
ATOM     11  CA  ALA B 988      -3.333  -7.351 -24.345  1.00 22.60 LIG 0.17  C 
ATOM     12  CB  ALA B 988      -3.187  -6.193 -23.354  1.00 24.03 LIG 0.04  C 
BRANCH 11 13
ATOM     13  N   ALA B 988      -4.691  -7.859 -24.374  1.00 21.45 LIG-0.35  N 
ATOM     14  C   GLU B 987      -5.451  -7.833 -25.461  1.00 22.73 LIG 0.24  C 
ATOM     15 O    GLU B 987      -5.158  -7.209 -26.484  1.00 25.22 LIG-0.27  OA
ATOM     16 H    ALA B 988      -4.957  -8.179 -23.621  1.00 21.45 LIG 0.16  HD
BRANCH 14 17
ATOM     17  CA  GLU B 987      -6.738  -8.629 -25.376  1.00 20.66 LIG 0.18  C 
BRANCH 17 18
ATOM     18  CB  GLU B 987      -6.423 -10.104 -25.595  1.00 22.09 LIG 0.04  C 
BRANCH 18 19
ATOM     19  CG  GLU B 987      -7.529 -11.061 -25.205  1.00 27.98 LIG 0.12  C 
BRANCH 19 20
ATOM     20  CD  GLU B 987      -7.046 -12.498 -25.194  1.00 24.84 LIG 0.17  C 
ATOM     21 OE1  GLU B 987      -6.363 -12.902 -26.160  1.00 22.19 LIG-0.65  OA
ATOM     22 OE2  GLU B 987      -7.320 -13.217 -24.212  1.00 23.04 LIG-0.65  OA
ENDBRANCH 19 20
ENDBRANCH 18 19
ENDBRANCH 17 18
BRANCH 17 23
ATOM     23  N   GLU B 987      -7.700  -8.140 -26.358  1.00 23.24 LIG-0.35  N 
ATOM     24 H    GLU B 987      -7.407  -8.143 -27.167  1.00 23.24 LIG 0.16  HD
ATOM     25  C   ACE B 986      -8.919  -7.728 -26.016  1.00 26.84 LIG 0.21  C 
ATOM     26  CH3 ACE B 986      -9.767  -7.252 -27.161  1.00 28.09 LIG 0.12  C 
ATOM     27 O    ACE B 986      -9.336  -7.737 -24.859  1.00 26.08 LIG-0.27  OA
ENDBRANCH 17 23
ENDBRANCH 14 17
ENDBRANCH 11 13
ENDBRANCH 8 11
ENDBRANCH 6 7
BRANCH 6 28
ATOM     28  CB  GLN B 989       0.405  -9.952 -25.335  1.00 26.69 LIG 0.04  C 
BRANCH 28 29
ATOM     29  CG  GLN B 989      -0.680 -10.721 -26.075  1.00 35.87 LIG 0.10  C 
BRANCH 29 30
ATOM     30  CD  GLN B 989      -0.408 -10.820 -27.562  1.00 52.60 LIG 0.21  C 
ATOM     31  NE2 GLN B 989       0.034 -11.992 -28.013  1.00 32.18 LIG-0.37  N 
ATOM     32 21HE GLN B 989       0.149 -12.646 -27.467  1.00 32.18 LIG 0.16  HD
ATOM     33 22HE GLN B 989       0.205 -12.093 -28.849  1.00 32.18 LIG 0.16  HD
ATOM     34 OE1  GLN B 989      -0.590  -9.852 -28.298  1.00 38.19 LIG-0.27  OA
ENDBRANCH 29 30
ENDBRANCH 28 29
ENDBRANCH 6 28
ENDBRANCH 3 6
ENDBRANCH 1 2
BRANCH 1 35
ATOM     35  C   THR B 990       3.561  -9.546 -20.941  1.00 20.40 LIG 0.24  C 
ATOM     36  N   ARG B 991       4.864  -9.390 -21.174  1.00 18.25 LIG-0.35  N 
ATOM     37 H    ARG B 991       5.191  -8.758 -21.657  1.00 18.25 LIG 0.16  HD
ATOM     38 O    THR B 990       3.095 -10.511 -20.328  1.00 21.77 LIG-0.27  OA
BRANCH 36 39
ATOM     39  CA  ARG B 991       5.863 -10.296 -20.619  1.00 18.44 LIG 0.18  C 
BRANCH 39 40
ATOM     40  CB  ARG B 991       7.078 -10.419 -21.541  1.00 17.17 LIG 0.04  C 
BRANCH 40 41
ATOM     41  CG  ARG B 991       8.168 -11.289 -20.955  1.00 18.12 LIG 0.02  C 
BRANCH 41 42
ATOM     42  CD  ARG B 991       9.158 -11.729 -21.998  1.00 20.13 LIG 0.14  C 
BRANCH 42 43
ATOM     43  NE  ARG B 991       8.728 -12.945 -22.686  1.00 19.75 LIG-0.23  N 
ATOM     44 HE   ARG B 991       8.345 -12.862 -23.451  1.00 19.75 LIG 0.18  HD
ATOM     45  CZ  ARG B 991       8.893 -14.175 -22.201  1.00 21.42 LIG 0.67  C 
ATOM     46  NH2 ARG B 991       8.477 -15.223 -22.893  1.00 25.04 LIG-0.23  N 
ATOM     47  NH1 ARG B 991       9.468 -14.363 -21.022  1.00 21.33 LIG-0.23  N 
ATOM     48 2HH2 ARG B 991       8.585 -16.016 -22.579  1.00 25.04 LIG 0.17  HD
ATOM     49 1HH2 ARG B 991       8.099 -15.111 -23.657  1.00 25.04 LIG 0.17  HD
ATOM     50 2HH1 ARG B 991       9.571 -15.161 -20.717  1.00 21.33 LIG 0.17  HD
ATOM     51 1HH1 ARG B 991       9.737 -13.689 -20.562  1.00 21.33 LIG 0.17  HD
ENDBRANCH 42 43
ENDBRANCH 41 42
ENDBRANCH 40 41
ENDBRANCH 39 40
BRANCH 39 52
ATOM     52  C   ARG B 991       6.291  -9.786 -19.250  1.00 19.80 LIG 0.24  C 
ATOM     53  N   LEU B 992       6.354 -10.693 -18.280  1.00 20.89 LIG-0.34  N 
ATOM     54 H    LEU B 992       6.215 -11.533 -18.401  1.00 20.89 LIG 0.16  HD
ATOM     55 O    ARG B 991       6.557  -8.589 -19.080  1.00 18.76 LIG-0.27  OA
BRANCH 53 56
ATOM     56  CA  LEU B 992       6.672 -10.333 -16.903  1.00 21.42 LIG 0.18  C 
BRANCH 56 57
ATOM     57  CB  LEU B 992       5.425 -10.477 -16.024  1.00 24.29 LIG 0.04  C 
BRANCH 57 58
ATOM     58  CG  LEU B 992       4.306  -9.498 -16.410  1.00 26.83 LIG-0.02  C 
ATOM     59  CD1 LEU B 992       2.923 -10.062 -16.137  1.00 69.60 LIG 0.01  C 
ATOM     60  CD2 LEU B 992       4.509  -8.164 -15.708  1.00 26.77 LIG 0.01  C 
ENDBRANCH 57 58
ENDBRANCH 56 57
BRANCH 56 61
ATOM     61  C   LEU B 992       7.815 -11.188 -16.357  1.00 23.41 LIG 0.20  C 
ATOM     62 OXT  LEU B 992       8.208 -12.203 -16.945  1.00 23.28 LIG-0.65  OA
ATOM     63 O    LEU B 992       8.371 -10.867 -15.305  1.00 25.47 LIG-0.65  OA
ENDBRANCH 56 61
ENDBRANCH 53 56
ENDBRANCH 39 52
ENDBRANCH 36 39
ENDBRANCH 1 35
BRANCH 1 64
ATOM     64  CB  THR B 990       2.108  -7.603 -20.307  1.00 25.20 LIG 0.15  C 
ATOM     65  CG2 THR B 990       3.249  -6.921 -19.573  1.00 22.41 LIG 0.04  C 
BRANCH 64 66
ATOM     66 OG1  THR B 990       1.202  -6.601 -20.798  1.00 22.69 LIG-0.39  OA
ATOM     67 HG1  THR B 990       0.433  -6.931 -20.873  1.00 22.69 LIG 0.21  HD
ENDBRANCH 64 66
ENDBRANCH 1 64
TORSDOF 26
