REMARK  25 active torsions:
REMARK  status: ('A' for Active; 'I' for Inactive)
REMARK       I    between atoms: C_1  and  N_4 
REMARK    1  A    between atoms: N_4  and  CA_5 
REMARK    2  A    between atoms: CA_5  and  C_6 
REMARK       I    between atoms: C_6  and  N_10 
REMARK    3  A    between atoms: N_10  and  CA_11 
REMARK    4  A    between atoms: CA_11  and  CB_14 
REMARK    5  A    between atoms: CA_11  and  C_12 
REMARK       I    between atoms: C_12  and  N_27 
REMARK    6  A    between atoms: CB_14  and  CG_15 
REMARK    7  A    between atoms: CG_15  and  CD_16 
REMARK    8  A    between atoms: CD_16  and  NE_17 
REMARK       I    between atoms: NE_17  and  CZ_18 
REMARK       I    between atoms: CZ_18  and  NH1_19 
REMARK    9  A    between atoms: N_27  and  CA_28 
REMARK   10  A    between atoms: CA_28  and  CB_31 
REMARK   11  A    between atoms: CA_28  and  C_29 
REMARK       I    between atoms: C_29  and  N_36 
REMARK   12  A    between atoms: CB_31  and  OG1_32 
REMARK   13  A    between atoms: N_36  and  CA_37 
REMARK   14  A    between atoms: CA_37  and  CB_40 
REMARK   15  A    between atoms: CA_37  and  C_38 
REMARK       I    between atoms: C_38  and  N_46 
REMARK   16  A    between atoms: CB_40  and  CG_41 
REMARK   17  A    between atoms: CG_41  and  CD_42 
REMARK   18  A    between atoms: N_46  and  CA_47 
REMARK   19  A    between atoms: CA_47  and  C_48 
REMARK   20  A    between atoms: CA_47  and  CB_50 
REMARK       I    between atoms: C_48  and  N_54 
REMARK   21  A    between atoms: N_54  and  CA_55 
REMARK   22  A    between atoms: CA_55  and  C_56 
REMARK   23  A    between atoms: CA_55  and  CB_58 
REMARK   24  A    between atoms: CB_58  and  CG_59 
REMARK   25  A    between atoms: CZ_64  and  OH_65 
ROOT
ATOM      1  C   THR D   3       4.410   0.497   0.391  1.00 23.43     0.243 C 
ATOM      2  O   THR D   3       4.755  -0.516   0.999  1.00 24.39    -0.271 OA
ATOM      3  N   GLU D   4       4.351   0.561  -0.936  1.00 25.01    -0.346 N 
ATOM      4  H   GLU D   4       4.086   1.256  -1.368  1.00 25.01     0.163 HD
ENDROOT
BRANCH   1   5
ATOM      5  CA  THR D   3       4.024   1.768   1.152  1.00 20.85     0.205 C 
BRANCH   5   6
ATOM      6  N   THR D   3       3.591   2.841   0.265  1.00 20.16    -0.344 N 
ATOM      7  H   THR D   3       2.738   2.901   0.173  1.00 20.16     0.163 HD
ATOM      8  C   ARG D   2       4.459   3.646  -0.339  1.00 20.73     0.241 C 
ATOM      9  O   ARG D   2       5.681   3.516  -0.240  1.00 19.88    -0.271 OA
BRANCH   8  10
ATOM     10  CA  ARG D   2       3.859   4.750  -1.203  1.00 21.07     0.176 C 
BRANCH  10  11
ATOM     11  CB  ARG D   2       3.727   6.051  -0.399  1.00 18.72     0.036 C 
BRANCH  11  12
ATOM     12  CG  ARG D   2       5.068   6.655   0.030  1.00 17.25     0.023 C 
BRANCH  12  13
ATOM     13  CD  ARG D   2       4.879   7.907   0.885  1.00 15.57     0.138 C 
BRANCH  13  14
ATOM     14  NE  ARG D   2       4.199   8.976   0.160  1.00 16.78    -0.227 N 
ATOM     15  HE  ARG D   2       3.339   8.978   0.160  1.00 16.78     0.177 HD
ATOM     16  CZ  ARG D   2       4.824   9.947  -0.500  1.00 18.57     0.665 C 
ATOM     17  NH2 ARG D   2       4.123  10.879  -1.134  1.00 17.94    -0.235 N 
ATOM     18  NH1 ARG D   2       6.150   9.991  -0.523  1.00 16.85    -0.235 N 
ATOM     19 HH21 ARG D   2       3.263  10.856  -1.118  1.00 17.94     0.174 HD
ATOM     20 HH22 ARG D   2       4.528  11.506  -1.560  1.00 17.94     0.174 HD
ATOM     21 HH12 ARG D   2       6.552  10.620  -0.950  1.00 16.85     0.174 HD
ATOM     22 HH11 ARG D   2       6.607   9.391  -0.111  1.00 16.85     0.174 HD
ENDBRANCH  13  14
ENDBRANCH  12  13
ENDBRANCH  11  12
ENDBRANCH  10  11
BRANCH  10  23
ATOM     23  N   ARG D   2       2.572   4.353  -1.775  1.00 21.51    -0.346 N 
ATOM     24  C   ALA D   1       2.478   3.318  -2.604  1.00 21.30     0.240 C 
ATOM     25  O   ALA D   1       3.438   2.605  -2.884  1.00 21.16    -0.271 OA
ATOM     26  H   ARG D   2       1.906   4.839  -1.530  1.00 21.51     0.163 HD
BRANCH  24  27
ATOM     27  CA  ALA D   1       1.100   3.031  -3.201  1.00 21.78     0.172 C 
ATOM     28  CB  ALA D   1       0.947   3.732  -4.541  1.00 21.47     0.042 C 
BRANCH  27  29
ATOM     29  N   ALA D   1       0.009   3.405  -2.303  1.00 22.15    -0.348 N 
ATOM     30  H   ALA D   1      -0.519   4.000  -2.631  1.00 22.15     0.163 HD
HETATM   31  C   ACE D   0      -0.154   2.877  -1.093  1.00 22.99     0.214 C 
HETATM   32  O   ACE D   0       0.742   2.341  -0.438  1.00 24.10    -0.274 OA
HETATM   33  CH3 ACE D   0      -1.429   3.356  -0.465  1.00 21.14     0.117 C 
ENDBRANCH  27  29
ENDBRANCH  24  27
ENDBRANCH  10  23
ENDBRANCH   8  10
ENDBRANCH   5   6
BRANCH   5  34
ATOM     34  CB  THR D   3       2.939   1.444   2.196  1.00 19.16     0.146 C 
ATOM     35  CG2 THR D   3       2.558   2.700   2.961  1.00 17.08     0.042 C 
BRANCH  34  36
ATOM     36  OG1 THR D   3       1.776   0.924   1.538  1.00 20.38    -0.393 OA
ATOM     37  HG1 THR D   3       1.496   1.485   0.979  1.00 20.38     0.210 HD
ENDBRANCH  34  36
ENDBRANCH   5  34
ENDBRANCH   1   5
BRANCH   3  38
ATOM     38  CA  GLU D   4       4.737  -0.560  -1.789  1.00 28.82     0.177 C 
BRANCH  38  39
ATOM     39  CB  GLU D   4       3.553  -1.015  -2.648  1.00 31.32     0.045 C 
BRANCH  39  40
ATOM     40  CG  GLU D   4       2.400  -1.620  -1.863  1.00 34.96     0.116 C 
BRANCH  40  41
ATOM     41  CD  GLU D   4       2.742  -2.978  -1.282  1.00 38.68     0.172 C 
ATOM     42  OE2 GLU D   4       2.221  -3.311  -0.197  1.00 39.24    -0.648 OA
ATOM     43  OE1 GLU D   4       3.536  -3.711  -1.908  1.00 40.65    -0.648 OA
ENDBRANCH  40  41
ENDBRANCH  39  40
ENDBRANCH  38  39
BRANCH  38  44
ATOM     44  C   GLU D   4       5.898  -0.161  -2.696  1.00 29.37     0.241 C 
ATOM     45  N   VAL D   5       6.622  -1.154  -3.205  1.00 31.15    -0.346 N 
ATOM     46  H   VAL D   5       6.487  -1.985  -3.030  1.00 31.15     0.163 HD
ATOM     47  O   GLU D   4       6.125   1.025  -2.936  1.00 28.00    -0.271 OA
BRANCH  45  48
ATOM     48  CA  VAL D   5       7.729  -0.903  -4.124  1.00 31.02     0.180 C 
BRANCH  48  49
ATOM     49  C   VAL D   5       7.266  -0.845  -5.577  1.00 31.80     0.241 C 
ATOM     50  N   TYR D   6       7.485   0.298  -6.221  1.00 29.63    -0.346 N 
ATOM     51  H   TYR D   6       7.815   1.000  -5.849  1.00 29.63     0.163 HD
ATOM     52  O   VAL D   5       6.728  -1.820  -6.103  1.00 32.83    -0.271 OA
BRANCH  50  53
ATOM     53  CA  TYR D   6       7.179   0.459  -7.636  1.00 30.54     0.184 C 
BRANCH  53  54
ATOM     54  C   TYR D   6       8.167  -0.345  -8.474  1.00 31.23     0.284 C 
HETATM   55  N   NH2 D   7       7.640  -1.218  -9.326  1.00 33.55    -0.106 N 
ATOM     56  O   TYR D   6       9.381  -0.185  -8.341  1.00 28.81    -0.267 OA
ENDBRANCH  53  54
BRANCH  53  57
ATOM     57  CB  TYR D   6       7.224   1.941  -8.024  1.00 30.33     0.073 C 
BRANCH  57  58
ATOM     58  CG  TYR D   6       7.017   2.224  -9.500  1.00 31.81    -0.056 A 
ATOM     59  CD1 TYR D   6       5.887   1.766 -10.166  1.00 31.47     0.010 A 
ATOM     60  CE1 TYR D   6       5.693   2.032 -11.508  1.00 32.87     0.037 A 
ATOM     61  CZ  TYR D   6       6.627   2.772 -12.200  1.00 33.71     0.065 A 
ATOM     62  CE2 TYR D   6       7.753   3.246 -11.560  1.00 32.90     0.037 A 
ATOM     63  CD2 TYR D   6       7.939   2.976 -10.216  1.00 31.58     0.010 A 
BRANCH  61  64
ATOM     64  OH  TYR D   6       6.436   3.038 -13.537  1.00 34.88    -0.361 OA
ATOM     65  HH  TYR D   6       6.946   3.662 -13.774  1.00 34.88     0.217 HD
ENDBRANCH  61  64
ENDBRANCH  57  58
ENDBRANCH  53  57
ENDBRANCH  50  53
ENDBRANCH  48  49
BRANCH  48  66
ATOM     66  CB  VAL D   5       8.817  -1.990  -4.021  1.00 31.19     0.009 C 
ATOM     67  CG1 VAL D   5       9.947  -1.697  -5.003  1.00 32.10     0.012 C 
ATOM     68  CG2 VAL D   5       9.347  -2.085  -2.607  1.00 30.34     0.012 C 
ENDBRANCH  48  66
ENDBRANCH  45  48
ENDBRANCH  38  44
ENDBRANCH   3  38
TORSDOF 25
