REMARK  17 active torsions:
REMARK  status: ('A' for Active; 'I' for Inactive)
REMARK    1  A    between atoms: CA_2  and  CB_5 
REMARK    2  A    between atoms: CA_2  and  C_3 
REMARK       I    between atoms: C_3  and  N_9 
REMARK    3  A    between atoms: CB_5  and  CG_6 
REMARK    4  A    between atoms: N_9  and  CA_10 
REMARK    5  A    between atoms: CA_10  and  C_11 
REMARK    6  A    between atoms: CA_10  and  CB_13 
REMARK       I    between atoms: C_11  and  N_18 
REMARK    7  A    between atoms: CB_13  and  OG1_14 
REMARK    8  A    between atoms: N_18  and  CA_19 
REMARK    9  A    between atoms: CA_19  and  CB_22 
REMARK   10  A    between atoms: CA_19  and  C_20 
REMARK       I    between atoms: C_20  and  N_35 
REMARK   11  A    between atoms: CB_22  and  CG_23 
REMARK   12  A    between atoms: CG_23  and  CD_24 
REMARK   13  A    between atoms: CD_24  and  NE_25 
REMARK       I    between atoms: NE_25  and  CZ_26 
REMARK       I    between atoms: CZ_26  and  NH1_27 
REMARK   14  A    between atoms: CA_36  and  C_37 
REMARK       I    between atoms: C_37  and  N_42 
REMARK   15  A    between atoms: N_42  and  CA_43 
REMARK   16  A    between atoms: CA_43  and  C_44 
REMARK       I    between atoms: C_44  and  N_48 
REMARK   17  A    between atoms: CA_49  and  C_50 
ROOT
ATOM      1  CA  ARG E   5     102.282 125.756   7.677  1.00 34.60     0.176 C 
ENDROOT
BRANCH   1   2
ATOM      2  CB  ARG E   5     101.307 124.594   7.779  1.00 32.17     0.036 C 
BRANCH   2   3
ATOM      3  CG  ARG E   5     100.980 124.023   6.426  1.00 30.87     0.023 C 
BRANCH   3   4
ATOM      4  CD  ARG E   5      99.697 123.255   6.464  1.00 28.77     0.138 C 
BRANCH   4   5
ATOM      5  NE  ARG E   5      99.837 122.056   7.282  1.00 27.14    -0.227 N 
ATOM      6  CZ  ARG E   5      98.823 121.440   7.874  1.00 27.11     0.665 C 
ATOM      7  NH2 ARG E   5      99.040 120.353   8.606  1.00 28.81    -0.235 N 
ATOM      8  NH1 ARG E   5      97.593 121.917   7.735  1.00 26.86    -0.235 N 
ATOM      9 HH22 ARG E   5      98.382 119.954   8.990  1.00 28.81     0.174 HD
ATOM     10 HH21 ARG E   5      99.839 120.048   8.696  1.00 28.81     0.174 HD
ATOM     11 HH12 ARG E   5      96.932 121.521   8.117  1.00 26.86     0.174 HD
ATOM     12 HH11 ARG E   5      97.456 122.623   7.263  1.00 26.86     0.174 HD
ATOM     13  HE  ARG E   5     100.625 121.728   7.387  1.00 27.14     0.177 HD
ENDBRANCH   4   5
ENDBRANCH   3   4
ENDBRANCH   2   3
ENDBRANCH   1   2
BRANCH   1  14
ATOM     14  C   ARG E   5     101.545 127.021   7.245  1.00 36.20     0.243 C 
ATOM     15  O   ARG E   5     100.849 127.636   8.065  1.00 36.29    -0.271 OA
ATOM     16  N   PRO E   6     101.660 127.440   5.986  1.00 37.19    -0.337 N 
ATOM     17  CA  PRO E   6     100.965 128.656   5.560  1.00 38.47     0.179 C 
ATOM     18  CD  PRO E   6     102.448 126.869   4.883  1.00 36.10     0.127 C 
ATOM     19  CB  PRO E   6     101.491 128.885   4.137  1.00 37.25     0.037 C 
ATOM     20  CG  PRO E   6     102.734 128.069   4.045  1.00 36.76     0.022 C 
BRANCH  17  21
ATOM     21  C   PRO E   6      99.459 128.478   5.553  1.00 38.85     0.241 C 
ATOM     22  O   PRO E   6      98.933 127.380   5.351  1.00 38.06    -0.271 OA
ATOM     23  N   ALA E   7      98.765 129.582   5.785  1.00 39.96    -0.346 N 
ATOM     24  H   ALA E   7      99.108 130.342   5.994  1.00 39.96     0.163 HD
BRANCH  23  25
ATOM     25  CA  ALA E   7      97.322 129.562   5.694  1.00 39.26     0.172 C 
ATOM     26  CB  ALA E   7      96.734 130.853   6.254  1.00 41.08     0.042 C 
BRANCH  25  27
ATOM     27  C   ALA E   7      96.922 129.381   4.231  1.00 37.69     0.243 C 
ATOM     28  O   ALA E   7      97.671 129.756   3.326  1.00 38.21    -0.271 OA
ATOM     29  N   PRO E   8      95.746 128.793   3.967  1.00 36.84    -0.338 N 
ATOM     30  CD  PRO E   8      94.778 128.225   4.919  1.00 36.57     0.127 C 
ATOM     31  CA  PRO E   8      95.307 128.596   2.583  1.00 36.95     0.165 C 
ATOM     32  CG  PRO E   8      93.554 128.031   4.075  1.00 36.01     0.022 C 
ATOM     33  CB  PRO E   8      94.110 127.660   2.743  1.00 35.51     0.035 C 
BRANCH  31  34
ATOM     34  C   PRO E   8      94.906 129.890   1.886  1.00 39.03     0.219 C 
ATOM     35  O   PRO E   8      94.569 130.865   2.557  1.00 41.16    -0.287 OA
ENDBRANCH  31  34
ENDBRANCH  25  27
ENDBRANCH  23  25
ENDBRANCH  17  21
ENDBRANCH   1  14
BRANCH   1  36
ATOM     36  N   ARG E   5     102.941 126.001   8.942  1.00 35.03    -0.346 N 
ATOM     37  H   ARG E   5     102.665 125.517   9.597  1.00 35.03     0.163 HD
ATOM     38  C   THR E   4     103.891 126.914   9.029  1.00 36.29     0.243 C 
ATOM     39  O   THR E   4     104.244 127.609   8.072  1.00 35.32    -0.271 OA
BRANCH  38  40
ATOM     40  CA  THR E   4     104.534 127.053  10.402  1.00 38.81     0.205 C 
BRANCH  40  41
ATOM     41  CB  THR E   4     103.672 127.937  11.293  1.00 37.77     0.146 C 
ATOM     42  CG2 THR E   4     104.223 127.936  12.695  1.00 32.08     0.042 C 
BRANCH  41  43
ATOM     43  OG1 THR E   4     103.660 129.272  10.775  1.00 38.27    -0.393 OA
ATOM     44  HG1 THR E   4     103.183 129.759  11.266  1.00 38.27     0.210 HD
ENDBRANCH  41  43
ENDBRANCH  40  41
BRANCH  40  45
ATOM     45  N   THR E   4     105.871 127.605  10.277  1.00 43.44    -0.343 N 
ATOM     46  C   ASP E   3     106.895 126.876   9.850  1.00 43.86     0.258 C 
ATOM     47  O   ASP E   3     106.838 125.651   9.706  1.00 40.64    -0.271 OA
ATOM     48  H   THR E   4     105.934 128.433  10.502  1.00 43.44     0.163 HD
BRANCH  46  49
ATOM     49  CA  ASP E   3     108.181 127.651   9.577  1.00 46.95     0.409 C 
ATOM     50  N   ASP E   3     108.591 128.451  10.726  1.00 48.81     0.615 N 
BRANCH  49  51
ATOM     51  CB  ASP E   3     109.293 126.693   9.159  1.00 49.65     0.164 C 
BRANCH  51  52
ATOM     52  CG  ASP E   3     110.131 126.212  10.326  1.00 52.58     0.175 C 
ATOM     53  OD1 ASP E   3     109.679 126.346  11.485  1.00 53.20    -0.648 OA
ATOM     54  OD2 ASP E   3     111.242 125.687  10.068  1.00 53.89    -0.648 OA
ENDBRANCH  51  52
ENDBRANCH  49  51
ENDBRANCH  46  49
ENDBRANCH  40  45
ENDBRANCH  38  40
ENDBRANCH   1  36
TORSDOF 17
