USER: ADFR SOLUTION from run 0
USER: SCORE 17.259217 LL:  -2.134 LR: -15.638 RR:   0.000 FEB:  -8.777
USER: RMSD 0.602786
USER: STATUS Locally minimized using BFGS
USER: GENES 25
USER: genes 0 Translation |==|  0.40859 0.54148 0.62312
USER: genes 1 Rotation |==|  0.51173 0.51801 0.50936 0.99945
USER: genes 2 Torsion [N]-CA--C-[N] |==|  0.38536
USER: genes 3 Torsion [C]-N--CA-[C] |==|  0.74426
USER: genes 4 Torsion [N]-CA--C-[N] |==|  0.43507
USER: genes 5 Torsion [C]-N--CA-[C] |==|  0.69309
USER: genes 6 Torsion [N]-CA--C-[OXT] |==|  0.34305
USER: genes 7 Torsion [N]-CA--CB-[CG] |==|  0.55475
USER: genes 8 Torsion [CA]-CB--CG-[CD] |==|  0.56085
USER: genes 9 Torsion [CB]-CG--CD-[NE] |==|  0.46534
USER: genes 10 Torsion [CG]-CD--NE-[CZ] |==|  0.50290
USER: genes 11 Torsion [N]-CA--CB-[CG2] |==|  0.17972
USER: genes 12 Torsion [CA]-CB--OG1-[HG1] |==|  0.50071
USER: genes 13 Torsion [C]-CA--CB-[CG] |==|  0.83737
USER: genes 14 Torsion [CA]-CB--CG-[CD] |==|  0.58771
USER: genes 15 Torsion [CB]-CG--CD-[NE] |==|  0.81117
USER: genes 16 Torsion [CG]-CD--NE-[HE] |==|  0.23564
USER: genes 17 Torsion [C]-CA--N-[C] |==|  0.65000
USER: genes 18 Torsion [N]-C--CA-[N] |==|  0.35967
USER: genes 19 Torsion [C]-CA--N-[C] |==|  0.61111
USER: genes 20 Torsion [N]-C--CA-[N] |==|  0.82396
USER: genes 21 Torsion [C]-CA--CB-[CG] |==|  0.45550
USER: genes 22 Torsion [CA]-CB--CG-[CD] |==|  0.34704
USER: genes 23 Torsion [CB]-CG--CD-[NE] |==|  0.25950
USER: genes 24 Torsion [CG]-CD--NE-[CZ] |==|  0.48126
ROOT
ATOM      1  CA  ARG A 214      -1.748   5.801  -8.026  1.00 73.37 LIG 0.18  C 
ENDROOT
BRANCH 1 2
ATOM      2  C   ARG A 214      -1.429   4.534  -8.808  1.00 70.35 LIG 0.24  C 
ATOM      3 O    ARG A 214      -0.610   4.549  -9.733  1.00 57.55 LIG-0.27  OA
ATOM      4  N   THR A 215      -2.067   3.434  -8.422  1.00 65.27 LIG-0.34  N 
ATOM      5 H    THR A 215      -2.599   3.401  -7.748  1.00 65.27 LIG 0.16  HD
BRANCH 4 6
ATOM      6  CA  THR A 215      -1.912   2.170  -9.124  1.00 68.27 LIG 0.20  C 
BRANCH 6 7
ATOM      7  C   THR A 215      -2.989   2.034 -10.194  1.00 71.74 LIG 0.24  C 
ATOM      8 O    THR A 215      -4.045   2.668 -10.123  1.00 72.98 LIG-0.27  OA
ATOM      9  N   ARG A 216      -2.708   1.214 -11.201  1.00 71.41 LIG-0.34  N 
ATOM     10 H    ARG A 216      -1.974   0.773 -11.283  1.00 71.41 LIG 0.16  HD
BRANCH 9 11
ATOM     11  CA  ARG A 216      -3.676   1.006 -12.272  1.00 72.33 LIG 0.18  C 
BRANCH 11 12
ATOM     12  C   ARG A 216      -4.271  -0.401 -12.235  1.00 79.66 LIG 0.20  C 
ATOM     13 OXT  ARG A 216      -5.488  -0.568 -12.159  1.00 82.24 LIG-0.65  OA
ATOM     14 O    ARG A 216      -3.555  -1.402 -12.291  1.00 77.37 LIG-0.65  OA
ENDBRANCH 11 12
BRANCH 11 15
ATOM     15  CB  ARG A 216      -3.045   1.260 -13.642  1.00 66.30 LIG 0.04  C 
BRANCH 15 16
ATOM     16  CG  ARG A 216      -4.096   1.523 -14.702  1.00 69.07 LIG 0.02  C 
BRANCH 16 17
ATOM     17  CD  ARG A 216      -3.620   1.266 -16.115  1.00 69.32 LIG 0.14  C 
BRANCH 17 18
ATOM     18  NE  ARG A 216      -4.762   1.255 -17.027  1.00 75.64 LIG-0.23  N 
ATOM     19 HE   ARG A 216      -5.540   1.401 -16.692  1.00 75.64 LIG 0.18  HD
ATOM     20  CZ  ARG A 216      -4.684   1.036 -18.334  1.00 75.25 LIG 0.67  C 
ATOM     21  NH1 ARG A 216      -5.786   1.049 -19.072  1.00 73.93 LIG-0.23  N 
ATOM     22  NH2 ARG A 216      -3.511   0.805 -18.904  1.00 84.04 LIG-0.23  N 
ATOM     23 2HH1 ARG A 216      -5.739   0.907 -19.919  1.00 73.93 LIG 0.17  HD
ATOM     24 1HH1 ARG A 216      -6.549   1.198 -18.703  1.00 73.93 LIG 0.17  HD
ATOM     25 2HH2 ARG A 216      -3.465   0.663 -19.751  1.00 84.04 LIG 0.17  HD
ATOM     26 1HH2 ARG A 216      -2.796   0.796 -18.427  1.00 84.04 LIG 0.17  HD
ENDBRANCH 17 18
ENDBRANCH 16 17
ENDBRANCH 15 16
ENDBRANCH 11 15
ENDBRANCH 9 11
ENDBRANCH 6 7
BRANCH 6 27
ATOM     27  CB  THR A 215      -1.982   0.988  -8.151  1.00 72.75 LIG 0.15  C 
ATOM     28  CG2 THR A 215      -3.363   0.893  -7.510  1.00 70.84 LIG 0.04  C 
BRANCH 27 29
ATOM     29 OG1  THR A 215      -1.699  -0.231  -8.850  1.00 79.53 LIG-0.39  OA
ATOM     30 HG1  THR A 215      -1.742  -0.877  -8.314  1.00 79.53 LIG 0.21  HD
ENDBRANCH 27 29
ENDBRANCH 6 27
ENDBRANCH 4 6
ENDBRANCH 1 2
BRANCH 1 31
ATOM     31  CB  ARG A 214      -2.783   6.658  -8.779  1.00 80.43 LIG 0.04  C 
BRANCH 31 32
ATOM     32  CG  ARG A 214      -2.351   7.081 -10.176  1.00 86.64 LIG 0.02  C 
BRANCH 32 33
ATOM     33  CD  ARG A 214      -2.918   8.434 -10.580  1.00 94.72 LIG 0.14  C 
BRANCH 33 34
ATOM     34  NE  ARG A 214      -4.366   8.418 -10.769  1.00 97.96 LIG-0.23  N 
ATOM     35 HE   ARG A 214      -4.863   8.525 -10.075  1.00 97.96 LIG 0.18  HD
ATOM     36  CZ  ARG A 214      -4.965   8.250 -11.943  1.00 95.09 LIG 0.67  C 
ATOM     37  NH2 ARG A 214      -6.289   8.253 -12.020  1.00100.24 LIG-0.23  N 
ATOM     38  NH1 ARG A 214      -4.241   8.076 -13.041  1.00 87.66 LIG-0.23  N 
ATOM     39 2HH2 ARG A 214      -6.676   8.143 -12.781  1.00100.24 LIG 0.17  HD
ATOM     40 1HH2 ARG A 214      -6.761   8.364 -11.309  1.00100.24 LIG 0.17  HD
ATOM     41 2HH1 ARG A 214      -4.631   7.967 -13.800  1.00 87.66 LIG 0.17  HD
ATOM     42 1HH1 ARG A 214      -3.383   8.073 -12.994  1.00 87.66 LIG 0.17  HD
ENDBRANCH 33 34
ENDBRANCH 32 33
ENDBRANCH 31 32
ENDBRANCH 1 31
BRANCH 1 43
ATOM     43  N   ARG A 214      -0.527   6.555  -7.788  1.00 58.16 LIG-0.35  N 
ATOM     44 H    ARG A 214      -0.079   6.728  -8.502  1.00 58.16 LIG 0.16  HD
ATOM     45  C   ARG A 213      -0.143   6.940  -6.575  1.00 58.46 LIG 0.24  C 
ATOM     46 O    ARG A 213      -0.748   6.635  -5.543  1.00 62.14 LIG-0.27  OA
BRANCH 45 47
ATOM     47  CA  ARG A 213       1.110   7.797  -6.513  1.00 67.47 LIG 0.18  C 
BRANCH 47 48
ATOM     48  N   ARG A 213       0.844   8.983  -5.713  1.00 69.12 LIG-0.35  N 
ATOM     49 H    ARG A 213       0.364   8.842  -5.014  1.00 69.12 LIG 0.16  HD
ATOM     50  C   GLY A 212       1.313  10.155  -6.060  1.00 65.81 LIG 0.25  C 
ATOM     51 O    GLY A 212       2.003  10.318  -7.030  1.00 63.13 LIG-0.27  OA
BRANCH 50 52
ATOM     52  CA  GLY A 212       0.892  11.288  -5.159  1.00 65.64 LIG 0.47  C 
ATOM     53  N   GLY A 212      -0.550  11.426  -5.240  1.00 75.48 LIG 0.61  N 
ENDBRANCH 50 52
ENDBRANCH 47 48
BRANCH 47 54
ATOM     54  CB  ARG A 213       2.284   6.990  -5.946  1.00 71.07 LIG 0.04  C 
BRANCH 54 55
ATOM     55  CG  ARG A 213       3.630   7.639  -6.211  1.00 85.03 LIG 0.02  C 
BRANCH 55 56
ATOM     56  CD  ARG A 213       4.419   7.855  -4.936  1.00 85.62 LIG 0.14  C 
BRANCH 56 57
ATOM     57  NE  ARG A 213       5.321   6.743  -4.668  1.00 84.98 LIG-0.23  N 
ATOM     58  CZ  ARG A 213       6.220   6.731  -3.689  1.00 90.61 LIG 0.67  C 
ATOM     59  NH2 ARG A 213       7.000   5.675  -3.525  1.00 97.98 LIG-0.23  N 
ATOM     60  NH1 ARG A 213       6.341   7.774  -2.880  1.00 95.33 LIG-0.23  N 
ATOM     61 2HH2 ARG A 213       7.583   5.665  -2.892  1.00 97.98 LIG 0.17  HD
ATOM     62 1HH2 ARG A 213       6.926   4.999  -4.051  1.00 97.98 LIG 0.17  HD
ATOM     63 2HH1 ARG A 213       6.925   7.762  -2.248  1.00 95.33 LIG 0.17  HD
ATOM     64 1HH1 ARG A 213       5.837   8.463  -2.987  1.00 95.33 LIG 0.17  HD
ATOM     65 HE   ARG A 213       5.268   6.050  -5.174  1.00 84.98 LIG 0.18  HD
ENDBRANCH 56 57
ENDBRANCH 55 56
ENDBRANCH 54 55
ENDBRANCH 47 54
ENDBRANCH 45 47
ENDBRANCH 1 43
TORSDOF 23
