REMARK  28 active torsions:
REMARK  status: ('A' for Active; 'I' for Inactive)
REMARK    1  A    between atoms: CA_2  and  C_3 
REMARK    2  A    between atoms: CA_2  and  CB_5 
REMARK       I    between atoms: C_3  and  N_10 
REMARK    3  A    between atoms: CB_5  and  CG_6 
REMARK    4  A    between atoms: CG_6  and  CD_7 
REMARK    5  A    between atoms: N_10  and  CA_11 
REMARK    6  A    between atoms: CA_11  and  C_12 
REMARK    7  A    between atoms: CA_11  and  CB_14 
REMARK       I    between atoms: C_12  and  N_23 
REMARK    8  A    between atoms: CB_14  and  CG_15 
REMARK    9  A    between atoms: CG_15  and  CD_16 
REMARK   10  A    between atoms: CD_16  and  CE_17 
REMARK   11  A    between atoms: CE_17  and  NZ_18 
REMARK   12  A    between atoms: N_23  and  CA_24 
REMARK   13  A    between atoms: CA_24  and  C_25 
REMARK   14  A    between atoms: CA_24  and  CB_27 
REMARK       I    between atoms: C_25  and  N_40 
REMARK   15  A    between atoms: CB_27  and  CG_28 
REMARK   16  A    between atoms: CG_28  and  CD_29 
REMARK   17  A    between atoms: CD_29  and  NE_30 
REMARK       I    between atoms: NE_30  and  CZ_31 
REMARK       I    between atoms: CZ_31  and  NH1_32 
REMARK       I    between atoms: CZ_31  and  NH2_33 
REMARK   18  A    between atoms: CA_41  and  C_42 
REMARK       I    between atoms: C_42  and  N_47 
REMARK   19  A    between atoms: N_47  and  CA_48 
REMARK   20  A    between atoms: CA_48  and  C_49 
REMARK   21  A    between atoms: CA_48  and  CB_51 
REMARK       I    between atoms: C_49  and  N_64 
REMARK   22  A    between atoms: CB_51  and  CG_52 
REMARK   23  A    between atoms: CG_52  and  CD_53 
REMARK   24  A    between atoms: CD_53  and  NE_54 
REMARK       I    between atoms: NE_54  and  CZ_55 
REMARK       I    between atoms: CZ_55  and  NH1_56 
REMARK   25  A    between atoms: N_64  and  CA_65 
REMARK   26  A    between atoms: CA_65  and  C_66 
REMARK   27  A    between atoms: CA_65  and  CB_68 
REMARK   28  A    between atoms: CB_68  and  OG_69 
ROOT
ATOM      1  CA  ARG C 380       1.339  -5.843  -8.205  1.00 55.03     0.176 C 
ENDROOT
BRANCH   1   2
ATOM      2  C   ARG C 380       1.017  -4.558  -8.954  1.00 47.07     0.243 C 
ATOM      3  O   ARG C 380       0.309  -4.603  -9.982  1.00 43.27    -0.271 OA
ATOM      4  N   PRO C 381       1.487  -3.404  -8.489  1.00 52.47    -0.337 N 
ATOM      5  CA  PRO C 381       1.446  -2.202  -9.324  1.00 50.57     0.179 C 
ATOM      6  CD  PRO C 381       2.064  -3.139  -7.159  1.00 58.50     0.127 C 
ATOM      7  CB  PRO C 381       1.566  -1.062  -8.305  1.00 39.15     0.037 C 
ATOM      8  CG  PRO C 381       2.392  -1.655  -7.205  1.00 58.11     0.022 C 
BRANCH   5   9
ATOM      9  C   PRO C 381       2.616  -2.200 -10.291  1.00 50.29     0.241 C 
ATOM     10  O   PRO C 381       3.652  -2.823 -10.050  1.00 49.31    -0.271 OA
ATOM     11  N   ARG C 382       2.434  -1.506 -11.411  1.00 50.68    -0.346 N 
ATOM     12  H   ARG C 382       1.684  -1.150 -11.635  1.00 50.68     0.163 HD
BRANCH  11  13
ATOM     13  CA  ARG C 382       3.511  -1.287 -12.370  1.00 50.76     0.176 C 
BRANCH  13  14
ATOM     14  C   ARG C 382       4.087   0.106 -12.128  1.00 59.22     0.241 C 
ATOM     15  O   ARG C 382       3.402   1.113 -12.338  1.00 50.32    -0.271 OA
ATOM     16  N   SER C 383       5.342   0.162 -11.688  1.00 56.43    -0.345 N 
ATOM     17  H   SER C 383       5.839  -0.529 -11.566  1.00 56.43     0.163 HD
BRANCH  16  18
ATOM     18  CA  SER C 383       5.991   1.435 -11.370  1.00 74.33     0.186 C 
BRANCH  18  19
ATOM     19  C   SER C 383       6.742   2.021 -12.564  1.00 76.08     0.221 C 
ATOM     20  O   SER C 383       7.310   1.290 -13.375  1.00 76.81    -0.287 OA
ENDBRANCH  18  19
BRANCH  18  21
ATOM     21  CB  SER C 383       6.951   1.256 -10.199  1.00 65.18     0.197 C 
BRANCH  21  22
ATOM     22  OG  SER C 383       7.850   0.194 -10.461  1.00 68.82    -0.398 OA
ATOM     23  HG  SER C 383       8.375   0.104  -9.811  1.00 68.82     0.209 HD
ENDBRANCH  21  22
ENDBRANCH  18  21
ENDBRANCH  16  18
ENDBRANCH  13  14
BRANCH  13  24
ATOM     24  CB  ARG C 382       3.019  -1.437 -13.807  1.00 44.34     0.036 C 
BRANCH  24  25
ATOM     25  CG  ARG C 382       4.156  -1.384 -14.814  1.00 56.39     0.023 C 
BRANCH  25  26
ATOM     26  CD  ARG C 382       3.683  -1.275 -16.253  1.00 41.52     0.138 C 
BRANCH  26  27
ATOM     27  NE  ARG C 382       4.814  -1.013 -17.139  1.00 49.53    -0.227 N 
ATOM     28  CZ  ARG C 382       4.841  -1.308 -18.434  1.00 47.90     0.665 C 
ATOM     29  NH1 ARG C 382       3.792  -1.878 -19.009  1.00 52.31    -0.235 N 
ATOM     30  NH2 ARG C 382       5.920  -1.035 -19.156  1.00 55.66    -0.235 N 
ATOM     31 HH11 ARG C 382       3.091  -2.058 -18.544  1.00 52.31     0.174 HD
ATOM     32 HH12 ARG C 382       3.812  -2.068 -19.848  1.00 52.31     0.174 HD
ATOM     33 HH22 ARG C 382       5.936  -1.226 -19.994  1.00 55.66     0.174 HD
ATOM     34 HH21 ARG C 382       6.603  -0.667 -18.786  1.00 55.66     0.174 HD
ATOM     35  HE  ARG C 382       5.511  -0.642 -16.799  1.00 49.53     0.177 HD
ENDBRANCH  26  27
ENDBRANCH  25  26
ENDBRANCH  24  25
ENDBRANCH  13  24
ENDBRANCH  11  13
ENDBRANCH   5   9
ENDBRANCH   1   2
BRANCH   1  36
ATOM     36  CB  ARG C 380       2.147  -6.794  -9.097  1.00 43.48     0.036 C 
BRANCH  36  37
ATOM     37  CG  ARG C 380       2.548  -8.144  -8.491  1.00 54.19     0.023 C 
BRANCH  37  38
ATOM     38  CD  ARG C 380       3.148  -9.021  -9.592  1.00 65.92     0.138 C 
BRANCH  38  39
ATOM     39  NE  ARG C 380       3.739 -10.279  -9.127  1.00 79.60    -0.227 N 
ATOM     40  CZ  ARG C 380       4.416 -11.104  -9.927  1.00 87.95     0.665 C 
ATOM     41  NH1 ARG C 380       4.577 -10.781 -11.207  1.00 74.29    -0.235 N 
ATOM     42  NH2 ARG C 380       4.940 -12.241  -9.464  1.00 56.55    -0.235 N 
ATOM     43 HH12 ARG C 380       5.012 -11.306 -11.731  1.00 74.29     0.174 HD
ATOM     44 HH11 ARG C 380       4.246 -10.047 -11.510  1.00 74.29     0.174 HD
ATOM     45 HH22 ARG C 380       5.374 -12.762  -9.994  1.00 56.55     0.174 HD
ATOM     46 HH21 ARG C 380       4.844 -12.453  -8.636  1.00 56.55     0.174 HD
ATOM     47  HE  ARG C 380       3.645 -10.495  -8.300  1.00 79.60     0.177 HD
ENDBRANCH  38  39
ENDBRANCH  37  38
ENDBRANCH  36  37
ENDBRANCH   1  36
BRANCH   1  48
ATOM     48  N   ARG C 380       0.087  -6.450  -7.767  1.00 47.32    -0.346 N 
ATOM     49  C   LYS C 379      -0.070  -6.912  -6.530  1.00 45.76     0.241 C 
ATOM     50  O   LYS C 379       0.800  -6.809  -5.661  1.00 54.38    -0.271 OA
ATOM     51  H   ARG C 380      -0.524  -6.479  -8.371  1.00 47.32     0.163 HD
BRANCH  49  52
ATOM     52  CA  LYS C 379      -1.393  -7.606  -6.238  1.00 43.75     0.176 C 
BRANCH  52  53
ATOM     53  N   LYS C 379      -1.180  -8.599  -5.202  1.00 44.28    -0.346 N 
ATOM     54  H   LYS C 379      -0.910  -8.268  -4.456  1.00 44.28     0.163 HD
ATOM     55  C   GLU C 378      -1.383  -9.896  -5.389  1.00 60.53     0.257 C 
ATOM     56  O   GLU C 378      -1.886 -10.356  -6.412  1.00 56.79    -0.271 OA
BRANCH  55  57
ATOM     57  CA  GLU C 378      -0.969 -10.804  -4.235  1.00 69.99     0.400 C 
ATOM     58  N   GLU C 378      -2.036 -11.741  -3.906  1.00 74.89     0.615 N 
BRANCH  57  59
ATOM     59  CB  GLU C 378       0.321 -11.553  -4.588  1.00 53.06     0.062 C 
BRANCH  59  60
ATOM     60  CG  GLU C 378       1.552 -10.667  -4.732  1.00 67.66     0.116 C 
BRANCH  60  61
ATOM     61  CD  GLU C 378       2.684 -11.360  -5.475  1.00 85.24     0.172 C 
ATOM     62  OE2 GLU C 378       3.635 -10.670  -5.903  1.00 90.60    -0.648 OA
ATOM     63  OE1 GLU C 378       2.616 -12.597  -5.638  1.00103.34    -0.648 OA
ENDBRANCH  60  61
ENDBRANCH  59  60
ENDBRANCH  57  59
ENDBRANCH  55  57
ENDBRANCH  52  53
BRANCH  52  64
ATOM     64  CB  LYS C 379      -2.456  -6.581  -5.821  1.00 37.46     0.035 C 
BRANCH  64  65
ATOM     65  CG  LYS C 379      -3.812  -7.196  -5.483  1.00 41.02     0.004 C 
BRANCH  65  66
ATOM     66  CD  LYS C 379      -4.764  -6.156  -4.909  1.00 41.74     0.027 C 
BRANCH  66  67
ATOM     67  CE  LYS C 379      -6.117  -6.771  -4.585  1.00 41.21     0.229 C 
BRANCH  67  68
ATOM     68  NZ  LYS C 379      -7.029  -5.823  -3.882  1.00 39.67    -0.079 N 
ATOM     69  HZ1 LYS C 379      -7.676  -6.279  -3.475  1.00 39.67     0.274 HD
ATOM     70  HZ2 LYS C 379      -6.568  -5.360  -3.278  1.00 39.67     0.274 HD
ATOM     71  HZ3 LYS C 379      -7.389  -5.263  -4.473  1.00 39.67     0.274 HD
ENDBRANCH  67  68
ENDBRANCH  66  67
ENDBRANCH  65  66
ENDBRANCH  64  65
ENDBRANCH  52  64
ENDBRANCH  49  52
ENDBRANCH   1  48
TORSDOF 28
