USER: ADFR SOLUTION from run 0
USER: SCORE 13.278163 LL:  -3.846 LR: -12.050 RR:   0.000 FEB:  -5.487
USER: RMSD 0.584547
USER: STATUS Locally minimized using BFGS
USER: GENES 24
USER: genes 0 Translation |==|  0.38442 0.55207 0.60727
USER: genes 1 Rotation |==|  0.48352 0.48564 0.49085 0.99944
USER: genes 2 Torsion [CB]-CA--N-[C] |==|  0.40794
USER: genes 3 Torsion [N]-C--CA-[N] |==|  0.88930
USER: genes 4 Torsion [C]-CA--CB-[CG] |==|  0.48224
USER: genes 5 Torsion [CA]-CB--CG-[CD2] |==|  0.86522
USER: genes 6 Torsion [C]-CA--N-[C] |==|  0.70141
USER: genes 7 Torsion [N]-C--CA-[N] |==|  0.80147
USER: genes 8 Torsion [C]-CA--N-[C] |==|  0.63045
USER: genes 9 Torsion [N]-C--CA-[N] |==|  0.37449
USER: genes 10 Torsion [C]-CA--CB-[CG2] |==|  0.28332
USER: genes 11 Torsion [CA]-CB--CG1-[CD1] |==|  0.25461
USER: genes 12 Torsion [C]-CA--CB-[CG] |==|  0.26144
USER: genes 13 Torsion [CA]-CB--CG-[CD1] |==|  0.23949
USER: genes 14 Torsion [N]-CA--CB-[CG2] |==|  0.50244
USER: genes 15 Torsion [CA]-CB--OG1-[HG1] |==|  0.32268
USER: genes 16 Torsion [N]-CA--C-[N] |==|  0.38142
USER: genes 17 Torsion [N]-CA--C-[N] |==|  0.44134
USER: genes 18 Torsion [C]-N--CA-[C] |==|  0.72200
USER: genes 19 Torsion [N]-CA--C-[O] |==|  0.28970
USER: genes 20 Torsion [N]-CA--CB-[CG] |==|  0.75511
USER: genes 21 Torsion [CA]-CB--CG-[CD] |==|  0.39358
USER: genes 22 Torsion [CB]-CG--CD-[NE] |==|  0.13171
USER: genes 23 Torsion [CG]-CD--NE-[HE] |==|  0.94793
ROOT
ATOM      1  CA  THR D 648     -64.867  10.399  -5.864  1.00 62.87 LIG 0.20  C 
ENDROOT
BRANCH 1 2
ATOM      2  N   THR D 648     -63.603  10.284  -5.139  1.00 56.91 LIG-0.34  N 
ATOM      3  C   LEU D 647     -63.429   9.399  -4.162  1.00 59.35 LIG 0.24  C 
ATOM      4 O    LEU D 647     -64.306   8.610  -3.808  1.00 56.20 LIG-0.27  OA
ATOM      5 H    THR D 648     -62.995  10.833  -5.400  1.00 56.91 LIG 0.16  HD
BRANCH 3 6
ATOM      6  CA  LEU D 647     -62.063   9.403  -3.499  1.00 55.15 LIG 0.18  C 
BRANCH 6 7
ATOM      7  CB  LEU D 647     -62.059  10.451  -2.340  1.00 49.69 LIG 0.04  C 
BRANCH 7 8
ATOM      8  CG  LEU D 647     -60.864  10.583  -1.389  1.00 48.41 LIG-0.02  C 
ATOM      9  CD2 LEU D 647     -60.396   9.247  -0.833  1.00 46.46 LIG 0.01  C 
ATOM     10  CD1 LEU D 647     -61.215  11.522  -0.244  1.00 42.39 LIG 0.01  C 
ENDBRANCH 7 8
ENDBRANCH 6 7
BRANCH 6 11
ATOM     11  N   LEU D 647     -60.986   9.589  -4.447  1.00 57.83 LIG-0.35  N 
ATOM     12  C   LEU D 646     -60.179   8.578  -4.774  1.00 69.64 LIG 0.24  C 
ATOM     13 O    LEU D 646     -60.284   7.458  -4.267  1.00 59.31 LIG-0.27  OA
ATOM     14 H    LEU D 647     -60.920  10.385  -4.765  1.00 57.83 LIG 0.16  HD
BRANCH 12 15
ATOM     15  CA  LEU D 646     -59.089   8.833  -5.863  1.00 75.89 LIG 0.18  C 
BRANCH 15 16
ATOM     16  N   LEU D 646     -59.527   8.981  -7.218  1.00 90.15 LIG-0.35  N 
ATOM     17 H    LEU D 646     -60.195   9.511  -7.323  1.00 90.15 LIG 0.16  HD
ATOM     18  C   ILE D 645     -58.923   8.332  -8.214  1.00 94.17 LIG 0.26  C 
ATOM     19 O    ILE D 645     -57.933   7.610  -8.046  1.00104.89 LIG-0.27  OA
BRANCH 18 20
ATOM     20  CA  ILE D 645     -59.514   8.528  -9.606  1.00 87.61 LIG 0.40  C 
ATOM     21  N   ILE D 645     -58.484   8.781 -10.659  1.00 97.17 LIG 0.61  N 
BRANCH 20 22
ATOM     22  CB  ILE D 645     -60.294   7.202  -9.827  1.00 83.91 LIG 0.03  C 
ATOM     23  CG2 ILE D 645     -61.789   7.416  -9.606  1.00 71.96 LIG 0.01  C 
BRANCH 22 24
ATOM     24  CG1 ILE D 645     -59.992   6.567 -11.197  1.00 78.38 LIG 0.00  C 
ATOM     25  CD1 ILE D 645     -58.846   5.569 -11.188  1.00 60.94 LIG 0.01  C 
ENDBRANCH 22 24
ENDBRANCH 20 22
ENDBRANCH 18 20
ENDBRANCH 15 16
BRANCH 15 26
ATOM     26  CB  LEU D 646     -58.311  10.109  -5.485  1.00 77.70 LIG 0.04  C 
BRANCH 26 27
ATOM     27  CG  LEU D 646     -57.021   9.904  -4.684  1.00 75.60 LIG-0.02  C 
ATOM     28  CD1 LEU D 646     -55.822   9.645  -5.588  1.00 71.06 LIG 0.01  C 
ATOM     29  CD2 LEU D 646     -56.776  11.108  -3.795  1.00 73.48 LIG 0.01  C 
ENDBRANCH 26 27
ENDBRANCH 15 26
ENDBRANCH 12 15
ENDBRANCH 6 11
ENDBRANCH 3 6
ENDBRANCH 1 2
BRANCH 1 30
ATOM     30  CB  THR D 648     -65.129  11.868  -6.284  1.00 65.76 LIG 0.15  C 
ATOM     31  CG2 THR D 648     -66.456  12.026  -7.027  1.00 59.42 LIG 0.04  C 
BRANCH 30 32
ATOM     32 OG1  THR D 648     -65.152  12.697  -5.114  1.00 66.48 LIG-0.39  OA
ATOM     33 HG1  THR D 648     -64.518  13.246  -5.146  1.00 66.48 LIG 0.21  HD
ENDBRANCH 30 32
ENDBRANCH 1 30
BRANCH 1 34
ATOM     34  C   THR D 648     -64.884   9.425  -7.059  1.00 62.56 LIG 0.24  C 
ATOM     35 O    THR D 648     -63.868   9.270  -7.747  1.00 59.73 LIG-0.27  OA
ATOM     36  N   PRO D 649     -66.025   8.735  -7.279  1.00 65.34 LIG-0.34  N 
ATOM     37  CA  PRO D 649     -66.175   7.806  -8.409  1.00 70.60 LIG 0.18  C 
ATOM     38  CD  PRO D 649     -67.179   8.673  -6.357  1.00 66.58 LIG 0.13  C 
ATOM     39  CB  PRO D 649     -67.442   7.019  -8.052  1.00 67.49 LIG 0.04  C 
ATOM     40  CG  PRO D 649     -68.210   7.913  -7.137  1.00 65.73 LIG 0.02  C 
BRANCH 37 41
ATOM     41  C   PRO D 649     -66.358   8.491  -9.768  1.00 77.20 LIG 0.24  C 
ATOM     42  N   ARG D 650     -66.066   7.753 -10.839  1.00 83.37 LIG-0.35  N 
ATOM     43 H    ARG D 650     -65.752   6.954 -10.790  1.00 83.37 LIG 0.16  HD
ATOM     44 O    PRO D 649     -66.767   9.657  -9.831  1.00 68.92 LIG-0.27  OA
BRANCH 42 45
ATOM     45  CA  ARG D 650     -66.250   8.233 -12.208  1.00 76.40 LIG 0.16  C 
BRANCH 45 46
ATOM     46  C   ARG D 650     -67.534   7.690 -12.824  1.00 81.79 LIG 0.22  C 
ATOM     47 O    ARG D 650     -68.526   8.409 -12.945  1.00 80.18 LIG-0.29  OA
ENDBRANCH 45 46
BRANCH 45 48
ATOM     48  CB  ARG D 650     -65.047   7.848 -13.067  1.00 77.84 LIG 0.04  C 
BRANCH 48 49
ATOM     49  CG  ARG D 650     -63.928   8.876 -13.036  1.00 87.31 LIG 0.02  C 
BRANCH 49 50
ATOM     50  CD  ARG D 650     -62.544   8.240 -13.029  1.00 89.00 LIG 0.14  C 
BRANCH 50 51
ATOM     51  NE  ARG D 650     -62.384   7.188 -14.032  1.00 88.84 LIG-0.23  N 
ATOM     52 HE   ARG D 650     -63.096   6.838 -14.363  1.00 88.84 LIG 0.18  HD
ATOM     53  CZ  ARG D 650     -61.210   6.735 -14.470  1.00 89.69 LIG 0.67  C 
ATOM     54  NH2 ARG D 650     -60.073   7.248 -14.011  1.00 88.97 LIG-0.23  N 
ATOM     55  NH1 ARG D 650     -61.171   5.769 -15.381  1.00 77.77 LIG-0.23  N 
ATOM     56 2HH2 ARG D 650     -59.319   6.949 -14.299  1.00 88.97 LIG 0.17  HD
ATOM     57 1HH2 ARG D 650     -60.091   7.877 -13.426  1.00 88.97 LIG 0.17  HD
ATOM     58 1HH1 ARG D 650     -61.903   5.438 -15.687  1.00 77.77 LIG 0.17  HD
ATOM     59 2HH1 ARG D 650     -60.414   5.476 -15.664  1.00 77.77 LIG 0.17  HD
ENDBRANCH 50 51
ENDBRANCH 49 50
ENDBRANCH 48 49
ENDBRANCH 45 48
ENDBRANCH 42 45
ENDBRANCH 37 41
ENDBRANCH 1 34
TORSDOF 22
