USER: ADFR SOLUTION from run 0
USER: SCORE 21.519608 LL:  -2.983 LR: -19.146 RR:   0.000 FEB:  -8.706
USER: RMSD 0.650545
USER: STATUS Locally minimized using BFGS
USER: GENES 37
USER: genes 0 Translation |==|  0.46053 0.56292 0.52924
USER: genes 1 Rotation |==|  0.50212 0.50661 0.49455 0.99992
USER: genes 2 Torsion [N]-CA--C-[N] |==|  0.42607
USER: genes 3 Torsion [C]-N--CA-[C] |==|  0.86035
USER: genes 4 Torsion [N]-CA--CB-[CG] |==|  0.81975
USER: genes 5 Torsion [CA]-CB--CG-[CD] |==|  0.53062
USER: genes 6 Torsion [CB]-CG--CD-[CE] |==|  0.20381
USER: genes 7 Torsion [CG]-CD--CE-[NZ] |==|  0.78006
USER: genes 8 Torsion [CD]-CE--NZ-[HZ3] |==|  0.26419
USER: genes 9 Torsion [N]-CA--C-[N] |==|  0.37429
USER: genes 10 Torsion [C]-N--CA-[C] |==|  0.82951
USER: genes 11 Torsion [N]-CA--C-[N] |==|  0.42417
USER: genes 12 Torsion [C]-N--CA-[C] |==|  0.78491
USER: genes 13 Torsion [N]-CA--C-[O] |==|  0.95545
USER: genes 14 Torsion [N]-CA--CB-[OG] |==|  0.86252
USER: genes 15 Torsion [CA]-CB--OG-[HG] |==|  0.66721
USER: genes 16 Torsion [N]-CA--CB-[CG] |==|  0.22526
USER: genes 17 Torsion [CA]-CB--CG-[CD] |==|  0.47952
USER: genes 18 Torsion [CB]-CG--CD-[NE] |==|  0.12995
USER: genes 19 Torsion [CG]-CD--NE-[CZ] |==|  0.60432
USER: genes 20 Torsion [C]-CA--CB-[CG] |==|  0.48718
USER: genes 21 Torsion [CA]-CB--CG-[CD] |==|  0.63352
USER: genes 22 Torsion [CB]-CG--CD-[NE] |==|  0.82265
USER: genes 23 Torsion [CG]-CD--NE-[CZ] |==|  0.73121
USER: genes 24 Torsion [C]-CA--N-[C] |==|  0.59950
USER: genes 25 Torsion [N]-C--CA-[N] |==|  0.40401
USER: genes 26 Torsion [C]-CA--CB-[CG] |==|  0.45636
USER: genes 27 Torsion [CA]-CB--CG-[CD] |==|  0.51175
USER: genes 28 Torsion [CB]-CG--CD-[NE2] |==|  0.40608
USER: genes 29 Torsion [C]-CA--N-[C] |==|  0.58737
USER: genes 30 Torsion [N]-C--CA-[N] |==|  0.01733
USER: genes 31 Torsion [C]-CA--CB-[CG2] |==|  0.44040
USER: genes 32 Torsion [CA]-CB--OG1-[HG1] |==|  0.49948
USER: genes 33 Torsion [C]-CA--N-[C] |==|  0.66667
USER: genes 34 Torsion [N]-C--CA-[N] |==|  0.93742
USER: genes 35 Torsion [C]-CA--CB-[OG1] |==|  0.86409
USER: genes 36 Torsion [CA]-CB--OG1-[HG1] |==|  0.49867
ROOT
ATOM      1  CA  ARG F 167      -2.188  19.697  39.234  1.00 38.85 LIG 0.18  C 
ENDROOT
BRANCH 1 2
ATOM      2  C   ARG F 167      -2.822  18.402  39.710  1.00 41.97 LIG 0.24  C 
ATOM      3  N   LYS F 168      -3.904  18.534  40.478  1.00 42.42 LIG-0.35  N 
ATOM      4 H    LYS F 168      -4.204  19.282  40.778  1.00 42.42 LIG 0.16  HD
ATOM      5 O    ARG F 167      -2.339  17.308  39.402  1.00 34.60 LIG-0.27  OA
BRANCH 3 6
ATOM      6  CA  LYS F 168      -4.671  17.358  40.867  1.00 39.35 LIG 0.18  C 
BRANCH 6 7
ATOM      7  CB  LYS F 168      -5.963  17.762  41.581  1.00 43.51 LIG 0.04  C 
BRANCH 7 8
ATOM      8  CG  LYS F 168      -5.752  18.465  42.908  1.00 39.69 LIG 0.00  C 
BRANCH 8 9
ATOM      9  CD  LYS F 168      -7.050  18.603  43.699  1.00 48.24 LIG 0.03  C 
BRANCH 9 10
ATOM     10  CE  LYS F 168      -7.501  17.267  44.295  1.00 54.37 LIG 0.23  C 
BRANCH 10 11
ATOM     11  NZ  LYS F 168      -8.180  16.367  43.309  1.00 52.23 LIG-0.08  N 
ATOM     12 HZ3  LYS F 168      -7.586  15.799  42.966  1.00 52.23 LIG 0.27  HD
ATOM     13 HZ1  LYS F 168      -8.825  15.910  43.718  1.00 52.23 LIG 0.27  HD
ATOM     14 HZ2  LYS F 168      -8.534  16.856  42.654  1.00 52.23 LIG 0.27  HD
ENDBRANCH 10 11
ENDBRANCH 9 10
ENDBRANCH 8 9
ENDBRANCH 7 8
ENDBRANCH 6 7
BRANCH 6 15
ATOM     15  C   LYS F 168      -4.988  16.520  39.634  1.00 30.99 LIG 0.24  C 
ATOM     16 O    LYS F 168      -5.365  17.050  38.583  1.00 32.09 LIG-0.27  OA
ATOM     17  N   ARG F 169      -4.796  15.209  39.753  1.00 23.74 LIG-0.35  N 
ATOM     18 H    ARG F 169      -4.497  14.820  40.459  1.00 23.74 LIG 0.16  HD
BRANCH 17 19
ATOM     19  CA  ARG F 169      -5.099  14.321  38.640  1.00 28.77 LIG 0.18  C 
BRANCH 19 20
ATOM     20  C   ARG F 169      -6.581  14.409  38.291  1.00 37.10 LIG 0.24  C 
ATOM     21  N   SER F 170      -6.883  14.134  37.024  1.00 32.48 LIG-0.34  N 
ATOM     22 H    SER F 170      -6.322  13.797  36.466  1.00 32.48 LIG 0.16  HD
ATOM     23 O    ARG F 169      -7.425  14.748  39.132  1.00 33.53 LIG-0.27  OA
BRANCH 21 24
ATOM     24  CA  SER F 170      -8.209  14.379  36.455  1.00 32.11 LIG 0.19  C 
BRANCH 24 25
ATOM     25  C   SER F 170      -9.237  13.317  36.865  1.00 36.47 LIG 0.22  C 
ATOM     26 O    SER F 170      -8.881  12.239  37.343  1.00 35.83 LIG-0.29  OA
ENDBRANCH 24 25
BRANCH 24 27
ATOM     27  CB  SER F 170      -8.109  14.451  34.927  1.00 36.26 LIG 0.20  C 
BRANCH 27 28
ATOM     28 OG   SER F 170      -7.065  15.334  34.532  1.00 19.66 LIG-0.40  OA
ATOM     29 HG   SER F 170      -7.386  15.959  34.072  1.00 19.66 LIG 0.21  HD
ENDBRANCH 27 28
ENDBRANCH 24 27
ENDBRANCH 21 24
ENDBRANCH 19 20
BRANCH 19 30
ATOM     30  CB  ARG F 169      -4.686  12.879  38.966  1.00 32.99 LIG 0.04  C 
BRANCH 30 31
ATOM     31  CG  ARG F 169      -5.648  12.063  39.815  1.00 34.51 LIG 0.02  C 
BRANCH 31 32
ATOM     32  CD  ARG F 169      -5.155  10.605  39.877  1.00 39.71 LIG 0.14  C 
BRANCH 32 33
ATOM     33  NE  ARG F 169      -3.723  10.561  40.169  1.00 37.23 LIG-0.23  N 
ATOM     34  CZ  ARG F 169      -2.852   9.697  39.650  1.00 33.71 LIG 0.67  C 
ATOM     35  NH2 ARG F 169      -1.578   9.784  40.009  1.00 35.73 LIG-0.23  N 
ATOM     36  NH1 ARG F 169      -3.243   8.756  38.783  1.00 22.18 LIG-0.23  N 
ATOM     37 2HH2 ARG F 169      -1.001   9.235  39.683  1.00 35.73 LIG 0.17  HD
ATOM     38 1HH2 ARG F 169      -1.328  10.390  40.566  1.00 35.73 LIG 0.17  HD
ATOM     39 1HH1 ARG F 169      -4.069   8.701  38.551  1.00 22.18 LIG 0.17  HD
ATOM     40 2HH1 ARG F 169      -2.667   8.206  38.457  1.00 22.18 LIG 0.17  HD
ATOM     41 HE   ARG F 169      -3.416  11.142  40.724  1.00 37.23 LIG 0.18  HD
ENDBRANCH 32 33
ENDBRANCH 31 32
ENDBRANCH 30 31
ENDBRANCH 19 30
ENDBRANCH 17 19
ENDBRANCH 6 15
ENDBRANCH 3 6
ENDBRANCH 1 2
BRANCH 1 42
ATOM     42  CB  ARG F 167      -2.908  20.201  37.977  1.00 34.27 LIG 0.04  C 
BRANCH 42 43
ATOM     43  CG  ARG F 167      -2.407  21.550  37.501  1.00 36.76 LIG 0.02  C 
BRANCH 43 44
ATOM     44  CD  ARG F 167      -3.560  22.473  37.223  1.00 47.53 LIG 0.14  C 
BRANCH 44 45
ATOM     45  NE  ARG F 167      -4.383  21.970  36.132  1.00 46.15 LIG-0.23  N 
ATOM     46 HE   ARG F 167      -4.982  21.380  36.311  1.00 46.15 LIG 0.18  HD
ATOM     47  CZ  ARG F 167      -4.256  22.377  34.876  1.00 54.25 LIG 0.67  C 
ATOM     48  NH2 ARG F 167      -5.044  21.880  33.926  1.00 44.38 LIG-0.23  N 
ATOM     49  NH1 ARG F 167      -3.330  23.283  34.577  1.00 45.80 LIG-0.23  N 
ATOM     50 1HH2 ARG F 167      -5.639  21.293  34.126  1.00 44.38 LIG 0.17  HD
ATOM     51 2HH2 ARG F 167      -4.958  22.147  33.114  1.00 44.38 LIG 0.17  HD
ATOM     52 2HH1 ARG F 167      -3.240  23.553  33.766  1.00 45.80 LIG 0.17  HD
ATOM     53 1HH1 ARG F 167      -2.822  23.598  35.194  1.00 45.80 LIG 0.17  HD
ENDBRANCH 44 45
ENDBRANCH 43 44
ENDBRANCH 42 43
ENDBRANCH 1 42
BRANCH 1 54
ATOM     54  N   ARG F 167      -0.774  19.459  38.990  1.00 32.00 LIG-0.35  N 
ATOM     55 H    ARG F 167      -0.601  18.679  38.670  1.00 32.00 LIG 0.16  HD
ATOM     56  C   GLN F 166       0.163  20.371  39.241  1.00 42.00 LIG 0.24  C 
ATOM     57 O    GLN F 166      -0.085  21.522  39.617  1.00 37.97 LIG-0.27  OA
BRANCH 56 58
ATOM     58  CA  GLN F 166       1.594  19.911  39.021  1.00 41.36 LIG 0.18  C 
BRANCH 58 59
ATOM     59  CB  GLN F 166       2.147  19.342  40.333  1.00 34.92 LIG 0.04  C 
BRANCH 59 60
ATOM     60  CG  GLN F 166       3.401  18.516  40.192  1.00 32.73 LIG 0.10  C 
BRANCH 60 61
ATOM     61  CD  GLN F 166       3.826  17.907  41.515  1.00 43.28 LIG 0.21  C 
ATOM     62  NE2 GLN F 166       4.400  16.709  41.461  1.00 36.91 LIG-0.37  N 
ATOM     63 21HE GLN F 166       4.515  16.321  40.702  1.00 36.91 LIG 0.16  HD
ATOM     64 22HE GLN F 166       4.655  16.322  42.186  1.00 36.91 LIG 0.16  HD
ATOM     65 OE1  GLN F 166       3.636  18.508  42.577  1.00 42.55 LIG-0.27  OA
ENDBRANCH 60 61
ENDBRANCH 59 60
ENDBRANCH 58 59
BRANCH 58 66
ATOM     66  N   GLN F 166       2.381  21.030  38.525  1.00 35.11 LIG-0.35  N 
ATOM     67  C   THR F 165       3.408  20.864  37.698  1.00 35.16 LIG 0.24  C 
ATOM     68 O    THR F 165       3.807  19.743  37.355  1.00 30.91 LIG-0.27  OA
ATOM     69 H    GLN F 166       2.122  21.797  38.815  1.00 35.11 LIG 0.16  HD
BRANCH 67 70
ATOM     70  CA  THR F 165       4.108  22.107  37.165  1.00 44.00 LIG 0.20  C 
BRANCH 70 71
ATOM     71  CB  THR F 165       5.622  21.981  37.370  1.00 46.85 LIG 0.15  C 
ATOM     72  CG2 THR F 165       6.368  22.909  36.410  1.00 37.95 LIG 0.04  C 
BRANCH 71 73
ATOM     73 OG1  THR F 165       5.951  22.304  38.728  1.00 45.14 LIG-0.39  OA
ATOM     74 HG1  THR F 165       6.780  22.232  38.840  1.00 45.14 LIG 0.21  HD
ENDBRANCH 71 73
ENDBRANCH 70 71
BRANCH 70 75
ATOM     75  N   THR F 165       3.608  23.330  37.782  1.00 38.01 LIG-0.34  N 
ATOM     76 H    THR F 165       3.706  23.360  38.635  1.00 38.01 LIG 0.16  HD
ATOM     77  C   THR F 164       3.049  24.309  37.068  1.00 57.69 LIG 0.26  C 
ATOM     78 O    THR F 164       2.917  24.250  35.841  1.00 49.67 LIG-0.27  OA
BRANCH 77 79
ATOM     79  CA  THR F 164       2.566  25.531  37.855  1.00 56.73 LIG 0.43  C 
ATOM     80  N   THR F 164       2.325  25.185  39.253  1.00 65.32 LIG 0.62  N 
BRANCH 79 81
ATOM     81  CB  THR F 164       3.597  26.682  37.721  1.00 58.05 LIG 0.16  C 
ATOM     82  CG2 THR F 164       3.265  27.809  38.696  1.00 51.52 LIG 0.04  C 
BRANCH 81 83
ATOM     83 OG1  THR F 164       4.919  26.194  37.992  1.00 58.15 LIG-0.39  OA
ATOM     84 HG1  THR F 164       5.471  26.821  37.911  1.00 58.15 LIG 0.21  HD
ENDBRANCH 81 83
ENDBRANCH 79 81
ENDBRANCH 77 79
ENDBRANCH 70 75
ENDBRANCH 67 70
ENDBRANCH 58 66
ENDBRANCH 56 58
ENDBRANCH 1 54
TORSDOF 35
