REMARK  22 active torsions:
REMARK  status: ('A' for Active; 'I' for Inactive)
REMARK    1  A    between atoms: CA_2  and  CB_5 
REMARK    2  A    between atoms: CA_2  and  C_3 
REMARK       I    between atoms: C_3  and  N_14 
REMARK    3  A    between atoms: CB_5  and  CG_6 
REMARK    4  A    between atoms: CZ_11  and  OH_12 
REMARK    5  A    between atoms: N_14  and  CA_15 
REMARK    6  A    between atoms: CA_15  and  C_16 
REMARK       I    between atoms: C_16  and  N_19 
REMARK    7  A    between atoms: CA_20  and  C_21 
REMARK       I    between atoms: C_21  and  N_26 
REMARK    8  A    between atoms: N_26  and  CA_27 
REMARK    9  A    between atoms: CA_27  and  CB_30 
REMARK   10  A    between atoms: CA_27  and  C_28 
REMARK       I    between atoms: C_28  and  N_39 
REMARK   11  A    between atoms: CB_30  and  CG_31 
REMARK   12  A    between atoms: CG_31  and  CD_32 
REMARK   13  A    between atoms: CD_32  and  CE_33 
REMARK   14  A    between atoms: CE_33  and  NZ_34 
REMARK   15  A    between atoms: N_39  and  CA_40 
REMARK   16  A    between atoms: CA_40  and  C_41 
REMARK   17  A    between atoms: CA_40  and  CB_43 
REMARK       I    between atoms: C_41  and  N_55 
REMARK   18  A    between atoms: CB_43  and  CG_44 
REMARK   19  A    between atoms: N_55  and  CA_56 
REMARK   20  A    between atoms: CA_56  and  C_57 
REMARK   21  A    between atoms: CA_56  and  CB_59 
REMARK   22  A    between atoms: CB_59  and  CG_60 
REMARK       I    between atoms: CG_60  and  ND2_62 
ROOT
ATOM      1  CA  LYS B   5      -1.814   4.664  -2.320  1.00 42.36     0.176 C 
ENDROOT
BRANCH   1   2
ATOM      2  CB  LYS B   5      -2.047   4.844  -3.828  1.00 43.80     0.035 C 
BRANCH   2   3
ATOM      3  CG  LYS B   5      -1.866   6.290  -4.352  1.00 49.23     0.004 C 
BRANCH   3   4
ATOM      4  CD  LYS B   5      -3.039   7.210  -3.998  1.00 48.54     0.027 C 
BRANCH   4   5
ATOM      5  CE  LYS B   5      -2.686   8.669  -4.231  1.00 43.92     0.229 C 
BRANCH   5   6
ATOM      6  NZ  LYS B   5      -3.891   9.512  -4.041  1.00 45.51    -0.079 N 
ATOM      7  HZ3 LYS B   5      -3.977   9.718  -3.179  1.00 45.51     0.274 HD
ATOM      8  HZ1 LYS B   5      -3.809  10.259  -4.517  1.00 45.51     0.274 HD
ATOM      9  HZ2 LYS B   5      -4.612   9.066  -4.312  1.00 45.51     0.274 HD
ENDBRANCH   5   6
ENDBRANCH   4   5
ENDBRANCH   3   4
ENDBRANCH   2   3
ENDBRANCH   1   2
BRANCH   1  10
ATOM     10  C   LYS B   5      -0.470   5.277  -1.925  1.00 41.24     0.241 C 
ATOM     11  N   TRP B   6       0.599   4.487  -2.036  1.00 42.23    -0.346 N 
ATOM     12  H   TRP B   6       0.570   3.660  -2.270  1.00 42.23     0.163 HD
ATOM     13  O   LYS B   5      -0.392   6.440  -1.520  1.00 40.50    -0.271 OA
BRANCH  11  14
ATOM     14  CA  TRP B   6       1.938   4.998  -1.756  1.00 42.54     0.181 C 
BRANCH  14  15
ATOM     15  C   TRP B   6       2.565   5.511  -3.051  1.00 45.00     0.241 C 
ATOM     16  O   TRP B   6       2.731   4.746  -4.011  1.00 46.85    -0.271 OA
ATOM     17  N   ASN B   7       2.908   6.805  -3.073  1.00 47.11    -0.347 N 
ATOM     18  H   ASN B   7       2.672   7.364  -2.464  1.00 47.11     0.163 HD
BRANCH  17  19
ATOM     19  CA  ASN B   7       3.725   7.405  -4.142  1.00 45.24     0.171 C 
BRANCH  19  20
ATOM     20  C   ASN B   7       5.060   7.876  -3.570  1.00 46.26     0.220 C 
ATOM     21  O   ASN B   7       5.228   9.061  -3.268  1.00 44.70    -0.287 OA
ENDBRANCH  19  20
BRANCH  19  22
ATOM     22  CB  ASN B   7       3.023   8.597  -4.815  1.00 46.57     0.136 C 
BRANCH  22  23
ATOM     23  CG  ASN B   7       1.668   8.234  -5.415  1.00 48.94     0.217 C 
ATOM     24  ND2 ASN B   7       1.123   9.127  -6.241  1.00 48.79    -0.370 N 
ATOM     25 1HD2 ASN B   7       0.358   8.969  -6.601  1.00 48.79     0.159 HD
ATOM     26 2HD2 ASN B   7       1.536   9.861  -6.414  1.00 48.79     0.159 HD
ATOM     27  OD1 ASN B   7       1.118   7.172  -5.137  1.00 52.21    -0.274 OA
ENDBRANCH  22  23
ENDBRANCH  19  22
ENDBRANCH  17  19
ENDBRANCH  14  15
BRANCH  14  28
ATOM     28  CB  TRP B   6       2.839   3.937  -1.117  1.00 42.47     0.075 C 
BRANCH  28  29
ATOM     29  CG  TRP B   6       4.288   4.401  -1.063  1.00 46.30    -0.028 A 
ATOM     30  CD1 TRP B   6       5.215   4.327  -2.076  1.00 49.14     0.096 A 
ATOM     31  NE1 TRP B   6       6.412   4.873  -1.668  1.00 51.13    -0.365 N 
ATOM     32  HE1 TRP B   6       7.124   4.929  -2.146  1.00 51.13     0.165 HD
ATOM     33  CE2 TRP B   6       6.283   5.312  -0.375  1.00 47.23     0.042 A 
ATOM     34  CZ2 TRP B   6       7.219   5.929   0.464  1.00 46.28     0.030 A 
ATOM     35  CD2 TRP B   6       4.959   5.037   0.040  1.00 41.81    -0.002 A 
ATOM     36  CH2 TRP B   6       6.810   6.268   1.732  1.00 44.17     0.002 A 
ATOM     37  CZ3 TRP B   6       5.512   6.003   2.175  1.00 33.54     0.001 A 
ATOM     38  CE3 TRP B   6       4.575   5.388   1.337  1.00 38.27     0.014 A 
ENDBRANCH  28  29
ENDBRANCH  14  28
ENDBRANCH  11  14
ENDBRANCH   1  10
BRANCH   1  39
ATOM     39  N   LYS B   5      -2.898   5.275  -1.555  1.00 39.73    -0.346 N 
ATOM     40  C   PRO B   4      -3.364   4.766  -0.416  1.00 35.29     0.241 C 
ATOM     41  O   PRO B   4      -2.933   3.726   0.082  1.00 36.70    -0.271 OA
ATOM     42  H   LYS B   5      -3.207   5.995  -1.909  1.00 39.73     0.163 HD
BRANCH  40  43
ATOM     43  CA  PRO B   4      -4.471   5.559   0.254  1.00 31.05     0.179 C 
ATOM     44  N   PRO B   4      -5.460   4.676   0.871  1.00 34.55    -0.337 N 
ATOM     45  C   GLY B   3      -6.406   4.103   0.127  1.00 37.27     0.238 C 
ATOM     46  CD  PRO B   4      -5.326   4.652   2.339  1.00 31.08     0.127 C 
ATOM     47  O   GLY B   3      -6.449   4.253  -1.098  1.00 44.84    -0.272 OA
ATOM     48  CG  PRO B   4      -4.033   5.390   2.581  1.00 26.25     0.022 C 
ATOM     49  CB  PRO B   4      -3.934   6.356   1.447  1.00 27.99     0.037 C 
BRANCH  45  50
ATOM     50  CA  GLY B   3      -7.419   3.239   0.845  1.00 35.98     0.225 C 
BRANCH  50  51
ATOM     51  N   GLY B   3      -8.189   2.451  -0.089  1.00 37.88    -0.350 N 
ATOM     52  C   TYR B   2      -8.180   1.121  -0.075  1.00 38.85     0.257 C 
ATOM     53  O   TYR B   2      -7.597   0.454   0.783  1.00 37.42    -0.271 OA
ATOM     54  H   GLY B   3      -8.647   2.918  -0.647  1.00 37.88     0.163 HD
BRANCH  52  55
ATOM     55  CA  TYR B   2      -8.965   0.437  -1.190  1.00 47.59     0.404 C 
ATOM     56  N   TYR B   2      -8.157  -0.611  -1.813  1.00 42.90     0.615 N 
BRANCH  55  57
ATOM     57  CB  TYR B   2     -10.271  -0.136  -0.633  1.00 41.46     0.089 C 
BRANCH  57  58
ATOM     58  CG  TYR B   2     -11.319   0.908  -0.256  1.00 40.04    -0.055 A 
ATOM     59  CD1 TYR B   2     -12.328   1.253  -1.144  1.00 39.56     0.010 A 
ATOM     60  CE1 TYR B   2     -13.292   2.197  -0.814  1.00 39.46     0.037 A 
ATOM     61  CZ  TYR B   2     -13.256   2.809   0.420  1.00 36.77     0.065 A 
ATOM     62  CE2 TYR B   2     -12.262   2.485   1.325  1.00 30.56     0.037 A 
ATOM     63  CD2 TYR B   2     -11.300   1.539   0.986  1.00 33.12     0.010 A 
BRANCH  61  64
ATOM     64  OH  TYR B   2     -14.231   3.745   0.729  1.00 37.21    -0.361 OA
ATOM     65  HH  TYR B   2     -14.320   4.280   0.087  1.00 37.21     0.217 HD
ENDBRANCH  61  64
ENDBRANCH  57  58
ENDBRANCH  55  57
ENDBRANCH  52  55
ENDBRANCH  50  51
ENDBRANCH  45  50
ENDBRANCH  40  43
ENDBRANCH   1  39
TORSDOF 22
