USER: ADFR SOLUTION from run 0
USER: SCORE 17.670581 LL:  -2.997 LR: -16.606 RR:   0.000 FEB: -11.535
USER: RMSD 0.177294
USER: STATUS Locally minimized using BFGS
USER: GENES 19
USER: genes 0 Translation |==|  0.49091 0.47568 0.47467
USER: genes 1 Rotation |==|  0.50842 0.50343 0.49444 0.99989
USER: genes 2 Torsion [C]-CA--CB-[CG] |==|  0.44859
USER: genes 3 Torsion [CA]-CB--CG-[CD] |==|  0.48952
USER: genes 4 Torsion [CB]-CG--CD-[NE] |==|  0.44788
USER: genes 5 Torsion [CG]-CD--NE-[CZ] |==|  0.29211
USER: genes 6 Torsion [N]-CA--C-[N] |==|  0.40663
USER: genes 7 Torsion [C]-N--CA-[C] |==|  0.52421
USER: genes 8 Torsion [N]-CA--C-[N] |==|  0.45607
USER: genes 9 Torsion [C]-N--CA-[CB] |==|  0.23995
USER: genes 10 Torsion [N]-CA--C-[O] |==|  0.92999
USER: genes 11 Torsion [CB]-CA--N-[C] |==|  0.31667
USER: genes 12 Torsion [N]-C--CA-[N] |==|  0.37774
USER: genes 13 Torsion [N]-C--CA-[N] |==|  0.34760
USER: genes 14 Torsion [C]-CA--N-[C] |==|  0.74068
USER: genes 15 Torsion [N]-C--CA-[N] |==|  0.51530
USER: genes 16 Torsion [C]-CA--CB-[CG] |==|  0.15864
USER: genes 17 Torsion [CA]-CB--CG-[SD] |==|  0.52811
USER: genes 18 Torsion [CB]-CG--SD-[CE] |==|  0.21882
ROOT
ATOM      1  CA  ARG C  85     120.766  42.652  -8.991  1.00 24.81 LIG 0.18  C 
ENDROOT
BRANCH 1 2
ATOM      2  CB  ARG C  85     119.859  41.453  -8.704  1.00 26.62 LIG 0.04  C 
BRANCH 2 3
ATOM      3  CG  ARG C  85     118.828  41.660  -7.625  1.00 27.35 LIG 0.02  C 
BRANCH 3 4
ATOM      4  CD  ARG C  85     117.956  40.388  -7.548  1.00 30.83 LIG 0.14  C 
BRANCH 4 5
ATOM      5  NE  ARG C  85     117.227  40.280  -6.291  1.00 23.70 LIG-0.23  N 
ATOM      6 HE   ARG C  85     117.668  40.053  -5.588  1.00 23.70 LIG 0.18  HD
ATOM      7  CZ  ARG C  85     115.923  40.509  -6.162  1.00 30.65 LIG 0.67  C 
ATOM      8  NH1 ARG C  85     115.199  40.889  -7.212  1.00 24.79 LIG-0.23  N 
ATOM      9  NH2 ARG C  85     115.349  40.378  -4.970  1.00 28.31 LIG-0.23  N 
ATOM     10 2HH1 ARG C  85     114.356  41.036  -7.123  1.00 24.79 LIG 0.17  HD
ATOM     11 1HH1 ARG C  85     115.574  40.988  -7.980  1.00 24.79 LIG 0.17  HD
ATOM     12 1HH2 ARG C  85     115.820  40.147  -4.289  1.00 28.31 LIG 0.17  HD
ATOM     13 2HH2 ARG C  85     114.506  40.525  -4.881  1.00 28.31 LIG 0.17  HD
ENDBRANCH 4 5
ENDBRANCH 3 4
ENDBRANCH 2 3
ENDBRANCH 1 2
BRANCH 1 14
ATOM     14  C   ARG C  85     121.990  42.153  -9.728  1.00 23.94 LIG 0.24  C 
ATOM     15  N   GLY C  86     123.033  41.819  -8.985  1.00 22.55 LIG-0.35  N 
ATOM     16 H    GLY C  86     123.101  41.932  -8.136  1.00 22.55 LIG 0.16  HD
ATOM     17 O    ARG C  85     121.985  42.046 -10.954  1.00 20.62 LIG-0.27  OA
BRANCH 15 18
ATOM     18  CA  GLY C  86     124.171  41.211  -9.639  1.00 30.25 LIG 0.23  C 
BRANCH 18 19
ATOM     19  C   GLY C  86     125.187  40.696  -8.652  1.00 23.49 LIG 0.24  C 
ATOM     20 O    GLY C  86     125.200  41.079  -7.472  1.00 21.63 LIG-0.27  OA
ATOM     21  N   ALA C  87     126.068  39.851  -9.174  1.00 19.98 LIG-0.35  N 
ATOM     22 H    ALA C  87     126.027  39.572  -9.985  1.00 19.98 LIG 0.16  HD
BRANCH 21 23
ATOM     23  CA  ALA C  87     127.192  39.312  -8.430  1.00 25.46 LIG 0.18  C 
ATOM     24  CB  ALA C  87     126.771  38.066  -7.668  1.00 28.24 LIG 0.04  C 
BRANCH 23 25
ATOM     25  C   ALA C  87     128.373  38.996  -9.371  1.00 31.90 LIG 0.20  C 
ATOM     26 O    ALA C  87     128.198  38.751 -10.580  1.00 29.46 LIG-0.65  OA
ATOM     27 OXT  ALA C  87     129.533  38.970  -8.940  1.00 32.87 LIG-0.65  OA
ENDBRANCH 23 25
ENDBRANCH 21 23
ENDBRANCH 18 19
ENDBRANCH 15 18
ENDBRANCH 1 14
BRANCH 1 28
ATOM     28  N   ARG C  85     120.115  43.650  -9.818  1.00 18.65 LIG-0.35  N 
ATOM     29  C   PRO C  84     119.817  44.860  -9.385  1.00 20.35 LIG 0.24  C 
ATOM     30 O    PRO C  84     120.037  45.216  -8.230  1.00 17.99 LIG-0.27  OA
ATOM     31 H    ARG C  85     119.943  43.380 -10.615  1.00 18.65 LIG 0.16  HD
BRANCH 29 32
ATOM     32  CA  PRO C  84     119.186  45.796 -10.422  1.00 19.37 LIG 0.18  C 
ATOM     33  N   PRO C  84     118.045  46.537  -9.865  1.00 20.85 LIG-0.34  N 
ATOM     34  CD  PRO C  84     118.313  47.987  -9.744  1.00 20.85 LIG 0.13  C 
ATOM     35  C   MET C  83     116.928  45.878  -9.547  1.00 22.34 LIG 0.24  C 
ATOM     36  CG  PRO C  84     119.801  48.096 -10.021  1.00 19.31 LIG 0.02  C 
ATOM     37  CB  PRO C  84     120.162  46.903 -10.862  1.00 19.29 LIG 0.04  C 
ATOM     38 O    MET C  83     116.816  44.662  -9.762  1.00 21.27 LIG-0.27  OA
BRANCH 35 39
ATOM     39  CA  MET C  83     115.765  46.610  -8.912  1.00 20.32 LIG 0.18  C 
BRANCH 39 40
ATOM     40  N   MET C  83     114.581  46.373  -9.721  1.00 21.66 LIG-0.35  N 
ATOM     41  C   GLY C  82     114.193  47.199 -10.695  1.00 33.13 LIG 0.25  C 
ATOM     42 O    GLY C  82     114.774  48.268 -10.957  1.00 25.06 LIG-0.27  OA
ATOM     43 H    MET C  83     114.156  45.653  -9.514  1.00 21.66 LIG 0.16  HD
BRANCH 41 44
ATOM     44  CA  GLY C  82     112.969  46.746 -11.476  1.00 30.04 LIG 0.47  C 
ATOM     45  N   GLY C  82     112.631  47.585 -12.610  1.00 27.71 LIG 0.61  N 
ENDBRANCH 41 44
ENDBRANCH 39 40
BRANCH 39 46
ATOM     46  CB  MET C  83     115.550  46.104  -7.482  1.00 20.93 LIG 0.04  C 
BRANCH 46 47
ATOM     47  CG  MET C  83     116.767  46.233  -6.578  1.00 22.56 LIG 0.08  C 
BRANCH 47 48
ATOM     48 SD   MET C  83     116.538  45.357  -5.010  1.00 24.19 LIG-0.17  SA
ATOM     49  CE  MET C  83     116.856  43.661  -5.527  1.00 17.13 LIG 0.09  C 
ENDBRANCH 47 48
ENDBRANCH 46 47
ENDBRANCH 39 46
ENDBRANCH 35 39
ENDBRANCH 29 32
ENDBRANCH 1 28
TORSDOF 17
