USER: ADFR SOLUTION from run 0
USER: SCORE 18.753293 LL:  -3.647 LR: -16.380 RR:   0.000 FEB:  -9.220
USER: RMSD 0.807592
USER: STATUS Locally minimized using BFGS
USER: GENES 26
USER: genes 0 Translation |==|  0.60011 0.67704 0.36383
USER: genes 1 Rotation |==|  0.53270 0.49279 0.50489 0.99885
USER: genes 2 Torsion [N]-CA--C-[N] |==|  0.97656
USER: genes 3 Torsion [C]-N--CA-[C] |==|  0.79444
USER: genes 4 Torsion [N]-CA--C-[N] |==|  0.37552
USER: genes 5 Torsion [C]-N--CA-[C] |==|  0.63412
USER: genes 6 Torsion [N]-CA--C-[N] |==|  0.13643
USER: genes 7 Torsion [C]-N--CA-[C] |==|  0.20112
USER: genes 8 Torsion [N]-CA--C-[N] |==|  0.48234
USER: genes 9 Torsion [C]-N--CA-[CB] |==|  0.42813
USER: genes 10 Torsion [N]-CA--CB-[CG] |==|  0.14183
USER: genes 11 Torsion [CA]-CB--CG-[CD] |==|  0.51239
USER: genes 12 Torsion [CB]-CG--CD-[OE1] |==|  0.05495
USER: genes 13 Torsion [N]-CA--C-[O] |==|  0.40216
USER: genes 14 Torsion [C]-CA--CB-[OG] |==|  0.49732
USER: genes 15 Torsion [CA]-CB--OG-[HG] |==|  0.24657
USER: genes 16 Torsion [C]-CA--N-[C] |==|  0.70562
USER: genes 17 Torsion [N]-C--CA-[N] |==|  0.43763
USER: genes 18 Torsion [C]-CA--N-[C] |==|  0.71676
USER: genes 19 Torsion [N]-C--CA-[N] |==|  0.00920
USER: genes 20 Torsion [C]-CA--CB-[CG] |==|  0.36539
USER: genes 21 Torsion [CA]-CB--CG-[CD] |==|  0.83029
USER: genes 22 Torsion [CB]-CG--CD-[OE1] |==|  0.04165
USER: genes 23 Torsion [C]-CA--CB-[CG] |==|  0.81226
USER: genes 24 Torsion [CA]-CB--CG-[CD1] |==|  0.27695
USER: genes 25 Torsion [CE1]-CZ--OH-[HH] |==|  0.50007
ROOT
ATOM      1  CA  SER B 215      -1.347  22.919  66.624  1.00 52.27 LIG 0.20  C 
ENDROOT
BRANCH 1 2
ATOM      2  C   SER B 215      -2.836  22.802  66.932  1.00 51.68 LIG 0.24  C 
ATOM      3  N   GLY B 216      -3.421  21.611  66.824  1.00 53.30 LIG-0.35  N 
ATOM      4 H    GLY B 216      -3.016  20.889  66.592  1.00 53.30 LIG 0.16  HD
ATOM      5 O    SER B 215      -3.460  23.817  67.265  1.00 50.19 LIG-0.27  OA
BRANCH 3 6
ATOM      6  CA  GLY B 216      -4.839  21.455  67.105  1.00 53.60 LIG 0.23  C 
BRANCH 6 7
ATOM      7  C   GLY B 216      -5.119  21.518  68.599  1.00 54.90 LIG 0.23  C 
ATOM      8 O    GLY B 216      -4.421  20.912  69.411  1.00 56.89 LIG-0.27  OA
ATOM      9  N   GLY B 217      -6.159  22.269  68.955  1.00 54.85 LIG-0.35  N 
ATOM     10 H    GLY B 217      -6.659  22.693  68.399  1.00 54.85 LIG 0.16  HD
BRANCH 9 11
ATOM     11  CA  GLY B 217      -6.536  22.432  70.346  1.00 55.68 LIG 0.23  C 
BRANCH 11 12
ATOM     12  C   GLY B 217      -8.014  22.220  70.596  1.00 61.00 LIG 0.23  C 
ATOM     13  N   GLY B 218      -8.560  21.120  70.082  1.00 59.47 LIG-0.35  N 
ATOM     14 H    GLY B 218      -8.139  20.568  69.575  1.00 59.47 LIG 0.16  HD
ATOM     15 O    GLY B 217      -8.662  23.046  71.244  1.00 65.89 LIG-0.27  OA
BRANCH 13 16
ATOM     16  CA  GLY B 218      -9.938  20.759  70.343  1.00 64.42 LIG 0.23  C 
BRANCH 16 17
ATOM     17  C   GLY B 218     -10.943  21.642  69.623  1.00 64.00 LIG 0.23  C 
ATOM     18 O    GLY B 218     -10.615  22.641  68.974  1.00 58.72 LIG-0.27  OA
ATOM     19  N   GLN B 219     -12.207  21.245  69.743  1.00 74.28 LIG-0.35  N 
ATOM     20 H    GLN B 219     -12.444  20.520  70.139  1.00 74.28 LIG 0.16  HD
BRANCH 19 21
ATOM     21  CA  GLN B 219     -13.314  22.023  69.202  1.00 75.25 LIG 0.16  C 
BRANCH 21 22
ATOM     22  CB  GLN B 219     -14.515  21.123  68.895  1.00 86.28 LIG 0.04  C 
BRANCH 22 23
ATOM     23  CG  GLN B 219     -14.930  20.223  70.048  1.00 94.41 LIG 0.10  C 
BRANCH 23 24
ATOM     24  CD  GLN B 219     -16.049  19.272  69.674  1.00 99.68 LIG 0.21  C 
ATOM     25 OE1  GLN B 219     -16.290  19.007  68.497  1.00 99.85 LIG-0.27  OA
ATOM     26  NE2 GLN B 219     -16.743  18.755  70.682  1.00103.54 LIG-0.37  N 
ATOM     27 22HE GLN B 219     -17.390  18.211  70.524  1.00103.54 LIG 0.16  HD
ATOM     28 21HE GLN B 219     -16.545  18.964  71.492  1.00103.54 LIG 0.16  HD
ENDBRANCH 23 24
ENDBRANCH 22 23
ENDBRANCH 21 22
BRANCH 21 29
ATOM     29  C   GLN B 219     -13.719  23.113  70.185  1.00 69.40 LIG 0.22  C 
ATOM     30 O    GLN B 219     -14.103  24.207  69.782  1.00 67.07 LIG-0.29  OA
ENDBRANCH 21 29
ENDBRANCH 19 21
ENDBRANCH 16 17
ENDBRANCH 13 16
ENDBRANCH 11 12
ENDBRANCH 9 11
ENDBRANCH 6 7
ENDBRANCH 3 6
ENDBRANCH 1 2
BRANCH 1 31
ATOM     31  CB  SER B 215      -1.165  23.808  65.385  1.00 50.74 LIG 0.20  C 
BRANCH 31 32
ATOM     32 OG   SER B 215       0.205  23.971  65.065  1.00 51.75 LIG-0.40  OA
ATOM     33 HG   SER B 215       0.448  23.353  64.551  1.00 51.75 LIG 0.21  HD
ENDBRANCH 31 32
ENDBRANCH 1 31
BRANCH 1 34
ATOM     34  N   SER B 215      -0.681  21.636  66.425  1.00 54.58 LIG-0.34  N 
ATOM     35 H    SER B 215      -0.861  21.256  65.675  1.00 54.58 LIG 0.16  HD
ATOM     36  C   TYR B 214       0.134  21.118  67.347  1.00 60.44 LIG 0.24  C 
ATOM     37 O    TYR B 214       0.239  21.579  68.486  1.00 63.52 LIG-0.27  OA
BRANCH 36 38
ATOM     38  CA  TYR B 214       0.942  19.899  66.902  1.00 69.60 LIG 0.18  C 
BRANCH 38 39
ATOM     39  N   TYR B 214       2.129  19.745  67.731  1.00 70.42 LIG-0.34  N 
ATOM     40 H    TYR B 214       1.969  19.399  68.503  1.00 70.42 LIG 0.16  HD
ATOM     41  C   GLU B 213       3.340  20.105  67.333  1.00 68.24 LIG 0.26  C 
ATOM     42 O    GLU B 213       3.547  20.682  66.266  1.00 68.90 LIG-0.27  OA
BRANCH 41 43
ATOM     43  CA  GLU B 213       4.493  19.779  68.286  1.00 66.05 LIG 0.40  C 
ATOM     44  N   GLU B 213       4.030  19.042  69.455  1.00 67.54 LIG 0.61  N 
BRANCH 43 45
ATOM     45  CB  GLU B 213       5.569  18.979  67.547  1.00 68.67 LIG 0.06  C 
BRANCH 45 46
ATOM     46  CG  GLU B 213       6.993  19.503  67.745  1.00 74.56 LIG 0.12  C 
BRANCH 46 47
ATOM     47  CD  GLU B 213       7.183  20.930  67.241  1.00 75.07 LIG 0.17  C 
ATOM     48 OE1  GLU B 213       6.172  21.631  66.996  1.00 71.08 LIG-0.65  OA
ATOM     49 OE2  GLU B 213       8.350  21.350  67.087  1.00 77.01 LIG-0.65  OA
ENDBRANCH 46 47
ENDBRANCH 45 46
ENDBRANCH 43 45
ENDBRANCH 41 43
ENDBRANCH 38 39
BRANCH 38 50
ATOM     50  CB  TYR B 214       0.085  18.632  66.961  1.00 76.14 LIG 0.07  C 
BRANCH 50 51
ATOM     51  CG  TYR B 214      -0.302  18.205  68.365  1.00 81.97 LIG-0.06  A 
ATOM     52  CD1 TYR B 214      -1.558  18.501  68.884  1.00 81.11 LIG 0.01  A 
ATOM     53  CE1 TYR B 214      -1.913  18.114  70.164  1.00 82.09 LIG 0.04  A 
ATOM     54  CZ  TYR B 214      -1.009  17.421  70.944  1.00 85.00 LIG 0.07  A 
ATOM     55  CE2 TYR B 214       0.243  17.114  70.454  1.00 86.81 LIG 0.04  A 
ATOM     56  CD2 TYR B 214       0.590  17.507  69.172  1.00 86.12 LIG 0.01  A 
BRANCH 54 57
ATOM     57 OH   TYR B 214      -1.358  17.035  72.219  1.00 86.93 LIG-0.36  OA
ATOM     58 HH   TYR B 214      -0.716  16.626  72.574  1.00 86.93 LIG 0.22  HD
ENDBRANCH 54 57
ENDBRANCH 50 51
ENDBRANCH 38 50
ENDBRANCH 36 38
ENDBRANCH 1 34
TORSDOF 24
