USER: ADFR SOLUTION from run 0
USER: SCORE 16.650246 LL:  -4.709 LR: -13.928 RR:   0.000 FEB:  -7.962
USER: RMSD 1.200285
USER: STATUS Locally minimized using BFGS
USER: GENES 22
USER: genes 0 Translation |==|  0.43219 0.49471 0.42903
USER: genes 1 Rotation |==|  0.48943 0.48565 0.48915 0.99956
USER: genes 2 Torsion [N]-CA--C-[N] |==|  0.34982
USER: genes 3 Torsion [C]-N--CA-[CB] |==|  0.39218
USER: genes 4 Torsion [N]-CA--CB-[CG] |==|  0.64458
USER: genes 5 Torsion [CA]-CB--CG-[CD] |==|  0.18163
USER: genes 6 Torsion [CB]-CG--CD-[OE1] |==|  0.03739
USER: genes 7 Torsion [N]-CA--C-[N] |==|  0.29950
USER: genes 8 Torsion [C]-N--CA-[C] |==|  0.58067
USER: genes 9 Torsion [N]-CA--C-[O] |==|  0.48546
USER: genes 10 Torsion [N]-CA--CB-[CG] |==|  0.15172
USER: genes 11 Torsion [CA]-CB--CG-[CD1] |==|  0.76711
USER: genes 12 Torsion [C]-CA--CB-[CG] |==|  0.49324
USER: genes 13 Torsion [CA]-CB--CG-[CD1] |==|  0.69303
USER: genes 14 Torsion [CE1]-CZ--OH-[HH] |==|  0.50684
USER: genes 15 Torsion [C]-CA--N-[C] |==|  0.73547
USER: genes 16 Torsion [N]-C--CA-[N] |==|  0.30578
USER: genes 17 Torsion [C]-CA--N-[C] |==|  0.76927
USER: genes 18 Torsion [N]-C--CA-[N] |==|  0.17459
USER: genes 19 Torsion [C]-CA--CB-[CG] |==|  0.86724
USER: genes 20 Torsion [CA]-CB--CG-[CD2] |==|  0.74038
USER: genes 21 Torsion [C]-CA--CB-[CG2] |==|  0.48878
ROOT
ATOM      1  CA  TYR P   8      81.023  -2.286  59.463  1.00 57.99 LIG 0.18  C 
ENDROOT
BRANCH 1 2
ATOM      2  C   TYR P   8      80.656  -0.832  59.723  1.00 56.68 LIG 0.24  C 
ATOM      3  N   GLN P   9      79.916  -0.232  58.797  1.00 57.67 LIG-0.35  N 
ATOM      4 H    GLN P   9      79.693  -0.599  58.051  1.00 57.67 LIG 0.16  HD
ATOM      5 O    TYR P   8      81.041  -0.269  60.753  1.00 54.26 LIG-0.27  OA
BRANCH 3 6
ATOM      6  CA  GLN P   9      79.413   1.124  58.970  1.00 54.86 LIG 0.18  C 
BRANCH 6 7
ATOM      7  CB  GLN P   9      79.475   1.904  57.660  1.00 52.41 LIG 0.04  C 
BRANCH 7 8
ATOM      8  CG  GLN P   9      80.180   3.244  57.776  1.00 53.63 LIG 0.10  C 
BRANCH 8 9
ATOM      9  CD  GLN P   9      81.647   3.093  58.105  1.00 56.56 LIG 0.21  C 
ATOM     10 OE1  GLN P   9      82.204   2.000  58.009  1.00 59.67 LIG-0.27  OA
ATOM     11  NE2 GLN P   9      82.286   4.191  58.497  1.00 58.55 LIG-0.37  N 
ATOM     12 22HE GLN P   9      83.122   4.155  58.696  1.00 58.55 LIG 0.16  HD
ATOM     13 21HE GLN P   9      81.863   4.938  58.553  1.00 58.55 LIG 0.16  HD
ENDBRANCH 8 9
ENDBRANCH 7 8
ENDBRANCH 6 7
BRANCH 6 14
ATOM     14  C   GLN P   9      77.983   1.056  59.489  1.00 54.72 LIG 0.24  C 
ATOM     15 O    GLN P   9      77.066   0.685  58.747  1.00 59.60 LIG-0.27  OA
ATOM     16  N   PHE P  10      77.794   1.399  60.758  1.00 49.02 LIG-0.34  N 
ATOM     17 H    PHE P  10      78.426   1.611  61.302  1.00 49.02 LIG 0.16  HD
BRANCH 16 18
ATOM     18  CA  PHE P  10      76.457   1.439  61.333  1.00 50.33 LIG 0.19  C 
BRANCH 18 19
ATOM     19  C   PHE P  10      76.360   2.467  62.454  1.00 49.91 LIG 0.20  C 
ATOM     20 O    PHE P  10      75.276   2.705  62.990  1.00 45.93 LIG-0.65  OA
ATOM     21 OXT  PHE P  10      77.357   3.083  62.836  1.00 46.36 LIG-0.65  OA
ENDBRANCH 18 19
BRANCH 18 22
ATOM     22  CB  PHE P  10      76.040   0.055  61.838  1.00 51.88 LIG 0.07  C 
BRANCH 22 23
ATOM     23  CG  PHE P  10      77.008  -0.568  62.810  1.00 51.17 LIG-0.06  A 
ATOM     24  CD1 PHE P  10      78.117  -1.260  62.354  1.00 49.53 LIG 0.01  A 
ATOM     25  CE1 PHE P  10      78.998  -1.845  63.242  1.00 54.45 LIG 0.00  A 
ATOM     26  CZ  PHE P  10      78.768  -1.757  64.601  1.00 54.40 LIG 0.00  A 
ATOM     27  CE2 PHE P  10      77.664  -1.076  65.068  1.00 52.97 LIG 0.00  A 
ATOM     28  CD2 PHE P  10      76.785  -0.492  64.175  1.00 50.02 LIG 0.01  A 
ENDBRANCH 22 23
ENDBRANCH 18 22
ENDBRANCH 16 18
ENDBRANCH 6 14
ENDBRANCH 3 6
ENDBRANCH 1 2
BRANCH 1 29
ATOM     29  CB  TYR P   8      80.315  -3.193  60.468  1.00 54.61 LIG 0.07  C 
BRANCH 29 30
ATOM     30  CG  TYR P   8      80.561  -4.669  60.266  1.00 66.64 LIG-0.06  A 
ATOM     31  CD1 TYR P   8      79.545  -5.506  59.823  1.00 68.29 LIG 0.01  A 
ATOM     32  CE1 TYR P   8      79.763  -6.856  59.642  1.00 71.89 LIG 0.04  A 
ATOM     33  CZ  TYR P   8      81.008  -7.386  59.911  1.00 71.50 LIG 0.07  A 
ATOM     34  CE2 TYR P   8      82.031  -6.576  60.356  1.00 69.11 LIG 0.04  A 
ATOM     35  CD2 TYR P   8      81.803  -5.228  60.534  1.00 65.21 LIG 0.01  A 
BRANCH 33 36
ATOM     36 OH   TYR P   8      81.228  -8.731  59.733  1.00 83.55 LIG-0.36  OA
ATOM     37 HH   TYR P   8      82.014  -8.919  59.964  1.00 83.55 LIG 0.22  HD
ENDBRANCH 33 36
ENDBRANCH 29 30
ENDBRANCH 1 29
BRANCH 1 38
ATOM     38  N   TYR P   8      82.470  -2.427  59.555  1.00 59.31 LIG-0.35  N 
ATOM     39  C   VAL P   7      83.269  -2.379  58.492  1.00 65.10 LIG 0.24  C 
ATOM     40 O    VAL P   7      82.845  -2.281  57.333  1.00 66.40 LIG-0.27  OA
ATOM     41 H    TYR P   8      82.757  -2.544  60.357  1.00 59.31 LIG 0.16  HD
BRANCH 39 42
ATOM     42  CA  VAL P   7      84.764  -2.455  58.769  1.00 68.90 LIG 0.18  C 
BRANCH 42 43
ATOM     43  N   VAL P   7      85.266  -3.738  58.296  1.00 69.26 LIG-0.34  N 
ATOM     44  C   LEU P   6      85.184  -4.855  59.013  1.00 74.59 LIG 0.26  C 
ATOM     45 O    LEU P   6      84.640  -4.898  60.119  1.00 73.78 LIG-0.27  OA
ATOM     46 H    VAL P   7      85.619  -3.705  57.512  1.00 69.26 LIG 0.16  HD
BRANCH 44 47
ATOM     47  CA  LEU P   6      85.792  -6.103  58.366  1.00 78.06 LIG 0.40  C 
ATOM     48  N   LEU P   6      87.226  -5.930  58.168  1.00 74.40 LIG 0.61  N 
BRANCH 47 49
ATOM     49  CB  LEU P   6      85.516  -7.356  59.206  1.00 78.52 LIG 0.06  C 
BRANCH 49 50
ATOM     50  CG  LEU P   6      85.761  -7.363  60.719  1.00 77.43 LIG-0.02  C 
ATOM     51  CD2 LEU P   6      87.149  -7.884  61.075  1.00 73.93 LIG 0.01  C 
ATOM     52  CD1 LEU P   6      84.676  -8.192  61.372  1.00 75.78 LIG 0.01  C 
ENDBRANCH 49 50
ENDBRANCH 47 49
ENDBRANCH 44 47
ENDBRANCH 42 43
BRANCH 42 53
ATOM     53  CB  VAL P   7      85.512  -1.288  58.102  1.00 67.45 LIG 0.01  C 
ATOM     54  CG2 VAL P   7      86.983  -1.326  58.472  1.00 67.18 LIG 0.01  C 
ATOM     55  CG1 VAL P   7      84.899   0.037  58.511  1.00 63.58 LIG 0.01  C 
ENDBRANCH 42 53
ENDBRANCH 39 42
ENDBRANCH 1 38
TORSDOF 20
