REMARK  25 active torsions:
REMARK  status: ('A' for Active; 'I' for Inactive)
REMARK       I    between atoms: C_1  and  N_4 
REMARK    1  A    between atoms: N_4  and  CA_5 
REMARK    2  A    between atoms: CA_5  and  C_6 
REMARK    3  A    between atoms: CA_5  and  CB_8 
REMARK       I    between atoms: C_6  and  N_13 
REMARK    4  A    between atoms: CB_8  and  CG_9 
REMARK    5  A    between atoms: N_13  and  CA_14 
REMARK    6  A    between atoms: CA_14  and  C_15 
REMARK    7  A    between atoms: CA_14  and  CB_17 
REMARK       I    between atoms: C_15  and  N_22 
REMARK    8  A    between atoms: CB_17  and  CG_18 
REMARK    9  A    between atoms: N_22  and  CA_23 
REMARK   10  A    between atoms: CA_23  and  C_24 
REMARK   11  A    between atoms: CA_23  and  CB_26 
REMARK       I    between atoms: C_24  and  N_34 
REMARK   12  A    between atoms: CB_26  and  CG_27 
REMARK   13  A    between atoms: CG_27  and  CD_28 
REMARK       I    between atoms: CD_28  and  NE2_30 
REMARK   14  A    between atoms: N_34  and  CA_35 
REMARK   15  A    between atoms: CA_35  and  CB_38 
REMARK   16  A    between atoms: CA_35  and  C_36 
REMARK       I    between atoms: C_36  and  N_43 
REMARK   17  A    between atoms: CB_38  and  OG1_39 
REMARK   18  A    between atoms: N_43  and  CA_44 
REMARK   19  A    between atoms: CA_44  and  CB_47 
REMARK   20  A    between atoms: CA_44  and  C_45 
REMARK       I    between atoms: C_45  and  N_51 
REMARK   21  A    between atoms: CB_47  and  OG_48 
REMARK   22  A    between atoms: N_51  and  CA_52 
REMARK   23  A    between atoms: CA_52  and  C_53 
REMARK   24  A    between atoms: CA_52  and  CB_55 
REMARK   25  A    between atoms: CB_55  and  CG1_56 
ROOT
ATOM      1  CA  GLN B 366      10.813  89.844  11.418  1.00 38.37     0.177 C 
ENDROOT
BRANCH   1   2
ATOM      2  N   GLN B 366      11.939  88.945  11.231  1.00 38.60    -0.346 N 
ATOM      3  H   GLN B 366      11.745  88.217  10.816  1.00 38.60     0.163 HD
ATOM      4  C   LEU B 365      13.164  89.246  11.675  1.00 41.18     0.241 C 
ATOM      5  O   LEU B 365      13.449  90.312  12.258  1.00 36.84    -0.271 OA
BRANCH   4   6
ATOM      6  CA  LEU B 365      14.204  88.151  11.481  1.00 40.54     0.177 C 
BRANCH   6   7
ATOM      7  N   LEU B 365      15.527  88.747  11.350  1.00 42.84    -0.346 N 
ATOM      8  C   ASP B 364      16.339  88.357  10.375  1.00 57.74     0.241 C 
ATOM      9  O   ASP B 364      16.016  87.473   9.631  1.00 57.74    -0.271 OA
ATOM     10  H   LEU B 365      15.718  89.345  11.937  1.00 42.84     0.163 HD
BRANCH   8  11
ATOM     11  CA  ASP B 364      17.713  89.002  10.222  1.00 64.41     0.186 C 
BRANCH  11  12
ATOM     12  CB  ASP B 364      17.738  90.010   9.093  1.00 67.32     0.147 C 
BRANCH  12  13
ATOM     13  CG  ASP B 364      17.114  91.298   9.473  1.00 64.46     0.175 C 
ATOM     14  OD2 ASP B 364      16.267  91.789   8.683  1.00 62.61    -0.648 OA
ATOM     15  OD1 ASP B 364      17.503  91.807  10.566  1.00 62.85    -0.648 OA
ENDBRANCH  12  13
ENDBRANCH  11  12
BRANCH  11  16
ATOM     16  N   ASP B 364      18.734  88.051   9.910  1.00 73.89    -0.348 N 
HETATM   17  C   ACE B 363      19.839  87.901  10.589  1.00 53.98     0.214 C 
HETATM   18  CH3 ACE B 363      20.722  86.865   9.935  1.00 56.03     0.117 C 
HETATM   19  O   ACE B 363      20.104  88.514  11.654  1.00 54.37    -0.274 OA
ATOM     20  H   ASP B 364      18.550  87.575   9.218  1.00 73.89     0.163 HD
ENDBRANCH  11  16
ENDBRANCH   8  11
ENDBRANCH   6   7
BRANCH   6  21
ATOM     21  CB  LEU B 365      14.092  87.146  12.663  1.00 44.28     0.038 C 
BRANCH  21  22
ATOM     22  CG  LEU B 365      14.715  85.765  12.495  1.00 49.51    -0.020 C 
ATOM     23  CD1 LEU B 365      14.580  84.949  13.755  1.00 53.42     0.009 C 
ATOM     24  CD2 LEU B 365      14.090  85.029  11.271  1.00 51.82     0.009 C 
ENDBRANCH  21  22
ENDBRANCH   6  21
ENDBRANCH   4   6
ENDBRANCH   1   2
BRANCH   1  25
ATOM     25  C   GLN B 366       9.696  89.135  12.142  1.00 40.92     0.241 C 
ATOM     26  N   THR B 367       9.016  89.867  13.027  1.00 37.18    -0.344 N 
ATOM     27  H   THR B 367       9.178  90.691  13.214  1.00 37.18     0.163 HD
ATOM     28  O   GLN B 366       9.384  87.981  11.821  1.00 43.39    -0.271 OA
BRANCH  26  29
ATOM     29  CA  THR B 367       7.916  89.273  13.750  1.00 39.45     0.205 C 
BRANCH  29  30
ATOM     30  CB  THR B 367       8.354  88.819  15.147  1.00 41.55     0.146 C 
ATOM     31  CG2 THR B 367       7.179  88.192  15.844  1.00 46.47     0.042 C 
BRANCH  30  32
ATOM     32  OG1 THR B 367       9.442  87.905  15.010  1.00 42.44    -0.393 OA
ATOM     33  HG1 THR B 367      10.135  88.325  14.790  1.00 42.44     0.210 HD
ENDBRANCH  30  32
ENDBRANCH  29  30
BRANCH  29  34
ATOM     34  C   THR B 367       6.822  90.300  13.865  1.00 39.06     0.243 C 
ATOM     35  N   SER B 368       5.645  89.890  13.467  1.00 40.73    -0.344 N 
ATOM     36  H   SER B 368       5.504  89.125  13.099  1.00 40.73     0.163 HD
ATOM     37  O   THR B 367       7.045  91.384  14.424  1.00 38.11    -0.271 OA
BRANCH  35  38
ATOM     38  CA  SER B 368       4.466  90.702  13.615  1.00 41.63     0.200 C 
BRANCH  38  39
ATOM     39  CB  SER B 368       3.408  90.260  12.612  1.00 43.79     0.199 C 
BRANCH  39  40
ATOM     40  OG  SER B 368       2.196  90.951  12.803  1.00 46.28    -0.398 OA
ATOM     41  HG  SER B 368       1.632  90.690  12.238  1.00 46.28     0.209 HD
ENDBRANCH  39  40
ENDBRANCH  38  39
BRANCH  38  42
ATOM     42  C   SER B 368       3.942  90.550  15.028  1.00 44.50     0.243 C 
ATOM     43  O   SER B 368       3.705  89.435  15.467  1.00 47.26    -0.271 OA
ATOM     44  N   ILE B 369       3.703  91.664  15.677  1.00 46.03    -0.344 N 
ATOM     45  H   ILE B 369       3.735  92.443  15.315  1.00 46.03     0.163 HD
BRANCH  44  46
ATOM     46  CA  ILE B 369       3.353  91.678  17.109  1.00 49.82     0.189 C 
BRANCH  46  47
ATOM     47  C   ILE B 369       2.175  92.588  17.389  1.00 51.12     0.197 C 
ATOM     48  OXT ILE B 369       2.000  93.557  16.674  1.00 48.45    -0.646 OA
ATOM     49  O   ILE B 369       1.363  92.405  18.312  1.00 56.65    -0.646 OA
ENDBRANCH  46  47
BRANCH  46  50
ATOM     50  CB  ILE B 369       4.536  92.142  17.909  1.00 51.86     0.014 C 
ATOM     51  CG2 ILE B 369       4.194  92.356  19.441  1.00 50.67     0.012 C 
BRANCH  50  52
ATOM     52  CG1 ILE B 369       5.696  91.186  17.784  1.00 48.80     0.002 C 
ATOM     53  CD1 ILE B 369       6.875  91.901  18.100  1.00 47.56     0.005 C 
ENDBRANCH  50  52
ENDBRANCH  46  50
ENDBRANCH  44  46
ENDBRANCH  38  42
ENDBRANCH  35  38
ENDBRANCH  29  34
ENDBRANCH  26  29
ENDBRANCH   1  25
BRANCH   1  54
ATOM     54  CB  GLN B 366      10.234  90.334  10.080  1.00 39.69     0.044 C 
BRANCH  54  55
ATOM     55  CG  GLN B 366      11.214  91.142   9.329  1.00 41.05     0.105 C 
BRANCH  55  56
ATOM     56  CD  GLN B 366      10.655  91.740   8.057  1.00 41.66     0.215 C 
ATOM     57  OE1 GLN B 366       9.543  92.289   8.045  1.00 35.58    -0.274 OA
ATOM     58  NE2 GLN B 366      11.464  91.675   6.984  1.00 36.50    -0.370 N 
ATOM     59 2HE2 GLN B 366      11.218  92.026   6.238  1.00 36.50     0.159 HD
ATOM     60 1HE2 GLN B 366      12.227  91.282   7.044  1.00 36.50     0.159 HD
ENDBRANCH  55  56
ENDBRANCH  54  55
ENDBRANCH   1  54
TORSDOF 25
