USER: ADFR SOLUTION from run 0
USER: SCORE 15.971915 LL:  -4.075 LR: -16.412 RR:   0.000 FEB:  -8.955
USER: RMSD 0.203233
USER: STATUS Locally minimized using BFGS
USER: GENES 27
USER: genes 0 Translation |==|  0.49227 0.53489 0.43522
USER: genes 1 Rotation |==|  0.49619 0.49436 0.49863 0.99995
USER: genes 2 Torsion [CB]-CA--N-[C] |==|  0.32930
USER: genes 3 Torsion [N]-C--CA-[N] |==|  0.42450
USER: genes 4 Torsion [C]-CA--N-[C] |==|  0.63010
USER: genes 5 Torsion [N]-C--CA-[N] |==|  0.38504
USER: genes 6 Torsion [C]-CA--CB-[CG] |==|  0.21688
USER: genes 7 Torsion [CA]-CB--CG-[OD2] |==|  0.63501
USER: genes 8 Torsion [C]-CA--N-[C] |==|  0.65124
USER: genes 9 Torsion [C]-CA--CB-[CG] |==|  0.45011
USER: genes 10 Torsion [CA]-CB--CG-[CD1] |==|  0.49151
USER: genes 11 Torsion [N]-CA--C-[N] |==|  0.39270
USER: genes 12 Torsion [C]-N--CA-[CB] |==|  0.27124
USER: genes 13 Torsion [N]-CA--CB-[CG2] |==|  0.50183
USER: genes 14 Torsion [CA]-CB--OG1-[HG1] |==|  0.20331
USER: genes 15 Torsion [N]-CA--C-[N] |==|  0.35719
USER: genes 16 Torsion [C]-N--CA-[CB] |==|  0.43908
USER: genes 17 Torsion [N]-CA--CB-[OG] |==|  0.48557
USER: genes 18 Torsion [CA]-CB--OG-[HG] |==|  0.49976
USER: genes 19 Torsion [N]-CA--C-[N] |==|  0.35834
USER: genes 20 Torsion [C]-N--CA-[CB] |==|  0.29180
USER: genes 21 Torsion [N]-CA--C-[OXT] |==|  0.91767
USER: genes 22 Torsion [N]-CA--CB-[CG2] |==|  0.48055
USER: genes 23 Torsion [CA]-CB--CG1-[CD1] |==|  0.43819
USER: genes 24 Torsion [N]-CA--CB-[CG] |==|  0.82235
USER: genes 25 Torsion [CA]-CB--CG-[CD] |==|  0.51325
USER: genes 26 Torsion [CB]-CG--CD-[OE1] |==|  0.12573
ROOT
ATOM      1  CA  GLN B 366      10.829  89.855  11.430  1.00 38.37 LIG 0.18  C 
ENDROOT
BRANCH 1 2
ATOM      2  N   GLN B 366      11.953  88.947  11.282  1.00 38.60 LIG-0.35  N 
ATOM      3 H    GLN B 366      11.768  88.220  10.861  1.00 38.60 LIG 0.16  HD
ATOM      4  C   LEU B 365      13.165  89.239  11.768  1.00 41.18 LIG 0.24  C 
ATOM      5 O    LEU B 365      13.438  90.304  12.359  1.00 36.84 LIG-0.27  OA
BRANCH 4 6
ATOM      6  CA  LEU B 365      14.202  88.136  11.610  1.00 40.54 LIG 0.18  C 
BRANCH 6 7
ATOM      7  N   LEU B 365      15.536  88.720  11.550  1.00 42.84 LIG-0.35  N 
ATOM      8  C   ASP B 364      16.392  88.329  10.614  1.00 57.74 LIG 0.24  C 
ATOM      9 O    ASP B 364      16.099  87.453   9.849  1.00 57.74 LIG-0.27  OA
ATOM     10 H    LEU B 365      15.702  89.313  12.150  1.00 42.84 LIG 0.16  HD
BRANCH 8 11
ATOM     11  CA  ASP B 364      17.778  88.962  10.535  1.00 64.41 LIG 0.19  C 
BRANCH 11 12
ATOM     12  CB  ASP B 364      17.870  89.975   9.415  1.00 67.32 LIG 0.15  C 
BRANCH 12 13
ATOM     13  CG  ASP B 364      17.241  91.268   9.771  1.00 64.46 LIG 0.17  C 
ATOM     14 OD2  ASP B 364      16.441  91.773   8.942  1.00 62.61 LIG-0.65  OA
ATOM     15 OD1  ASP B 364      17.579  91.766  10.886  1.00 62.85 LIG-0.65  OA
ENDBRANCH 12 13
ENDBRANCH 11 12
BRANCH 11 16
ATOM     16  N   ASP B 364      18.805  88.003  10.270  1.00 73.89 LIG-0.35  N 
ATOM     17  C   ACE B 363      19.871  87.837  11.005  1.00 53.98 LIG 0.21  C 
ATOM     18  CH3 ACE B 363      20.777  86.797  10.391  1.00 56.03 LIG 0.12  C 
ATOM     19 O    ACE B 363      20.086  88.439  12.087  1.00 54.37 LIG-0.27  OA
ATOM     20 H    ASP B 364      18.653  87.533   9.566  1.00 73.89 LIG 0.16  HD
ENDBRANCH 11 16
ENDBRANCH 8 11
ENDBRANCH 6 7
BRANCH 6 21
ATOM     21  CB  LEU B 365      14.024  87.118  12.773  1.00 44.28 LIG 0.04  C 
BRANCH 21 22
ATOM     22  CG  LEU B 365      14.644  85.734  12.618  1.00 49.51 LIG-0.02  C 
ATOM     23  CD1 LEU B 365      14.441  84.904  13.860  1.00 53.42 LIG 0.01  C 
ATOM     24  CD2 LEU B 365      14.074  85.018  11.357  1.00 51.82 LIG 0.01  C 
ENDBRANCH 21 22
ENDBRANCH 6 21
ENDBRANCH 4 6
ENDBRANCH 1 2
BRANCH 1 25
ATOM     25  C   GLN B 366       9.692  89.163  12.139  1.00 40.92 LIG 0.24  C 
ATOM     26  N   THR B 367       9.009  89.906  13.013  1.00 37.18 LIG-0.34  N 
ATOM     27 H    THR B 367       9.180  90.728  13.201  1.00 37.18 LIG 0.16  HD
ATOM     28 O    GLN B 366       9.368  88.013  11.816  1.00 43.39 LIG-0.27  OA
BRANCH 26 29
ATOM     29  CA  THR B 367       7.891  89.329  13.721  1.00 39.45 LIG 0.20  C 
BRANCH 29 30
ATOM     30  CB  THR B 367       8.307  88.855  15.119  1.00 41.55 LIG 0.15  C 
ATOM     31  CG2 THR B 367       7.112  88.251  15.802  1.00 46.47 LIG 0.04  C 
BRANCH 30 32
ATOM     32 OG1  THR B 367       9.374  87.917  14.984  1.00 42.44 LIG-0.39  OA
ATOM     33 HG1  THR B 367      10.079  88.323  14.772  1.00 42.44 LIG 0.21  HD
ENDBRANCH 30 32
ENDBRANCH 29 30
BRANCH 29 34
ATOM     34  C   THR B 367       6.817  90.377  13.834  1.00 39.06 LIG 0.24  C 
ATOM     35  N   SER B 368       5.633  89.990  13.433  1.00 40.73 LIG-0.34  N 
ATOM     36 H    SER B 368       5.478  89.228  13.065  1.00 40.73 LIG 0.16  HD
ATOM     37 O    THR B 367       7.059  91.456  14.395  1.00 38.11 LIG-0.27  OA
BRANCH 35 38
ATOM     38  CA  SER B 368       4.470  90.825  13.579  1.00 41.63 LIG 0.20  C 
BRANCH 38 39
ATOM     39  CB  SER B 368       3.399  90.393  12.585  1.00 43.79 LIG 0.20  C 
BRANCH 39 40
ATOM     40 OG   SER B 368       2.201  91.108  12.775  1.00 46.28 LIG-0.40  OA
ATOM     41 HG   SER B 368       1.630  90.852  12.214  1.00 46.28 LIG 0.21  HD
ENDBRANCH 39 40
ENDBRANCH 38 39
BRANCH 38 42
ATOM     42  C   SER B 368       3.949  90.695  14.996  1.00 44.50 LIG 0.24  C 
ATOM     43 O    SER B 368       3.690  89.589  15.445  1.00 47.26 LIG-0.27  OA
ATOM     44  N   ILE B 369       3.738  91.819  15.637  1.00 46.03 LIG-0.34  N 
ATOM     45 H    ILE B 369       3.785  92.594  15.269  1.00 46.03 LIG 0.16  HD
BRANCH 44 46
ATOM     46  CA  ILE B 369       3.396  91.852  17.071  1.00 49.82 LIG 0.19  C 
BRANCH 46 47
ATOM     47  C   ILE B 369       2.237  92.787  17.349  1.00 51.12 LIG 0.20  C 
ATOM     48 OXT  ILE B 369       2.077  93.752  16.626  1.00 48.45 LIG-0.65  OA
ATOM     49 O    ILE B 369       1.427  92.628  18.278  1.00 56.65 LIG-0.65  OA
ENDBRANCH 46 47
BRANCH 46 50
ATOM     50  CB  ILE B 369       4.591  92.299  17.861  1.00 51.86 LIG 0.01  C 
ATOM     51  CG2 ILE B 369       4.261  92.533  19.393  1.00 50.67 LIG 0.01  C 
BRANCH 50 52
ATOM     52  CG1 ILE B 369       5.732  91.320  17.738  1.00 48.80 LIG 0.00  C 
ATOM     53  CD1 ILE B 369       6.926  92.015  18.042  1.00 47.56 LIG 0.01  C 
ENDBRANCH 50 52
ENDBRANCH 46 50
ENDBRANCH 44 46
ENDBRANCH 38 42
ENDBRANCH 35 38
ENDBRANCH 29 34
ENDBRANCH 26 29
ENDBRANCH 1 25
BRANCH 1 54
ATOM     54  CB  GLN B 366      10.283  90.327  10.072  1.00 39.69 LIG 0.04  C 
BRANCH 54 55
ATOM     55  CG  GLN B 366      11.283  91.121   9.332  1.00 41.05 LIG 0.10  C 
BRANCH 55 56
ATOM     56  CD  GLN B 366      10.755  91.705   8.041  1.00 41.66 LIG 0.21  C 
ATOM     57 OE1  GLN B 366       9.646  92.259   7.997  1.00 35.58 LIG-0.27  OA
ATOM     58  NE2 GLN B 366      11.587  91.622   6.987  1.00 36.50 LIG-0.37  N 
ATOM     59 22HE GLN B 366      11.359  91.964   6.231  1.00 36.50 LIG 0.16  HD
ATOM     60 21HE GLN B 366      12.346  91.226   7.068  1.00 36.50 LIG 0.16  HD
ENDBRANCH 55 56
ENDBRANCH 54 55
ENDBRANCH 1 54
TORSDOF 25
