REMARK  22 active torsions:
REMARK  status: ('A' for Active; 'I' for Inactive)
REMARK    1  A    between atoms: N_1  and  CA_2 
REMARK    2  A    between atoms: CA_2  and  C_3 
REMARK       I    between atoms: C_3  and  N_9 
REMARK    3  A    between atoms: N_9  and  CA_10 
REMARK    4  A    between atoms: CA_10  and  C_11 
REMARK    5  A    between atoms: CA_10  and  CB_13 
REMARK       I    between atoms: C_11  and  N_26 
REMARK    6  A    between atoms: CB_13  and  CG_14 
REMARK    7  A    between atoms: CG_14  and  CD_15 
REMARK    8  A    between atoms: CD_15  and  NE_16 
REMARK       I    between atoms: NE_16  and  CZ_17 
REMARK       I    between atoms: CZ_17  and  NH1_18 
REMARK    9  A    between atoms: N_26  and  CA_27 
REMARK   10  A    between atoms: CA_27  and  CB_30 
REMARK   11  A    between atoms: CA_27  and  C_28 
REMARK       I    between atoms: C_28  and  N_35 
REMARK   12  A    between atoms: CB_30  and  OG1_31 
REMARK   13  A    between atoms: N_35  and  CA_36 
REMARK   14  A    between atoms: CA_36  and  C_37 
REMARK       I    between atoms: C_37  and  N_41 
REMARK   15  A    between atoms: N_41  and  CA_42 
REMARK   16  A    between atoms: CA_42  and  C_43 
REMARK       I    between atoms: C_43  and  N_47 
REMARK   17  A    between atoms: N_47  and  CA_48 
REMARK   18  A    between atoms: CA_48  and  CB_51 
REMARK   19  A    between atoms: CA_48  and  C_49 
REMARK       I    between atoms: C_49  and  N_56 
REMARK   20  A    between atoms: CB_51  and  OG1_52 
REMARK   21  A    between atoms: N_56  and  CA_57 
REMARK   22  A    between atoms: CA_57  and  C_58 
ROOT
ATOM      1  CA  THR G   3      14.416  37.861  42.518  1.00 68.23     0.205 C 
ENDROOT
BRANCH   1   2
ATOM      2  N   THR G   3      15.831  37.514  42.431  1.00 68.42    -0.344 N 
ATOM      3  C   ARG G   2      16.484  37.401  41.277  1.00 70.38     0.241 C 
ATOM      4  O   ARG G   2      15.938  37.470  40.170  1.00 69.46    -0.271 OA
ATOM      5  H   THR G   3      16.203  37.389  43.196  1.00 68.42     0.163 HD
BRANCH   3   6
ATOM      6  CA  ARG G   2      17.983  37.144  41.391  1.00 72.62     0.176 C 
BRANCH   6   7
ATOM      7  N   ARG G   2      18.510  36.794  40.075  1.00 74.86    -0.346 N 
ATOM      8  C   ALA G   1      18.502  35.544  39.618  1.00 76.29     0.248 C 
ATOM      9  O   ALA G   1      18.221  34.564  40.315  1.00 75.70    -0.271 OA
ATOM     10  H   ARG G   2      18.821  37.462  39.631  1.00 74.86     0.163 HD
BRANCH   8  11
ATOM     11  CA  ALA G   1      18.877  35.367  38.155  1.00 78.97     0.270 C 
ATOM     12  CB  ALA G   1      17.615  35.264  37.306  1.00 79.33     0.050 C 
BRANCH  11  13
ATOM     13  N   ALA G   1      19.732  34.161  37.976  1.00 81.42    -0.067 N 
ATOM     14  H3  ALA G   1      19.220  33.460  37.778  1.00 81.42     0.275 HD
ATOM     15  H2  ALA G   1      20.178  33.999  38.729  1.00 81.42     0.275 HD
ATOM     16  H1  ALA G   1      20.310  34.302  37.314  1.00 81.42     0.275 HD
ENDBRANCH  11  13
ENDBRANCH   8  11
ENDBRANCH   6   7
BRANCH   6  17
ATOM     17  CB  ARG G   2      18.705  38.369  41.961  1.00 73.45     0.036 C 
BRANCH  17  18
ATOM     18  CG  ARG G   2      20.149  38.089  42.340  1.00 75.79     0.023 C 
BRANCH  18  19
ATOM     19  CD  ARG G   2      20.978  39.360  42.442  1.00 77.52     0.138 C 
BRANCH  19  20
ATOM     20  NE  ARG G   2      22.386  39.058  42.712  1.00 80.25    -0.227 N 
ATOM     21  CZ  ARG G   2      23.270  38.604  41.818  1.00 82.01     0.665 C 
ATOM     22  NH1 ARG G   2      22.927  38.376  40.548  1.00 81.47    -0.235 N 
ATOM     23  NH2 ARG G   2      24.522  38.367  42.201  1.00 84.93    -0.235 N 
ATOM     24 HH11 ARG G   2      22.120  38.521  40.288  1.00 81.47     0.174 HD
ATOM     25 HH12 ARG G   2      23.513  38.084  39.990  1.00 81.47     0.174 HD
ATOM     26 HH22 ARG G   2      25.098  38.075  41.633  1.00 84.93     0.174 HD
ATOM     27 HH21 ARG G   2      24.756  38.506  43.017  1.00 84.93     0.174 HD
ATOM     28  HE  ARG G   2      22.668  39.184  43.515  1.00 80.25     0.177 HD
ENDBRANCH  19  20
ENDBRANCH  18  19
ENDBRANCH  17  18
ENDBRANCH   6  17
ENDBRANCH   3   6
ENDBRANCH   1   2
BRANCH   1  29
ATOM     29  CB  THR G   3      13.555  36.662  42.981  1.00 68.23     0.146 C 
ATOM     30  CG2 THR G   3      13.775  35.461  42.080  1.00 68.63     0.042 C 
BRANCH  29  31
ATOM     31  OG1 THR G   3      13.882  36.312  44.332  1.00 67.51    -0.393 OA
ATOM     32  HG1 THR G   3      13.409  35.662  44.575  1.00 67.51     0.210 HD
ENDBRANCH  29  31
ENDBRANCH   1  29
BRANCH   1  33
ATOM     33  C   THR G   3      14.215  39.026  43.481  1.00 68.02     0.243 C 
ATOM     34  N   ALA G   4      12.987  39.540  43.520  1.00 68.86    -0.346 N 
ATOM     35  H   ALA G   4      12.348  39.279  43.007  1.00 68.86     0.163 HD
ATOM     36  O   THR G   3      15.149  39.448  44.166  1.00 67.54    -0.271 OA
BRANCH  34  37
ATOM     37  CA  ALA G   4      12.605  40.608  44.448  1.00 69.75     0.172 C 
ATOM     38  CB  ALA G   4      11.178  41.052  44.173  1.00 70.86     0.042 C 
BRANCH  37  39
ATOM     39  C   ALA G   4      12.762  40.202  45.919  1.00 71.43     0.240 C 
ATOM     40  N   ALA G   5      12.557  38.916  46.212  1.00 71.85    -0.346 N 
ATOM     41  H   ALA G   5      12.290  38.335  45.637  1.00 71.85     0.163 HD
ATOM     42  O   ALA G   4      13.066  41.047  46.766  1.00 72.80    -0.271 OA
BRANCH  40  43
ATOM     43  CA  ALA G   5      12.770  38.370  47.557  1.00 72.89     0.172 C 
ATOM     44  CB  ALA G   5      12.127  36.995  47.682  1.00 72.65     0.042 C 
BRANCH  43  45
ATOM     45  C   ALA G   5      14.257  38.297  47.920  1.00 72.87     0.240 C 
ATOM     46  N   THR G   6      15.079  37.790  46.997  1.00 71.86    -0.344 N 
ATOM     47  H   THR G   6      14.815  37.497  46.233  1.00 71.86     0.163 HD
ATOM     48  O   ALA G   5      14.645  38.696  49.020  1.00 74.40    -0.271 OA
BRANCH  46  49
ATOM     49  CA  THR G   6      16.533  37.688  47.211  1.00 72.17     0.205 C 
BRANCH  49  50
ATOM     50  CB  THR G   6      17.213  36.743  46.193  1.00 71.29     0.146 C 
ATOM     51  CG2 THR G   6      16.657  35.326  46.311  1.00 70.64     0.042 C 
BRANCH  50  52
ATOM     52  OG1 THR G   6      17.009  37.229  44.861  1.00 70.47    -0.393 OA
ATOM     53  HG1 THR G   6      17.672  37.030  44.385  1.00 70.47     0.210 HD
ENDBRANCH  50  52
ENDBRANCH  49  50
BRANCH  49  54
ATOM     54  C   THR G   6      17.231  39.055  47.169  1.00 73.53     0.243 C 
ATOM     55  N   ALA G   7      16.690  39.986  46.377  1.00 73.25    -0.348 N 
ATOM     56  H   ALA G   7      16.036  39.827  45.841  1.00 73.25     0.163 HD
ATOM     57  O   THR G   6      18.250  39.245  47.837  1.00 75.15    -0.271 OA
BRANCH  55  58
ATOM     58  CA  ALA G   7      17.158  41.379  46.341  1.00 74.45     0.158 C 
ATOM     59  CB  ALA G   7      16.947  41.976  44.957  1.00 73.04     0.041 C 
BRANCH  58  60
ATOM     60  C   ALA G   7      16.434  42.219  47.393  1.00 76.13     0.219 C 
ATOM     61  O   ALA G   7      17.062  42.848  48.246  1.00 77.97    -0.287 OA
ENDBRANCH  58  60
ENDBRANCH  55  58
ENDBRANCH  49  54
ENDBRANCH  46  49
ENDBRANCH  43  45
ENDBRANCH  40  43
ENDBRANCH  37  39
ENDBRANCH  34  37
ENDBRANCH   1  33
TORSDOF 22
