USER: ADFR SOLUTION from run 0
USER: SCORE 0.241497 LL:  -2.683 LR:  -1.779 RR:   0.000 FEB:   2.098
USER: RMSD 2.457038
USER: STATUS Locally minimized using BFGS
USER: GENES 15
USER: genes 0 Translation |==|  0.51994 0.32559 0.65372
USER: genes 1 Rotation |==|  0.49780 0.41682 0.48146 0.99268
USER: genes 2 Torsion [CB]-CA--N-[C] |==|  0.46034
USER: genes 3 Torsion [N]-C--CA-[N] |==|  0.09682
USER: genes 4 Torsion [C]-CA--N-[C] |==|  0.75371
USER: genes 5 Torsion [N]-C--CA-[N] |==|  0.40152
USER: genes 6 Torsion [C]-CA--N-[C] |==|  0.73555
USER: genes 7 Torsion [N]-C--CA-[N] |==|  0.75143
USER: genes 8 Torsion [N]-CA--C-[N] |==|  0.86899
USER: genes 9 Torsion [C]-N--CA-[CB] |==|  0.21662
USER: genes 10 Torsion [N]-CA--C-[N] |==|  0.45219
USER: genes 11 Torsion [C]-N--CA-[CB] |==|  0.46679
USER: genes 12 Torsion [N]-CA--C-[N] |==|  0.38366
USER: genes 13 Torsion [C]-N--CA-[C] |==|  0.73722
USER: genes 14 Torsion [N]-CA--C-[O] |==|  0.34696
ROOT
ATOM      1  CA  ALA E  11      -0.771  20.490   3.961  1.00 85.35 LIG 0.17  C 
ATOM      2  CB  ALA E  11      -1.942  21.074   4.754  1.00 80.46 LIG 0.04  C 
ENDROOT
BRANCH 1 3
ATOM      3  N   ALA E  11       0.324  21.451   3.902  1.00 87.15 LIG-0.35  N 
ATOM      4  C   ALA E  10       1.543  21.064   3.514  1.00 62.15 LIG 0.24  C 
ATOM      5 O    ALA E  10       1.753  19.963   3.004  1.00 65.72 LIG-0.27  OA
ATOM      6 H    ALA E  11       0.117  22.254   4.132  1.00 87.15 LIG 0.16  HD
BRANCH 4 7
ATOM      7  CA  ALA E  10       2.692  22.044   3.721  1.00 66.45 LIG 0.17  C 
ATOM      8  CB  ALA E  10       4.024  21.299   3.765  1.00 58.63 LIG 0.04  C 
BRANCH 7 9
ATOM      9  N   ALA E  10       2.526  22.829   4.936  1.00 75.43 LIG-0.35  N 
ATOM     10  C   ALA E   9       1.863  23.983   4.969  1.00 82.21 LIG 0.24  C 
ATOM     11 O    ALA E   9       1.359  24.508   3.970  1.00 73.75 LIG-0.27  OA
ATOM     12 H    ALA E  10       2.896  22.478   5.628  1.00 75.43 LIG 0.16  HD
BRANCH 10 13
ATOM     13  CA  ALA E   9       1.775  24.665   6.327  1.00 87.65 LIG 0.17  C 
ATOM     14  CB  ALA E   9       0.496  24.265   7.059  1.00 72.21 LIG 0.04  C 
BRANCH 13 15
ATOM     15  N   ALA E   9       1.838  26.105   6.111  1.00 84.24 LIG-0.35  N 
ATOM     16 H    ALA E   9       1.079  26.466   5.925  1.00 84.24 LIG 0.16  HD
ATOM     17  C   ALA E   8       2.972  26.785   6.195  1.00 61.40 LIG 0.26  C 
ATOM     18 O    ALA E   8       4.030  26.271   6.553  1.00 66.21 LIG-0.27  OA
BRANCH 17 19
ATOM     19  CA  ALA E   8       2.897  28.270   5.853  1.00 67.03 LIG 0.40  C 
ATOM     20  N   ALA E   8       3.135  28.487   4.395  1.00 60.26 LIG 0.61  N 
ATOM     21  CB  ALA E   8       1.548  28.849   6.263  1.00 64.64 LIG 0.06  C 
ENDBRANCH 17 19
ENDBRANCH 13 15
ENDBRANCH 10 13
ENDBRANCH 7 9
ENDBRANCH 4 7
ENDBRANCH 1 3
BRANCH 1 22
ATOM     22  C   ALA E  11      -1.231  20.081   2.567  1.00 81.78 LIG 0.24  C 
ATOM     23  N   ALA E  12      -1.434  21.051   1.677  1.00 82.91 LIG-0.35  N 
ATOM     24 H    ALA E  12      -1.222  21.876   1.796  1.00 82.91 LIG 0.16  HD
ATOM     25 O    ALA E  11      -1.416  18.890   2.289  1.00 89.30 LIG-0.27  OA
BRANCH 23 26
ATOM     26  CA  ALA E  12      -2.058  20.751   0.396  1.00 61.10 LIG 0.17  C 
ATOM     27  CB  ALA E  12      -3.578  20.597   0.552  1.00 65.27 LIG 0.04  C 
BRANCH 26 28
ATOM     28  C   ALA E  12      -1.735  21.835  -0.620  1.00 54.59 LIG 0.24  C 
ATOM     29  N   ALA E  13      -1.944  21.490  -1.891  1.00 64.78 LIG-0.35  N 
ATOM     30 H    ALA E  13      -2.294  20.742  -2.132  1.00 64.78 LIG 0.16  HD
ATOM     31 O    ALA E  12      -1.348  22.953  -0.268  1.00 69.11 LIG-0.27  OA
BRANCH 29 32
ATOM     32  CA  ALA E  13      -1.591  22.366  -2.996  1.00 54.23 LIG 0.17  C 
ATOM     33  CB  ALA E  13      -1.667  21.598  -4.316  1.00 56.27 LIG 0.04  C 
BRANCH 32 34
ATOM     34  C   ALA E  13      -2.506  23.574  -3.093  1.00 65.29 LIG 0.24  C 
ATOM     35  N   ALA E  14      -1.899  24.725  -3.359  1.00 85.74 LIG-0.35  N 
ATOM     36 H    ALA E  14      -1.047  24.805  -3.436  1.00 85.74 LIG 0.16  HD
ATOM     37 O    ALA E  13      -3.730  23.461  -2.991  1.00 75.52 LIG-0.27  OA
BRANCH 35 38
ATOM     38  CA  ALA E  14      -2.627  25.968  -3.545  1.00 94.46 LIG 0.16  C 
ATOM     39  CB  ALA E  14      -1.848  27.120  -2.953  1.00106.12 LIG 0.04  C 
BRANCH 38 40
ATOM     40  C   ALA E  14      -2.895  26.208  -5.026  1.00 99.07 LIG 0.22  C 
ATOM     41 O    ALA E  14      -4.040  26.394  -5.438  1.00120.33 LIG-0.29  OA
ENDBRANCH 38 40
ENDBRANCH 35 38
ENDBRANCH 32 34
ENDBRANCH 29 32
ENDBRANCH 26 28
ENDBRANCH 23 26
ENDBRANCH 1 22
TORSDOF 13
