USER: ADFR SOLUTION from run 0
USER: SCORE 20.541826 LL:  -6.514 LR: -16.360 RR:   0.000 FEB:  -6.516
USER: RMSD 1.053079
USER: STATUS Locally minimized using BFGS
USER: GENES 35
USER: genes 0 Translation |==|  0.44315 0.41485 0.31548
USER: genes 1 Rotation |==|  0.46978 0.52333 0.51807 0.99821
USER: genes 2 Torsion [C]-CA--N-[C] |==|  0.66087
USER: genes 3 Torsion [N]-C--CA-[N] |==|  0.94580
USER: genes 4 Torsion [C]-CA--N-[C] |==|  0.84427
USER: genes 5 Torsion [N]-C--CA-[N] |==|  0.22804
USER: genes 6 Torsion [C]-CA--CB-[CG] |==|  0.44770
USER: genes 7 Torsion [CA]-CB--CG-[CD] |==|  0.76982
USER: genes 8 Torsion [CB]-CG--CD-[CE] |==|  0.56839
USER: genes 9 Torsion [CG]-CD--CE-[NZ] |==|  0.45054
USER: genes 10 Torsion [CD]-CE--NZ-[HZ2] |==|  0.83340
USER: genes 11 Torsion [C]-CA--N-[C] |==|  0.77921
USER: genes 12 Torsion [N]-C--CA-[N] |==|  0.36611
USER: genes 13 Torsion [C]-CA--CB-[OG] |==|  0.46048
USER: genes 14 Torsion [CA]-CB--OG-[HG] |==|  0.22503
USER: genes 15 Torsion [C]-CA--N-[H2] |==|  0.03196
USER: genes 16 Torsion [C]-CA--CB-[CG] |==|  0.09362
USER: genes 17 Torsion [CA]-CB--CG-[SD] |==|  0.16969
USER: genes 18 Torsion [CB]-CG--SD-[CE] |==|  0.50766
USER: genes 19 Torsion [N]-CA--CB-[CG] |==|  0.66907
USER: genes 20 Torsion [CA]-CB--CG-[CD] |==|  0.38911
USER: genes 21 Torsion [CB]-CG--CD-[OE2] |==|  0.28696
USER: genes 22 Torsion [N]-CA--C-[N] |==|  0.00630
USER: genes 23 Torsion [C]-N--CA-[CB] |==|  0.35817
USER: genes 24 Torsion [N]-CA--C-[N] |==|  0.35677
USER: genes 25 Torsion [C]-N--CA-[C] |==|  0.80597
USER: genes 26 Torsion [N]-CA--CB-[CG2] |==|  0.13168
USER: genes 27 Torsion [N]-CA--C-[N] |==|  0.42460
USER: genes 28 Torsion [C]-N--CA-[C] |==|  0.67962
USER: genes 29 Torsion [N]-CA--C-[O] |==|  0.56108
USER: genes 30 Torsion [N]-CA--CB-[CG] |==|  0.86096
USER: genes 31 Torsion [CA]-CB--CG-[OD1] |==|  0.20652
USER: genes 32 Torsion [N]-CA--CB-[CG] |==|  0.82252
USER: genes 33 Torsion [CA]-CB--CG-[CD] |==|  0.41612
USER: genes 34 Torsion [CB]-CG--CD-[OE2] |==|  0.58218
ROOT
ATOM      1  CA  GLU c   4      18.714  23.396  66.185  1.00 41.78 LIG 0.18  C 
ENDROOT
BRANCH 1 2
ATOM      2  N   GLU c   4      19.046  23.021  67.543  1.00 36.98 LIG-0.35  N 
ATOM      3 H    GLU c   4      18.567  23.408  68.143  1.00 36.98 LIG 0.16  HD
ATOM      4  C   MET c   3      20.007  22.157  67.813  1.00 39.25 LIG 0.24  C 
ATOM      5 O    MET c   3      20.745  21.699  66.939  1.00 33.30 LIG-0.27  OA
BRANCH 4 6
ATOM      6  CA  MET c   3      20.147  21.720  69.288  1.00 43.32 LIG 0.18  C 
BRANCH 6 7
ATOM      7  N   MET c   3      19.530  22.601  70.296  1.00 44.06 LIG-0.35  N 
ATOM      8 H    MET c   3      18.966  22.184  70.796  1.00 44.06 LIG 0.16  HD
ATOM      9  C   LYS c   2      19.784  23.904  70.455  1.00 50.87 LIG 0.24  C 
ATOM     10 O    LYS c   2      20.480  24.580  69.678  1.00 41.81 LIG-0.27  OA
BRANCH 9 11
ATOM     11  CA  LYS c   2      19.124  24.548  71.696  1.00 52.27 LIG 0.18  C 
BRANCH 11 12
ATOM     12  CB  LYS c   2      18.921  26.061  71.462  1.00 56.87 LIG 0.04  C 
BRANCH 12 13
ATOM     13  CG  LYS c   2      17.905  26.704  72.383  1.00 55.18 LIG 0.00  C 
BRANCH 13 14
ATOM     14  CD  LYS c   2      16.504  26.491  71.852  1.00 56.62 LIG 0.03  C 
BRANCH 14 15
ATOM     15  CE  LYS c   2      15.559  27.557  72.350  1.00 60.10 LIG 0.23  C 
BRANCH 15 16
ATOM     16  NZ  LYS c   2      14.361  27.547  71.475  1.00 62.98 LIG-0.08  N 
ATOM     17 HZ2  LYS c   2      14.604  27.717  70.636  1.00 62.98 LIG 0.27  HD
ATOM     18 HZ3  LYS c   2      13.972  26.747  71.514  1.00 62.98 LIG 0.27  HD
ATOM     19 HZ1  LYS c   2      13.787  28.169  71.749  1.00 62.98 LIG 0.27  HD
ENDBRANCH 15 16
ENDBRANCH 14 15
ENDBRANCH 13 14
ENDBRANCH 12 13
ENDBRANCH 11 12
BRANCH 11 20
ATOM     20  N   LYS c   2      19.889  24.319  72.930  1.00 43.42 LIG-0.35  N 
ATOM     21 H    LYS c   2      20.368  24.994  73.164  1.00 43.42 LIG 0.16  HD
ATOM     22  C   SER c   1      19.854  23.181  73.628  1.00 43.78 LIG 0.25  C 
ATOM     23 O    SER c   1      19.228  22.174  73.294  1.00 50.72 LIG-0.27  OA
BRANCH 22 24
ATOM     24  CA  SER c   1      20.648  23.168  74.920  1.00 42.10 LIG 0.30  C 
BRANCH 24 25
ATOM     25  CB  SER c   1      21.909  22.313  74.735  1.00 37.65 LIG 0.21  C 
BRANCH 25 26
ATOM     26 OG   SER c   1      22.851  22.510  75.770  1.00 37.04 LIG-0.40  OA
ATOM     27 HG   SER c   1      22.630  22.053  76.440  1.00 37.04 LIG 0.21  HD
ENDBRANCH 25 26
ENDBRANCH 24 25
BRANCH 24 28
ATOM     28  N   SER c   1      19.745  22.615  75.979  1.00 43.63 LIG-0.06  N 
ATOM     29 H2   SER c   1      19.020  22.266  75.598  1.00 43.63 LIG 0.28  HD
ATOM     30 H3   SER c   1      20.173  21.982  76.434  1.00 43.63 LIG 0.28  HD
ATOM     31 H1   SER c   1      19.503  23.268  76.534  1.00 43.63 LIG 0.28  HD
ENDBRANCH 24 28
ENDBRANCH 22 24
ENDBRANCH 11 20
ENDBRANCH 9 11
ENDBRANCH 6 7
BRANCH 6 32
ATOM     32  CB  MET c   3      19.529  20.330  69.470  1.00 42.03 LIG 0.04  C 
BRANCH 32 33
ATOM     33  CG  MET c   3      19.648  19.376  68.309  1.00 44.17 LIG 0.08  C 
BRANCH 33 34
ATOM     34 SD   MET c   3      21.337  18.980  67.855  1.00 39.95 LIG-0.17  SA
ATOM     35  CE  MET c   3      20.900  17.959  66.470  1.00 32.62 LIG 0.09  C 
ENDBRANCH 33 34
ENDBRANCH 32 33
ENDBRANCH 6 32
ENDBRANCH 4 6
ENDBRANCH 1 2
BRANCH 1 36
ATOM     36  CB  GLU c   4      17.295  22.872  65.838  1.00 53.02 LIG 0.04  C 
BRANCH 36 37
ATOM     37  CG  GLU c   4      17.192  21.877  64.673  1.00 67.39 LIG 0.12  C 
BRANCH 37 38
ATOM     38  CD  GLU c   4      16.195  20.748  64.941  1.00 71.96 LIG 0.17  C 
ATOM     39 OE2  GLU c   4      15.061  20.782  64.389  1.00 61.28 LIG-0.65  OA
ATOM     40 OE1  GLU c   4      16.550  19.823  65.711  1.00 68.78 LIG-0.65  OA
ENDBRANCH 37 38
ENDBRANCH 36 37
ENDBRANCH 1 36
BRANCH 1 41
ATOM     41  C   GLU c   4      18.849  24.915  65.997  1.00 40.98 LIG 0.24  C 
ATOM     42 O    GLU c   4      18.579  25.423  64.907  1.00 47.04 LIG-0.27  OA
ATOM     43  N   GLU c   5      19.278  25.636  67.039  1.00 35.89 LIG-0.35  N 
ATOM     44 H    GLU c   5      19.368  25.317  67.833  1.00 35.89 LIG 0.16  HD
BRANCH 43 45
ATOM     45  CA  GLU c   5      19.642  27.063  66.918  1.00 35.53 LIG 0.18  C 
BRANCH 45 46
ATOM     46  C   GLU c   5      21.141  27.281  67.074  1.00 33.86 LIG 0.24  C 
ATOM     47 O    GLU c   5      21.728  26.872  68.066  1.00 26.34 LIG-0.27  OA
ATOM     48  N   VAL c   6      21.732  27.990  66.112  1.00 31.71 LIG-0.35  N 
ATOM     49 H    VAL c   6      21.330  28.251  65.398  1.00 31.71 LIG 0.16  HD
BRANCH 48 50
ATOM     50  CA  VAL c   6      23.147  28.397  66.190  1.00 31.16 LIG 0.18  C 
BRANCH 50 51
ATOM     51  CB  VAL c   6      23.720  28.801  64.792  1.00 25.00 LIG 0.01  C 
ATOM     52  CG1 VAL c   6      23.948  27.550  63.982  1.00 20.51 LIG 0.01  C 
ATOM     53  CG2 VAL c   6      22.815  29.756  64.000  1.00 20.94 LIG 0.01  C 
ENDBRANCH 50 51
BRANCH 50 54
ATOM     54  C   VAL c   6      23.358  29.468  67.277  1.00 33.11 LIG 0.24  C 
ATOM     55 O    VAL c   6      22.431  30.203  67.603  1.00 31.28 LIG-0.27  OA
ATOM     56  N   ASP c   7      24.575  29.523  67.841  1.00 31.84 LIG-0.34  N 
ATOM     57 H    ASP c   7      25.232  29.035  67.576  1.00 31.84 LIG 0.16  HD
BRANCH 56 58
ATOM     58  CA  ASP c   7      24.927  30.409  68.956  1.00 33.25 LIG 0.20  C 
BRANCH 58 59
ATOM     59  C   ASP c   7      25.977  31.466  68.587  1.00 36.36 LIG 0.20  C 
ATOM     60 OXT  ASP c   7      26.148  31.779  67.408  1.00 36.21 LIG-0.65  OA
ATOM     61 O    ASP c   7      26.693  32.035  69.442  1.00 30.31 LIG-0.65  OA
ENDBRANCH 58 59
BRANCH 58 62
ATOM     62  CB  ASP c   7      25.444  29.565  70.125  1.00 37.10 LIG 0.15  C 
BRANCH 62 63
ATOM     63  CG  ASP c   7      24.527  28.433  70.454  1.00 37.44 LIG 0.17  C 
ATOM     64 OD1  ASP c   7      24.490  27.441  69.701  1.00 43.19 LIG-0.65  OA
ATOM     65 OD2  ASP c   7      23.823  28.526  71.468  1.00 52.04 LIG-0.65  OA
ENDBRANCH 62 63
ENDBRANCH 58 62
ENDBRANCH 56 58
ENDBRANCH 50 54
ENDBRANCH 48 50
ENDBRANCH 45 46
BRANCH 45 66
ATOM     66  CB  GLU c   5      18.931  27.907  67.982  1.00 40.99 LIG 0.04  C 
BRANCH 66 67
ATOM     67  CG  GLU c   5      17.406  27.928  67.855  1.00 49.45 LIG 0.12  C 
BRANCH 67 68
ATOM     68  CD  GLU c   5      16.715  28.096  69.196  1.00 57.05 LIG 0.17  C 
ATOM     69 OE2  GLU c   5      15.586  27.598  69.352  1.00 42.85 LIG-0.65  OA
ATOM     70 OE1  GLU c   5      17.314  28.716  70.104  1.00 67.91 LIG-0.65  OA
ENDBRANCH 67 68
ENDBRANCH 66 67
ENDBRANCH 45 66
ENDBRANCH 43 45
ENDBRANCH 1 41
TORSDOF 33
