MODEL 1
USER: ADFR SOLUTION from run 111
USER: SCORE 11.285554 LL:  -1.423 LR: -10.615 RR:   0.000 FEB:  -7.036
USER: RMSD 6.040473
USER: SEED 110
USER: STATUS no improvement in best in 16 clusters for 5 generations
USER: GENES 14
USER: genes 0 Translation |==|  0.50359 0.54950 0.60406
USER: genes 1 Rotation |==|  0.37381 0.35465 0.03856 0.50524
USER: genes 2 Torsion [C]-CA--N-[C] |==|  0.52251
USER: genes 3 Torsion [N]-C--CA-[N] |==|  0.34399
USER: genes 4 Torsion [C]-CA--CB-[CG] |==|  0.84331
USER: genes 5 Torsion [CA]-CB--CG-[CD] |==|  0.30692
USER: genes 6 Torsion [CB]-CG--CD-[OE1] |==|  0.03994
USER: genes 7 Torsion [N]-CA--C-[N] |==|  0.27222
USER: genes 8 Torsion [C]-N--CA-[CB] |==|  0.25868
USER: genes 9 Torsion [N]-CA--CB-[CG] |==|  0.96036
USER: genes 10 Torsion [CA]-CB--CG-[CD1] |==|  0.31200
USER: genes 11 Torsion [N]-CA--C-[O] |==|  0.17048
USER: genes 12 Torsion [N]-CA--CB-[CG] |==|  0.43834
USER: genes 13 Torsion [CA]-CB--CG-[OD2] |==|  0.20673
ROOT
ATOM      1  CA  ASP C 507       9.286  25.979   6.483  1.00 33.68 LIG 0.19  C 
ENDROOT
BRANCH 1 2
ATOM      2  N   ASP C 507      10.276  25.766   5.435  1.00 35.05 LIG-0.34  N 
ATOM      3  C   GLU C 506      11.327  24.974   5.604  1.00 36.98 LIG 0.26  C 
ATOM      4 O    GLU C 506      11.571  24.395   6.668  1.00 35.33 LIG-0.27  OA
ATOM      5 H    ASP C 507      10.116  26.197   4.709  1.00 35.05 LIG 0.16  HD
BRANCH 3 6
ATOM      6  CA  GLU C 506      12.275  24.861   4.411  1.00 38.62 LIG 0.40  C 
ATOM      7  N   GLU C 506      13.658  25.233   4.813  1.00 38.98 LIG 0.61  N 
BRANCH 6 8
ATOM      8  CB  GLU C 506      12.247  23.448   3.823  1.00 41.41 LIG 0.06  C 
BRANCH 8 9
ATOM      9  CG  GLU C 506      12.576  22.357   4.823  1.00 54.63 LIG 0.12  C 
BRANCH 9 10
ATOM     10  CD  GLU C 506      11.382  21.491   5.172  1.00 71.07 LIG 0.17  C 
ATOM     11 OE1  GLU C 506      10.362  21.551   4.447  1.00 74.77 LIG-0.65  OA
ATOM     12 OE2  GLU C 506      11.474  20.737   6.168  1.00 73.38 LIG-0.65  OA
ENDBRANCH 9 10
ENDBRANCH 8 9
ENDBRANCH 6 8
ENDBRANCH 3 6
ENDBRANCH 1 2
BRANCH 1 13
ATOM     13  C   ASP C 507       8.123  26.767   5.907  1.00 33.47 LIG 0.24  C 
ATOM     14 O    ASP C 507       8.198  27.989   5.764  1.00 34.83 LIG-0.27  OA
ATOM     15  N   LEU C 508       7.070  26.045   5.535  1.00 31.65 LIG-0.34  N 
ATOM     16 H    LEU C 508       7.021  25.190   5.626  1.00 31.65 LIG 0.16  HD
BRANCH 15 17
ATOM     17  CA  LEU C 508       5.890  26.648   4.933  1.00 32.20 LIG 0.18  C 
BRANCH 17 18
ATOM     18  CB  LEU C 508       6.028  26.613   3.418  1.00 32.28 LIG 0.04  C 
BRANCH 18 19
ATOM     19  CG  LEU C 508       7.474  26.296   3.050  1.00 33.09 LIG-0.02  C 
ATOM     20  CD1 LEU C 508       7.564  24.944   2.410  1.00 32.61 LIG 0.01  C 
ATOM     21  CD2 LEU C 508       8.032  27.401   2.166  1.00 34.13 LIG 0.01  C 
ENDBRANCH 18 19
ENDBRANCH 17 18
BRANCH 17 22
ATOM     22  C   LEU C 508       4.596  25.976   5.356  1.00 33.63 LIG 0.20  C 
ATOM     23 O    LEU C 508       4.297  25.986   6.569  0.50 32.81 LIG-0.65  OA
ATOM     24 OXT  LEU C 508       3.895  25.444   4.471  0.50 35.17 LIG-0.65  OA
ENDBRANCH 17 22
ENDBRANCH 15 17
ENDBRANCH 1 13
BRANCH 1 25
ATOM     25  CB  ASP C 507       9.928  26.710   7.659  1.00 31.02 LIG 0.15  C 
BRANCH 25 26
ATOM     26  CG  ASP C 507       8.901  27.425   8.512  1.00 34.22 LIG 0.17  C 
ATOM     27 OD2  ASP C 507       8.164  26.758   9.275  1.00 32.29 LIG-0.65  OA
ATOM     28 OD1  ASP C 507       8.802  28.659   8.384  1.00 33.73 LIG-0.65  OA
ENDBRANCH 25 26
ENDBRANCH 1 25
TORSDOF 12
ENDMDL
MODEL 2
USER: ADFR SOLUTION from run 105
USER: SCORE 11.685218 LL:  -1.860 LR: -10.422 RR:   0.000 FEB:  -6.843
USER: RMSD 7.044112
USER: SEED 104
USER: STATUS no improvement in best in 20 clusters for 5 generations
USER: GENES 14
USER: genes 0 Translation |==|  0.55521 0.46832 0.42613
USER: genes 1 Rotation |==|  0.37933 0.07329 0.70292 0.61036
USER: genes 2 Torsion [C]-CA--N-[C] |==|  0.84813
USER: genes 3 Torsion [N]-C--CA-[N] |==|  0.41047
USER: genes 4 Torsion [C]-CA--CB-[CG] |==|  0.98417
USER: genes 5 Torsion [CA]-CB--CG-[CD] |==|  0.31325
USER: genes 6 Torsion [CB]-CG--CD-[OE1] |==|  0.44983
USER: genes 7 Torsion [N]-CA--C-[N] |==|  0.29448
USER: genes 8 Torsion [C]-N--CA-[CB] |==|  0.24828
USER: genes 9 Torsion [N]-CA--CB-[CG] |==|  0.63352
USER: genes 10 Torsion [CA]-CB--CG-[CD1] |==|  0.73285
USER: genes 11 Torsion [N]-CA--C-[O] |==|  0.13464
USER: genes 12 Torsion [N]-CA--CB-[CG] |==|  0.06455
USER: genes 13 Torsion [CA]-CB--CG-[OD2] |==|  0.81309
ROOT
ATOM      1  CA  ASP C 507      10.176  24.761   3.414  1.00 33.68 LIG 0.19  C 
ENDROOT
BRANCH 1 2
ATOM      2  N   ASP C 507      11.442  24.055   3.564  1.00 35.05 LIG-0.34  N 
ATOM      3  C   GLU C 506      12.395  24.477   4.386  1.00 36.98 LIG 0.26  C 
ATOM      4 O    GLU C 506      12.303  25.516   5.049  1.00 35.33 LIG-0.27  OA
ATOM      5 H    ASP C 507      11.511  23.351   3.076  1.00 35.05 LIG 0.16  HD
BRANCH 3 6
ATOM      6  CA  GLU C 506      13.665  23.628   4.425  1.00 38.62 LIG 0.40  C 
ATOM      7  N   GLU C 506      14.852  24.486   4.688  1.00 38.98 LIG 0.61  N 
BRANCH 6 8
ATOM      8  CB  GLU C 506      13.553  22.525   5.481  1.00 41.41 LIG 0.06  C 
BRANCH 8 9
ATOM      9  CG  GLU C 506      12.297  22.606   6.325  1.00 54.63 LIG 0.12  C 
BRANCH 9 10
ATOM     10  CD  GLU C 506      11.343  21.452   6.084  1.00 71.07 LIG 0.17  C 
ATOM     11 OE1  GLU C 506      10.457  21.215   6.938  1.00 74.77 LIG-0.65  OA
ATOM     12 OE2  GLU C 506      11.474  20.792   5.029  1.00 73.38 LIG-0.65  OA
ENDBRANCH 9 10
ENDBRANCH 8 9
ENDBRANCH 6 8
ENDBRANCH 3 6
ENDBRANCH 1 2
BRANCH 1 13
ATOM     13  C   ASP C 507       9.539  24.920   4.783  1.00 33.47 LIG 0.24  C 
ATOM     14 O    ASP C 507       9.056  23.950   5.371  1.00 34.83 LIG-0.27  OA
ATOM     15  N   LEU C 508       9.587  26.145   5.298  1.00 31.65 LIG-0.34  N 
ATOM     16 H    LEU C 508       9.932  26.821   4.891  1.00 31.65 LIG 0.16  HD
BRANCH 15 17
ATOM     17  CA  LEU C 508       9.052  26.454   6.615  1.00 32.20 LIG 0.18  C 
BRANCH 17 18
ATOM     18  CB  LEU C 508      10.140  26.247   7.659  1.00 32.28 LIG 0.04  C 
BRANCH 18 19
ATOM     19  CG  LEU C 508       9.583  25.420   8.813  1.00 33.09 LIG-0.02  C 
ATOM     20  CD1 LEU C 508       9.129  26.317   9.924  1.00 32.61 LIG 0.01  C 
ATOM     21  CD2 LEU C 508       8.476  24.510   8.303  1.00 34.13 LIG 0.01  C 
ENDBRANCH 18 19
ENDBRANCH 17 18
BRANCH 17 22
ATOM     22  C   LEU C 508       8.491  27.861   6.716  1.00 33.63 LIG 0.20  C 
ATOM     23 O    LEU C 508       7.711  28.249   5.820  0.50 32.81 LIG-0.65  OA
ATOM     24 OXT  LEU C 508       8.838  28.562   7.688  0.50 35.17 LIG-0.65  OA
ENDBRANCH 17 22
ENDBRANCH 15 17
ENDBRANCH 1 13
BRANCH 1 25
ATOM     25  CB  ASP C 507       9.266  23.991   2.460  1.00 31.02 LIG 0.15  C 
BRANCH 25 26
ATOM     26  CG  ASP C 507       9.634  22.524   2.385  1.00 34.22 LIG 0.17  C 
ATOM     27 OD2  ASP C 507      10.726  22.190   1.870  1.00 32.29 LIG-0.65  OA
ATOM     28 OD1  ASP C 507       8.803  21.698   2.806  1.00 33.73 LIG-0.65  OA
ENDBRANCH 25 26
ENDBRANCH 1 25
TORSDOF 12
ENDMDL
MODEL 3
USER: ADFR SOLUTION from run 167
USER: SCORE 10.924220 LL:  -1.453 LR: -10.344 RR:   0.000 FEB:  -6.764
USER: RMSD 7.128175
USER: SEED 166
USER: STATUS no improvement in best in 18 clusters for 5 generations
USER: GENES 14
USER: genes 0 Translation |==|  0.49211 0.51859 0.46346
USER: genes 1 Rotation |==|  0.35807 0.14701 0.81774 0.56556
USER: genes 2 Torsion [C]-CA--N-[C] |==|  0.56812
USER: genes 3 Torsion [N]-C--CA-[N] |==|  0.69653
USER: genes 4 Torsion [C]-CA--CB-[CG] |==|  0.31982
USER: genes 5 Torsion [CA]-CB--CG-[CD] |==|  0.78012
USER: genes 6 Torsion [CB]-CG--CD-[OE1] |==|  0.68199
USER: genes 7 Torsion [N]-CA--C-[N] |==|  0.77222
USER: genes 8 Torsion [C]-N--CA-[CB] |==|  0.88838
USER: genes 9 Torsion [N]-CA--CB-[CG] |==|  0.79916
USER: genes 10 Torsion [CA]-CB--CG-[CD1] |==|  0.54683
USER: genes 11 Torsion [N]-CA--C-[O] |==|  0.32682
USER: genes 12 Torsion [N]-CA--CB-[CG] |==|  0.70578
USER: genes 13 Torsion [CA]-CB--CG-[OD2] |==|  0.89047
ROOT
ATOM      1  CA  ASP C 507       9.088  25.515   4.058  1.00 33.68 LIG 0.19  C 
ENDROOT
BRANCH 1 2
ATOM      2  N   ASP C 507      10.368  25.049   4.574  1.00 35.05 LIG-0.34  N 
ATOM      3  C   GLU C 506      11.368  24.697   3.775  1.00 36.98 LIG 0.26  C 
ATOM      4 O    GLU C 506      11.277  24.693   2.542  1.00 35.33 LIG-0.27  OA
ATOM      5 H    ASP C 507      10.413  25.025   5.432  1.00 35.05 LIG 0.16  HD
BRANCH 3 6
ATOM      6  CA  GLU C 506      12.643  24.225   4.471  1.00 38.62 LIG 0.40  C 
ATOM      7  N   GLU C 506      13.722  25.238   4.313  1.00 38.98 LIG 0.61  N 
BRANCH 6 8
ATOM      8  CB  GLU C 506      12.384  23.942   5.953  1.00 41.41 LIG 0.06  C 
BRANCH 8 9
ATOM      9  CG  GLU C 506      12.555  22.487   6.342  1.00 54.63 LIG 0.12  C 
BRANCH 9 10
ATOM     10  CD  GLU C 506      11.363  21.628   5.971  1.00 71.07 LIG 0.17  C 
ATOM     11 OE1  GLU C 506      10.685  21.111   6.888  1.00 74.77 LIG-0.65  OA
ATOM     12 OE2  GLU C 506      11.098  21.484   4.756  1.00 73.38 LIG-0.65  OA
ENDBRANCH 9 10
ENDBRANCH 8 9
ENDBRANCH 6 8
ENDBRANCH 3 6
ENDBRANCH 1 2
BRANCH 1 13
ATOM     13  C   ASP C 507       8.420  26.379   5.112  1.00 33.47 LIG 0.24  C 
ATOM     14 O    ASP C 507       8.460  27.610   5.039  1.00 34.83 LIG-0.27  OA
ATOM     15  N   LEU C 508       7.765  25.720   6.063  1.00 31.65 LIG-0.34  N 
ATOM     16 H    LEU C 508       7.728  24.861   6.110  1.00 31.65 LIG 0.16  HD
BRANCH 15 17
ATOM     17  CA  LEU C 508       7.044  26.404   7.126  1.00 32.20 LIG 0.18  C 
BRANCH 17 18
ATOM     18  CB  LEU C 508       7.857  27.604   7.590  1.00 32.28 LIG 0.04  C 
BRANCH 18 19
ATOM     19  CG  LEU C 508       9.065  27.118   8.385  1.00 33.09 LIG-0.02  C 
ATOM     20  CD1 LEU C 508       9.646  28.242   9.188  1.00 32.61 LIG 0.01  C 
ATOM     21  CD2 LEU C 508       8.667  25.927   9.244  1.00 34.13 LIG 0.01  C 
ENDBRANCH 18 19
ENDBRANCH 17 18
BRANCH 17 22
ATOM     22  C   LEU C 508       5.651  26.845   6.712  1.00 33.63 LIG 0.20  C 
ATOM     23 O    LEU C 508       4.675  26.359   7.323  0.50 32.81 LIG-0.65  OA
ATOM     24 OXT  LEU C 508       5.550  27.669   5.781  0.50 35.17 LIG-0.65  OA
ENDBRANCH 17 22
ENDBRANCH 15 17
ENDBRANCH 1 13
BRANCH 1 25
ATOM     25  CB  ASP C 507       8.217  24.319   3.682  1.00 31.02 LIG 0.15  C 
BRANCH 25 26
ATOM     26  CG  ASP C 507       8.124  24.134   2.181  1.00 34.22 LIG 0.17  C 
ATOM     27 OD2  ASP C 507       8.026  25.141   1.443  1.00 32.29 LIG-0.65  OA
ATOM     28 OD1  ASP C 507       8.104  22.969   1.743  1.00 33.73 LIG-0.65  OA
ENDBRANCH 25 26
ENDBRANCH 1 25
TORSDOF 12
ENDMDL
MODEL 4
USER: ADFR SOLUTION from run 196
USER: SCORE 11.927243 LL:  -1.985 LR: -10.299 RR:   0.000 FEB:  -6.719
USER: RMSD 7.142789
USER: SEED 195
USER: STATUS no improvement in best in 15 clusters for 5 generations
USER: GENES 14
USER: genes 0 Translation |==|  0.51820 0.38064 0.36938
USER: genes 1 Rotation |==|  0.66389 0.79805 0.13739 0.55313
USER: genes 2 Torsion [C]-CA--N-[C] |==|  0.73902
USER: genes 3 Torsion [N]-C--CA-[N] |==|  0.56664
USER: genes 4 Torsion [C]-CA--CB-[CG] |==|  0.30678
USER: genes 5 Torsion [CA]-CB--CG-[CD] |==|  0.74582
USER: genes 6 Torsion [CB]-CG--CD-[OE1] |==|  0.15822
USER: genes 7 Torsion [N]-CA--C-[N] |==|  0.17011
USER: genes 8 Torsion [C]-N--CA-[CB] |==|  0.34183
USER: genes 9 Torsion [N]-CA--CB-[CG] |==|  0.77568
USER: genes 10 Torsion [CA]-CB--CG-[CD1] |==|  0.30442
USER: genes 11 Torsion [N]-CA--C-[O] |==|  0.26639
USER: genes 12 Torsion [N]-CA--CB-[CG] |==|  0.72054
USER: genes 13 Torsion [CA]-CB--CG-[OD2] |==|  0.22268
ROOT
ATOM      1  CA  ASP C 507       9.538  23.446   2.435  1.00 33.68 LIG 0.19  C 
ENDROOT
BRANCH 1 2
ATOM      2  N   ASP C 507      10.615  23.546   3.411  1.00 35.05 LIG-0.34  N 
ATOM      3  C   GLU C 506      11.673  24.325   3.220  1.00 36.98 LIG 0.26  C 
ATOM      4 O    GLU C 506      11.848  24.984   2.190  1.00 35.33 LIG-0.27  OA
ATOM      5 H    ASP C 507      10.501  23.061   4.111  1.00 35.05 LIG 0.16  HD
BRANCH 3 6
ATOM      6  CA  GLU C 506      12.716  24.316   4.336  1.00 38.62 LIG 0.40  C 
ATOM      7  N   GLU C 506      13.507  25.576   4.315  1.00 38.98 LIG 0.61  N 
BRANCH 6 8
ATOM      8  CB  GLU C 506      12.054  24.119   5.702  1.00 41.41 LIG 0.06  C 
BRANCH 8 9
ATOM      9  CG  GLU C 506      12.344  22.775   6.340  1.00 54.63 LIG 0.12  C 
BRANCH 9 10
ATOM     10  CD  GLU C 506      11.312  21.718   5.995  1.00 71.07 LIG 0.17  C 
ATOM     11 OE1  GLU C 506      11.099  21.456   4.789  1.00 74.77 LIG-0.65  OA
ATOM     12 OE2  GLU C 506      10.724  21.141   6.938  1.00 73.38 LIG-0.65  OA
ENDBRANCH 9 10
ENDBRANCH 8 9
ENDBRANCH 6 8
ENDBRANCH 3 6
ENDBRANCH 1 2
BRANCH 1 13
ATOM     13  C   ASP C 507       8.445  24.432   2.806  1.00 33.47 LIG 0.24  C 
ATOM     14 O    ASP C 507       7.319  24.039   3.119  1.00 34.83 LIG-0.27  OA
ATOM     15  N   LEU C 508       8.807  25.712   2.814  1.00 31.65 LIG-0.34  N 
ATOM     16 H    LEU C 508       9.596  25.986   2.606  1.00 31.65 LIG 0.16  HD
BRANCH 15 17
ATOM     17  CA  LEU C 508       7.885  26.776   3.183  1.00 32.20 LIG 0.18  C 
BRANCH 17 18
ATOM     18  CB  LEU C 508       8.474  27.569   4.341  1.00 32.28 LIG 0.04  C 
BRANCH 18 19
ATOM     19  CG  LEU C 508       8.217  26.823   5.646  1.00 33.09 LIG-0.02  C 
ATOM     20  CD1 LEU C 508       9.498  26.265   6.188  1.00 32.61 LIG 0.01  C 
ATOM     21  CD2 LEU C 508       7.515  27.744   6.633  1.00 34.13 LIG 0.01  C 
ENDBRANCH 18 19
ENDBRANCH 17 18
BRANCH 17 22
ATOM     22  C   LEU C 508       7.555  27.704   2.028  1.00 33.63 LIG 0.20  C 
ATOM     23 O    LEU C 508       6.511  27.484   1.377  0.50 32.81 LIG-0.65  OA
ATOM     24 OXT  LEU C 508       8.343  28.641   1.785  0.50 35.17 LIG-0.65  OA
ENDBRANCH 17 22
ENDBRANCH 15 17
ENDBRANCH 1 13
BRANCH 1 25
ATOM     25  CB  ASP C 507       9.009  22.014   2.396  1.00 31.02 LIG 0.15  C 
BRANCH 25 26
ATOM     26  CG  ASP C 507       9.560  21.237   1.219  1.00 34.22 LIG 0.17  C 
ATOM     27 OD2  ASP C 507      10.711  20.748   1.290  1.00 32.29 LIG-0.65  OA
ATOM     28 OD1  ASP C 507       8.850  21.153   0.199  1.00 33.73 LIG-0.65  OA
ENDBRANCH 25 26
ENDBRANCH 1 25
TORSDOF 12
ENDMDL
MODEL 5
USER: ADFR SOLUTION from run 83
USER: SCORE 11.076370 LL:  -1.510 LR: -10.190 RR:   0.000 FEB:  -6.610
USER: RMSD 6.342612
USER: SEED 82
USER: STATUS no improvement in best in 16 clusters for 5 generations
USER: GENES 14
USER: genes 0 Translation |==|  0.50878 0.55079 0.59661
USER: genes 1 Rotation |==|  0.37833 0.33714 0.04335 0.51218
USER: genes 2 Torsion [C]-CA--N-[C] |==|  0.54444
USER: genes 3 Torsion [N]-C--CA-[N] |==|  0.32802
USER: genes 4 Torsion [C]-CA--CB-[CG] |==|  0.85190
USER: genes 5 Torsion [CA]-CB--CG-[CD] |==|  0.29389
USER: genes 6 Torsion [CB]-CG--CD-[OE1] |==|  0.52458
USER: genes 7 Torsion [N]-CA--C-[N] |==|  0.26153
USER: genes 8 Torsion [C]-N--CA-[CB] |==|  0.84903
USER: genes 9 Torsion [N]-CA--CB-[CG] |==|  0.82304
USER: genes 10 Torsion [CA]-CB--CG-[CD1] |==|  0.33297
USER: genes 11 Torsion [N]-CA--C-[O] |==|  0.95370
USER: genes 12 Torsion [N]-CA--CB-[CG] |==|  0.46114
USER: genes 13 Torsion [CA]-CB--CG-[OD2] |==|  0.69753
ROOT
ATOM      1  CA  ASP C 507       9.375  25.998   6.355  1.00 33.68 LIG 0.19  C 
ENDROOT
BRANCH 1 2
ATOM      2  N   ASP C 507      10.381  25.769   5.325  1.00 35.05 LIG-0.34  N 
ATOM      3  C   GLU C 506      11.387  24.920   5.495  1.00 36.98 LIG 0.26  C 
ATOM      4 O    GLU C 506      11.575  24.297   6.545  1.00 35.33 LIG-0.27  OA
ATOM      5 H    ASP C 507      10.261  26.229   4.609  1.00 35.05 LIG 0.16  HD
BRANCH 3 6
ATOM      6  CA  GLU C 506      12.359  24.797   4.322  1.00 38.62 LIG 0.40  C 
ATOM      7  N   GLU C 506      13.724  25.220   4.736  1.00 38.98 LIG 0.61  N 
BRANCH 6 8
ATOM      8  CB  GLU C 506      12.381  23.366   3.779  1.00 41.41 LIG 0.06  C 
BRANCH 8 9
ATOM      9  CG  GLU C 506      12.650  22.310   4.834  1.00 54.63 LIG 0.12  C 
BRANCH 9 10
ATOM     10  CD  GLU C 506      11.413  21.519   5.211  1.00 71.07 LIG 0.17  C 
ATOM     11 OE1  GLU C 506      11.474  20.737   6.188  1.00 74.77 LIG-0.65  OA
ATOM     12 OE2  GLU C 506      10.374  21.693   4.534  1.00 73.38 LIG-0.65  OA
ENDBRANCH 9 10
ENDBRANCH 8 9
ENDBRANCH 6 8
ENDBRANCH 3 6
ENDBRANCH 1 2
BRANCH 1 13
ATOM     13  C   ASP C 507       8.179  26.690   5.726  1.00 33.47 LIG 0.24  C 
ATOM     14 O    ASP C 507       8.167  27.914   5.572  1.00 34.83 LIG-0.27  OA
ATOM     15  N   LEU C 508       7.198  25.888   5.325  1.00 31.65 LIG-0.34  N 
ATOM     16 H    LEU C 508       7.210  25.033   5.424  1.00 31.65 LIG 0.16  HD
BRANCH 15 17
ATOM     17  CA  LEU C 508       6.000  26.394   4.673  1.00 32.20 LIG 0.18  C 
BRANCH 17 18
ATOM     18  CB  LEU C 508       5.365  27.463   5.552  1.00 32.28 LIG 0.04  C 
BRANCH 18 19
ATOM     19  CG  LEU C 508       4.914  26.834   6.865  1.00 33.09 LIG-0.02  C 
ATOM     20  CD1 LEU C 508       5.612  27.484   8.021  1.00 32.61 LIG 0.01  C 
ATOM     21  CD2 LEU C 508       3.399  26.911   6.977  1.00 34.13 LIG 0.01  C 
ENDBRANCH 18 19
ENDBRANCH 17 18
BRANCH 17 22
ATOM     22  C   LEU C 508       6.266  26.948   3.285  1.00 33.63 LIG 0.20  C 
ATOM     23 O    LEU C 508       7.447  27.213   2.974  0.50 32.81 LIG-0.65  OA
ATOM     24 OXT  LEU C 508       5.291  27.113   2.523  0.50 35.17 LIG-0.65  OA
ENDBRANCH 17 22
ENDBRANCH 15 17
ENDBRANCH 1 13
BRANCH 1 25
ATOM     25  CB  ASP C 507       9.974  26.832   7.484  1.00 31.02 LIG 0.15  C 
BRANCH 25 26
ATOM     26  CG  ASP C 507       8.908  27.386   8.407  1.00 34.22 LIG 0.17  C 
ATOM     27 OD2  ASP C 507       8.657  28.613   8.388  1.00 32.29 LIG-0.65  OA
ATOM     28 OD1  ASP C 507       8.350  26.592   9.186  1.00 33.73 LIG-0.65  OA
ENDBRANCH 25 26
ENDBRANCH 1 25
TORSDOF 12
ENDMDL
MODEL 6
USER: ADFR SOLUTION from run 93
USER: SCORE 11.616570 LL:  -1.736 LR: -10.174 RR:   0.000 FEB:  -6.594
USER: RMSD 7.009574
USER: SEED 92
USER: STATUS no improvement in best in 17 clusters for 5 generations
USER: GENES 14
USER: genes 0 Translation |==|  0.52645 0.38077 0.37654
USER: genes 1 Rotation |==|  0.66292 0.80465 0.13922 0.52193
USER: genes 2 Torsion [C]-CA--N-[C] |==|  0.76667
USER: genes 3 Torsion [N]-C--CA-[N] |==|  0.53552
USER: genes 4 Torsion [C]-CA--CB-[CG] |==|  0.30989
USER: genes 5 Torsion [CA]-CB--CG-[CD] |==|  0.74888
USER: genes 6 Torsion [CB]-CG--CD-[OE1] |==|  0.21203
USER: genes 7 Torsion [N]-CA--C-[N] |==|  0.16705
USER: genes 8 Torsion [C]-N--CA-[CB] |==|  0.86055
USER: genes 9 Torsion [N]-CA--CB-[CG] |==|  0.77889
USER: genes 10 Torsion [CA]-CB--CG-[CD1] |==|  0.95517
USER: genes 11 Torsion [N]-CA--C-[O] |==|  0.41023
USER: genes 12 Torsion [N]-CA--CB-[CG] |==|  0.74189
USER: genes 13 Torsion [CA]-CB--CG-[OD2] |==|  0.20400
ROOT
ATOM      1  CA  ASP C 507       9.680  23.447   2.558  1.00 33.68 LIG 0.19  C 
ENDROOT
BRANCH 1 2
ATOM      2  N   ASP C 507      10.832  23.400   3.449  1.00 35.05 LIG-0.34  N 
ATOM      3  C   GLU C 506      11.851  24.244   3.335  1.00 36.98 LIG 0.26  C 
ATOM      4 O    GLU C 506      11.923  25.097   2.444  1.00 35.33 LIG-0.27  OA
ATOM      5 H    ASP C 507      10.789  22.784   4.047  1.00 35.05 LIG 0.16  HD
BRANCH 3 6
ATOM      6  CA  GLU C 506      12.983  24.060   4.344  1.00 38.62 LIG 0.40  C 
ATOM      7  N   GLU C 506      13.898  25.234   4.313  1.00 38.98 LIG 0.61  N 
BRANCH 6 8
ATOM      8  CB  GLU C 506      12.429  23.847   5.755  1.00 41.41 LIG 0.06  C 
BRANCH 8 9
ATOM      9  CG  GLU C 506      12.655  22.451   6.301  1.00 54.63 LIG 0.12  C 
BRANCH 9 10
ATOM     10  CD  GLU C 506      11.520  21.497   5.982  1.00 71.07 LIG 0.17  C 
ATOM     11 OE1  GLU C 506      11.432  21.032   4.822  1.00 74.77 LIG-0.65  OA
ATOM     12 OE2  GLU C 506      10.724  21.203   6.903  1.00 73.38 LIG-0.65  OA
ENDBRANCH 9 10
ENDBRANCH 8 9
ENDBRANCH 6 8
ENDBRANCH 3 6
ENDBRANCH 1 2
BRANCH 1 13
ATOM     13  C   ASP C 507       8.702  24.487   3.075  1.00 33.47 LIG 0.24  C 
ATOM     14 O    ASP C 507       7.567  24.164   3.433  1.00 34.83 LIG-0.27  OA
ATOM     15  N   LEU C 508       9.173  25.728   3.154  1.00 31.65 LIG-0.34  N 
ATOM     16 H    LEU C 508       9.968  25.953   2.913  1.00 31.65 LIG 0.16  HD
BRANCH 15 17
ATOM     17  CA  LEU C 508       8.372  26.832   3.662  1.00 32.20 LIG 0.18  C 
BRANCH 17 18
ATOM     18  CB  LEU C 508       7.025  26.839   2.953  1.00 32.28 LIG 0.04  C 
BRANCH 18 19
ATOM     19  CG  LEU C 508       7.181  27.481   1.578  1.00 33.09 LIG-0.02  C 
ATOM     20  CD1 LEU C 508       8.469  28.242   1.502  1.00 32.61 LIG 0.01  C 
ATOM     21  CD2 LEU C 508       7.065  26.415   0.499  1.00 34.13 LIG 0.01  C 
ENDBRANCH 18 19
ENDBRANCH 17 18
BRANCH 17 22
ATOM     22  C   LEU C 508       8.171  26.779   5.165  1.00 33.63 LIG 0.20  C 
ATOM     23 O    LEU C 508       8.077  27.861   5.784  0.50 32.81 LIG-0.65  OA
ATOM     24 OXT  LEU C 508       8.112  25.658   5.710  0.50 35.17 LIG-0.65  OA
ENDBRANCH 17 22
ENDBRANCH 15 17
ENDBRANCH 1 13
BRANCH 1 25
ATOM     25  CB  ASP C 507       9.035  22.066   2.475  1.00 31.02 LIG 0.15  C 
BRANCH 25 26
ATOM     26  CG  ASP C 507       9.574  21.258   1.313  1.00 34.22 LIG 0.17  C 
ATOM     27 OD2  ASP C 507      10.729  20.779   1.381  1.00 32.29 LIG-0.65  OA
ATOM     28 OD1  ASP C 507       8.849  21.139   0.308  1.00 33.73 LIG-0.65  OA
ENDBRANCH 25 26
ENDBRANCH 1 25
TORSDOF 12
ENDMDL
MODEL 7
USER: ADFR SOLUTION from run 61
USER: SCORE 11.466291 LL:  -1.994 LR: -10.133 RR:   0.000 FEB:  -6.553
USER: RMSD 6.925916
USER: SEED 60
USER: STATUS no improvement in best in 15 clusters for 5 generations
USER: GENES 14
USER: genes 0 Translation |==|  0.42732 0.64018 0.47828
USER: genes 1 Rotation |==|  0.34890 0.07783 0.67626 0.63368
USER: genes 2 Torsion [C]-CA--N-[C] |==|  0.22193
USER: genes 3 Torsion [N]-C--CA-[N] |==|  0.86621
USER: genes 4 Torsion [C]-CA--CB-[CG] |==|  0.43738
USER: genes 5 Torsion [CA]-CB--CG-[CD] |==|  0.86686
USER: genes 6 Torsion [CB]-CG--CD-[OE1] |==|  0.20861
USER: genes 7 Torsion [N]-CA--C-[N] |==|  0.83378
USER: genes 8 Torsion [C]-N--CA-[CB] |==|  0.88660
USER: genes 9 Torsion [N]-CA--CB-[CG] |==|  0.76387
USER: genes 10 Torsion [CA]-CB--CG-[CD1] |==|  0.97097
USER: genes 11 Torsion [N]-CA--C-[O] |==|  0.18058
USER: genes 12 Torsion [N]-CA--CB-[CG] |==|  0.73622
USER: genes 13 Torsion [CA]-CB--CG-[OD2] |==|  0.01670
ROOT
ATOM      1  CA  ASP C 507       7.970  27.339   4.313  1.00 33.68 LIG 0.19  C 
ENDROOT
BRANCH 1 2
ATOM      2  N   ASP C 507       9.099  26.420   4.388  1.00 35.05 LIG-0.34  N 
ATOM      3  C   GLU C 506       8.939  25.103   4.420  1.00 36.98 LIG 0.26  C 
ATOM      4 O    GLU C 506       7.829  24.558   4.434  1.00 35.33 LIG-0.27  OA
ATOM      5 H    ASP C 507       9.866  26.807   4.409  1.00 35.05 LIG 0.16  HD
BRANCH 3 6
ATOM      6  CA  GLU C 506      10.222  24.278   4.503  1.00 38.62 LIG 0.40  C 
ATOM      7  N   GLU C 506      11.207  24.750   3.493  1.00 38.98 LIG 0.61  N 
BRANCH 6 8
ATOM      8  CB  GLU C 506      10.821  24.341   5.910  1.00 41.41 LIG 0.06  C 
BRANCH 8 9
ATOM      9  CG  GLU C 506      11.737  23.180   6.243  1.00 54.63 LIG 0.12  C 
BRANCH 9 10
ATOM     10  CD  GLU C 506      11.140  21.831   5.892  1.00 71.07 LIG 0.17  C 
ATOM     11 OE1  GLU C 506      11.099  21.486   4.688  1.00 74.77 LIG-0.65  OA
ATOM     12 OE2  GLU C 506      10.724  21.111   6.827  1.00 73.38 LIG-0.65  OA
ENDBRANCH 9 10
ENDBRANCH 8 9
ENDBRANCH 6 8
ENDBRANCH 3 6
ENDBRANCH 1 2
BRANCH 1 13
ATOM     13  C   ASP C 507       7.371  27.494   5.700  1.00 33.47 LIG 0.24  C 
ATOM     14 O    ASP C 507       7.282  28.604   6.229  1.00 34.83 LIG-0.27  OA
ATOM     15  N   LEU C 508       6.920  26.374   6.258  1.00 31.65 LIG-0.34  N 
ATOM     16 H    LEU C 508       6.974  25.600   5.885  1.00 31.65 LIG 0.16  HD
BRANCH 15 17
ATOM     17  CA  LEU C 508       6.288  26.361   7.568  1.00 32.20 LIG 0.18  C 
BRANCH 17 18
ATOM     18  CB  LEU C 508       7.046  27.297   8.499  1.00 32.28 LIG 0.04  C 
BRANCH 18 19
ATOM     19  CG  LEU C 508       8.225  26.551   9.114  1.00 33.09 LIG-0.02  C 
ATOM     20  CD1 LEU C 508       8.126  25.085   8.819  1.00 32.61 LIG 0.01  C 
ATOM     21  CD2 LEU C 508       9.530  27.161   8.624  1.00 34.13 LIG 0.01  C 
ENDBRANCH 18 19
ENDBRANCH 17 18
BRANCH 17 22
ATOM     22  C   LEU C 508       4.819  26.743   7.525  1.00 33.63 LIG 0.20  C 
ATOM     23 O    LEU C 508       4.032  25.986   6.917  0.50 32.81 LIG-0.65  OA
ATOM     24 OXT  LEU C 508       4.471  27.797   8.096  0.50 35.17 LIG-0.65  OA
ENDBRANCH 17 22
ENDBRANCH 15 17
ENDBRANCH 1 13
BRANCH 1 25
ATOM     25  CB  ASP C 507       6.941  26.812   3.316  1.00 31.02 LIG 0.15  C 
BRANCH 25 26
ATOM     26  CG  ASP C 507       7.127  27.413   1.938  1.00 34.22 LIG 0.17  C 
ATOM     27 OD2  ASP C 507       8.115  28.150   1.718  1.00 32.29 LIG-0.65  OA
ATOM     28 OD1  ASP C 507       6.251  27.180   1.084  1.00 33.73 LIG-0.65  OA
ENDBRANCH 25 26
ENDBRANCH 1 25
TORSDOF 12
ENDMDL
MODEL 8
USER: ADFR SOLUTION from run 86
USER: SCORE 10.915664 LL:  -1.620 LR:  -9.993 RR:   0.000 FEB:  -6.414
USER: RMSD 6.944818
USER: SEED 85
USER: STATUS no improvement in best in 16 clusters for 5 generations
USER: GENES 14
USER: genes 0 Translation |==|  0.49152 0.50542 0.46987
USER: genes 1 Rotation |==|  0.35625 0.20016 0.86454 0.58088
USER: genes 2 Torsion [C]-CA--N-[C] |==|  0.63475
USER: genes 3 Torsion [N]-C--CA-[N] |==|  0.67842
USER: genes 4 Torsion [C]-CA--CB-[CG] |==|  0.31017
USER: genes 5 Torsion [CA]-CB--CG-[CD] |==|  0.78433
USER: genes 6 Torsion [CB]-CG--CD-[OE1] |==|  0.18592
USER: genes 7 Torsion [N]-CA--C-[N] |==|  0.75556
USER: genes 8 Torsion [C]-N--CA-[CB] |==|  0.41453
USER: genes 9 Torsion [N]-CA--CB-[CG] |==|  0.71392
USER: genes 10 Torsion [CA]-CB--CG-[CD1] |==|  0.31688
USER: genes 11 Torsion [N]-CA--C-[O] |==|  0.27362
USER: genes 12 Torsion [N]-CA--CB-[CG] |==|  0.68560
USER: genes 13 Torsion [CA]-CB--CG-[OD2] |==|  0.80857
ROOT
ATOM      1  CA  ASP C 507       9.078  25.317   4.168  1.00 33.68 LIG 0.19  C 
ENDROOT
BRANCH 1 2
ATOM      2  N   ASP C 507      10.381  24.873   4.643  1.00 35.05 LIG-0.34  N 
ATOM      3  C   GLU C 506      11.407  24.681   3.822  1.00 36.98 LIG 0.26  C 
ATOM      4 O    GLU C 506      11.324  24.819   2.597  1.00 35.33 LIG-0.27  OA
ATOM      5 H    ASP C 507      10.422  24.749   5.493  1.00 35.05 LIG 0.16  HD
BRANCH 3 6
ATOM      6  CA  GLU C 506      12.704  24.209   4.476  1.00 38.62 LIG 0.40  C 
ATOM      7  N   GLU C 506      13.767  25.238   4.316  1.00 38.98 LIG 0.61  N 
BRANCH 6 8
ATOM      8  CB  GLU C 506      12.485  23.888   5.957  1.00 41.41 LIG 0.06  C 
BRANCH 8 9
ATOM      9  CG  GLU C 506      12.601  22.414   6.292  1.00 54.63 LIG 0.12  C 
BRANCH 9 10
ATOM     10  CD  GLU C 506      11.371  21.617   5.904  1.00 71.07 LIG 0.17  C 
ATOM     11 OE1  GLU C 506      11.099  21.484   4.688  1.00 74.77 LIG-0.65  OA
ATOM     12 OE2  GLU C 506      10.685  21.111   6.821  1.00 73.38 LIG-0.65  OA
ENDBRANCH 9 10
ENDBRANCH 8 9
ENDBRANCH 6 8
ENDBRANCH 3 6
ENDBRANCH 1 2
BRANCH 1 13
ATOM     13  C   ASP C 507       8.607  26.471   5.036  1.00 33.47 LIG 0.24  C 
ATOM     14 O    ASP C 507       8.816  27.640   4.700  1.00 34.83 LIG-0.27  OA
ATOM     15  N   LEU C 508       7.930  26.128   6.127  1.00 31.65 LIG-0.34  N 
ATOM     16 H    LEU C 508       7.776  25.313   6.357  1.00 31.65 LIG 0.16  HD
BRANCH 15 17
ATOM     17  CA  LEU C 508       7.382  27.118   7.043  1.00 32.20 LIG 0.18  C 
BRANCH 17 18
ATOM     18  CB  LEU C 508       6.116  26.562   7.681  1.00 32.28 LIG 0.04  C 
BRANCH 18 19
ATOM     19  CG  LEU C 508       4.897  27.194   7.018  1.00 33.09 LIG-0.02  C 
ATOM     20  CD1 LEU C 508       4.116  26.157   6.269  1.00 32.61 LIG 0.01  C 
ATOM     21  CD2 LEU C 508       4.060  27.916   8.064  1.00 34.13 LIG 0.01  C 
ENDBRANCH 18 19
ENDBRANCH 17 18
BRANCH 17 22
ATOM     22  C   LEU C 508       8.365  27.545   8.117  1.00 33.63 LIG 0.20  C 
ATOM     23 O    LEU C 508       8.995  28.611   7.947  0.50 32.81 LIG-0.65  OA
ATOM     24 OXT  LEU C 508       8.497  26.810   9.117  0.50 35.17 LIG-0.65  OA
ENDBRANCH 17 22
ENDBRANCH 15 17
ENDBRANCH 1 13
BRANCH 1 25
ATOM     25  CB  ASP C 507       8.091  24.153   4.204  1.00 31.02 LIG 0.15  C 
BRANCH 25 26
ATOM     26  CG  ASP C 507       7.658  23.733   2.814  1.00 34.22 LIG 0.17  C 
ATOM     27 OD2  ASP C 507       6.936  24.501   2.138  1.00 32.29 LIG-0.65  OA
ATOM     28 OD1  ASP C 507       8.010  22.607   2.416  1.00 33.73 LIG-0.65  OA
ENDBRANCH 25 26
ENDBRANCH 1 25
TORSDOF 12
ENDMDL
MODEL 9
USER: ADFR SOLUTION from run 89
USER: SCORE 12.064044 LL:  -2.294 LR:  -9.885 RR:   0.000 FEB:  -6.305
USER: RMSD 6.015677
USER: SEED 88
USER: STATUS no improvement in best in 18 clusters for 5 generations
USER: GENES 14
USER: genes 0 Translation |==|  0.32508 0.60410 0.52028
USER: genes 1 Rotation |==|  0.04616 0.69745 0.53239 0.56323
USER: genes 2 Torsion [C]-CA--N-[C] |==|  0.74158
USER: genes 3 Torsion [N]-C--CA-[N] |==|  0.90610
USER: genes 4 Torsion [C]-CA--CB-[CG] |==|  0.59862
USER: genes 5 Torsion [CA]-CB--CG-[CD] |==|  0.78036
USER: genes 6 Torsion [CB]-CG--CD-[OE1] |==|  0.87049
USER: genes 7 Torsion [N]-CA--C-[N] |==|  0.33892
USER: genes 8 Torsion [C]-N--CA-[CB] |==|  0.20948
USER: genes 9 Torsion [N]-CA--CB-[CG] |==|  0.06880
USER: genes 10 Torsion [CA]-CB--CG-[CD1] |==|  0.22826
USER: genes 11 Torsion [N]-CA--C-[O] |==|  0.10774
USER: genes 12 Torsion [N]-CA--CB-[CG] |==|  0.80960
USER: genes 13 Torsion [CA]-CB--CG-[OD2] |==|  0.50949
ROOT
ATOM      1  CA  ASP C 507       6.207  26.797   5.038  1.00 33.68 LIG 0.19  C 
ENDROOT
BRANCH 1 2
ATOM      2  N   ASP C 507       5.431  27.798   5.759  1.00 35.05 LIG-0.34  N 
ATOM      3  C   GLU C 506       4.738  27.504   6.852  1.00 36.98 LIG 0.26  C 
ATOM      4 O    GLU C 506       4.661  26.361   7.315  1.00 35.33 LIG-0.27  OA
ATOM      5 H    ASP C 507       5.464  28.585   5.413  1.00 35.05 LIG 0.16  HD
BRANCH 3 6
ATOM      6  CA  GLU C 506       3.973  28.664   7.488  1.00 38.62 LIG 0.40  C 
ATOM      7  N   GLU C 506       4.725  29.936   7.313  1.00 38.98 LIG 0.61  N 
BRANCH 6 8
ATOM      8  CB  GLU C 506       2.568  28.782   6.894  1.00 41.41 LIG 0.06  C 
BRANCH 8 9
ATOM      9  CG  GLU C 506       2.074  30.209   6.757  1.00 54.63 LIG 0.12  C 
BRANCH 9 10
ATOM     10  CD  GLU C 506       1.571  30.792   8.063  1.00 71.07 LIG 0.17  C 
ATOM     11 OE1  GLU C 506       0.797  30.105   8.770  1.00 74.77 LIG-0.65  OA
ATOM     12 OE2  GLU C 506       1.965  31.935   8.387  1.00 73.38 LIG-0.65  OA
ENDBRANCH 9 10
ENDBRANCH 8 9
ENDBRANCH 6 8
ENDBRANCH 3 6
ENDBRANCH 1 2
BRANCH 1 13
ATOM     13  C   ASP C 507       7.635  26.820   5.553  1.00 33.47 LIG 0.24  C 
ATOM     14 O    ASP C 507       8.293  27.863   5.544  1.00 34.83 LIG-0.27  OA
ATOM     15  N   LEU C 508       8.085  25.669   6.044  1.00 31.65 LIG-0.34  N 
ATOM     16 H    LEU C 508       7.623  24.944   6.059  1.00 31.65 LIG 0.16  HD
BRANCH 15 17
ATOM     17  CA  LEU C 508       9.420  25.536   6.607  1.00 32.20 LIG 0.18  C 
BRANCH 17 18
ATOM     18  CB  LEU C 508       9.448  26.182   7.986  1.00 32.28 LIG 0.04  C 
BRANCH 18 19
ATOM     19  CG  LEU C 508       8.039  26.189   8.568  1.00 33.09 LIG-0.02  C 
ATOM     20  CD1 LEU C 508       7.725  24.861   9.188  1.00 32.61 LIG 0.01  C 
ATOM     21  CD2 LEU C 508       7.897  27.343   9.550  1.00 34.13 LIG 0.01  C 
ENDBRANCH 18 19
ENDBRANCH 17 18
BRANCH 17 22
ATOM     22  C   LEU C 508       9.889  24.095   6.695  1.00 33.63 LIG 0.20  C 
ATOM     23 O    LEU C 508       9.599  23.324   5.755  0.50 32.81 LIG-0.65  OA
ATOM     24 OXT  LEU C 508      10.541  23.751   7.702  0.50 35.17 LIG-0.65  OA
ENDBRANCH 17 22
ENDBRANCH 15 17
ENDBRANCH 1 13
BRANCH 1 25
ATOM     25  CB  ASP C 507       6.149  27.081   3.539  1.00 31.02 LIG 0.15  C 
BRANCH 25 26
ATOM     26  CG  ASP C 507       4.765  26.843   2.970  1.00 34.22 LIG 0.17  C 
ATOM     27 OD2  ASP C 507       4.577  26.972   1.739  1.00 32.29 LIG-0.65  OA
ATOM     28 OD1  ASP C 507       3.852  26.567   3.770  1.00 33.73 LIG-0.65  OA
ENDBRANCH 25 26
ENDBRANCH 1 25
TORSDOF 12
ENDMDL
MODEL 10
USER: ADFR SOLUTION from run 16
USER: SCORE 10.300234 LL:  -1.383 LR:  -9.875 RR:   0.000 FEB:  -6.295
USER: RMSD 7.624634
USER: SEED 380612
USER: STATUS no improvement in best in 17 clusters for 5 generations
USER: GENES 14
USER: genes 0 Translation |==|  0.58033 0.38006 0.33948
USER: genes 1 Rotation |==|  0.61672 0.75496 0.08651 0.52009
USER: genes 2 Torsion [C]-CA--N-[C] |==|  0.18460
USER: genes 3 Torsion [N]-C--CA-[N] |==|  0.24862
USER: genes 4 Torsion [C]-CA--CB-[CG] |==|  0.11309
USER: genes 5 Torsion [CA]-CB--CG-[CD] |==|  0.68999
USER: genes 6 Torsion [CB]-CG--CD-[OE1] |==|  0.38309
USER: genes 7 Torsion [N]-CA--C-[N] |==|  0.45041
USER: genes 8 Torsion [C]-N--CA-[CB] |==|  0.24192
USER: genes 9 Torsion [N]-CA--CB-[CG] |==|  0.63938
USER: genes 10 Torsion [CA]-CB--CG-[CD1] |==|  0.05548
USER: genes 11 Torsion [N]-CA--C-[O] |==|  0.10395
USER: genes 12 Torsion [N]-CA--CB-[CG] |==|  0.68020
USER: genes 13 Torsion [CA]-CB--CG-[OD2] |==|  0.75012
ROOT
ATOM      1  CA  ASP C 507      10.610  23.437   1.919  1.00 33.68 LIG 0.19  C 
ENDROOT
BRANCH 1 2
ATOM      2  N   ASP C 507      11.910  23.644   2.541  1.00 35.05 LIG-0.34  N 
ATOM      3  C   GLU C 506      12.085  23.583   3.856  1.00 36.98 LIG 0.26  C 
ATOM      4 O    GLU C 506      11.158  23.392   4.651  1.00 35.33 LIG-0.27  OA
ATOM      5 H    ASP C 507      12.545  23.808   1.984  1.00 35.05 LIG 0.16  HD
BRANCH 3 6
ATOM      6  CA  GLU C 506      13.509  23.829   4.351  1.00 38.62 LIG 0.40  C 
ATOM      7  N   GLU C 506      13.724  25.279   4.607  1.00 38.98 LIG 0.61  N 
BRANCH 6 8
ATOM      8  CB  GLU C 506      13.797  23.011   5.613  1.00 41.41 LIG 0.06  C 
BRANCH 8 9
ATOM      9  CG  GLU C 506      13.236  21.603   5.576  1.00 54.63 LIG 0.12  C 
BRANCH 9 10
ATOM     10  CD  GLU C 506      12.102  21.389   6.559  1.00 71.07 LIG 0.17  C 
ATOM     11 OE1  GLU C 506      11.099  20.736   6.187  1.00 74.77 LIG-0.65  OA
ATOM     12 OE2  GLU C 506      12.224  21.864   7.710  1.00 73.38 LIG-0.65  OA
ENDBRANCH 9 10
ENDBRANCH 8 9
ENDBRANCH 6 8
ENDBRANCH 3 6
ENDBRANCH 1 2
BRANCH 1 13
ATOM     13  C   ASP C 507       9.687  24.574   2.320  1.00 33.47 LIG 0.24  C 
ATOM     14 O    ASP C 507       9.970  25.313   3.266  1.00 34.83 LIG-0.27  OA
ATOM     15  N   LEU C 508       8.608  24.732   1.560  1.00 31.65 LIG-0.34  N 
ATOM     16 H    LEU C 508       8.415  24.222   0.893  1.00 31.65 LIG 0.16  HD
BRANCH 15 17
ATOM     17  CA  LEU C 508       7.644  25.797   1.792  1.00 32.20 LIG 0.18  C 
BRANCH 17 18
ATOM     18  CB  LEU C 508       8.095  27.050   1.054  1.00 32.28 LIG 0.04  C 
BRANCH 18 19
ATOM     19  CG  LEU C 508       8.073  28.236   2.011  1.00 33.09 LIG-0.02  C 
ATOM     20  CD1 LEU C 508       8.099  27.759   3.432  1.00 32.61 LIG 0.01  C 
ATOM     21  CD2 LEU C 508       9.224  29.177   1.688  1.00 34.13 LIG 0.01  C 
ENDBRANCH 18 19
ENDBRANCH 17 18
BRANCH 17 22
ATOM     22  C   LEU C 508       6.232  25.425   1.377  1.00 33.63 LIG 0.20  C 
ATOM     23 O    LEU C 508       5.851  24.252   1.575  0.50 32.81 LIG-0.65  OA
ATOM     24 OXT  LEU C 508       5.522  26.309   0.855  0.50 35.17 LIG-0.65  OA
ENDBRANCH 17 22
ENDBRANCH 15 17
ENDBRANCH 1 13
BRANCH 1 25
ATOM     25  CB  ASP C 507      10.045  22.083   2.343  1.00 31.02 LIG 0.15  C 
BRANCH 25 26
ATOM     26  CG  ASP C 507       9.914  21.131   1.172  1.00 34.22 LIG 0.17  C 
ATOM     27 OD2  ASP C 507       8.849  21.111   0.513  1.00 32.29 LIG-0.65  OA
ATOM     28 OD1  ASP C 507      10.870  20.369   0.938  1.00 33.73 LIG-0.65  OA
ENDBRANCH 25 26
ENDBRANCH 1 25
TORSDOF 12
ENDMDL
MODEL 11
USER: ADFR SOLUTION from run 174
USER: SCORE 11.161203 LL:  -1.551 LR:  -9.817 RR:   0.000 FEB:  -6.237
USER: RMSD 5.676019
USER: SEED 173
USER: STATUS no improvement in best in 17 clusters for 5 generations
USER: GENES 14
USER: genes 0 Translation |==|  0.49791 0.54370 0.59441
USER: genes 1 Rotation |==|  0.32850 0.37234 0.04821 0.51331
USER: genes 2 Torsion [C]-CA--N-[C] |==|  0.63431
USER: genes 3 Torsion [N]-C--CA-[N] |==|  0.23222
USER: genes 4 Torsion [C]-CA--CB-[CG] |==|  0.25507
USER: genes 5 Torsion [CA]-CB--CG-[CD] |==|  0.60184
USER: genes 6 Torsion [CB]-CG--CD-[OE1] |==|  0.10641
USER: genes 7 Torsion [N]-CA--C-[N] |==|  0.33889
USER: genes 8 Torsion [C]-N--CA-[CB] |==|  0.22004
USER: genes 9 Torsion [N]-CA--CB-[CG] |==|  0.05171
USER: genes 10 Torsion [CA]-CB--CG-[CD1] |==|  0.31264
USER: genes 11 Torsion [N]-CA--C-[O] |==|  0.21429
USER: genes 12 Torsion [N]-CA--CB-[CG] |==|  0.41522
USER: genes 13 Torsion [CA]-CB--CG-[OD2] |==|  0.74128
ROOT
ATOM      1  CA  ASP C 507       9.188  25.891   6.317  1.00 33.68 LIG 0.19  C 
ENDROOT
BRANCH 1 2
ATOM      2  N   ASP C 507       9.956  25.713   5.092  1.00 35.05 LIG-0.34  N 
ATOM      3  C   GLU C 506      10.380  24.521   4.689  1.00 36.98 LIG 0.26  C 
ATOM      4 O    GLU C 506      10.196  23.485   5.338  1.00 35.33 LIG-0.27  OA
ATOM      5 H    ASP C 507      10.107  26.442   4.662  1.00 35.05 LIG 0.16  HD
BRANCH 3 6
ATOM      6  CA  GLU C 506      11.177  24.502   3.385  1.00 38.62 LIG 0.40  C 
ATOM      7  N   GLU C 506      12.605  24.826   3.649  1.00 38.98 LIG 0.61  N 
BRANCH 6 8
ATOM      8  CB  GLU C 506      11.051  23.146   2.688  1.00 41.41 LIG 0.06  C 
BRANCH 8 9
ATOM      9  CG  GLU C 506       9.915  23.070   1.687  1.00 54.63 LIG 0.12  C 
BRANCH 9 10
ATOM     10  CD  GLU C 506       9.230  21.717   1.668  1.00 71.07 LIG 0.17  C 
ATOM     11 OE1  GLU C 506       9.059  21.113   2.752  1.00 74.77 LIG-0.65  OA
ATOM     12 OE2  GLU C 506       8.849  21.267   0.563  1.00 73.38 LIG-0.65  OA
ENDBRANCH 9 10
ENDBRANCH 8 9
ENDBRANCH 6 8
ENDBRANCH 3 6
ENDBRANCH 1 2
BRANCH 1 13
ATOM     13  C   ASP C 507       7.976  26.754   6.014  1.00 33.47 LIG 0.24  C 
ATOM     14 O    ASP C 507       8.106  27.869   5.503  1.00 34.83 LIG-0.27  OA
ATOM     15  N   LEU C 508       6.797  26.204   6.291  1.00 31.65 LIG-0.34  N 
ATOM     16 H    LEU C 508       6.706  25.422   6.638  1.00 31.65 LIG 0.16  HD
BRANCH 15 17
ATOM     17  CA  LEU C 508       5.541  26.889   6.026  1.00 32.20 LIG 0.18  C 
BRANCH 17 18
ATOM     18  CB  LEU C 508       5.206  26.766   4.546  1.00 32.28 LIG 0.04  C 
BRANCH 18 19
ATOM     19  CG  LEU C 508       6.008  25.618   3.941  1.00 33.09 LIG-0.02  C 
ATOM     20  CD1 LEU C 508       5.096  24.500   3.540  1.00 32.61 LIG 0.01  C 
ATOM     21  CD2 LEU C 508       6.847  26.135   2.781  1.00 34.13 LIG 0.01  C 
ENDBRANCH 18 19
ENDBRANCH 17 18
BRANCH 17 22
ATOM     22  C   LEU C 508       4.390  26.368   6.867  1.00 33.63 LIG 0.20  C 
ATOM     23 O    LEU C 508       4.326  26.726   8.063  0.50 32.81 LIG-0.65  OA
ATOM     24 OXT  LEU C 508       3.564  25.607   6.324  0.50 35.17 LIG-0.65  OA
ENDBRANCH 17 22
ENDBRANCH 15 17
ENDBRANCH 1 13
BRANCH 1 25
ATOM     25  CB  ASP C 507      10.069  26.524   7.391  1.00 31.02 LIG 0.15  C 
BRANCH 25 26
ATOM     26  CG  ASP C 507       9.270  27.386   8.346  1.00 34.22 LIG 0.17  C 
ATOM     27 OD2  ASP C 507       9.159  28.612   8.120  1.00 32.29 LIG-0.65  OA
ATOM     28 OD1  ASP C 507       8.786  26.835   9.353  1.00 33.73 LIG-0.65  OA
ENDBRANCH 25 26
ENDBRANCH 1 25
TORSDOF 12
ENDMDL
MODEL 12
USER: ADFR SOLUTION from run 9
USER: SCORE 11.628980 LL:  -2.063 LR:  -9.787 RR:   0.000 FEB:  -6.207
USER: RMSD 2.974498
USER: SEED 85231
USER: STATUS no improvement in best in 18 clusters for 5 generations
USER: GENES 14
USER: genes 0 Translation |==|  0.50299 0.54736 0.61980
USER: genes 1 Rotation |==|  0.41149 0.58835 0.39311 0.97216
USER: genes 2 Torsion [C]-CA--N-[C] |==|  0.61793
USER: genes 3 Torsion [N]-C--CA-[N] |==|  0.35165
USER: genes 4 Torsion [C]-CA--CB-[CG] |==|  0.42872
USER: genes 5 Torsion [CA]-CB--CG-[CD] |==|  0.88038
USER: genes 6 Torsion [CB]-CG--CD-[OE1] |==|  0.19993
USER: genes 7 Torsion [N]-CA--C-[N] |==|  0.36221
USER: genes 8 Torsion [C]-N--CA-[CB] |==|  0.47935
USER: genes 9 Torsion [N]-CA--CB-[CG] |==|  0.77830
USER: genes 10 Torsion [CA]-CB--CG-[CD1] |==|  0.34650
USER: genes 11 Torsion [N]-CA--C-[O] |==|  0.47880
USER: genes 12 Torsion [N]-CA--CB-[CG] |==|  0.94860
USER: genes 13 Torsion [CA]-CB--CG-[OD2] |==|  0.28544
ROOT
ATOM      1  CA  ASP C 507       9.275  25.946   6.755  1.00 33.68 LIG 0.19  C 
ENDROOT
BRANCH 1 2
ATOM      2  N   ASP C 507       7.867  26.307   6.853  1.00 35.05 LIG-0.34  N 
ATOM      3  C   GLU C 506       7.364  27.372   6.242  1.00 36.98 LIG 0.26  C 
ATOM      4 O    GLU C 506       8.053  28.161   5.585  1.00 35.33 LIG-0.27  OA
ATOM      5 H    ASP C 507       7.401  25.771   7.338  1.00 35.05 LIG 0.16  HD
BRANCH 3 6
ATOM      6  CA  GLU C 506       5.870  27.616   6.448  1.00 38.62 LIG 0.40  C 
ATOM      7  N   GLU C 506       5.635  29.000   6.941  1.00 38.98 LIG 0.61  N 
BRANCH 6 8
ATOM      8  CB  GLU C 506       5.092  27.365   5.154  1.00 41.41 LIG 0.06  C 
BRANCH 8 9
ATOM      9  CG  GLU C 506       3.642  26.980   5.372  1.00 54.63 LIG 0.12  C 
BRANCH 9 10
ATOM     10  CD  GLU C 506       3.455  25.977   6.494  1.00 71.07 LIG 0.17  C 
ATOM     11 OE1  GLU C 506       3.611  26.362   7.676  1.00 74.77 LIG-0.65  OA
ATOM     12 OE2  GLU C 506       3.137  24.806   6.188  1.00 73.38 LIG-0.65  OA
ENDBRANCH 9 10
ENDBRANCH 8 9
ENDBRANCH 6 8
ENDBRANCH 3 6
ENDBRANCH 1 2
BRANCH 1 13
ATOM     13  C   ASP C 507       9.385  24.444   6.561  1.00 33.47 LIG 0.24  C 
ATOM     14 O    ASP C 507       8.744  23.668   7.273  1.00 34.83 LIG-0.27  OA
ATOM     15  N   LEU C 508      10.167  24.051   5.560  1.00 31.65 LIG-0.34  N 
ATOM     16 H    LEU C 508      10.608  24.593   5.057  1.00 31.65 LIG 0.16  HD
BRANCH 15 17
ATOM     17  CA  LEU C 508      10.349  22.647   5.224  1.00 32.20 LIG 0.18  C 
BRANCH 17 18
ATOM     18  CB  LEU C 508      11.146  22.541   3.931  1.00 32.28 LIG 0.04  C 
BRANCH 18 19
ATOM     19  CG  LEU C 508      10.218  22.783   2.745  1.00 33.09 LIG-0.02  C 
ATOM     20  CD1 LEU C 508      10.747  23.892   1.887  1.00 32.61 LIG 0.01  C 
ATOM     21  CD2 LEU C 508      10.025  21.486   1.973  1.00 34.13 LIG 0.01  C 
ENDBRANCH 18 19
ENDBRANCH 17 18
BRANCH 17 22
ATOM     22  C   LEU C 508      11.030  21.854   6.324  1.00 33.63 LIG 0.20  C 
ATOM     23 O    LEU C 508      11.102  20.613   6.196  0.50 32.81 LIG-0.65  OA
ATOM     24 OXT  LEU C 508      11.483  22.481   7.304  0.50 35.17 LIG-0.65  OA
ENDBRANCH 17 22
ENDBRANCH 15 17
ENDBRANCH 1 13
BRANCH 1 25
ATOM     25  CB  ASP C 507      10.014  26.403   8.010  1.00 31.02 LIG 0.15  C 
BRANCH 25 26
ATOM     26  CG  ASP C 507       9.239  27.459   8.772  1.00 34.22 LIG 0.17  C 
ATOM     27 OD2  ASP C 507       8.616  27.134   9.808  1.00 32.29 LIG-0.65  OA
ATOM     28 OD1  ASP C 507       9.220  28.612   8.303  1.00 33.73 LIG-0.65  OA
ENDBRANCH 25 26
ENDBRANCH 1 25
TORSDOF 12
ENDMDL
MODEL 13
USER: ADFR SOLUTION from run 13
USER: SCORE 10.962278 LL:  -1.299 LR:  -9.764 RR:   0.000 FEB:  -6.184
USER: RMSD 5.963910
USER: SEED 616694
USER: STATUS no improvement in best in 16 clusters for 5 generations
USER: GENES 14
USER: genes 0 Translation |==|  0.53013 0.41266 0.57082
USER: genes 1 Rotation |==|  0.69676 0.39502 0.94185 0.57096
USER: genes 2 Torsion [C]-CA--N-[C] |==|  0.79650
USER: genes 3 Torsion [N]-C--CA-[N] |==|  0.95721
USER: genes 4 Torsion [C]-CA--CB-[CG] |==|  0.88834
USER: genes 5 Torsion [CA]-CB--CG-[CD] |==|  0.32243
USER: genes 6 Torsion [CB]-CG--CD-[OE1] |==|  0.25297
USER: genes 7 Torsion [N]-CA--C-[N] |==|  0.33334
USER: genes 8 Torsion [C]-N--CA-[CB] |==|  0.76215
USER: genes 9 Torsion [N]-CA--CB-[CG] |==|  0.03192
USER: genes 10 Torsion [CA]-CB--CG-[CD1] |==|  0.37024
USER: genes 11 Torsion [N]-CA--C-[O] |==|  0.16888
USER: genes 12 Torsion [N]-CA--CB-[CG] |==|  0.84706
USER: genes 13 Torsion [CA]-CB--CG-[OD2] |==|  0.99262
ROOT
ATOM      1  CA  ASP C 507       9.744  23.926   5.910  1.00 33.68 LIG 0.19  C 
ENDROOT
BRANCH 1 2
ATOM      2  N   ASP C 507      10.481  24.187   4.681  1.00 35.05 LIG-0.34  N 
ATOM      3  C   GLU C 506       9.887  24.621   3.576  1.00 36.98 LIG 0.26  C 
ATOM      4 O    GLU C 506       8.666  24.793   3.491  1.00 35.33 LIG-0.27  OA
ATOM      5 H    ASP C 507      11.326  24.036   4.739  1.00 35.05 LIG 0.16  HD
BRANCH 3 6
ATOM      6  CA  GLU C 506      10.799  24.843   2.371  1.00 38.62 LIG 0.40  C 
ATOM      7  N   GLU C 506      12.224  24.873   2.800  1.00 38.98 LIG 0.61  N 
BRANCH 6 8
ATOM      8  CB  GLU C 506      10.579  23.759   1.313  1.00 41.41 LIG 0.06  C 
BRANCH 8 9
ATOM      9  CG  GLU C 506      10.386  22.368   1.886  1.00 54.63 LIG 0.12  C 
BRANCH 9 10
ATOM     10  CD  GLU C 506       9.012  21.794   1.600  1.00 71.07 LIG 0.17  C 
ATOM     11 OE1  GLU C 506       8.849  21.111   0.563  1.00 74.77 LIG-0.65  OA
ATOM     12 OE2  GLU C 506       8.099  22.015   2.428  1.00 73.38 LIG-0.65  OA
ENDBRANCH 9 10
ENDBRANCH 8 9
ENDBRANCH 6 8
ENDBRANCH 3 6
ENDBRANCH 1 2
BRANCH 1 13
ATOM     13  C   ASP C 507       9.350  25.251   6.537  1.00 33.47 LIG 0.24  C 
ATOM     14 O    ASP C 507      10.205  26.088   6.835  1.00 34.83 LIG-0.27  OA
ATOM     15  N   LEU C 508       8.043  25.448   6.687  1.00 31.65 LIG-0.34  N 
ATOM     16 H    LEU C 508       7.445  24.869   6.470  1.00 31.65 LIG 0.16  HD
BRANCH 15 17
ATOM     17  CA  LEU C 508       7.503  26.681   7.240  1.00 32.20 LIG 0.18  C 
BRANCH 17 18
ATOM     18  CB  LEU C 508       7.486  26.583   8.759  1.00 32.28 LIG 0.04  C 
BRANCH 18 19
ATOM     19  CG  LEU C 508       8.293  25.365   9.195  1.00 33.09 LIG-0.02  C 
ATOM     20  CD1 LEU C 508       9.223  25.729  10.313  1.00 32.61 LIG 0.01  C 
ATOM     21  CD2 LEU C 508       7.349  24.230   9.563  1.00 34.13 LIG 0.01  C 
ENDBRANCH 18 19
ENDBRANCH 17 18
BRANCH 17 22
ATOM     22  C   LEU C 508       8.271  27.916   6.804  1.00 33.63 LIG 0.20  C 
ATOM     23 O    LEU C 508       8.324  28.175   5.583  0.50 32.81 LIG-0.65  OA
ATOM     24 OXT  LEU C 508       8.814  28.611   7.687  0.50 35.17 LIG-0.65  OA
ENDBRANCH 17 22
ENDBRANCH 15 17
ENDBRANCH 1 13
BRANCH 1 25
ATOM     25  CB  ASP C 507      10.601  23.092   6.859  1.00 31.02 LIG 0.15  C 
BRANCH 25 26
ATOM     26  CG  ASP C 507      11.087  21.813   6.208  1.00 34.22 LIG 0.17  C 
ATOM     27 OD2  ASP C 507      10.724  21.541   5.041  1.00 32.29 LIG-0.65  OA
ATOM     28 OD1  ASP C 507      11.803  21.056   6.889  1.00 33.73 LIG-0.65  OA
ENDBRANCH 25 26
ENDBRANCH 1 25
TORSDOF 12
ENDMDL
MODEL 14
USER: ADFR SOLUTION from run 132
USER: SCORE 11.730323 LL:  -2.188 LR:  -9.760 RR:   0.000 FEB:  -6.180
USER: RMSD 6.113314
USER: SEED 131
USER: STATUS no improvement in best in 23 clusters for 5 generations
USER: GENES 14
USER: genes 0 Translation |==|  0.31053 0.61445 0.52283
USER: genes 1 Rotation |==|  0.03740 0.67121 0.51395 0.58056
USER: genes 2 Torsion [C]-CA--N-[C] |==|  0.75949
USER: genes 3 Torsion [N]-C--CA-[N] |==|  0.68590
USER: genes 4 Torsion [C]-CA--CB-[CG] |==|  0.63216
USER: genes 5 Torsion [CA]-CB--CG-[CD] |==|  0.81277
USER: genes 6 Torsion [CB]-CG--CD-[OE1] |==|  0.04480
USER: genes 7 Torsion [N]-CA--C-[N] |==|  0.25166
USER: genes 8 Torsion [C]-N--CA-[CB] |==|  0.85374
USER: genes 9 Torsion [N]-CA--CB-[CG] |==|  0.64268
USER: genes 10 Torsion [CA]-CB--CG-[CD1] |==|  0.18530
USER: genes 11 Torsion [N]-CA--C-[O] |==|  0.80301
USER: genes 12 Torsion [N]-CA--CB-[CG] |==|  0.78624
USER: genes 13 Torsion [CA]-CB--CG-[OD2] |==|  0.97182
ROOT
ATOM      1  CA  ASP C 507       5.956  26.953   5.082  1.00 33.68 LIG 0.19  C 
ENDROOT
BRANCH 1 2
ATOM      2  N   ASP C 507       5.013  27.846   5.742  1.00 35.05 LIG-0.34  N 
ATOM      3  C   GLU C 506       4.330  27.483   6.821  1.00 36.98 LIG 0.26  C 
ATOM      4 O    GLU C 506       4.404  26.354   7.318  1.00 35.33 LIG-0.27  OA
ATOM      5 H    ASP C 507       4.943  28.619   5.372  1.00 35.05 LIG 0.16  HD
BRANCH 3 6
ATOM      6  CA  GLU C 506       3.378  28.533   7.391  1.00 38.62 LIG 0.40  C 
ATOM      7  N   GLU C 506       3.851  28.988   8.727  1.00 38.98 LIG 0.61  N 
BRANCH 6 8
ATOM      8  CB  GLU C 506       3.240  29.721   6.436  1.00 41.41 LIG 0.06  C 
BRANCH 8 9
ATOM      9  CG  GLU C 506       3.380  31.073   7.109  1.00 54.63 LIG 0.12  C 
BRANCH 9 10
ATOM     10  CD  GLU C 506       2.241  31.384   8.059  1.00 71.07 LIG 0.17  C 
ATOM     11 OE1  GLU C 506       1.499  30.448   8.438  1.00 74.77 LIG-0.65  OA
ATOM     12 OE2  GLU C 506       2.099  32.569   8.438  1.00 73.38 LIG-0.65  OA
ENDBRANCH 9 10
ENDBRANCH 8 9
ENDBRANCH 6 8
ENDBRANCH 3 6
ENDBRANCH 1 2
BRANCH 1 13
ATOM     13  C   ASP C 507       7.311  27.087   5.753  1.00 33.47 LIG 0.24  C 
ATOM     14 O    ASP C 507       8.113  27.951   5.390  1.00 34.83 LIG-0.27  OA
ATOM     15  N   LEU C 508       7.535  26.253   6.765  1.00 31.65 LIG-0.34  N 
ATOM     16 H    LEU C 508       6.972  25.656   7.024  1.00 31.65 LIG 0.16  HD
BRANCH 15 17
ATOM     17  CA  LEU C 508       8.770  26.280   7.532  1.00 32.20 LIG 0.18  C 
BRANCH 17 18
ATOM     18  CB  LEU C 508       9.954  26.191   6.578  1.00 32.28 LIG 0.04  C 
BRANCH 18 19
ATOM     19  CG  LEU C 508      10.888  25.076   7.035  1.00 33.09 LIG-0.02  C 
ATOM     20  CD1 LEU C 508      10.219  23.743   6.889  1.00 32.61 LIG 0.01  C 
ATOM     21  CD2 LEU C 508      12.200  25.160   6.268  1.00 34.13 LIG 0.01  C 
ENDBRANCH 18 19
ENDBRANCH 17 18
BRANCH 17 22
ATOM     22  C   LEU C 508       8.899  27.509   8.413  1.00 33.63 LIG 0.20  C 
ATOM     23 O    LEU C 508       9.101  28.611   7.859  0.50 32.81 LIG-0.65  OA
ATOM     24 OXT  LEU C 508       8.798  27.359   9.648  0.50 35.17 LIG-0.65  OA
ENDBRANCH 17 22
ENDBRANCH 15 17
ENDBRANCH 1 13
BRANCH 1 25
ATOM     25  CB  ASP C 507       6.032  27.291   3.595  1.00 31.02 LIG 0.15  C 
BRANCH 25 26
ATOM     26  CG  ASP C 507       4.834  26.766   2.831  1.00 34.22 LIG 0.17  C 
ATOM     27 OD2  ASP C 507       4.041  25.981   3.398  1.00 32.29 LIG-0.65  OA
ATOM     28 OD1  ASP C 507       4.714  27.110   1.640  1.00 33.73 LIG-0.65  OA
ENDBRANCH 25 26
ENDBRANCH 1 25
TORSDOF 12
ENDMDL
MODEL 15
USER: ADFR SOLUTION from run 13
USER: SCORE 11.342704 LL:  -2.125 LR:  -9.749 RR:   0.000 FEB:  -6.170
USER: RMSD 4.845784
USER: SEED 616694
USER: STATUS no improvement in best in 16 clusters for 5 generations
USER: GENES 14
USER: genes 0 Translation |==|  0.38893 0.51905 0.47265
USER: genes 1 Rotation |==|  0.09638 0.71903 0.59103 0.67558
USER: genes 2 Torsion [C]-CA--N-[C] |==|  0.18288
USER: genes 3 Torsion [N]-C--CA-[N] |==|  0.67233
USER: genes 4 Torsion [C]-CA--CB-[CG] |==|  0.64826
USER: genes 5 Torsion [CA]-CB--CG-[CD] |==|  0.39150
USER: genes 6 Torsion [CB]-CG--CD-[OE1] |==|  0.44484
USER: genes 7 Torsion [N]-CA--C-[N] |==|  0.16575
USER: genes 8 Torsion [C]-N--CA-[CB] |==|  0.34571
USER: genes 9 Torsion [N]-CA--CB-[CG] |==|  0.73909
USER: genes 10 Torsion [CA]-CB--CG-[CD1] |==|  0.92871
USER: genes 11 Torsion [N]-CA--C-[O] |==|  0.64489
USER: genes 12 Torsion [N]-CA--CB-[CG] |==|  0.82153
USER: genes 13 Torsion [CA]-CB--CG-[OD2] |==|  0.62720
ROOT
ATOM      1  CA  ASP C 507       7.308  25.522   4.216  1.00 33.68 LIG 0.19  C 
ENDROOT
BRANCH 1 2
ATOM      2  N   ASP C 507       6.721  26.116   5.410  1.00 35.05 LIG-0.34  N 
ATOM      3  C   GLU C 506       7.173  27.249   5.932  1.00 36.98 LIG 0.26  C 
ATOM      4 O    GLU C 506       8.146  27.861   5.478  1.00 35.33 LIG-0.27  OA
ATOM      5 H    ASP C 507       6.065  25.668   5.739  1.00 35.05 LIG 0.16  HD
BRANCH 3 6
ATOM      6  CA  GLU C 506       6.453  27.738   7.188  1.00 38.62 LIG 0.40  C 
ATOM      7  N   GLU C 506       5.816  29.059   6.938  1.00 38.98 LIG 0.61  N 
BRANCH 6 8
ATOM      8  CB  GLU C 506       5.410  26.717   7.652  1.00 41.41 LIG 0.06  C 
BRANCH 8 9
ATOM      9  CG  GLU C 506       4.021  27.296   7.837  1.00 54.63 LIG 0.12  C 
BRANCH 9 10
ATOM     10  CD  GLU C 506       2.922  26.361   7.372  1.00 71.07 LIG 0.17  C 
ATOM     11 OE1  GLU C 506       1.758  26.540   7.801  1.00 74.77 LIG-0.65  OA
ATOM     12 OE2  GLU C 506       3.224  25.455   6.563  1.00 73.38 LIG-0.65  OA
ENDBRANCH 9 10
ENDBRANCH 8 9
ENDBRANCH 6 8
ENDBRANCH 3 6
ENDBRANCH 1 2
BRANCH 1 13
ATOM     13  C   ASP C 507       8.728  25.087   4.532  1.00 33.47 LIG 0.24  C 
ATOM     14 O    ASP C 507       9.687  25.581   3.934  1.00 34.83 LIG-0.27  OA
ATOM     15  N   LEU C 508       8.850  24.194   5.510  1.00 31.65 LIG-0.34  N 
ATOM     16 H    LEU C 508       8.182  23.857   5.934  1.00 31.65 LIG 0.16  HD
BRANCH 15 17
ATOM     17  CA  LEU C 508      10.146  23.704   5.954  1.00 32.20 LIG 0.18  C 
BRANCH 17 18
ATOM     18  CB  LEU C 508      10.284  23.940   7.452  1.00 32.28 LIG 0.04  C 
BRANCH 18 19
ATOM     19  CG  LEU C 508      10.996  25.268   7.690  1.00 33.09 LIG-0.02  C 
ATOM     20  CD1 LEU C 508      11.862  25.612   6.516  1.00 32.61 LIG 0.01  C 
ATOM     21  CD2 LEU C 508       9.972  26.350   8.001  1.00 34.13 LIG 0.01  C 
ENDBRANCH 18 19
ENDBRANCH 17 18
BRANCH 17 22
ATOM     22  C   LEU C 508      10.370  22.237   5.634  1.00 33.63 LIG 0.20  C 
ATOM     23 O    LEU C 508      10.722  21.479   6.563  0.50 32.81 LIG-0.65  OA
ATOM     24 OXT  LEU C 508      10.192  21.860   4.457  0.50 35.17 LIG-0.65  OA
ENDBRANCH 17 22
ENDBRANCH 15 17
ENDBRANCH 1 13
BRANCH 1 25
ATOM     25  CB  ASP C 507       7.274  26.528   3.069  1.00 31.02 LIG 0.15  C 
BRANCH 25 26
ATOM     26  CG  ASP C 507       5.857  26.880   2.665  1.00 34.22 LIG 0.17  C 
ATOM     27 OD2  ASP C 507       5.553  26.904   1.450  1.00 32.29 LIG-0.65  OA
ATOM     28 OD1  ASP C 507       5.055  27.176   3.570  1.00 33.73 LIG-0.65  OA
ENDBRANCH 25 26
ENDBRANCH 1 25
TORSDOF 12
ENDMDL
MODEL 16
USER: ADFR SOLUTION from run 5
USER: SCORE 11.567585 LL:  -2.022 LR:  -9.733 RR:   0.000 FEB:  -6.153
USER: RMSD 5.530949
USER: SEED 301202
USER: STATUS no improvement in best in 17 clusters for 5 generations
USER: GENES 14
USER: genes 0 Translation |==|  0.46312 0.55572 0.55008
USER: genes 1 Rotation |==|  0.54752 0.19187 0.10914 0.50549
USER: genes 2 Torsion [C]-CA--N-[C] |==|  0.71936
USER: genes 3 Torsion [N]-C--CA-[N] |==|  0.31959
USER: genes 4 Torsion [C]-CA--CB-[CG] |==|  0.78111
USER: genes 5 Torsion [CA]-CB--CG-[CD] |==|  0.27010
USER: genes 6 Torsion [CB]-CG--CD-[OE1] |==|  0.64760
USER: genes 7 Torsion [N]-CA--C-[N] |==|  0.94029
USER: genes 8 Torsion [C]-N--CA-[CB] |==|  0.82287
USER: genes 9 Torsion [N]-CA--CB-[CG] |==|  0.84272
USER: genes 10 Torsion [CA]-CB--CG-[CD1] |==|  0.55799
USER: genes 11 Torsion [N]-CA--C-[O] |==|  0.17225
USER: genes 12 Torsion [N]-CA--CB-[CG] |==|  0.78463
USER: genes 13 Torsion [CA]-CB--CG-[OD2] |==|  0.34500
ROOT
ATOM      1  CA  ASP C 507       8.588  26.072   5.552  1.00 33.68 LIG 0.19  C 
ENDROOT
BRANCH 1 2
ATOM      2  N   ASP C 507      10.033  25.928   5.442  1.00 35.05 LIG-0.34  N 
ATOM      3  C   GLU C 506      10.675  24.857   5.893  1.00 36.98 LIG 0.26  C 
ATOM      4 O    GLU C 506      10.108  23.927   6.477  1.00 35.33 LIG-0.27  OA
ATOM      5 H    ASP C 507      10.425  26.593   5.063  1.00 35.05 LIG 0.16  HD
BRANCH 3 6
ATOM      6  CA  GLU C 506      12.191  24.861   5.706  1.00 38.62 LIG 0.40  C 
ATOM      7  N   GLU C 506      12.875  24.888   7.028  1.00 38.98 LIG 0.61  N 
BRANCH 6 8
ATOM      8  CB  GLU C 506      12.644  23.647   4.891  1.00 41.41 LIG 0.06  C 
BRANCH 8 9
ATOM      9  CG  GLU C 506      12.714  22.360   5.688  1.00 54.63 LIG 0.12  C 
BRANCH 9 10
ATOM     10  CD  GLU C 506      11.478  21.496   5.532  1.00 71.07 LIG 0.17  C 
ATOM     11 OE1  GLU C 506      10.880  21.110   6.563  1.00 74.77 LIG-0.65  OA
ATOM     12 OE2  GLU C 506      11.099  21.217   4.372  1.00 73.38 LIG-0.65  OA
ENDBRANCH 9 10
ENDBRANCH 8 9
ENDBRANCH 6 8
ENDBRANCH 3 6
ENDBRANCH 1 2
BRANCH 1 13
ATOM     13  C   ASP C 507       7.959  25.743   4.210  1.00 33.47 LIG 0.24  C 
ATOM     14 O    ASP C 507       6.764  25.450   4.127  1.00 34.83 LIG-0.27  OA
ATOM     15  N   LEU C 508       8.767  25.841   3.158  1.00 31.65 LIG-0.34  N 
ATOM     16 H    LEU C 508       9.599  26.055   3.214  1.00 31.65 LIG 0.16  HD
BRANCH 15 17
ATOM     17  CA  LEU C 508       8.307  25.593   1.800  1.00 32.20 LIG 0.18  C 
BRANCH 17 18
ATOM     18  CB  LEU C 508       7.877  24.138   1.676  1.00 32.28 LIG 0.04  C 
BRANCH 18 19
ATOM     19  CG  LEU C 508       9.039  23.233   2.072  1.00 33.09 LIG-0.02  C 
ATOM     20  CD1 LEU C 508       8.849  21.861   1.499  1.00 32.61 LIG 0.01  C 
ATOM     21  CD2 LEU C 508      10.353  23.869   1.645  1.00 34.13 LIG 0.01  C 
ENDBRANCH 18 19
ENDBRANCH 17 18
BRANCH 17 22
ATOM     22  C   LEU C 508       7.175  26.511   1.378  1.00 33.63 LIG 0.20  C 
ATOM     23 O    LEU C 508       7.397  27.740   1.340  0.50 32.81 LIG-0.65  OA
ATOM     24 OXT  LEU C 508       6.076  25.992   1.090  0.50 35.17 LIG-0.65  OA
ENDBRANCH 17 22
ENDBRANCH 15 17
ENDBRANCH 1 13
BRANCH 1 25
ATOM     25  CB  ASP C 507       8.243  27.491   5.998  1.00 31.02 LIG 0.15  C 
BRANCH 25 26
ATOM     26  CG  ASP C 507       8.470  27.690   7.482  1.00 34.22 LIG 0.17  C 
ATOM     27 OD2  ASP C 507       9.224  28.611   7.870  1.00 32.29 LIG-0.65  OA
ATOM     28 OD1  ASP C 507       7.922  26.889   8.262  1.00 33.73 LIG-0.65  OA
ENDBRANCH 25 26
ENDBRANCH 1 25
TORSDOF 12
ENDMDL
MODEL 17
USER: ADFR SOLUTION from run 177
USER: SCORE 11.404217 LL:  -2.123 LR:  -9.669 RR:   0.000 FEB:  -6.089
USER: RMSD 5.760957
USER: SEED 176
USER: STATUS no improvement in best in 19 clusters for 5 generations
USER: GENES 14
USER: genes 0 Translation |==|  0.46177 0.55605 0.55586
USER: genes 1 Rotation |==|  0.49271 0.79109 0.90646 0.50197
USER: genes 2 Torsion [C]-CA--N-[C] |==|  0.69449
USER: genes 3 Torsion [N]-C--CA-[N] |==|  0.11022
USER: genes 4 Torsion [C]-CA--CB-[CG] |==|  0.27106
USER: genes 5 Torsion [CA]-CB--CG-[CD] |==|  0.80154
USER: genes 6 Torsion [CB]-CG--CD-[OE1] |==|  0.26319
USER: genes 7 Torsion [N]-CA--C-[N] |==|  0.25706
USER: genes 8 Torsion [C]-N--CA-[CB] |==|  0.27062
USER: genes 9 Torsion [N]-CA--CB-[CG] |==|  0.04679
USER: genes 10 Torsion [CA]-CB--CG-[CD1] |==|  0.36684
USER: genes 11 Torsion [N]-CA--C-[O] |==|  0.86937
USER: genes 12 Torsion [N]-CA--CB-[CG] |==|  0.82321
USER: genes 13 Torsion [CA]-CB--CG-[OD2] |==|  0.97704
ROOT
ATOM      1  CA  ASP C 507       8.564  26.077   5.652  1.00 33.68 LIG 0.19  C 
ENDROOT
BRANCH 1 2
ATOM      2  N   ASP C 507       9.961  25.785   5.359  1.00 35.05 LIG-0.34  N 
ATOM      3  C   GLU C 506      10.560  24.682   5.789  1.00 36.98 LIG 0.26  C 
ATOM      4 O    GLU C 506       9.998  23.845   6.504  1.00 35.33 LIG-0.27  OA
ATOM      5 H    ASP C 507      10.355  26.387   4.887  1.00 35.05 LIG 0.16  HD
BRANCH 3 6
ATOM      6  CA  GLU C 506      12.030  24.526   5.401  1.00 38.62 LIG 0.40  C 
ATOM      7  N   GLU C 506      12.731  25.834   5.496  1.00 38.98 LIG 0.61  N 
BRANCH 6 8
ATOM      8  CB  GLU C 506      12.719  23.480   6.281  1.00 41.41 LIG 0.06  C 
BRANCH 8 9
ATOM      9  CG  GLU C 506      12.812  22.106   5.648  1.00 54.63 LIG 0.12  C 
BRANCH 9 10
ATOM     10  CD  GLU C 506      11.474  21.396   5.568  1.00 71.07 LIG 0.17  C 
ATOM     11 OE1  GLU C 506      10.808  21.486   4.511  1.00 74.77 LIG-0.65  OA
ATOM     12 OE2  GLU C 506      11.099  20.736   6.563  1.00 73.38 LIG-0.65  OA
ENDBRANCH 9 10
ENDBRANCH 8 9
ENDBRANCH 6 8
ENDBRANCH 3 6
ENDBRANCH 1 2
BRANCH 1 13
ATOM     13  C   ASP C 507       7.759  25.954   4.371  1.00 33.47 LIG 0.24  C 
ATOM     14 O    ASP C 507       7.668  26.903   3.588  1.00 34.83 LIG-0.27  OA
ATOM     15  N   LEU C 508       7.217  24.760   4.147  1.00 31.65 LIG-0.34  N 
ATOM     16 H    LEU C 508       7.288  24.095   4.688  1.00 31.65 LIG 0.16  HD
BRANCH 15 17
ATOM     17  CA  LEU C 508       6.445  24.472   2.947  1.00 32.20 LIG 0.18  C 
BRANCH 17 18
ATOM     18  CB  LEU C 508       7.343  23.783   1.928  1.00 32.28 LIG 0.04  C 
BRANCH 18 19
ATOM     19  CG  LEU C 508       8.590  23.256   2.629  1.00 33.09 LIG-0.02  C 
ATOM     20  CD1 LEU C 508       8.849  21.834   2.232  1.00 32.61 LIG 0.01  C 
ATOM     21  CD2 LEU C 508       9.770  24.171   2.333  1.00 34.13 LIG 0.01  C 
ENDBRANCH 18 19
ENDBRANCH 17 18
BRANCH 17 22
ATOM     22  C   LEU C 508       5.216  23.623   3.219  1.00 33.63 LIG 0.20  C 
ATOM     23 O    LEU C 508       5.349  22.609   3.937  0.50 32.81 LIG-0.65  OA
ATOM     24 OXT  LEU C 508       4.133  23.980   2.712  0.50 35.17 LIG-0.65  OA
ENDBRANCH 17 22
ENDBRANCH 15 17
ENDBRANCH 1 13
BRANCH 1 25
ATOM     25  CB  ASP C 507       8.445  27.474   6.255  1.00 31.02 LIG 0.15  C 
BRANCH 25 26
ATOM     26  CG  ASP C 507       9.158  27.580   7.587  1.00 34.22 LIG 0.17  C 
ATOM     27 OD2  ASP C 507       9.613  26.544   8.124  1.00 32.29 LIG-0.65  OA
ATOM     28 OD1  ASP C 507       9.224  28.703   8.119  1.00 33.73 LIG-0.65  OA
ENDBRANCH 25 26
ENDBRANCH 1 25
TORSDOF 12
ENDMDL
MODEL 18
USER: ADFR SOLUTION from run 103
USER: SCORE 11.884953 LL:  -2.349 LR:  -9.669 RR:   0.000 FEB:  -6.090
USER: RMSD 4.133928
USER: SEED 102
USER: STATUS no improvement in best in 29 clusters for 5 generations
USER: GENES 14
USER: genes 0 Translation |==|  0.53146 0.53922 0.61816
USER: genes 1 Rotation |==|  0.34890 0.57880 0.44162 0.96642
USER: genes 2 Torsion [C]-CA--N-[C] |==|  0.56503
USER: genes 3 Torsion [N]-C--CA-[N] |==|  0.28571
USER: genes 4 Torsion [C]-CA--CB-[CG] |==|  0.49014
USER: genes 5 Torsion [CA]-CB--CG-[CD] |==|  0.92633
USER: genes 6 Torsion [CB]-CG--CD-[OE1] |==|  0.73598
USER: genes 7 Torsion [N]-CA--C-[N] |==|  0.45035
USER: genes 8 Torsion [C]-N--CA-[CB] |==|  0.79116
USER: genes 9 Torsion [N]-CA--CB-[CG] |==|  0.84017
USER: genes 10 Torsion [CA]-CB--CG-[CD1] |==|  0.48208
USER: genes 11 Torsion [N]-CA--C-[O] |==|  0.66374
USER: genes 12 Torsion [N]-CA--CB-[CG] |==|  0.99381
USER: genes 13 Torsion [CA]-CB--CG-[OD2] |==|  0.71866
ROOT
ATOM      1  CA  ASP C 507       9.767  25.824   6.726  1.00 33.68 LIG 0.19  C 
ENDROOT
BRANCH 1 2
ATOM      2  N   ASP C 507       8.317  25.878   6.861  1.00 35.05 LIG-0.34  N 
ATOM      3  C   GLU C 506       7.597  26.881   6.373  1.00 36.98 LIG 0.26  C 
ATOM      4 O    GLU C 506       8.099  27.861   5.811  1.00 35.33 LIG-0.27  OA
ATOM      5 H    ASP C 507       7.978  25.208   7.280  1.00 35.05 LIG 0.16  HD
BRANCH 3 6
ATOM      6  CA  GLU C 506       6.089  26.791   6.601  1.00 38.62 LIG 0.40  C 
ATOM      7  N   GLU C 506       5.678  27.701   7.704  1.00 38.98 LIG 0.61  N 
BRANCH 6 8
ATOM      8  CB  GLU C 506       5.322  27.120   5.318  1.00 41.41 LIG 0.06  C 
BRANCH 8 9
ATOM      9  CG  GLU C 506       3.819  26.969   5.442  1.00 54.63 LIG 0.12  C 
BRANCH 9 10
ATOM     10  CD  GLU C 506       3.408  25.967   6.503  1.00 71.07 LIG 0.17  C 
ATOM     11 OE1  GLU C 506       3.170  24.787   6.155  1.00 74.77 LIG-0.65  OA
ATOM     12 OE2  GLU C 506       3.338  26.361   7.689  1.00 73.38 LIG-0.65  OA
ENDBRANCH 9 10
ENDBRANCH 8 9
ENDBRANCH 6 8
ENDBRANCH 3 6
ENDBRANCH 1 2
BRANCH 1 13
ATOM     13  C   ASP C 507      10.216  24.378   6.837  1.00 33.47 LIG 0.24  C 
ATOM     14 O    ASP C 507       9.461  23.515   7.290  1.00 34.83 LIG-0.27  OA
ATOM     15  N   LEU C 508      11.436  24.120   6.375  1.00 31.65 LIG-0.34  N 
ATOM     16 H    LEU C 508      11.960  24.721   6.050  1.00 31.65 LIG 0.16  HD
BRANCH 15 17
ATOM     17  CA  LEU C 508      11.999  22.778   6.378  1.00 32.20 LIG 0.18  C 
BRANCH 17 18
ATOM     18  CB  LEU C 508      12.411  22.412   7.797  1.00 32.28 LIG 0.04  C 
BRANCH 18 19
ATOM     19  CG  LEU C 508      13.408  23.442   8.315  1.00 33.09 LIG-0.02  C 
ATOM     20  CD1 LEU C 508      13.710  23.193   9.762  1.00 32.61 LIG 0.01  C 
ATOM     21  CD2 LEU C 508      14.657  23.430   7.445  1.00 34.13 LIG 0.01  C 
ENDBRANCH 18 19
ENDBRANCH 17 18
BRANCH 17 22
ATOM     22  C   LEU C 508      11.049  21.733   5.822  1.00 33.63 LIG 0.20  C 
ATOM     23 O    LEU C 508      10.724  20.781   6.563  0.50 32.81 LIG-0.65  OA
ATOM     24 OXT  LEU C 508      10.641  21.875   4.651  0.50 35.17 LIG-0.65  OA
ENDBRANCH 17 22
ENDBRANCH 15 17
ENDBRANCH 1 13
BRANCH 1 25
ATOM     25  CB  ASP C 507      10.417  26.695   7.798  1.00 31.02 LIG 0.15  C 
BRANCH 25 26
ATOM     26  CG  ASP C 507       9.388  27.404   8.654  1.00 34.22 LIG 0.17  C 
ATOM     27 OD2  ASP C 507       9.135  28.611   8.437  1.00 32.29 LIG-0.65  OA
ATOM     28 OD1  ASP C 507       8.862  26.757   9.579  1.00 33.73 LIG-0.65  OA
ENDBRANCH 25 26
ENDBRANCH 1 25
TORSDOF 12
ENDMDL
MODEL 19
USER: ADFR SOLUTION from run 195
USER: SCORE 11.172307 LL:  -1.580 LR:  -9.642 RR:   0.000 FEB:  -6.062
USER: RMSD 7.408018
USER: SEED 194
USER: STATUS no improvement in best in 25 clusters for 5 generations
USER: GENES 14
USER: genes 0 Translation |==|  0.52434 0.40075 0.35241
USER: genes 1 Rotation |==|  0.70180 0.76536 0.12817 0.52457
USER: genes 2 Torsion [C]-CA--N-[C] |==|  0.78390
USER: genes 3 Torsion [N]-C--CA-[N] |==|  0.54067
USER: genes 4 Torsion [C]-CA--CB-[CG] |==|  0.33562
USER: genes 5 Torsion [CA]-CB--CG-[CD] |==|  0.74626
USER: genes 6 Torsion [CB]-CG--CD-[OE1] |==|  0.64466
USER: genes 7 Torsion [N]-CA--C-[N] |==|  0.45474
USER: genes 8 Torsion [C]-N--CA-[CB] |==|  0.34321
USER: genes 9 Torsion [N]-CA--CB-[CG] |==|  0.19896
USER: genes 10 Torsion [CA]-CB--CG-[CD1] |==|  0.27026
USER: genes 11 Torsion [N]-CA--C-[O] |==|  0.95985
USER: genes 12 Torsion [N]-CA--CB-[CG] |==|  0.75528
USER: genes 13 Torsion [CA]-CB--CG-[OD2] |==|  0.70246
ROOT
ATOM      1  CA  ASP C 507       9.644  23.747   2.142  1.00 33.68 LIG 0.19  C 
ENDROOT
BRANCH 1 2
ATOM      2  N   ASP C 507      10.680  23.677   3.164  1.00 35.05 LIG-0.34  N 
ATOM      3  C   GLU C 506      11.764  24.443   3.127  1.00 36.98 LIG 0.26  C 
ATOM      4 O    GLU C 506      11.999  25.236   2.208  1.00 35.33 LIG-0.27  OA
ATOM      5 H    ASP C 507      10.525  23.101   3.783  1.00 35.05 LIG 0.16  HD
BRANCH 3 6
ATOM      6  CA  GLU C 506      12.758  24.246   4.270  1.00 38.62 LIG 0.40  C 
ATOM      7  N   GLU C 506      13.726  25.376   4.314  1.00 38.98 LIG 0.61  N 
BRANCH 6 8
ATOM      8  CB  GLU C 506      12.030  24.108   5.609  1.00 41.41 LIG 0.06  C 
BRANCH 8 9
ATOM      9  CG  GLU C 506      12.303  22.801   6.327  1.00 54.63 LIG 0.12  C 
BRANCH 9 10
ATOM     10  CD  GLU C 506      11.304  21.714   5.982  1.00 71.07 LIG 0.17  C 
ATOM     11 OE1  GLU C 506      10.724  21.111   6.915  1.00 74.77 LIG-0.65  OA
ATOM     12 OE2  GLU C 506      11.089  21.475   4.772  1.00 73.38 LIG-0.65  OA
ENDBRANCH 9 10
ENDBRANCH 8 9
ENDBRANCH 6 8
ENDBRANCH 3 6
ENDBRANCH 1 2
BRANCH 1 13
ATOM     13  C   ASP C 507       8.782  24.970   2.400  1.00 33.47 LIG 0.24  C 
ATOM     14 O    ASP C 507       8.842  25.569   3.477  1.00 34.83 LIG-0.27  OA
ATOM     15  N   LEU C 508       8.018  25.358   1.383  1.00 31.65 LIG-0.34  N 
ATOM     16 H    LEU C 508       7.983  24.946   0.629  1.00 31.65 LIG 0.16  HD
BRANCH 15 17
ATOM     17  CA  LEU C 508       7.162  26.532   1.460  1.00 32.20 LIG 0.18  C 
BRANCH 17 18
ATOM     18  CB  LEU C 508       7.518  27.486   0.329  1.00 32.28 LIG 0.04  C 
BRANCH 18 19
ATOM     19  CG  LEU C 508       7.040  26.900  -0.995  1.00 33.09 LIG-0.02  C 
ATOM     20  CD1 LEU C 508       5.715  27.486  -1.377  1.00 32.61 LIG 0.01  C 
ATOM     21  CD2 LEU C 508       8.104  27.111  -2.063  1.00 34.13 LIG 0.01  C 
ENDBRANCH 18 19
ENDBRANCH 17 18
BRANCH 17 22
ATOM     22  C   LEU C 508       5.683  26.195   1.414  1.00 33.63 LIG 0.20  C 
ATOM     23 O    LEU C 508       5.352  25.047   1.047  0.50 32.81 LIG-0.65  OA
ATOM     24 OXT  LEU C 508       4.868  27.081   1.745  0.50 35.17 LIG-0.65  OA
ENDBRANCH 17 22
ENDBRANCH 15 17
ENDBRANCH 1 13
BRANCH 1 25
ATOM     25  CB  ASP C 507       8.815  22.466   2.160  1.00 31.02 LIG 0.15  C 
BRANCH 25 26
ATOM     26  CG  ASP C 507       9.410  21.392   1.272  1.00 34.22 LIG 0.17  C 
ATOM     27 OD2  ASP C 507       8.849  21.111   0.189  1.00 32.29 LIG-0.65  OA
ATOM     28 OD1  ASP C 507      10.422  20.797   1.686  1.00 33.73 LIG-0.65  OA
ENDBRANCH 25 26
ENDBRANCH 1 25
TORSDOF 12
ENDMDL
MODEL 20
USER: ADFR SOLUTION from run 69
USER: SCORE 11.343408 LL:  -2.304 LR:  -9.628 RR:   0.000 FEB:  -6.048
USER: RMSD 5.332410
USER: SEED 68
USER: STATUS no improvement in best in 16 clusters for 5 generations
USER: GENES 14
USER: genes 0 Translation |==|  0.39173 0.50962 0.47042
USER: genes 1 Rotation |==|  0.09765 0.73934 0.59353 0.64861
USER: genes 2 Torsion [C]-CA--N-[C] |==|  0.19433
USER: genes 3 Torsion [N]-C--CA-[N] |==|  0.77844
USER: genes 4 Torsion [C]-CA--CB-[CG] |==|  0.31287
USER: genes 5 Torsion [CA]-CB--CG-[CD] |==|  0.87884
USER: genes 6 Torsion [CB]-CG--CD-[OE1] |==|  0.68567
USER: genes 7 Torsion [N]-CA--C-[N] |==|  0.15397
USER: genes 8 Torsion [C]-N--CA-[CB] |==|  0.37029
USER: genes 9 Torsion [N]-CA--CB-[CG] |==|  0.66875
USER: genes 10 Torsion [CA]-CB--CG-[CD1] |==|  0.71332
USER: genes 11 Torsion [N]-CA--C-[O] |==|  0.66463
USER: genes 12 Torsion [N]-CA--CB-[CG] |==|  0.74105
USER: genes 13 Torsion [CA]-CB--CG-[OD2] |==|  0.37615
ROOT
ATOM      1  CA  ASP C 507       7.356  25.380   4.178  1.00 33.68 LIG 0.19  C 
ENDROOT
BRANCH 1 2
ATOM      2  N   ASP C 507       6.900  26.111   5.353  1.00 35.05 LIG-0.34  N 
ATOM      3  C   GLU C 506       7.385  27.303   5.678  1.00 36.98 LIG 0.26  C 
ATOM      4 O    GLU C 506       8.285  27.861   5.041  1.00 35.33 LIG-0.27  OA
ATOM      5 H    ASP C 507       6.296  25.702   5.808  1.00 35.05 LIG 0.16  HD
BRANCH 3 6
ATOM      6  CA  GLU C 506       6.805  27.936   6.942  1.00 38.62 LIG 0.40  C 
ATOM      7  N   GLU C 506       5.484  28.555   6.651  1.00 38.98 LIG 0.61  N 
BRANCH 6 8
ATOM      8  CB  GLU C 506       6.680  26.901   8.063  1.00 41.41 LIG 0.06  C 
BRANCH 8 9
ATOM      9  CG  GLU C 506       7.610  27.145   9.234  1.00 54.63 LIG 0.12  C 
BRANCH 9 10
ATOM     10  CD  GLU C 506       9.016  27.520   8.809  1.00 71.07 LIG 0.17  C 
ATOM     11 OE1  GLU C 506       9.952  26.723   9.051  1.00 74.77 LIG-0.65  OA
ATOM     12 OE2  GLU C 506       9.179  28.611   8.216  1.00 73.38 LIG-0.65  OA
ENDBRANCH 9 10
ENDBRANCH 8 9
ENDBRANCH 6 8
ENDBRANCH 3 6
ENDBRANCH 1 2
BRANCH 1 13
ATOM     13  C   ASP C 507       8.780  24.909   4.416  1.00 33.47 LIG 0.24  C 
ATOM     14 O    ASP C 507       9.690  25.235   3.650  1.00 34.83 LIG-0.27  OA
ATOM     15  N   LEU C 508       8.966  24.179   5.512  1.00 31.65 LIG-0.34  N 
ATOM     16 H    LEU C 508       8.333  23.959   6.052  1.00 31.65 LIG 0.16  HD
BRANCH 15 17
ATOM     17  CA  LEU C 508      10.277  23.681   5.899  1.00 32.20 LIG 0.18  C 
BRANCH 17 18
ATOM     18  CB  LEU C 508      10.500  23.955   7.379  1.00 32.28 LIG 0.04  C 
BRANCH 18 19
ATOM     19  CG  LEU C 508      11.715  24.861   7.548  1.00 33.09 LIG-0.02  C 
ATOM     20  CD1 LEU C 508      12.899  24.064   8.007  1.00 32.61 LIG 0.01  C 
ATOM     21  CD2 LEU C 508      11.979  25.611   6.251  1.00 34.13 LIG 0.01  C 
ENDBRANCH 18 19
ENDBRANCH 17 18
BRANCH 17 22
ATOM     22  C   LEU C 508      10.464  22.203   5.606  1.00 33.63 LIG 0.20  C 
ATOM     23 O    LEU C 508      10.724  21.442   6.563  0.50 32.81 LIG-0.65  OA
ATOM     24 OXT  LEU C 508      10.349  21.820   4.424  0.50 35.17 LIG-0.65  OA
ENDBRANCH 17 22
ENDBRANCH 15 17
ENDBRANCH 1 13
BRANCH 1 25
ATOM     25  CB  ASP C 507       7.263  26.276   2.945  1.00 31.02 LIG 0.15  C 
BRANCH 25 26
ATOM     26  CG  ASP C 507       5.949  26.100   2.214  1.00 34.22 LIG 0.17  C 
ATOM     27 OD2  ASP C 507       5.326  27.111   1.818  1.00 32.29 LIG-0.65  OA
ATOM     28 OD1  ASP C 507       5.517  24.940   2.074  1.00 33.73 LIG-0.65  OA
ENDBRANCH 25 26
ENDBRANCH 1 25
TORSDOF 12
ENDMDL
MODEL 21
USER: ADFR SOLUTION from run 95
USER: SCORE 11.548932 LL:  -2.032 LR:  -9.590 RR:   0.000 FEB:  -6.010
USER: RMSD 6.579410
USER: SEED 94
USER: STATUS no improvement in best in 12 clusters for 5 generations
USER: GENES 14
USER: genes 0 Translation |==|  0.45288 0.57297 0.38569
USER: genes 1 Rotation |==|  0.39321 0.07870 0.69377 0.65347
USER: genes 2 Torsion [C]-CA--N-[C] |==|  0.16552
USER: genes 3 Torsion [N]-C--CA-[N] |==|  0.92409
USER: genes 4 Torsion [C]-CA--CB-[CG] |==|  0.13389
USER: genes 5 Torsion [CA]-CB--CG-[CD] |==|  0.20103
USER: genes 6 Torsion [CB]-CG--CD-[OE1] |==|  0.44927
USER: genes 7 Torsion [N]-CA--C-[N] |==|  0.12025
USER: genes 8 Torsion [C]-N--CA-[CB] |==|  0.42338
USER: genes 9 Torsion [N]-CA--CB-[CG] |==|  0.66113
USER: genes 10 Torsion [CA]-CB--CG-[CD1] |==|  0.44610
USER: genes 11 Torsion [N]-CA--C-[O] |==|  0.13483
USER: genes 12 Torsion [N]-CA--CB-[CG] |==|  0.65660
USER: genes 13 Torsion [CA]-CB--CG-[OD2] |==|  0.67412
ROOT
ATOM      1  CA  ASP C 507       8.411  26.331   2.716  1.00 33.68 LIG 0.19  C 
ENDROOT
BRANCH 1 2
ATOM      2  N   ASP C 507       9.654  25.578   2.601  1.00 35.05 LIG-0.34  N 
ATOM      3  C   GLU C 506       9.760  24.320   3.011  1.00 36.98 LIG 0.26  C 
ATOM      4 O    GLU C 506       8.836  23.708   3.558  1.00 35.33 LIG-0.27  OA
ATOM      5 H    ASP C 507      10.301  26.021   2.248  1.00 35.05 LIG 0.16  HD
BRANCH 3 6
ATOM      6  CA  GLU C 506      11.132  23.673   2.825  1.00 38.62 LIG 0.40  C 
ATOM      7  N   GLU C 506      11.849  24.301   1.683  1.00 38.98 LIG 0.61  N 
BRANCH 6 8
ATOM      8  CB  GLU C 506      11.963  23.778   4.106  1.00 41.41 LIG 0.06  C 
BRANCH 8 9
ATOM      9  CG  GLU C 506      11.220  23.359   5.359  1.00 54.63 LIG 0.12  C 
BRANCH 9 10
ATOM     10  CD  GLU C 506      11.003  21.861   5.449  1.00 71.07 LIG 0.17  C 
ATOM     11 OE1  GLU C 506      10.724  21.359   6.563  1.00 74.77 LIG-0.65  OA
ATOM     12 OE2  GLU C 506      11.099  21.189   4.398  1.00 73.38 LIG-0.65  OA
ENDBRANCH 9 10
ENDBRANCH 8 9
ENDBRANCH 6 8
ENDBRANCH 3 6
ENDBRANCH 1 2
BRANCH 1 13
ATOM     13  C   ASP C 507       8.013  26.400   4.180  1.00 33.47 LIG 0.24  C 
ATOM     14 O    ASP C 507       6.851  26.181   4.530  1.00 34.83 LIG-0.27  OA
ATOM     15  N   LEU C 508       9.002  26.660   5.031  1.00 31.65 LIG-0.34  N 
ATOM     16 H    LEU C 508       9.815  26.804   4.788  1.00 31.65 LIG 0.16  HD
BRANCH 15 17
ATOM     17  CA  LEU C 508       8.790  26.726   6.469  1.00 32.20 LIG 0.18  C 
BRANCH 17 18
ATOM     18  CB  LEU C 508      10.083  26.356   7.182  1.00 32.28 LIG 0.04  C 
BRANCH 18 19
ATOM     19  CG  LEU C 508       9.832  25.161   8.096  1.00 33.09 LIG-0.02  C 
ATOM     20  CD1 LEU C 508      11.125  24.486   8.438  1.00 32.61 LIG 0.01  C 
ATOM     21  CD2 LEU C 508       9.061  25.611   9.328  1.00 34.13 LIG 0.01  C 
ENDBRANCH 18 19
ENDBRANCH 17 18
BRANCH 17 22
ATOM     22  C   LEU C 508       8.304  28.085   6.938  1.00 33.63 LIG 0.20  C 
ATOM     23 O    LEU C 508       7.349  28.611   6.328  0.50 32.81 LIG-0.65  OA
ATOM     24 OXT  LEU C 508       8.884  28.611   7.910  0.50 35.17 LIG-0.65  OA
ENDBRANCH 17 22
ENDBRANCH 15 17
ENDBRANCH 1 13
BRANCH 1 25
ATOM     25  CB  ASP C 507       7.326  25.666   1.873  1.00 31.02 LIG 0.15  C 
BRANCH 25 26
ATOM     26  CG  ASP C 507       6.728  26.622   0.862  1.00 34.22 LIG 0.17  C 
ATOM     27 OD2  ASP C 507       5.513  26.915   0.937  1.00 32.29 LIG-0.65  OA
ATOM     28 OD1  ASP C 507       7.473  27.047  -0.041  1.00 33.73 LIG-0.65  OA
ENDBRANCH 25 26
ENDBRANCH 1 25
TORSDOF 12
ENDMDL
MODEL 22
USER: ADFR SOLUTION from run 92
USER: SCORE 11.527054 LL:  -2.032 LR:  -9.564 RR:   0.000 FEB:  -5.985
USER: RMSD 4.503948
USER: SEED 91
USER: STATUS no improvement in best in 14 clusters for 5 generations
USER: GENES 14
USER: genes 0 Translation |==|  0.55326 0.54603 0.60189
USER: genes 1 Rotation |==|  0.47420 0.22898 0.44198 0.91535
USER: genes 2 Torsion [C]-CA--N-[C] |==|  0.15516
USER: genes 3 Torsion [N]-C--CA-[N] |==|  0.88065
USER: genes 4 Torsion [C]-CA--CB-[CG] |==|  0.23139
USER: genes 5 Torsion [CA]-CB--CG-[CD] |==|  0.15269
USER: genes 6 Torsion [CB]-CG--CD-[OE1] |==|  0.85137
USER: genes 7 Torsion [N]-CA--C-[N] |==|  0.13212
USER: genes 8 Torsion [C]-N--CA-[CB] |==|  0.87852
USER: genes 9 Torsion [N]-CA--CB-[CG] |==|  0.65872
USER: genes 10 Torsion [CA]-CB--CG-[CD1] |==|  0.14564
USER: genes 11 Torsion [N]-CA--C-[O] |==|  0.24334
USER: genes 12 Torsion [N]-CA--CB-[CG] |==|  0.79272
USER: genes 13 Torsion [CA]-CB--CG-[OD2] |==|  0.21032
ROOT
ATOM      1  CA  ASP C 507      10.143  25.926   6.446  1.00 33.68 LIG 0.19  C 
ENDROOT
BRANCH 1 2
ATOM      2  N   ASP C 507       9.908  25.823   5.012  1.00 35.05 LIG-0.34  N 
ATOM      3  C   GLU C 506       9.099  24.909   4.490  1.00 36.98 LIG 0.26  C 
ATOM      4 O    GLU C 506       8.522  24.053   5.170  1.00 35.33 LIG-0.27  OA
ATOM      5 H    ASP C 507      10.337  26.402   4.543  1.00 35.05 LIG 0.16  HD
BRANCH 3 6
ATOM      6  CA  GLU C 506       8.963  24.929   2.969  1.00 38.62 LIG 0.40  C 
ATOM      7  N   GLU C 506       8.835  26.328   2.480  1.00 38.98 LIG 0.61  N 
BRANCH 6 8
ATOM      8  CB  GLU C 506      10.154  24.234   2.305  1.00 41.41 LIG 0.06  C 
BRANCH 8 9
ATOM      9  CG  GLU C 506      10.023  22.725   2.228  1.00 54.63 LIG 0.12  C 
BRANCH 9 10
ATOM     10  CD  GLU C 506       8.748  22.274   1.542  1.00 71.07 LIG 0.17  C 
ATOM     11 OE1  GLU C 506       7.652  22.715   1.959  1.00 74.77 LIG-0.65  OA
ATOM     12 OE2  GLU C 506       8.849  21.487   0.574  1.00 73.38 LIG-0.65  OA
ENDBRANCH 9 10
ENDBRANCH 8 9
ENDBRANCH 6 8
ENDBRANCH 3 6
ENDBRANCH 1 2
BRANCH 1 13
ATOM     13  C   ASP C 507      10.636  24.586   6.960  1.00 33.47 LIG 0.24  C 
ATOM     14 O    ASP C 507      10.118  24.058   7.946  1.00 34.83 LIG-0.27  OA
ATOM     15  N   LEU C 508      11.611  24.023   6.250  1.00 31.65 LIG-0.34  N 
ATOM     16 H    LEU C 508      11.966  24.387   5.556  1.00 31.65 LIG 0.16  HD
BRANCH 15 17
ATOM     17  CA  LEU C 508      12.168  22.724   6.593  1.00 32.20 LIG 0.18  C 
BRANCH 17 18
ATOM     18  CB  LEU C 508      12.387  22.654   8.097  1.00 32.28 LIG 0.04  C 
BRANCH 18 19
ATOM     19  CG  LEU C 508      13.854  22.346   8.380  1.00 33.09 LIG-0.02  C 
ATOM     20  CD1 LEU C 508      14.739  23.312   7.653  1.00 32.61 LIG 0.01  C 
ATOM     21  CD2 LEU C 508      14.097  22.345   9.882  1.00 34.13 LIG 0.01  C 
ENDBRANCH 18 19
ENDBRANCH 17 18
BRANCH 17 22
ATOM     22  C   LEU C 508      11.301  21.565   6.136  1.00 33.63 LIG 0.20  C 
ATOM     23 O    LEU C 508      11.471  21.122   4.980  0.50 32.81 LIG-0.65  OA
ATOM     24 OXT  LEU C 508      10.459  21.111   6.938  0.50 35.17 LIG-0.65  OA
ENDBRANCH 17 22
ENDBRANCH 15 17
ENDBRANCH 1 13
BRANCH 1 25
ATOM     25  CB  ASP C 507       8.858  26.356   7.149  1.00 31.02 LIG 0.15  C 
BRANCH 25 26
ATOM     26  CG  ASP C 507       8.555  27.824   6.932  1.00 34.22 LIG 0.17  C 
ATOM     27 OD2  ASP C 507       8.099  28.200   5.828  1.00 32.29 LIG-0.65  OA
ATOM     28 OD1  ASP C 507       8.817  28.611   7.860  1.00 33.73 LIG-0.65  OA
ENDBRANCH 25 26
ENDBRANCH 1 25
TORSDOF 12
ENDMDL
MODEL 23
USER: ADFR SOLUTION from run 101
USER: SCORE 11.233840 LL:  -1.781 LR:  -9.510 RR:   0.000 FEB:  -5.930
USER: RMSD 3.184675
USER: SEED 100
USER: STATUS no improvement in best in 18 clusters for 5 generations
USER: GENES 14
USER: genes 0 Translation |==|  0.52853 0.54310 0.58619
USER: genes 1 Rotation |==|  0.50357 0.29393 0.31441 0.91603
USER: genes 2 Torsion [C]-CA--N-[C] |==|  0.15277
USER: genes 3 Torsion [N]-C--CA-[N] |==|  0.56103
USER: genes 4 Torsion [C]-CA--CB-[CG] |==|  0.42325
USER: genes 5 Torsion [CA]-CB--CG-[CD] |==|  0.54973
USER: genes 6 Torsion [CB]-CG--CD-[OE1] |==|  0.97204
USER: genes 7 Torsion [N]-CA--C-[N] |==|  0.12705
USER: genes 8 Torsion [C]-N--CA-[CB] |==|  0.46093
USER: genes 9 Torsion [N]-CA--CB-[CG] |==|  0.68584
USER: genes 10 Torsion [CA]-CB--CG-[CD1] |==|  0.19456
USER: genes 11 Torsion [N]-CA--C-[O] |==|  0.76837
USER: genes 12 Torsion [N]-CA--CB-[CG] |==|  0.88144
USER: genes 13 Torsion [CA]-CB--CG-[OD2] |==|  0.20298
ROOT
ATOM      1  CA  ASP C 507       9.716  25.882   6.175  1.00 33.68 LIG 0.19  C 
ENDROOT
BRANCH 1 2
ATOM      2  N   ASP C 507       9.326  26.473   4.902  1.00 35.05 LIG-0.34  N 
ATOM      3  C   GLU C 506       8.184  26.164   4.298  1.00 36.98 LIG 0.26  C 
ATOM      4 O    GLU C 506       7.392  25.325   4.741  1.00 35.33 LIG-0.27  OA
ATOM      5 H    ASP C 507       9.896  27.032   4.584  1.00 35.05 LIG 0.16  HD
BRANCH 3 6
ATOM      6  CA  GLU C 506       7.924  26.866   2.966  1.00 38.62 LIG 0.40  C 
ATOM      7  N   GLU C 506       6.467  26.870   2.661  1.00 38.98 LIG 0.61  N 
BRANCH 6 8
ATOM      8  CB  GLU C 506       8.474  28.294   2.985  1.00 41.41 LIG 0.06  C 
BRANCH 8 9
ATOM      9  CG  GLU C 506       8.866  28.822   1.619  1.00 54.63 LIG 0.12  C 
BRANCH 9 10
ATOM     10  CD  GLU C 506       9.786  30.025   1.688  1.00 71.07 LIG 0.17  C 
ATOM     11 OE1  GLU C 506       9.974  30.576   2.797  1.00 74.77 LIG-0.65  OA
ATOM     12 OE2  GLU C 506      10.332  30.409   0.629  1.00 73.38 LIG-0.65  OA
ENDBRANCH 9 10
ENDBRANCH 8 9
ENDBRANCH 6 8
ENDBRANCH 3 6
ENDBRANCH 1 2
BRANCH 1 13
ATOM     13  C   ASP C 507       9.689  24.370   6.043  1.00 33.47 LIG 0.24  C 
ATOM     14 O    ASP C 507       9.129  23.672   6.891  1.00 34.83 LIG-0.27  OA
ATOM     15  N   LEU C 508      10.259  23.880   4.946  1.00 31.65 LIG-0.34  N 
ATOM     16 H    LEU C 508      10.642  24.367   4.349  1.00 31.65 LIG 0.16  HD
BRANCH 15 17
ATOM     17  CA  LEU C 508      10.285  22.454   4.656  1.00 32.20 LIG 0.18  C 
BRANCH 17 18
ATOM     18  CB  LEU C 508      10.681  22.247   3.201  1.00 32.28 LIG 0.04  C 
BRANCH 18 19
ATOM     19  CG  LEU C 508       9.497  21.668   2.433  1.00 33.09 LIG-0.02  C 
ATOM     20  CD1 LEU C 508       8.419  22.698   2.285  1.00 32.61 LIG 0.01  C 
ATOM     21  CD2 LEU C 508       9.973  21.121   1.095  1.00 34.13 LIG 0.01  C 
ENDBRANCH 18 19
ENDBRANCH 17 18
BRANCH 17 22
ATOM     22  C   LEU C 508      11.217  21.678   5.568  1.00 33.63 LIG 0.20  C 
ATOM     23 O    LEU C 508      12.431  21.643   5.276  0.50 32.81 LIG-0.65  OA
ATOM     24 OXT  LEU C 508      10.724  21.111   6.565  0.50 35.17 LIG-0.65  OA
ENDBRANCH 17 22
ENDBRANCH 15 17
ENDBRANCH 1 13
BRANCH 1 25
ATOM     25  CB  ASP C 507       8.776  26.364   7.277  1.00 31.02 LIG 0.15  C 
BRANCH 25 26
ATOM     26  CG  ASP C 507       8.479  27.845   7.162  1.00 34.22 LIG 0.17  C 
ATOM     27 OD2  ASP C 507       7.723  28.251   6.251  1.00 32.29 LIG-0.65  OA
ATOM     28 OD1  ASP C 507       9.043  28.611   7.966  1.00 33.73 LIG-0.65  OA
ENDBRANCH 25 26
ENDBRANCH 1 25
TORSDOF 12
ENDMDL
MODEL 24
USER: ADFR SOLUTION from run 142
USER: SCORE 11.223434 LL:  -2.264 LR:  -9.496 RR:   0.000 FEB:  -5.917
USER: RMSD 7.619859
USER: SEED 141
USER: STATUS no improvement in best in 25 clusters for 5 generations
USER: GENES 14
USER: genes 0 Translation |==|  0.35700 0.58644 0.71252
USER: genes 1 Rotation |==|  0.66928 0.80593 0.85740 0.50367
USER: genes 2 Torsion [C]-CA--N-[C] |==|  0.54448
USER: genes 3 Torsion [N]-C--CA-[N] |==|  0.04958
USER: genes 4 Torsion [C]-CA--CB-[CG] |==|  0.36658
USER: genes 5 Torsion [CA]-CB--CG-[CD] |==|  0.09565
USER: genes 6 Torsion [CB]-CG--CD-[OE1] |==|  0.08572
USER: genes 7 Torsion [N]-CA--C-[N] |==|  0.53728
USER: genes 8 Torsion [C]-N--CA-[CB] |==|  0.13270
USER: genes 9 Torsion [N]-CA--CB-[CG] |==|  0.67167
USER: genes 10 Torsion [CA]-CB--CG-[CD1] |==|  0.37133
USER: genes 11 Torsion [N]-CA--C-[O] |==|  0.24123
USER: genes 12 Torsion [N]-CA--CB-[CG] |==|  0.06296
USER: genes 13 Torsion [CA]-CB--CG-[OD2] |==|  0.61434
ROOT
ATOM      1  CA  ASP C 507       6.757  26.533   8.354  1.00 33.68 LIG 0.19  C 
ENDROOT
BRANCH 1 2
ATOM      2  N   ASP C 507       7.542  25.653   7.497  1.00 35.05 LIG-0.34  N 
ATOM      3  C   GLU C 506       8.645  25.051   7.922  1.00 36.98 LIG 0.26  C 
ATOM      4 O    GLU C 506       9.115  25.222   9.052  1.00 35.33 LIG-0.27  OA
ATOM      5 H    ASP C 507       7.226  25.564   6.703  1.00 35.05 LIG 0.16  HD
BRANCH 3 6
ATOM      6  CA  GLU C 506       9.356  24.164   6.900  1.00 38.62 LIG 0.40  C 
ATOM      7  N   GLU C 506       8.901  24.496   5.523  1.00 38.98 LIG 0.61  N 
BRANCH 6 8
ATOM      8  CB  GLU C 506      10.875  24.309   7.015  1.00 41.41 LIG 0.06  C 
BRANCH 8 9
ATOM      9  CG  GLU C 506      11.619  22.989   7.055  1.00 54.63 LIG 0.12  C 
BRANCH 9 10
ATOM     10  CD  GLU C 506      10.970  21.915   6.203  1.00 71.07 LIG 0.17  C 
ATOM     11 OE1  GLU C 506      10.349  22.259   5.171  1.00 74.77 LIG-0.65  OA
ATOM     12 OE2  GLU C 506      11.098  20.723   6.563  1.00 73.38 LIG-0.65  OA
ENDBRANCH 9 10
ENDBRANCH 8 9
ENDBRANCH 6 8
ENDBRANCH 3 6
ENDBRANCH 1 2
BRANCH 1 13
ATOM     13  C   ASP C 507       5.389  26.734   7.728  1.00 33.47 LIG 0.24  C 
ATOM     14 O    ASP C 507       4.987  25.986   6.834  1.00 34.83 LIG-0.27  OA
ATOM     15  N   LEU C 508       4.663  27.723   8.242  1.00 31.65 LIG-0.34  N 
ATOM     16 H    LEU C 508       4.940  28.240   8.873  1.00 31.65 LIG 0.16  HD
BRANCH 15 17
ATOM     17  CA  LEU C 508       3.318  28.022   7.776  1.00 32.20 LIG 0.18  C 
BRANCH 17 18
ATOM     18  CB  LEU C 508       2.516  26.731   7.703  1.00 32.28 LIG 0.04  C 
BRANCH 18 19
ATOM     19  CG  LEU C 508       2.087  26.483   6.260  1.00 33.09 LIG-0.02  C 
ATOM     20  CD1 LEU C 508       2.350  25.058   5.876  1.00 32.61 LIG 0.01  C 
ATOM     21  CD2 LEU C 508       0.628  26.878   6.084  1.00 34.13 LIG 0.01  C 
ENDBRANCH 18 19
ENDBRANCH 17 18
BRANCH 17 22
ATOM     22  C   LEU C 508       2.598  29.037   8.644  1.00 33.63 LIG 0.20  C 
ATOM     23 O    LEU C 508       2.765  30.250   8.393  0.50 32.81 LIG-0.65  OA
ATOM     24 OXT  LEU C 508       1.875  28.611   9.568  0.50 35.17 LIG-0.65  OA
ENDBRANCH 17 22
ENDBRANCH 15 17
ENDBRANCH 1 13
BRANCH 1 25
ATOM     25  CB  ASP C 507       7.488  27.860   8.538  1.00 31.02 LIG 0.15  C 
BRANCH 25 26
ATOM     26  CG  ASP C 507       8.472  28.126   7.418  1.00 34.22 LIG 0.17  C 
ATOM     27 OD2  ASP C 507       9.595  28.611   7.688  1.00 32.29 LIG-0.65  OA
ATOM     28 OD1  ASP C 507       8.100  27.888   6.254  1.00 33.73 LIG-0.65  OA
ENDBRANCH 25 26
ENDBRANCH 1 25
TORSDOF 12
ENDMDL
MODEL 25
USER: ADFR SOLUTION from run 75
USER: SCORE 11.167037 LL:  -2.059 LR:  -9.490 RR:   0.000 FEB:  -5.911
USER: RMSD 3.537682
USER: SEED 74
USER: STATUS no improvement in best in 17 clusters for 5 generations
USER: GENES 14
USER: genes 0 Translation |==|  0.50279 0.53575 0.61952
USER: genes 1 Rotation |==|  0.44588 0.37546 0.43650 0.97700
USER: genes 2 Torsion [C]-CA--N-[C] |==|  0.58457
USER: genes 3 Torsion [N]-C--CA-[N] |==|  0.43733
USER: genes 4 Torsion [C]-CA--CB-[CG] |==|  0.74408
USER: genes 5 Torsion [CA]-CB--CG-[CD] |==|  0.75706
USER: genes 6 Torsion [CB]-CG--CD-[OE1] |==|  0.57183
USER: genes 7 Torsion [N]-CA--C-[N] |==|  0.31713
USER: genes 8 Torsion [C]-N--CA-[CB] |==|  0.78848
USER: genes 9 Torsion [N]-CA--CB-[CG] |==|  0.79385
USER: genes 10 Torsion [CA]-CB--CG-[CD1] |==|  0.49443
USER: genes 11 Torsion [N]-CA--C-[O] |==|  0.60990
USER: genes 12 Torsion [N]-CA--CB-[CG] |==|  0.69184
USER: genes 13 Torsion [CA]-CB--CG-[OD2] |==|  0.68479
ROOT
ATOM      1  CA  ASP C 507       9.272  25.772   6.750  1.00 33.68 LIG 0.19  C 
ENDROOT
BRANCH 1 2
ATOM      2  N   ASP C 507       8.217  25.722   5.746  1.00 35.05 LIG-0.34  N 
ATOM      3  C   GLU C 506       7.921  26.763   4.978  1.00 36.98 LIG 0.26  C 
ATOM      4 O    GLU C 506       8.480  27.860   5.083  1.00 35.33 LIG-0.27  OA
ATOM      5 H    ASP C 507       7.812  24.965   5.700  1.00 35.05 LIG 0.16  HD
BRANCH 3 6
ATOM      6  CA  GLU C 506       6.786  26.551   3.977  1.00 38.62 LIG 0.40  C 
ATOM      7  N   GLU C 506       6.192  27.858   3.584  1.00 38.98 LIG 0.61  N 
BRANCH 6 8
ATOM      8  CB  GLU C 506       7.280  25.791   2.744  1.00 41.41 LIG 0.06  C 
BRANCH 8 9
ATOM      9  CG  GLU C 506       7.747  26.687   1.614  1.00 54.63 LIG 0.12  C 
BRANCH 9 10
ATOM     10  CD  GLU C 506       6.626  27.100   0.680  1.00 71.07 LIG 0.17  C 
ATOM     11 OE1  GLU C 506       6.908  27.399  -0.503  1.00 74.77 LIG-0.65  OA
ATOM     12 OE2  GLU C 506       5.459  27.111   1.132  1.00 73.38 LIG-0.65  OA
ENDBRANCH 9 10
ENDBRANCH 8 9
ENDBRANCH 6 8
ENDBRANCH 3 6
ENDBRANCH 1 2
BRANCH 1 13
ATOM     13  C   ASP C 507       9.871  24.385   6.901  1.00 33.47 LIG 0.24  C 
ATOM     14 O    ASP C 507       9.189  23.444   7.313  1.00 34.83 LIG-0.27  OA
ATOM     15  N   LEU C 508      11.139  24.264   6.519  1.00 31.65 LIG-0.34  N 
ATOM     16 H    LEU C 508      11.613  24.918   6.223  1.00 31.65 LIG 0.16  HD
BRANCH 15 17
ATOM     17  CA  LEU C 508      11.846  22.993   6.569  1.00 32.20 LIG 0.18  C 
BRANCH 17 18
ATOM     18  CB  LEU C 508      12.226  22.688   8.012  1.00 32.28 LIG 0.04  C 
BRANCH 18 19
ATOM     19  CG  LEU C 508      13.388  23.584   8.427  1.00 33.09 LIG-0.02  C 
ATOM     20  CD1 LEU C 508      13.749  23.337   9.861  1.00 32.61 LIG 0.01  C 
ATOM     21  CD2 LEU C 508      14.561  23.373   7.482  1.00 34.13 LIG 0.01  C 
ENDBRANCH 18 19
ENDBRANCH 17 18
BRANCH 17 22
ATOM     22  C   LEU C 508      11.045  21.843   5.985  1.00 33.63 LIG 0.20  C 
ATOM     23 O    LEU C 508      11.099  20.736   6.563  0.50 32.81 LIG-0.65  OA
ATOM     24 OXT  LEU C 508      10.374  22.059   4.955  0.50 35.17 LIG-0.65  OA
ENDBRANCH 17 22
ENDBRANCH 15 17
ENDBRANCH 1 13
BRANCH 1 25
ATOM     25  CB  ASP C 507       8.703  26.283   8.071  1.00 31.02 LIG 0.15  C 
BRANCH 25 26
ATOM     26  CG  ASP C 507       9.224  27.662   8.418  1.00 34.22 LIG 0.17  C 
ATOM     27 OD2  ASP C 507       9.968  27.804   9.415  1.00 32.29 LIG-0.65  OA
ATOM     28 OD1  ASP C 507       8.849  28.615   7.711  1.00 33.73 LIG-0.65  OA
ENDBRANCH 25 26
ENDBRANCH 1 25
TORSDOF 12
ENDMDL
MODEL 26
USER: ADFR SOLUTION from run 40
USER: SCORE 10.950338 LL:  -1.492 LR:  -9.471 RR:   0.000 FEB:  -5.891
USER: RMSD 5.927456
USER: SEED 39
USER: STATUS no improvement in best in 21 clusters for 5 generations
USER: GENES 14
USER: genes 0 Translation |==|  0.51945 0.42756 0.56860
USER: genes 1 Rotation |==|  0.68312 0.38964 0.94075 0.60014
USER: genes 2 Torsion [C]-CA--N-[C] |==|  0.80681
USER: genes 3 Torsion [N]-C--CA-[N] |==|  0.95079
USER: genes 4 Torsion [C]-CA--CB-[CG] |==|  0.85303
USER: genes 5 Torsion [CA]-CB--CG-[CD] |==|  0.34160
USER: genes 6 Torsion [CB]-CG--CD-[OE1] |==|  0.74758
USER: genes 7 Torsion [N]-CA--C-[N] |==|  0.39282
USER: genes 8 Torsion [C]-N--CA-[CB] |==|  0.50403
USER: genes 9 Torsion [N]-CA--CB-[CG] |==|  0.72364
USER: genes 10 Torsion [CA]-CB--CG-[CD1] |==|  0.06194
USER: genes 11 Torsion [N]-CA--C-[O] |==|  0.83412
USER: genes 12 Torsion [N]-CA--CB-[CG] |==|  0.86016
USER: genes 13 Torsion [CA]-CB--CG-[OD2] |==|  0.49682
ROOT
ATOM      1  CA  ASP C 507       9.560  24.149   5.871  1.00 33.68 LIG 0.19  C 
ENDROOT
BRANCH 1 2
ATOM      2  N   ASP C 507      10.352  24.275   4.655  1.00 35.05 LIG-0.34  N 
ATOM      3  C   GLU C 506       9.862  24.806   3.542  1.00 36.98 LIG 0.26  C 
ATOM      4 O    GLU C 506       8.692  25.191   3.437  1.00 35.33 LIG-0.27  OA
ATOM      5 H    ASP C 507      11.155  23.976   4.727  1.00 35.05 LIG 0.16  HD
BRANCH 3 6
ATOM      6  CA  GLU C 506      10.819  24.861   2.352  1.00 38.62 LIG 0.40  C 
ATOM      7  N   GLU C 506      12.224  24.695   2.811  1.00 38.98 LIG 0.61  N 
BRANCH 6 8
ATOM      8  CB  GLU C 506      10.461  23.794   1.314  1.00 41.41 LIG 0.06  C 
BRANCH 8 9
ATOM      9  CG  GLU C 506      10.354  22.393   1.883  1.00 54.63 LIG 0.12  C 
BRANCH 9 10
ATOM     10  CD  GLU C 506       9.005  21.750   1.629  1.00 71.07 LIG 0.17  C 
ATOM     11 OE1  GLU C 506       8.099  21.894   2.482  1.00 74.77 LIG-0.65  OA
ATOM     12 OE2  GLU C 506       8.849  21.112   0.563  1.00 73.38 LIG-0.65  OA
ENDBRANCH 9 10
ENDBRANCH 8 9
ENDBRANCH 6 8
ENDBRANCH 3 6
ENDBRANCH 1 2
BRANCH 1 13
ATOM     13  C   ASP C 507       9.319  25.535   6.444  1.00 33.47 LIG 0.24  C 
ATOM     14 O    ASP C 507      10.189  26.406   6.377  1.00 34.83 LIG-0.27  OA
ATOM     15  N   LEU C 508       8.111  25.738   6.964  1.00 31.65 LIG-0.34  N 
ATOM     16 H    LEU C 508       7.501  25.133   7.003  1.00 31.65 LIG 0.16  HD
BRANCH 15 17
ATOM     17  CA  LEU C 508       7.713  27.021   7.522  1.00 32.20 LIG 0.18  C 
BRANCH 17 18
ATOM     18  CB  LEU C 508       6.294  26.913   8.063  1.00 32.28 LIG 0.04  C 
BRANCH 18 19
ATOM     19  CG  LEU C 508       5.320  27.495   7.045  1.00 33.09 LIG-0.02  C 
ATOM     20  CD1 LEU C 508       5.929  27.485   5.676  1.00 32.61 LIG 0.01  C 
ATOM     21  CD2 LEU C 508       4.002  26.736   7.105  1.00 34.13 LIG 0.01  C 
ENDBRANCH 18 19
ENDBRANCH 17 18
BRANCH 17 22
ATOM     22  C   LEU C 508       8.651  27.516   8.607  1.00 33.63 LIG 0.20  C 
ATOM     23 O    LEU C 508       8.803  26.804   9.623  0.50 32.81 LIG-0.65  OA
ATOM     24 OXT  LEU C 508       9.224  28.611   8.433  0.50 35.17 LIG-0.65  OA
ENDBRANCH 17 22
ENDBRANCH 15 17
ENDBRANCH 1 13
BRANCH 1 25
ATOM     25  CB  ASP C 507      10.285  23.250   6.869  1.00 31.02 LIG 0.15  C 
BRANCH 25 26
ATOM     26  CG  ASP C 507      10.725  21.944   6.241  1.00 34.22 LIG 0.17  C 
ATOM     27 OD2  ASP C 507      11.353  21.111   6.932  1.00 32.29 LIG-0.65  OA
ATOM     28 OD1  ASP C 507      10.477  21.773   5.033  1.00 33.73 LIG-0.65  OA
ENDBRANCH 25 26
ENDBRANCH 1 25
TORSDOF 12
ENDMDL
MODEL 27
USER: ADFR SOLUTION from run 10
USER: SCORE 10.526545 LL:  -1.678 LR:  -9.427 RR:   0.000 FEB:  -5.847
USER: RMSD 7.408765
USER: SEED 324416
USER: STATUS no improvement in best in 17 clusters for 5 generations
USER: GENES 14
USER: genes 0 Translation |==|  0.57315 0.40440 0.37141
USER: genes 1 Rotation |==|  0.54522 0.89251 0.19390 0.51396
USER: genes 2 Torsion [C]-CA--N-[C] |==|  0.17628
USER: genes 3 Torsion [N]-C--CA-[N] |==|  0.14193
USER: genes 4 Torsion [C]-CA--CB-[CG] |==|  0.78803
USER: genes 5 Torsion [CA]-CB--CG-[CD] |==|  0.34137
USER: genes 6 Torsion [CB]-CG--CD-[OE1] |==|  0.82475
USER: genes 7 Torsion [N]-CA--C-[N] |==|  0.18329
USER: genes 8 Torsion [C]-N--CA-[CB] |==|  0.19509
USER: genes 9 Torsion [N]-CA--CB-[CG] |==|  0.23916
USER: genes 10 Torsion [CA]-CB--CG-[CD1] |==|  0.36814
USER: genes 11 Torsion [N]-CA--C-[O] |==|  0.54629
USER: genes 12 Torsion [N]-CA--CB-[CG] |==|  0.52182
USER: genes 13 Torsion [CA]-CB--CG-[OD2] |==|  0.95747
ROOT
ATOM      1  CA  ASP C 507      10.486  23.802   2.470  1.00 33.68 LIG 0.19  C 
ENDROOT
BRANCH 1 2
ATOM      2  N   ASP C 507      11.834  23.986   2.989  1.00 35.05 LIG-0.34  N 
ATOM      3  C   GLU C 506      12.319  23.247   3.980  1.00 36.98 LIG 0.26  C 
ATOM      4 O    GLU C 506      11.655  22.383   4.564  1.00 35.33 LIG-0.27  OA
ATOM      5 H    ASP C 507      12.279  24.609   2.599  1.00 35.05 LIG 0.16  HD
BRANCH 3 6
ATOM      6  CA  GLU C 506      13.749  23.567   4.412  1.00 38.62 LIG 0.40  C 
ATOM      7  N   GLU C 506      13.895  25.024   4.673  1.00 38.98 LIG 0.61  N 
BRANCH 6 8
ATOM      8  CB  GLU C 506      14.139  22.756   5.650  1.00 41.41 LIG 0.06  C 
BRANCH 8 9
ATOM      9  CG  GLU C 506      13.540  23.276   6.942  1.00 54.63 LIG 0.12  C 
BRANCH 9 10
ATOM     10  CD  GLU C 506      12.715  22.236   7.676  1.00 71.07 LIG 0.17  C 
ATOM     11 OE1  GLU C 506      11.687  21.782   7.121  1.00 74.77 LIG-0.65  OA
ATOM     12 OE2  GLU C 506      13.108  21.863   8.804  1.00 73.38 LIG-0.65  OA
ENDBRANCH 9 10
ENDBRANCH 8 9
ENDBRANCH 6 8
ENDBRANCH 3 6
ENDBRANCH 1 2
BRANCH 1 13
ATOM     13  C   ASP C 507       9.489  24.118   3.571  1.00 33.47 LIG 0.24  C 
ATOM     14 O    ASP C 507       8.797  23.229   4.071  1.00 34.83 LIG-0.27  OA
ATOM     15  N   LEU C 508       9.461  25.386   3.971  1.00 31.65 LIG-0.34  N 
ATOM     16 H    LEU C 508       9.951  26.006   3.629  1.00 31.65 LIG 0.16  HD
BRANCH 15 17
ATOM     17  CA  LEU C 508       8.586  25.842   5.041  1.00 32.20 LIG 0.18  C 
BRANCH 17 18
ATOM     18  CB  LEU C 508       9.082  25.282   6.366  1.00 32.28 LIG 0.04  C 
BRANCH 18 19
ATOM     19  CG  LEU C 508      10.146  26.211   6.941  1.00 33.09 LIG-0.02  C 
ATOM     20  CD1 LEU C 508       9.870  26.487   8.388  1.00 32.61 LIG 0.01  C 
ATOM     21  CD2 LEU C 508      11.526  25.614   6.711  1.00 34.13 LIG 0.01  C 
ENDBRANCH 18 19
ENDBRANCH 17 18
BRANCH 17 22
ATOM     22  C   LEU C 508       8.479  27.354   5.119  1.00 33.63 LIG 0.20  C 
ATOM     23 O    LEU C 508       8.025  27.858   6.168  0.50 32.81 LIG-0.65  OA
ATOM     24 OXT  LEU C 508       8.849  28.020   4.130  0.50 35.17 LIG-0.65  OA
ENDBRANCH 17 22
ENDBRANCH 15 17
ENDBRANCH 1 13
BRANCH 1 25
ATOM     25  CB  ASP C 507      10.320  22.373   1.960  1.00 31.02 LIG 0.15  C 
BRANCH 25 26
ATOM     26  CG  ASP C 507       9.003  22.178   1.236  1.00 34.22 LIG 0.17  C 
ATOM     27 OD2  ASP C 507       8.098  23.033   1.367  1.00 32.29 LIG-0.65  OA
ATOM     28 OD1  ASP C 507       8.861  21.138   0.566  1.00 33.73 LIG-0.65  OA
ENDBRANCH 25 26
ENDBRANCH 1 25
TORSDOF 12
ENDMDL
MODEL 28
USER: ADFR SOLUTION from run 137
USER: SCORE 11.718469 LL:  -2.419 LR:  -9.368 RR:   0.000 FEB:  -5.789
USER: RMSD 2.508078
USER: SEED 136
USER: STATUS no improvement in best in 20 clusters for 5 generations
USER: GENES 14
USER: genes 0 Translation |==|  0.53302 0.54263 0.59059
USER: genes 1 Rotation |==|  0.50174 0.30309 0.30756 0.91736
USER: genes 2 Torsion [C]-CA--N-[C] |==|  0.15556
USER: genes 3 Torsion [N]-C--CA-[N] |==|  0.89730
USER: genes 4 Torsion [C]-CA--CB-[CG] |==|  0.32860
USER: genes 5 Torsion [CA]-CB--CG-[CD] |==|  0.20823
USER: genes 6 Torsion [CB]-CG--CD-[OE1] |==|  0.16534
USER: genes 7 Torsion [N]-CA--C-[N] |==|  0.13134
USER: genes 8 Torsion [C]-N--CA-[CB] |==|  0.45824
USER: genes 9 Torsion [N]-CA--CB-[CG] |==|  0.69120
USER: genes 10 Torsion [CA]-CB--CG-[CD1] |==|  0.16550
USER: genes 11 Torsion [N]-CA--C-[O] |==|  0.76202
USER: genes 12 Torsion [N]-CA--CB-[CG] |==|  0.88199
USER: genes 13 Torsion [CA]-CB--CG-[OD2] |==|  0.70370
ROOT
ATOM      1  CA  ASP C 507       9.794  25.875   6.251  1.00 33.68 LIG 0.19  C 
ENDROOT
BRANCH 1 2
ATOM      2  N   ASP C 507       9.372  26.499   5.003  1.00 35.05 LIG-0.34  N 
ATOM      3  C   GLU C 506       8.195  26.243   4.445  1.00 36.98 LIG 0.26  C 
ATOM      4 O    GLU C 506       7.391  25.429   4.912  1.00 35.33 LIG-0.27  OA
ATOM      5 H    ASP C 507       9.950  27.041   4.669  1.00 35.05 LIG 0.16  HD
BRANCH 3 6
ATOM      6  CA  GLU C 506       7.906  26.974   3.135  1.00 38.62 LIG 0.40  C 
ATOM      7  N   GLU C 506       8.462  28.353   3.180  1.00 38.98 LIG 0.61  N 
BRANCH 6 8
ATOM      8  CB  GLU C 506       8.474  26.202   1.942  1.00 41.41 LIG 0.06  C 
BRANCH 8 9
ATOM      9  CG  GLU C 506       7.425  25.746   0.947  1.00 54.63 LIG 0.12  C 
BRANCH 9 10
ATOM     10  CD  GLU C 506       6.897  26.872   0.081  1.00 71.07 LIG 0.17  C 
ATOM     11 OE1  GLU C 506       7.703  27.507  -0.638  1.00 74.77 LIG-0.65  OA
ATOM     12 OE2  GLU C 506       5.669  27.111   0.112  1.00 73.38 LIG-0.65  OA
ENDBRANCH 9 10
ENDBRANCH 8 9
ENDBRANCH 6 8
ENDBRANCH 3 6
ENDBRANCH 1 2
BRANCH 1 13
ATOM     13  C   ASP C 507       9.726  24.367   6.092  1.00 33.47 LIG 0.24  C 
ATOM     14 O    ASP C 507       9.154  23.669   6.933  1.00 34.83 LIG-0.27  OA
ATOM     15  N   LEU C 508      10.273  23.882   4.981  1.00 31.65 LIG-0.34  N 
ATOM     16 H    LEU C 508      10.664  24.370   4.390  1.00 31.65 LIG 0.16  HD
BRANCH 15 17
ATOM     17  CA  LEU C 508      10.259  22.462   4.666  1.00 32.20 LIG 0.18  C 
BRANCH 17 18
ATOM     18  CB  LEU C 508      10.614  22.272   3.198  1.00 32.28 LIG 0.04  C 
BRANCH 18 19
ATOM     19  CG  LEU C 508       9.385  21.779   2.441  1.00 33.09 LIG-0.02  C 
ATOM     20  CD1 LEU C 508       8.268  22.771   2.560  1.00 32.61 LIG 0.01  C 
ATOM     21  CD2 LEU C 508       9.757  21.486   0.995  1.00 34.13 LIG 0.01  C 
ENDBRANCH 18 19
ENDBRANCH 17 18
BRANCH 17 22
ATOM     22  C   LEU C 508      11.196  21.648   5.540  1.00 33.63 LIG 0.20  C 
ATOM     23 O    LEU C 508      12.392  21.555   5.192  0.50 32.81 LIG-0.65  OA
ATOM     24 OXT  LEU C 508      10.724  21.110   6.563  0.50 35.17 LIG-0.65  OA
ENDBRANCH 17 22
ENDBRANCH 15 17
ENDBRANCH 1 13
BRANCH 1 25
ATOM     25  CB  ASP C 507       8.905  26.358   7.394  1.00 31.02 LIG 0.15  C 
BRANCH 25 26
ATOM     26  CG  ASP C 507       8.635  27.846   7.315  1.00 34.22 LIG 0.17  C 
ATOM     27 OD2  ASP C 507       9.201  28.616   8.124  1.00 32.29 LIG-0.65  OA
ATOM     28 OD1  ASP C 507       7.817  28.240   6.463  1.00 33.73 LIG-0.65  OA
ENDBRANCH 25 26
ENDBRANCH 1 25
TORSDOF 12
ENDMDL
MODEL 29
USER: ADFR SOLUTION from run 81
USER: SCORE 9.781565 LL:  -1.553 LR:  -9.303 RR:   0.000 FEB:  -5.723
USER: RMSD 8.252088
USER: SEED 80
USER: STATUS no improvement in best in 15 clusters for 5 generations
USER: GENES 14
USER: genes 0 Translation |==|  0.67869 0.44911 0.54817
USER: genes 1 Rotation |==|  0.61554 0.91895 0.25299 0.51100
USER: genes 2 Torsion [C]-CA--N-[C] |==|  0.20560
USER: genes 3 Torsion [N]-C--CA-[N] |==|  0.12939
USER: genes 4 Torsion [C]-CA--CB-[CG] |==|  0.85014
USER: genes 5 Torsion [CA]-CB--CG-[CD] |==|  0.79432
USER: genes 6 Torsion [CB]-CG--CD-[OE1] |==|  0.72555
USER: genes 7 Torsion [N]-CA--C-[N] |==|  0.35043
USER: genes 8 Torsion [C]-N--CA-[CB] |==|  0.14128
USER: genes 9 Torsion [N]-CA--CB-[CG] |==|  0.57711
USER: genes 10 Torsion [CA]-CB--CG-[CD1] |==|  0.75730
USER: genes 11 Torsion [N]-CA--C-[O] |==|  0.19790
USER: genes 12 Torsion [N]-CA--CB-[CG] |==|  0.32540
USER: genes 13 Torsion [CA]-CB--CG-[OD2] |==|  0.20717
ROOT
ATOM      1  CA  ASP C 507      12.306  24.473   5.519  1.00 33.68 LIG 0.19  C 
ENDROOT
BRANCH 1 2
ATOM      2  N   ASP C 507      13.530  24.212   6.266  1.00 35.05 LIG-0.34  N 
ATOM      3  C   GLU C 506      13.735  23.071   6.913  1.00 36.98 LIG 0.26  C 
ATOM      4 O    GLU C 506      12.893  22.168   6.971  1.00 35.33 LIG-0.27  OA
ATOM      5 H    ASP C 507      14.097  24.857   6.247  1.00 35.05 LIG 0.16  HD
BRANCH 3 6
ATOM      6  CA  GLU C 506      15.067  22.955   7.652  1.00 38.62 LIG 0.40  C 
ATOM      7  N   GLU C 506      15.332  24.190   8.437  1.00 38.98 LIG 0.61  N 
BRANCH 6 8
ATOM      8  CB  GLU C 506      15.080  21.725   8.563  1.00 41.41 LIG 0.06  C 
BRANCH 8 9
ATOM      9  CG  GLU C 506      13.916  21.662   9.532  1.00 54.63 LIG 0.12  C 
BRANCH 9 10
ATOM     10  CD  GLU C 506      14.043  22.647  10.678  1.00 71.07 LIG 0.17  C 
ATOM     11 OE1  GLU C 506      14.474  22.236  11.780  1.00 74.77 LIG-0.65  OA
ATOM     12 OE2  GLU C 506      13.724  23.839  10.466  1.00 73.38 LIG-0.65  OA
ENDBRANCH 9 10
ENDBRANCH 8 9
ENDBRANCH 6 8
ENDBRANCH 3 6
ENDBRANCH 1 2
BRANCH 1 13
ATOM     13  C   ASP C 507      11.180  24.743   6.501  1.00 33.47 LIG 0.24  C 
ATOM     14 O    ASP C 507      10.949  23.962   7.427  1.00 34.83 LIG-0.27  OA
ATOM     15  N   LEU C 508      10.519  25.882   6.315  1.00 31.65 LIG-0.34  N 
ATOM     16 H    LEU C 508      10.686  26.432   5.675  1.00 31.65 LIG 0.16  HD
BRANCH 15 17
ATOM     17  CA  LEU C 508       9.436  26.302   7.192  1.00 32.20 LIG 0.18  C 
BRANCH 17 18
ATOM     18  CB  LEU C 508       9.906  26.225   8.638  1.00 32.28 LIG 0.04  C 
BRANCH 18 19
ATOM     19  CG  LEU C 508       8.706  25.978   9.546  1.00 33.09 LIG-0.02  C 
ATOM     20  CD1 LEU C 508       8.073  27.278   9.938  1.00 32.61 LIG 0.01  C 
ATOM     21  CD2 LEU C 508       7.730  25.033   8.860  1.00 34.13 LIG 0.01  C 
ENDBRANCH 18 19
ENDBRANCH 17 18
BRANCH 17 22
ATOM     22  C   LEU C 508       8.924  27.696   6.881  1.00 33.63 LIG 0.20  C 
ATOM     23 O    LEU C 508       8.266  27.861   5.831  0.50 32.81 LIG-0.65  OA
ATOM     24 OXT  LEU C 508       9.188  28.611   7.688  0.50 35.17 LIG-0.65  OA
ENDBRANCH 17 22
ENDBRANCH 15 17
ENDBRANCH 1 13
BRANCH 1 25
ATOM     25  CB  ASP C 507      11.988  23.282   4.618  1.00 31.02 LIG 0.15  C 
BRANCH 25 26
ATOM     26  CG  ASP C 507      10.674  22.625   4.989  1.00 34.22 LIG 0.17  C 
ATOM     27 OD2  ASP C 507       9.598  23.190   4.689  1.00 32.29 LIG-0.65  OA
ATOM     28 OD1  ASP C 507      10.724  21.556   5.626  1.00 33.73 LIG-0.65  OA
ENDBRANCH 25 26
ENDBRANCH 1 25
TORSDOF 12
ENDMDL
MODEL 30
USER: ADFR SOLUTION from run 39
USER: SCORE 11.090617 LL:  -2.067 LR:  -9.291 RR:   0.000 FEB:  -5.711
USER: RMSD 3.876644
USER: SEED 38
USER: STATUS no improvement in best in 15 clusters for 5 generations
USER: GENES 14
USER: genes 0 Translation |==|  0.51246 0.52361 0.64242
USER: genes 1 Rotation |==|  0.58607 0.48845 0.42930 0.98730
USER: genes 2 Torsion [C]-CA--N-[C] |==|  0.64315
USER: genes 3 Torsion [N]-C--CA-[N] |==|  0.90313
USER: genes 4 Torsion [C]-CA--CB-[CG] |==|  0.52135
USER: genes 5 Torsion [CA]-CB--CG-[CD] |==|  0.25581
USER: genes 6 Torsion [CB]-CG--CD-[OE1] |==|  0.82786
USER: genes 7 Torsion [N]-CA--C-[N] |==|  0.49444
USER: genes 8 Torsion [C]-N--CA-[CB] |==|  0.49518
USER: genes 9 Torsion [N]-CA--CB-[CG] |==|  0.71353
USER: genes 10 Torsion [CA]-CB--CG-[CD1] |==|  0.74176
USER: genes 11 Torsion [N]-CA--C-[O] |==|  0.38111
USER: genes 12 Torsion [N]-CA--CB-[CG] |==|  0.97744
USER: genes 13 Torsion [CA]-CB--CG-[OD2] |==|  0.79183
ROOT
ATOM      1  CA  ASP C 507       9.439  25.590   7.145  1.00 33.68 LIG 0.19  C 
ENDROOT
BRANCH 1 2
ATOM      2  N   ASP C 507       8.090  25.919   6.703  1.00 35.05 LIG-0.34  N 
ATOM      3  C   GLU C 506       7.716  27.164   6.435  1.00 36.98 LIG 0.26  C 
ATOM      4 O    GLU C 506       8.462  28.139   6.582  1.00 35.33 LIG-0.27  OA
ATOM      5 H    ASP C 507       7.568  25.239   6.633  1.00 35.05 LIG 0.16  HD
BRANCH 3 6
ATOM      6  CA  GLU C 506       6.267  27.343   5.987  1.00 38.62 LIG 0.40  C 
ATOM      7  N   GLU C 506       5.831  26.178   5.170  1.00 38.98 LIG 0.61  N 
BRANCH 6 8
ATOM      8  CB  GLU C 506       5.342  27.531   7.192  1.00 41.41 LIG 0.06  C 
BRANCH 8 9
ATOM      9  CG  GLU C 506       3.867  27.531   6.843  1.00 54.63 LIG 0.12  C 
BRANCH 9 10
ATOM     10  CD  GLU C 506       3.234  26.156   6.938  1.00 71.07 LIG 0.17  C 
ATOM     11 OE1  GLU C 506       3.657  25.246   6.188  1.00 74.77 LIG-0.65  OA
ATOM     12 OE2  GLU C 506       2.320  25.987   7.777  1.00 73.38 LIG-0.65  OA
ENDBRANCH 9 10
ENDBRANCH 8 9
ENDBRANCH 6 8
ENDBRANCH 3 6
ENDBRANCH 1 2
BRANCH 1 13
ATOM     13  C   ASP C 507       9.987  24.480   6.265  1.00 33.47 LIG 0.24  C 
ATOM     14 O    ASP C 507       9.311  24.011   5.346  1.00 34.83 LIG-0.27  OA
ATOM     15  N   LEU C 508      11.234  24.103   6.528  1.00 31.65 LIG-0.34  N 
ATOM     16 H    LEU C 508      11.710  24.437   7.163  1.00 31.65 LIG 0.16  HD
BRANCH 15 17
ATOM     17  CA  LEU C 508      11.914  23.077   5.752  1.00 32.20 LIG 0.18  C 
BRANCH 17 18
ATOM     18  CB  LEU C 508      13.334  22.912   6.277  1.00 32.28 LIG 0.04  C 
BRANCH 18 19
ATOM     19  CG  LEU C 508      14.307  23.601   5.327  1.00 33.09 LIG-0.02  C 
ATOM     20  CD1 LEU C 508      14.826  22.626   4.315  1.00 32.61 LIG 0.01  C 
ATOM     21  CD2 LEU C 508      13.633  24.806   4.688  1.00 34.13 LIG 0.01  C 
ENDBRANCH 18 19
ENDBRANCH 17 18
BRANCH 17 22
ATOM     22  C   LEU C 508      11.192  21.742   5.768  1.00 33.63 LIG 0.20  C 
ATOM     23 O    LEU C 508      11.099  21.111   4.693  0.50 32.81 LIG-0.65  OA
ATOM     24 OXT  LEU C 508      10.724  21.341   6.853  0.50 35.17 LIG-0.65  OA
ENDBRANCH 17 22
ENDBRANCH 15 17
ENDBRANCH 1 13
BRANCH 1 25
ATOM     25  CB  ASP C 507       9.414  25.177   8.614  1.00 31.02 LIG 0.15  C 
BRANCH 25 26
ATOM     26  CG  ASP C 507       8.058  25.411   9.247  1.00 34.22 LIG 0.17  C 
ATOM     27 OD2  ASP C 507       7.707  26.578   9.535  1.00 32.29 LIG-0.65  OA
ATOM     28 OD1  ASP C 507       7.357  24.412   9.496  1.00 33.73 LIG-0.65  OA
ENDBRANCH 25 26
ENDBRANCH 1 25
TORSDOF 12
ENDMDL
MODEL 31
USER: ADFR SOLUTION from run 164
USER: SCORE 11.121790 LL:  -1.941 LR:  -9.265 RR:   0.000 FEB:  -5.685
USER: RMSD 6.066365
USER: SEED 163
USER: STATUS no improvement in best in 17 clusters for 5 generations
USER: GENES 14
USER: genes 0 Translation |==|  0.44097 0.58265 0.38239
USER: genes 1 Rotation |==|  0.42172 0.07355 0.68491 0.66681
USER: genes 2 Torsion [C]-CA--N-[C] |==|  0.15466
USER: genes 3 Torsion [N]-C--CA-[N] |==|  0.16714
USER: genes 4 Torsion [C]-CA--CB-[CG] |==|  0.25463
USER: genes 5 Torsion [CA]-CB--CG-[CD] |==|  0.75460
USER: genes 6 Torsion [CB]-CG--CD-[OE1] |==|  0.89642
USER: genes 7 Torsion [N]-CA--C-[N] |==|  0.13867
USER: genes 8 Torsion [C]-N--CA-[CB] |==|  0.39168
USER: genes 9 Torsion [N]-CA--CB-[CG] |==|  0.88045
USER: genes 10 Torsion [CA]-CB--CG-[CD1] |==|  0.43991
USER: genes 11 Torsion [N]-CA--C-[O] |==|  0.64622
USER: genes 12 Torsion [N]-CA--CB-[CG] |==|  0.68386
USER: genes 13 Torsion [CA]-CB--CG-[OD2] |==|  0.65347
ROOT
ATOM      1  CA  ASP C 507       8.206  26.476   2.659  1.00 33.68 LIG 0.19  C 
ENDROOT
BRANCH 1 2
ATOM      2  N   ASP C 507       9.482  25.827   2.390  1.00 35.05 LIG-0.34  N 
ATOM      3  C   GLU C 506       9.728  24.573   2.749  1.00 36.98 LIG 0.26  C 
ATOM      4 O    GLU C 506       8.919  23.878   3.374  1.00 35.33 LIG-0.27  OA
ATOM      5 H    ASP C 507      10.051  26.327   1.983  1.00 35.05 LIG 0.16  HD
BRANCH 3 6
ATOM      6  CA  GLU C 506      11.117  24.040   2.399  1.00 38.62 LIG 0.40  C 
ATOM      7  N   GLU C 506      12.167  24.859   3.063  1.00 38.98 LIG 0.61  N 
BRANCH 6 8
ATOM      8  CB  GLU C 506      11.253  22.568   2.794  1.00 41.41 LIG 0.06  C 
BRANCH 8 9
ATOM      9  CG  GLU C 506      10.885  21.597   1.689  1.00 54.63 LIG 0.12  C 
BRANCH 9 10
ATOM     10  CD  GLU C 506       9.410  21.244   1.674  1.00 71.07 LIG 0.17  C 
ATOM     11 OE1  GLU C 506       8.811  21.115   2.767  1.00 74.77 LIG-0.65  OA
ATOM     12 OE2  GLU C 506       8.849  21.111   0.563  1.00 73.38 LIG-0.65  OA
ENDBRANCH 9 10
ENDBRANCH 8 9
ENDBRANCH 6 8
ENDBRANCH 3 6
ENDBRANCH 1 2
BRANCH 1 13
ATOM     13  C   ASP C 507       7.920  26.397   4.148  1.00 33.47 LIG 0.24  C 
ATOM     14 O    ASP C 507       6.847  25.952   4.563  1.00 34.83 LIG-0.27  OA
ATOM     15  N   LEU C 508       8.910  26.790   4.944  1.00 31.65 LIG-0.34  N 
ATOM     16 H    LEU C 508       9.663  27.092   4.655  1.00 31.65 LIG 0.16  HD
BRANCH 15 17
ATOM     17  CA  LEU C 508       8.805  26.743   6.394  1.00 32.20 LIG 0.18  C 
BRANCH 17 18
ATOM     18  CB  LEU C 508      10.140  26.299   6.978  1.00 32.28 LIG 0.04  C 
BRANCH 18 19
ATOM     19  CG  LEU C 508      10.694  25.145   6.150  1.00 33.09 LIG-0.02  C 
ATOM     20  CD1 LEU C 508      12.177  25.032   6.341  1.00 32.61 LIG 0.01  C 
ATOM     21  CD2 LEU C 508       9.959  23.861   6.504  1.00 34.13 LIG 0.01  C 
ENDBRANCH 18 19
ENDBRANCH 17 18
BRANCH 17 22
ATOM     22  C   LEU C 508       8.381  28.066   7.005  1.00 33.63 LIG 0.20  C 
ATOM     23 O    LEU C 508       9.085  28.544   7.920  0.50 32.81 LIG-0.65  OA
ATOM     24 OXT  LEU C 508       7.349  28.611   6.563  0.50 35.17 LIG-0.65  OA
ENDBRANCH 17 22
ENDBRANCH 15 17
ENDBRANCH 1 13
BRANCH 1 25
ATOM     25  CB  ASP C 507       7.104  25.805   1.843  1.00 31.02 LIG 0.15  C 
BRANCH 25 26
ATOM     26  CG  ASP C 507       6.528  26.736   0.795  1.00 34.22 LIG 0.17  C 
ATOM     27 OD2  ASP C 507       5.295  26.950   0.775  1.00 32.29 LIG-0.65  OA
ATOM     28 OD1  ASP C 507       7.314  27.220  -0.041  1.00 33.73 LIG-0.65  OA
ENDBRANCH 25 26
ENDBRANCH 1 25
TORSDOF 12
ENDMDL
MODEL 32
USER: ADFR SOLUTION from run 134
USER: SCORE 10.592611 LL:  -1.432 LR:  -9.264 RR:   0.000 FEB:  -5.684
USER: RMSD 7.161042
USER: SEED 133
USER: STATUS no improvement in best in 23 clusters for 5 generations
USER: GENES 14
USER: genes 0 Translation |==|  0.66186 0.39694 0.69095
USER: genes 1 Rotation |==|  0.67940 0.52180 0.96583 0.51858
USER: genes 2 Torsion [C]-CA--N-[C] |==|  0.86665
USER: genes 3 Torsion [N]-C--CA-[N] |==|  0.88079
USER: genes 4 Torsion [C]-CA--CB-[CG] |==|  0.94183
USER: genes 5 Torsion [CA]-CB--CG-[CD] |==|  0.22568
USER: genes 6 Torsion [CB]-CG--CD-[OE1] |==|  0.08338
USER: genes 7 Torsion [N]-CA--C-[N] |==|  0.37702
USER: genes 8 Torsion [C]-N--CA-[CB] |==|  0.14245
USER: genes 9 Torsion [N]-CA--CB-[CG] |==|  0.62703
USER: genes 10 Torsion [CA]-CB--CG-[CD1] |==|  0.71990
USER: genes 11 Torsion [N]-CA--C-[O] |==|  0.58468
USER: genes 12 Torsion [N]-CA--CB-[CG] |==|  0.79331
USER: genes 13 Torsion [CA]-CB--CG-[OD2] |==|  0.64239
ROOT
ATOM      1  CA  ASP C 507      12.016  23.690   7.982  1.00 33.68 LIG 0.19  C 
ENDROOT
BRANCH 1 2
ATOM      2  N   ASP C 507      12.782  23.744   6.744  1.00 35.05 LIG-0.34  N 
ATOM      3  C   GLU C 506      12.211  23.970   5.567  1.00 36.98 LIG 0.26  C 
ATOM      4 O    GLU C 506      10.991  24.105   5.424  1.00 35.33 LIG-0.27  OA
ATOM      5 H    ASP C 507      13.626  23.617   6.847  1.00 35.05 LIG 0.16  HD
BRANCH 3 6
ATOM      6  CA  GLU C 506      13.152  23.991   4.363  1.00 38.62 LIG 0.40  C 
ATOM      7  N   GLU C 506      14.392  24.745   4.690  1.00 38.98 LIG 0.61  N 
BRANCH 6 8
ATOM      8  CB  GLU C 506      13.491  22.568   3.910  1.00 41.41 LIG 0.06  C 
BRANCH 8 9
ATOM      9  CG  GLU C 506      13.274  21.513   4.977  1.00 54.63 LIG 0.12  C 
BRANCH 9 10
ATOM     10  CD  GLU C 506      11.827  21.079   5.098  1.00 71.07 LIG 0.17  C 
ATOM     11 OE1  GLU C 506      11.100  21.115   4.078  1.00 74.77 LIG-0.65  OA
ATOM     12 OE2  GLU C 506      11.422  20.686   6.216  1.00 73.38 LIG-0.65  OA
ENDBRANCH 9 10
ENDBRANCH 8 9
ENDBRANCH 6 8
ENDBRANCH 3 6
ENDBRANCH 1 2
BRANCH 1 13
ATOM     13  C   ASP C 507      11.092  24.893   8.039  1.00 33.47 LIG 0.24  C 
ATOM     14 O    ASP C 507      11.486  26.010   7.695  1.00 34.83 LIG-0.27  OA
ATOM     15  N   LEU C 508       9.847  24.641   8.433  1.00 31.65 LIG-0.34  N 
ATOM     16 H    LEU C 508       9.568  23.860   8.664  1.00 31.65 LIG 0.16  HD
BRANCH 15 17
ATOM     17  CA  LEU C 508       8.831  25.681   8.507  1.00 32.20 LIG 0.18  C 
BRANCH 17 18
ATOM     18  CB  LEU C 508       8.789  26.434   7.185  1.00 32.28 LIG 0.04  C 
BRANCH 18 19
ATOM     19  CG  LEU C 508       8.747  27.933   7.458  1.00 33.09 LIG-0.02  C 
ATOM     20  CD1 LEU C 508       7.348  28.450   7.312  1.00 32.61 LIG 0.01  C 
ATOM     21  CD2 LEU C 508       9.338  28.220   8.831  1.00 34.13 LIG 0.01  C 
ENDBRANCH 18 19
ENDBRANCH 17 18
BRANCH 17 22
ATOM     22  C   LEU C 508       7.453  25.144   8.848  1.00 33.63 LIG 0.20  C 
ATOM     23 O    LEU C 508       6.458  25.750   8.397  0.50 32.81 LIG-0.65  OA
ATOM     24 OXT  LEU C 508       7.381  24.124   9.563  0.50 35.17 LIG-0.65  OA
ENDBRANCH 17 22
ENDBRANCH 15 17
ENDBRANCH 1 13
BRANCH 1 25
ATOM     25  CB  ASP C 507      12.967  23.659   9.176  1.00 31.02 LIG 0.15  C 
BRANCH 25 26
ATOM     26  CG  ASP C 507      13.632  22.307   9.336  1.00 34.22 LIG 0.17  C 
ATOM     27 OD2  ASP C 507      13.600  21.735  10.450  1.00 32.29 LIG-0.65  OA
ATOM     28 OD1  ASP C 507      14.227  21.836   8.350  1.00 33.73 LIG-0.65  OA
ENDBRANCH 25 26
ENDBRANCH 1 25
TORSDOF 12
ENDMDL
MODEL 33
USER: ADFR SOLUTION from run 89
USER: SCORE 10.998948 LL:  -2.037 LR:  -9.198 RR:   0.000 FEB:  -5.618
USER: RMSD 3.880725
USER: SEED 88
USER: STATUS no improvement in best in 18 clusters for 5 generations
USER: GENES 14
USER: genes 0 Translation |==|  0.47737 0.52585 0.61662
USER: genes 1 Rotation |==|  0.70351 0.55089 0.41459 0.94575
USER: genes 2 Torsion [C]-CA--N-[C] |==|  0.74750
USER: genes 3 Torsion [N]-C--CA-[N] |==|  0.42162
USER: genes 4 Torsion [C]-CA--CB-[CG] |==|  0.41579
USER: genes 5 Torsion [CA]-CB--CG-[CD] |==|  0.87442
USER: genes 6 Torsion [CB]-CG--CD-[OE1] |==|  0.68072
USER: genes 7 Torsion [N]-CA--C-[N] |==|  0.89746
USER: genes 8 Torsion [C]-N--CA-[CB] |==|  0.19203
USER: genes 9 Torsion [N]-CA--CB-[CG] |==|  0.58470
USER: genes 10 Torsion [CA]-CB--CG-[CD1] |==|  0.37007
USER: genes 11 Torsion [N]-CA--C-[O] |==|  0.89663
USER: genes 12 Torsion [N]-CA--CB-[CG] |==|  0.88203
USER: genes 13 Torsion [CA]-CB--CG-[OD2] |==|  0.80011
ROOT
ATOM      1  CA  ASP C 507       8.834  25.624   6.700  1.00 33.68 LIG 0.19  C 
ENDROOT
BRANCH 1 2
ATOM      2  N   ASP C 507       7.458  26.101   6.737  1.00 35.05 LIG-0.34  N 
ATOM      3  C   GLU C 506       7.139  27.364   6.481  1.00 36.98 LIG 0.26  C 
ATOM      4 O    GLU C 506       7.980  28.236   6.238  1.00 35.33 LIG-0.27  OA
ATOM      5 H    ASP C 507       6.881  25.495   6.938  1.00 35.05 LIG 0.16  HD
BRANCH 3 6
ATOM      6  CA  GLU C 506       5.652  27.706   6.567  1.00 38.62 LIG 0.40  C 
ATOM      7  N   GLU C 506       5.471  29.135   6.938  1.00 38.98 LIG 0.61  N 
BRANCH 6 8
ATOM      8  CB  GLU C 506       4.945  27.400   5.244  1.00 41.41 LIG 0.06  C 
BRANCH 8 9
ATOM      9  CG  GLU C 506       3.489  27.006   5.401  1.00 54.63 LIG 0.12  C 
BRANCH 9 10
ATOM     10  CD  GLU C 506       3.261  26.003   6.515  1.00 71.07 LIG 0.17  C 
ATOM     11 OE1  GLU C 506       2.849  24.857   6.218  1.00 74.77 LIG-0.65  OA
ATOM     12 OE2  GLU C 506       3.510  26.361   7.688  1.00 73.38 LIG-0.65  OA
ENDBRANCH 9 10
ENDBRANCH 8 9
ENDBRANCH 6 8
ENDBRANCH 3 6
ENDBRANCH 1 2
BRANCH 1 13
ATOM     13  C   ASP C 507       9.141  25.123   5.300  1.00 33.47 LIG 0.24  C 
ATOM     14 O    ASP C 507      10.265  25.261   4.812  1.00 34.83 LIG-0.27  OA
ATOM     15  N   LEU C 508       8.142  24.498   4.682  1.00 31.65 LIG-0.34  N 
ATOM     16 H    LEU C 508       7.360  24.393   5.026  1.00 31.65 LIG 0.16  HD
BRANCH 15 17
ATOM     17  CA  LEU C 508       8.288  23.930   3.351  1.00 32.20 LIG 0.18  C 
BRANCH 17 18
ATOM     18  CB  LEU C 508       9.220  22.728   3.419  1.00 32.28 LIG 0.04  C 
BRANCH 18 19
ATOM     19  CG  LEU C 508       9.969  22.593   2.098  1.00 33.09 LIG-0.02  C 
ATOM     20  CD1 LEU C 508      11.430  22.371   2.348  1.00 32.61 LIG 0.01  C 
ATOM     21  CD2 LEU C 508       9.342  21.486   1.264  1.00 34.13 LIG 0.01  C 
ENDBRANCH 18 19
ENDBRANCH 17 18
BRANCH 17 22
ATOM     22  C   LEU C 508       6.965  23.531   2.725  1.00 33.63 LIG 0.20  C 
ATOM     23 O    LEU C 508       6.086  23.042   3.467  0.50 32.81 LIG-0.65  OA
ATOM     24 OXT  LEU C 508       6.819  23.709   1.498  0.50 35.17 LIG-0.65  OA
ENDBRANCH 17 22
ENDBRANCH 15 17
ENDBRANCH 1 13
BRANCH 1 25
ATOM     25  CB  ASP C 507       9.027  24.525   7.741  1.00 31.02 LIG 0.15  C 
BRANCH 25 26
ATOM     26  CG  ASP C 507       8.350  24.862   9.054  1.00 34.22 LIG 0.17  C 
ATOM     27 OD2  ASP C 507       8.837  25.755   9.784  1.00 32.29 LIG-0.65  OA
ATOM     28 OD1  ASP C 507       7.349  24.195   9.375  1.00 33.73 LIG-0.65  OA
ENDBRANCH 25 26
ENDBRANCH 1 25
TORSDOF 12
ENDMDL
MODEL 34
USER: ADFR SOLUTION from run 99
USER: SCORE 10.458357 LL:  -1.707 LR:  -9.178 RR:   0.000 FEB:  -5.599
USER: RMSD 5.819259
USER: SEED 98
USER: STATUS no improvement in best in 15 clusters for 5 generations
USER: GENES 14
USER: genes 0 Translation |==|  0.46473 0.55602 0.54866
USER: genes 1 Rotation |==|  0.50418 0.20587 0.09568 0.50064
USER: genes 2 Torsion [C]-CA--N-[C] |==|  0.67657
USER: genes 3 Torsion [N]-C--CA-[N] |==|  0.13411
USER: genes 4 Torsion [C]-CA--CB-[CG] |==|  0.26708
USER: genes 5 Torsion [CA]-CB--CG-[CD] |==|  0.79837
USER: genes 6 Torsion [CB]-CG--CD-[OE1] |==|  0.27799
USER: genes 7 Torsion [N]-CA--C-[N] |==|  0.84444
USER: genes 8 Torsion [C]-N--CA-[CB] |==|  0.14954
USER: genes 9 Torsion [N]-CA--CB-[CG] |==|  0.64433
USER: genes 10 Torsion [CA]-CB--CG-[CD1] |==|  0.72993
USER: genes 11 Torsion [N]-CA--C-[O] |==|  0.94844
USER: genes 12 Torsion [N]-CA--CB-[CG] |==|  0.77685
USER: genes 13 Torsion [CA]-CB--CG-[OD2] |==|  0.93537
ROOT
ATOM      1  CA  ASP C 507       8.616  26.076   5.527  1.00 33.68 LIG 0.19  C 
ENDROOT
BRANCH 1 2
ATOM      2  N   ASP C 507      10.008  25.782   5.216  1.00 35.05 LIG-0.34  N 
ATOM      3  C   GLU C 506      10.652  24.753   5.754  1.00 36.98 LIG 0.26  C 
ATOM      4 O    GLU C 506      10.139  23.998   6.588  1.00 35.33 LIG-0.27  OA
ATOM      5 H    ASP C 507      10.367  26.330   4.660  1.00 35.05 LIG 0.16  HD
BRANCH 3 6
ATOM      6  CA  GLU C 506      12.109  24.583   5.329  1.00 38.62 LIG 0.40  C 
ATOM      7  N   GLU C 506      12.833  25.878   5.436  1.00 38.98 LIG 0.61  N 
BRANCH 6 8
ATOM      8  CB  GLU C 506      12.802  23.508   6.171  1.00 41.41 LIG 0.06  C 
BRANCH 8 9
ATOM      9  CG  GLU C 506      12.828  22.138   5.522  1.00 54.63 LIG 0.12  C 
BRANCH 9 10
ATOM     10  CD  GLU C 506      11.473  21.458   5.514  1.00 71.07 LIG 0.17  C 
ATOM     11 OE1  GLU C 506      10.792  21.486   4.463  1.00 74.77 LIG-0.65  OA
ATOM     12 OE2  GLU C 506      11.099  20.882   6.561  1.00 73.38 LIG-0.65  OA
ENDBRANCH 9 10
ENDBRANCH 8 9
ENDBRANCH 6 8
ENDBRANCH 3 6
ENDBRANCH 1 2
BRANCH 1 13
ATOM     13  C   ASP C 507       7.789  25.934   4.262  1.00 33.47 LIG 0.24  C 
ATOM     14 O    ASP C 507       6.795  25.205   4.235  1.00 34.83 LIG-0.27  OA
ATOM     15  N   LEU C 508       8.187  26.675   3.231  1.00 31.65 LIG-0.34  N 
ATOM     16 H    LEU C 508       8.875  27.191   3.252  1.00 31.65 LIG 0.16  HD
BRANCH 15 17
ATOM     17  CA  LEU C 508       7.480  26.677   1.959  1.00 32.20 LIG 0.18  C 
BRANCH 17 18
ATOM     18  CB  LEU C 508       6.012  26.994   2.204  1.00 32.28 LIG 0.04  C 
BRANCH 18 19
ATOM     19  CG  LEU C 508       5.147  25.931   1.534  1.00 33.09 LIG-0.02  C 
ATOM     20  CD1 LEU C 508       4.676  26.410   0.195  1.00 32.61 LIG 0.01  C 
ATOM     21  CD2 LEU C 508       5.917  24.622   1.451  1.00 34.13 LIG 0.01  C 
ENDBRANCH 18 19
ENDBRANCH 17 18
BRANCH 17 22
ATOM     22  C   LEU C 508       8.066  27.651   0.954  1.00 33.63 LIG 0.20  C 
ATOM     23 O    LEU C 508       8.803  28.565   1.381  0.50 32.81 LIG-0.65  OA
ATOM     24 OXT  LEU C 508       7.781  27.493  -0.251  0.50 35.17 LIG-0.65  OA
ENDBRANCH 17 22
ENDBRANCH 15 17
ENDBRANCH 1 13
BRANCH 1 25
ATOM     25  CB  ASP C 507       8.504  27.482   6.112  1.00 31.02 LIG 0.15  C 
BRANCH 25 26
ATOM     26  CG  ASP C 507       8.871  27.517   7.581  1.00 34.22 LIG 0.17  C 
ATOM     27 OD2  ASP C 507       8.786  26.468   8.260  1.00 32.29 LIG-0.65  OA
ATOM     28 OD1  ASP C 507       9.205  28.613   8.067  1.00 33.73 LIG-0.65  OA
ENDBRANCH 25 26
ENDBRANCH 1 25
TORSDOF 12
ENDMDL
MODEL 35
USER: ADFR SOLUTION from run 54
USER: SCORE 11.373232 LL:  -2.312 LR:  -9.146 RR:   0.000 FEB:  -5.566
USER: RMSD 4.481308
USER: SEED 53
USER: STATUS no improvement in best in 13 clusters for 5 generations
USER: GENES 14
USER: genes 0 Translation |==|  0.50925 0.47375 0.58295
USER: genes 1 Rotation |==|  0.71861 0.58470 0.36296 0.91983
USER: genes 2 Torsion [C]-CA--N-[C] |==|  0.78333
USER: genes 3 Torsion [N]-C--CA-[N] |==|  0.36604
USER: genes 4 Torsion [C]-CA--CB-[CG] |==|  0.26968
USER: genes 5 Torsion [CA]-CB--CG-[CD] |==|  0.15127
USER: genes 6 Torsion [CB]-CG--CD-[OE1] |==|  0.96583
USER: genes 7 Torsion [N]-CA--C-[N] |==|  0.90133
USER: genes 8 Torsion [C]-N--CA-[CB] |==|  0.21274
USER: genes 9 Torsion [N]-CA--CB-[CG] |==|  0.70308
USER: genes 10 Torsion [CA]-CB--CG-[CD1] |==|  0.32275
USER: genes 11 Torsion [N]-CA--C-[O] |==|  0.41951
USER: genes 12 Torsion [N]-CA--CB-[CG] |==|  0.46749
USER: genes 13 Torsion [CA]-CB--CG-[OD2] |==|  0.60694
ROOT
ATOM      1  CA  ASP C 507       9.383  24.842   6.119  1.00 33.68 LIG 0.19  C 
ENDROOT
BRANCH 1 2
ATOM      2  N   ASP C 507       8.137  25.502   6.484  1.00 35.05 LIG-0.34  N 
ATOM      3  C   GLU C 506       7.889  26.769   6.175  1.00 36.98 LIG 0.26  C 
ATOM      4 O    GLU C 506       8.707  27.495   5.600  1.00 35.33 LIG-0.27  OA
ATOM      5 H    ASP C 507       7.585  24.999   6.911  1.00 35.05 LIG 0.16  HD
BRANCH 3 6
ATOM      6  CA  GLU C 506       6.538  27.314   6.634  1.00 38.62 LIG 0.40  C 
ATOM      7  N   GLU C 506       6.713  28.626   7.313  1.00 38.98 LIG 0.61  N 
BRANCH 6 8
ATOM      8  CB  GLU C 506       5.573  27.445   5.453  1.00 41.41 LIG 0.06  C 
BRANCH 8 9
ATOM      9  CG  GLU C 506       4.621  26.274   5.303  1.00 54.63 LIG 0.12  C 
BRANCH 9 10
ATOM     10  CD  GLU C 506       3.830  25.986   6.564  1.00 71.07 LIG 0.17  C 
ATOM     11 OE1  GLU C 506       4.179  26.539   7.632  1.00 74.77 LIG-0.65  OA
ATOM     12 OE2  GLU C 506       2.848  25.214   6.478  1.00 73.38 LIG-0.65  OA
ENDBRANCH 9 10
ENDBRANCH 8 9
ENDBRANCH 6 8
ENDBRANCH 3 6
ENDBRANCH 1 2
BRANCH 1 13
ATOM     13  C   ASP C 507       9.326  24.464   4.649  1.00 33.47 LIG 0.24  C 
ATOM     14 O    ASP C 507      10.346  24.471   3.955  1.00 34.83 LIG-0.27  OA
ATOM     15  N   LEU C 508       8.132  24.088   4.200  1.00 31.65 LIG-0.34  N 
ATOM     16 H    LEU C 508       7.422  24.074   4.687  1.00 31.65 LIG 0.16  HD
BRANCH 15 17
ATOM     17  CA  LEU C 508       7.920  23.663   2.825  1.00 32.20 LIG 0.18  C 
BRANCH 17 18
ATOM     18  CB  LEU C 508       8.448  22.245   2.653  1.00 32.28 LIG 0.04  C 
BRANCH 18 19
ATOM     19  CG  LEU C 508       9.742  22.283   1.848  1.00 33.09 LIG-0.02  C 
ATOM     20  CD1 LEU C 508      10.888  21.795   2.681  1.00 32.61 LIG 0.01  C 
ATOM     21  CD2 LEU C 508       9.570  21.486   0.563  1.00 34.13 LIG 0.01  C 
ENDBRANCH 18 19
ENDBRANCH 17 18
BRANCH 17 22
ATOM     22  C   LEU C 508       6.465  23.735   2.397  1.00 33.63 LIG 0.20  C 
ATOM     23 O    LEU C 508       6.217  23.938   1.190  0.50 32.81 LIG-0.65  OA
ATOM     24 OXT  LEU C 508       5.588  23.589   3.273  0.50 35.17 LIG-0.65  OA
ENDBRANCH 17 22
ENDBRANCH 15 17
ENDBRANCH 1 13
BRANCH 1 25
ATOM     25  CB  ASP C 507       9.597  23.616   7.003  1.00 31.02 LIG 0.15  C 
BRANCH 25 26
ATOM     26  CG  ASP C 507      10.717  22.735   6.491  1.00 34.22 LIG 0.17  C 
ATOM     27 OD2  ASP C 507      10.599  21.490   6.558  1.00 32.29 LIG-0.65  OA
ATOM     28 OD1  ASP C 507      11.741  23.296   6.059  1.00 33.73 LIG-0.65  OA
ENDBRANCH 25 26
ENDBRANCH 1 25
TORSDOF 12
ENDMDL
MODEL 36
USER: ADFR SOLUTION from run 87
USER: SCORE 10.237799 LL:  -1.490 LR:  -9.139 RR:   0.000 FEB:  -5.559
USER: RMSD 5.954569
USER: SEED 86
USER: STATUS no improvement in best in 24 clusters for 5 generations
USER: GENES 14
USER: genes 0 Translation |==|  0.47052 0.53762 0.53976
USER: genes 1 Rotation |==|  0.49006 0.18105 0.11531 0.51357
USER: genes 2 Torsion [C]-CA--N-[C] |==|  0.66465
USER: genes 3 Torsion [N]-C--CA-[N] |==|  0.15546
USER: genes 4 Torsion [C]-CA--CB-[CG] |==|  0.26063
USER: genes 5 Torsion [CA]-CB--CG-[CD] |==|  0.81736
USER: genes 6 Torsion [CB]-CG--CD-[OE1] |==|  0.25104
USER: genes 7 Torsion [N]-CA--C-[N] |==|  0.26111
USER: genes 8 Torsion [C]-N--CA-[CB] |==|  0.82122
USER: genes 9 Torsion [N]-CA--CB-[CG] |==|  0.71519
USER: genes 10 Torsion [CA]-CB--CG-[CD1] |==|  0.96382
USER: genes 11 Torsion [N]-CA--C-[O] |==|  0.19518
USER: genes 12 Torsion [N]-CA--CB-[CG] |==|  0.75044
USER: genes 13 Torsion [CA]-CB--CG-[OD2] |==|  0.46477
ROOT
ATOM      1  CA  ASP C 507       8.715  25.800   5.374  1.00 33.68 LIG 0.19  C 
ENDROOT
BRANCH 1 2
ATOM      2  N   ASP C 507      10.084  25.473   4.998  1.00 35.05 LIG-0.34  N 
ATOM      3  C   GLU C 506      10.808  24.581   5.664  1.00 36.98 LIG 0.26  C 
ATOM      4 O    GLU C 506      10.397  23.998   6.673  1.00 35.33 LIG-0.27  OA
ATOM      5 H    ASP C 507      10.374  25.906   4.314  1.00 35.05 LIG 0.16  HD
BRANCH 3 6
ATOM      6  CA  GLU C 506      12.227  24.354   5.147  1.00 38.62 LIG 0.40  C 
ATOM      7  N   GLU C 506      12.974  25.640   5.106  1.00 38.98 LIG 0.61  N 
BRANCH 6 8
ATOM      8  CB  GLU C 506      12.966  23.330   6.011  1.00 41.41 LIG 0.06  C 
BRANCH 8 9
ATOM      9  CG  GLU C 506      12.879  21.908   5.492  1.00 54.63 LIG 0.12  C 
BRANCH 9 10
ATOM     10  CD  GLU C 506      11.472  21.346   5.530  1.00 71.07 LIG 0.17  C 
ATOM     11 OE1  GLU C 506      10.735  21.499   4.528  1.00 74.77 LIG-0.65  OA
ATOM     12 OE2  GLU C 506      11.110  20.738   6.563  1.00 73.38 LIG-0.65  OA
ENDBRANCH 9 10
ENDBRANCH 8 9
ENDBRANCH 6 8
ENDBRANCH 3 6
ENDBRANCH 1 2
BRANCH 1 13
ATOM     13  C   ASP C 507       7.799  25.495   4.202  1.00 33.47 LIG 0.24  C 
ATOM     14 O    ASP C 507       7.645  26.313   3.292  1.00 34.83 LIG-0.27  OA
ATOM     15  N   LEU C 508       7.233  24.292   4.215  1.00 31.65 LIG-0.34  N 
ATOM     16 H    LEU C 508       7.348  23.718   4.846  1.00 31.65 LIG 0.16  HD
BRANCH 15 17
ATOM     17  CA  LEU C 508       6.357  23.835   3.147  1.00 32.20 LIG 0.18  C 
BRANCH 17 18
ATOM     18  CB  LEU C 508       5.110  24.708   3.115  1.00 32.28 LIG 0.04  C 
BRANCH 18 19
ATOM     19  CG  LEU C 508       3.951  23.957   3.760  1.00 33.09 LIG-0.02  C 
ATOM     20  CD1 LEU C 508       4.300  22.509   3.931  1.00 32.61 LIG 0.01  C 
ATOM     21  CD2 LEU C 508       3.571  24.627   5.071  1.00 34.13 LIG 0.01  C 
ENDBRANCH 18 19
ENDBRANCH 17 18
BRANCH 17 22
ATOM     22  C   LEU C 508       7.029  23.833   1.786  1.00 33.63 LIG 0.20  C 
ATOM     23 O    LEU C 508       7.919  22.983   1.571  0.50 32.81 LIG-0.65  OA
ATOM     24 OXT  LEU C 508       6.659  24.682   0.948  0.50 35.17 LIG-0.65  OA
ENDBRANCH 17 22
ENDBRANCH 15 17
ENDBRANCH 1 13
BRANCH 1 25
ATOM     25  CB  ASP C 507       8.630  27.269   5.783  1.00 31.02 LIG 0.15  C 
BRANCH 25 26
ATOM     26  CG  ASP C 507       8.882  27.461   7.264  1.00 34.22 LIG 0.17  C 
ATOM     27 OD2  ASP C 507       9.083  28.614   7.708  1.00 32.29 LIG-0.65  OA
ATOM     28 OD1  ASP C 507       8.923  26.442   7.979  1.00 33.73 LIG-0.65  OA
ENDBRANCH 25 26
ENDBRANCH 1 25
TORSDOF 12
ENDMDL
MODEL 37
USER: ADFR SOLUTION from run 79
USER: SCORE 10.848029 LL:  -1.887 LR:  -9.135 RR:   0.000 FEB:  -5.555
USER: RMSD 5.486291
USER: SEED 78
USER: STATUS no improvement in best in 17 clusters for 5 generations
USER: GENES 14
USER: genes 0 Translation |==|  0.37165 0.56619 0.52753
USER: genes 1 Rotation |==|  0.07575 0.74195 0.54767 0.59595
USER: genes 2 Torsion [C]-CA--N-[C] |==|  0.67220
USER: genes 3 Torsion [N]-C--CA-[N] |==|  0.11331
USER: genes 4 Torsion [C]-CA--CB-[CG] |==|  0.70727
USER: genes 5 Torsion [CA]-CB--CG-[CD] |==|  0.66938
USER: genes 6 Torsion [CB]-CG--CD-[OE1] |==|  0.28908
USER: genes 7 Torsion [N]-CA--C-[N] |==|  0.35846
USER: genes 8 Torsion [C]-N--CA-[CB] |==|  0.20315
USER: genes 9 Torsion [N]-CA--CB-[CG] |==|  0.61398
USER: genes 10 Torsion [CA]-CB--CG-[CD1] |==|  0.72526
USER: genes 11 Torsion [N]-CA--C-[O] |==|  0.64734
USER: genes 12 Torsion [N]-CA--CB-[CG] |==|  0.81057
USER: genes 13 Torsion [CA]-CB--CG-[OD2] |==|  0.01968
ROOT
ATOM      1  CA  ASP C 507       7.010  26.229   5.163  1.00 33.68 LIG 0.19  C 
ENDROOT
BRANCH 1 2
ATOM      2  N   ASP C 507       6.475  27.248   6.055  1.00 35.05 LIG-0.34  N 
ATOM      3  C   GLU C 506       5.403  27.038   6.809  1.00 36.98 LIG 0.26  C 
ATOM      4 O    GLU C 506       4.754  25.986   6.781  1.00 35.33 LIG-0.27  OA
ATOM      5 H    ASP C 507       6.913  27.988   6.046  1.00 35.05 LIG 0.16  HD
BRANCH 3 6
ATOM      6  CA  GLU C 506       4.965  28.209   7.687  1.00 38.62 LIG 0.40  C 
ATOM      7  N   GLU C 506       5.084  29.489   6.938  1.00 38.98 LIG 0.61  N 
BRANCH 6 8
ATOM      8  CB  GLU C 506       3.532  28.010   8.189  1.00 41.41 LIG 0.06  C 
BRANCH 8 9
ATOM      9  CG  GLU C 506       2.508  28.884   7.492  1.00 54.63 LIG 0.12  C 
BRANCH 9 10
ATOM     10  CD  GLU C 506       1.790  29.827   8.437  1.00 71.07 LIG 0.17  C 
ATOM     11 OE1  GLU C 506       2.110  31.038   8.438  1.00 74.77 LIG-0.65  OA
ATOM     12 OE2  GLU C 506       0.892  29.353   9.169  1.00 73.38 LIG-0.65  OA
ENDBRANCH 9 10
ENDBRANCH 8 9
ENDBRANCH 6 8
ENDBRANCH 3 6
ENDBRANCH 1 2
BRANCH 1 13
ATOM     13  C   ASP C 507       8.420  25.882   5.605  1.00 33.47 LIG 0.24  C 
ATOM     14 O    ASP C 507       9.246  26.768   5.836  1.00 34.83 LIG-0.27  OA
ATOM     15  N   LEU C 508       8.668  24.585   5.765  1.00 31.65 LIG-0.34  N 
ATOM     16 H    LEU C 508       8.089  23.966   5.613  1.00 31.65 LIG 0.16  HD
BRANCH 15 17
ATOM     17  CA  LEU C 508       9.960  24.092   6.218  1.00 32.20 LIG 0.18  C 
BRANCH 17 18
ATOM     18  CB  LEU C 508      10.118  24.394   7.702  1.00 32.28 LIG 0.04  C 
BRANCH 18 19
ATOM     19  CG  LEU C 508      11.544  24.864   7.972  1.00 33.09 LIG-0.02  C 
ATOM     20  CD1 LEU C 508      12.373  23.733   8.502  1.00 32.61 LIG 0.01  C 
ATOM     21  CD2 LEU C 508      12.129  25.479   6.710  1.00 34.13 LIG 0.01  C 
ENDBRANCH 18 19
ENDBRANCH 17 18
BRANCH 17 22
ATOM     22  C   LEU C 508      10.155  22.609   5.963  1.00 33.63 LIG 0.20  C 
ATOM     23 O    LEU C 508      10.488  21.885   6.925  0.50 32.81 LIG-0.65  OA
ATOM     24 OXT  LEU C 508       9.974  22.185   4.803  0.50 35.17 LIG-0.65  OA
ENDBRANCH 17 22
ENDBRANCH 15 17
ENDBRANCH 1 13
BRANCH 1 25
ATOM     25  CB  ASP C 507       6.985  26.738   3.724  1.00 31.02 LIG 0.15  C 
BRANCH 25 26
ATOM     26  CG  ASP C 507       5.572  26.884   3.198  1.00 34.22 LIG 0.17  C 
ATOM     27 OD2  ASP C 507       4.607  26.722   3.978  1.00 32.29 LIG-0.65  OA
ATOM     28 OD1  ASP C 507       5.430  27.118   1.983  1.00 33.73 LIG-0.65  OA
ENDBRANCH 25 26
ENDBRANCH 1 25
TORSDOF 12
ENDMDL
MODEL 38
USER: ADFR SOLUTION from run 126
USER: SCORE 10.764715 LL:  -1.718 LR:  -9.080 RR:   0.000 FEB:  -5.500
USER: RMSD 7.194256
USER: SEED 125
USER: STATUS no improvement in best in 10 clusters for 5 generations
USER: GENES 14
USER: genes 0 Translation |==|  0.61553 0.34316 0.34786
USER: genes 1 Rotation |==|  0.68940 0.82659 0.18747 0.59896
USER: genes 2 Torsion [C]-CA--N-[C] |==|  0.83536
USER: genes 3 Torsion [N]-C--CA-[N] |==|  0.37174
USER: genes 4 Torsion [C]-CA--CB-[CG] |==|  0.17179
USER: genes 5 Torsion [CA]-CB--CG-[CD] |==|  0.15305
USER: genes 6 Torsion [CB]-CG--CD-[OE1] |==|  0.03802
USER: genes 7 Torsion [N]-CA--C-[N] |==|  0.89449
USER: genes 8 Torsion [C]-N--CA-[CB] |==|  0.80910
USER: genes 9 Torsion [N]-CA--CB-[CG] |==|  0.68946
USER: genes 10 Torsion [CA]-CB--CG-[CD1] |==|  0.27490
USER: genes 11 Torsion [N]-CA--C-[O] |==|  0.25099
USER: genes 12 Torsion [N]-CA--CB-[CG] |==|  0.33581
USER: genes 13 Torsion [CA]-CB--CG-[OD2] |==|  0.26630
ROOT
ATOM      1  CA  ASP C 507      11.217  22.883   2.064  1.00 33.68 LIG 0.19  C 
ENDROOT
BRANCH 1 2
ATOM      2  N   ASP C 507      12.021  22.939   3.277  1.00 35.05 LIG-0.34  N 
ATOM      3  C   GLU C 506      12.441  24.086   3.797  1.00 36.98 LIG 0.26  C 
ATOM      4 O    GLU C 506      12.224  25.184   3.272  1.00 35.33 LIG-0.27  OA
ATOM      5 H    ASP C 507      12.194  22.170   3.619  1.00 35.05 LIG 0.16  HD
BRANCH 3 6
ATOM      6  CA  GLU C 506      13.278  23.975   5.069  1.00 38.62 LIG 0.40  C 
ATOM      7  N   GLU C 506      14.482  24.844   4.974  1.00 38.98 LIG 0.61  N 
BRANCH 6 8
ATOM      8  CB  GLU C 506      12.448  24.338   6.303  1.00 41.41 LIG 0.06  C 
BRANCH 8 9
ATOM      9  CG  GLU C 506      11.259  23.426   6.536  1.00 54.63 LIG 0.12  C 
BRANCH 9 10
ATOM     10  CD  GLU C 506      11.641  21.961   6.620  1.00 71.07 LIG 0.17  C 
ATOM     11 OE1  GLU C 506      12.850  21.661   6.756  1.00 74.77 LIG-0.65  OA
ATOM     12 OE2  GLU C 506      10.724  21.111   6.563  1.00 73.38 LIG-0.65  OA
ENDBRANCH 9 10
ENDBRANCH 8 9
ENDBRANCH 6 8
ENDBRANCH 3 6
ENDBRANCH 1 2
BRANCH 1 13
ATOM     13  C   ASP C 507       9.936  23.667   2.288  1.00 33.47 LIG 0.24  C 
ATOM     14 O    ASP C 507       9.426  24.318   1.373  1.00 34.83 LIG-0.27  OA
ATOM     15  N   LEU C 508       9.400  23.555   3.500  1.00 31.65 LIG-0.34  N 
ATOM     16 H    LEU C 508       9.751  23.093   4.136  1.00 31.65 LIG 0.16  HD
BRANCH 15 17
ATOM     17  CA  LEU C 508       8.155  24.216   3.861  1.00 32.20 LIG 0.18  C 
BRANCH 17 18
ATOM     18  CB  LEU C 508       8.382  25.720   3.909  1.00 32.28 LIG 0.04  C 
BRANCH 18 19
ATOM     19  CG  LEU C 508       8.274  26.202   5.351  1.00 33.09 LIG-0.02  C 
ATOM     20  CD1 LEU C 508       9.638  26.361   5.951  1.00 32.61 LIG 0.01  C 
ATOM     21  CD2 LEU C 508       7.458  27.486   5.402  1.00 34.13 LIG 0.01  C 
ENDBRANCH 18 19
ENDBRANCH 17 18
BRANCH 17 22
ATOM     22  C   LEU C 508       7.012  23.889   2.919  1.00 33.63 LIG 0.20  C 
ATOM     23 O    LEU C 508       6.290  22.904   3.188  0.50 32.81 LIG-0.65  OA
ATOM     24 OXT  LEU C 508       6.849  24.619   1.919  0.50 35.17 LIG-0.65  OA
ENDBRANCH 17 22
ENDBRANCH 15 17
ENDBRANCH 1 13
BRANCH 1 25
ATOM     25  CB  ASP C 507      10.926  21.429   1.704  1.00 31.02 LIG 0.15  C 
BRANCH 25 26
ATOM     26  CG  ASP C 507       9.440  21.142   1.657  1.00 34.22 LIG 0.17  C 
ATOM     27 OD2  ASP C 507       8.841  21.183   0.558  1.00 32.29 LIG-0.65  OA
ATOM     28 OD1  ASP C 507       8.862  20.916   2.736  1.00 33.73 LIG-0.65  OA
ENDBRANCH 25 26
ENDBRANCH 1 25
TORSDOF 12
ENDMDL
MODEL 39
USER: ADFR SOLUTION from run 51
USER: SCORE 10.535011 LL:  -1.898 LR:  -9.058 RR:   0.000 FEB:  -5.479
USER: RMSD 6.220094
USER: SEED 50
USER: STATUS no improvement in best in 16 clusters for 5 generations
USER: GENES 14
USER: genes 0 Translation |==|  0.57026 0.39459 0.56925
USER: genes 1 Rotation |==|  0.73145 0.49675 0.93905 0.56045
USER: genes 2 Torsion [C]-CA--N-[C] |==|  0.57778
USER: genes 3 Torsion [N]-C--CA-[N] |==|  0.50889
USER: genes 4 Torsion [C]-CA--CB-[CG] |==|  0.86852
USER: genes 5 Torsion [CA]-CB--CG-[CD] |==|  0.88301
USER: genes 6 Torsion [CB]-CG--CD-[OE1] |==|  0.31043
USER: genes 7 Torsion [N]-CA--C-[N] |==|  0.30009
USER: genes 8 Torsion [C]-N--CA-[CB] |==|  0.87312
USER: genes 9 Torsion [N]-CA--CB-[CG] |==|  0.73393
USER: genes 10 Torsion [CA]-CB--CG-[CD1] |==|  0.20454
USER: genes 11 Torsion [N]-CA--C-[O] |==|  0.67476
USER: genes 12 Torsion [N]-CA--CB-[CG] |==|  0.76832
USER: genes 13 Torsion [CA]-CB--CG-[OD2] |==|  0.41726
ROOT
ATOM      1  CA  ASP C 507      10.436  23.655   5.883  1.00 33.68 LIG 0.19  C 
ENDROOT
BRANCH 1 2
ATOM      2  N   ASP C 507      10.912  23.628   4.506  1.00 35.05 LIG-0.34  N 
ATOM      3  C   GLU C 506      10.993  22.503   3.807  1.00 36.98 LIG 0.26  C 
ATOM      4 O    GLU C 506      10.717  21.394   4.278  1.00 35.33 LIG-0.27  OA
ATOM      5 H    ASP C 507      11.132  24.399   4.195  1.00 35.05 LIG 0.16  HD
BRANCH 3 6
ATOM      6  CA  GLU C 506      11.516  22.642   2.378  1.00 38.62 LIG 0.40  C 
ATOM      7  N   GLU C 506      11.484  21.326   1.685  1.00 38.98 LIG 0.61  N 
BRANCH 6 8
ATOM      8  CB  GLU C 506      10.706  23.681   1.599  1.00 41.41 LIG 0.06  C 
BRANCH 8 9
ATOM      9  CG  GLU C 506       9.205  23.522   1.736  1.00 54.63 LIG 0.12  C 
BRANCH 9 10
ATOM     10  CD  GLU C 506       8.751  22.077   1.662  1.00 71.07 LIG 0.17  C 
ATOM     11 OE1  GLU C 506       8.286  21.539   2.694  1.00 74.77 LIG-0.65  OA
ATOM     12 OE2  GLU C 506       8.849  21.486   0.563  1.00 73.38 LIG-0.65  OA
ENDBRANCH 9 10
ENDBRANCH 8 9
ENDBRANCH 6 8
ENDBRANCH 3 6
ENDBRANCH 1 2
BRANCH 1 13
ATOM     13  C   ASP C 507       9.815  25.012   6.160  1.00 33.47 LIG 0.24  C 
ATOM     14 O    ASP C 507      10.515  26.025   6.229  1.00 34.83 LIG-0.27  OA
ATOM     15  N   LEU C 508       8.489  25.024   6.270  1.00 31.65 LIG-0.34  N 
ATOM     16 H    LEU C 508       7.999  24.319   6.212  1.00 31.65 LIG 0.16  HD
BRANCH 15 17
ATOM     17  CA  LEU C 508       7.741  26.251   6.500  1.00 32.20 LIG 0.18  C 
BRANCH 17 18
ATOM     18  CB  LEU C 508       8.425  27.054   7.598  1.00 32.28 LIG 0.04  C 
BRANCH 18 19
ATOM     19  CG  LEU C 508       7.756  26.754   8.935  1.00 33.09 LIG-0.02  C 
ATOM     20  CD1 LEU C 508       8.142  25.389   9.416  1.00 32.61 LIG 0.01  C 
ATOM     21  CD2 LEU C 508       8.099  27.847   9.936  1.00 34.13 LIG 0.01  C 
ENDBRANCH 18 19
ENDBRANCH 17 18
BRANCH 17 22
ATOM     22  C   LEU C 508       7.586  27.098   5.251  1.00 33.63 LIG 0.20  C 
ATOM     23 O    LEU C 508       8.103  28.236   5.244  0.50 32.81 LIG-0.65  OA
ATOM     24 OXT  LEU C 508       6.949  26.617   4.291  0.50 35.17 LIG-0.65  OA
ENDBRANCH 17 22
ENDBRANCH 15 17
ENDBRANCH 1 13
BRANCH 1 25
ATOM     25  CB  ASP C 507      11.594  23.365   6.835  1.00 31.02 LIG 0.15  C 
BRANCH 25 26
ATOM     26  CG  ASP C 507      11.841  21.879   6.992  1.00 34.22 LIG 0.17  C 
ATOM     27 OD2  ASP C 507      12.999  21.472   7.236  1.00 32.29 LIG-0.65  OA
ATOM     28 OD1  ASP C 507      10.874  21.113   6.826  1.00 33.73 LIG-0.65  OA
ENDBRANCH 25 26
ENDBRANCH 1 25
TORSDOF 12
ENDMDL
MODEL 40
USER: ADFR SOLUTION from run 64
USER: SCORE 11.133154 LL:  -2.239 LR:  -9.062 RR:   0.000 FEB:  -5.482
USER: RMSD 5.865585
USER: SEED 63
USER: STATUS no improvement in best in 26 clusters for 5 generations
USER: GENES 14
USER: genes 0 Translation |==|  0.43320 0.55931 0.63286
USER: genes 1 Rotation |==|  0.43477 0.66753 0.96317 0.55615
USER: genes 2 Torsion [C]-CA--N-[C] |==|  0.72227
USER: genes 3 Torsion [N]-C--CA-[N] |==|  0.32734
USER: genes 4 Torsion [C]-CA--CB-[CG] |==|  0.71004
USER: genes 5 Torsion [CA]-CB--CG-[CD] |==|  0.19577
USER: genes 6 Torsion [CB]-CG--CD-[OE1] |==|  0.71817
USER: genes 7 Torsion [N]-CA--C-[N] |==|  0.31310
USER: genes 8 Torsion [C]-N--CA-[CB] |==|  0.19483
USER: genes 9 Torsion [N]-CA--CB-[CG] |==|  0.59019
USER: genes 10 Torsion [CA]-CB--CG-[CD1] |==|  0.33915
USER: genes 11 Torsion [N]-CA--C-[O] |==|  0.92044
USER: genes 12 Torsion [N]-CA--CB-[CG] |==|  0.04208
USER: genes 13 Torsion [CA]-CB--CG-[OD2] |==|  0.26982
ROOT
ATOM      1  CA  ASP C 507       8.072  26.126   6.980  1.00 33.68 LIG 0.19  C 
ENDROOT
BRANCH 1 2
ATOM      2  N   ASP C 507       9.505  25.863   6.997  1.00 35.05 LIG-0.34  N 
ATOM      3  C   GLU C 506      10.006  24.658   6.755  1.00 36.98 LIG 0.26  C 
ATOM      4 O    GLU C 506       9.303  23.664   6.545  1.00 35.33 LIG-0.27  OA
ATOM      5 H    ASP C 507       9.986  26.552   7.175  1.00 35.05 LIG 0.16  HD
BRANCH 3 6
ATOM      6  CA  GLU C 506      11.529  24.546   6.815  1.00 38.62 LIG 0.40  C 
ATOM      7  N   GLU C 506      11.936  23.605   7.894  1.00 38.98 LIG 0.61  N 
BRANCH 6 8
ATOM      8  CB  GLU C 506      12.097  24.097   5.467  1.00 41.41 LIG 0.06  C 
BRANCH 8 9
ATOM      9  CG  GLU C 506      12.535  22.646   5.435  1.00 54.63 LIG 0.12  C 
BRANCH 9 10
ATOM     10  CD  GLU C 506      11.373  21.673   5.478  1.00 71.07 LIG 0.17  C 
ATOM     11 OE1  GLU C 506      11.099  21.110   6.563  1.00 74.77 LIG-0.65  OA
ATOM     12 OE2  GLU C 506      10.724  21.485   4.424  1.00 73.38 LIG-0.65  OA
ENDBRANCH 9 10
ENDBRANCH 8 9
ENDBRANCH 6 8
ENDBRANCH 3 6
ENDBRANCH 1 2
BRANCH 1 13
ATOM     13  C   ASP C 507       7.705  26.760   5.650  1.00 33.47 LIG 0.24  C 
ATOM     14 O    ASP C 507       8.137  27.872   5.340  1.00 34.83 LIG-0.27  OA
ATOM     15  N   LEU C 508       6.944  26.017   4.851  1.00 31.65 LIG-0.34  N 
ATOM     16 H    LEU C 508       6.650  25.236   5.063  1.00 31.65 LIG 0.16  HD
BRANCH 15 17
ATOM     17  CA  LEU C 508       6.536  26.468   3.529  1.00 32.20 LIG 0.18  C 
BRANCH 17 18
ATOM     18  CB  LEU C 508       7.747  26.479   2.608  1.00 32.28 LIG 0.04  C 
BRANCH 18 19
ATOM     19  CG  LEU C 508       7.601  27.608   1.594  1.00 33.09 LIG-0.02  C 
ATOM     20  CD1 LEU C 508       8.765  28.547   1.688  1.00 32.61 LIG 0.01  C 
ATOM     21  CD2 LEU C 508       7.428  27.025   0.199  1.00 34.13 LIG 0.01  C 
ENDBRANCH 18 19
ENDBRANCH 17 18
BRANCH 17 22
ATOM     22  C   LEU C 508       5.428  25.622   2.927  1.00 33.63 LIG 0.20  C 
ATOM     23 O    LEU C 508       5.355  24.422   3.266  0.50 32.81 LIG-0.65  OA
ATOM     24 OXT  LEU C 508       4.646  26.168   2.122  0.50 35.17 LIG-0.65  OA
ENDBRANCH 17 22
ENDBRANCH 15 17
ENDBRANCH 1 13
BRANCH 1 25
ATOM     25  CB  ASP C 507       7.700  27.031   8.151  1.00 31.02 LIG 0.15  C 
BRANCH 25 26
ATOM     26  CG  ASP C 507       8.916  27.691   8.767  1.00 34.22 LIG 0.17  C 
ATOM     27 OD2  ASP C 507       9.220  28.857   8.427  1.00 32.29 LIG-0.65  OA
ATOM     28 OD1  ASP C 507       9.595  27.019   9.565  1.00 33.73 LIG-0.65  OA
ENDBRANCH 25 26
ENDBRANCH 1 25
TORSDOF 12
ENDMDL
MODEL 41
USER: ADFR SOLUTION from run 131
USER: SCORE 10.540886 LL:  -1.608 LR:  -9.047 RR:   0.000 FEB:  -5.467
USER: RMSD 5.560544
USER: SEED 130
USER: STATUS no improvement in best in 14 clusters for 5 generations
USER: GENES 14
USER: genes 0 Translation |==|  0.33073 0.61238 0.51301
USER: genes 1 Rotation |==|  0.05323 0.70145 0.54347 0.58903
USER: genes 2 Torsion [C]-CA--N-[C] |==|  0.78410
USER: genes 3 Torsion [N]-C--CA-[N] |==|  0.93300
USER: genes 4 Torsion [C]-CA--CB-[CG] |==|  0.20294
USER: genes 5 Torsion [CA]-CB--CG-[CD] |==|  0.70264
USER: genes 6 Torsion [CB]-CG--CD-[OE1] |==|  0.68927
USER: genes 7 Torsion [N]-CA--C-[N] |==|  0.32778
USER: genes 8 Torsion [C]-N--CA-[CB] |==|  0.20729
USER: genes 9 Torsion [N]-CA--CB-[CG] |==|  0.06768
USER: genes 10 Torsion [CA]-CB--CG-[CD1] |==|  0.25781
USER: genes 11 Torsion [N]-CA--C-[O] |==|  0.12462
USER: genes 12 Torsion [N]-CA--CB-[CG] |==|  0.70445
USER: genes 13 Torsion [CA]-CB--CG-[OD2] |==|  0.42052
ROOT
ATOM      1  CA  ASP C 507       6.304  26.922   4.912  1.00 33.68 LIG 0.19  C 
ENDROOT
BRANCH 1 2
ATOM      2  N   ASP C 507       5.557  27.854   5.746  1.00 35.05 LIG-0.34  N 
ATOM      3  C   GLU C 506       5.109  27.525   6.951  1.00 36.98 LIG 0.26  C 
ATOM      4 O    GLU C 506       5.250  26.397   7.438  1.00 35.33 LIG-0.27  OA
ATOM      5 H    ASP C 507       5.435  28.626   5.387  1.00 35.05 LIG 0.16  HD
BRANCH 3 6
ATOM      6  CA  GLU C 506       4.338  28.613   7.696  1.00 38.62 LIG 0.40  C 
ATOM      7  N   GLU C 506       4.731  29.958   7.196  1.00 38.98 LIG 0.61  N 
BRANCH 6 8
ATOM      8  CB  GLU C 506       2.828  28.406   7.557  1.00 41.41 LIG 0.06  C 
BRANCH 8 9
ATOM      9  CG  GLU C 506       2.287  27.247   8.370  1.00 54.63 LIG 0.12  C 
BRANCH 9 10
ATOM     10  CD  GLU C 506       1.906  26.051   7.519  1.00 71.07 LIG 0.17  C 
ATOM     11 OE1  GLU C 506       0.695  25.746   7.419  1.00 74.77 LIG-0.65  OA
ATOM     12 OE2  GLU C 506       2.822  25.427   6.938  1.00 73.38 LIG-0.65  OA
ENDBRANCH 9 10
ENDBRANCH 8 9
ENDBRANCH 6 8
ENDBRANCH 3 6
ENDBRANCH 1 2
BRANCH 1 13
ATOM     13  C   ASP C 507       7.733  26.848   5.420  1.00 33.47 LIG 0.24  C 
ATOM     14 O    ASP C 507       8.443  27.856   5.457  1.00 34.83 LIG-0.27  OA
ATOM     15  N   LEU C 508       8.127  25.654   5.853  1.00 31.65 LIG-0.34  N 
ATOM     16 H    LEU C 508       7.628  24.952   5.836  1.00 31.65 LIG 0.16  HD
BRANCH 15 17
ATOM     17  CA  LEU C 508       9.455  25.427   6.401  1.00 32.20 LIG 0.18  C 
BRANCH 17 18
ATOM     18  CB  LEU C 508       9.526  26.020   7.801  1.00 32.28 LIG 0.04  C 
BRANCH 18 19
ATOM     19  CG  LEU C 508       8.122  26.095   8.390  1.00 33.09 LIG-0.02  C 
ATOM     20  CD1 LEU C 508       7.825  24.861   9.187  1.00 32.61 LIG 0.01  C 
ATOM     21  CD2 LEU C 508       7.976  27.370   9.208  1.00 34.13 LIG 0.01  C 
ENDBRANCH 18 19
ENDBRANCH 17 18
BRANCH 17 22
ATOM     22  C   LEU C 508       9.843  23.960   6.435  1.00 33.63 LIG 0.20  C 
ATOM     23 O    LEU C 508       9.609  23.266   5.422  0.50 32.81 LIG-0.65  OA
ATOM     24 OXT  LEU C 508      10.377  23.518   7.473  0.50 35.17 LIG-0.65  OA
ENDBRANCH 17 22
ENDBRANCH 15 17
ENDBRANCH 1 13
BRANCH 1 25
ATOM     25  CB  ASP C 507       6.251  27.375   3.456  1.00 31.02 LIG 0.15  C 
BRANCH 25 26
ATOM     26  CG  ASP C 507       5.335  26.502   2.623  1.00 34.22 LIG 0.17  C 
ATOM     27 OD2  ASP C 507       4.760  26.992   1.625  1.00 32.29 LIG-0.65  OA
ATOM     28 OD1  ASP C 507       5.157  25.328   2.999  1.00 33.73 LIG-0.65  OA
ENDBRANCH 25 26
ENDBRANCH 1 25
TORSDOF 12
ENDMDL
MODEL 42
USER: ADFR SOLUTION from run 137
USER: SCORE 11.258556 LL:  -2.299 LR:  -9.044 RR:   0.000 FEB:  -5.465
USER: RMSD 6.706799
USER: SEED 136
USER: STATUS no improvement in best in 20 clusters for 5 generations
USER: GENES 14
USER: genes 0 Translation |==|  0.43299 0.60481 0.35587
USER: genes 1 Rotation |==|  0.34689 0.08786 0.71180 0.60882
USER: genes 2 Torsion [C]-CA--N-[C] |==|  0.16569
USER: genes 3 Torsion [N]-C--CA-[N] |==|  0.93799
USER: genes 4 Torsion [C]-CA--CB-[CG] |==|  0.22393
USER: genes 5 Torsion [CA]-CB--CG-[CD] |==|  0.19425
USER: genes 6 Torsion [CB]-CG--CD-[OE1] |==|  0.42061
USER: genes 7 Torsion [N]-CA--C-[N] |==|  0.08589
USER: genes 8 Torsion [C]-N--CA-[CB] |==|  0.16198
USER: genes 9 Torsion [N]-CA--CB-[CG] |==|  0.60398
USER: genes 10 Torsion [CA]-CB--CG-[CD1] |==|  0.04540
USER: genes 11 Torsion [N]-CA--C-[O] |==|  0.87093
USER: genes 12 Torsion [N]-CA--CB-[CG] |==|  0.63432
USER: genes 13 Torsion [CA]-CB--CG-[OD2] |==|  0.15255
ROOT
ATOM      1  CA  ASP C 507       8.068  26.808   2.202  1.00 33.68 LIG 0.19  C 
ENDROOT
BRANCH 1 2
ATOM      2  N   ASP C 507       9.238  25.980   2.461  1.00 35.05 LIG-0.34  N 
ATOM      3  C   GLU C 506       9.154  24.809   3.080  1.00 36.98 LIG 0.26  C 
ATOM      4 O    GLU C 506       8.093  24.354   3.521  1.00 35.33 LIG-0.27  OA
ATOM      5 H    ASP C 507       9.977  26.318   2.178  1.00 35.05 LIG 0.16  HD
BRANCH 3 6
ATOM      6  CA  GLU C 506      10.473  24.064   3.279  1.00 38.62 LIG 0.40  C 
ATOM      7  N   GLU C 506      11.484  24.531   2.292  1.00 38.98 LIG 0.61  N 
BRANCH 6 8
ATOM      8  CB  GLU C 506      10.992  24.245   4.708  1.00 41.41 LIG 0.06  C 
BRANCH 8 9
ATOM      9  CG  GLU C 506      10.333  23.331   5.723  1.00 54.63 LIG 0.12  C 
BRANCH 9 10
ATOM     10  CD  GLU C 506      10.725  21.876   5.555  1.00 71.07 LIG 0.17  C 
ATOM     11 OE1  GLU C 506      10.724  21.133   6.563  1.00 74.77 LIG-0.65  OA
ATOM     12 OE2  GLU C 506      11.020  21.476   4.406  1.00 73.38 LIG-0.65  OA
ENDBRANCH 9 10
ENDBRANCH 8 9
ENDBRANCH 6 8
ENDBRANCH 3 6
ENDBRANCH 1 2
BRANCH 1 13
ATOM     13  C   ASP C 507       7.410  27.156   3.525  1.00 33.47 LIG 0.24  C 
ATOM     14 O    ASP C 507       6.187  27.286   3.608  1.00 34.83 LIG-0.27  OA
ATOM     15  N   LEU C 508       8.233  27.255   4.565  1.00 31.65 LIG-0.34  N 
ATOM     16 H    LEU C 508       9.086  27.155   4.510  1.00 31.65 LIG 0.16  HD
BRANCH 15 17
ATOM     17  CA  LEU C 508       7.754  27.548   5.908  1.00 32.20 LIG 0.18  C 
BRANCH 17 18
ATOM     18  CB  LEU C 508       6.753  26.479   6.326  1.00 32.28 LIG 0.04  C 
BRANCH 18 19
ATOM     19  CG  LEU C 508       5.634  27.125   7.135  1.00 33.09 LIG-0.02  C 
ATOM     20  CD1 LEU C 508       5.639  28.610   6.938  1.00 32.61 LIG 0.01  C 
ATOM     21  CD2 LEU C 508       4.302  26.489   6.766  1.00 34.13 LIG 0.01  C 
ENDBRANCH 18 19
ENDBRANCH 17 18
BRANCH 17 22
ATOM     22  C   LEU C 508       8.871  27.646   6.931  1.00 33.63 LIG 0.20  C 
ATOM     23 O    LEU C 508       9.749  26.757   6.931  0.50 32.81 LIG-0.65  OA
ATOM     24 OXT  LEU C 508       8.857  28.611   7.723  0.50 35.17 LIG-0.65  OA
ENDBRANCH 17 22
ENDBRANCH 15 17
ENDBRANCH 1 13
BRANCH 1 25
ATOM     25  CB  ASP C 507       7.106  26.067   1.277  1.00 31.02 LIG 0.15  C 
BRANCH 25 26
ATOM     26  CG  ASP C 507       6.643  26.935   0.126  1.00 34.22 LIG 0.17  C 
ATOM     27 OD2  ASP C 507       7.494  27.478  -0.615  1.00 32.29 LIG-0.65  OA
ATOM     28 OD1  ASP C 507       5.417  27.109  -0.009  1.00 33.73 LIG-0.65  OA
ENDBRANCH 25 26
ENDBRANCH 1 25
TORSDOF 12
ENDMDL
MODEL 43
USER: ADFR SOLUTION from run 85
USER: SCORE 10.553873 LL:  -1.841 LR:  -9.041 RR:   0.000 FEB:  -5.461
USER: RMSD 1.959629
USER: SEED 84
USER: STATUS no improvement in best in 11 clusters for 5 generations
USER: GENES 14
USER: genes 0 Translation |==|  0.50035 0.54473 0.59639
USER: genes 1 Rotation |==|  0.40374 0.58910 0.39616 0.97118
USER: genes 2 Torsion [C]-CA--N-[C] |==|  0.59686
USER: genes 3 Torsion [N]-C--CA-[N] |==|  0.35252
USER: genes 4 Torsion [C]-CA--CB-[CG] |==|  0.07839
USER: genes 5 Torsion [CA]-CB--CG-[CD] |==|  0.61448
USER: genes 6 Torsion [CB]-CG--CD-[OE1] |==|  0.30211
USER: genes 7 Torsion [N]-CA--C-[N] |==|  0.33895
USER: genes 8 Torsion [C]-N--CA-[CB] |==|  0.46082
USER: genes 9 Torsion [N]-CA--CB-[CG] |==|  0.70189
USER: genes 10 Torsion [CA]-CB--CG-[CD1] |==|  0.23056
USER: genes 11 Torsion [N]-CA--C-[O] |==|  0.79728
USER: genes 12 Torsion [N]-CA--CB-[CG] |==|  0.96005
USER: genes 13 Torsion [CA]-CB--CG-[OD2] |==|  0.25070
ROOT
ATOM      1  CA  ASP C 507       9.230  25.907   6.351  1.00 33.68 LIG 0.19  C 
ENDROOT
BRANCH 1 2
ATOM      2  N   ASP C 507       7.818  26.248   6.457  1.00 35.05 LIG-0.34  N 
ATOM      3  C   GLU C 506       7.319  27.367   5.947  1.00 36.98 LIG 0.26  C 
ATOM      4 O    GLU C 506       8.014  28.221   5.386  1.00 35.33 LIG-0.27  OA
ATOM      5 H    ASP C 507       7.346  25.664   6.876  1.00 35.05 LIG 0.16  HD
BRANCH 3 6
ATOM      6  CA  GLU C 506       5.819  27.581   6.147  1.00 38.62 LIG 0.40  C 
ATOM      7  N   GLU C 506       5.564  28.910   6.764  1.00 38.98 LIG 0.61  N 
BRANCH 6 8
ATOM      8  CB  GLU C 506       5.067  27.450   4.820  1.00 41.41 LIG 0.06  C 
BRANCH 8 9
ATOM      9  CG  GLU C 506       5.741  26.533   3.817  1.00 54.63 LIG 0.12  C 
BRANCH 9 10
ATOM     10  CD  GLU C 506       5.703  27.073   2.401  1.00 71.07 LIG 0.17  C 
ATOM     11 OE1  GLU C 506       6.767  27.489   1.887  1.00 74.77 LIG-0.65  OA
ATOM     12 OE2  GLU C 506       4.606  27.064   1.798  1.00 73.38 LIG-0.65  OA
ENDBRANCH 9 10
ENDBRANCH 8 9
ENDBRANCH 6 8
ENDBRANCH 3 6
ENDBRANCH 1 2
BRANCH 1 13
ATOM     13  C   ASP C 507       9.361  24.402   6.197  1.00 33.47 LIG 0.24  C 
ATOM     14 O    ASP C 507       8.866  23.637   7.027  1.00 34.83 LIG-0.27  OA
ATOM     15  N   LEU C 508       9.991  23.991   5.100  1.00 31.65 LIG-0.34  N 
ATOM     16 H    LEU C 508      10.329  24.524   4.515  1.00 31.65 LIG 0.16  HD
BRANCH 15 17
ATOM     17  CA  LEU C 508      10.168  22.580   4.790  1.00 32.20 LIG 0.18  C 
BRANCH 17 18
ATOM     18  CB  LEU C 508      10.599  22.437   3.337  1.00 32.28 LIG 0.04  C 
BRANCH 18 19
ATOM     19  CG  LEU C 508       9.438  21.884   2.518  1.00 33.09 LIG-0.02  C 
ATOM     20  CD1 LEU C 508       8.507  22.989   2.121  1.00 32.61 LIG 0.01  C 
ATOM     21  CD2 LEU C 508       9.977  21.113   1.321  1.00 34.13 LIG 0.01  C 
ENDBRANCH 18 19
ENDBRANCH 17 18
BRANCH 17 22
ATOM     22  C   LEU C 508      11.165  21.890   5.702  1.00 33.63 LIG 0.20  C 
ATOM     23 O    LEU C 508      12.379  22.144   5.546  0.50 32.81 LIG-0.65  OA
ATOM     24 OXT  LEU C 508      10.724  21.101   6.563  0.50 35.17 LIG-0.65  OA
ENDBRANCH 17 22
ENDBRANCH 15 17
ENDBRANCH 1 13
BRANCH 1 25
ATOM     25  CB  ASP C 507       9.977  26.409   7.584  1.00 31.02 LIG 0.15  C 
BRANCH 25 26
ATOM     26  CG  ASP C 507       9.153  27.399   8.382  1.00 34.22 LIG 0.17  C 
ATOM     27 OD2  ASP C 507       8.405  26.980   9.295  1.00 32.29 LIG-0.65  OA
ATOM     28 OD1  ASP C 507       9.223  28.600   8.061  1.00 33.73 LIG-0.65  OA
ENDBRANCH 25 26
ENDBRANCH 1 25
TORSDOF 12
ENDMDL
MODEL 44
USER: ADFR SOLUTION from run 69
USER: SCORE 10.439343 LL:  -1.780 LR:  -9.034 RR:   0.000 FEB:  -5.454
USER: RMSD 7.186031
USER: SEED 68
USER: STATUS no improvement in best in 16 clusters for 5 generations
USER: GENES 14
USER: genes 0 Translation |==|  0.54938 0.40198 0.36201
USER: genes 1 Rotation |==|  0.68164 0.74358 0.11358 0.59141
USER: genes 2 Torsion [C]-CA--N-[C] |==|  0.52346
USER: genes 3 Torsion [N]-C--CA-[N] |==|  0.78713
USER: genes 4 Torsion [C]-CA--CB-[CG] |==|  0.24089
USER: genes 5 Torsion [CA]-CB--CG-[CD] |==|  0.77791
USER: genes 6 Torsion [CB]-CG--CD-[OE1] |==|  0.93907
USER: genes 7 Torsion [N]-CA--C-[N] |==|  0.49394
USER: genes 8 Torsion [C]-N--CA-[CB] |==|  0.85194
USER: genes 9 Torsion [N]-CA--CB-[CG] |==|  0.77277
USER: genes 10 Torsion [CA]-CB--CG-[CD1] |==|  0.91391
USER: genes 11 Torsion [N]-CA--C-[O] |==|  0.73433
USER: genes 12 Torsion [N]-CA--CB-[CG] |==|  0.63713
USER: genes 13 Torsion [CA]-CB--CG-[OD2] |==|  0.24003
ROOT
ATOM      1  CA  ASP C 507      10.076  23.766   2.308  1.00 33.68 LIG 0.19  C 
ENDROOT
BRANCH 1 2
ATOM      2  N   ASP C 507      11.017  24.118   3.362  1.00 35.05 LIG-0.34  N 
ATOM      3  C   GLU C 506      12.170  23.479   3.525  1.00 36.98 LIG 0.26  C 
ATOM      4 O    GLU C 506      12.511  22.515   2.830  1.00 35.33 LIG-0.27  OA
ATOM      5 H    ASP C 507      10.759  24.769   3.861  1.00 35.05 LIG 0.16  HD
BRANCH 3 6
ATOM      6  CA  GLU C 506      13.043  23.965   4.680  1.00 38.62 LIG 0.40  C 
ATOM      7  N   GLU C 506      13.725  25.236   4.313  1.00 38.98 LIG 0.61  N 
BRANCH 6 8
ATOM      8  CB  GLU C 506      12.214  24.147   5.953  1.00 41.41 LIG 0.06  C 
BRANCH 8 9
ATOM      9  CG  GLU C 506      12.074  22.887   6.783  1.00 54.63 LIG 0.12  C 
BRANCH 9 10
ATOM     10  CD  GLU C 506      11.015  21.940   6.252  1.00 71.07 LIG 0.17  C 
ATOM     11 OE1  GLU C 506      10.111  22.400   5.516  1.00 74.77 LIG-0.65  OA
ATOM     12 OE2  GLU C 506      11.099  20.730   6.563  1.00 73.38 LIG-0.65  OA
ENDBRANCH 9 10
ENDBRANCH 8 9
ENDBRANCH 6 8
ENDBRANCH 3 6
ENDBRANCH 1 2
BRANCH 1 13
ATOM     13  C   ASP C 507       8.974  24.809   2.266  1.00 33.47 LIG 0.24  C 
ATOM     14 O    ASP C 507       8.978  25.764   3.047  1.00 34.83 LIG-0.27  OA
ATOM     15  N   LEU C 508       8.060  24.640   1.314  1.00 31.65 LIG-0.34  N 
ATOM     16 H    LEU C 508       8.062  23.980   0.763  1.00 31.65 LIG 0.16  HD
BRANCH 15 17
ATOM     17  CA  LEU C 508       6.960  25.573   1.120  1.00 32.20 LIG 0.18  C 
BRANCH 17 18
ATOM     18  CB  LEU C 508       6.223  25.758   2.439  1.00 32.28 LIG 0.04  C 
BRANCH 18 19
ATOM     19  CG  LEU C 508       5.246  24.604   2.637  1.00 33.09 LIG-0.02  C 
ATOM     20  CD1 LEU C 508       4.745  24.112   1.313  1.00 32.61 LIG 0.01  C 
ATOM     21  CD2 LEU C 508       5.908  23.506   3.458  1.00 34.13 LIG 0.01  C 
ENDBRANCH 18 19
ENDBRANCH 17 18
BRANCH 17 22
ATOM     22  C   LEU C 508       7.409  26.918   0.579  1.00 33.63 LIG 0.20  C 
ATOM     23 O    LEU C 508       7.612  27.843   1.395  0.50 32.81 LIG-0.65  OA
ATOM     24 OXT  LEU C 508       7.551  27.036  -0.655  0.50 35.17 LIG-0.65  OA
ENDBRANCH 17 22
ENDBRANCH 15 17
ENDBRANCH 1 13
BRANCH 1 25
ATOM     25  CB  ASP C 507       9.513  22.370   2.563  1.00 31.02 LIG 0.15  C 
BRANCH 25 26
ATOM     26  CG  ASP C 507       9.593  21.492   1.331  1.00 34.22 LIG 0.17  C 
ATOM     27 OD2  ASP C 507      10.641  20.846   1.103  1.00 32.29 LIG-0.65  OA
ATOM     28 OD1  ASP C 507       8.613  21.485   0.563  1.00 33.73 LIG-0.65  OA
ENDBRANCH 25 26
ENDBRANCH 1 25
TORSDOF 12
ENDMDL
MODEL 45
USER: ADFR SOLUTION from run 145
USER: SCORE 10.210017 LL:  -1.891 LR:  -9.007 RR:   0.000 FEB:  -5.428
USER: RMSD 7.320923
USER: SEED 144
USER: STATUS no improvement in best in 16 clusters for 5 generations
USER: GENES 14
USER: genes 0 Translation |==|  0.43039 0.60095 0.39664
USER: genes 1 Rotation |==|  0.35847 0.07487 0.69470 0.60641
USER: genes 2 Torsion [C]-CA--N-[C] |==|  0.17477
USER: genes 3 Torsion [N]-C--CA-[N] |==|  0.91066
USER: genes 4 Torsion [C]-CA--CB-[CG] |==|  0.40228
USER: genes 5 Torsion [CA]-CB--CG-[CD] |==|  0.86796
USER: genes 6 Torsion [CB]-CG--CD-[OE1] |==|  0.67901
USER: genes 7 Torsion [N]-CA--C-[N] |==|  0.69433
USER: genes 8 Torsion [C]-N--CA-[CB] |==|  0.15593
USER: genes 9 Torsion [N]-CA--CB-[CG] |==|  0.62554
USER: genes 10 Torsion [CA]-CB--CG-[CD1] |==|  0.72649
USER: genes 11 Torsion [N]-CA--C-[O] |==|  0.48409
USER: genes 12 Torsion [N]-CA--CB-[CG] |==|  0.65238
USER: genes 13 Torsion [CA]-CB--CG-[OD2] |==|  0.14321
ROOT
ATOM      1  CA  ASP C 507       8.023  26.750   2.905  1.00 33.68 LIG 0.19  C 
ENDROOT
BRANCH 1 2
ATOM      2  N   ASP C 507       9.224  25.953   3.119  1.00 35.05 LIG-0.34  N 
ATOM      3  C   GLU C 506       9.175  24.707   3.575  1.00 36.98 LIG 0.26  C 
ATOM      4 O    GLU C 506       8.121  24.147   3.893  1.00 35.33 LIG-0.27  OA
ATOM      5 H    ASP C 507       9.956  26.361   2.924  1.00 35.05 LIG 0.16  HD
BRANCH 3 6
ATOM      6  CA  GLU C 506      10.523  24.008   3.749  1.00 38.62 LIG 0.40  C 
ATOM      7  N   GLU C 506      11.490  24.489   2.725  1.00 38.98 LIG 0.61  N 
BRANCH 6 8
ATOM      8  CB  GLU C 506      11.075  24.231   5.158  1.00 41.41 LIG 0.06  C 
BRANCH 8 9
ATOM      9  CG  GLU C 506      11.836  23.045   5.717  1.00 54.63 LIG 0.12  C 
BRANCH 9 10
ATOM     10  CD  GLU C 506      11.101  21.731   5.541  1.00 71.07 LIG 0.17  C 
ATOM     11 OE1  GLU C 506      10.724  21.111   6.563  1.00 74.77 LIG-0.65  OA
ATOM     12 OE2  GLU C 506      10.888  21.328   4.376  1.00 73.38 LIG-0.65  OA
ENDBRANCH 9 10
ENDBRANCH 8 9
ENDBRANCH 6 8
ENDBRANCH 3 6
ENDBRANCH 1 2
BRANCH 1 13
ATOM     13  C   ASP C 507       7.326  26.954   4.239  1.00 33.47 LIG 0.24  C 
ATOM     14 O    ASP C 507       7.800  27.711   5.089  1.00 34.83 LIG-0.27  OA
ATOM     15  N   LEU C 508       6.174  26.308   4.388  1.00 31.65 LIG-0.34  N 
ATOM     16 H    LEU C 508       5.838  25.787   3.790  1.00 31.65 LIG 0.16  HD
BRANCH 15 17
ATOM     17  CA  LEU C 508       5.368  26.428   5.593  1.00 32.20 LIG 0.18  C 
BRANCH 17 18
ATOM     18  CB  LEU C 508       5.051  27.896   5.839  1.00 32.28 LIG 0.04  C 
BRANCH 18 19
ATOM     19  CG  LEU C 508       5.274  28.221   7.312  1.00 33.09 LIG-0.02  C 
ATOM     20  CD1 LEU C 508       3.972  28.197   8.054  1.00 32.61 LIG 0.01  C 
ATOM     21  CD2 LEU C 508       6.301  27.263   7.899  1.00 34.13 LIG 0.01  C 
ENDBRANCH 18 19
ENDBRANCH 17 18
BRANCH 17 22
ATOM     22  C   LEU C 508       4.085  25.618   5.536  1.00 33.63 LIG 0.20  C 
ATOM     23 O    LEU C 508       3.376  25.566   6.563  0.50 32.81 LIG-0.65  OA
ATOM     24 OXT  LEU C 508       3.803  25.043   4.464  0.50 35.17 LIG-0.65  OA
ENDBRANCH 17 22
ENDBRANCH 15 17
ENDBRANCH 1 13
BRANCH 1 25
ATOM     25  CB  ASP C 507       7.112  26.051   1.900  1.00 31.02 LIG 0.15  C 
BRANCH 25 26
ATOM     26  CG  ASP C 507       6.760  26.949   0.732  1.00 34.22 LIG 0.17  C 
ATOM     27 OD2  ASP C 507       7.676  27.528   0.105  1.00 32.29 LIG-0.65  OA
ATOM     28 OD1  ASP C 507       5.554  27.109   0.470  1.00 33.73 LIG-0.65  OA
ENDBRANCH 25 26
ENDBRANCH 1 25
TORSDOF 12
ENDMDL
MODEL 46
USER: ADFR SOLUTION from run 130
USER: SCORE 10.674868 LL:  -1.935 LR:  -8.987 RR:   0.000 FEB:  -5.408
USER: RMSD 4.912200
USER: SEED 129
USER: STATUS no improvement in best in 14 clusters for 5 generations
USER: GENES 14
USER: genes 0 Translation |==|  0.50829 0.41878 0.41081
USER: genes 1 Rotation |==|  0.90465 0.23503 0.61907 0.54326
USER: genes 2 Torsion [C]-CA--N-[C] |==|  0.63487
USER: genes 3 Torsion [N]-C--CA-[N] |==|  0.81171
USER: genes 4 Torsion [C]-CA--CB-[CG] |==|  0.15441
USER: genes 5 Torsion [CA]-CB--CG-[CD] |==|  0.20693
USER: genes 6 Torsion [CB]-CG--CD-[OE1] |==|  0.83147
USER: genes 7 Torsion [N]-CA--C-[N] |==|  0.32234
USER: genes 8 Torsion [C]-N--CA-[CB] |==|  0.30889
USER: genes 9 Torsion [N]-CA--CB-[CG] |==|  0.01530
USER: genes 10 Torsion [CA]-CB--CG-[CD1] |==|  0.37395
USER: genes 11 Torsion [N]-CA--C-[O] |==|  0.97303
USER: genes 12 Torsion [N]-CA--CB-[CG] |==|  0.64310
USER: genes 13 Torsion [CA]-CB--CG-[OD2] |==|  0.44113
ROOT
ATOM      1  CA  ASP C 507       9.367  24.018   3.149  1.00 33.68 LIG 0.19  C 
ENDROOT
BRANCH 1 2
ATOM      2  N   ASP C 507       8.995  25.396   2.859  1.00 35.05 LIG-0.34  N 
ATOM      3  C   GLU C 506       7.736  25.814   2.905  1.00 36.98 LIG 0.26  C 
ATOM      4 O    GLU C 506       6.784  25.064   3.151  1.00 35.33 LIG-0.27  OA
ATOM      5 H    ASP C 507       9.658  25.904   2.658  1.00 35.05 LIG 0.16  HD
BRANCH 3 6
ATOM      6  CA  GLU C 506       7.510  27.288   2.569  1.00 38.62 LIG 0.40  C 
ATOM      7  N   GLU C 506       8.100  28.154   3.625  1.00 38.98 LIG 0.61  N 
BRANCH 6 8
ATOM      8  CB  GLU C 506       8.099  27.632   1.199  1.00 41.41 LIG 0.06  C 
BRANCH 8 9
ATOM      9  CG  GLU C 506       7.580  26.764   0.069  1.00 54.63 LIG 0.12  C 
BRANCH 9 10
ATOM     10  CD  GLU C 506       6.163  27.111  -0.343  1.00 71.07 LIG 0.17  C 
ATOM     11 OE1  GLU C 506       5.247  27.007   0.506  1.00 74.77 LIG-0.65  OA
ATOM     12 OE2  GLU C 506       5.971  27.502  -1.516  1.00 73.38 LIG-0.65  OA
ENDBRANCH 9 10
ENDBRANCH 8 9
ENDBRANCH 6 8
ENDBRANCH 3 6
ENDBRANCH 1 2
BRANCH 1 13
ATOM     13  C   ASP C 507      10.528  24.019   4.129  1.00 33.47 LIG 0.24  C 
ATOM     14 O    ASP C 507      11.607  24.535   3.828  1.00 34.83 LIG-0.27  OA
ATOM     15  N   LEU C 508      10.275  23.479   5.317  1.00 31.65 LIG-0.34  N 
ATOM     16 H    LEU C 508       9.519  23.127   5.531  1.00 31.65 LIG 0.16  HD
BRANCH 15 17
ATOM     17  CA  LEU C 508      11.272  23.435   6.376  1.00 32.20 LIG 0.18  C 
BRANCH 17 18
ATOM     18  CB  LEU C 508      10.848  24.369   7.501  1.00 32.28 LIG 0.04  C 
BRANCH 18 19
ATOM     19  CG  LEU C 508       9.461  24.926   7.199  1.00 33.09 LIG-0.02  C 
ATOM     20  CD1 LEU C 508       8.596  24.861   8.421  1.00 32.61 LIG 0.01  C 
ATOM     21  CD2 LEU C 508       9.586  26.337   6.644  1.00 34.13 LIG 0.01  C 
ENDBRANCH 18 19
ENDBRANCH 17 18
BRANCH 17 22
ATOM     22  C   LEU C 508      11.505  22.036   6.917  1.00 33.63 LIG 0.20  C 
ATOM     23 O    LEU C 508      10.724  21.129   6.559  0.50 32.81 LIG-0.65  OA
ATOM     24 OXT  LEU C 508      12.466  21.861   7.695  0.50 35.17 LIG-0.65  OA
ENDBRANCH 17 22
ENDBRANCH 15 17
ENDBRANCH 1 13
BRANCH 1 25
ATOM     25  CB  ASP C 507       9.730  23.297   1.854  1.00 31.02 LIG 0.15  C 
BRANCH 25 26
ATOM     26  CG  ASP C 507       8.980  21.990   1.702  1.00 34.22 LIG 0.17  C 
ATOM     27 OD2  ASP C 507       8.849  21.486   0.563  1.00 32.29 LIG-0.65  OA
ATOM     28 OD1  ASP C 507       8.481  21.489   2.726  1.00 33.73 LIG-0.65  OA
ENDBRANCH 25 26
ENDBRANCH 1 25
TORSDOF 12
ENDMDL
MODEL 47
USER: ADFR SOLUTION from run 188
USER: SCORE 10.227631 LL:  -2.069 LR:  -8.976 RR:   0.000 FEB:  -5.396
USER: RMSD 6.618127
USER: SEED 187
USER: STATUS no improvement in best in 13 clusters for 5 generations
USER: GENES 14
USER: genes 0 Translation |==|  0.42956 0.59562 0.46237
USER: genes 1 Rotation |==|  0.39541 0.11977 0.74929 0.67983
USER: genes 2 Torsion [C]-CA--N-[C] |==|  0.20390
USER: genes 3 Torsion [N]-C--CA-[N] |==|  0.92182
USER: genes 4 Torsion [C]-CA--CB-[CG] |==|  0.36284
USER: genes 5 Torsion [CA]-CB--CG-[CD] |==|  0.89864
USER: genes 6 Torsion [CB]-CG--CD-[OE1] |==|  0.71275
USER: genes 7 Torsion [N]-CA--C-[N] |==|  0.79025
USER: genes 8 Torsion [C]-N--CA-[CB] |==|  0.29624
USER: genes 9 Torsion [N]-CA--CB-[CG] |==|  0.87863
USER: genes 10 Torsion [CA]-CB--CG-[CD1] |==|  0.31450
USER: genes 11 Torsion [N]-CA--C-[O] |==|  0.64748
USER: genes 12 Torsion [N]-CA--CB-[CG] |==|  0.74424
USER: genes 13 Torsion [CA]-CB--CG-[OD2] |==|  0.25786
ROOT
ATOM      1  CA  ASP C 507       8.009  26.670   4.039  1.00 33.68 LIG 0.19  C 
ENDROOT
BRANCH 1 2
ATOM      2  N   ASP C 507       9.223  25.885   3.863  1.00 35.05 LIG-0.34  N 
ATOM      3  C   GLU C 506       9.326  24.633   4.295  1.00 36.98 LIG 0.26  C 
ATOM      4 O    GLU C 506       8.424  24.057   4.914  1.00 35.33 LIG-0.27  OA
ATOM      5 H    ASP C 507       9.857  26.303   3.460  1.00 35.05 LIG 0.16  HD
BRANCH 3 6
ATOM      6  CA  GLU C 506      10.667  23.948   4.038  1.00 38.62 LIG 0.40  C 
ATOM      7  N   GLU C 506      11.315  24.519   2.826  1.00 38.98 LIG 0.61  N 
BRANCH 6 8
ATOM      8  CB  GLU C 506      11.588  24.077   5.253  1.00 41.41 LIG 0.06  C 
BRANCH 8 9
ATOM      9  CG  GLU C 506      12.214  22.769   5.694  1.00 54.63 LIG 0.12  C 
BRANCH 9 10
ATOM     10  CD  GLU C 506      11.282  21.582   5.541  1.00 71.07 LIG 0.17  C 
ATOM     11 OE1  GLU C 506      10.727  21.117   6.563  1.00 74.77 LIG-0.65  OA
ATOM     12 OE2  GLU C 506      11.095  21.127   4.390  1.00 73.38 LIG-0.65  OA
ENDBRANCH 9 10
ENDBRANCH 8 9
ENDBRANCH 6 8
ENDBRANCH 3 6
ENDBRANCH 1 2
BRANCH 1 13
ATOM     13  C   ASP C 507       7.892  27.073   5.498  1.00 33.47 LIG 0.24  C 
ATOM     14 O    ASP C 507       8.103  28.236   5.851  1.00 34.83 LIG-0.27  OA
ATOM     15  N   LEU C 508       7.507  26.110   6.330  1.00 31.65 LIG-0.34  N 
ATOM     16 H    LEU C 508       7.351  25.300   6.083  1.00 31.65 LIG 0.16  HD
BRANCH 15 17
ATOM     17  CA  LEU C 508       7.315  26.344   7.753  1.00 32.20 LIG 0.18  C 
BRANCH 17 18
ATOM     18  CB  LEU C 508       5.824  26.357   8.061  1.00 32.28 LIG 0.04  C 
BRANCH 18 19
ATOM     19  CG  LEU C 508       5.095  27.165   6.994  1.00 33.09 LIG-0.02  C 
ATOM     20  CD1 LEU C 508       4.209  26.273   6.179  1.00 32.61 LIG 0.01  C 
ATOM     21  CD2 LEU C 508       4.333  28.308   7.649  1.00 34.13 LIG 0.01  C 
ENDBRANCH 18 19
ENDBRANCH 17 18
BRANCH 17 22
ATOM     22  C   LEU C 508       8.021  25.324   8.626  1.00 33.63 LIG 0.20  C 
ATOM     23 O    LEU C 508       7.349  24.725   9.493  0.50 32.81 LIG-0.65  OA
ATOM     24 OXT  LEU C 508       9.240  25.133   8.436  0.50 35.17 LIG-0.65  OA
ENDBRANCH 17 22
ENDBRANCH 15 17
ENDBRANCH 1 13
BRANCH 1 25
ATOM     25  CB  ASP C 507       6.799  25.858   3.585  1.00 31.02 LIG 0.15  C 
BRANCH 25 26
ATOM     26  CG  ASP C 507       6.462  26.107   2.129  1.00 34.22 LIG 0.17  C 
ATOM     27 OD2  ASP C 507       6.942  25.355   1.251  1.00 32.29 LIG-0.65  OA
ATOM     28 OD1  ASP C 507       5.745  27.090   1.863  1.00 33.73 LIG-0.65  OA
ENDBRANCH 25 26
ENDBRANCH 1 25
TORSDOF 12
ENDMDL
MODEL 48
USER: ADFR SOLUTION from run 167
USER: SCORE 10.471119 LL:  -1.638 LR:  -8.944 RR:   0.000 FEB:  -5.364
USER: RMSD 6.256777
USER: SEED 166
USER: STATUS no improvement in best in 18 clusters for 5 generations
USER: GENES 14
USER: genes 0 Translation |==|  0.44897 0.55851 0.55571
USER: genes 1 Rotation |==|  0.50864 0.21199 0.09253 0.53074
USER: genes 2 Torsion [C]-CA--N-[C] |==|  0.65510
USER: genes 3 Torsion [N]-C--CA-[N] |==|  0.35511
USER: genes 4 Torsion [C]-CA--CB-[CG] |==|  0.78173
USER: genes 5 Torsion [CA]-CB--CG-[CD] |==|  0.28609
USER: genes 6 Torsion [CB]-CG--CD-[OE1] |==|  0.60759
USER: genes 7 Torsion [N]-CA--C-[N] |==|  0.44858
USER: genes 8 Torsion [C]-N--CA-[CB] |==|  0.43075
USER: genes 9 Torsion [N]-CA--CB-[CG] |==|  0.67716
USER: genes 10 Torsion [CA]-CB--CG-[CD1] |==|  0.42358
USER: genes 11 Torsion [N]-CA--C-[O] |==|  0.78977
USER: genes 12 Torsion [N]-CA--CB-[CG] |==|  0.79245
USER: genes 13 Torsion [CA]-CB--CG-[OD2] |==|  0.88776
ROOT
ATOM      1  CA  ASP C 507       8.344  26.114   5.649  1.00 33.68 LIG 0.19  C 
ENDROOT
BRANCH 1 2
ATOM      2  N   ASP C 507       9.739  25.979   5.253  1.00 35.05 LIG-0.34  N 
ATOM      3  C   GLU C 506      10.559  25.111   5.833  1.00 36.98 LIG 0.26  C 
ATOM      4 O    GLU C 506      10.219  24.388   6.776  1.00 35.33 LIG-0.27  OA
ATOM      5 H    ASP C 507       9.977  26.508   4.618  1.00 35.05 LIG 0.16  HD
BRANCH 3 6
ATOM      6  CA  GLU C 506      11.994  25.096   5.307  1.00 38.62 LIG 0.40  C 
ATOM      7  N   GLU C 506      12.958  25.236   6.431  1.00 38.98 LIG 0.61  N 
BRANCH 6 8
ATOM      8  CB  GLU C 506      12.271  23.816   4.516  1.00 41.41 LIG 0.06  C 
BRANCH 8 9
ATOM      9  CG  GLU C 506      12.538  22.601   5.382  1.00 54.63 LIG 0.12  C 
BRANCH 9 10
ATOM     10  CD  GLU C 506      11.352  21.660   5.467  1.00 71.07 LIG 0.17  C 
ATOM     11 OE1  GLU C 506      11.099  21.108   6.563  1.00 74.77 LIG-0.65  OA
ATOM     12 OE2  GLU C 506      10.665  21.486   4.435  1.00 73.38 LIG-0.65  OA
ENDBRANCH 9 10
ENDBRANCH 8 9
ENDBRANCH 6 8
ENDBRANCH 3 6
ENDBRANCH 1 2
BRANCH 1 13
ATOM     13  C   ASP C 507       7.466  25.911   4.427  1.00 33.47 LIG 0.24  C 
ATOM     14 O    ASP C 507       7.941  25.971   3.291  1.00 34.83 LIG-0.27  OA
ATOM     15  N   LEU C 508       6.192  25.624   4.678  1.00 31.65 LIG-0.34  N 
ATOM     16 H    LEU C 508       5.861  25.573   5.471  1.00 31.65 LIG 0.16  HD
BRANCH 15 17
ATOM     17  CA  LEU C 508       5.231  25.368   3.615  1.00 32.20 LIG 0.18  C 
BRANCH 17 18
ATOM     18  CB  LEU C 508       4.103  24.502   4.159  1.00 32.28 LIG 0.04  C 
BRANCH 18 19
ATOM     19  CG  LEU C 508       4.102  23.160   3.433  1.00 33.09 LIG-0.02  C 
ATOM     20  CD1 LEU C 508       3.526  22.093   4.313  1.00 32.61 LIG 0.01  C 
ATOM     21  CD2 LEU C 508       3.362  23.293   2.111  1.00 34.13 LIG 0.01  C 
ENDBRANCH 18 19
ENDBRANCH 17 18
BRANCH 17 22
ATOM     22  C   LEU C 508       4.667  26.637   3.004  1.00 33.63 LIG 0.20  C 
ATOM     23 O    LEU C 508       3.809  27.273   3.653  0.50 32.81 LIG-0.65  OA
ATOM     24 OXT  LEU C 508       5.087  26.983   1.880  0.50 35.17 LIG-0.65  OA
ENDBRANCH 17 22
ENDBRANCH 15 17
ENDBRANCH 1 13
BRANCH 1 25
ATOM     25  CB  ASP C 507       8.116  27.485   6.280  1.00 31.02 LIG 0.15  C 
BRANCH 25 26
ATOM     26  CG  ASP C 507       8.685  27.567   7.681  1.00 34.22 LIG 0.17  C 
ATOM     27 OD2  ASP C 507       8.558  26.589   8.453  1.00 32.29 LIG-0.65  OA
ATOM     28 OD1  ASP C 507       9.224  28.635   8.024  1.00 33.73 LIG-0.65  OA
ENDBRANCH 25 26
ENDBRANCH 1 25
TORSDOF 12
ENDMDL
MODEL 49
USER: ADFR SOLUTION from run 53
USER: SCORE 10.827420 LL:  -1.951 LR:  -8.931 RR:   0.000 FEB:  -5.351
USER: RMSD 8.315464
USER: SEED 52
USER: STATUS no improvement in best in 14 clusters for 5 generations
USER: GENES 14
USER: genes 0 Translation |==|  0.78458 0.17202 0.52087
USER: genes 1 Rotation |==|  0.09081 0.65765 0.25982 0.50507
USER: genes 2 Torsion [C]-CA--N-[C] |==|  0.77306
USER: genes 3 Torsion [N]-C--CA-[N] |==|  0.81748
USER: genes 4 Torsion [C]-CA--CB-[CG] |==|  0.17996
USER: genes 5 Torsion [CA]-CB--CG-[CD] |==|  0.20006
USER: genes 6 Torsion [CB]-CG--CD-[OE1] |==|  0.84690
USER: genes 7 Torsion [N]-CA--C-[N] |==|  0.44678
USER: genes 8 Torsion [C]-N--CA-[CB] |==|  0.20841
USER: genes 9 Torsion [N]-CA--CB-[CG] |==|  0.68726
USER: genes 10 Torsion [CA]-CB--CG-[CD1] |==|  0.30124
USER: genes 11 Torsion [N]-CA--C-[O] |==|  0.10960
USER: genes 12 Torsion [N]-CA--CB-[CG] |==|  0.72949
USER: genes 13 Torsion [CA]-CB--CG-[OD2] |==|  0.93093
ROOT
ATOM      1  CA  ASP C 507      14.133  20.316   5.048  1.00 33.68 LIG 0.19  C 
ENDROOT
BRANCH 1 2
ATOM      2  N   ASP C 507      13.457  21.331   4.251  1.00 35.05 LIG-0.34  N 
ATOM      3  C   GLU C 506      12.188  21.663   4.455  1.00 36.98 LIG 0.26  C 
ATOM      4 O    GLU C 506      11.474  21.111   5.299  1.00 35.33 LIG-0.27  OA
ATOM      5 H    ASP C 507      13.952  21.689   3.645  1.00 35.05 LIG 0.16  HD
BRANCH 3 6
ATOM      6  CA  GLU C 506      11.625  22.742   3.531  1.00 38.62 LIG 0.40  C 
ATOM      7  N   GLU C 506      12.309  24.041   3.776  1.00 38.98 LIG 0.61  N 
BRANCH 6 8
ATOM      8  CB  GLU C 506      11.762  22.330   2.063  1.00 41.41 LIG 0.06  C 
BRANCH 8 9
ATOM      9  CG  GLU C 506      10.943  21.111   1.686  1.00 54.63 LIG 0.12  C 
BRANCH 9 10
ATOM     10  CD  GLU C 506       9.454  21.390   1.628  1.00 71.07 LIG 0.17  C 
ATOM     11 OE1  GLU C 506       8.894  21.881   2.635  1.00 74.77 LIG-0.65  OA
ATOM     12 OE2  GLU C 506       8.849  21.130   0.563  1.00 73.38 LIG-0.65  OA
ENDBRANCH 9 10
ENDBRANCH 8 9
ENDBRANCH 6 8
ENDBRANCH 3 6
ENDBRANCH 1 2
BRANCH 1 13
ATOM     13  C   ASP C 507      14.597  20.944   6.350  1.00 33.47 LIG 0.24  C 
ATOM     14 O    ASP C 507      14.666  22.169   6.471  1.00 34.83 LIG-0.27  OA
ATOM     15  N   LEU C 508      14.867  20.091   7.334  1.00 31.65 LIG-0.34  N 
ATOM     16 H    LEU C 508      14.810  19.236   7.253  1.00 31.65 LIG 0.16  HD
BRANCH 15 17
ATOM     17  CA  LEU C 508      15.289  20.536   8.653  1.00 32.20 LIG 0.18  C 
BRANCH 17 18
ATOM     18  CB  LEU C 508      14.086  21.093   9.402  1.00 32.28 LIG 0.04  C 
BRANCH 18 19
ATOM     19  CG  LEU C 508      14.263  22.595   9.596  1.00 33.09 LIG-0.02  C 
ATOM     20  CD1 LEU C 508      13.315  23.350   8.715  1.00 32.61 LIG 0.01  C 
ATOM     21  CD2 LEU C 508      14.099  22.944  11.068  1.00 34.13 LIG 0.01  C 
ENDBRANCH 18 19
ENDBRANCH 17 18
BRANCH 17 22
ATOM     22  C   LEU C 508      15.951  19.441   9.469  1.00 33.63 LIG 0.20  C 
ATOM     23 O    LEU C 508      16.721  18.653   8.879  0.50 32.81 LIG-0.65  OA
ATOM     24 OXT  LEU C 508      15.692  19.380  10.688  0.50 35.17 LIG-0.65  OA
ENDBRANCH 17 22
ENDBRANCH 15 17
ENDBRANCH 1 13
BRANCH 1 25
ATOM     25  CB  ASP C 507      15.304  19.736   4.259  1.00 31.02 LIG 0.15  C 
BRANCH 25 26
ATOM     26  CG  ASP C 507      14.938  18.435   3.575  1.00 34.22 LIG 0.17  C 
ATOM     27 OD2  ASP C 507      14.008  17.737   4.039  1.00 32.29 LIG-0.65  OA
ATOM     28 OD1  ASP C 507      15.617  18.090   2.590  1.00 33.73 LIG-0.65  OA
ENDBRANCH 25 26
ENDBRANCH 1 25
TORSDOF 12
ENDMDL
MODEL 50
USER: ADFR SOLUTION from run 54
USER: SCORE 10.873191 LL:  -2.748 LR:  -8.923 RR:   0.000 FEB:  -5.344
USER: RMSD 6.389761
USER: SEED 53
USER: STATUS no improvement in best in 13 clusters for 5 generations
USER: GENES 14
USER: genes 0 Translation |==|  0.36113 0.58153 0.71070
USER: genes 1 Rotation |==|  0.66485 0.78985 0.87241 0.51096
USER: genes 2 Torsion [C]-CA--N-[C] |==|  0.55002
USER: genes 3 Torsion [N]-C--CA-[N] |==|  0.02577
USER: genes 4 Torsion [C]-CA--CB-[CG] |==|  0.40589
USER: genes 5 Torsion [CA]-CB--CG-[CD] |==|  0.01615
USER: genes 6 Torsion [CB]-CG--CD-[OE1] |==|  0.75338
USER: genes 7 Torsion [N]-CA--C-[N] |==|  0.01362
USER: genes 8 Torsion [C]-N--CA-[CB] |==|  0.36603
USER: genes 9 Torsion [N]-CA--CB-[CG] |==|  0.07193
USER: genes 10 Torsion [CA]-CB--CG-[CD1] |==|  0.32807
USER: genes 11 Torsion [N]-CA--C-[O] |==|  0.20575
USER: genes 12 Torsion [N]-CA--CB-[CG] |==|  0.08763
USER: genes 13 Torsion [CA]-CB--CG-[OD2] |==|  0.10226
ROOT
ATOM      1  CA  ASP C 507       6.829  26.459   8.323  1.00 33.68 LIG 0.19  C 
ENDROOT
BRANCH 1 2
ATOM      2  N   ASP C 507       7.631  25.618   7.444  1.00 35.05 LIG-0.34  N 
ATOM      3  C   GLU C 506       8.669  24.919   7.886  1.00 36.98 LIG 0.26  C 
ATOM      4 O    GLU C 506       9.062  24.963   9.057  1.00 35.33 LIG-0.27  OA
ATOM      5 H    ASP C 507       7.370  25.617   6.624  1.00 35.05 LIG 0.16  HD
BRANCH 3 6
ATOM      6  CA  GLU C 506       9.409  24.090   6.838  1.00 38.62 LIG 0.40  C 
ATOM      7  N   GLU C 506       8.921  24.428   5.474  1.00 38.98 LIG 0.61  N 
BRANCH 6 8
ATOM      8  CB  GLU C 506      10.921  24.308   6.938  1.00 41.41 LIG 0.06  C 
BRANCH 8 9
ATOM      9  CG  GLU C 506      11.744  23.079   6.605  1.00 54.63 LIG 0.12  C 
BRANCH 9 10
ATOM     10  CD  GLU C 506      10.905  21.920   6.104  1.00 71.07 LIG 0.17  C 
ATOM     11 OE1  GLU C 506      10.433  21.113   6.938  1.00 74.77 LIG-0.65  OA
ATOM     12 OE2  GLU C 506      10.707  21.828   4.871  1.00 73.38 LIG-0.65  OA
ENDBRANCH 9 10
ENDBRANCH 8 9
ENDBRANCH 6 8
ENDBRANCH 3 6
ENDBRANCH 1 2
BRANCH 1 13
ATOM     13  C   ASP C 507       5.501  26.750   7.645  1.00 33.47 LIG 0.24  C 
ATOM     14 O    ASP C 507       4.704  27.553   8.137  1.00 34.83 LIG-0.27  OA
ATOM     15  N   LEU C 508       5.298  26.126   6.489  1.00 31.65 LIG-0.34  N 
ATOM     16 H    LEU C 508       5.859  25.573   6.141  1.00 31.65 LIG 0.16  HD
BRANCH 15 17
ATOM     17  CA  LEU C 508       4.092  26.326   5.701  1.00 32.20 LIG 0.18  C 
BRANCH 17 18
ATOM     18  CB  LEU C 508       4.479  26.589   4.252  1.00 32.28 LIG 0.04  C 
BRANCH 18 19
ATOM     19  CG  LEU C 508       5.833  25.949   3.967  1.00 33.09 LIG-0.02  C 
ATOM     20  CD1 LEU C 508       5.701  24.901   2.904  1.00 32.61 LIG 0.01  C 
ATOM     21  CD2 LEU C 508       6.844  27.027   3.605  1.00 34.13 LIG 0.01  C 
ENDBRANCH 18 19
ENDBRANCH 17 18
BRANCH 17 22
ATOM     22  C   LEU C 508       3.127  25.157   5.780  1.00 33.63 LIG 0.20  C 
ATOM     23 O    LEU C 508       2.471  25.006   6.833  0.50 32.81 LIG-0.65  OA
ATOM     24 OXT  LEU C 508       3.038  24.402   4.790  0.50 35.17 LIG-0.65  OA
ENDBRANCH 17 22
ENDBRANCH 15 17
ENDBRANCH 1 13
BRANCH 1 25
ATOM     25  CB  ASP C 507       7.588  27.745   8.640  1.00 31.02 LIG 0.15  C 
BRANCH 25 26
ATOM     26  CG  ASP C 507       8.481  28.174   7.495  1.00 34.22 LIG 0.17  C 
ATOM     27 OD2  ASP C 507       8.092  28.006   6.317  1.00 32.29 LIG-0.65  OA
ATOM     28 OD1  ASP C 507       9.599  28.643   7.779  1.00 33.73 LIG-0.65  OA
ENDBRANCH 25 26
ENDBRANCH 1 25
TORSDOF 12
ENDMDL
MODEL 51
USER: ADFR SOLUTION from run 29
USER: SCORE 11.099983 LL:  -2.296 LR:  -8.910 RR:   0.000 FEB:  -5.331
USER: RMSD 5.721616
USER: SEED 28
USER: STATUS no improvement in best in 15 clusters for 5 generations
USER: GENES 14
USER: genes 0 Translation |==|  0.50496 0.45761 0.60296
USER: genes 1 Rotation |==|  0.51853 0.73806 0.93349 0.57120
USER: genes 2 Torsion [C]-CA--N-[C] |==|  0.17450
USER: genes 3 Torsion [N]-C--CA-[N] |==|  0.53417
USER: genes 4 Torsion [C]-CA--CB-[CG] |==|  0.29679
USER: genes 5 Torsion [CA]-CB--CG-[CD] |==|  0.85973
USER: genes 6 Torsion [CB]-CG--CD-[OE1] |==|  0.75895
USER: genes 7 Torsion [N]-CA--C-[N] |==|  0.10755
USER: genes 8 Torsion [C]-N--CA-[CB] |==|  0.38340
USER: genes 9 Torsion [N]-CA--CB-[CG] |==|  0.11450
USER: genes 10 Torsion [CA]-CB--CG-[CD1] |==|  0.31404
USER: genes 11 Torsion [N]-CA--C-[O] |==|  0.42512
USER: genes 12 Torsion [N]-CA--CB-[CG] |==|  0.69006
USER: genes 13 Torsion [CA]-CB--CG-[OD2] |==|  0.38077
ROOT
ATOM      1  CA  ASP C 507       9.310  24.600   6.464  1.00 33.68 LIG 0.19  C 
ENDROOT
BRANCH 1 2
ATOM      2  N   ASP C 507      10.601  23.995   6.166  1.00 35.05 LIG-0.34  N 
ATOM      3  C   GLU C 506      11.580  24.670   5.577  1.00 36.98 LIG 0.26  C 
ATOM      4 O    GLU C 506      11.460  25.840   5.198  1.00 35.33 LIG-0.27  OA
ATOM      5 H    ASP C 507      10.666  23.172   6.405  1.00 35.05 LIG 0.16  HD
BRANCH 3 6
ATOM      6  CA  GLU C 506      12.871  23.891   5.330  1.00 38.62 LIG 0.40  C 
ATOM      7  N   GLU C 506      13.970  24.819   4.947  1.00 38.98 LIG 0.61  N 
BRANCH 6 8
ATOM      8  CB  GLU C 506      13.262  23.075   6.565  1.00 41.41 LIG 0.06  C 
BRANCH 8 9
ATOM      9  CG  GLU C 506      13.037  21.583   6.414  1.00 54.63 LIG 0.12  C 
BRANCH 9 10
ATOM     10  CD  GLU C 506      11.645  21.239   5.921  1.00 71.07 LIG 0.17  C 
ATOM     11 OE1  GLU C 506      10.724  21.111   6.761  1.00 74.77 LIG-0.65  OA
ATOM     12 OE2  GLU C 506      11.474  21.111   4.688  1.00 73.38 LIG-0.65  OA
ENDBRANCH 9 10
ENDBRANCH 8 9
ENDBRANCH 6 8
ENDBRANCH 3 6
ENDBRANCH 1 2
BRANCH 1 13
ATOM     13  C   ASP C 507       8.645  25.004   5.160  1.00 33.47 LIG 0.24  C 
ATOM     14 O    ASP C 507       8.041  26.075   5.064  1.00 34.83 LIG-0.27  OA
ATOM     15  N   LEU C 508       8.805  24.156   4.148  1.00 31.65 LIG-0.34  N 
ATOM     16 H    LEU C 508       9.234  23.412   4.212  1.00 31.65 LIG 0.16  HD
BRANCH 15 17
ATOM     17  CA  LEU C 508       8.259  24.415   2.825  1.00 32.20 LIG 0.18  C 
BRANCH 17 18
ATOM     18  CB  LEU C 508       9.290  24.028   1.774  1.00 32.28 LIG 0.04  C 
BRANCH 18 19
ATOM     19  CG  LEU C 508       9.960  22.720   2.182  1.00 33.09 LIG-0.02  C 
ATOM     20  CD1 LEU C 508       9.594  21.626   1.225  1.00 32.61 LIG 0.01  C 
ATOM     21  CD2 LEU C 508      11.464  22.927   2.289  1.00 34.13 LIG 0.01  C 
ENDBRANCH 18 19
ENDBRANCH 17 18
BRANCH 17 22
ATOM     22  C   LEU C 508       6.951  23.691   2.567  1.00 33.63 LIG 0.20  C 
ATOM     23 O    LEU C 508       6.152  24.192   1.747  0.50 32.81 LIG-0.65  OA
ATOM     24 OXT  LEU C 508       6.736  22.629   3.188  0.50 35.17 LIG-0.65  OA
ENDBRANCH 17 22
ENDBRANCH 15 17
ENDBRANCH 1 13
BRANCH 1 25
ATOM     25  CB  ASP C 507       9.503  25.800   7.388  1.00 31.02 LIG 0.15  C 
BRANCH 25 26
ATOM     26  CG  ASP C 507       8.939  25.548   8.771  1.00 34.22 LIG 0.17  C 
ATOM     27 OD2  ASP C 507       9.595  25.904   9.776  1.00 32.29 LIG-0.65  OA
ATOM     28 OD1  ASP C 507       7.850  24.950   8.850  1.00 33.73 LIG-0.65  OA
ENDBRANCH 25 26
ENDBRANCH 1 25
TORSDOF 12
ENDMDL
MODEL 52
USER: ADFR SOLUTION from run 69
USER: SCORE 10.782816 LL:  -2.156 LR:  -8.886 RR:   0.000 FEB:  -5.307
USER: RMSD 5.501265
USER: SEED 68
USER: STATUS no improvement in best in 16 clusters for 5 generations
USER: GENES 14
USER: genes 0 Translation |==|  0.21393 0.61731 0.53723
USER: genes 1 Rotation |==|  0.67712 0.14570 0.72558 0.70546
USER: genes 2 Torsion [C]-CA--N-[C] |==|  0.18559
USER: genes 3 Torsion [N]-C--CA-[N] |==|  0.25410
USER: genes 4 Torsion [C]-CA--CB-[CG] |==|  0.25204
USER: genes 5 Torsion [CA]-CB--CG-[CD] |==|  0.20799
USER: genes 6 Torsion [CB]-CG--CD-[OE1] |==|  0.12832
USER: genes 7 Torsion [N]-CA--C-[N] |==|  0.03334
USER: genes 8 Torsion [C]-N--CA-[CB] |==|  0.11943
USER: genes 9 Torsion [N]-CA--CB-[CG] |==|  0.35006
USER: genes 10 Torsion [CA]-CB--CG-[CD1] |==|  0.32465
USER: genes 11 Torsion [N]-CA--C-[O] |==|  0.91991
USER: genes 12 Torsion [N]-CA--CB-[CG] |==|  0.56801
USER: genes 13 Torsion [CA]-CB--CG-[OD2] |==|  0.31397
ROOT
ATOM      1  CA  ASP C 507       4.289  26.996   5.330  1.00 33.68 LIG 0.19  C 
ENDROOT
BRANCH 1 2
ATOM      2  N   ASP C 507       5.152  27.473   4.258  1.00 35.05 LIG-0.34  N 
ATOM      3  C   GLU C 506       6.195  26.776   3.824  1.00 36.98 LIG 0.26  C 
ATOM      4 O    GLU C 506       6.540  25.698   4.321  1.00 35.33 LIG-0.27  OA
ATOM      5 H    ASP C 507       4.924  28.238   3.937  1.00 35.05 LIG 0.16  HD
BRANCH 3 6
ATOM      6  CA  GLU C 506       7.002  27.416   2.696  1.00 38.62 LIG 0.40  C 
ATOM      7  N   GLU C 506       8.110  28.236   3.255  1.00 38.98 LIG 0.61  N 
BRANCH 6 8
ATOM      8  CB  GLU C 506       7.548  26.351   1.742  1.00 41.41 LIG 0.06  C 
BRANCH 8 9
ATOM      9  CG  GLU C 506       6.626  26.032   0.581  1.00 54.63 LIG 0.12  C 
BRANCH 9 10
ATOM     10  CD  GLU C 506       6.617  27.111  -0.484  1.00 71.07 LIG 0.17  C 
ATOM     11 OE1  GLU C 506       7.710  27.580  -0.875  1.00 74.77 LIG-0.65  OA
ATOM     12 OE2  GLU C 506       5.510  27.478  -0.939  1.00 73.38 LIG-0.65  OA
ENDBRANCH 9 10
ENDBRANCH 8 9
ENDBRANCH 6 8
ENDBRANCH 3 6
ENDBRANCH 1 2
BRANCH 1 13
ATOM     13  C   ASP C 507       5.085  26.968   6.623  1.00 33.47 LIG 0.24  C 
ATOM     14 O    ASP C 507       4.663  26.361   7.611  1.00 34.83 LIG-0.27  OA
ATOM     15  N   LEU C 508       6.259  27.591   6.588  1.00 31.65 LIG-0.34  N 
ATOM     16 H    LEU C 508       6.558  28.006   5.896  1.00 31.65 LIG 0.16  HD
BRANCH 15 17
ATOM     17  CA  LEU C 508       7.154  27.624   7.734  1.00 32.20 LIG 0.18  C 
BRANCH 17 18
ATOM     18  CB  LEU C 508       7.201  26.243   8.373  1.00 32.28 LIG 0.04  C 
BRANCH 18 19
ATOM     19  CG  LEU C 508       8.651  25.784   8.479  1.00 33.09 LIG-0.02  C 
ATOM     20  CD1 LEU C 508       9.039  25.611   9.916  1.00 32.61 LIG 0.01  C 
ATOM     21  CD2 LEU C 508       8.848  24.516   7.661  1.00 34.13 LIG 0.01  C 
ENDBRANCH 18 19
ENDBRANCH 17 18
BRANCH 17 22
ATOM     22  C   LEU C 508       8.557  28.085   7.382  1.00 33.63 LIG 0.20  C 
ATOM     23 O    LEU C 508       8.976  27.861   6.226  0.50 32.81 LIG-0.65  OA
ATOM     24 OXT  LEU C 508       9.223  28.664   8.264  0.50 35.17 LIG-0.65  OA
ENDBRANCH 17 22
ENDBRANCH 15 17
ENDBRANCH 1 13
BRANCH 1 25
ATOM     25  CB  ASP C 507       3.746  25.613   4.979  1.00 31.02 LIG 0.15  C 
BRANCH 25 26
ATOM     26  CG  ASP C 507       2.444  25.316   5.694  1.00 34.22 LIG 0.17  C 
ATOM     27 OD2  ASP C 507       1.388  25.209   5.030  1.00 32.29 LIG-0.65  OA
ATOM     28 OD1  ASP C 507       2.474  25.233   6.936  1.00 33.73 LIG-0.65  OA
ENDBRANCH 25 26
ENDBRANCH 1 25
TORSDOF 12
ENDMDL
MODEL 53
USER: ADFR SOLUTION from run 168
USER: SCORE 10.704209 LL:  -2.115 LR:  -8.866 RR:   0.000 FEB:  -5.286
USER: RMSD 4.826139
USER: SEED 167
USER: STATUS no improvement in best in 18 clusters for 5 generations
USER: GENES 14
USER: genes 0 Translation |==|  0.37063 0.54434 0.44747
USER: genes 1 Rotation |==|  0.13744 0.72706 0.63260 0.72229
USER: genes 2 Torsion [C]-CA--N-[C] |==|  0.19444
USER: genes 3 Torsion [N]-C--CA-[N] |==|  0.41242
USER: genes 4 Torsion [C]-CA--CB-[CG] |==|  0.36036
USER: genes 5 Torsion [CA]-CB--CG-[CD] |==|  0.83178
USER: genes 6 Torsion [CB]-CG--CD-[OE1] |==|  0.03599
USER: genes 7 Torsion [N]-CA--C-[N] |==|  0.09311
USER: genes 8 Torsion [C]-N--CA-[CB] |==|  0.16435
USER: genes 9 Torsion [N]-CA--CB-[CG] |==|  0.65757
USER: genes 10 Torsion [CA]-CB--CG-[CD1] |==|  0.65158
USER: genes 11 Torsion [N]-CA--C-[O] |==|  0.33848
USER: genes 12 Torsion [N]-CA--CB-[CG] |==|  0.64104
USER: genes 13 Torsion [CA]-CB--CG-[OD2] |==|  0.67334
ROOT
ATOM      1  CA  ASP C 507       6.992  25.901   3.782  1.00 33.68 LIG 0.19  C 
ENDROOT
BRANCH 1 2
ATOM      2  N   ASP C 507       6.559  26.177   5.145  1.00 35.05 LIG-0.34  N 
ATOM      3  C   GLU C 506       7.093  27.148   5.876  1.00 36.98 LIG 0.26  C 
ATOM      4 O    GLU C 506       8.022  27.858   5.477  1.00 35.33 LIG-0.27  OA
ATOM      5 H    ASP C 507       5.934  25.658   5.427  1.00 35.05 LIG 0.16  HD
BRANCH 3 6
ATOM      6  CA  GLU C 506       6.532  27.305   7.288  1.00 38.62 LIG 0.40  C 
ATOM      7  N   GLU C 506       7.588  27.800   8.212  1.00 38.98 LIG 0.61  N 
BRANCH 6 8
ATOM      8  CB  GLU C 506       5.326  28.247   7.294  1.00 41.41 LIG 0.06  C 
BRANCH 8 9
ATOM      9  CG  GLU C 506       4.110  27.687   8.006  1.00 54.63 LIG 0.12  C 
BRANCH 9 10
ATOM     10  CD  GLU C 506       3.593  26.406   7.382  1.00 71.07 LIG 0.17  C 
ATOM     11 OE1  GLU C 506       4.313  25.810   6.547  1.00 74.77 LIG-0.65  OA
ATOM     12 OE2  GLU C 506       2.469  25.989   7.741  1.00 73.38 LIG-0.65  OA
ENDBRANCH 9 10
ENDBRANCH 8 9
ENDBRANCH 6 8
ENDBRANCH 3 6
ENDBRANCH 1 2
BRANCH 1 13
ATOM     13  C   ASP C 507       8.391  25.312   3.821  1.00 33.47 LIG 0.24  C 
ATOM     14 O    ASP C 507       9.214  25.579   2.942  1.00 34.83 LIG-0.27  OA
ATOM     15  N   LEU C 508       8.662  24.548   4.876  1.00 31.65 LIG-0.34  N 
ATOM     16 H    LEU C 508       8.091  24.369   5.494  1.00 31.65 LIG 0.16  HD
BRANCH 15 17
ATOM     17  CA  LEU C 508       9.968  23.939   5.077  1.00 32.20 LIG 0.18  C 
BRANCH 17 18
ATOM     18  CB  LEU C 508      11.024  25.033   5.149  1.00 32.28 LIG 0.04  C 
BRANCH 18 19
ATOM     19  CG  LEU C 508      12.086  24.780   4.084  1.00 33.09 LIG-0.02  C 
ATOM     20  CD1 LEU C 508      13.448  24.734   4.707  1.00 32.61 LIG 0.01  C 
ATOM     21  CD2 LEU C 508      11.750  23.510   3.316  1.00 34.13 LIG 0.01  C 
ENDBRANCH 18 19
ENDBRANCH 17 18
BRANCH 17 22
ATOM     22  C   LEU C 508      10.034  23.067   6.318  1.00 33.63 LIG 0.20  C 
ATOM     23 O    LEU C 508      10.349  21.866   6.176  0.50 32.81 LIG-0.65  OA
ATOM     24 OXT  LEU C 508       9.768  23.592   7.418  0.50 35.17 LIG-0.65  OA
ENDBRANCH 17 22
ENDBRANCH 15 17
ENDBRANCH 1 13
BRANCH 1 25
ATOM     25  CB  ASP C 507       6.950  27.185   2.957  1.00 31.02 LIG 0.15  C 
BRANCH 25 26
ATOM     26  CG  ASP C 507       6.196  27.000   1.657  1.00 34.22 LIG 0.17  C 
ATOM     27 OD2  ASP C 507       6.798  27.153   0.570  1.00 32.29 LIG-0.65  OA
ATOM     28 OD1  ASP C 507       4.980  26.742   1.727  1.00 33.73 LIG-0.65  OA
ENDBRANCH 25 26
ENDBRANCH 1 25
TORSDOF 12
ENDMDL
MODEL 54
USER: ADFR SOLUTION from run 10
USER: SCORE 11.503864 LL:  -2.675 LR:  -8.874 RR:   0.000 FEB:  -5.294
USER: RMSD 6.458602
USER: SEED 324416
USER: STATUS no improvement in best in 17 clusters for 5 generations
USER: GENES 14
USER: genes 0 Translation |==|  0.31314 0.50049 0.45776
USER: genes 1 Rotation |==|  0.33962 0.24138 0.85844 0.67005
USER: genes 2 Torsion [C]-CA--N-[C] |==|  0.80558
USER: genes 3 Torsion [N]-C--CA-[N] |==|  0.43013
USER: genes 4 Torsion [C]-CA--CB-[CG] |==|  0.53759
USER: genes 5 Torsion [CA]-CB--CG-[CD] |==|  0.84604
USER: genes 6 Torsion [CB]-CG--CD-[OE1] |==|  0.69569
USER: genes 7 Torsion [N]-CA--C-[N] |==|  0.90738
USER: genes 8 Torsion [C]-N--CA-[CB] |==|  0.40862
USER: genes 9 Torsion [N]-CA--CB-[CG] |==|  0.18361
USER: genes 10 Torsion [CA]-CB--CG-[CD1] |==|  0.29444
USER: genes 11 Torsion [N]-CA--C-[O] |==|  0.52934
USER: genes 12 Torsion [N]-CA--CB-[CG] |==|  0.38252
USER: genes 13 Torsion [CA]-CB--CG-[OD2] |==|  0.73020
ROOT
ATOM      1  CA  ASP C 507       6.001  25.243   3.959  1.00 33.68 LIG 0.19  C 
ENDROOT
BRANCH 1 2
ATOM      2  N   ASP C 507       7.136  24.367   4.213  1.00 35.05 LIG-0.34  N 
ATOM      3  C   GLU C 506       8.371  24.680   3.839  1.00 36.98 LIG 0.26  C 
ATOM      4 O    GLU C 506       8.644  25.709   3.211  1.00 35.33 LIG-0.27  OA
ATOM      5 H    ASP C 507       6.933  23.638   4.623  1.00 35.05 LIG 0.16  HD
BRANCH 3 6
ATOM      6  CA  GLU C 506       9.450  23.652   4.175  1.00 38.62 LIG 0.40  C 
ATOM      7  N   GLU C 506      10.597  23.782   3.236  1.00 38.98 LIG 0.61  N 
BRANCH 6 8
ATOM      8  CB  GLU C 506       9.920  23.807   5.624  1.00 41.41 LIG 0.06  C 
BRANCH 8 9
ATOM      9  CG  GLU C 506      11.198  23.056   5.941  1.00 54.63 LIG 0.12  C 
BRANCH 9 10
ATOM     10  CD  GLU C 506      11.114  21.577   5.618  1.00 71.07 LIG 0.17  C 
ATOM     11 OE1  GLU C 506      11.078  20.756   6.563  1.00 74.77 LIG-0.65  OA
ATOM     12 OE2  GLU C 506      11.070  21.241   4.413  1.00 73.38 LIG-0.65  OA
ENDBRANCH 9 10
ENDBRANCH 8 9
ENDBRANCH 6 8
ENDBRANCH 3 6
ENDBRANCH 1 2
BRANCH 1 13
ATOM     13  C   ASP C 507       6.122  26.472   4.843  1.00 33.47 LIG 0.24  C 
ATOM     14 O    ASP C 507       5.684  27.563   4.471  1.00 34.83 LIG-0.27  OA
ATOM     15  N   LEU C 508       6.679  26.269   6.033  1.00 31.65 LIG-0.34  N 
ATOM     16 H    LEU C 508       6.976  25.506   6.297  1.00 31.65 LIG 0.16  HD
BRANCH 15 17
ATOM     17  CA  LEU C 508       6.836  27.338   7.009  1.00 32.20 LIG 0.18  C 
BRANCH 17 18
ATOM     18  CB  LEU C 508       6.704  26.759   8.410  1.00 32.28 LIG 0.04  C 
BRANCH 18 19
ATOM     19  CG  LEU C 508       7.872  25.818   8.680  1.00 33.09 LIG-0.02  C 
ATOM     20  CD1 LEU C 508       8.849  26.456   9.620  1.00 32.61 LIG 0.01  C 
ATOM     21  CD2 LEU C 508       7.349  24.485   9.195  1.00 34.13 LIG 0.01  C 
ENDBRANCH 18 19
ENDBRANCH 17 18
BRANCH 17 22
ATOM     22  C   LEU C 508       8.152  28.081   6.871  1.00 33.63 LIG 0.20  C 
ATOM     23 O    LEU C 508       8.474  28.879   7.778  0.50 32.81 LIG-0.65  OA
ATOM     24 OXT  LEU C 508       8.847  27.861   5.858  0.50 35.17 LIG-0.65  OA
ENDBRANCH 17 22
ENDBRANCH 15 17
ENDBRANCH 1 13
BRANCH 1 25
ATOM     25  CB  ASP C 507       4.699  24.491   4.224  1.00 31.02 LIG 0.15  C 
BRANCH 25 26
ATOM     26  CG  ASP C 507       3.691  25.345   4.967  1.00 34.22 LIG 0.17  C 
ATOM     27 OD2  ASP C 507       3.591  25.236   6.210  1.00 32.29 LIG-0.65  OA
ATOM     28 OD1  ASP C 507       2.966  26.099   4.292  1.00 33.73 LIG-0.65  OA
ENDBRANCH 25 26
ENDBRANCH 1 25
TORSDOF 12
ENDMDL
MODEL 55
USER: ADFR SOLUTION from run 151
USER: SCORE 9.745448 LL:  -1.563 LR:  -8.856 RR:   0.000 FEB:  -5.276
USER: RMSD 6.770785
USER: SEED 150
USER: STATUS no improvement in best in 19 clusters for 5 generations
USER: GENES 14
USER: genes 0 Translation |==|  0.46490 0.53142 0.43924
USER: genes 1 Rotation |==|  0.46170 0.15504 0.81511 0.67390
USER: genes 2 Torsion [C]-CA--N-[C] |==|  0.21518
USER: genes 3 Torsion [N]-C--CA-[N] |==|  0.17658
USER: genes 4 Torsion [C]-CA--CB-[CG] |==|  0.82110
USER: genes 5 Torsion [CA]-CB--CG-[CD] |==|  0.38279
USER: genes 6 Torsion [CB]-CG--CD-[OE1] |==|  0.70595
USER: genes 7 Torsion [N]-CA--C-[N] |==|  0.81686
USER: genes 8 Torsion [C]-N--CA-[CB] |==|  0.23269
USER: genes 9 Torsion [N]-CA--CB-[CG] |==|  0.66804
USER: genes 10 Torsion [CA]-CB--CG-[CD1] |==|  0.93011
USER: genes 11 Torsion [N]-CA--C-[O] |==|  0.55363
USER: genes 12 Torsion [N]-CA--CB-[CG] |==|  0.81764
USER: genes 13 Torsion [CA]-CB--CG-[OD2] |==|  0.78858
ROOT
ATOM      1  CA  ASP C 507       8.619  25.707   3.640  1.00 33.68 LIG 0.19  C 
ENDROOT
BRANCH 1 2
ATOM      2  N   ASP C 507       9.953  25.236   3.294  1.00 35.05 LIG-0.34  N 
ATOM      3  C   GLU C 506      10.467  24.125   3.807  1.00 36.98 LIG 0.26  C 
ATOM      4 O    GLU C 506       9.878  23.434   4.645  1.00 35.33 LIG-0.27  OA
ATOM      5 H    ASP C 507      10.369  25.739   2.734  1.00 35.05 LIG 0.16  HD
BRANCH 3 6
ATOM      6  CA  GLU C 506      11.880  23.770   3.347  1.00 38.62 LIG 0.40  C 
ATOM      7  N   GLU C 506      12.844  24.816   3.783  1.00 38.98 LIG 0.61  N 
BRANCH 6 8
ATOM      8  CB  GLU C 506      12.298  22.397   3.878  1.00 41.41 LIG 0.06  C 
BRANCH 8 9
ATOM      9  CG  GLU C 506      12.406  22.327   5.389  1.00 54.63 LIG 0.12  C 
BRANCH 9 10
ATOM     10  CD  GLU C 506      11.825  21.052   5.968  1.00 71.07 LIG 0.17  C 
ATOM     11 OE1  GLU C 506      10.724  21.109   6.563  1.00 74.77 LIG-0.65  OA
ATOM     12 OE2  GLU C 506      12.468  19.989   5.812  1.00 73.38 LIG-0.65  OA
ENDBRANCH 9 10
ENDBRANCH 8 9
ENDBRANCH 6 8
ENDBRANCH 3 6
ENDBRANCH 1 2
BRANCH 1 13
ATOM     13  C   ASP C 507       8.669  26.361   5.009  1.00 33.47 LIG 0.24  C 
ATOM     14 O    ASP C 507       8.419  27.561   5.146  1.00 34.83 LIG-0.27  OA
ATOM     15  N   LEU C 508       8.948  25.547   6.023  1.00 31.65 LIG-0.34  N 
ATOM     16 H    LEU C 508       9.113  24.707   5.929  1.00 31.65 LIG 0.16  HD
BRANCH 15 17
ATOM     17  CA  LEU C 508       8.999  26.013   7.401  1.00 32.20 LIG 0.18  C 
BRANCH 17 18
ATOM     18  CB  LEU C 508       7.590  26.027   7.976  1.00 32.28 LIG 0.04  C 
BRANCH 18 19
ATOM     19  CG  LEU C 508       7.228  27.449   8.391  1.00 33.09 LIG-0.02  C 
ATOM     20  CD1 LEU C 508       8.468  28.236   8.689  1.00 32.61 LIG 0.01  C 
ATOM     21  CD2 LEU C 508       6.369  28.094   7.313  1.00 34.13 LIG 0.01  C 
ENDBRANCH 18 19
ENDBRANCH 17 18
BRANCH 17 22
ATOM     22  C   LEU C 508       9.914  25.178   8.278  1.00 33.63 LIG 0.20  C 
ATOM     23 O    LEU C 508       9.761  25.243   9.517  0.50 32.81 LIG-0.65  OA
ATOM     24 OXT  LEU C 508      10.776  24.469   7.720  0.50 35.17 LIG-0.65  OA
ENDBRANCH 17 22
ENDBRANCH 15 17
ENDBRANCH 1 13
BRANCH 1 25
ATOM     25  CB  ASP C 507       7.636  24.539   3.614  1.00 31.02 LIG 0.15  C 
BRANCH 25 26
ATOM     26  CG  ASP C 507       7.461  23.976   2.219  1.00 34.22 LIG 0.17  C 
ATOM     27 OD2  ASP C 507       6.762  24.599   1.388  1.00 32.29 LIG-0.65  OA
ATOM     28 OD1  ASP C 507       7.993  22.878   1.969  1.00 33.73 LIG-0.65  OA
ENDBRANCH 25 26
ENDBRANCH 1 25
TORSDOF 12
ENDMDL
MODEL 56
USER: ADFR SOLUTION from run 197
USER: SCORE 10.216763 LL:  -2.241 LR:  -8.858 RR:   0.000 FEB:  -5.279
USER: RMSD 5.443702
USER: SEED 196
USER: STATUS no improvement in best in 19 clusters for 5 generations
USER: GENES 14
USER: genes 0 Translation |==|  0.38502 0.63481 0.65729
USER: genes 1 Rotation |==|  0.77188 0.54565 0.37506 0.89798
USER: genes 2 Torsion [C]-CA--N-[C] |==|  0.20914
USER: genes 3 Torsion [N]-C--CA-[N] |==|  0.86129
USER: genes 4 Torsion [C]-CA--CB-[CG] |==|  0.66192
USER: genes 5 Torsion [CA]-CB--CG-[CD] |==|  0.81380
USER: genes 6 Torsion [CB]-CG--CD-[OE1] |==|  0.02565
USER: genes 7 Torsion [N]-CA--C-[N] |==|  0.78333
USER: genes 8 Torsion [C]-N--CA-[CB] |==|  0.36851
USER: genes 9 Torsion [N]-CA--CB-[CG] |==|  0.57686
USER: genes 10 Torsion [CA]-CB--CG-[CD1] |==|  0.09890
USER: genes 11 Torsion [N]-CA--C-[O] |==|  0.39037
USER: genes 12 Torsion [N]-CA--CB-[CG] |==|  0.58964
USER: genes 13 Torsion [CA]-CB--CG-[OD2] |==|  0.71705
ROOT
ATOM      1  CA  ASP C 507       7.241  27.258   7.401  1.00 33.68 LIG 0.19  C 
ENDROOT
BRANCH 1 2
ATOM      2  N   ASP C 507       5.994  27.972   7.646  1.00 35.05 LIG-0.34  N 
ATOM      3  C   GLU C 506       4.807  27.403   7.477  1.00 36.98 LIG 0.26  C 
ATOM      4 O    GLU C 506       4.666  26.249   7.058  1.00 35.33 LIG-0.27  OA
ATOM      5 H    ASP C 507       6.101  28.785   7.907  1.00 35.05 LIG 0.16  HD
BRANCH 3 6
ATOM      6  CA  GLU C 506       3.597  28.287   7.771  1.00 38.62 LIG 0.40  C 
ATOM      7  N   GLU C 506       3.745  28.941   9.099  1.00 38.98 LIG 0.61  N 
BRANCH 6 8
ATOM      8  CB  GLU C 506       3.406  29.336   6.673  1.00 41.41 LIG 0.06  C 
BRANCH 8 9
ATOM      9  CG  GLU C 506       3.437  30.766   7.174  1.00 54.63 LIG 0.12  C 
BRANCH 9 10
ATOM     10  CD  GLU C 506       2.258  31.110   8.063  1.00 71.07 LIG 0.17  C 
ATOM     11 OE1  GLU C 506       1.498  30.188   8.438  1.00 74.77 LIG-0.65  OA
ATOM     12 OE2  GLU C 506       2.103  32.307   8.397  1.00 73.38 LIG-0.65  OA
ENDBRANCH 9 10
ENDBRANCH 8 9
ENDBRANCH 6 8
ENDBRANCH 3 6
ENDBRANCH 1 2
BRANCH 1 13
ATOM     13  C   ASP C 507       7.455  27.146   5.902  1.00 33.47 LIG 0.24  C 
ATOM     14 O    ASP C 507       8.280  27.861   5.328  1.00 34.83 LIG-0.27  OA
ATOM     15  N   LEU C 508       6.738  26.209   5.289  1.00 31.65 LIG-0.34  N 
ATOM     16 H    LEU C 508       6.170  25.704   5.691  1.00 31.65 LIG 0.16  HD
BRANCH 15 17
ATOM     17  CA  LEU C 508       6.856  25.954   3.861  1.00 32.20 LIG 0.18  C 
BRANCH 17 18
ATOM     18  CB  LEU C 508       6.988  24.455   3.630  1.00 32.28 LIG 0.04  C 
BRANCH 18 19
ATOM     19  CG  LEU C 508       7.767  24.209   2.343  1.00 33.09 LIG-0.02  C 
ATOM     20  CD1 LEU C 508       8.832  25.250   2.171  1.00 32.61 LIG 0.01  C 
ATOM     21  CD2 LEU C 508       8.325  22.794   2.343  1.00 34.13 LIG 0.01  C 
ENDBRANCH 18 19
ENDBRANCH 17 18
BRANCH 17 22
ATOM     22  C   LEU C 508       5.691  26.506   3.059  1.00 33.63 LIG 0.20  C 
ATOM     23 O    LEU C 508       5.935  27.031   1.952  0.50 32.81 LIG-0.65  OA
ATOM     24 OXT  LEU C 508       4.546  26.409   3.547  0.50 35.17 LIG-0.65  OA
ENDBRANCH 17 22
ENDBRANCH 15 17
ENDBRANCH 1 13
BRANCH 1 25
ATOM     25  CB  ASP C 507       7.186  25.883   8.062  1.00 31.02 LIG 0.15  C 
BRANCH 25 26
ATOM     26  CG  ASP C 507       8.550  25.428   8.538  1.00 34.22 LIG 0.17  C 
ATOM     27 OD2  ASP C 507       9.189  24.591   7.861  1.00 32.29 LIG-0.65  OA
ATOM     28 OD1  ASP C 507       8.963  25.880   9.622  1.00 33.73 LIG-0.65  OA
ENDBRANCH 25 26
ENDBRANCH 1 25
TORSDOF 12
ENDMDL
MODEL 57
USER: ADFR SOLUTION from run 171
USER: SCORE 11.030677 LL:  -2.288 LR:  -8.848 RR:   0.000 FEB:  -5.268
USER: RMSD 5.216942
USER: SEED 170
USER: STATUS no improvement in best in 21 clusters for 5 generations
USER: GENES 14
USER: genes 0 Translation |==|  0.51559 0.47225 0.57572
USER: genes 1 Rotation |==|  0.72129 0.59109 0.33306 0.90604
USER: genes 2 Torsion [C]-CA--N-[C] |==|  0.79896
USER: genes 3 Torsion [N]-C--CA-[N] |==|  0.73496
USER: genes 4 Torsion [C]-CA--CB-[CG] |==|  0.23484
USER: genes 5 Torsion [CA]-CB--CG-[CD] |==|  0.87135
USER: genes 6 Torsion [CB]-CG--CD-[OE1] |==|  0.23087
USER: genes 7 Torsion [N]-CA--C-[N] |==|  0.88226
USER: genes 8 Torsion [C]-N--CA-[CB] |==|  0.22648
USER: genes 9 Torsion [N]-CA--CB-[CG] |==|  0.72622
USER: genes 10 Torsion [CA]-CB--CG-[CD1] |==|  0.31668
USER: genes 11 Torsion [N]-CA--C-[O] |==|  0.96059
USER: genes 12 Torsion [N]-CA--CB-[CG] |==|  0.49168
USER: genes 13 Torsion [CA]-CB--CG-[OD2] |==|  0.57333
ROOT
ATOM      1  CA  ASP C 507       9.493  24.820   5.994  1.00 33.68 LIG 0.19  C 
ENDROOT
BRANCH 1 2
ATOM      2  N   ASP C 507       8.357  25.598   6.469  1.00 35.05 LIG-0.34  N 
ATOM      3  C   GLU C 506       8.165  26.862   6.112  1.00 36.98 LIG 0.26  C 
ATOM      4 O    GLU C 506       8.952  27.486   5.392  1.00 35.33 LIG-0.27  OA
ATOM      5 H    ASP C 507       7.830  25.166   6.995  1.00 35.05 LIG 0.16  HD
BRANCH 3 6
ATOM      6  CA  GLU C 506       6.928  27.540   6.700  1.00 38.62 LIG 0.40  C 
ATOM      7  N   GLU C 506       5.791  27.459   5.744  1.00 38.98 LIG 0.61  N 
BRANCH 6 8
ATOM      8  CB  GLU C 506       6.549  26.913   8.044  1.00 41.41 LIG 0.06  C 
BRANCH 8 9
ATOM      9  CG  GLU C 506       7.305  27.485   9.227  1.00 54.63 LIG 0.12  C 
BRANCH 9 10
ATOM     10  CD  GLU C 506       8.796  27.606   8.977  1.00 71.07 LIG 0.17  C 
ATOM     11 OE1  GLU C 506       9.224  28.611   8.364  1.00 74.77 LIG-0.65  OA
ATOM     12 OE2  GLU C 506       9.539  26.697   9.410  1.00 73.38 LIG-0.65  OA
ENDBRANCH 9 10
ENDBRANCH 8 9
ENDBRANCH 6 8
ENDBRANCH 3 6
ENDBRANCH 1 2
BRANCH 1 13
ATOM     13  C   ASP C 507       9.280  24.485   4.529  1.00 33.47 LIG 0.24  C 
ATOM     14 O    ASP C 507      10.218  24.525   3.729  1.00 34.83 LIG-0.27  OA
ATOM     15  N   LEU C 508       8.047  24.110   4.200  1.00 31.65 LIG-0.34  N 
ATOM     16 H    LEU C 508       7.395  24.073   4.759  1.00 31.65 LIG 0.16  HD
BRANCH 15 17
ATOM     17  CA  LEU C 508       7.691  23.723   2.843  1.00 32.20 LIG 0.18  C 
BRANCH 17 18
ATOM     18  CB  LEU C 508       8.099  22.275   2.612  1.00 32.28 LIG 0.04  C 
BRANCH 18 19
ATOM     19  CG  LEU C 508       9.434  22.238   1.876  1.00 33.09 LIG-0.02  C 
ATOM     20  CD1 LEU C 508      10.496  21.649   2.754  1.00 32.61 LIG 0.01  C 
ATOM     21  CD2 LEU C 508       9.275  21.486   0.563  1.00 34.13 LIG 0.01  C 
ENDBRANCH 18 19
ENDBRANCH 17 18
BRANCH 17 22
ATOM     22  C   LEU C 508       6.214  23.905   2.540  1.00 33.63 LIG 0.20  C 
ATOM     23 O    LEU C 508       5.435  24.087   3.500  0.50 32.81 LIG-0.65  OA
ATOM     24 OXT  LEU C 508       5.851  23.862   1.347  0.50 35.17 LIG-0.65  OA
ENDBRANCH 17 22
ENDBRANCH 15 17
ENDBRANCH 1 13
BRANCH 1 25
ATOM     25  CB  ASP C 507       9.643  23.557   6.839  1.00 31.02 LIG 0.15  C 
BRANCH 25 26
ATOM     26  CG  ASP C 507      10.768  22.672   6.343  1.00 34.22 LIG 0.17  C 
ATOM     27 OD2  ASP C 507      10.723  21.441   6.563  1.00 32.29 LIG-0.65  OA
ATOM     28 OD1  ASP C 507      11.724  23.224   5.765  1.00 33.73 LIG-0.65  OA
ENDBRANCH 25 26
ENDBRANCH 1 25
TORSDOF 12
ENDMDL
MODEL 58
USER: ADFR SOLUTION from run 34
USER: SCORE 10.767189 LL:  -2.248 LR:  -8.839 RR:   0.000 FEB:  -5.259
USER: RMSD 2.956686
USER: SEED 33
USER: STATUS no improvement in best in 16 clusters for 5 generations
USER: GENES 14
USER: genes 0 Translation |==|  0.51391 0.53249 0.65995
USER: genes 1 Rotation |==|  0.53398 0.38533 0.50500 0.98546
USER: genes 2 Torsion [C]-CA--N-[C] |==|  0.64513
USER: genes 3 Torsion [N]-C--CA-[N] |==|  0.41407
USER: genes 4 Torsion [C]-CA--CB-[CG] |==|  0.75316
USER: genes 5 Torsion [CA]-CB--CG-[CD] |==|  0.74638
USER: genes 6 Torsion [CB]-CG--CD-[OE1] |==|  0.10029
USER: genes 7 Torsion [N]-CA--C-[N] |==|  0.09892
USER: genes 8 Torsion [C]-N--CA-[CB] |==|  0.87302
USER: genes 9 Torsion [N]-CA--CB-[CG] |==|  0.71786
USER: genes 10 Torsion [CA]-CB--CG-[CD1] |==|  0.74974
USER: genes 11 Torsion [N]-CA--C-[O] |==|  0.34204
USER: genes 12 Torsion [N]-CA--CB-[CG] |==|  0.02110
USER: genes 13 Torsion [CA]-CB--CG-[OD2] |==|  0.79748
ROOT
ATOM      1  CA  ASP C 507       9.464  25.723   7.447  1.00 33.68 LIG 0.19  C 
ENDROOT
BRANCH 1 2
ATOM      2  N   ASP C 507       8.412  25.580   6.449  1.00 35.05 LIG-0.34  N 
ATOM      3  C   GLU C 506       8.017  26.592   5.686  1.00 36.98 LIG 0.26  C 
ATOM      4 O    GLU C 506       8.474  27.735   5.792  1.00 35.33 LIG-0.27  OA
ATOM      5 H    ASP C 507       8.077  24.789   6.403  1.00 35.05 LIG 0.16  HD
BRANCH 3 6
ATOM      6  CA  GLU C 506       6.900  26.279   4.692  1.00 38.62 LIG 0.40  C 
ATOM      7  N   GLU C 506       6.061  27.486   4.461  1.00 38.98 LIG 0.61  N 
BRANCH 6 8
ATOM      8  CB  GLU C 506       7.474  25.762   3.370  1.00 41.41 LIG 0.06  C 
BRANCH 8 9
ATOM      9  CG  GLU C 506       7.795  26.853   2.368  1.00 54.63 LIG 0.12  C 
BRANCH 9 10
ATOM     10  CD  GLU C 506       6.642  27.160   1.434  1.00 71.07 LIG 0.17  C 
ATOM     11 OE1  GLU C 506       5.473  27.110   1.883  1.00 74.77 LIG-0.65  OA
ATOM     12 OE2  GLU C 506       6.910  27.466   0.250  1.00 73.38 LIG-0.65  OA
ENDBRANCH 9 10
ENDBRANCH 8 9
ENDBRANCH 6 8
ENDBRANCH 3 6
ENDBRANCH 1 2
BRANCH 1 13
ATOM     13  C   ASP C 507      10.504  24.640   7.222  1.00 33.47 LIG 0.24  C 
ATOM     14 O    ASP C 507      11.053  24.084   8.176  1.00 34.83 LIG-0.27  OA
ATOM     15  N   LEU C 508      10.731  24.318   5.952  1.00 31.65 LIG-0.34  N 
ATOM     16 H    LEU C 508      10.341  24.699   5.286  1.00 31.65 LIG 0.16  HD
BRANCH 15 17
ATOM     17  CA  LEU C 508      11.672  23.275   5.573  1.00 32.20 LIG 0.18  C 
BRANCH 17 18
ATOM     18  CB  LEU C 508      12.958  23.450   6.368  1.00 32.28 LIG 0.04  C 
BRANCH 18 19
ATOM     19  CG  LEU C 508      14.012  24.110   5.486  1.00 33.09 LIG-0.02  C 
ATOM     20  CD1 LEU C 508      14.809  23.070   4.759  1.00 32.61 LIG 0.01  C 
ATOM     21  CD2 LEU C 508      13.344  25.102   4.545  1.00 34.13 LIG 0.01  C 
ENDBRANCH 18 19
ENDBRANCH 17 18
BRANCH 17 22
ATOM     22  C   LEU C 508      11.121  21.875   5.769  1.00 33.63 LIG 0.20  C 
ATOM     23 O    LEU C 508      11.091  21.111   4.780  0.50 32.81 LIG-0.65  OA
ATOM     24 OXT  LEU C 508      10.724  21.555   6.908  0.50 35.17 LIG-0.65  OA
ENDBRANCH 17 22
ENDBRANCH 15 17
ENDBRANCH 1 13
BRANCH 1 25
ATOM     25  CB  ASP C 507       8.862  25.638   8.847  1.00 31.02 LIG 0.15  C 
BRANCH 25 26
ATOM     26  CG  ASP C 507       7.398  25.248   8.813  1.00 34.22 LIG 0.17  C 
ATOM     27 OD2  ASP C 507       6.550  26.083   8.426  1.00 32.29 LIG-0.65  OA
ATOM     28 OD1  ASP C 507       7.094  24.111   9.219  1.00 33.73 LIG-0.65  OA
ENDBRANCH 25 26
ENDBRANCH 1 25
TORSDOF 12
ENDMDL
MODEL 59
USER: ADFR SOLUTION from run 69
USER: SCORE 10.362368 LL:  -1.634 LR:  -8.829 RR:   0.000 FEB:  -5.249
USER: RMSD 8.360662
USER: SEED 68
USER: STATUS no improvement in best in 16 clusters for 5 generations
USER: GENES 14
USER: genes 0 Translation |==|  0.61143 0.33850 0.37764
USER: genes 1 Rotation |==|  0.46245 0.10237 0.79088 0.57660
USER: genes 2 Torsion [C]-CA--N-[C] |==|  0.14508
USER: genes 3 Torsion [N]-C--CA-[N] |==|  0.21523
USER: genes 4 Torsion [C]-CA--CB-[CG] |==|  0.26838
USER: genes 5 Torsion [CA]-CB--CG-[CD] |==|  0.30689
USER: genes 6 Torsion [CB]-CG--CD-[OE1] |==|  0.12674
USER: genes 7 Torsion [N]-CA--C-[N] |==|  0.14444
USER: genes 8 Torsion [C]-N--CA-[CB] |==|  0.83280
USER: genes 9 Torsion [N]-CA--CB-[CG] |==|  0.65863
USER: genes 10 Torsion [CA]-CB--CG-[CD1] |==|  0.35902
USER: genes 11 Torsion [N]-CA--C-[O] |==|  0.54592
USER: genes 12 Torsion [N]-CA--CB-[CG] |==|  0.56597
USER: genes 13 Torsion [CA]-CB--CG-[OD2] |==|  0.38457
ROOT
ATOM      1  CA  ASP C 507      11.146  22.814   2.577  1.00 33.68 LIG 0.19  C 
ENDROOT
BRANCH 1 2
ATOM      2  N   ASP C 507      12.595  22.692   2.675  1.00 35.05 LIG-0.34  N 
ATOM      3  C   GLU C 506      13.181  21.920   3.582  1.00 36.98 LIG 0.26  C 
ATOM      4 O    GLU C 506      12.552  21.285   4.435  1.00 35.33 LIG-0.27  OA
ATOM      5 H    ASP C 507      13.026  23.161   2.098  1.00 35.05 LIG 0.16  HD
BRANCH 3 6
ATOM      6  CA  GLU C 506      14.709  21.905   3.557  1.00 38.62 LIG 0.40  C 
ATOM      7  N   GLU C 506      15.248  23.139   4.190  1.00 38.98 LIG 0.61  N 
BRANCH 6 8
ATOM      8  CB  GLU C 506      15.254  20.658   4.257  1.00 41.41 LIG 0.06  C 
BRANCH 8 9
ATOM      9  CG  GLU C 506      15.597  19.522   3.313  1.00 54.63 LIG 0.12  C 
BRANCH 9 10
ATOM     10  CD  GLU C 506      17.088  19.269   3.204  1.00 71.07 LIG 0.17  C 
ATOM     11 OE1  GLU C 506      17.770  19.231   4.254  1.00 74.77 LIG-0.65  OA
ATOM     12 OE2  GLU C 506      17.572  19.093   2.063  1.00 73.38 LIG-0.65  OA
ENDBRANCH 9 10
ENDBRANCH 8 9
ENDBRANCH 6 8
ENDBRANCH 3 6
ENDBRANCH 1 2
BRANCH 1 13
ATOM     13  C   ASP C 507      10.590  23.168   3.945  1.00 33.47 LIG 0.24  C 
ATOM     14 O    ASP C 507       9.704  22.483   4.463  1.00 34.83 LIG-0.27  OA
ATOM     15  N   LEU C 508      11.155  24.214   4.540  1.00 31.65 LIG-0.34  N 
ATOM     16 H    LEU C 508      11.779  24.686   4.183  1.00 31.65 LIG 0.16  HD
BRANCH 15 17
ATOM     17  CA  LEU C 508      10.758  24.659   5.867  1.00 32.20 LIG 0.18  C 
BRANCH 17 18
ATOM     18  CB  LEU C 508       9.283  25.035   5.849  1.00 32.28 LIG 0.04  C 
BRANCH 18 19
ATOM     19  CG  LEU C 508       9.125  26.481   6.308  1.00 33.09 LIG-0.02  C 
ATOM     20  CD1 LEU C 508       8.289  27.250   5.330  1.00 32.61 LIG 0.01  C 
ATOM     21  CD2 LEU C 508       8.553  26.511   7.718  1.00 34.13 LIG 0.01  C 
ENDBRANCH 18 19
ENDBRANCH 17 18
BRANCH 17 22
ATOM     22  C   LEU C 508      11.020  23.624   6.946  1.00 33.63 LIG 0.20  C 
ATOM     23 O    LEU C 508      10.444  23.762   8.046  0.50 32.81 LIG-0.65  OA
ATOM     24 OXT  LEU C 508      11.800  22.686   6.681  0.50 35.17 LIG-0.65  OA
ENDBRANCH 17 22
ENDBRANCH 15 17
ENDBRANCH 1 13
BRANCH 1 25
ATOM     25  CB  ASP C 507      10.553  21.508   2.054  1.00 31.02 LIG 0.15  C 
BRANCH 25 26
ATOM     26  CG  ASP C 507       9.206  21.720   1.395  1.00 34.22 LIG 0.17  C 
ATOM     27 OD2  ASP C 507       8.939  21.113   0.333  1.00 32.29 LIG-0.65  OA
ATOM     28 OD1  ASP C 507       8.427  22.536   1.924  1.00 33.73 LIG-0.65  OA
ENDBRANCH 25 26
ENDBRANCH 1 25
TORSDOF 12
ENDMDL
MODEL 60
USER: ADFR SOLUTION from run 25
USER: SCORE 10.599898 LL:  -2.548 LR:  -8.816 RR:   0.000 FEB:  -5.236
USER: RMSD 3.896036
USER: SEED 24
USER: STATUS no improvement in best in 27 clusters for 5 generations
USER: GENES 14
USER: genes 0 Translation |==|  0.46918 0.55927 0.60545
USER: genes 1 Rotation |==|  0.54724 0.60937 0.43036 0.98058
USER: genes 2 Torsion [C]-CA--N-[C] |==|  0.63334
USER: genes 3 Torsion [N]-C--CA-[N] |==|  0.22382
USER: genes 4 Torsion [C]-CA--CB-[CG] |==|  0.71998
USER: genes 5 Torsion [CA]-CB--CG-[CD] |==|  0.76386
USER: genes 6 Torsion [CB]-CG--CD-[OE1] |==|  0.08132
USER: genes 7 Torsion [N]-CA--C-[N] |==|  0.61048
USER: genes 8 Torsion [C]-N--CA-[CB] |==|  0.23705
USER: genes 9 Torsion [N]-CA--CB-[CG] |==|  0.64215
USER: genes 10 Torsion [CA]-CB--CG-[CD1] |==|  0.95124
USER: genes 11 Torsion [N]-CA--C-[O] |==|  0.05229
USER: genes 12 Torsion [N]-CA--CB-[CG] |==|  0.00447
USER: genes 13 Torsion [CA]-CB--CG-[OD2] |==|  0.21466
ROOT
ATOM      1  CA  ASP C 507       8.692  26.125   6.507  1.00 33.68 LIG 0.19  C 
ENDROOT
BRANCH 1 2
ATOM      2  N   ASP C 507       7.270  26.331   6.748  1.00 35.05 LIG-0.34  N 
ATOM      3  C   GLU C 506       6.709  27.533   6.689  1.00 36.98 LIG 0.26  C 
ATOM      4 O    GLU C 506       7.350  28.567   6.473  1.00 35.33 LIG-0.27  OA
ATOM      5 H    ASP C 507       6.837  25.611   6.929  1.00 35.05 LIG 0.16  HD
BRANCH 3 6
ATOM      6  CA  GLU C 506       5.208  27.581   6.972  1.00 38.62 LIG 0.40  C 
ATOM      7  N   GLU C 506       4.957  27.557   8.438  1.00 38.98 LIG 0.61  N 
BRANCH 6 8
ATOM      8  CB  GLU C 506       4.573  28.821   6.337  1.00 41.41 LIG 0.06  C 
BRANCH 8 9
ATOM      9  CG  GLU C 506       4.322  29.953   7.313  1.00 54.63 LIG 0.12  C 
BRANCH 9 10
ATOM     10  CD  GLU C 506       3.006  29.819   8.053  1.00 71.07 LIG 0.17  C 
ATOM     11 OE1  GLU C 506       2.548  28.673   8.263  1.00 74.77 LIG-0.65  OA
ATOM     12 OE2  GLU C 506       2.439  30.867   8.438  1.00 73.38 LIG-0.65  OA
ENDBRANCH 9 10
ENDBRANCH 8 9
ENDBRANCH 6 8
ENDBRANCH 3 6
ENDBRANCH 1 2
BRANCH 1 13
ATOM     13  C   ASP C 507       8.863  24.970   5.536  1.00 33.47 LIG 0.24  C 
ATOM     14 O    ASP C 507       8.127  24.857   4.553  1.00 34.83 LIG-0.27  OA
ATOM     15  N   LEU C 508       9.872  24.145   5.800  1.00 31.65 LIG-0.34  N 
ATOM     16 H    LEU C 508      10.392  24.229   6.480  1.00 31.65 LIG 0.16  HD
BRANCH 15 17
ATOM     17  CA  LEU C 508      10.189  23.010   4.945  1.00 32.20 LIG 0.18  C 
BRANCH 17 18
ATOM     18  CB  LEU C 508      11.087  23.476   3.808  1.00 32.28 LIG 0.04  C 
BRANCH 18 19
ATOM     19  CG  LEU C 508      10.504  23.008   2.479  1.00 33.09 LIG-0.02  C 
ATOM     20  CD1 LEU C 508       9.509  21.910   2.705  1.00 32.61 LIG 0.01  C 
ATOM     21  CD2 LEU C 508       9.909  24.194   1.734  1.00 34.13 LIG 0.01  C 
ENDBRANCH 18 19
ENDBRANCH 17 18
BRANCH 17 22
ATOM     22  C   LEU C 508      10.845  21.865   5.695  1.00 33.63 LIG 0.20  C 
ATOM     23 O    LEU C 508      10.724  21.830   6.938  0.50 32.81 LIG-0.65  OA
ATOM     24 OXT  LEU C 508      11.474  21.015   5.032  0.50 35.17 LIG-0.65  OA
ENDBRANCH 17 22
ENDBRANCH 15 17
ENDBRANCH 1 13
BRANCH 1 25
ATOM     25  CB  ASP C 507       9.406  25.854   7.829  1.00 31.02 LIG 0.15  C 
BRANCH 25 26
ATOM     26  CG  ASP C 507       8.444  25.836   8.999  1.00 34.22 LIG 0.17  C 
ATOM     27 OD2  ASP C 507       7.726  24.828   9.188  1.00 32.29 LIG-0.65  OA
ATOM     28 OD1  ASP C 507       8.378  26.857   9.708  1.00 33.73 LIG-0.65  OA
ENDBRANCH 25 26
ENDBRANCH 1 25
TORSDOF 12
ENDMDL
MODEL 61
USER: ADFR SOLUTION from run 168
USER: SCORE 11.061327 LL:  -2.437 LR:  -8.816 RR:   0.000 FEB:  -5.237
USER: RMSD 7.563989
USER: SEED 167
USER: STATUS no improvement in best in 18 clusters for 5 generations
USER: GENES 14
USER: genes 0 Translation |==|  0.14834 0.73112 0.64125
USER: genes 1 Rotation |==|  0.40646 0.87324 0.81871 0.51921
USER: genes 2 Torsion [C]-CA--N-[C] |==|  0.85059
USER: genes 3 Torsion [N]-C--CA-[N] |==|  0.25823
USER: genes 4 Torsion [C]-CA--CB-[CG] |==|  0.45618
USER: genes 5 Torsion [CA]-CB--CG-[CD] |==|  0.07768
USER: genes 6 Torsion [CB]-CG--CD-[OE1] |==|  0.26579
USER: genes 7 Torsion [N]-CA--C-[N] |==|  0.86111
USER: genes 8 Torsion [C]-N--CA-[CB] |==|  0.81287
USER: genes 9 Torsion [N]-CA--CB-[CG] |==|  0.81067
USER: genes 10 Torsion [CA]-CB--CG-[CD1] |==|  0.57670
USER: genes 11 Torsion [N]-CA--C-[O] |==|  0.20682
USER: genes 12 Torsion [N]-CA--CB-[CG] |==|  0.69070
USER: genes 13 Torsion [CA]-CB--CG-[OD2] |==|  0.44898
ROOT
ATOM      1  CA  ASP C 507       3.158  28.703   7.124  1.00 33.68 LIG 0.19  C 
ENDROOT
BRANCH 1 2
ATOM      2  N   ASP C 507       4.585  28.613   7.405  1.00 35.05 LIG-0.34  N 
ATOM      3  C   GLU C 506       5.209  27.449   7.536  1.00 36.98 LIG 0.26  C 
ATOM      4 O    GLU C 506       4.626  26.361   7.476  1.00 35.33 LIG-0.27  OA
ATOM      5 H    ASP C 507       4.977  29.375   7.476  1.00 35.05 LIG 0.16  HD
BRANCH 3 6
ATOM      6  CA  GLU C 506       6.705  27.525   7.834  1.00 38.62 LIG 0.40  C 
ATOM      7  N   GLU C 506       6.943  27.486   9.302  1.00 38.98 LIG 0.61  N 
BRANCH 6 8
ATOM      8  CB  GLU C 506       7.459  26.390   7.136  1.00 41.41 LIG 0.06  C 
BRANCH 8 9
ATOM      9  CG  GLU C 506       8.959  26.600   7.063  1.00 54.63 LIG 0.12  C 
BRANCH 9 10
ATOM     10  CD  GLU C 506       9.496  27.453   8.196  1.00 71.07 LIG 0.17  C 
ATOM     11 OE1  GLU C 506       9.965  26.882   9.208  1.00 74.77 LIG-0.65  OA
ATOM     12 OE2  GLU C 506       9.460  28.697   8.063  1.00 73.38 LIG-0.65  OA
ENDBRANCH 9 10
ENDBRANCH 8 9
ENDBRANCH 6 8
ENDBRANCH 3 6
ENDBRANCH 1 2
BRANCH 1 13
ATOM     13  C   ASP C 507       2.848  27.878   5.888  1.00 33.47 LIG 0.24  C 
ATOM     14 O    ASP C 507       1.903  27.086   5.878  1.00 34.83 LIG-0.27  OA
ATOM     15  N   LEU C 508       3.626  28.109   4.835  1.00 31.65 LIG-0.34  N 
ATOM     16 H    LEU C 508       4.280  28.669   4.838  1.00 31.65 LIG 0.16  HD
BRANCH 15 17
ATOM     17  CA  LEU C 508       3.436  27.425   3.565  1.00 32.20 LIG 0.18  C 
BRANCH 17 18
ATOM     18  CB  LEU C 508       3.764  25.949   3.738  1.00 32.28 LIG 0.04  C 
BRANCH 18 19
ATOM     19  CG  LEU C 508       5.260  25.790   3.988  1.00 33.09 LIG-0.02  C 
ATOM     20  CD1 LEU C 508       5.729  24.450   3.510  1.00 32.61 LIG 0.01  C 
ATOM     21  CD2 LEU C 508       6.014  26.941   3.337  1.00 34.13 LIG 0.01  C 
ENDBRANCH 18 19
ENDBRANCH 17 18
BRANCH 17 22
ATOM     22  C   LEU C 508       2.034  27.587   3.005  1.00 33.63 LIG 0.20  C 
ATOM     23 O    LEU C 508       1.724  28.689   2.505  0.50 32.81 LIG-0.65  OA
ATOM     24 OXT  LEU C 508       1.259  26.611   3.074  0.50 35.17 LIG-0.65  OA
ENDBRANCH 17 22
ENDBRANCH 15 17
ENDBRANCH 1 13
BRANCH 1 25
ATOM     25  CB  ASP C 507       2.760  30.165   6.934  1.00 31.02 LIG 0.15  C 
BRANCH 25 26
ATOM     26  CG  ASP C 507       1.883  30.665   8.063  1.00 34.22 LIG 0.17  C 
ATOM     27 OD2  ASP C 507       1.758  31.898   8.244  1.00 32.29 LIG-0.65  OA
ATOM     28 OD1  ASP C 507       1.350  29.815   8.800  1.00 33.73 LIG-0.65  OA
ENDBRANCH 25 26
ENDBRANCH 1 25
TORSDOF 12
ENDMDL
MODEL 62
USER: ADFR SOLUTION from run 181
USER: SCORE 10.650825 LL:  -2.003 LR:  -8.789 RR:   0.000 FEB:  -5.210
USER: RMSD 4.350399
USER: SEED 180
USER: STATUS no improvement in best in 15 clusters for 5 generations
USER: GENES 14
USER: genes 0 Translation |==|  0.50761 0.46951 0.57374
USER: genes 1 Rotation |==|  0.71203 0.59155 0.35206 0.91806
USER: genes 2 Torsion [C]-CA--N-[C] |==|  0.77778
USER: genes 3 Torsion [N]-C--CA-[N] |==|  0.36230
USER: genes 4 Torsion [C]-CA--CB-[CG] |==|  0.43301
USER: genes 5 Torsion [CA]-CB--CG-[CD] |==|  0.85948
USER: genes 6 Torsion [CB]-CG--CD-[OE1] |==|  0.78595
USER: genes 7 Torsion [N]-CA--C-[N] |==|  0.88699
USER: genes 8 Torsion [C]-N--CA-[CB] |==|  0.83622
USER: genes 9 Torsion [N]-CA--CB-[CG] |==|  0.87320
USER: genes 10 Torsion [CA]-CB--CG-[CD1] |==|  0.43153
USER: genes 11 Torsion [N]-CA--C-[O] |==|  0.02203
USER: genes 12 Torsion [N]-CA--CB-[CG] |==|  0.48433
USER: genes 13 Torsion [CA]-CB--CG-[OD2] |==|  0.59226
ROOT
ATOM      1  CA  ASP C 507       9.355  24.779   5.960  1.00 33.68 LIG 0.19  C 
ENDROOT
BRANCH 1 2
ATOM      2  N   ASP C 507       8.143  25.473   6.374  1.00 35.05 LIG-0.34  N 
ATOM      3  C   GLU C 506       7.926  26.750   6.087  1.00 36.98 LIG 0.26  C 
ATOM      4 O    GLU C 506       8.746  27.457   5.492  1.00 35.33 LIG-0.27  OA
ATOM      5 H    ASP C 507       7.591  24.983   6.816  1.00 35.05 LIG 0.16  HD
BRANCH 3 6
ATOM      6  CA  GLU C 506       6.608  27.333   6.597  1.00 38.62 LIG 0.40  C 
ATOM      7  N   GLU C 506       6.852  28.615   7.312  1.00 38.98 LIG 0.61  N 
BRANCH 6 8
ATOM      8  CB  GLU C 506       5.620  27.537   5.446  1.00 41.41 LIG 0.06  C 
BRANCH 8 9
ATOM      9  CG  GLU C 506       4.166  27.548   5.877  1.00 54.63 LIG 0.12  C 
BRANCH 9 10
ATOM     10  CD  GLU C 506       3.794  26.358   6.740  1.00 71.07 LIG 0.17  C 
ATOM     11 OE1  GLU C 506       3.613  25.248   6.189  1.00 74.77 LIG-0.65  OA
ATOM     12 OE2  GLU C 506       3.697  26.537   7.975  1.00 73.38 LIG-0.65  OA
ENDBRANCH 9 10
ENDBRANCH 8 9
ENDBRANCH 6 8
ENDBRANCH 3 6
ENDBRANCH 1 2
BRANCH 1 13
ATOM     13  C   ASP C 507       9.216  24.375   4.503  1.00 33.47 LIG 0.24  C 
ATOM     14 O    ASP C 507      10.179  24.437   3.735  1.00 34.83 LIG-0.27  OA
ATOM     15  N   LEU C 508       8.019  23.917   4.147  1.00 31.65 LIG-0.34  N 
ATOM     16 H    LEU C 508       7.349  23.864   4.685  1.00 31.65 LIG 0.16  HD
BRANCH 15 17
ATOM     17  CA  LEU C 508       7.735  23.457   2.796  1.00 32.20 LIG 0.18  C 
BRANCH 17 18
ATOM     18  CB  LEU C 508       7.991  24.594   1.817  1.00 32.28 LIG 0.04  C 
BRANCH 18 19
ATOM     19  CG  LEU C 508       7.367  25.876   2.357  1.00 33.09 LIG-0.02  C 
ATOM     20  CD1 LEU C 508       8.065  27.074   1.790  1.00 32.61 LIG 0.01  C 
ATOM     21  CD2 LEU C 508       5.872  25.879   2.070  1.00 34.13 LIG 0.01  C 
ENDBRANCH 18 19
ENDBRANCH 17 18
BRANCH 17 22
ATOM     22  C   LEU C 508       8.541  22.234   2.401  1.00 33.63 LIG 0.20  C 
ATOM     23 O    LEU C 508       9.224  21.669   3.283  0.50 32.81 LIG-0.65  OA
ATOM     24 OXT  LEU C 508       8.485  21.853   1.214  0.50 35.17 LIG-0.65  OA
ENDBRANCH 17 22
ENDBRANCH 15 17
ENDBRANCH 1 13
BRANCH 1 25
ATOM     25  CB  ASP C 507       9.586  23.565   6.856  1.00 31.02 LIG 0.15  C 
BRANCH 25 26
ATOM     26  CG  ASP C 507      10.758  22.727   6.386  1.00 34.22 LIG 0.17  C 
ATOM     27 OD2  ASP C 507      10.728  21.486   6.546  1.00 32.29 LIG-0.65  OA
ATOM     28 OD1  ASP C 507      11.733  23.324   5.893  1.00 33.73 LIG-0.65  OA
ENDBRANCH 25 26
ENDBRANCH 1 25
TORSDOF 12
ENDMDL
MODEL 63
USER: ADFR SOLUTION from run 69
USER: SCORE 10.473936 LL:  -1.762 LR:  -8.768 RR:   0.000 FEB:  -5.189
USER: RMSD 8.531999
USER: SEED 68
USER: STATUS no improvement in best in 16 clusters for 5 generations
USER: GENES 14
USER: genes 0 Translation |==|  0.61147 0.33267 0.37856
USER: genes 1 Rotation |==|  0.46627 0.09385 0.78054 0.57213
USER: genes 2 Torsion [C]-CA--N-[C] |==|  0.14694
USER: genes 3 Torsion [N]-C--CA-[N] |==|  0.20176
USER: genes 4 Torsion [C]-CA--CB-[CG] |==|  0.26426
USER: genes 5 Torsion [CA]-CB--CG-[CD] |==|  0.29905
USER: genes 6 Torsion [CB]-CG--CD-[OE1] |==|  0.11626
USER: genes 7 Torsion [N]-CA--C-[N] |==|  0.12504
USER: genes 8 Torsion [C]-N--CA-[CB] |==|  0.40097
USER: genes 9 Torsion [N]-CA--CB-[CG] |==|  0.70180
USER: genes 10 Torsion [CA]-CB--CG-[CD1] |==|  0.13983
USER: genes 11 Torsion [N]-CA--C-[O] |==|  0.52358
USER: genes 12 Torsion [N]-CA--CB-[CG] |==|  0.57052
USER: genes 13 Torsion [CA]-CB--CG-[OD2] |==|  0.87175
ROOT
ATOM      1  CA  ASP C 507      11.147  22.726   2.593  1.00 33.68 LIG 0.19  C 
ENDROOT
BRANCH 1 2
ATOM      2  N   ASP C 507      12.596  22.626   2.705  1.00 35.05 LIG-0.34  N 
ATOM      3  C   GLU C 506      13.185  21.808   3.568  1.00 36.98 LIG 0.26  C 
ATOM      4 O    GLU C 506      12.557  21.106   4.369  1.00 35.33 LIG-0.27  OA
ATOM      5 H    ASP C 507      13.026  23.140   2.166  1.00 35.05 LIG 0.16  HD
BRANCH 3 6
ATOM      6  CA  GLU C 506      14.713  21.824   3.566  1.00 38.62 LIG 0.40  C 
ATOM      7  N   GLU C 506      15.217  23.080   4.183  1.00 38.98 LIG 0.61  N 
BRANCH 6 8
ATOM      8  CB  GLU C 506      15.273  20.602   4.297  1.00 41.41 LIG 0.06  C 
BRANCH 8 9
ATOM      9  CG  GLU C 506      15.619  19.442   3.385  1.00 54.63 LIG 0.12  C 
BRANCH 9 10
ATOM     10  CD  GLU C 506      17.113  19.241   3.220  1.00 71.07 LIG 0.17  C 
ATOM     11 OE1  GLU C 506      17.849  19.342   4.228  1.00 74.77 LIG-0.65  OA
ATOM     12 OE2  GLU C 506      17.546  18.966   2.078  1.00 73.38 LIG-0.65  OA
ENDBRANCH 9 10
ENDBRANCH 8 9
ENDBRANCH 6 8
ENDBRANCH 3 6
ENDBRANCH 1 2
BRANCH 1 13
ATOM     13  C   ASP C 507      10.566  22.996   3.970  1.00 33.47 LIG 0.24  C 
ATOM     14 O    ASP C 507       9.601  22.350   4.386  1.00 34.83 LIG-0.27  OA
ATOM     15  N   LEU C 508      11.196  23.923   4.686  1.00 31.65 LIG-0.34  N 
ATOM     16 H    LEU C 508      11.875  24.367   4.400  1.00 31.65 LIG 0.16  HD
BRANCH 15 17
ATOM     17  CA  LEU C 508      10.783  24.271   6.037  1.00 32.20 LIG 0.18  C 
BRANCH 17 18
ATOM     18  CB  LEU C 508      12.017  24.591   6.870  1.00 32.28 LIG 0.04  C 
BRANCH 18 19
ATOM     19  CG  LEU C 508      12.270  23.455   7.855  1.00 33.09 LIG-0.02  C 
ATOM     20  CD1 LEU C 508      12.260  22.136   7.143  1.00 32.61 LIG 0.01  C 
ATOM     21  CD2 LEU C 508      13.569  23.706   8.606  1.00 34.13 LIG 0.01  C 
ENDBRANCH 18 19
ENDBRANCH 17 18
BRANCH 17 22
ATOM     22  C   LEU C 508       9.807  25.433   6.081  1.00 33.63 LIG 0.20  C 
ATOM     23 O    LEU C 508       9.517  25.915   7.197  0.50 32.81 LIG-0.65  OA
ATOM     24 OXT  LEU C 508       9.341  25.848   5.001  0.50 35.17 LIG-0.65  OA
ENDBRANCH 17 22
ENDBRANCH 15 17
ENDBRANCH 1 13
BRANCH 1 25
ATOM     25  CB  ASP C 507      10.586  21.440   1.992  1.00 31.02 LIG 0.15  C 
BRANCH 25 26
ATOM     26  CG  ASP C 507       9.262  21.671   1.292  1.00 34.22 LIG 0.17  C 
ATOM     27 OD2  ASP C 507       8.377  22.349   1.861  1.00 32.29 LIG-0.65  OA
ATOM     28 OD1  ASP C 507       9.094  21.130   0.184  1.00 33.73 LIG-0.65  OA
ENDBRANCH 25 26
ENDBRANCH 1 25
TORSDOF 12
ENDMDL
MODEL 64
USER: ADFR SOLUTION from run 41
USER: SCORE 10.433547 LL:  -1.950 LR:  -8.741 RR:   0.000 FEB:  -5.161
USER: RMSD 7.073175
USER: SEED 40
USER: STATUS no improvement in best in 15 clusters for 5 generations
USER: GENES 14
USER: genes 0 Translation |==|  0.34657 0.59247 0.45724
USER: genes 1 Rotation |==|  0.68155 0.94537 0.40209 0.59541
USER: genes 2 Torsion [C]-CA--N-[C] |==|  0.66987
USER: genes 3 Torsion [N]-C--CA-[N] |==|  0.75992
USER: genes 4 Torsion [C]-CA--CB-[CG] |==|  0.33490
USER: genes 5 Torsion [CA]-CB--CG-[CD] |==|  0.47006
USER: genes 6 Torsion [CB]-CG--CD-[OE1] |==|  0.73231
USER: genes 7 Torsion [N]-CA--C-[N] |==|  0.96671
USER: genes 8 Torsion [C]-N--CA-[CB] |==|  0.34046
USER: genes 9 Torsion [N]-CA--CB-[CG] |==|  0.91847
USER: genes 10 Torsion [CA]-CB--CG-[CD1] |==|  0.44464
USER: genes 11 Torsion [N]-CA--C-[O] |==|  0.98349
USER: genes 12 Torsion [N]-CA--CB-[CG] |==|  0.54935
USER: genes 13 Torsion [CA]-CB--CG-[OD2] |==|  0.22748
ROOT
ATOM      1  CA  ASP C 507       6.577  26.623   3.950  1.00 33.68 LIG 0.19  C 
ENDROOT
BRANCH 1 2
ATOM      2  N   ASP C 507       7.262  25.882   5.001  1.00 35.05 LIG-0.34  N 
ATOM      3  C   GLU C 506       8.151  26.451   5.805  1.00 36.98 LIG 0.26  C 
ATOM      4 O    GLU C 506       8.499  27.632   5.698  1.00 35.33 LIG-0.27  OA
ATOM      5 H    ASP C 507       7.038  25.053   5.050  1.00 35.05 LIG 0.16  HD
BRANCH 3 6
ATOM      6  CA  GLU C 506       8.784  25.536   6.853  1.00 38.62 LIG 0.40  C 
ATOM      7  N   GLU C 506       7.934  25.483   8.073  1.00 38.98 LIG 0.61  N 
BRANCH 6 8
ATOM      8  CB  GLU C 506       9.005  24.131   6.289  1.00 41.41 LIG 0.06  C 
BRANCH 8 9
ATOM      9  CG  GLU C 506      10.452  23.681   6.302  1.00 54.63 LIG 0.12  C 
BRANCH 9 10
ATOM     10  CD  GLU C 506      10.620  22.207   5.988  1.00 71.07 LIG 0.17  C 
ATOM     11 OE1  GLU C 506      10.724  21.397   6.938  1.00 74.77 LIG-0.65  OA
ATOM     12 OE2  GLU C 506      10.633  21.861   4.785  1.00 73.38 LIG-0.65  OA
ENDBRANCH 9 10
ENDBRANCH 8 9
ENDBRANCH 6 8
ENDBRANCH 3 6
ENDBRANCH 1 2
BRANCH 1 13
ATOM     13  C   ASP C 507       5.084  26.594   4.223  1.00 33.47 LIG 0.24  C 
ATOM     14 O    ASP C 507       4.309  27.300   3.572  1.00 34.83 LIG-0.27  OA
ATOM     15  N   LEU C 508       4.689  25.735   5.158  1.00 31.65 LIG-0.34  N 
ATOM     16 H    LEU C 508       5.228  25.236   5.606  1.00 31.65 LIG 0.16  HD
BRANCH 15 17
ATOM     17  CA  LEU C 508       3.287  25.564   5.511  1.00 32.20 LIG 0.18  C 
BRANCH 17 18
ATOM     18  CB  LEU C 508       2.898  24.105   5.317  1.00 32.28 LIG 0.04  C 
BRANCH 18 19
ATOM     19  CG  LEU C 508       3.751  23.497   4.209  1.00 33.09 LIG-0.02  C 
ATOM     20  CD1 LEU C 508       3.752  22.002   4.313  1.00 32.61 LIG 0.01  C 
ATOM     21  CD2 LEU C 508       3.261  23.991   2.856  1.00 34.13 LIG 0.01  C 
ENDBRANCH 18 19
ENDBRANCH 17 18
BRANCH 17 22
ATOM     22  C   LEU C 508       2.971  26.006   6.928  1.00 33.63 LIG 0.20  C 
ATOM     23 O    LEU C 508       3.922  26.349   7.663  0.50 32.81 LIG-0.65  OA
ATOM     24 OXT  LEU C 508       1.777  26.004   7.290  0.50 35.17 LIG-0.65  OA
ENDBRANCH 17 22
ENDBRANCH 15 17
ENDBRANCH 1 13
BRANCH 1 25
ATOM     25  CB  ASP C 507       6.909  26.015   2.590  1.00 31.02 LIG 0.15  C 
BRANCH 25 26
ATOM     26  CG  ASP C 507       6.597  26.965   1.452  1.00 34.22 LIG 0.17  C 
ATOM     27 OD2  ASP C 507       7.422  27.859   1.156  1.00 32.29 LIG-0.65  OA
ATOM     28 OD1  ASP C 507       5.498  26.841   0.882  1.00 33.73 LIG-0.65  OA
ENDBRANCH 25 26
ENDBRANCH 1 25
TORSDOF 12
ENDMDL
MODEL 65
USER: ADFR SOLUTION from run 63
USER: SCORE 10.080367 LL:  -1.547 LR:  -8.679 RR:   0.000 FEB:  -5.099
USER: RMSD 7.850326
USER: SEED 62
USER: STATUS no improvement in best in 11 clusters for 5 generations
USER: GENES 14
USER: genes 0 Translation |==|  0.33305 0.59570 0.46556
USER: genes 1 Rotation |==|  0.68027 0.94796 0.38170 0.55329
USER: genes 2 Torsion [C]-CA--N-[C] |==|  0.68335
USER: genes 3 Torsion [N]-C--CA-[N] |==|  0.79449
USER: genes 4 Torsion [C]-CA--CB-[CG] |==|  0.46091
USER: genes 5 Torsion [CA]-CB--CG-[CD] |==|  0.45525
USER: genes 6 Torsion [CB]-CG--CD-[OE1] |==|  0.11422
USER: genes 7 Torsion [N]-CA--C-[N] |==|  0.39118
USER: genes 8 Torsion [C]-N--CA-[CB] |==|  0.26943
USER: genes 9 Torsion [N]-CA--CB-[CG] |==|  0.78550
USER: genes 10 Torsion [CA]-CB--CG-[CD1] |==|  0.27913
USER: genes 11 Torsion [N]-CA--C-[O] |==|  0.62463
USER: genes 12 Torsion [N]-CA--CB-[CG] |==|  0.60732
USER: genes 13 Torsion [CA]-CB--CG-[OD2] |==|  0.66852
ROOT
ATOM      1  CA  ASP C 507       6.344  26.671   4.094  1.00 33.68 LIG 0.19  C 
ENDROOT
BRANCH 1 2
ATOM      2  N   ASP C 507       7.179  25.910   5.013  1.00 35.05 LIG-0.34  N 
ATOM      3  C   GLU C 506       8.163  26.470   5.706  1.00 36.98 LIG 0.26  C 
ATOM      4 O    GLU C 506       8.475  27.660   5.593  1.00 35.33 LIG-0.27  OA
ATOM      5 H    ASP C 507       6.976  25.076   5.063  1.00 35.05 LIG 0.16  HD
BRANCH 3 6
ATOM      6  CA  GLU C 506       8.949  25.534   6.623  1.00 38.62 LIG 0.40  C 
ATOM      7  N   GLU C 506       8.139  25.186   7.822  1.00 38.98 LIG 0.61  N 
BRANCH 6 8
ATOM      8  CB  GLU C 506       9.375  24.268   5.876  1.00 41.41 LIG 0.06  C 
BRANCH 8 9
ATOM      9  CG  GLU C 506      10.430  23.452   6.597  1.00 54.63 LIG 0.12  C 
BRANCH 9 10
ATOM     10  CD  GLU C 506      10.560  22.040   6.060  1.00 71.07 LIG 0.17  C 
ATOM     11 OE1  GLU C 506      10.513  21.861   4.821  1.00 74.77 LIG-0.65  OA
ATOM     12 OE2  GLU C 506      10.724  21.112   6.883  1.00 73.38 LIG-0.65  OA
ENDBRANCH 9 10
ENDBRANCH 8 9
ENDBRANCH 6 8
ENDBRANCH 3 6
ENDBRANCH 1 2
BRANCH 1 13
ATOM     13  C   ASP C 507       4.925  26.706   4.634  1.00 33.47 LIG 0.24  C 
ATOM     14 O    ASP C 507       4.444  25.726   5.207  1.00 34.83 LIG-0.27  OA
ATOM     15  N   LEU C 508       4.283  27.861   4.485  1.00 31.65 LIG-0.34  N 
ATOM     16 H    LEU C 508       4.622  28.548   4.094  1.00 31.65 LIG 0.16  HD
BRANCH 15 17
ATOM     17  CA  LEU C 508       2.930  28.065   4.980  1.00 32.20 LIG 0.18  C 
BRANCH 17 18
ATOM     18  CB  LEU C 508       2.992  28.751   6.337  1.00 32.28 LIG 0.04  C 
BRANCH 18 19
ATOM     19  CG  LEU C 508       3.372  27.729   7.403  1.00 33.09 LIG-0.02  C 
ATOM     20  CD1 LEU C 508       4.827  27.846   7.742  1.00 32.61 LIG 0.01  C 
ATOM     21  CD2 LEU C 508       2.472  27.897   8.618  1.00 34.13 LIG 0.01  C 
ENDBRANCH 18 19
ENDBRANCH 17 18
BRANCH 17 22
ATOM     22  C   LEU C 508       2.062  28.867   4.027  1.00 33.63 LIG 0.20  C 
ATOM     23 O    LEU C 508       1.353  29.779   4.504  0.50 32.81 LIG-0.65  OA
ATOM     24 OXT  LEU C 508       2.099  28.575   2.814  0.50 35.17 LIG-0.65  OA
ENDBRANCH 17 22
ENDBRANCH 15 17
ENDBRANCH 1 13
BRANCH 1 25
ATOM     25  CB  ASP C 507       6.398  26.041   2.705  1.00 31.02 LIG 0.15  C 
BRANCH 25 26
ATOM     26  CG  ASP C 507       6.422  27.086   1.608  1.00 34.22 LIG 0.17  C 
ATOM     27 OD2  ASP C 507       5.499  27.111   0.763  1.00 32.29 LIG-0.65  OA
ATOM     28 OD1  ASP C 507       7.398  27.859   1.569  1.00 33.73 LIG-0.65  OA
ENDBRANCH 25 26
ENDBRANCH 1 25
TORSDOF 12
ENDMDL
MODEL 66
USER: ADFR SOLUTION from run 184
USER: SCORE 10.535558 LL:  -1.874 LR:  -8.663 RR:   0.000 FEB:  -5.083
USER: RMSD 6.452526
USER: SEED 183
USER: STATUS no improvement in best in 17 clusters for 5 generations
USER: GENES 14
USER: genes 0 Translation |==|  0.55578 0.46520 0.61739
USER: genes 1 Rotation |==|  0.54253 0.58714 0.98913 0.53681
USER: genes 2 Torsion [C]-CA--N-[C] |==|  0.82297
USER: genes 3 Torsion [N]-C--CA-[N] |==|  0.85765
USER: genes 4 Torsion [C]-CA--CB-[CG] |==|  0.14075
USER: genes 5 Torsion [CA]-CB--CG-[CD] |==|  0.72821
USER: genes 6 Torsion [CB]-CG--CD-[OE1] |==|  0.38681
USER: genes 7 Torsion [N]-CA--C-[N] |==|  0.39623
USER: genes 8 Torsion [C]-N--CA-[CB] |==|  0.86820
USER: genes 9 Torsion [N]-CA--CB-[CG] |==|  0.79808
USER: genes 10 Torsion [CA]-CB--CG-[CD1] |==|  0.95780
USER: genes 11 Torsion [N]-CA--C-[O] |==|  0.55473
USER: genes 12 Torsion [N]-CA--CB-[CG] |==|  0.51040
USER: genes 13 Torsion [CA]-CB--CG-[OD2] |==|  0.57525
ROOT
ATOM      1  CA  ASP C 507      10.186  24.714   6.713  1.00 33.68 LIG 0.19  C 
ENDROOT
BRANCH 1 2
ATOM      2  N   ASP C 507      11.485  24.544   6.075  1.00 35.05 LIG-0.34  N 
ATOM      3  C   GLU C 506      11.610  24.085   4.835  1.00 36.98 LIG 0.26  C 
ATOM      4 O    GLU C 506      10.647  23.727   4.148  1.00 35.33 LIG-0.27  OA
ATOM      5 H    ASP C 507      12.152  24.765   6.570  1.00 35.05 LIG 0.16  HD
BRANCH 3 6
ATOM      6  CA  GLU C 506      13.040  23.960   4.312  1.00 38.62 LIG 0.40  C 
ATOM      7  N   GLU C 506      13.778  25.236   4.515  1.00 38.98 LIG 0.61  N 
BRANCH 6 8
ATOM      8  CB  GLU C 506      13.771  22.801   4.994  1.00 41.41 LIG 0.06  C 
BRANCH 8 9
ATOM      9  CG  GLU C 506      13.007  21.492   4.972  1.00 54.63 LIG 0.12  C 
BRANCH 9 10
ATOM     10  CD  GLU C 506      12.251  21.222   6.258  1.00 71.07 LIG 0.17  C 
ATOM     11 OE1  GLU C 506      11.099  20.736   6.188  1.00 74.77 LIG-0.65  OA
ATOM     12 OE2  GLU C 506      12.822  21.486   7.341  1.00 73.38 LIG-0.65  OA
ENDBRANCH 9 10
ENDBRANCH 8 9
ENDBRANCH 6 8
ENDBRANCH 3 6
ENDBRANCH 1 2
BRANCH 1 13
ATOM     13  C   ASP C 507       9.398  25.763   5.949  1.00 33.47 LIG 0.24  C 
ATOM     14 O    ASP C 507       9.966  26.731   5.438  1.00 34.83 LIG-0.27  OA
ATOM     15  N   LEU C 508       8.093  25.532   5.839  1.00 31.65 LIG-0.34  N 
ATOM     16 H    LEU C 508       7.698  24.852   6.188  1.00 31.65 LIG 0.16  HD
BRANCH 15 17
ATOM     17  CA  LEU C 508       7.206  26.425   5.108  1.00 32.20 LIG 0.18  C 
BRANCH 17 18
ATOM     18  CB  LEU C 508       7.483  27.861   5.530  1.00 32.28 LIG 0.04  C 
BRANCH 18 19
ATOM     19  CG  LEU C 508       6.942  28.087   6.938  1.00 33.09 LIG-0.02  C 
ATOM     20  CD1 LEU C 508       6.003  26.983   7.318  1.00 32.61 LIG 0.01  C 
ATOM     21  CD2 LEU C 508       8.099  28.235   7.915  1.00 34.13 LIG 0.01  C 
ENDBRANCH 18 19
ENDBRANCH 17 18
BRANCH 17 22
ATOM     22  C   LEU C 508       7.333  26.289   3.602  1.00 33.63 LIG 0.20  C 
ATOM     23 O    LEU C 508       6.922  27.229   2.890  0.50 32.81 LIG-0.65  OA
ATOM     24 OXT  LEU C 508       7.841  25.242   3.149  0.50 35.17 LIG-0.65  OA
ENDBRANCH 17 22
ENDBRANCH 15 17
ENDBRANCH 1 13
BRANCH 1 25
ATOM     25  CB  ASP C 507      10.378  25.113   8.174  1.00 31.02 LIG 0.15  C 
BRANCH 25 26
ATOM     26  CG  ASP C 507       9.059  25.215   8.912  1.00 34.22 LIG 0.17  C 
ATOM     27 OD2  ASP C 507       8.964  25.984   9.896  1.00 32.29 LIG-0.65  OA
ATOM     28 OD1  ASP C 507       8.125  24.487   8.528  1.00 33.73 LIG-0.65  OA
ENDBRANCH 25 26
ENDBRANCH 1 25
TORSDOF 12
ENDMDL
MODEL 67
USER: ADFR SOLUTION from run 88
USER: SCORE 10.448500 LL:  -1.974 LR:  -8.663 RR:   0.000 FEB:  -5.084
USER: RMSD 6.399563
USER: SEED 87
USER: STATUS no improvement in best in 12 clusters for 5 generations
USER: GENES 14
USER: genes 0 Translation |==|  0.61285 0.38887 0.67142
USER: genes 1 Rotation |==|  0.71426 0.55222 0.94868 0.49288
USER: genes 2 Torsion [C]-CA--N-[C] |==|  0.18023
USER: genes 3 Torsion [N]-C--CA-[N] |==|  0.64094
USER: genes 4 Torsion [C]-CA--CB-[CG] |==|  0.24117
USER: genes 5 Torsion [CA]-CB--CG-[CD] |==|  0.65673
USER: genes 6 Torsion [CB]-CG--CD-[OE1] |==|  0.06355
USER: genes 7 Torsion [N]-CA--C-[N] |==|  0.05020
USER: genes 8 Torsion [C]-N--CA-[CB] |==|  0.14721
USER: genes 9 Torsion [N]-CA--CB-[CG] |==|  0.62907
USER: genes 10 Torsion [CA]-CB--CG-[CD1] |==|  0.00057
USER: genes 11 Torsion [N]-CA--C-[O] |==|  0.60398
USER: genes 12 Torsion [N]-CA--CB-[CG] |==|  0.77899
USER: genes 13 Torsion [CA]-CB--CG-[OD2] |==|  0.10551
ROOT
ATOM      1  CA  ASP C 507      11.171  23.569   7.645  1.00 33.68 LIG 0.19  C 
ENDROOT
BRANCH 1 2
ATOM      2  N   ASP C 507      11.717  23.612   6.295  1.00 35.05 LIG-0.34  N 
ATOM      3  C   GLU C 506      12.404  24.654   5.842  1.00 36.98 LIG 0.26  C 
ATOM      4 O    GLU C 506      12.592  25.679   6.508  1.00 35.33 LIG-0.27  OA
ATOM      5 H    ASP C 507      11.555  22.909   5.828  1.00 35.05 LIG 0.16  HD
BRANCH 3 6
ATOM      6  CA  GLU C 506      12.906  24.547   4.403  1.00 38.62 LIG 0.40  C 
ATOM      7  N   GLU C 506      14.359  24.861   4.338  1.00 38.98 LIG 0.61  N 
BRANCH 6 8
ATOM      8  CB  GLU C 506      12.630  23.154   3.831  1.00 41.41 LIG 0.06  C 
BRANCH 8 9
ATOM      9  CG  GLU C 506      11.257  23.006   3.206  1.00 54.63 LIG 0.12  C 
BRANCH 9 10
ATOM     10  CD  GLU C 506      10.446  21.877   3.813  1.00 71.07 LIG 0.17  C 
ATOM     11 OE1  GLU C 506      10.730  21.486   4.969  1.00 74.77 LIG-0.65  OA
ATOM     12 OE2  GLU C 506       9.514  21.392   3.133  1.00 73.38 LIG-0.65  OA
ENDBRANCH 9 10
ENDBRANCH 8 9
ENDBRANCH 6 8
ENDBRANCH 3 6
ENDBRANCH 1 2
BRANCH 1 13
ATOM     13  C   ASP C 507      10.112  24.649   7.780  1.00 33.47 LIG 0.24  C 
ATOM     14 O    ASP C 507       9.772  25.065   8.890  1.00 34.83 LIG-0.27  OA
ATOM     15  N   LEU C 508       9.633  25.128   6.636  1.00 31.65 LIG-0.34  N 
ATOM     16 H    LEU C 508       9.877  24.845   5.861  1.00 31.65 LIG 0.16  HD
BRANCH 15 17
ATOM     17  CA  LEU C 508       8.639  26.190   6.596  1.00 32.20 LIG 0.18  C 
BRANCH 17 18
ATOM     18  CB  LEU C 508       9.132  27.368   7.424  1.00 32.28 LIG 0.04  C 
BRANCH 18 19
ATOM     19  CG  LEU C 508       8.005  27.857   8.327  1.00 33.09 LIG-0.02  C 
ATOM     20  CD1 LEU C 508       6.774  27.027   8.121  1.00 32.61 LIG 0.01  C 
ATOM     21  CD2 LEU C 508       8.473  27.862   9.775  1.00 34.13 LIG 0.01  C 
ENDBRANCH 18 19
ENDBRANCH 17 18
BRANCH 17 22
ATOM     22  C   LEU C 508       8.309  26.644   5.186  1.00 33.63 LIG 0.20  C 
ATOM     23 O    LEU C 508       8.100  27.861   4.993  0.50 32.81 LIG-0.65  OA
ATOM     24 OXT  LEU C 508       8.260  25.779   4.287  0.50 35.17 LIG-0.65  OA
ENDBRANCH 17 22
ENDBRANCH 15 17
ENDBRANCH 1 13
BRANCH 1 25
ATOM     25  CB  ASP C 507      12.293  23.757   8.663  1.00 31.02 LIG 0.15  C 
BRANCH 25 26
ATOM     26  CG  ASP C 507      13.075  22.479   8.887  1.00 34.22 LIG 0.17  C 
ATOM     27 OD2  ASP C 507      13.310  21.724   7.916  1.00 32.29 LIG-0.65  OA
ATOM     28 OD1  ASP C 507      13.418  22.209  10.053  1.00 33.73 LIG-0.65  OA
ENDBRANCH 25 26
ENDBRANCH 1 25
TORSDOF 12
ENDMDL
