MODEL 1
USER: ADFR SOLUTION from run 177
USER: SCORE 20.707780 LL:  -2.657 LR: -20.689 RR:   0.000 FEB: -15.618
USER: RMSD 0.506620
USER: SEED 176
USER: STATUS 1 or 2 clusters left
USER: GENES 19
USER: genes 0 Translation |==|  0.55201 0.49703 0.59693
USER: genes 1 Rotation |==|  0.51023 0.50377 0.46225 0.99845
USER: genes 2 Torsion [C]-N--CA-[CB] |==|  0.24010
USER: genes 3 Torsion [N]-CA--C-[N] |==|  0.41915
USER: genes 4 Torsion [C]-N--CA-[C] |==|  0.55743
USER: genes 5 Torsion [N]-CA--C-[N] |==|  0.44648
USER: genes 6 Torsion [C]-N--CA-[CB] |==|  0.21446
USER: genes 7 Torsion [N]-CA--CB-[OG] |==|  0.54929
USER: genes 8 Torsion [CA]-CB--OG-[HG] |==|  0.00842
USER: genes 9 Torsion [N]-CA--C-[N] |==|  0.41113
USER: genes 10 Torsion [N]-CA--CB-[OG] |==|  0.62579
USER: genes 11 Torsion [CA]-CB--OG-[HG] |==|  0.01149
USER: genes 12 Torsion [N]-C--CA-[N] |==|  0.36752
USER: genes 13 Torsion [C]-CA--CB-[CG1] |==|  0.24864
USER: genes 14 Torsion [C]-CA--N-[C] |==|  0.68269
USER: genes 15 Torsion [N]-C--CA-[N] |==|  0.35352
USER: genes 16 Torsion [C]-CA--CB-[CG2] |==|  0.15716
USER: genes 17 Torsion [CA]-CB--OG1-[HG1] |==|  0.40794
USER: genes 18 Torsion [C]-CA--N-[C] |==|  0.61899
ROOT
ATOM      1  C   VAL B 902      17.125  18.191  31.035  1.00 24.89 LIG 0.24  C 
ATOM      2 O    VAL B 902      17.718  17.112  30.909  1.00 25.21 LIG-0.27  OA
ATOM      3  N   ALA B 903      16.679  18.890  29.996  1.00 23.62 LIG-0.35  N 
ATOM      4 H    ALA B 903      16.244  19.629  30.060  1.00 23.62 LIG 0.16  HD
ENDROOT
BRANCH 3 5
ATOM      5  CA  ALA B 903      16.907  18.431  28.629  1.00 23.36 LIG 0.17  C 
ATOM      6  CB  ALA B 903      15.804  17.468  28.204  1.00 21.10 LIG 0.04  C 
BRANCH 5 7
ATOM      7  C   ALA B 903      16.995  19.588  27.652  1.00 23.23 LIG 0.24  C 
ATOM      8  N   SER B 904      17.754  19.383  26.583  1.00 24.88 LIG-0.34  N 
ATOM      9 H    SER B 904      18.178  18.649  26.435  1.00 24.88 LIG 0.16  HD
ATOM     10 O    ALA B 903      16.399  20.638  27.864  1.00 23.91 LIG-0.27  OA
BRANCH 8 11
ATOM     11  CA  SER B 904      17.942  20.394  25.549  1.00 25.49 LIG 0.20  C 
BRANCH 11 12
ATOM     12  C   SER B 904      18.402  19.736  24.276  1.00 23.47 LIG 0.24  C 
ATOM     13 O    SER B 904      18.924  18.623  24.293  1.00 24.04 LIG-0.27  OA
ATOM     14  N   SER B 905      18.227  20.457  23.177  1.00 22.08 LIG-0.34  N 
ATOM     15 H    SER B 905      17.869  21.239  23.177  1.00 22.08 LIG 0.16  HD
BRANCH 14 16
ATOM     16  CA  SER B 905      18.626  19.995  21.860  1.00 21.44 LIG 0.20  C 
BRANCH 16 17
ATOM     17  CB  SER B 905      17.615  18.982  21.336  1.00 20.37 LIG 0.20  C 
BRANCH 17 18
ATOM     18 OG   SER B 905      18.180  18.240  20.277  1.00 31.40 LIG-0.40  OA
ATOM     19 HG   SER B 905      18.980  18.472  20.167  1.00 31.40 LIG 0.21  HD
ENDBRANCH 17 18
ENDBRANCH 16 17
BRANCH 16 20
ATOM     20  C   SER B 905      18.686  21.195  20.922  1.00 23.32 LIG 0.29  C 
ATOM     21 O    SER B 905      18.181  22.269  21.323  1.00 21.70 LIG-0.27  OA
ATOM     22  N   NH2 B 906      19.539  21.280  19.914  1.00 25.92 LIG-0.11  N 
ENDBRANCH 16 20
ENDBRANCH 14 16
ENDBRANCH 11 12
BRANCH 11 23
ATOM     23  CB  SER B 904      18.994  21.426  25.960  1.00 30.40 LIG 0.20  C 
BRANCH 23 24
ATOM     24 OG   SER B 904      18.561  22.744  25.689  1.00 44.87 LIG-0.40  OA
ATOM     25 HG   SER B 904      17.773  22.726  25.399  1.00 44.87 LIG 0.21  HD
ENDBRANCH 23 24
ENDBRANCH 11 23
ENDBRANCH 8 11
ENDBRANCH 5 7
ENDBRANCH 3 5
BRANCH 1 26
ATOM     26  CA  VAL B 902      16.817  18.751  32.429  1.00 24.94 LIG 0.18  C 
BRANCH 26 27
ATOM     27  CB  VAL B 902      18.108  19.340  33.058  1.00 27.11 LIG 0.01  C 
ATOM     28  CG1 VAL B 902      18.246  20.805  32.680  1.00 30.95 LIG 0.01  C 
ATOM     29  CG2 VAL B 902      18.078  19.196  34.572  1.00 30.50 LIG 0.01  C 
ENDBRANCH 26 27
BRANCH 26 30
ATOM     30  N   VAL B 902      16.305  17.610  33.176  1.00 21.31 LIG-0.35  N 
ATOM     31  C   THR B 901      15.053  17.554  33.606  1.00 21.82 LIG 0.24  C 
ATOM     32 O    THR B 901      14.260  18.487  33.487  1.00 23.34 LIG-0.27  OA
ATOM     33 H    VAL B 902      16.883  16.987  33.308  1.00 21.31 LIG 0.16  HD
BRANCH 31 34
ATOM     34  CA  THR B 901      14.657  16.263  34.316  1.00 22.53 LIG 0.20  C 
BRANCH 34 35
ATOM     35  CB  THR B 901      13.682  15.477  33.389  1.00 20.33 LIG 0.15  C 
ATOM     36  CG2 THR B 901      14.310  15.208  32.024  1.00 17.30 LIG 0.04  C 
BRANCH 35 37
ATOM     37 OG1  THR B 901      13.338  14.229  33.998  1.00 21.41 LIG-0.39  OA
ATOM     38 HG1  THR B 901      12.550  14.024  33.792  1.00 21.41 LIG 0.21  HD
ENDBRANCH 35 37
ENDBRANCH 34 35
BRANCH 34 39
ATOM     39  N   THR B 901      14.062  16.518  35.625  1.00 24.74 LIG-0.35  N 
ATOM     40 H    THR B 901      13.501  17.170  35.640  1.00 24.74 LIG 0.16  HD
ATOM     41  C   ACE B 900      14.377  15.789  36.691  1.00 23.90 LIG 0.21  C 
ATOM     42  CH3 ACE B 900      13.682  16.169  37.984  1.00 24.26 LIG 0.12  C 
ATOM     43 O    ACE B 900      15.186  14.861  36.656  1.00 24.84 LIG-0.27  OA
ENDBRANCH 34 39
ENDBRANCH 31 34
ENDBRANCH 26 30
ENDBRANCH 1 26
TORSDOF 17
ENDMDL
MODEL 2
USER: ADFR SOLUTION from run 135
USER: SCORE 19.814444 LL:  -2.745 LR: -19.552 RR:   0.000 FEB: -14.480
USER: RMSD 4.740089
USER: SEED 134
USER: STATUS 1 or 2 clusters left
USER: GENES 19
USER: genes 0 Translation |==|  0.53754 0.57148 0.47146
USER: genes 1 Rotation |==|  0.42657 0.39297 0.97982 0.55412
USER: genes 2 Torsion [C]-N--CA-[CB] |==|  0.20760
USER: genes 3 Torsion [N]-CA--C-[N] |==|  0.44104
USER: genes 4 Torsion [C]-N--CA-[C] |==|  0.55612
USER: genes 5 Torsion [N]-CA--C-[N] |==|  0.45070
USER: genes 6 Torsion [C]-N--CA-[CB] |==|  0.18068
USER: genes 7 Torsion [N]-CA--CB-[OG] |==|  0.68227
USER: genes 8 Torsion [CA]-CB--OG-[HG] |==|  0.97593
USER: genes 9 Torsion [N]-CA--C-[N] |==|  0.43648
USER: genes 10 Torsion [N]-CA--CB-[OG] |==|  0.53281
USER: genes 11 Torsion [CA]-CB--OG-[HG] |==|  0.02280
USER: genes 12 Torsion [N]-C--CA-[N] |==|  0.41188
USER: genes 13 Torsion [C]-CA--CB-[CG1] |==|  0.23364
USER: genes 14 Torsion [C]-CA--N-[C] |==|  0.61003
USER: genes 15 Torsion [N]-C--CA-[N] |==|  0.37206
USER: genes 16 Torsion [C]-CA--CB-[CG2] |==|  0.38075
USER: genes 17 Torsion [CA]-CB--OG1-[HG1] |==|  0.29888
USER: genes 18 Torsion [C]-CA--N-[C] |==|  0.76155
ROOT
ATOM      1  C   VAL B 902      16.897  19.420  27.647  1.00 24.89 LIG 0.24  C 
ATOM      2 O    VAL B 902      16.364  20.519  27.841  1.00 25.21 LIG-0.27  OA
ATOM      3  N   ALA B 903      17.657  19.169  26.586  1.00 23.62 LIG-0.35  N 
ATOM      4 H    ALA B 903      18.057  18.421  26.442  1.00 23.62 LIG 0.16  HD
ENDROOT
BRANCH 3 5
ATOM      5  CA  ALA B 903      17.869  20.183  25.557  1.00 23.36 LIG 0.17  C 
ATOM      6  CB  ALA B 903      18.834  21.251  26.059  1.00 21.10 LIG 0.04  C 
BRANCH 5 7
ATOM      7  C   ALA B 903      18.384  19.579  24.266  1.00 23.23 LIG 0.24  C 
ATOM      8  N   SER B 904      18.195  20.307  23.173  1.00 24.88 LIG-0.34  N 
ATOM      9 H    SER B 904      17.807  21.075  23.175  1.00 24.88 LIG 0.16  HD
ATOM     10 O    ALA B 903      18.931  18.481  24.258  1.00 23.91 LIG-0.27  OA
BRANCH 8 11
ATOM     11  CA  SER B 904      18.634  19.869  21.853  1.00 25.49 LIG 0.20  C 
BRANCH 11 12
ATOM     12  C   SER B 904      18.739  21.056  20.934  1.00 23.47 LIG 0.24  C 
ATOM     13 O    SER B 904      18.157  22.109  21.193  1.00 24.04 LIG-0.27  OA
ATOM     14  N   SER B 905      19.463  20.859  19.842  1.00 22.08 LIG-0.34  N 
ATOM     15 H    SER B 905      19.858  20.115  19.665  1.00 22.08 LIG 0.16  HD
BRANCH 14 16
ATOM     16  CA  SER B 905      19.662  21.882  18.831  1.00 21.44 LIG 0.20  C 
BRANCH 16 17
ATOM     17  CB  SER B 905      20.452  23.046  19.418  1.00 20.37 LIG 0.20  C 
BRANCH 17 18
ATOM     18 OG   SER B 905      19.648  24.204  19.457  1.00 31.40 LIG-0.40  OA
ATOM     19 HG   SER B 905      18.931  24.063  19.043  1.00 31.40 LIG 0.21  HD
ENDBRANCH 17 18
ENDBRANCH 16 17
BRANCH 16 20
ATOM     20  C   SER B 905      20.431  21.271  17.666  1.00 23.32 LIG 0.29  C 
ATOM     21 O    SER B 905      20.806  20.082  17.779  1.00 21.70 LIG-0.27  OA
ATOM     22  N   NH2 B 906      20.397  21.769  16.440  1.00 25.92 LIG-0.11  N 
ENDBRANCH 16 20
ENDBRANCH 14 16
ENDBRANCH 11 12
BRANCH 11 23
ATOM     23  CB  SER B 904      17.646  18.874  21.237  1.00 30.40 LIG 0.20  C 
BRANCH 23 24
ATOM     24 OG   SER B 904      18.190  18.246  20.092  1.00 44.87 LIG-0.40  OA
ATOM     25 HG   SER B 904      19.001  18.450  20.020  1.00 44.87 LIG 0.21  HD
ENDBRANCH 23 24
ENDBRANCH 11 23
ENDBRANCH 8 11
ENDBRANCH 5 7
ENDBRANCH 3 5
BRANCH 1 26
ATOM     26  CA  VAL B 902      16.754  18.293  28.677  1.00 24.94 LIG 0.18  C 
BRANCH 26 27
ATOM     27  CB  VAL B 902      15.524  17.412  28.328  1.00 27.11 LIG 0.01  C 
ATOM     28  CG1 VAL B 902      15.913  16.368  27.295  1.00 30.95 LIG 0.01  C 
ATOM     29  CG2 VAL B 902      14.984  16.731  29.576  1.00 30.50 LIG 0.01  C 
ENDBRANCH 26 27
BRANCH 26 30
ATOM     30  N   VAL B 902      16.602  18.981  29.952  1.00 21.31 LIG-0.35  N 
ATOM     31  C   THR B 901      17.178  18.544  31.062  1.00 21.82 LIG 0.24  C 
ATOM     32 O    THR B 901      17.806  17.487  31.122  1.00 23.34 LIG-0.27  OA
ATOM     33 H    VAL B 902      16.111  19.686  29.916  1.00 21.31 LIG 0.16  HD
BRANCH 31 34
ATOM     34  CA  THR B 901      16.972  19.413  32.299  1.00 22.53 LIG 0.20  C 
BRANCH 34 35
ATOM     35  CB  THR B 901      18.277  20.227  32.544  1.00 20.33 LIG 0.15  C 
ATOM     36  CG2 THR B 901      17.967  21.678  32.907  1.00 17.30 LIG 0.04  C 
BRANCH 35 37
ATOM     37 OG1  THR B 901      19.026  19.631  33.607  1.00 21.41 LIG-0.39  OA
ATOM     38 HG1  THR B 901      19.705  19.249  33.292  1.00 21.41 LIG 0.21  HD
ENDBRANCH 35 37
ENDBRANCH 34 35
BRANCH 34 39
ATOM     39  N   THR B 901      16.606  18.622  33.471  1.00 24.74 LIG-0.35  N 
ATOM     40 H    THR B 901      17.271  18.398  33.969  1.00 24.74 LIG 0.16  HD
ATOM     41  C   ACE B 900      15.345  18.290  33.726  1.00 23.90 LIG 0.21  C 
ATOM     42  CH3 ACE B 900      15.116  17.466  34.978  1.00 24.26 LIG 0.12  C 
ATOM     43 O    ACE B 900      14.405  18.615  33.000  1.00 24.84 LIG-0.27  OA
ENDBRANCH 34 39
ENDBRANCH 31 34
ENDBRANCH 26 30
ENDBRANCH 1 26
TORSDOF 17
ENDMDL
MODEL 3
USER: ADFR SOLUTION from run 12
USER: SCORE 19.625857 LL:  -2.753 LR: -19.508 RR:   0.000 FEB: -14.437
USER: RMSD 4.924141
USER: SEED 630939
USER: STATUS no improvement in best in 4 clusters for 5 generations
USER: GENES 19
USER: genes 0 Translation |==|  0.53840 0.56288 0.47282
USER: genes 1 Rotation |==|  0.44098 0.38544 0.97308 0.59792
USER: genes 2 Torsion [C]-N--CA-[CB] |==|  0.17870
USER: genes 3 Torsion [N]-CA--C-[N] |==|  0.43348
USER: genes 4 Torsion [C]-N--CA-[C] |==|  0.55000
USER: genes 5 Torsion [N]-CA--C-[N] |==|  0.45063
USER: genes 6 Torsion [C]-N--CA-[CB] |==|  0.18465
USER: genes 7 Torsion [N]-CA--CB-[OG] |==|  0.64150
USER: genes 8 Torsion [CA]-CB--OG-[HG] |==|  0.05348
USER: genes 9 Torsion [N]-CA--C-[N] |==|  0.44201
USER: genes 10 Torsion [N]-CA--CB-[OG] |==|  0.51924
USER: genes 11 Torsion [CA]-CB--OG-[HG] |==|  0.04158
USER: genes 12 Torsion [N]-C--CA-[N] |==|  0.44760
USER: genes 13 Torsion [C]-CA--CB-[CG1] |==|  0.23101
USER: genes 14 Torsion [C]-CA--N-[C] |==|  0.60174
USER: genes 15 Torsion [N]-C--CA-[N] |==|  0.86273
USER: genes 16 Torsion [C]-CA--CB-[CG2] |==|  0.11738
USER: genes 17 Torsion [CA]-CB--OG1-[HG1] |==|  0.23390
USER: genes 18 Torsion [C]-CA--N-[C] |==|  0.76707
ROOT
ATOM      1  C   VAL B 902      16.911  19.277  27.684  1.00 24.89 LIG 0.24  C 
ATOM      2 O    VAL B 902      16.573  20.427  27.990  1.00 25.21 LIG-0.27  OA
ATOM      3  N   ALA B 903      17.534  18.993  26.545  1.00 23.62 LIG-0.35  N 
ATOM      4 H    ALA B 903      17.800  18.206  26.321  1.00 23.62 LIG 0.16  HD
ENDROOT
BRANCH 3 5
ATOM      5  CA  ALA B 903      17.819  20.036  25.564  1.00 23.36 LIG 0.17  C 
ATOM      6  CB  ALA B 903      18.793  21.056  26.145  1.00 21.10 LIG 0.04  C 
BRANCH 5 7
ATOM      7  C   ALA B 903      18.372  19.462  24.274  1.00 23.23 LIG 0.24  C 
ATOM      8  N   SER B 904      18.201  20.210  23.191  1.00 24.88 LIG-0.34  N 
ATOM      9 H    SER B 904      17.804  20.974  23.198  1.00 24.88 LIG 0.16  HD
ATOM     10 O    ALA B 903      18.931  18.371  24.258  1.00 23.91 LIG-0.27  OA
BRANCH 8 11
ATOM     11  CA  SER B 904      18.676  19.802  21.874  1.00 25.49 LIG 0.20  C 
BRANCH 11 12
ATOM     12  C   SER B 904      18.738  21.000  20.964  1.00 23.47 LIG 0.24  C 
ATOM     13 O    SER B 904      18.105  22.022  21.224  1.00 24.04 LIG-0.27  OA
ATOM     14  N   SER B 905      19.484  20.844  19.881  1.00 22.08 LIG-0.34  N 
ATOM     15 H    SER B 905      19.916  20.121  19.704  1.00 22.08 LIG 0.16  HD
BRANCH 14 16
ATOM     16  CA  SER B 905      19.649  21.883  18.880  1.00 21.44 LIG 0.20  C 
BRANCH 16 17
ATOM     17  CB  SER B 905      20.409  23.063  19.475  1.00 20.37 LIG 0.20  C 
BRANCH 17 18
ATOM     18 OG   SER B 905      19.708  24.262  19.227  1.00 31.40 LIG-0.40  OA
ATOM     19 HG   SER B 905      18.908  24.087  19.043  1.00 31.40 LIG 0.21  HD
ENDBRANCH 17 18
ENDBRANCH 16 17
BRANCH 16 20
ATOM     20  C   SER B 905      20.430  21.307  17.705  1.00 23.32 LIG 0.29  C 
ATOM     21 O    SER B 905      20.806  20.115  17.789  1.00 21.70 LIG-0.27  OA
ATOM     22  N   NH2 B 906      20.406  21.838  16.493  1.00 25.92 LIG-0.11  N 
ENDBRANCH 16 20
ENDBRANCH 14 16
ENDBRANCH 11 12
BRANCH 11 23
ATOM     23  CB  SER B 904      17.743  18.768  21.238  1.00 30.40 LIG 0.20  C 
BRANCH 23 24
ATOM     24 OG   SER B 904      18.281  18.255  20.035  1.00 44.87 LIG-0.40  OA
ATOM     25 HG   SER B 904      19.096  18.451  19.987  1.00 44.87 LIG 0.21  HD
ENDBRANCH 23 24
ENDBRANCH 11 23
ENDBRANCH 8 11
ENDBRANCH 5 7
ENDBRANCH 3 5
BRANCH 1 26
ATOM     26  CA  VAL B 902      16.676  18.113  28.653  1.00 24.94 LIG 0.18  C 
BRANCH 26 27
ATOM     27  CB  VAL B 902      15.474  17.259  28.170  1.00 27.11 LIG 0.01  C 
ATOM     28  CG1 VAL B 902      15.935  16.267  27.115  1.00 30.95 LIG 0.01  C 
ATOM     29  CG2 VAL B 902      14.842  16.516  29.338  1.00 30.50 LIG 0.01  C 
ENDBRANCH 26 27
BRANCH 26 30
ATOM     30  N   VAL B 902      16.424  18.753  29.938  1.00 21.31 LIG-0.35  N 
ATOM     31  C   THR B 901      16.854  18.236  31.079  1.00 21.82 LIG 0.24  C 
ATOM     32 O    THR B 901      17.418  17.144  31.152  1.00 23.34 LIG-0.27  OA
ATOM     33 H    VAL B 902      15.977  19.485  29.885  1.00 21.31 LIG 0.16  HD
BRANCH 31 34
ATOM     34  CA  THR B 901      16.563  19.061  32.329  1.00 22.53 LIG 0.20  C 
BRANCH 34 35
ATOM     35  CB  THR B 901      15.046  18.927  32.657  1.00 20.33 LIG 0.15  C 
ATOM     36  CG2 THR B 901      14.565  17.488  32.486  1.00 17.30 LIG 0.04  C 
BRANCH 35 37
ATOM     37 OG1  THR B 901      14.806  19.341  34.006  1.00 21.41 LIG-0.39  OA
ATOM     38 HG1  THR B 901      14.718  20.176  34.032  1.00 21.41 LIG 0.21  HD
ENDBRANCH 35 37
ENDBRANCH 34 35
BRANCH 34 39
ATOM     39  N   THR B 901      16.955  20.458  32.167  1.00 24.74 LIG-0.35  N 
ATOM     40 H    THR B 901      16.315  20.981  31.930  1.00 24.74 LIG 0.16  HD
ATOM     41  C   ACE B 900      18.203  20.864  32.375  1.00 23.90 LIG 0.21  C 
ATOM     42  CH3 ACE B 900      18.464  22.343  32.168  1.00 24.26 LIG 0.12  C 
ATOM     43 O    ACE B 900      19.111  20.101  32.710  1.00 24.84 LIG-0.27  OA
ENDBRANCH 34 39
ENDBRANCH 31 34
ENDBRANCH 26 30
ENDBRANCH 1 26
TORSDOF 17
ENDMDL
MODEL 4
USER: ADFR SOLUTION from run 106
USER: SCORE 19.664907 LL:  -2.971 LR: -19.197 RR:   0.000 FEB: -14.126
USER: RMSD 2.060278
USER: SEED 105
USER: STATUS no improvement in best in 2 clusters for 5 generations
USER: GENES 19
USER: genes 0 Translation |==|  0.55459 0.49840 0.59897
USER: genes 1 Rotation |==|  0.51130 0.50295 0.46057 0.99831
USER: genes 2 Torsion [C]-N--CA-[CB] |==|  0.23165
USER: genes 3 Torsion [N]-CA--C-[N] |==|  0.42165
USER: genes 4 Torsion [C]-N--CA-[C] |==|  0.54449
USER: genes 5 Torsion [N]-CA--C-[N] |==|  0.44758
USER: genes 6 Torsion [C]-N--CA-[CB] |==|  0.22161
USER: genes 7 Torsion [N]-CA--CB-[OG] |==|  0.56221
USER: genes 8 Torsion [CA]-CB--OG-[HG] |==|  0.08219
USER: genes 9 Torsion [N]-CA--C-[N] |==|  0.41229
USER: genes 10 Torsion [N]-CA--CB-[OG] |==|  0.63730
USER: genes 11 Torsion [CA]-CB--OG-[HG] |==|  0.98956
USER: genes 12 Torsion [N]-C--CA-[N] |==|  0.35383
USER: genes 13 Torsion [C]-CA--CB-[CG1] |==|  0.36984
USER: genes 14 Torsion [C]-CA--N-[C] |==|  0.63235
USER: genes 15 Torsion [N]-C--CA-[N] |==|  0.89366
USER: genes 16 Torsion [C]-CA--CB-[CG2] |==|  0.35670
USER: genes 17 Torsion [CA]-CB--OG1-[HG1] |==|  0.14892
USER: genes 18 Torsion [C]-CA--N-[C] |==|  0.84944
ROOT
ATOM      1  C   VAL B 902      17.166  18.214  31.090  1.00 24.89 LIG 0.24  C 
ATOM      2 O    VAL B 902      17.751  17.131  30.961  1.00 25.21 LIG-0.27  OA
ATOM      3  N   ALA B 903      16.728  18.920  30.052  1.00 23.62 LIG-0.35  N 
ATOM      4 H    ALA B 903      16.298  19.662  30.118  1.00 23.62 LIG 0.16  HD
ENDROOT
BRANCH 3 5
ATOM      5  CA  ALA B 903      16.958  18.465  28.684  1.00 23.36 LIG 0.17  C 
ATOM      6  CB  ALA B 903      15.891  17.453  28.278  1.00 21.10 LIG 0.04  C 
BRANCH 5 7
ATOM      7  C   ALA B 903      16.984  19.620  27.702  1.00 23.23 LIG 0.24  C 
ATOM      8  N   SER B 904      17.722  19.435  26.615  1.00 24.88 LIG-0.34  N 
ATOM      9 H    SER B 904      18.166  18.715  26.458  1.00 24.88 LIG 0.16  HD
ATOM     10 O    ALA B 903      16.359  20.651  27.925  1.00 23.91 LIG-0.27  OA
BRANCH 8 11
ATOM     11  CA  SER B 904      17.850  20.447  25.573  1.00 25.49 LIG 0.20  C 
BRANCH 11 12
ATOM     12  C   SER B 904      18.408  19.820  24.323  1.00 23.47 LIG 0.24  C 
ATOM     13 O    SER B 904      19.021  18.755  24.371  1.00 24.04 LIG-0.27  OA
ATOM     14  N   SER B 905      18.211  20.513  23.211  1.00 22.08 LIG-0.34  N 
ATOM     15 H    SER B 905      17.788  21.263  23.190  1.00 22.08 LIG 0.16  HD
BRANCH 14 16
ATOM     16  CA  SER B 905      18.693  20.076  21.913  1.00 21.44 LIG 0.20  C 
BRANCH 16 17
ATOM     17  CB  SER B 905      17.754  19.022  21.339  1.00 20.37 LIG 0.20  C 
BRANCH 17 18
ATOM     18 OG   SER B 905      18.435  18.240  20.382  1.00 31.40 LIG-0.40  OA
ATOM     19 HG   SER B 905      19.251  18.203  20.578  1.00 31.40 LIG 0.21  HD
ENDBRANCH 17 18
ENDBRANCH 16 17
BRANCH 16 20
ATOM     20  C   SER B 905      18.745  21.282  20.983  1.00 23.32 LIG 0.29  C 
ATOM     21 O    SER B 905      18.181  22.333  21.365  1.00 21.70 LIG-0.27  OA
ATOM     22  N   NH2 B 906      19.636  21.405  20.012  1.00 25.92 LIG-0.11  N 
ENDBRANCH 16 20
ENDBRANCH 14 16
ENDBRANCH 11 12
BRANCH 11 23
ATOM     23  CB  SER B 904      18.792  21.576  26.002  1.00 30.40 LIG 0.20  C 
BRANCH 23 24
ATOM     24 OG   SER B 904      18.210  22.846  25.785  1.00 44.87 LIG-0.40  OA
ATOM     25 HG   SER B 904      17.465  22.753  25.409  1.00 44.87 LIG 0.21  HD
ENDBRANCH 23 24
ENDBRANCH 11 23
ENDBRANCH 8 11
ENDBRANCH 5 7
ENDBRANCH 3 5
BRANCH 1 26
ATOM     26  CA  VAL B 902      16.857  18.770  32.485  1.00 24.94 LIG 0.18  C 
BRANCH 26 27
ATOM     27  CB  VAL B 902      18.170  19.234  33.170  1.00 27.11 LIG 0.01  C 
ATOM     28  CG1 VAL B 902      17.976  20.612  33.780  1.00 30.95 LIG 0.01  C 
ATOM     29  CG2 VAL B 902      18.588  18.245  34.248  1.00 30.50 LIG 0.01  C 
ENDBRANCH 26 27
BRANCH 26 30
ATOM     30  N   VAL B 902      16.223  17.662  33.188  1.00 21.31 LIG-0.35  N 
ATOM     31  C   THR B 901      15.102  17.814  33.877  1.00 21.82 LIG 0.24  C 
ATOM     32 O    THR B 901      14.562  18.906  34.049  1.00 23.34 LIG-0.27  OA
ATOM     33 H    VAL B 902      16.640  16.914  33.113  1.00 21.31 LIG 0.16  HD
BRANCH 31 34
ATOM     34  CA  THR B 901      14.534  16.543  34.501  1.00 22.53 LIG 0.20  C 
BRANCH 34 35
ATOM     35  CB  THR B 901      15.235  16.320  35.874  1.00 20.33 LIG 0.15  C 
ATOM     36  CG2 THR B 901      14.214  16.107  36.990  1.00 17.30 LIG 0.04  C 
BRANCH 35 37
ATOM     37 OG1  THR B 901      16.088  15.173  35.800  1.00 21.41 LIG-0.39  OA
ATOM     38 HG1  THR B 901      16.615  15.257  35.151  1.00 21.41 LIG 0.21  HD
ENDBRANCH 35 37
ENDBRANCH 34 35
BRANCH 34 39
ATOM     39  N   THR B 901      14.691  15.385  33.625  1.00 24.74 LIG-0.35  N 
ATOM     40 H    THR B 901      15.089  14.716  33.989  1.00 24.74 LIG 0.16  HD
ATOM     41  C   ACE B 900      14.246  15.389  32.373  1.00 23.90 LIG 0.21  C 
ATOM     42  CH3 ACE B 900      14.479  14.116  31.581  1.00 24.26 LIG 0.12  C 
ATOM     43 O    ACE B 900      13.680  16.357  31.864  1.00 24.84 LIG-0.27  OA
ENDBRANCH 34 39
ENDBRANCH 31 34
ENDBRANCH 26 30
ENDBRANCH 1 26
TORSDOF 17
ENDMDL
