MODEL 1
USER: ADFR SOLUTION from run 33
USER: SCORE 15.437709 LL:  -2.826 LR: -13.971 RR:   0.000 FEB:  -9.794
USER: RMSD 5.191690
USER: SEED 32
USER: STATUS no improvement in best in 10 clusters for 5 generations
USER: GENES 16
USER: genes 0 Translation |==|  0.43784 0.70994 0.65058
USER: genes 1 Rotation |==|  0.64829 0.52172 0.47939 0.97657
USER: genes 2 Torsion [N]-C--CA-[N] |==|  0.56495
USER: genes 3 Torsion [C]-CA--N-[C] |==|  0.35948
USER: genes 4 Torsion [N]-C--CA-[N] |==|  0.82778
USER: genes 5 Torsion [C]-CA--N-[C] |==|  0.88188
USER: genes 6 Torsion [N]-C--CA-[N] |==|  0.36184
USER: genes 7 Torsion [C]-CA--CB-[CG] |==|  0.67846
USER: genes 8 Torsion [CA]-CB--CG-[ND1] |==|  0.84318
USER: genes 9 Torsion [N]-CA--C-[O] |==|  0.82146
USER: genes 10 Torsion [C]-N--CA-[C] |==|  0.52479
USER: genes 11 Torsion [N]-CA--CB-[CG1] |==|  0.60417
USER: genes 12 Torsion [CA]-CB--CG1-[CD1] |==|  0.06175
USER: genes 13 Torsion [N]-CA--C-[N] |==|  0.38646
USER: genes 14 Torsion [C]-N--CA-[CB] |==|  0.47799
USER: genes 15 Torsion [N]-CA--C-[O] |==|  0.94929
ROOT
ATOM      1  C   GLY J 103      56.024  57.113 -10.078  1.00 12.08 LIG 0.24  C 
ATOM      2 O    GLY J 103      55.978  57.955 -11.030  1.00  8.68 LIG-0.27  OA
ATOM      3  N   PRO J 104      57.110  56.970  -9.304  1.00 11.63 LIG-0.34  N 
ATOM      4  CA  PRO J 104      58.291  57.835  -9.410  1.00 13.37 LIG 0.18  C 
ATOM      5  CB  PRO J 104      59.076  57.458  -8.148  1.00 10.19 LIG 0.04  C 
ATOM      6  CG  PRO J 104      58.851  55.954  -8.086  1.00 11.82 LIG 0.02  C 
ATOM      7  CD  PRO J 104      57.336  55.872  -8.344  1.00  8.53 LIG 0.13  C 
ENDROOT
BRANCH 1 8
ATOM      8  CA  GLY J 103      54.919  56.114  -9.790  1.00  6.72 LIG 0.23  C 
BRANCH 8 9
ATOM      9  N   GLY J 103      53.979  55.844 -10.849  1.00  9.69 LIG-0.35  N 
ATOM     10  C   ALA J 102      53.695  54.603 -11.217  1.00  5.22 LIG 0.24  C 
ATOM     11 O    ALA J 102      54.205  53.618 -10.690  1.00 12.11 LIG-0.27  OA
ATOM     12 H    GLY J 103      53.633  56.545 -11.207  1.00  9.69 LIG 0.16  HD
BRANCH 10 13
ATOM     13  CA  ALA J 102      52.659  54.464 -12.346  1.00  8.22 LIG 0.17  C 
ATOM     14  CB  ALA J 102      53.182  55.143 -13.631  1.00 14.95 LIG 0.04  C 
BRANCH 13 15
ATOM     15  N   ALA J 102      51.343  54.983 -12.038  1.00  4.21 LIG-0.35  N 
ATOM     16  C   HIS J 101      50.738  54.791 -10.866  1.00  9.96 LIG 0.26  C 
ATOM     17 O    HIS J 101      51.249  54.144  -9.938  1.00  8.34 LIG-0.27  OA
ATOM     18 H    ALA J 102      50.988  55.427 -12.683  1.00  4.21 LIG 0.16  HD
BRANCH 16 19
ATOM     19  CA  HIS J 101      49.325  55.424 -10.743  1.00  9.34 LIG 0.41  C 
ATOM     20  N   HIS J 101      48.262  54.493 -10.233  1.00 12.44 LIG 0.61  N 
BRANCH 19 21
ATOM     21  CB  HIS J 101      49.386  56.697  -9.894  1.00 10.29 LIG 0.11  C 
BRANCH 21 22
ATOM     22  CG  HIS J 101      48.614  56.600  -8.622  1.00 11.59 LIG 0.06  A 
ATOM     23  CD2 HIS J 101      48.979  56.819  -7.339  1.00 10.25 LIG 0.14  A 
ATOM     24 NE2  HIS J 101      47.859  56.654  -6.563  1.00 11.46 LIG-0.25  NA
ATOM     25  CE1 HIS J 101      46.841  56.334  -7.338  1.00 15.99 LIG 0.23  A 
ATOM     26 ND1  HIS J 101      47.271  56.290  -8.588  1.00 17.50 LIG-0.24  NA
ENDBRANCH 21 22
ENDBRANCH 19 21
ENDBRANCH 16 19
ENDBRANCH 13 15
ENDBRANCH 10 13
ENDBRANCH 8 9
ENDBRANCH 1 8
BRANCH 4 27
ATOM     27  C   PRO J 104      59.126  57.598 -10.684  1.00  7.89 LIG 0.24  C 
ATOM     28 O    PRO J 104      59.697  56.520 -10.884  1.00  6.40 LIG-0.27  OA
ATOM     29  N   ILE J 105      59.160  58.596 -11.570  1.00 10.49 LIG-0.35  N 
ATOM     30 H    ILE J 105      58.724  59.334 -11.502  1.00 10.49 LIG 0.16  HD
BRANCH 29 31
ATOM     31  CA  ILE J 105      59.992  58.463 -12.762  1.00  9.44 LIG 0.18  C 
BRANCH 31 32
ATOM     32  CB  ILE J 105      59.610  57.280 -13.645  1.00  9.59 LIG 0.01  C 
ATOM     33  CG2 ILE J 105      58.664  57.745 -14.690  1.00  7.65 LIG 0.01  C 
BRANCH 32 34
ATOM     34  CG1 ILE J 105      60.828  56.605 -14.253  1.00  8.07 LIG 0.00  C 
ATOM     35  CD1 ILE J 105      62.057  56.881 -13.471  1.00 10.10 LIG 0.01  C 
ENDBRANCH 32 34
ENDBRANCH 31 32
BRANCH 31 36
ATOM     36  C   ILE J 105      60.112  59.742 -13.576  1.00 12.77 LIG 0.24  C 
ATOM     37  N   ALA J 106      61.334  59.987 -14.054  1.00 12.70 LIG-0.34  N 
ATOM     38 H    ALA J 106      61.988  59.453 -13.891  1.00 12.70 LIG 0.16  HD
ATOM     39 O    ILE J 105      59.148  60.495 -13.688  1.00 10.65 LIG-0.27  OA
BRANCH 37 40
ATOM     40  CA  ALA J 106      61.751  61.110 -14.873  1.00 16.79 LIG 0.18  C 
ATOM     41  CB  ALA J 106      63.276  61.153 -15.066  1.00 18.33 LIG 0.04  C 
BRANCH 40 42
ATOM     42  C   ALA J 106      61.006  61.217 -16.191  1.00 17.57 LIG 0.20  C 
ATOM     43 O    ALA J 106      60.413  60.179 -16.572  1.00 21.44 LIG-0.65  OA
ATOM     44 OXT  ALA J 106      60.984  62.311 -16.802  1.00 20.61 LIG-0.65  OA
ENDBRANCH 40 42
ENDBRANCH 37 40
ENDBRANCH 31 36
ENDBRANCH 29 31
ENDBRANCH 4 27
TORSDOF 14
ENDMDL
MODEL 2
USER: ADFR SOLUTION from run 189
USER: SCORE 14.882977 LL:  -2.382 LR: -13.773 RR:   0.000 FEB:  -9.597
USER: RMSD 4.460936
USER: SEED 188
USER: STATUS no improvement in best in 13 clusters for 5 generations
USER: GENES 16
USER: genes 0 Translation |==|  0.44161 0.70633 0.65022
USER: genes 1 Rotation |==|  0.64302 0.54181 0.47914 0.97683
USER: genes 2 Torsion [N]-C--CA-[N] |==|  0.53778
USER: genes 3 Torsion [C]-CA--N-[C] |==|  0.35990
USER: genes 4 Torsion [N]-C--CA-[N] |==|  0.82004
USER: genes 5 Torsion [C]-CA--N-[C] |==|  0.58340
USER: genes 6 Torsion [N]-C--CA-[N] |==|  0.67046
USER: genes 7 Torsion [C]-CA--CB-[CG] |==|  0.60503
USER: genes 8 Torsion [CA]-CB--CG-[ND1] |==|  0.88889
USER: genes 9 Torsion [N]-CA--C-[O] |==|  0.87591
USER: genes 10 Torsion [C]-N--CA-[C] |==|  0.82483
USER: genes 11 Torsion [N]-CA--CB-[CG1] |==|  0.33645
USER: genes 12 Torsion [CA]-CB--CG1-[CD1] |==|  0.62229
USER: genes 13 Torsion [N]-CA--C-[N] |==|  0.35681
USER: genes 14 Torsion [C]-N--CA-[CB] |==|  0.94734
USER: genes 15 Torsion [N]-CA--C-[O] |==|  0.03451
ROOT
ATOM      1  C   GLY J 103      56.120  57.048 -10.084  1.00 12.08 LIG 0.24  C 
ATOM      2 O    GLY J 103      55.980  57.871 -11.043  1.00  8.68 LIG-0.27  OA
ATOM      3  N   PRO J 104      57.266  56.944  -9.395  1.00 11.63 LIG-0.34  N 
ATOM      4  CA  PRO J 104      58.414  57.834  -9.606  1.00 13.37 LIG 0.18  C 
ATOM      5  CB  PRO J 104      59.303  57.498  -8.404  1.00 10.19 LIG 0.04  C 
ATOM      6  CG  PRO J 104      59.120  55.991  -8.299  1.00 11.82 LIG 0.02  C 
ATOM      7  CD  PRO J 104      57.592  55.870  -8.438  1.00  8.53 LIG 0.13  C 
ENDROOT
BRANCH 1 8
ATOM      8  CA  GLY J 103      55.066  56.029  -9.694  1.00  6.72 LIG 0.23  C 
BRANCH 8 9
ATOM      9  N   GLY J 103      53.936  55.876 -10.578  1.00  9.69 LIG-0.35  N 
ATOM     10  C   ALA J 102      53.556  54.681 -11.007  1.00  5.22 LIG 0.24  C 
ATOM     11 O    ALA J 102      54.130  53.644 -10.688  1.00 12.11 LIG-0.27  OA
ATOM     12 H    GLY J 103      53.547  56.613 -10.791  1.00  9.69 LIG 0.16  HD
BRANCH 10 13
ATOM     13  CA  ALA J 102      52.322  54.666 -11.926  1.00  8.22 LIG 0.17  C 
ATOM     14  CB  ALA J 102      52.586  55.530 -13.180  1.00 14.95 LIG 0.04  C 
BRANCH 13 15
ATOM     15  N   ALA J 102      51.089  55.100 -11.305  1.00  4.21 LIG-0.35  N 
ATOM     16  C   HIS J 101      49.889  54.648 -11.669  1.00  9.96 LIG 0.26  C 
ATOM     17 O    HIS J 101      49.726  53.818 -12.578  1.00  8.34 LIG-0.27  OA
ATOM     18 H    ALA J 102      51.203  55.678 -10.678  1.00  4.21 LIG 0.16  HD
BRANCH 16 19
ATOM     19  CA  HIS J 101      48.692  55.248 -10.882  1.00  9.34 LIG 0.41  C 
ATOM     20  N   HIS J 101      47.882  54.246 -10.110  1.00 12.44 LIG 0.61  N 
BRANCH 19 21
ATOM     21  CB  HIS J 101      49.172  56.379  -9.968  1.00 10.29 LIG 0.11  C 
BRANCH 21 22
ATOM     22  CG  HIS J 101      48.473  56.415  -8.651  1.00 11.59 LIG 0.06  A 
ATOM     23  CD2 HIS J 101      48.924  56.708  -7.410  1.00 10.25 LIG 0.14  A 
ATOM     24 NE2  HIS J 101      47.845  56.658  -6.563  1.00 11.46 LIG-0.25  NA
ATOM     25  CE1 HIS J 101      46.768  56.335  -7.253  1.00 15.99 LIG 0.23  A 
ATOM     26 ND1  HIS J 101      47.121  56.178  -8.519  1.00 17.50 LIG-0.24  NA
ENDBRANCH 21 22
ENDBRANCH 19 21
ENDBRANCH 16 19
ENDBRANCH 13 15
ENDBRANCH 10 13
ENDBRANCH 8 9
ENDBRANCH 1 8
BRANCH 4 27
ATOM     27  C   PRO J 104      59.153  57.593 -10.938  1.00  7.89 LIG 0.24  C 
ATOM     28 O    PRO J 104      59.420  56.450 -11.324  1.00  6.40 LIG-0.27  OA
ATOM     29  N   ILE J 105      59.446  58.675 -11.662  1.00 10.49 LIG-0.35  N 
ATOM     30 H    ILE J 105      59.220  59.481 -11.464  1.00 10.49 LIG 0.16  HD
BRANCH 29 31
ATOM     31  CA  ILE J 105      60.210  58.521 -12.896  1.00  9.44 LIG 0.18  C 
BRANCH 31 32
ATOM     32  CB  ILE J 105      60.230  59.775 -13.764  1.00  9.59 LIG 0.01  C 
ATOM     33  CG2 ILE J 105      59.385  60.816 -13.126  1.00  7.65 LIG 0.01  C 
BRANCH 32 34
ATOM     34  CG1 ILE J 105      61.642  60.276 -14.011  1.00  8.07 LIG 0.00  C 
ATOM     35  CD1 ILE J 105      61.739  61.748 -13.857  1.00 10.10 LIG 0.01  C 
ENDBRANCH 32 34
ENDBRANCH 31 32
BRANCH 31 36
ATOM     36  C   ILE J 105      61.614  57.973 -12.688  1.00 12.77 LIG 0.24  C 
ATOM     37  N   ALA J 106      61.921  56.921 -13.450  1.00 12.70 LIG-0.34  N 
ATOM     38 H    ALA J 106      61.347  56.590 -14.000  1.00 12.70 LIG 0.16  HD
ATOM     39 O    ILE J 105      62.340  58.449 -11.819  1.00 10.65 LIG-0.27  OA
BRANCH 37 40
ATOM     40  CA  ALA J 106      63.178  56.198 -13.488  1.00 16.79 LIG 0.18  C 
ATOM     41  CB  ALA J 106      64.337  57.017 -12.894  1.00 18.33 LIG 0.04  C 
BRANCH 40 42
ATOM     42  C   ALA J 106      63.100  54.804 -12.892  1.00 17.57 LIG 0.20  C 
ATOM     43 O    ALA J 106      61.946  54.363 -12.672  1.00 21.44 LIG-0.65  OA
ATOM     44 OXT  ALA J 106      64.156  54.159 -12.688  1.00 20.61 LIG-0.65  OA
ENDBRANCH 40 42
ENDBRANCH 37 40
ENDBRANCH 31 36
ENDBRANCH 29 31
ENDBRANCH 4 27
TORSDOF 14
ENDMDL
MODEL 3
USER: ADFR SOLUTION from run 14
USER: SCORE 15.060397 LL:  -3.160 LR: -13.276 RR:   0.000 FEB:  -9.100
USER: RMSD 5.225815
USER: SEED 813214
USER: STATUS no improvement in best in 7 clusters for 5 generations
USER: GENES 16
USER: genes 0 Translation |==|  0.43070 0.70625 0.65126
USER: genes 1 Rotation |==|  0.58355 0.49574 0.42914 0.98783
USER: genes 2 Torsion [N]-C--CA-[N] |==|  0.61108
USER: genes 3 Torsion [C]-CA--N-[C] |==|  0.50567
USER: genes 4 Torsion [N]-C--CA-[N] |==|  0.57589
USER: genes 5 Torsion [C]-CA--N-[C] |==|  0.13394
USER: genes 6 Torsion [N]-C--CA-[N] |==|  0.12566
USER: genes 7 Torsion [C]-CA--CB-[CG] |==|  0.80013
USER: genes 8 Torsion [CA]-CB--CG-[ND1] |==|  0.27527
USER: genes 9 Torsion [N]-CA--C-[O] |==|  0.71834
USER: genes 10 Torsion [C]-N--CA-[C] |==|  0.69659
USER: genes 11 Torsion [N]-CA--CB-[CG1] |==|  0.94146
USER: genes 12 Torsion [CA]-CB--CG1-[CD1] |==|  0.28984
USER: genes 13 Torsion [N]-CA--C-[N] |==|  0.04475
USER: genes 14 Torsion [C]-N--CA-[CB] |==|  0.89327
USER: genes 15 Torsion [N]-CA--C-[O] |==|  0.02176
ROOT
ATOM      1  C   GLY J 103      55.842  57.047 -10.067  1.00 12.08 LIG 0.24  C 
ATOM      2 O    GLY J 103      55.976  57.589 -11.209  1.00  8.68 LIG-0.27  OA
ATOM      3  N   PRO J 104      56.872  56.903  -9.220  1.00 11.63 LIG-0.34  N 
ATOM      4  CA  PRO J 104      58.209  57.450  -9.482  1.00 13.37 LIG 0.18  C 
ATOM      5  CB  PRO J 104      58.895  57.280  -8.122  1.00 10.19 LIG 0.04  C 
ATOM      6  CG  PRO J 104      58.358  55.928  -7.675  1.00 11.82 LIG 0.02  C 
ATOM      7  CD  PRO J 104      56.860  56.087  -7.991  1.00  8.53 LIG 0.13  C 
ENDROOT
BRANCH 1 8
ATOM      8  CA  GLY J 103      54.551  56.408  -9.589  1.00  6.72 LIG 0.23  C 
BRANCH 8 9
ATOM      9  N   GLY J 103      53.747  55.727 -10.573  1.00  9.69 LIG-0.35  N 
ATOM     10  C   ALA J 102      52.585  55.176 -10.250  1.00  5.22 LIG 0.24  C 
ATOM     11 O    ALA J 102      52.126  55.208  -9.112  1.00 12.11 LIG-0.27  OA
ATOM     12 H    GLY J 103      54.085  55.714 -11.363  1.00  9.69 LIG 0.16  HD
BRANCH 10 13
ATOM     13  CA  ALA J 102      51.825  54.502 -11.405  1.00  8.22 LIG 0.17  C 
ATOM     14  CB  ALA J 102      52.169  55.197 -12.742  1.00 14.95 LIG 0.04  C 
BRANCH 13 15
ATOM     15  N   ALA J 102      50.386  54.461 -11.251  1.00  4.21 LIG-0.35  N 
ATOM     16  C   HIS J 101      49.658  55.522 -10.907  1.00  9.96 LIG 0.26  C 
ATOM     17 O    HIS J 101      50.152  56.639 -10.683  1.00  8.34 LIG-0.27  OA
ATOM     18 H    ALA J 102      50.046  53.685 -11.402  1.00  4.21 LIG 0.16  HD
BRANCH 16 19
ATOM     19  CA  HIS J 101      48.131  55.263 -10.786  1.00  9.34 LIG 0.41  C 
ATOM     20  N   HIS J 101      47.764  54.011 -10.041  1.00 12.44 LIG 0.61  N 
BRANCH 19 21
ATOM     21  CB  HIS J 101      47.432  56.482 -10.179  1.00 10.29 LIG 0.11  C 
BRANCH 21 22
ATOM     22  CG  HIS J 101      47.711  56.664  -8.726  1.00 11.59 LIG 0.06  A 
ATOM     23  CD2 HIS J 101      47.211  56.039  -7.636  1.00 10.25 LIG 0.14  A 
ATOM     24 NE2  HIS J 101      47.862  56.546  -6.540  1.00 11.46 LIG-0.25  NA
ATOM     25  CE1 HIS J 101      48.728  57.459  -6.937  1.00 15.99 LIG 0.23  A 
ATOM     26 ND1  HIS J 101      48.654  57.553  -8.254  1.00 17.50 LIG-0.24  NA
ENDBRANCH 21 22
ENDBRANCH 19 21
ENDBRANCH 16 19
ENDBRANCH 13 15
ENDBRANCH 10 13
ENDBRANCH 8 9
ENDBRANCH 1 8
BRANCH 4 27
ATOM     27  C   PRO J 104      58.977  56.711 -10.597  1.00  7.89 LIG 0.24  C 
ATOM     28 O    PRO J 104      59.860  55.889 -10.328  1.00  6.40 LIG-0.27  OA
ATOM     29  N   ILE J 105      58.609  56.975 -11.852  1.00 10.49 LIG-0.35  N 
ATOM     30 H    ILE J 105      57.957  57.488 -12.080  1.00 10.49 LIG 0.16  HD
BRANCH 29 31
ATOM     31  CA  ILE J 105      59.346  56.365 -12.954  1.00  9.44 LIG 0.18  C 
BRANCH 31 32
ATOM     32  CB  ILE J 105      58.474  55.523 -13.880  1.00  9.59 LIG 0.01  C 
ATOM     33  CG2 ILE J 105      59.265  54.363 -14.361  1.00  7.65 LIG 0.01  C 
BRANCH 32 34
ATOM     34  CG1 ILE J 105      57.186  55.082 -13.207  1.00  8.07 LIG 0.00  C 
ATOM     35  CD1 ILE J 105      56.021  55.865 -13.683  1.00 10.10 LIG 0.01  C 
ENDBRANCH 32 34
ENDBRANCH 31 32
BRANCH 31 36
ATOM     36  C   ILE J 105      60.199  57.347 -13.743  1.00 12.77 LIG 0.24  C 
ATOM     37  N   ALA J 106      60.418  58.513 -13.131  1.00 12.70 LIG-0.34  N 
ATOM     38 H    ALA J 106      60.082  58.676 -12.356  1.00 12.70 LIG 0.16  HD
ATOM     39 O    ILE J 105      60.567  57.070 -14.882  1.00 10.65 LIG-0.27  OA
BRANCH 37 40
ATOM     40  CA  ALA J 106      61.201  59.632 -13.622  1.00 16.79 LIG 0.18  C 
ATOM     41  CB  ALA J 106      62.467  59.172 -14.366  1.00 18.33 LIG 0.04  C 
BRANCH 40 42
ATOM     42  C   ALA J 106      60.397  60.634 -14.430  1.00 17.57 LIG 0.20  C 
ATOM     43 O    ALA J 106      59.155  60.459 -14.443  1.00 21.44 LIG-0.65  OA
ATOM     44 OXT  ALA J 106      60.985  61.584 -14.999  1.00 20.61 LIG-0.65  OA
ENDBRANCH 40 42
ENDBRANCH 37 40
ENDBRANCH 31 36
ENDBRANCH 29 31
ENDBRANCH 4 27
TORSDOF 14
ENDMDL
MODEL 4
USER: ADFR SOLUTION from run 65
USER: SCORE 15.141194 LL:  -2.993 LR: -12.941 RR:   0.000 FEB:  -8.765
USER: RMSD 5.530357
USER: SEED 64
USER: STATUS searching
USER: GENES 16
USER: genes 0 Translation |==|  0.43797 0.70729 0.64076
USER: genes 1 Rotation |==|  0.58498 0.50796 0.44462 0.98954
USER: genes 2 Torsion [N]-C--CA-[N] |==|  0.56002
USER: genes 3 Torsion [C]-CA--N-[C] |==|  0.29036
USER: genes 4 Torsion [N]-C--CA-[N] |==|  0.86688
USER: genes 5 Torsion [C]-CA--N-[C] |==|  0.88332
USER: genes 6 Torsion [N]-C--CA-[N] |==|  0.28191
USER: genes 7 Torsion [C]-CA--CB-[CG] |==|  0.63977
USER: genes 8 Torsion [CA]-CB--CG-[ND1] |==|  0.82128
USER: genes 9 Torsion [N]-CA--C-[O] |==|  0.82954
USER: genes 10 Torsion [C]-N--CA-[C] |==|  0.13976
USER: genes 11 Torsion [N]-CA--CB-[CG1] |==|  0.85061
USER: genes 12 Torsion [CA]-CB--CG1-[CD1] |==|  0.76993
USER: genes 13 Torsion [N]-CA--C-[N] |==|  0.16065
USER: genes 14 Torsion [C]-N--CA-[CB] |==|  0.89435
USER: genes 15 Torsion [N]-CA--C-[O] |==|  0.05438
ROOT
ATOM      1  C   GLY J 103      56.027  57.065 -10.240  1.00 12.08 LIG 0.24  C 
ATOM      2 O    GLY J 103      56.081  57.627 -11.380  1.00  8.68 LIG-0.27  OA
ATOM      3  N   PRO J 104      57.096  56.986  -9.433  1.00 11.63 LIG-0.34  N 
ATOM      4  CA  PRO J 104      58.381  57.627  -9.737  1.00 13.37 LIG 0.18  C 
ATOM      5  CB  PRO J 104      59.127  57.493  -8.405  1.00 10.19 LIG 0.04  C 
ATOM      6  CG  PRO J 104      58.702  56.102  -7.955  1.00 11.82 LIG 0.02  C 
ATOM      7  CD  PRO J 104      57.186  56.159  -8.215  1.00  8.53 LIG 0.13  C 
ENDROOT
BRANCH 1 8
ATOM      8  CA  GLY J 103      54.802  56.334  -9.723  1.00  6.72 LIG 0.23  C 
BRANCH 8 9
ATOM      9  N   GLY J 103      53.800  55.959 -10.690  1.00  9.69 LIG-0.35  N 
ATOM     10  C   ALA J 102      53.674  54.704 -11.098  1.00  5.22 LIG 0.24  C 
ATOM     11 O    ALA J 102      54.390  53.795 -10.688  1.00 12.11 LIG-0.27  OA
ATOM     12 H    GLY J 103      53.309  56.608 -10.966  1.00  9.69 LIG 0.16  HD
BRANCH 10 13
ATOM     13  CA  ALA J 102      52.549  54.445 -12.114  1.00  8.22 LIG 0.17  C 
ATOM     14  CB  ALA J 102      52.970  54.955 -13.511  1.00 14.95 LIG 0.04  C 
BRANCH 13 15
ATOM     15  N   ALA J 102      51.266  55.018 -11.769  1.00  4.21 LIG-0.35  N 
ATOM     16  C   HIS J 101      50.761  54.988 -10.536  1.00  9.96 LIG 0.26  C 
ATOM     17 O    HIS J 101      51.347  54.460  -9.577  1.00  8.34 LIG-0.27  OA
ATOM     18 H    ALA J 102      50.859  55.380 -12.435  1.00  4.21 LIG 0.16  HD
BRANCH 16 19
ATOM     19  CA  HIS J 101      49.365  55.651 -10.379  1.00  9.34 LIG 0.41  C 
ATOM     20  N   HIS J 101      48.215  54.687 -10.319  1.00 12.44 LIG 0.61  N 
BRANCH 19 21
ATOM     21  CB  HIS J 101      49.355  56.585  -9.166  1.00 10.29 LIG 0.11  C 
BRANCH 21 22
ATOM     22  CG  HIS J 101      48.206  56.350  -8.245  1.00 11.59 LIG 0.06  A 
ATOM     23  CD2 HIS J 101      48.166  55.976  -6.947  1.00 10.25 LIG 0.14  A 
ATOM     24 NE2  HIS J 101      46.849  55.975  -6.563  1.00 11.46 LIG-0.25  NA
ATOM     25  CE1 HIS J 101      46.100  56.328  -7.590  1.00 15.99 LIG 0.23  A 
ATOM     26 ND1  HIS J 101      46.895  56.556  -8.622  1.00 17.50 LIG-0.24  NA
ENDBRANCH 21 22
ENDBRANCH 19 21
ENDBRANCH 16 19
ENDBRANCH 13 15
ENDBRANCH 10 13
ENDBRANCH 8 9
ENDBRANCH 1 8
BRANCH 4 27
ATOM     27  C   PRO J 104      59.157  56.954 -10.887  1.00  7.89 LIG 0.24  C 
ATOM     28 O    PRO J 104      59.529  55.778 -10.806  1.00  6.40 LIG-0.27  OA
ATOM     29  N   ILE J 105      59.364  57.693 -11.980  1.00 10.49 LIG-0.35  N 
ATOM     30 H    ILE J 105      59.065  58.489 -12.104  1.00 10.49 LIG 0.16  HD
BRANCH 29 31
ATOM     31  CA  ILE J 105      60.155  57.139 -13.074  1.00  9.44 LIG 0.18  C 
BRANCH 31 32
ATOM     32  CB  ILE J 105      61.659  57.185 -12.825  1.00  9.59 LIG 0.01  C 
ATOM     33  CG2 ILE J 105      62.361  56.651 -14.018  1.00  7.65 LIG 0.01  C 
BRANCH 32 34
ATOM     34  CG1 ILE J 105      62.137  58.584 -12.475  1.00  8.07 LIG 0.00  C 
ATOM     35  CD1 ILE J 105      62.360  59.408 -13.687  1.00 10.10 LIG 0.01  C 
ENDBRANCH 32 34
ENDBRANCH 31 32
BRANCH 31 36
ATOM     36  C   ILE J 105      59.712  55.753 -13.516  1.00 12.77 LIG 0.24  C 
ATOM     37  N   ALA J 106      58.439  55.673 -13.911  1.00 12.70 LIG-0.34  N 
ATOM     38 H    ALA J 106      57.928  56.364 -13.896  1.00 12.70 LIG 0.16  HD
ATOM     39 O    ILE J 105      60.481  54.800 -13.422  1.00 10.65 LIG-0.27  OA
BRANCH 37 40
ATOM     40  CA  ALA J 106      57.740  54.499 -14.398  1.00 16.79 LIG 0.18  C 
ATOM     41  CB  ALA J 106      58.636  53.616 -15.284  1.00 18.33 LIG 0.04  C 
BRANCH 40 42
ATOM     42  C   ALA J 106      57.053  53.699 -13.307  1.00 17.57 LIG 0.20  C 
ATOM     43 O    ALA J 106      56.837  54.308 -12.231  1.00 21.44 LIG-0.65  OA
ATOM     44 OXT  ALA J 106      56.706  52.515 -13.533  1.00 20.61 LIG-0.65  OA
ENDBRANCH 40 42
ENDBRANCH 37 40
ENDBRANCH 31 36
ENDBRANCH 29 31
ENDBRANCH 4 27
TORSDOF 14
ENDMDL
MODEL 5
USER: ADFR SOLUTION from run 102
USER: SCORE 14.959118 LL:  -2.780 LR: -12.875 RR:   0.000 FEB:  -8.698
USER: RMSD 6.744291
USER: SEED 101
USER: STATUS no improvement in best in 11 clusters for 5 generations
USER: GENES 16
USER: genes 0 Translation |==|  0.33432 0.53040 0.54650
USER: genes 1 Rotation |==|  0.96466 0.63039 0.48004 0.62918
USER: genes 2 Torsion [N]-C--CA-[N] |==|  0.50103
USER: genes 3 Torsion [C]-CA--N-[C] |==|  0.41352
USER: genes 4 Torsion [N]-C--CA-[N] |==|  0.25647
USER: genes 5 Torsion [C]-CA--N-[C] |==|  0.80000
USER: genes 6 Torsion [N]-C--CA-[N] |==|  0.03348
USER: genes 7 Torsion [C]-CA--CB-[CG] |==|  0.82876
USER: genes 8 Torsion [CA]-CB--CG-[ND1] |==|  0.84330
USER: genes 9 Torsion [N]-CA--C-[O] |==|  0.91332
USER: genes 10 Torsion [C]-N--CA-[C] |==|  0.76519
USER: genes 11 Torsion [N]-CA--CB-[CG1] |==|  0.35092
USER: genes 12 Torsion [CA]-CB--CG1-[CD1] |==|  0.71138
USER: genes 13 Torsion [N]-CA--C-[N] |==|  0.38741
USER: genes 14 Torsion [C]-N--CA-[CB] |==|  0.08206
USER: genes 15 Torsion [N]-CA--C-[O] |==|  0.58793
ROOT
ATOM      1  C   GLY J 103      53.384  53.881 -11.796  1.00 12.08 LIG 0.24  C 
ATOM      2 O    GLY J 103      53.395  54.408 -10.639  1.00  8.68 LIG-0.27  OA
ATOM      3  N   PRO J 104      54.513  53.641 -12.481  1.00 11.63 LIG-0.34  N 
ATOM      4  CA  PRO J 104      55.852  53.859 -11.923  1.00 13.37 LIG 0.18  C 
ATOM      5  CB  PRO J 104      56.746  53.167 -12.958  1.00 10.19 LIG 0.04  C 
ATOM      6  CG  PRO J 104      56.052  53.543 -14.260  1.00 11.82 LIG 0.02  C 
ATOM      7  CD  PRO J 104      54.582  53.257 -13.904  1.00  8.53 LIG 0.13  C 
ENDROOT
BRANCH 1 8
ATOM      8  CA  GLY J 103      52.113  53.576 -12.566  1.00  6.72 LIG 0.23  C 
BRANCH 8 9
ATOM      9  N   GLY J 103      50.860  53.818 -11.895  1.00  9.69 LIG-0.35  N 
ATOM     10  C   ALA J 102      49.777  54.178 -12.568  1.00  5.22 LIG 0.24  C 
ATOM     11 O    ALA J 102      49.769  54.327 -13.787  1.00 12.11 LIG-0.27  OA
ATOM     12 H    GLY J 103      50.885  53.710 -11.042  1.00  9.69 LIG 0.16  HD
BRANCH 10 13
ATOM     13  CA  ALA J 102      48.506  54.381 -11.726  1.00  8.22 LIG 0.17  C 
ATOM     14  CB  ALA J 102      47.266  53.909 -12.517  1.00 14.95 LIG 0.04  C 
BRANCH 13 15
ATOM     15  N   ALA J 102      48.285  55.735 -11.265  1.00  4.21 LIG-0.35  N 
ATOM     16  C   HIS J 101      49.014  56.309 -10.308  1.00  9.96 LIG 0.26  C 
ATOM     17 O    HIS J 101      49.944  55.727  -9.724  1.00  8.34 LIG-0.27  OA
ATOM     18 H    ALA J 102      47.638  56.135 -11.667  1.00  4.21 LIG 0.16  HD
BRANCH 16 19
ATOM     19  CA  HIS J 101      48.608  57.766  -9.954  1.00  9.34 LIG 0.41  C 
ATOM     20  N   HIS J 101      47.293  58.208 -10.530  1.00 12.44 LIG 0.61  N 
BRANCH 19 21
ATOM     21  CB  HIS J 101      48.633  57.970  -8.438  1.00 10.29 LIG 0.11  C 
BRANCH 21 22
ATOM     22  CG  HIS J 101      47.675  57.094  -7.704  1.00 11.59 LIG 0.06  A 
ATOM     23  CD2 HIS J 101      47.857  56.238  -6.675  1.00 10.25 LIG 0.14  A 
ATOM     24 NE2  HIS J 101      46.625  55.738  -6.336  1.00 11.46 LIG-0.25  NA
ATOM     25  CE1 HIS J 101      45.714  56.260  -7.135  1.00 15.99 LIG 0.23  A 
ATOM     26 ND1  HIS J 101      46.322  57.081  -7.975  1.00 17.50 LIG-0.24  NA
ENDBRANCH 21 22
ENDBRANCH 19 21
ENDBRANCH 16 19
ENDBRANCH 13 15
ENDBRANCH 10 13
ENDBRANCH 8 9
ENDBRANCH 1 8
BRANCH 4 27
ATOM     27  C   PRO J 104      56.226  55.347 -11.761  1.00  7.89 LIG 0.24  C 
ATOM     28 O    PRO J 104      55.785  56.205 -12.534  1.00  6.40 LIG-0.27  OA
ATOM     29  N   ILE J 105      57.008  55.657 -10.726  1.00 10.49 LIG-0.35  N 
ATOM     30 H    ILE J 105      57.282  55.103 -10.127  1.00 10.49 LIG 0.16  HD
BRANCH 29 31
ATOM     31  CA  ILE J 105      57.458  57.036 -10.560  1.00  9.44 LIG 0.18  C 
BRANCH 31 32
ATOM     32  CB  ILE J 105      57.609  57.459  -9.103  1.00  9.59 LIG 0.01  C 
ATOM     33  CG2 ILE J 105      57.299  56.299  -8.230  1.00  7.65 LIG 0.01  C 
BRANCH 32 34
ATOM     34  CG1 ILE J 105      58.988  58.025  -8.813  1.00  8.07 LIG 0.00  C 
ATOM     35  CD1 ILE J 105      59.838  57.055  -8.082  1.00 10.10 LIG 0.01  C 
ENDBRANCH 32 34
ENDBRANCH 31 32
BRANCH 31 36
ATOM     36  C   ILE J 105      58.703  57.379 -11.365  1.00 12.77 LIG 0.24  C 
ATOM     37  N   ALA J 106      58.683  58.586 -11.936  1.00 12.70 LIG-0.34  N 
ATOM     38 H    ALA J 106      58.003  59.105 -11.849  1.00 12.70 LIG 0.16  HD
ATOM     39 O    ILE J 105      59.593  56.545 -11.512  1.00 10.65 LIG-0.27  OA
BRANCH 37 40
ATOM     40  CA  ALA J 106      59.723  59.195 -12.743  1.00 16.79 LIG 0.18  C 
ATOM     41  CB  ALA J 106      60.555  58.148 -13.504  1.00 18.33 LIG 0.04  C 
BRANCH 40 42
ATOM     42  C   ALA J 106      59.221  60.299 -13.656  1.00 17.57 LIG 0.20  C 
ATOM     43 O    ALA J 106      59.833  60.434 -14.743  1.00 21.44 LIG-0.65  OA
ATOM     44 OXT  ALA J 106      58.226  60.980 -13.313  1.00 20.61 LIG-0.65  OA
ENDBRANCH 40 42
ENDBRANCH 37 40
ENDBRANCH 31 36
ENDBRANCH 29 31
ENDBRANCH 4 27
TORSDOF 14
ENDMDL
MODEL 6
USER: ADFR SOLUTION from run 117
USER: SCORE 14.680091 LL:  -3.341 LR: -12.812 RR:   0.000 FEB:  -8.635
USER: RMSD 6.264041
USER: SEED 116
USER: STATUS no improvement in best in 15 clusters for 5 generations
USER: GENES 16
USER: genes 0 Translation |==|  0.43188 0.70858 0.67067
USER: genes 1 Rotation |==|  0.70535 0.55888 0.49297 0.95201
USER: genes 2 Torsion [N]-C--CA-[N] |==|  0.57927
USER: genes 3 Torsion [C]-CA--N-[C] |==|  0.38568
USER: genes 4 Torsion [N]-C--CA-[N] |==|  0.83054
USER: genes 5 Torsion [C]-CA--N-[C] |==|  0.89924
USER: genes 6 Torsion [N]-C--CA-[N] |==|  0.29909
USER: genes 7 Torsion [C]-CA--CB-[CG] |==|  0.63313
USER: genes 8 Torsion [CA]-CB--CG-[ND1] |==|  0.82654
USER: genes 9 Torsion [N]-CA--C-[O] |==|  0.63763
USER: genes 10 Torsion [C]-N--CA-[C] |==|  0.63890
USER: genes 11 Torsion [N]-CA--CB-[CG1] |==|  0.12519
USER: genes 12 Torsion [CA]-CB--CG1-[CD1] |==|  0.74047
USER: genes 13 Torsion [N]-CA--C-[N] |==|  0.84608
USER: genes 14 Torsion [C]-N--CA-[CB] |==|  0.80812
USER: genes 15 Torsion [N]-CA--C-[O] |==|  0.59180
ROOT
ATOM      1  C   GLY J 103      55.872  57.088  -9.747  1.00 12.08 LIG 0.24  C 
ATOM      2 O    GLY J 103      55.648  58.131 -10.439  1.00  8.68 LIG-0.27  OA
ATOM      3  N   PRO J 104      57.057  56.864  -9.158  1.00 11.63 LIG-0.34  N 
ATOM      4  CA  PRO J 104      58.154  57.838  -9.165  1.00 13.37 LIG 0.18  C 
ATOM      5  CB  PRO J 104      59.119  57.238  -8.136  1.00 10.19 LIG 0.04  C 
ATOM      6  CG  PRO J 104      59.003  55.750  -8.439  1.00 11.82 LIG 0.02  C 
ATOM      7  CD  PRO J 104      57.476  55.590  -8.544  1.00  8.53 LIG 0.13  C 
ENDROOT
BRANCH 1 8
ATOM      8  CA  GLY J 103      54.882  55.947  -9.607  1.00  6.72 LIG 0.23  C 
BRANCH 8 9
ATOM      9  N   GLY J 103      53.902  55.791 -10.653  1.00  9.69 LIG-0.35  N 
ATOM     10  C   ALA J 102      53.574  54.592 -11.114  1.00  5.22 LIG 0.24  C 
ATOM     11 O    ALA J 102      54.073  53.555 -10.689  1.00 12.11 LIG-0.27  OA
ATOM     12 H    GLY J 103      53.564  56.528 -10.939  1.00  9.69 LIG 0.16  HD
BRANCH 10 13
ATOM     13  CA  ALA J 102      52.499  54.574 -12.215  1.00  8.22 LIG 0.17  C 
ATOM     14  CB  ALA J 102      53.009  55.326 -13.464  1.00 14.95 LIG 0.04  C 
BRANCH 13 15
ATOM     15  N   ALA J 102      51.215  55.117 -11.827  1.00  4.21 LIG-0.35  N 
ATOM     16  C   HIS J 101      50.693  54.963 -10.610  1.00  9.96 LIG 0.26  C 
ATOM     17 O    HIS J 101      51.263  54.332  -9.704  1.00  8.34 LIG-0.27  OA
ATOM     18 H    ALA J 102      50.819  55.550 -12.457  1.00  4.21 LIG 0.16  HD
BRANCH 16 19
ATOM     19  CA  HIS J 101      49.300  55.616 -10.403  1.00  9.34 LIG 0.41  C 
ATOM     20  N   HIS J 101      48.158  54.645 -10.313  1.00 12.44 LIG 0.61  N 
BRANCH 19 21
ATOM     21  CB  HIS J 101      49.324  56.540  -9.183  1.00 10.29 LIG 0.11  C 
BRANCH 21 22
ATOM     22  CG  HIS J 101      48.176  56.330  -8.255  1.00 11.59 LIG 0.06  A 
ATOM     23  CD2 HIS J 101      48.137  55.978  -6.950  1.00 10.25 LIG 0.14  A 
ATOM     24 NE2  HIS J 101      46.820  55.994  -6.563  1.00 11.46 LIG-0.25  NA
ATOM     25  CE1 HIS J 101      46.071  56.333  -7.595  1.00 15.99 LIG 0.23  A 
ATOM     26 ND1  HIS J 101      46.866  56.538  -8.632  1.00 17.50 LIG-0.24  NA
ENDBRANCH 21 22
ENDBRANCH 19 21
ENDBRANCH 16 19
ENDBRANCH 13 15
ENDBRANCH 10 13
ENDBRANCH 8 9
ENDBRANCH 1 8
BRANCH 4 27
ATOM     27  C   PRO J 104      58.831  58.005 -10.541  1.00  7.89 LIG 0.24  C 
ATOM     28 O    PRO J 104      60.060  57.954 -10.661  1.00  6.40 LIG-0.27  OA
ATOM     29  N   ILE J 105      58.020  58.163 -11.590  1.00 10.49 LIG-0.35  N 
ATOM     30 H    ILE J 105      57.161  58.137 -11.560  1.00 10.49 LIG 0.16  HD
BRANCH 29 31
ATOM     31  CA  ILE J 105      58.598  58.400 -12.908  1.00  9.44 LIG 0.18  C 
BRANCH 31 32
ATOM     32  CB  ILE J 105      58.624  57.161 -13.797  1.00  9.59 LIG 0.01  C 
ATOM     33  CG2 ILE J 105      59.764  56.301 -13.392  1.00  7.65 LIG 0.01  C 
BRANCH 32 34
ATOM     34  CG1 ILE J 105      57.309  56.402 -13.755  1.00  8.07 LIG 0.00  C 
ATOM     35  CD1 ILE J 105      57.328  55.324 -12.737  1.00 10.10 LIG 0.01  C 
ENDBRANCH 32 34
ENDBRANCH 31 32
BRANCH 31 36
ATOM     36  C   ILE J 105      57.997  59.591 -13.640  1.00 12.77 LIG 0.24  C 
ATOM     37  N   ALA J 106      56.670  59.545 -13.784  1.00 12.70 LIG-0.34  N 
ATOM     38 H    ALA J 106      56.215  58.878 -13.486  1.00 12.70 LIG 0.16  HD
ATOM     39 O    ILE J 105      58.726  60.459 -14.112  1.00 10.65 LIG-0.27  OA
BRANCH 37 40
ATOM     40  CA  ALA J 106      55.818  60.534 -14.418  1.00 16.79 LIG 0.18  C 
ATOM     41  CB  ALA J 106      55.738  61.837 -13.605  1.00 18.33 LIG 0.04  C 
BRANCH 40 42
ATOM     42  C   ALA J 106      56.159  60.790 -15.875  1.00 17.57 LIG 0.20  C 
ATOM     43 O    ALA J 106      55.973  61.961 -16.286  1.00 21.44 LIG-0.65  OA
ATOM     44 OXT  ALA J 106      56.632  59.861 -16.571  1.00 20.61 LIG-0.65  OA
ENDBRANCH 40 42
ENDBRANCH 37 40
ENDBRANCH 31 36
ENDBRANCH 29 31
ENDBRANCH 4 27
TORSDOF 14
ENDMDL
MODEL 7
USER: ADFR SOLUTION from run 98
USER: SCORE 14.529740 LL:  -2.824 LR: -12.813 RR:   0.000 FEB:  -8.637
USER: RMSD 5.684128
USER: SEED 97
USER: STATUS no improvement in best in 13 clusters for 5 generations
USER: GENES 16
USER: genes 0 Translation |==|  0.43614 0.71008 0.65124
USER: genes 1 Rotation |==|  0.61924 0.52542 0.44858 0.98217
USER: genes 2 Torsion [N]-C--CA-[N] |==|  0.57205
USER: genes 3 Torsion [C]-CA--N-[C] |==|  0.29943
USER: genes 4 Torsion [N]-C--CA-[N] |==|  0.87778
USER: genes 5 Torsion [C]-CA--N-[C] |==|  0.85864
USER: genes 6 Torsion [N]-C--CA-[N] |==|  0.30292
USER: genes 7 Torsion [C]-CA--CB-[CG] |==|  0.64916
USER: genes 8 Torsion [CA]-CB--CG-[ND1] |==|  0.83022
USER: genes 9 Torsion [N]-CA--C-[O] |==|  0.94511
USER: genes 10 Torsion [C]-N--CA-[C] |==|  0.24305
USER: genes 11 Torsion [N]-CA--CB-[CG1] |==|  0.63932
USER: genes 12 Torsion [CA]-CB--CG1-[CD1] |==|  0.02075
USER: genes 13 Torsion [N]-CA--C-[N] |==|  0.98044
USER: genes 14 Torsion [C]-N--CA-[CB] |==|  0.33459
USER: genes 15 Torsion [N]-CA--C-[O] |==|  0.98233
ROOT
ATOM      1  C   GLY J 103      55.980  57.116 -10.067  1.00 12.08 LIG 0.24  C 
ATOM      2 O    GLY J 103      55.964  57.839 -11.113  1.00  8.68 LIG-0.27  OA
ATOM      3  N   PRO J 104      57.091  56.947  -9.334  1.00 11.63 LIG-0.34  N 
ATOM      4  CA  PRO J 104      58.347  57.658  -9.603  1.00 13.37 LIG 0.18  C 
ATOM      5  CB  PRO J 104      59.164  57.350  -8.343  1.00 10.19 LIG 0.04  C 
ATOM      6  CG  PRO J 104      58.788  55.897  -8.083  1.00 11.82 LIG 0.02  C 
ATOM      7  CD  PRO J 104      57.260  55.953  -8.257  1.00  8.53 LIG 0.13  C 
ENDROOT
BRANCH 1 8
ATOM      8  CA  GLY J 103      54.798  56.285  -9.604  1.00  6.72 LIG 0.23  C 
BRANCH 8 9
ATOM      9  N   GLY J 103      53.801  55.949 -10.590  1.00  9.69 LIG-0.35  N 
ATOM     10  C   ALA J 102      53.685  54.714 -11.058  1.00  5.22 LIG 0.24  C 
ATOM     11 O    ALA J 102      54.407  53.792 -10.690  1.00 12.11 LIG-0.27  OA
ATOM     12 H    GLY J 103      53.305  56.607 -10.836  1.00  9.69 LIG 0.16  HD
BRANCH 10 13
ATOM     13  CA  ALA J 102      52.564  54.495 -12.088  1.00  8.22 LIG 0.17  C 
ATOM     14  CB  ALA J 102      53.022  54.986 -13.479  1.00 14.95 LIG 0.04  C 
BRANCH 13 15
ATOM     15  N   ALA J 102      51.299  55.117 -11.759  1.00  4.21 LIG-0.35  N 
ATOM     16  C   HIS J 101      50.695  54.966 -10.581  1.00  9.96 LIG 0.26  C 
ATOM     17 O    HIS J 101      51.164  54.272  -9.664  1.00  8.34 LIG-0.27  OA
ATOM     18 H    ALA J 102      50.973  55.593 -12.397  1.00  4.21 LIG 0.16  HD
BRANCH 16 19
ATOM     19  CA  HIS J 101      49.339  55.710 -10.435  1.00  9.34 LIG 0.41  C 
ATOM     20  N   HIS J 101      48.132  54.817 -10.411  1.00 12.44 LIG 0.61  N 
BRANCH 19 21
ATOM     21  CB  HIS J 101      49.365  56.622  -9.206  1.00 10.29 LIG 0.11  C 
BRANCH 21 22
ATOM     22  CG  HIS J 101      48.230  56.387  -8.268  1.00 11.59 LIG 0.06  A 
ATOM     23  CD2 HIS J 101      48.211  56.045  -6.960  1.00 10.25 LIG 0.14  A 
ATOM     24 NE2  HIS J 101      46.898  56.026  -6.563  1.00 11.46 LIG-0.25  NA
ATOM     25  CE1 HIS J 101      46.132  56.336  -7.591  1.00 15.99 LIG 0.23  A 
ATOM     26 ND1  HIS J 101      46.912  56.555  -8.636  1.00 17.50 LIG-0.24  NA
ENDBRANCH 21 22
ENDBRANCH 19 21
ENDBRANCH 16 19
ENDBRANCH 13 15
ENDBRANCH 10 13
ENDBRANCH 8 9
ENDBRANCH 1 8
BRANCH 4 27
ATOM     27  C   PRO J 104      59.073  57.181 -10.877  1.00  7.89 LIG 0.24  C 
ATOM     28 O    PRO J 104      58.830  56.077 -11.376  1.00  6.40 LIG-0.27  OA
ATOM     29  N   ILE J 105      59.938  58.035 -11.426  1.00 10.49 LIG-0.35  N 
ATOM     30 H    ILE J 105      60.088  58.836 -11.151  1.00 10.49 LIG 0.16  HD
BRANCH 29 31
ATOM     31  CA  ILE J 105      60.713  57.616 -12.590  1.00  9.44 LIG 0.18  C 
BRANCH 31 32
ATOM     32  CB  ILE J 105      61.234  56.186 -12.495  1.00  9.59 LIG 0.01  C 
ATOM     33  CG2 ILE J 105      60.439  55.322 -13.404  1.00  7.65 LIG 0.01  C 
BRANCH 32 34
ATOM     34  CG1 ILE J 105      62.720  56.099 -12.797  1.00  8.07 LIG 0.00  C 
ATOM     35  CD1 ILE J 105      63.333  57.442 -12.936  1.00 10.10 LIG 0.01  C 
ENDBRANCH 32 34
ENDBRANCH 31 32
BRANCH 31 36
ATOM     36  C   ILE J 105      60.012  57.859 -13.918  1.00 12.77 LIG 0.24  C 
ATOM     37  N   ALA J 106      58.748  58.277 -13.813  1.00 12.70 LIG-0.34  N 
ATOM     38 H    ALA J 106      58.379  58.382 -13.043  1.00 12.70 LIG 0.16  HD
ATOM     39 O    ILE J 105      60.582  57.600 -14.974  1.00 10.65 LIG-0.27  OA
BRANCH 37 40
ATOM     40  CA  ALA J 106      57.836  58.605 -14.893  1.00 16.79 LIG 0.18  C 
ATOM     41  CB  ALA J 106      56.571  57.731 -14.871  1.00 18.33 LIG 0.04  C 
BRANCH 40 42
ATOM     42  C   ALA J 106      57.507  60.083 -14.988  1.00 17.57 LIG 0.20  C 
ATOM     43 O    ALA J 106      57.952  60.806 -14.065  1.00 21.44 LIG-0.65  OA
ATOM     44 OXT  ALA J 106      56.858  60.510 -15.973  1.00 20.61 LIG-0.65  OA
ENDBRANCH 40 42
ENDBRANCH 37 40
ENDBRANCH 31 36
ENDBRANCH 29 31
ENDBRANCH 4 27
TORSDOF 14
ENDMDL
MODEL 8
USER: ADFR SOLUTION from run 3
USER: SCORE 14.729250 LL:  -2.544 LR: -12.649 RR:   0.000 FEB:  -8.473
USER: RMSD 3.093016
USER: SEED 938916
USER: STATUS no improvement in best in 10 clusters for 5 generations
USER: GENES 16
USER: genes 0 Translation |==|  0.44674 0.70441 0.65457
USER: genes 1 Rotation |==|  0.63145 0.54824 0.48970 0.97988
USER: genes 2 Torsion [N]-C--CA-[N] |==|  0.46379
USER: genes 3 Torsion [C]-CA--N-[C] |==|  0.36535
USER: genes 4 Torsion [N]-C--CA-[N] |==|  0.45916
USER: genes 5 Torsion [C]-CA--N-[C] |==|  0.75000
USER: genes 6 Torsion [N]-C--CA-[N] |==|  0.92581
USER: genes 7 Torsion [C]-CA--CB-[CG] |==|  0.79322
USER: genes 8 Torsion [CA]-CB--CG-[ND1] |==|  0.08973
USER: genes 9 Torsion [N]-CA--C-[O] |==|  0.88445
USER: genes 10 Torsion [C]-N--CA-[C] |==|  0.83030
USER: genes 11 Torsion [N]-CA--CB-[CG1] |==|  0.31794
USER: genes 12 Torsion [CA]-CB--CG1-[CD1] |==|  0.59243
USER: genes 13 Torsion [N]-CA--C-[N] |==|  0.35972
USER: genes 14 Torsion [C]-N--CA-[CB] |==|  0.94523
USER: genes 15 Torsion [N]-CA--C-[O] |==|  0.01038
ROOT
ATOM      1  C   GLY J 103      56.251  57.013 -10.013  1.00 12.08 LIG 0.24  C 
ATOM      2 O    GLY J 103      56.056  57.786 -11.003  1.00  8.68 LIG-0.27  OA
ATOM      3  N   PRO J 104      57.409  56.999  -9.336  1.00 11.63 LIG-0.34  N 
ATOM      4  CA  PRO J 104      58.506  57.937  -9.601  1.00 13.37 LIG 0.18  C 
ATOM      5  CB  PRO J 104      59.426  57.700  -8.399  1.00 10.19 LIG 0.04  C 
ATOM      6  CG  PRO J 104      59.324  56.191  -8.228  1.00 11.82 LIG 0.02  C 
ATOM      7  CD  PRO J 104      57.803  55.985  -8.339  1.00  8.53 LIG 0.13  C 
ENDROOT
BRANCH 1 8
ATOM      8  CA  GLY J 103      55.256  55.959  -9.564  1.00  6.72 LIG 0.23  C 
BRANCH 8 9
ATOM      9  N   GLY J 103      53.899  56.090 -10.033  1.00  9.69 LIG-0.35  N 
ATOM     10  C   ALA J 102      53.251  55.062 -10.562  1.00  5.22 LIG 0.24  C 
ATOM     11 O    ALA J 102      53.756  53.950 -10.687  1.00 12.11 LIG-0.27  OA
ATOM     12 H    GLY J 103      53.562  56.876  -9.938  1.00  9.69 LIG 0.16  HD
BRANCH 10 13
ATOM     13  CA  ALA J 102      51.803  55.341 -10.998  1.00  8.22 LIG 0.17  C 
ATOM     14  CB  ALA J 102      50.902  55.522  -9.757  1.00 14.95 LIG 0.04  C 
BRANCH 13 15
ATOM     15  N   ALA J 102      51.219  54.338 -11.864  1.00  4.21 LIG-0.35  N 
ATOM     16  C   HIS J 101      51.300  54.384 -13.193  1.00  9.96 LIG 0.26  C 
ATOM     17 O    HIS J 101      51.879  55.296 -13.805  1.00  8.34 LIG-0.27  OA
ATOM     18 H    ALA J 102      50.814  53.709 -11.439  1.00  4.21 LIG 0.16  HD
BRANCH 16 19
ATOM     19  CA  HIS J 101      50.597  53.215 -13.937  1.00  9.34 LIG 0.41  C 
ATOM     20  N   HIS J 101      50.493  51.941 -13.147  1.00 12.44 LIG 0.61  N 
BRANCH 19 21
ATOM     21  CB  HIS J 101      49.221  53.657 -14.439  1.00 10.29 LIG 0.11  C 
BRANCH 21 22
ATOM     22  CG  HIS J 101      48.200  53.766 -13.357  1.00 11.59 LIG 0.06  A 
ATOM     23  CD2 HIS J 101      46.873  53.507 -13.354  1.00 10.25 LIG 0.14  A 
ATOM     24 NE2  HIS J 101      46.422  53.709 -12.074  1.00 11.46 LIG-0.25  NA
ATOM     25  CE1 HIS J 101      47.432  54.089 -11.315  1.00 15.99 LIG 0.23  A 
ATOM     26 ND1  HIS J 101      48.519  54.136 -12.068  1.00 17.50 LIG-0.24  NA
ENDBRANCH 21 22
ENDBRANCH 19 21
ENDBRANCH 16 19
ENDBRANCH 13 15
ENDBRANCH 10 13
ENDBRANCH 8 9
ENDBRANCH 1 8
BRANCH 4 27
ATOM     27  C   PRO J 104      59.240  57.677 -10.932  1.00  7.89 LIG 0.24  C 
ATOM     28 O    PRO J 104      59.512  56.529 -11.300  1.00  6.40 LIG-0.27  OA
ATOM     29  N   ILE J 105      59.524  58.748 -11.677  1.00 10.49 LIG-0.35  N 
ATOM     30 H    ILE J 105      59.294  59.556 -11.492  1.00 10.49 LIG 0.16  HD
BRANCH 29 31
ATOM     31  CA  ILE J 105      60.283  58.577 -12.912  1.00  9.44 LIG 0.18  C 
BRANCH 31 32
ATOM     32  CB  ILE J 105      60.331  59.831 -13.778  1.00  9.59 LIG 0.01  C 
ATOM     33  CG2 ILE J 105      59.386  60.834 -13.227  1.00  7.65 LIG 0.01  C 
BRANCH 32 34
ATOM     34  CG1 ILE J 105      61.738  60.391 -13.893  1.00  8.07 LIG 0.00  C 
ATOM     35  CD1 ILE J 105      61.734  61.871 -13.994  1.00 10.10 LIG 0.01  C 
ENDBRANCH 32 34
ENDBRANCH 31 32
BRANCH 31 36
ATOM     36  C   ILE J 105      61.674  57.997 -12.705  1.00 12.77 LIG 0.24  C 
ATOM     37  N   ALA J 106      61.964  56.951 -13.483  1.00 12.70 LIG-0.34  N 
ATOM     38 H    ALA J 106      61.387  56.642 -14.042  1.00 12.70 LIG 0.16  HD
ATOM     39 O    ILE J 105      62.404  58.441 -11.824  1.00 10.65 LIG-0.27  OA
BRANCH 37 40
ATOM     40  CA  ALA J 106      63.206  56.202 -13.526  1.00 16.79 LIG 0.18  C 
ATOM     41  CB  ALA J 106      64.381  56.994 -12.928  1.00 18.33 LIG 0.04  C 
BRANCH 40 42
ATOM     42  C   ALA J 106      63.100  54.807 -12.938  1.00 17.57 LIG 0.20  C 
ATOM     43 O    ALA J 106      61.956  54.454 -12.563  1.00 21.44 LIG-0.65  OA
ATOM     44 OXT  ALA J 106      64.119  54.078 -12.890  1.00 20.61 LIG-0.65  OA
ENDBRANCH 40 42
ENDBRANCH 37 40
ENDBRANCH 31 36
ENDBRANCH 29 31
ENDBRANCH 4 27
TORSDOF 14
ENDMDL
MODEL 9
USER: ADFR SOLUTION from run 33
USER: SCORE 14.510588 LL:  -2.768 LR: -12.576 RR:   0.000 FEB:  -8.400
USER: RMSD 3.290860
USER: SEED 32
USER: STATUS no improvement in best in 10 clusters for 5 generations
USER: GENES 16
USER: genes 0 Translation |==|  0.45474 0.69779 0.63935
USER: genes 1 Rotation |==|  0.63219 0.52607 0.51997 0.98109
USER: genes 2 Torsion [N]-C--CA-[N] |==|  0.42784
USER: genes 3 Torsion [C]-CA--N-[C] |==|  0.41276
USER: genes 4 Torsion [N]-C--CA-[N] |==|  0.46992
USER: genes 5 Torsion [C]-CA--N-[C] |==|  0.76118
USER: genes 6 Torsion [N]-C--CA-[N] |==|  0.28348
USER: genes 7 Torsion [C]-CA--CB-[CG] |==|  0.37405
USER: genes 8 Torsion [CA]-CB--CG-[ND1] |==|  0.83961
USER: genes 9 Torsion [N]-CA--C-[O] |==|  0.82714
USER: genes 10 Torsion [C]-N--CA-[C] |==|  0.53423
USER: genes 11 Torsion [N]-CA--CB-[CG1] |==|  0.60822
USER: genes 12 Torsion [CA]-CB--CG1-[CD1] |==|  0.14831
USER: genes 13 Torsion [N]-CA--C-[N] |==|  0.42982
USER: genes 14 Torsion [C]-N--CA-[CB] |==|  0.44254
USER: genes 15 Torsion [N]-CA--C-[O] |==|  0.96792
ROOT
ATOM      1  C   GLY J 103      56.455  56.894 -10.264  1.00 12.08 LIG 0.24  C 
ATOM      2 O    GLY J 103      56.306  57.663 -11.265  1.00  8.68 LIG-0.27  OA
ATOM      3  N   PRO J 104      57.523  56.975  -9.455  1.00 11.63 LIG-0.34  N 
ATOM      4  CA  PRO J 104      58.551  58.014  -9.584  1.00 13.37 LIG 0.18  C 
ATOM      5  CB  PRO J 104      59.343  57.842  -8.283  1.00 10.19 LIG 0.04  C 
ATOM      6  CG  PRO J 104      59.362  56.327  -8.135  1.00 11.82 LIG 0.02  C 
ATOM      7  CD  PRO J 104      57.890  55.985  -8.425  1.00  8.53 LIG 0.13  C 
ENDROOT
BRANCH 1 8
ATOM      8  CA  GLY J 103      55.517  55.746  -9.942  1.00  6.72 LIG 0.23  C 
BRANCH 8 9
ATOM      9  N   GLY J 103      54.135  55.895 -10.324  1.00  9.69 LIG-0.35  N 
ATOM     10  C   ALA J 102      53.399  54.847 -10.668  1.00  5.22 LIG 0.24  C 
ATOM     11 O    ALA J 102      53.839  53.701 -10.685  1.00 12.11 LIG-0.27  OA
ATOM     12 H    GLY J 103      53.845  56.704 -10.308  1.00  9.69 LIG 0.16  HD
BRANCH 10 13
ATOM     13  CA  ALA J 102      51.936  55.151 -11.032  1.00  8.22 LIG 0.17  C 
ATOM     14  CB  ALA J 102      51.169  55.632  -9.779  1.00 14.95 LIG 0.04  C 
BRANCH 13 15
ATOM     15  N   ALA J 102      51.213  54.053 -11.637  1.00  4.21 LIG-0.35  N 
ATOM     16  C   HIS J 101      51.233  53.797 -12.944  1.00  9.96 LIG 0.26  C 
ATOM     17 O    HIS J 101      51.872  54.484 -13.759  1.00  8.34 LIG-0.27  OA
ATOM     18 H    ALA J 102      50.768  53.581 -11.072  1.00  4.21 LIG 0.16  HD
BRANCH 16 19
ATOM     19  CA  HIS J 101      50.382  52.578 -13.391  1.00  9.34 LIG 0.41  C 
ATOM     20  N   HIS J 101      49.061  52.929 -14.015  1.00 12.44 LIG 0.61  N 
BRANCH 19 21
ATOM     21  CB  HIS J 101      51.197  51.672 -14.318  1.00 10.29 LIG 0.11  C 
BRANCH 21 22
ATOM     22  CG  HIS J 101      51.079  50.223 -13.987  1.00 11.59 LIG 0.06  A 
ATOM     23  CD2 HIS J 101      50.716  49.163 -14.743  1.00 10.25 LIG 0.14  A 
ATOM     24 NE2  HIS J 101      50.845  48.042 -13.961  1.00 11.46 LIG-0.25  NA
ATOM     25  CE1 HIS J 101      51.263  48.398 -12.762  1.00 15.99 LIG 0.23  A 
ATOM     26 ND1  HIS J 101      51.409  49.713 -12.749  1.00 17.50 LIG-0.24  NA
ENDBRANCH 21 22
ENDBRANCH 19 21
ENDBRANCH 16 19
ENDBRANCH 13 15
ENDBRANCH 10 13
ENDBRANCH 8 9
ENDBRANCH 1 8
BRANCH 4 27
ATOM     27  C   PRO J 104      59.456  57.845 -10.821  1.00  7.89 LIG 0.24  C 
ATOM     28 O    PRO J 104      60.174  56.848 -10.958  1.00  6.40 LIG-0.27  OA
ATOM     29  N   ILE J 105      59.390  58.806 -11.746  1.00 10.49 LIG-0.35  N 
ATOM     30 H    ILE J 105      58.857  59.480 -11.722  1.00 10.49 LIG 0.16  HD
BRANCH 29 31
ATOM     31  CA  ILE J 105      60.275  58.743 -12.904  1.00  9.44 LIG 0.18  C 
BRANCH 31 32
ATOM     32  CB  ILE J 105      60.032  57.529 -13.795  1.00  9.59 LIG 0.01  C 
ATOM     33  CG2 ILE J 105      59.118  57.918 -14.898  1.00  7.65 LIG 0.01  C 
BRANCH 32 34
ATOM     34  CG1 ILE J 105      61.328  56.940 -14.323  1.00  8.07 LIG 0.00  C 
ATOM     35  CD1 ILE J 105      62.283  56.642 -13.229  1.00 10.10 LIG 0.01  C 
ENDBRANCH 32 34
ENDBRANCH 31 32
BRANCH 31 36
ATOM     36  C   ILE J 105      60.315  60.026 -13.721  1.00 12.77 LIG 0.24  C 
ATOM     37  N   ALA J 106      61.438  60.207 -14.421  1.00 12.70 LIG-0.34  N 
ATOM     38 H    ALA J 106      62.078  59.633 -14.387  1.00 12.70 LIG 0.16  HD
ATOM     39 O    ILE J 105      59.395  60.835 -13.644  1.00 10.65 LIG-0.27  OA
BRANCH 37 40
ATOM     40  CA  ALA J 106      61.758  61.317 -15.298  1.00 16.79 LIG 0.18  C 
ATOM     41  CB  ALA J 106      63.273  61.459 -15.525  1.00 18.33 LIG 0.04  C 
BRANCH 40 42
ATOM     42  C   ALA J 106      60.984  61.309 -16.604  1.00 17.57 LIG 0.20  C 
ATOM     43 O    ALA J 106      60.352  60.256 -16.861  1.00 21.44 LIG-0.65  OA
ATOM     44 OXT  ALA J 106      60.979  62.334 -17.326  1.00 20.61 LIG-0.65  OA
ENDBRANCH 40 42
ENDBRANCH 37 40
ENDBRANCH 31 36
ENDBRANCH 29 31
ENDBRANCH 4 27
TORSDOF 14
ENDMDL
MODEL 10
USER: ADFR SOLUTION from run 3
USER: SCORE 14.435101 LL:  -2.434 LR: -12.527 RR:   0.000 FEB:  -8.351
USER: RMSD 1.987208
USER: SEED 938916
USER: STATUS no improvement in best in 10 clusters for 5 generations
USER: GENES 16
USER: genes 0 Translation |==|  0.44306 0.70389 0.65142
USER: genes 1 Rotation |==|  0.63068 0.54752 0.48832 0.98013
USER: genes 2 Torsion [N]-C--CA-[N] |==|  0.47164
USER: genes 3 Torsion [C]-CA--N-[C] |==|  0.37492
USER: genes 4 Torsion [N]-C--CA-[N] |==|  0.48798
USER: genes 5 Torsion [C]-CA--N-[C] |==|  0.76359
USER: genes 6 Torsion [N]-C--CA-[N] |==|  0.27997
USER: genes 7 Torsion [C]-CA--CB-[CG] |==|  0.39793
USER: genes 8 Torsion [CA]-CB--CG-[ND1] |==|  0.80751
USER: genes 9 Torsion [N]-CA--C-[O] |==|  0.89060
USER: genes 10 Torsion [C]-N--CA-[C] |==|  0.82651
USER: genes 11 Torsion [N]-CA--CB-[CG1] |==|  0.32302
USER: genes 12 Torsion [CA]-CB--CG1-[CD1] |==|  0.59013
USER: genes 13 Torsion [N]-CA--C-[N] |==|  0.36667
USER: genes 14 Torsion [C]-N--CA-[CB] |==|  0.93763
USER: genes 15 Torsion [N]-CA--C-[O] |==|  0.99219
ROOT
ATOM      1  C   GLY J 103      56.157  57.004 -10.065  1.00 12.08 LIG 0.24  C 
ATOM      2 O    GLY J 103      55.968  57.774 -11.058  1.00  8.68 LIG-0.27  OA
ATOM      3  N   PRO J 104      57.314  56.986  -9.386  1.00 11.63 LIG-0.34  N 
ATOM      4  CA  PRO J 104      58.417  57.917  -9.654  1.00 13.37 LIG 0.18  C 
ATOM      5  CB  PRO J 104      59.334  57.679  -8.449  1.00 10.19 LIG 0.04  C 
ATOM      6  CG  PRO J 104      59.223  56.171  -8.272  1.00 11.82 LIG 0.02  C 
ATOM      7  CD  PRO J 104      57.701  55.973  -8.385  1.00  8.53 LIG 0.13  C 
ENDROOT
BRANCH 1 8
ATOM      8  CA  GLY J 103      55.156  55.957  -9.613  1.00  6.72 LIG 0.23  C 
BRANCH 8 9
ATOM      9  N   GLY J 103      53.815  56.058 -10.134  1.00  9.69 LIG-0.35  N 
ATOM     10  C   ALA J 102      53.170  54.992 -10.586  1.00  5.22 LIG 0.24  C 
ATOM     11 O    ALA J 102      53.663  53.868 -10.592  1.00 12.11 LIG-0.27  OA
ATOM     12 H    GLY J 103      53.486  56.853 -10.123  1.00  9.69 LIG 0.16  HD
BRANCH 10 13
ATOM     13  CA  ALA J 102      51.739  55.244 -11.092  1.00  8.22 LIG 0.17  C 
ATOM     14  CB  ALA J 102      50.864  55.801  -9.946  1.00 14.95 LIG 0.04  C 
BRANCH 13 15
ATOM     15  N   ALA J 102      51.082  54.093 -11.672  1.00  4.21 LIG-0.35  N 
ATOM     16  C   HIS J 101      51.229  53.734 -12.947  1.00  9.96 LIG 0.26  C 
ATOM     17 O    HIS J 101      51.939  54.361 -13.750  1.00  8.34 LIG-0.27  OA
ATOM     18 H    ALA J 102      50.587  53.662 -11.117  1.00  4.21 LIG 0.16  HD
BRANCH 16 19
ATOM     19  CA  HIS J 101      50.429  52.472 -13.373  1.00  9.34 LIG 0.41  C 
ATOM     20  N   HIS J 101      49.157  52.758 -14.120  1.00 12.44 LIG 0.61  N 
BRANCH 19 21
ATOM     21  CB  HIS J 101      51.324  51.520 -14.169  1.00 10.29 LIG 0.11  C 
BRANCH 21 22
ATOM     22  CG  HIS J 101      51.053  50.080 -13.894  1.00 11.59 LIG 0.06  A 
ATOM     23  CD2 HIS J 101      50.555  49.100 -14.681  1.00 10.25 LIG 0.14  A 
ATOM     24 NE2  HIS J 101      50.577  47.939 -13.950  1.00 11.46 LIG-0.25  NA
ATOM     25  CE1 HIS J 101      51.062  48.194 -12.750  1.00 15.99 LIG 0.23  A 
ATOM     26 ND1  HIS J 101      51.354  49.483 -12.688  1.00 17.50 LIG-0.24  NA
ENDBRANCH 21 22
ENDBRANCH 19 21
ENDBRANCH 16 19
ENDBRANCH 13 15
ENDBRANCH 10 13
ENDBRANCH 8 9
ENDBRANCH 1 8
BRANCH 4 27
ATOM     27  C   PRO J 104      59.151  57.647 -10.983  1.00  7.89 LIG 0.24  C 
ATOM     28 O    PRO J 104      59.382  56.495 -11.365  1.00  6.40 LIG-0.27  OA
ATOM     29  N   ILE J 105      59.483  58.717 -11.709  1.00 10.49 LIG-0.35  N 
ATOM     30 H    ILE J 105      59.283  59.530 -11.514  1.00 10.49 LIG 0.16  HD
BRANCH 29 31
ATOM     31  CA  ILE J 105      60.245  58.534 -12.941  1.00  9.44 LIG 0.18  C 
BRANCH 31 32
ATOM     32  CB  ILE J 105      60.321  59.788 -13.804  1.00  9.59 LIG 0.01  C 
ATOM     33  CG2 ILE J 105      59.426  60.824 -13.230  1.00  7.65 LIG 0.01  C 
BRANCH 32 34
ATOM     34  CG1 ILE J 105      61.745  60.297 -13.947  1.00  8.07 LIG 0.00  C 
ATOM     35  CD1 ILE J 105      61.792  61.775 -14.063  1.00 10.10 LIG 0.01  C 
ENDBRANCH 32 34
ENDBRANCH 31 32
BRANCH 31 36
ATOM     36  C   ILE J 105      61.624  57.927 -12.728  1.00 12.77 LIG 0.24  C 
ATOM     37  N   ALA J 106      61.917  56.911 -13.543  1.00 12.70 LIG-0.34  N 
ATOM     38 H    ALA J 106      61.350  56.633 -14.127  1.00 12.70 LIG 0.16  HD
ATOM     39 O    ILE J 105      62.339  58.325 -11.813  1.00 10.65 LIG-0.27  OA
BRANCH 37 40
ATOM     40  CA  ALA J 106      63.151  56.148 -13.590  1.00 16.79 LIG 0.18  C 
ATOM     41  CB  ALA J 106      64.337  56.926 -12.994  1.00 18.33 LIG 0.04  C 
BRANCH 40 42
ATOM     42  C   ALA J 106      63.030  54.754 -13.003  1.00 17.57 LIG 0.20  C 
ATOM     43 O    ALA J 106      61.916  54.459 -12.510  1.00 21.44 LIG-0.65  OA
ATOM     44 OXT  ALA J 106      64.006  53.969 -13.070  1.00 20.61 LIG-0.65  OA
ENDBRANCH 40 42
ENDBRANCH 37 40
ENDBRANCH 31 36
ENDBRANCH 29 31
ENDBRANCH 4 27
TORSDOF 14
ENDMDL
MODEL 11
USER: ADFR SOLUTION from run 23
USER: SCORE 14.824690 LL:  -3.525 LR: -12.519 RR:   0.000 FEB:  -8.343
USER: RMSD 5.968819
USER: SEED 22
USER: STATUS no improvement in best in 10 clusters for 5 generations
USER: GENES 16
USER: genes 0 Translation |==|  0.39581 0.60619 0.59222
USER: genes 1 Rotation |==|  0.05066 0.41834 0.61521 0.66779
USER: genes 2 Torsion [N]-C--CA-[N] |==|  0.27778
USER: genes 3 Torsion [C]-CA--N-[C] |==|  0.75948
USER: genes 4 Torsion [N]-C--CA-[N] |==|  0.26402
USER: genes 5 Torsion [C]-CA--N-[C] |==|  0.82218
USER: genes 6 Torsion [N]-C--CA-[N] |==|  0.27781
USER: genes 7 Torsion [C]-CA--CB-[CG] |==|  0.77899
USER: genes 8 Torsion [CA]-CB--CG-[ND1] |==|  0.79064
USER: genes 9 Torsion [N]-CA--C-[O] |==|  0.43950
USER: genes 10 Torsion [C]-N--CA-[C] |==|  0.18198
USER: genes 11 Torsion [N]-CA--CB-[CG1] |==|  0.89733
USER: genes 12 Torsion [CA]-CB--CG1-[CD1] |==|  0.86414
USER: genes 13 Torsion [N]-CA--C-[N] |==|  0.07677
USER: genes 14 Torsion [C]-N--CA-[CB] |==|  0.24437
USER: genes 15 Torsion [N]-CA--C-[O] |==|  0.96739
ROOT
ATOM      1  C   GLY J 103      54.952  55.245 -11.041  1.00 12.08 LIG 0.24  C 
ATOM      2 O    GLY J 103      55.644  54.475 -10.304  1.00  8.68 LIG-0.27  OA
ATOM      3  N   PRO J 104      55.446  55.796 -12.161  1.00 11.63 LIG-0.34  N 
ATOM      4  CA  PRO J 104      56.777  55.478 -12.691  1.00 13.37 LIG 0.18  C 
ATOM      5  CB  PRO J 104      56.724  56.113 -14.086  1.00 10.19 LIG 0.04  C 
ATOM      6  CG  PRO J 104      55.959  57.399 -13.808  1.00 11.82 LIG 0.02  C 
ATOM      7  CD  PRO J 104      54.804  56.872 -12.939  1.00  8.53 LIG 0.13  C 
ENDROOT
BRANCH 1 8
ATOM      8  CA  GLY J 103      53.553  55.712 -10.685  1.00  6.72 LIG 0.23  C 
BRANCH 8 9
ATOM      9  N   GLY J 103      52.458  54.840 -11.030  1.00  9.69 LIG-0.35  N 
ATOM     10  C   ALA J 102      51.892  54.887 -12.228  1.00  5.22 LIG 0.24  C 
ATOM     11 O    ALA J 102      52.255  55.663 -13.107  1.00 12.11 LIG-0.27  OA
ATOM     12 H    GLY J 103      52.217  54.304 -10.403  1.00  9.69 LIG 0.16  HD
BRANCH 10 13
ATOM     13  CA  ALA J 102      50.750  53.884 -12.464  1.00  8.22 LIG 0.17  C 
ATOM     14  CB  ALA J 102      50.823  53.329 -13.904  1.00 14.95 LIG 0.04  C 
BRANCH 13 15
ATOM     15  N   ALA J 102      49.420  54.402 -12.224  1.00  4.21 LIG-0.35  N 
ATOM     16  C   HIS J 101      48.997  54.804 -11.025  1.00  9.96 LIG 0.26  C 
ATOM     17 O    HIS J 101      49.709  54.763 -10.008  1.00  8.34 LIG-0.27  OA
ATOM     18 H    ALA J 102      48.926  54.425 -12.928  1.00  4.21 LIG 0.16  HD
BRANCH 16 19
ATOM     19  CA  HIS J 101      47.532  55.316 -10.980  1.00  9.34 LIG 0.41  C 
ATOM     20  N   HIS J 101      46.534  54.320 -10.463  1.00 12.44 LIG 0.61  N 
BRANCH 19 21
ATOM     21  CB  HIS J 101      47.452  56.626 -10.192  1.00 10.29 LIG 0.11  C 
BRANCH 21 22
ATOM     22  CG  HIS J 101      47.457  56.431  -8.713  1.00 11.59 LIG 0.06  A 
ATOM     23  CD2 HIS J 101      48.410  56.672  -7.785  1.00 10.25 LIG 0.14  A 
ATOM     24 NE2  HIS J 101      47.868  56.377  -6.559  1.00 11.46 LIG-0.25  NA
ATOM     25  CE1 HIS J 101      46.628  55.959  -6.725  1.00 15.99 LIG 0.23  A 
ATOM     26 ND1  HIS J 101      46.355  55.977  -8.019  1.00 17.50 LIG-0.24  NA
ENDBRANCH 21 22
ENDBRANCH 19 21
ENDBRANCH 16 19
ENDBRANCH 13 15
ENDBRANCH 10 13
ENDBRANCH 8 9
ENDBRANCH 1 8
BRANCH 4 27
ATOM     27  C   PRO J 104      57.936  56.056 -11.854  1.00  7.89 LIG 0.24  C 
ATOM     28 O    PRO J 104      59.073  55.573 -11.915  1.00  6.40 LIG-0.27  OA
ATOM     29  N   ILE J 105      57.656  57.122 -11.101  1.00 10.49 LIG-0.35  N 
ATOM     30 H    ILE J 105      56.898  57.529 -11.080  1.00 10.49 LIG 0.16  HD
BRANCH 29 31
ATOM     31  CA  ILE J 105      58.689  57.670 -10.229  1.00  9.44 LIG 0.18  C 
BRANCH 31 32
ATOM     32  CB  ILE J 105      59.144  56.707  -9.138  1.00  9.59 LIG 0.01  C 
ATOM     33  CG2 ILE J 105      59.816  57.479  -8.063  1.00  7.65 LIG 0.01  C 
BRANCH 32 34
ATOM     34  CG1 ILE J 105      57.994  55.877  -8.594  1.00  8.07 LIG 0.00  C 
ATOM     35  CD1 ILE J 105      56.824  56.719  -8.247  1.00 10.10 LIG 0.01  C 
ENDBRANCH 32 34
ENDBRANCH 31 32
BRANCH 31 36
ATOM     36  C   ILE J 105      59.878  58.258 -10.975  1.00 12.77 LIG 0.24  C 
ATOM     37  N   ALA J 106      59.597  58.717 -12.197  1.00 12.70 LIG-0.34  N 
ATOM     38 H    ALA J 106      58.801  58.662 -12.519  1.00 12.70 LIG 0.16  HD
ATOM     39 O    ILE J 105      61.000  58.217 -10.479  1.00 10.65 LIG-0.27  OA
BRANCH 37 40
ATOM     40  CA  ALA J 106      60.512  59.342 -13.134  1.00 16.79 LIG 0.18  C 
ATOM     41  CB  ALA J 106      61.225  58.310 -14.025  1.00 18.33 LIG 0.04  C 
BRANCH 40 42
ATOM     42  C   ALA J 106      59.886  60.461 -13.946  1.00 17.57 LIG 0.20  C 
ATOM     43 O    ALA J 106      58.637  60.555 -13.882  1.00 21.44 LIG-0.65  OA
ATOM     44 OXT  ALA J 106      60.624  61.243 -14.593  1.00 20.61 LIG-0.65  OA
ENDBRANCH 40 42
ENDBRANCH 37 40
ENDBRANCH 31 36
ENDBRANCH 29 31
ENDBRANCH 4 27
TORSDOF 14
ENDMDL
MODEL 12
USER: ADFR SOLUTION from run 77
USER: SCORE 15.356413 LL:  -3.695 LR: -12.523 RR:   0.000 FEB:  -8.347
USER: RMSD 3.691686
USER: SEED 76
USER: STATUS no improvement in best in 17 clusters for 5 generations
USER: GENES 16
USER: genes 0 Translation |==|  0.43067 0.70307 0.65572
USER: genes 1 Rotation |==|  0.63262 0.54141 0.48139 0.97995
USER: genes 2 Torsion [N]-C--CA-[N] |==|  0.50538
USER: genes 3 Torsion [C]-CA--N-[C] |==|  0.57992
USER: genes 4 Torsion [N]-C--CA-[N] |==|  0.23790
USER: genes 5 Torsion [C]-CA--N-[C] |==|  0.74933
USER: genes 6 Torsion [N]-C--CA-[N] |==|  0.43150
USER: genes 7 Torsion [C]-CA--CB-[CG] |==|  0.95641
USER: genes 8 Torsion [CA]-CB--CG-[ND1] |==|  0.80766
USER: genes 9 Torsion [N]-CA--C-[O] |==|  0.83009
USER: genes 10 Torsion [C]-N--CA-[C] |==|  0.56278
USER: genes 11 Torsion [N]-CA--CB-[CG1] |==|  0.05209
USER: genes 12 Torsion [CA]-CB--CG1-[CD1] |==|  0.68534
USER: genes 13 Torsion [N]-CA--C-[N] |==|  0.39049
USER: genes 14 Torsion [C]-N--CA-[CB] |==|  0.49112
USER: genes 15 Torsion [N]-CA--C-[O] |==|  0.95864
ROOT
ATOM      1  C   GLY J 103      55.841  56.989  -9.994  1.00 12.08 LIG 0.24  C 
ATOM      2 O    GLY J 103      55.695  57.769 -10.987  1.00  8.68 LIG-0.27  OA
ATOM      3  N   PRO J 104      56.986  56.929  -9.297  1.00 11.63 LIG-0.34  N 
ATOM      4  CA  PRO J 104      58.123  57.823  -9.542  1.00 13.37 LIG 0.18  C 
ATOM      5  CB  PRO J 104      59.012  57.550  -8.324  1.00 10.19 LIG 0.04  C 
ATOM      6  CG  PRO J 104      58.847  56.045  -8.156  1.00 11.82 LIG 0.02  C 
ATOM      7  CD  PRO J 104      57.321  55.900  -8.294  1.00  8.53 LIG 0.13  C 
ENDROOT
BRANCH 1 8
ATOM      8  CA  GLY J 103      54.798  55.975  -9.564  1.00  6.72 LIG 0.23  C 
BRANCH 8 9
ATOM      9  N   GLY J 103      53.557  55.953 -10.298  1.00  9.69 LIG-0.35  N 
ATOM     10  C   ALA J 102      52.425  55.567  -9.725  1.00  5.22 LIG 0.24  C 
ATOM     11 O    ALA J 102      52.360  55.209  -8.553  1.00 12.11 LIG-0.27  OA
ATOM     12 H    GLY J 103      53.622  56.206 -11.117  1.00  9.69 LIG 0.16  HD
BRANCH 10 13
ATOM     13  CA  ALA J 102      51.176  55.615 -10.621  1.00  8.22 LIG 0.17  C 
ATOM     14  CB  ALA J 102      49.918  55.873  -9.761  1.00 14.95 LIG 0.04  C 
BRANCH 13 15
ATOM     15  N   ALA J 102      50.959  54.437 -11.434  1.00  4.21 LIG-0.35  N 
ATOM     16  C   HIS J 101      51.450  54.300 -12.665  1.00  9.96 LIG 0.26  C 
ATOM     17 O    HIS J 101      52.133  55.174 -13.224  1.00  8.34 LIG-0.27  OA
ATOM     18 H    ALA J 102      50.482  53.834 -11.048  1.00  4.21 LIG 0.16  HD
BRANCH 16 19
ATOM     19  CA  HIS J 101      51.094  52.963 -13.372  1.00  9.34 LIG 0.41  C 
ATOM     20  N   HIS J 101      51.117  53.020 -14.872  1.00 12.44 LIG 0.61  N 
BRANCH 19 21
ATOM     21  CB  HIS J 101      51.991  51.835 -12.856  1.00 10.29 LIG 0.11  C 
BRANCH 21 22
ATOM     22  CG  HIS J 101      53.193  52.321 -12.120  1.00 11.59 LIG 0.06  A 
ATOM     23  CD2 HIS J 101      53.549  52.209 -10.821  1.00 10.25 LIG 0.14  A 
ATOM     24 NE2  HIS J 101      54.791  52.777 -10.688  1.00 11.46 LIG-0.25  NA
ATOM     25  CE1 HIS J 101      55.185  53.234 -11.862  1.00 15.99 LIG 0.23  A 
ATOM     26 ND1  HIS J 101      54.235  52.974 -12.745  1.00 17.50 LIG-0.24  NA
ENDBRANCH 21 22
ENDBRANCH 19 21
ENDBRANCH 16 19
ENDBRANCH 13 15
ENDBRANCH 10 13
ENDBRANCH 8 9
ENDBRANCH 1 8
BRANCH 4 27
ATOM     27  C   PRO J 104      58.870  57.535 -10.860  1.00  7.89 LIG 0.24  C 
ATOM     28 O    PRO J 104      59.416  56.444 -11.061  1.00  6.40 LIG-0.27  OA
ATOM     29  N   ILE J 105      58.857  58.503 -11.778  1.00 10.49 LIG-0.35  N 
ATOM     30 H    ILE J 105      58.434  59.249 -11.706  1.00 10.49 LIG 0.16  HD
BRANCH 29 31
ATOM     31  CA  ILE J 105      59.607  58.322 -13.017  1.00  9.44 LIG 0.18  C 
BRANCH 31 32
ATOM     32  CB  ILE J 105      58.960  57.338 -13.985  1.00  9.59 LIG 0.01  C 
ATOM     33  CG2 ILE J 105      59.724  56.066 -13.962  1.00  7.65 LIG 0.01  C 
BRANCH 32 34
ATOM     34  CG1 ILE J 105      57.490  57.114 -13.673  1.00  8.07 LIG 0.00  C 
ATOM     35  CD1 ILE J 105      57.231  55.729 -13.212  1.00 10.10 LIG 0.01  C 
ENDBRANCH 32 34
ENDBRANCH 31 32
BRANCH 31 36
ATOM     36  C   ILE J 105      59.969  59.625 -13.715  1.00 12.77 LIG 0.24  C 
ATOM     37  N   ALA J 106      61.191  59.647 -14.254  1.00 12.70 LIG-0.34  N 
ATOM     38 H    ALA J 106      61.716  58.969 -14.189  1.00 12.70 LIG 0.16  HD
ATOM     39 O    ILE J 105      59.194  60.576 -13.687  1.00 10.65 LIG-0.27  OA
BRANCH 37 40
ATOM     40  CA  ALA J 106      61.807  60.734 -14.992  1.00 16.79 LIG 0.18  C 
ATOM     41  CB  ALA J 106      63.258  60.416 -15.390  1.00 18.33 LIG 0.04  C 
BRANCH 40 42
ATOM     42  C   ALA J 106      60.984  61.216 -16.173  1.00 17.57 LIG 0.20  C 
ATOM     43 O    ALA J 106      60.053  60.459 -16.540  1.00 21.44 LIG-0.65  OA
ATOM     44 OXT  ALA J 106      61.237  62.331 -16.688  1.00 20.61 LIG-0.65  OA
ENDBRANCH 40 42
ENDBRANCH 37 40
ENDBRANCH 31 36
ENDBRANCH 29 31
ENDBRANCH 4 27
TORSDOF 14
ENDMDL
MODEL 13
USER: ADFR SOLUTION from run 104
USER: SCORE 14.181546 LL:  -2.863 LR: -12.508 RR:   0.000 FEB:  -8.332
USER: RMSD 5.627568
USER: SEED 103
USER: STATUS no improvement in best in 12 clusters for 5 generations
USER: GENES 16
USER: genes 0 Translation |==|  0.43935 0.70413 0.66242
USER: genes 1 Rotation |==|  0.64415 0.56870 0.47747 0.97328
USER: genes 2 Torsion [N]-C--CA-[N] |==|  0.51062
USER: genes 3 Torsion [C]-CA--N-[C] |==|  0.34024
USER: genes 4 Torsion [N]-C--CA-[N] |==|  0.89012
USER: genes 5 Torsion [C]-CA--N-[C] |==|  0.59444
USER: genes 6 Torsion [N]-C--CA-[N] |==|  0.85554
USER: genes 7 Torsion [C]-CA--CB-[CG] |==|  0.30085
USER: genes 8 Torsion [CA]-CB--CG-[ND1] |==|  0.17495
USER: genes 9 Torsion [N]-CA--C-[O] |==|  0.82041
USER: genes 10 Torsion [C]-N--CA-[C] |==|  0.59064
USER: genes 11 Torsion [N]-CA--CB-[CG1] |==|  0.01871
USER: genes 12 Torsion [CA]-CB--CG1-[CD1] |==|  0.23521
USER: genes 13 Torsion [N]-CA--C-[N] |==|  0.40678
USER: genes 14 Torsion [C]-N--CA-[CB] |==|  0.39783
USER: genes 15 Torsion [N]-CA--C-[O] |==|  0.39117
ROOT
ATOM      1  C   GLY J 103      56.062  57.008  -9.883  1.00 12.08 LIG 0.24  C 
ATOM      2 O    GLY J 103      55.804  57.839 -10.810  1.00  8.68 LIG-0.27  OA
ATOM      3  N   PRO J 104      57.277  56.925  -9.319  1.00 11.63 LIG-0.34  N 
ATOM      4  CA  PRO J 104      58.375  57.844  -9.638  1.00 13.37 LIG 0.18  C 
ATOM      5  CB  PRO J 104      59.394  57.517  -8.541  1.00 10.19 LIG 0.04  C 
ATOM      6  CG  PRO J 104      59.257  56.004  -8.438  1.00 11.82 LIG 0.02  C 
ATOM      7  CD  PRO J 104      57.727  55.848  -8.416  1.00  8.53 LIG 0.13  C 
ENDROOT
BRANCH 1 8
ATOM      8  CA  GLY J 103      55.079  55.960  -9.398  1.00  6.72 LIG 0.23  C 
BRANCH 8 9
ATOM      9  N   GLY J 103      53.779  55.935 -10.022  1.00  9.69 LIG-0.35  N 
ATOM     10  C   ALA J 102      53.325  54.845 -10.623  1.00  5.22 LIG 0.24  C 
ATOM     11 O    ALA J 102      53.969  53.802 -10.688  1.00 12.11 LIG-0.27  OA
ATOM     12 H    GLY J 103      53.342  56.674  -9.967  1.00  9.69 LIG 0.16  HD
BRANCH 10 13
ATOM     13  CA  ALA J 102      51.914  54.956 -11.226  1.00  8.22 LIG 0.17  C 
ATOM     14  CB  ALA J 102      51.988  55.586 -12.634  1.00 14.95 LIG 0.04  C 
BRANCH 13 15
ATOM     15  N   ALA J 102      50.962  55.696 -10.426  1.00  4.21 LIG-0.35  N 
ATOM     16  C   HIS J 101      49.664  55.396 -10.371  1.00  9.96 LIG 0.26  C 
ATOM     17 O    HIS J 101      49.159  54.457 -11.007  1.00  8.34 LIG-0.27  OA
ATOM     18 H    ALA J 102      51.312  56.350  -9.990  1.00  4.21 LIG 0.16  HD
BRANCH 16 19
ATOM     19  CA  HIS J 101      48.812  56.322  -9.461  1.00  9.34 LIG 0.41  C 
ATOM     20  N   HIS J 101      49.340  56.489  -8.064  1.00 12.44 LIG 0.61  N 
BRANCH 19 21
ATOM     21  CB  HIS J 101      48.607  57.683 -10.131  1.00 10.29 LIG 0.11  C 
BRANCH 21 22
ATOM     22  CG  HIS J 101      47.215  57.902 -10.618  1.00 11.59 LIG 0.06  A 
ATOM     23  CD2 HIS J 101      46.720  58.041 -11.868  1.00 10.25 LIG 0.14  A 
ATOM     24 NE2  HIS J 101      45.356  58.150 -11.756  1.00 11.46 LIG-0.25  NA
ATOM     25  CE1 HIS J 101      45.022  58.092 -10.482  1.00 15.99 LIG 0.23  A 
ATOM     26 ND1  HIS J 101      46.128  57.946  -9.771  1.00 17.50 LIG-0.24  NA
ENDBRANCH 21 22
ENDBRANCH 19 21
ENDBRANCH 16 19
ENDBRANCH 13 15
ENDBRANCH 10 13
ENDBRANCH 8 9
ENDBRANCH 1 8
BRANCH 4 27
ATOM     27  C   PRO J 104      58.975  57.636 -11.043  1.00  7.89 LIG 0.24  C 
ATOM     28 O    PRO J 104      59.559  56.588 -11.341  1.00  6.40 LIG-0.27  OA
ATOM     29  N   ILE J 105      58.793  58.623 -11.923  1.00 10.49 LIG-0.35  N 
ATOM     30 H    ILE J 105      58.337  59.338 -11.779  1.00 10.49 LIG 0.16  HD
BRANCH 29 31
ATOM     31  CA  ILE J 105      59.399  58.520 -13.247  1.00  9.44 LIG 0.18  C 
BRANCH 31 32
ATOM     32  CB  ILE J 105      58.569  57.711 -14.237  1.00  9.59 LIG 0.01  C 
ATOM     33  CG2 ILE J 105      59.345  56.514 -14.651  1.00  7.65 LIG 0.01  C 
BRANCH 32 34
ATOM     34  CG1 ILE J 105      57.214  57.329 -13.669  1.00  8.07 LIG 0.00  C 
ATOM     35  CD1 ILE J 105      56.216  58.410 -13.852  1.00 10.10 LIG 0.01  C 
ENDBRANCH 32 34
ENDBRANCH 31 32
BRANCH 31 36
ATOM     36  C   ILE J 105      59.816  59.857 -13.840  1.00 12.77 LIG 0.24  C 
ATOM     37  N   ALA J 106      60.910  59.812 -14.604  1.00 12.70 LIG-0.34  N 
ATOM     38 H    ALA J 106      61.334  59.074 -14.726  1.00 12.70 LIG 0.16  HD
ATOM     39 O    ILE J 105      59.206  60.881 -13.544  1.00 10.65 LIG-0.27  OA
BRANCH 37 40
ATOM     40  CA  ALA J 106      61.536  60.913 -15.312  1.00 16.79 LIG 0.18  C 
ATOM     41  CB  ALA J 106      63.070  60.809 -15.308  1.00 18.33 LIG 0.04  C 
BRANCH 40 42
ATOM     42  C   ALA J 106      60.983  61.135 -16.708  1.00 17.57 LIG 0.20  C 
ATOM     43 O    ALA J 106      60.847  62.331 -17.062  1.00 21.44 LIG-0.65  OA
ATOM     44 OXT  ALA J 106      60.731  60.146 -17.437  1.00 20.61 LIG-0.65  OA
ENDBRANCH 40 42
ENDBRANCH 37 40
ENDBRANCH 31 36
ENDBRANCH 29 31
ENDBRANCH 4 27
TORSDOF 14
ENDMDL
MODEL 14
USER: ADFR SOLUTION from run 137
USER: SCORE 14.691983 LL:  -2.864 LR: -12.486 RR:   0.000 FEB:  -8.310
USER: RMSD 4.160288
USER: SEED 136
USER: STATUS no improvement in best in 8 clusters for 5 generations
USER: GENES 16
USER: genes 0 Translation |==|  0.45591 0.70157 0.63897
USER: genes 1 Rotation |==|  0.64835 0.53758 0.52125 0.97553
USER: genes 2 Torsion [N]-C--CA-[N] |==|  0.42581
USER: genes 3 Torsion [C]-CA--N-[C] |==|  0.41441
USER: genes 4 Torsion [N]-C--CA-[N] |==|  0.42756
USER: genes 5 Torsion [C]-CA--N-[C] |==|  0.77436
USER: genes 6 Torsion [N]-C--CA-[N] |==|  0.91434
USER: genes 7 Torsion [C]-CA--CB-[CG] |==|  0.79147
USER: genes 8 Torsion [CA]-CB--CG-[ND1] |==|  0.63354
USER: genes 9 Torsion [N]-CA--C-[O] |==|  0.80558
USER: genes 10 Torsion [C]-N--CA-[C] |==|  0.57047
USER: genes 11 Torsion [N]-CA--CB-[CG1] |==|  0.05759
USER: genes 12 Torsion [CA]-CB--CG1-[CD1] |==|  0.19264
USER: genes 13 Torsion [N]-CA--C-[N] |==|  0.42263
USER: genes 14 Torsion [C]-N--CA-[CB] |==|  0.35549
USER: genes 15 Torsion [N]-CA--C-[O] |==|  0.83346
ROOT
ATOM      1  C   GLY J 103      56.485  56.962 -10.270  1.00 12.08 LIG 0.24  C 
ATOM      2 O    GLY J 103      56.279  57.793 -11.210  1.00  8.68 LIG-0.27  OA
ATOM      3  N   PRO J 104      57.588  57.006  -9.508  1.00 11.63 LIG-0.34  N 
ATOM      4  CA  PRO J 104      58.596  58.069  -9.615  1.00 13.37 LIG 0.18  C 
ATOM      5  CB  PRO J 104      59.450  57.824  -8.366  1.00 10.19 LIG 0.04  C 
ATOM      6  CG  PRO J 104      59.496  56.303  -8.320  1.00 11.82 LIG 0.02  C 
ATOM      7  CD  PRO J 104      58.017  55.956  -8.564  1.00  8.53 LIG 0.13  C 
ENDROOT
BRANCH 1 8
ATOM      8  CA  GLY J 103      55.578  55.780  -9.982  1.00  6.72 LIG 0.23  C 
BRANCH 8 9
ATOM      9  N   GLY J 103      54.175  55.937 -10.275  1.00  9.69 LIG-0.35  N 
ATOM     10  C   ALA J 102      53.429  54.905 -10.643  1.00  5.22 LIG 0.24  C 
ATOM     11 O    ALA J 102      53.876  53.767 -10.758  1.00 12.11 LIG-0.27  OA
ATOM     12 H    GLY J 103      53.880  56.740 -10.190  1.00  9.69 LIG 0.16  HD
BRANCH 10 13
ATOM     13  CA  ALA J 102      51.945  55.215 -10.902  1.00  8.22 LIG 0.17  C 
ATOM     14  CB  ALA J 102      51.167  55.230  -9.567  1.00 14.95 LIG 0.04  C 
BRANCH 13 15
ATOM     15  N   ALA J 102      51.283  54.319 -11.825  1.00  4.21 LIG-0.35  N 
ATOM     16  C   HIS J 101      51.376  54.435 -13.150  1.00  9.96 LIG 0.26  C 
ATOM     17 O    HIS J 101      52.037  55.327 -13.706  1.00  8.34 LIG-0.27  OA
ATOM     18 H    ALA J 102      50.822  53.704 -11.439  1.00  4.21 LIG 0.16  HD
BRANCH 16 19
ATOM     19  CA  HIS J 101      50.581  53.377 -13.962  1.00  9.34 LIG 0.41  C 
ATOM     20  N   HIS J 101      50.445  52.041 -13.289  1.00 12.44 LIG 0.61  N 
BRANCH 19 21
ATOM     21  CB  HIS J 101      49.208  53.930 -14.353  1.00 10.29 LIG 0.11  C 
BRANCH 21 22
ATOM     22  CG  HIS J 101      48.240  53.972 -13.220  1.00 11.59 LIG 0.06  A 
ATOM     23  CD2 HIS J 101      48.348  54.481 -11.972  1.00 10.25 LIG 0.14  A 
ATOM     24 NE2  HIS J 101      47.133  54.313 -11.357  1.00 11.46 LIG-0.25  NA
ATOM     25  CE1 HIS J 101      46.306  53.713 -12.191  1.00 15.99 LIG 0.23  A 
ATOM     26 ND1  HIS J 101      46.951  53.491 -13.324  1.00 17.50 LIG-0.24  NA
ENDBRANCH 21 22
ENDBRANCH 19 21
ENDBRANCH 16 19
ENDBRANCH 13 15
ENDBRANCH 10 13
ENDBRANCH 8 9
ENDBRANCH 1 8
BRANCH 4 27
ATOM     27  C   PRO J 104      59.444  57.996 -10.901  1.00  7.89 LIG 0.24  C 
ATOM     28 O    PRO J 104      60.272  57.094 -11.072  1.00  6.40 LIG-0.27  OA
ATOM     29  N   ILE J 105      59.206  58.928 -11.827  1.00 10.49 LIG-0.35  N 
ATOM     30 H    ILE J 105      58.595  59.531 -11.777  1.00 10.49 LIG 0.16  HD
BRANCH 29 31
ATOM     31  CA  ILE J 105      60.025  58.959 -13.034  1.00  9.44 LIG 0.18  C 
BRANCH 31 32
ATOM     32  CB  ILE J 105      59.661  57.881 -14.048  1.00  9.59 LIG 0.01  C 
ATOM     33  CG2 ILE J 105      60.672  56.795 -13.980  1.00  7.65 LIG 0.01  C 
BRANCH 32 34
ATOM     34  CG1 ILE J 105      58.254  57.349 -13.836  1.00  8.07 LIG 0.00  C 
ATOM     35  CD1 ILE J 105      57.226  58.362 -14.178  1.00 10.10 LIG 0.01  C 
ENDBRANCH 32 34
ENDBRANCH 31 32
BRANCH 31 36
ATOM     36  C   ILE J 105      60.103  60.330 -13.690  1.00 12.77 LIG 0.24  C 
ATOM     37  N   ALA J 106      61.223  60.553 -14.384  1.00 12.70 LIG-0.34  N 
ATOM     38 H    ALA J 106      61.841  59.956 -14.430  1.00 12.70 LIG 0.16  HD
ATOM     39 O    ILE J 105      59.216  61.157 -13.501  1.00 10.65 LIG-0.27  OA
BRANCH 37 40
ATOM     40  CA  ALA J 106      61.574  61.749 -15.127  1.00 16.79 LIG 0.18  C 
ATOM     41  CB  ALA J 106      62.960  62.289 -14.735  1.00 18.33 LIG 0.04  C 
BRANCH 40 42
ATOM     42  C   ALA J 106      61.423  61.601 -16.630  1.00 17.57 LIG 0.20  C 
ATOM     43 O    ALA J 106      62.117  60.705 -17.167  1.00 21.44 LIG-0.65  OA
ATOM     44 OXT  ALA J 106      60.609  62.331 -17.243  1.00 20.61 LIG-0.65  OA
ENDBRANCH 40 42
ENDBRANCH 37 40
ENDBRANCH 31 36
ENDBRANCH 29 31
ENDBRANCH 4 27
TORSDOF 14
ENDMDL
MODEL 15
USER: ADFR SOLUTION from run 138
USER: SCORE 14.876732 LL:  -3.552 LR: -12.460 RR:   0.000 FEB:  -8.284
USER: RMSD 5.265605
USER: SEED 137
USER: STATUS no improvement in best in 14 clusters for 5 generations
USER: GENES 16
USER: genes 0 Translation |==|  0.28422 0.60909 0.68103
USER: genes 1 Rotation |==|  0.02302 0.40217 0.61290 0.51326
USER: genes 2 Torsion [N]-C--CA-[N] |==|  0.13201
USER: genes 3 Torsion [C]-CA--N-[C] |==|  0.58889
USER: genes 4 Torsion [N]-C--CA-[N] |==|  0.97756
USER: genes 5 Torsion [C]-CA--N-[C] |==|  0.77772
USER: genes 6 Torsion [N]-C--CA-[N] |==|  0.25255
USER: genes 7 Torsion [C]-CA--CB-[CG] |==|  0.24632
USER: genes 8 Torsion [CA]-CB--CG-[ND1] |==|  0.36630
USER: genes 9 Torsion [N]-CA--C-[O] |==|  0.04643
USER: genes 10 Torsion [C]-N--CA-[C] |==|  0.56472
USER: genes 11 Torsion [N]-CA--CB-[CG1] |==|  0.42905
USER: genes 12 Torsion [CA]-CB--CG1-[CD1] |==|  0.66316
USER: genes 13 Torsion [N]-CA--C-[N] |==|  0.34010
USER: genes 14 Torsion [C]-N--CA-[CB] |==|  0.09484
USER: genes 15 Torsion [N]-CA--C-[O] |==|  0.53272
ROOT
ATOM      1  C   GLY J 103      52.107  55.298  -9.576  1.00 12.08 LIG 0.24  C 
ATOM      2 O    GLY J 103      52.728  55.210  -8.471  1.00  8.68 LIG-0.27  OA
ATOM      3  N   PRO J 104      52.742  55.257 -10.757  1.00 11.63 LIG-0.34  N 
ATOM      4  CA  PRO J 104      54.182  55.001 -10.886  1.00 13.37 LIG 0.18  C 
ATOM      5  CB  PRO J 104      54.329  54.765 -12.393  1.00 10.19 LIG 0.04  C 
ATOM      6  CG  PRO J 104      53.369  55.800 -12.961  1.00 11.82 LIG 0.02  C 
ATOM      7  CD  PRO J 104      52.138  55.584 -12.063  1.00  8.53 LIG 0.13  C 
ENDROOT
BRANCH 1 8
ATOM      8  CA  GLY J 103      50.617  55.568  -9.681  1.00  6.72 LIG 0.23  C 
BRANCH 8 9
ATOM      9  N   GLY J 103      49.873  54.797 -10.646  1.00  9.69 LIG-0.35  N 
ATOM     10  C   ALA J 102      48.818  55.306 -11.266  1.00  5.22 LIG 0.24  C 
ATOM     11 O    ALA J 102      48.411  56.446 -11.064  1.00 12.11 LIG-0.27  OA
ATOM     12 H    GLY J 103      50.171  54.001 -10.774  1.00  9.69 LIG 0.16  HD
BRANCH 10 13
ATOM     13  CA  ALA J 102      48.134  54.379 -12.285  1.00  8.22 LIG 0.17  C 
ATOM     14  CB  ALA J 102      46.700  54.045 -11.817  1.00 14.95 LIG 0.04  C 
BRANCH 13 15
ATOM     15  N   ALA J 102      48.839  53.146 -12.563  1.00  4.21 LIG-0.35  N 
ATOM     16  C   HIS J 101      49.878  53.070 -13.395  1.00  9.96 LIG 0.26  C 
ATOM     17 O    HIS J 101      50.327  54.052 -14.009  1.00  8.34 LIG-0.27  OA
ATOM     18 H    ALA J 102      48.525  52.466 -12.141  1.00  4.21 LIG 0.16  HD
BRANCH 16 19
ATOM     19  CA  HIS J 101      50.487  51.651 -13.561  1.00  9.34 LIG 0.41  C 
ATOM     20  N   HIS J 101      49.898  50.843 -14.682  1.00 12.44 LIG 0.61  N 
BRANCH 19 21
ATOM     21  CB  HIS J 101      52.009  51.740 -13.696  1.00 10.29 LIG 0.11  C 
BRANCH 21 22
ATOM     22  CG  HIS J 101      52.726  51.702 -12.389  1.00 11.59 LIG 0.06  A 
ATOM     23  CD2 HIS J 101      52.490  52.345 -11.224  1.00 10.25 LIG 0.14  A 
ATOM     24 NE2  HIS J 101      53.414  51.893 -10.315  1.00 11.46 LIG-0.25  NA
ATOM     25  CE1 HIS J 101      54.199  51.010 -10.901  1.00 15.99 LIG 0.23  A 
ATOM     26 ND1  HIS J 101      53.808  50.878 -12.157  1.00 17.50 LIG-0.24  NA
ENDBRANCH 21 22
ENDBRANCH 19 21
ENDBRANCH 16 19
ENDBRANCH 13 15
ENDBRANCH 10 13
ENDBRANCH 8 9
ENDBRANCH 1 8
BRANCH 4 27
ATOM     27  C   PRO J 104      55.068  56.170 -10.409  1.00  7.89 LIG 0.24  C 
ATOM     28 O    PRO J 104      54.611  57.070  -9.696  1.00  6.40 LIG-0.27  OA
ATOM     29  N   ILE J 105      56.351  56.133 -10.772  1.00 10.49 LIG-0.35  N 
ATOM     30 H    ILE J 105      56.724  55.493 -11.210  1.00 10.49 LIG 0.16  HD
BRANCH 29 31
ATOM     31  CA  ILE J 105      57.226  57.246 -10.416  1.00  9.44 LIG 0.18  C 
BRANCH 31 32
ATOM     32  CB  ILE J 105      57.615  57.271  -8.943  1.00  9.59 LIG 0.01  C 
ATOM     33  CG2 ILE J 105      57.652  55.878  -8.430  1.00  7.65 LIG 0.01  C 
BRANCH 32 34
ATOM     34  CG1 ILE J 105      58.935  57.987  -8.713  1.00  8.07 LIG 0.00  C 
ATOM     35  CD1 ILE J 105      59.933  57.104  -8.063  1.00 10.10 LIG 0.01  C 
ENDBRANCH 32 34
ENDBRANCH 31 32
BRANCH 31 36
ATOM     36  C   ILE J 105      58.449  57.380 -11.312  1.00 12.77 LIG 0.24  C 
ATOM     37  N   ALA J 106      58.565  58.561 -11.924  1.00 12.70 LIG-0.34  N 
ATOM     38 H    ALA J 106      57.975  59.177 -11.813  1.00 12.70 LIG 0.16  HD
ATOM     39 O    ILE J 105      59.195  56.421 -11.484  1.00 10.65 LIG-0.27  OA
BRANCH 37 40
ATOM     40  CA  ALA J 106      59.624  58.988 -12.819  1.00 16.79 LIG 0.18  C 
ATOM     41  CB  ALA J 106      60.163  57.829 -13.675  1.00 18.33 LIG 0.04  C 
BRANCH 40 42
ATOM     42  C   ALA J 106      59.263  60.198 -13.661  1.00 17.57 LIG 0.20  C 
ATOM     43 O    ALA J 106      60.046  60.466 -14.604  1.00 21.44 LIG-0.65  OA
ATOM     44 OXT  ALA J 106      58.212  60.835 -13.409  1.00 20.61 LIG-0.65  OA
ENDBRANCH 40 42
ENDBRANCH 37 40
ENDBRANCH 31 36
ENDBRANCH 29 31
ENDBRANCH 4 27
TORSDOF 14
ENDMDL
MODEL 16
USER: ADFR SOLUTION from run 117
USER: SCORE 14.640145 LL:  -2.959 LR: -12.443 RR:   0.000 FEB:  -8.267
USER: RMSD 4.345425
USER: SEED 116
USER: STATUS no improvement in best in 15 clusters for 5 generations
USER: GENES 16
USER: genes 0 Translation |==|  0.45857 0.71017 0.63852
USER: genes 1 Rotation |==|  0.56078 0.48341 0.43982 0.99235
USER: genes 2 Torsion [N]-C--CA-[N] |==|  0.53322
USER: genes 3 Torsion [C]-CA--N-[C] |==|  0.30493
USER: genes 4 Torsion [N]-C--CA-[N] |==|  0.82276
USER: genes 5 Torsion [C]-CA--N-[C] |==|  0.83716
USER: genes 6 Torsion [N]-C--CA-[N] |==|  0.35416
USER: genes 7 Torsion [C]-CA--CB-[CG] |==|  0.60363
USER: genes 8 Torsion [CA]-CB--CG-[ND1] |==|  0.87340
USER: genes 9 Torsion [N]-CA--C-[O] |==|  0.89040
USER: genes 10 Torsion [C]-N--CA-[C] |==|  0.62007
USER: genes 11 Torsion [N]-CA--CB-[CG1] |==|  0.01091
USER: genes 12 Torsion [CA]-CB--CG1-[CD1] |==|  0.71016
USER: genes 13 Torsion [N]-CA--C-[N] |==|  0.46505
USER: genes 14 Torsion [C]-N--CA-[CB] |==|  0.86983
USER: genes 15 Torsion [N]-CA--C-[O] |==|  0.55866
ROOT
ATOM      1  C   GLY J 103      56.552  57.117 -10.277  1.00 12.08 LIG 0.24  C 
ATOM      2 O    GLY J 103      56.718  57.549 -11.461  1.00  8.68 LIG-0.27  OA
ATOM      3  N   PRO J 104      57.549  57.096  -9.379  1.00 11.63 LIG-0.34  N 
ATOM      4  CA  PRO J 104      58.877  57.664  -9.641  1.00 13.37 LIG 0.18  C 
ATOM      5  CB  PRO J 104      59.508  57.655  -8.244  1.00 10.19 LIG 0.04  C 
ATOM      6  CG  PRO J 104      58.997  56.333  -7.686  1.00 11.82 LIG 0.02  C 
ATOM      7  CD  PRO J 104      57.510  56.405  -8.077  1.00  8.53 LIG 0.13  C 
ENDROOT
BRANCH 1 8
ATOM      8  CA  GLY J 103      55.264  56.481  -9.790  1.00  6.72 LIG 0.23  C 
BRANCH 8 9
ATOM      9  N   GLY J 103      54.240  56.227 -10.773  1.00  9.69 LIG-0.35  N 
ATOM     10  C   ALA J 102      53.936  54.991 -11.146  1.00  5.22 LIG 0.24  C 
ATOM     11 O    ALA J 102      54.497  54.000 -10.688  1.00 12.11 LIG-0.27  OA
ATOM     12 H    GLY J 103      53.859  56.932 -11.083  1.00  9.69 LIG 0.16  HD
BRANCH 10 13
ATOM     13  CA  ALA J 102      52.810  54.868 -12.186  1.00  8.22 LIG 0.17  C 
ATOM     14  CB  ALA J 102      53.198  55.622 -13.478  1.00 14.95 LIG 0.04  C 
BRANCH 13 15
ATOM     15  N   ALA J 102      51.512  55.328 -11.742  1.00  4.21 LIG-0.35  N 
ATOM     16  C   HIS J 101      50.882  54.825 -10.681  1.00  9.96 LIG 0.26  C 
ATOM     17 O    HIS J 101      51.353  53.911  -9.984  1.00  8.34 LIG-0.27  OA
ATOM     18 H    ALA J 102      51.184  55.958 -12.228  1.00  4.21 LIG 0.16  HD
BRANCH 16 19
ATOM     19  CA  HIS J 101      49.493  55.452 -10.380  1.00  9.34 LIG 0.41  C 
ATOM     20  N   HIS J 101      48.374  54.460 -10.235  1.00 12.44 LIG 0.61  N 
BRANCH 19 21
ATOM     21  CB  HIS J 101      49.577  56.360  -9.150  1.00 10.29 LIG 0.11  C 
BRANCH 21 22
ATOM     22  CG  HIS J 101      48.366  56.299  -8.282  1.00 11.59 LIG 0.06  A 
ATOM     23  CD2 HIS J 101      48.234  56.244  -6.938  1.00 10.25 LIG 0.14  A 
ATOM     24 NE2  HIS J 101      46.891  56.273  -6.659  1.00 11.46 LIG-0.25  NA
ATOM     25  CE1 HIS J 101      46.216  56.334  -7.791  1.00 15.99 LIG 0.23  A 
ATOM     26 ND1  HIS J 101      47.084  56.347  -8.789  1.00 17.50 LIG-0.24  NA
ENDBRANCH 21 22
ENDBRANCH 19 21
ENDBRANCH 16 19
ENDBRANCH 13 15
ENDBRANCH 10 13
ENDBRANCH 8 9
ENDBRANCH 1 8
BRANCH 4 27
ATOM     27  C   PRO J 104      59.717  56.848 -10.644  1.00  7.89 LIG 0.24  C 
ATOM     28 O    PRO J 104      59.709  55.612 -10.629  1.00  6.40 LIG-0.27  OA
ATOM     29  N   ILE J 105      60.413  57.545 -11.546  1.00 10.49 LIG-0.35  N 
ATOM     30 H    ILE J 105      60.394  58.400 -11.633  1.00 10.49 LIG 0.16  HD
BRANCH 29 31
ATOM     31  CA  ILE J 105      61.286  56.835 -12.475  1.00  9.44 LIG 0.18  C 
BRANCH 31 32
ATOM     32  CB  ILE J 105      60.626  56.516 -13.812  1.00  9.59 LIG 0.01  C 
ATOM     33  CG2 ILE J 105      60.620  55.045 -14.008  1.00  7.65 LIG 0.01  C 
BRANCH 32 34
ATOM     34  CG1 ILE J 105      59.226  57.098 -13.910  1.00  8.07 LIG 0.00  C 
ATOM     35  CD1 ILE J 105      58.184  56.057 -13.743  1.00 10.10 LIG 0.01  C 
ENDBRANCH 32 34
ENDBRANCH 31 32
BRANCH 31 36
ATOM     36  C   ILE J 105      62.642  57.496 -12.674  1.00 12.77 LIG 0.24  C 
ATOM     37  N   ALA J 106      63.544  56.739 -13.303  1.00 12.70 LIG-0.34  N 
ATOM     38 H    ALA J 106      63.352  55.939 -13.556  1.00 12.70 LIG 0.16  HD
ATOM     39 O    ILE J 105      62.861  58.609 -12.204  1.00 10.65 LIG-0.27  OA
BRANCH 37 40
ATOM     40  CA  ALA J 106      64.907  57.098 -13.648  1.00 16.79 LIG 0.18  C 
ATOM     41  CB  ALA J 106      64.994  58.488 -14.301  1.00 18.33 LIG 0.04  C 
BRANCH 40 42
ATOM     42  C   ALA J 106      65.889  56.944 -12.502  1.00 17.57 LIG 0.20  C 
ATOM     43 O    ALA J 106      66.953  57.603 -12.596  1.00 21.44 LIG-0.65  OA
ATOM     44 OXT  ALA J 106      65.588  56.219 -11.523  1.00 20.61 LIG-0.65  OA
ENDBRANCH 40 42
ENDBRANCH 37 40
ENDBRANCH 31 36
ENDBRANCH 29 31
ENDBRANCH 4 27
TORSDOF 14
ENDMDL
MODEL 17
USER: ADFR SOLUTION from run 91
USER: SCORE 15.118080 LL:  -3.252 LR: -12.418 RR:   0.000 FEB:  -8.241
USER: RMSD 2.645111
USER: SEED 90
USER: STATUS no improvement in best in 10 clusters for 5 generations
USER: GENES 16
USER: genes 0 Translation |==|  0.42936 0.70275 0.65372
USER: genes 1 Rotation |==|  0.62801 0.54278 0.48151 0.98108
USER: genes 2 Torsion [N]-C--CA-[N] |==|  0.49907
USER: genes 3 Torsion [C]-CA--N-[C] |==|  0.57920
USER: genes 4 Torsion [N]-C--CA-[N] |==|  0.23973
USER: genes 5 Torsion [C]-CA--N-[C] |==|  0.75027
USER: genes 6 Torsion [N]-C--CA-[N] |==|  0.41299
USER: genes 7 Torsion [C]-CA--CB-[CG] |==|  0.97799
USER: genes 8 Torsion [CA]-CB--CG-[ND1] |==|  0.78421
USER: genes 9 Torsion [N]-CA--C-[O] |==|  0.86898
USER: genes 10 Torsion [C]-N--CA-[C] |==|  0.83790
USER: genes 11 Torsion [N]-CA--CB-[CG1] |==|  0.33135
USER: genes 12 Torsion [CA]-CB--CG1-[CD1] |==|  0.61578
USER: genes 13 Torsion [N]-CA--C-[N] |==|  0.37802
USER: genes 14 Torsion [C]-N--CA-[CB] |==|  0.92403
USER: genes 15 Torsion [N]-CA--C-[O] |==|  0.97131
ROOT
ATOM      1  C   GLY J 103      55.808  56.984 -10.027  1.00 12.08 LIG 0.24  C 
ATOM      2 O    GLY J 103      55.653  57.745 -11.033  1.00  8.68 LIG-0.27  OA
ATOM      3  N   PRO J 104      56.956  56.940  -9.335  1.00 11.63 LIG-0.34  N 
ATOM      4  CA  PRO J 104      58.089  57.834  -9.603  1.00 13.37 LIG 0.18  C 
ATOM      5  CB  PRO J 104      58.986  57.586  -8.385  1.00 10.19 LIG 0.04  C 
ATOM      6  CG  PRO J 104      58.827  56.085  -8.188  1.00 11.82 LIG 0.02  C 
ATOM      7  CD  PRO J 104      57.301  55.931  -8.315  1.00  8.53 LIG 0.13  C 
ENDROOT
BRANCH 1 8
ATOM      8  CA  GLY J 103      54.770  55.974  -9.572  1.00  6.72 LIG 0.23  C 
BRANCH 8 9
ATOM      9  N   GLY J 103      53.506  55.968 -10.266  1.00  9.69 LIG-0.35  N 
ATOM     10  C   ALA J 102      52.392  55.581  -9.662  1.00  5.22 LIG 0.24  C 
ATOM     11 O    ALA J 102      52.362  55.209  -8.493  1.00 12.11 LIG-0.27  OA
ATOM     12 H    GLY J 103      53.547  56.231 -11.084  1.00  9.69 LIG 0.16  HD
BRANCH 10 13
ATOM     13  CA  ALA J 102      51.115  55.647 -10.517  1.00  8.22 LIG 0.17  C 
ATOM     14  CB  ALA J 102      49.889  55.918  -9.617  1.00 14.95 LIG 0.04  C 
BRANCH 13 15
ATOM     15  N   ALA J 102      50.857  54.475 -11.326  1.00  4.21 LIG-0.35  N 
ATOM     16  C   HIS J 101      51.312  54.332 -12.571  1.00  9.96 LIG 0.26  C 
ATOM     17 O    HIS J 101      51.993  55.197 -13.147  1.00  8.34 LIG-0.27  OA
ATOM     18 H    ALA J 102      50.382  53.878 -10.928  1.00  4.21 LIG 0.16  HD
BRANCH 16 19
ATOM     19  CA  HIS J 101      50.915  53.003 -13.269  1.00  9.34 LIG 0.41  C 
ATOM     20  N   HIS J 101      50.745  53.102 -14.759  1.00 12.44 LIG 0.61  N 
BRANCH 19 21
ATOM     21  CB  HIS J 101      51.910  51.897 -12.909  1.00 10.29 LIG 0.11  C 
BRANCH 21 22
ATOM     22  CG  HIS J 101      53.096  52.388 -12.150  1.00 11.59 LIG 0.06  A 
ATOM     23  CD2 HIS J 101      53.426  52.282 -10.844  1.00 10.25 LIG 0.14  A 
ATOM     24 NE2  HIS J 101      54.664  52.853 -10.688  1.00 11.46 LIG-0.25  NA
ATOM     25  CE1 HIS J 101      55.080  53.306 -11.855  1.00 15.99 LIG 0.23  A 
ATOM     26 ND1  HIS J 101      54.149  53.041 -12.756  1.00 17.50 LIG-0.24  NA
ENDBRANCH 21 22
ENDBRANCH 19 21
ENDBRANCH 16 19
ENDBRANCH 13 15
ENDBRANCH 10 13
ENDBRANCH 8 9
ENDBRANCH 1 8
BRANCH 4 27
ATOM     27  C   PRO J 104      58.830  57.524 -10.920  1.00  7.89 LIG 0.24  C 
ATOM     28 O    PRO J 104      59.155  56.368 -11.214  1.00  6.40 LIG-0.27  OA
ATOM     29  N   ILE J 105      59.059  58.556 -11.733  1.00 10.49 LIG-0.35  N 
ATOM     30 H    ILE J 105      58.792  59.363 -11.599  1.00 10.49 LIG 0.16  HD
BRANCH 29 31
ATOM     31  CA  ILE J 105      59.821  58.342 -12.960  1.00  9.44 LIG 0.18  C 
BRANCH 31 32
ATOM     32  CB  ILE J 105      59.861  59.560 -13.876  1.00  9.59 LIG 0.01  C 
ATOM     33  CG2 ILE J 105      58.997  60.623 -13.302  1.00  7.65 LIG 0.01  C 
BRANCH 32 34
ATOM     34  CG1 ILE J 105      61.278  60.056 -14.105  1.00  8.07 LIG 0.00  C 
ATOM     35  CD1 ILE J 105      61.357  61.536 -14.063  1.00 10.10 LIG 0.01  C 
ENDBRANCH 32 34
ENDBRANCH 31 32
BRANCH 31 36
ATOM     36  C   ILE J 105      61.216  57.780 -12.729  1.00 12.77 LIG 0.24  C 
ATOM     37  N   ALA J 106      61.565  56.795 -13.560  1.00 12.70 LIG-0.34  N 
ATOM     38 H    ALA J 106      61.021  56.511 -14.163  1.00 12.70 LIG 0.16  HD
ATOM     39 O    ILE J 105      61.896  58.182 -11.789  1.00 10.65 LIG-0.27  OA
BRANCH 37 40
ATOM     40  CA  ALA J 106      62.826  56.079 -13.596  1.00 16.79 LIG 0.18  C 
ATOM     41  CB  ALA J 106      63.992  56.931 -13.066  1.00 18.33 LIG 0.04  C 
BRANCH 40 42
ATOM     42  C   ALA J 106      62.773  54.713 -12.938  1.00 17.57 LIG 0.20  C 
ATOM     43 O    ALA J 106      61.735  54.459 -12.281  1.00 21.44 LIG-0.65  OA
ATOM     44 OXT  ALA J 106      63.720  53.908 -13.106  1.00 20.61 LIG-0.65  OA
ENDBRANCH 40 42
ENDBRANCH 37 40
ENDBRANCH 31 36
ENDBRANCH 29 31
ENDBRANCH 4 27
TORSDOF 14
ENDMDL
MODEL 18
USER: ADFR SOLUTION from run 99
USER: SCORE 14.491396 LL:  -3.093 LR: -12.379 RR:   0.000 FEB:  -8.203
USER: RMSD 6.522746
USER: SEED 98
USER: STATUS no improvement in best in 4 clusters for 5 generations
USER: GENES 16
USER: genes 0 Translation |==|  0.29225 0.59932 0.63060
USER: genes 1 Rotation |==|  0.97271 0.57842 0.41103 0.61170
USER: genes 2 Torsion [N]-C--CA-[N] |==|  0.60055
USER: genes 3 Torsion [C]-CA--N-[C] |==|  0.79042
USER: genes 4 Torsion [N]-C--CA-[N] |==|  0.18739
USER: genes 5 Torsion [C]-CA--N-[C] |==|  0.17222
USER: genes 6 Torsion [N]-C--CA-[N] |==|  0.99725
USER: genes 7 Torsion [C]-CA--CB-[CG] |==|  0.91160
USER: genes 8 Torsion [CA]-CB--CG-[ND1] |==|  0.77266
USER: genes 9 Torsion [N]-CA--C-[O] |==|  0.92334
USER: genes 10 Torsion [C]-N--CA-[C] |==|  0.77593
USER: genes 11 Torsion [N]-CA--CB-[CG1] |==|  0.34827
USER: genes 12 Torsion [CA]-CB--CG1-[CD1] |==|  0.51786
USER: genes 13 Torsion [N]-CA--C-[N] |==|  0.36766
USER: genes 14 Torsion [C]-N--CA-[CB] |==|  0.13965
USER: genes 15 Torsion [N]-CA--C-[O] |==|  0.34037
ROOT
ATOM      1  C   GLY J 103      52.311  55.122 -10.408  1.00 12.08 LIG 0.24  C 
ATOM      2 O    GLY J 103      52.715  55.599  -9.301  1.00  8.68 LIG-0.27  OA
ATOM      3  N   PRO J 104      53.156  54.600 -11.311  1.00 11.63 LIG-0.34  N 
ATOM      4  CA  PRO J 104      54.593  54.432 -11.063  1.00 13.37 LIG 0.18  C 
ATOM      5  CB  PRO J 104      55.018  53.548 -12.240  1.00 10.19 LIG 0.04  C 
ATOM      6  CG  PRO J 104      54.186  54.128 -13.375  1.00 11.82 LIG 0.02  C 
ATOM      7  CD  PRO J 104      52.808  54.245 -12.700  1.00  8.53 LIG 0.13  C 
ENDROOT
BRANCH 1 8
ATOM      8  CA  GLY J 103      50.869  55.192 -10.875  1.00  6.72 LIG 0.23  C 
BRANCH 8 9
ATOM      9  N   GLY J 103      50.094  56.333 -10.455  1.00  9.69 LIG-0.35  N 
ATOM     10  C   ALA J 102      49.633  56.434  -9.216  1.00  5.22 LIG 0.24  C 
ATOM     11 O    ALA J 102      49.831  55.577  -8.360  1.00 12.11 LIG-0.27  OA
ATOM     12 H    GLY J 103      49.965  56.923 -11.068  1.00  9.69 LIG 0.16  HD
BRANCH 10 13
ATOM     13  CA  ALA J 102      48.842  57.715  -8.903  1.00  8.22 LIG 0.17  C 
ATOM     14  CB  ALA J 102      48.609  57.834  -7.380  1.00 14.95 LIG 0.04  C 
BRANCH 13 15
ATOM     15  N   ALA J 102      47.571  57.834  -9.586  1.00  4.21 LIG-0.35  N 
ATOM     16  C   HIS J 101      46.567  56.975  -9.416  1.00  9.96 LIG 0.26  C 
ATOM     17 O    HIS J 101      46.638  55.992  -8.659  1.00  8.34 LIG-0.27  OA
ATOM     18 H    ALA J 102      47.525  58.512 -10.113  1.00  4.21 LIG 0.16  HD
BRANCH 16 19
ATOM     19  CA  HIS J 101      45.292  57.276 -10.250  1.00  9.34 LIG 0.41  C 
ATOM     20  N   HIS J 101      45.379  58.508 -11.106  1.00 12.44 LIG 0.61  N 
BRANCH 19 21
ATOM     21  CB  HIS J 101      44.907  56.056 -11.090  1.00 10.29 LIG 0.11  C 
BRANCH 21 22
ATOM     22  CG  HIS J 101      46.078  55.242 -11.527  1.00 11.59 LIG 0.06  A 
ATOM     23  CD2 HIS J 101      46.586  54.084 -11.051  1.00 10.25 LIG 0.14  A 
ATOM     24 NE2  HIS J 101      47.632  53.732 -11.866  1.00 11.46 LIG-0.25  NA
ATOM     25  CE1 HIS J 101      47.771  54.645 -12.808  1.00 15.99 LIG 0.23  A 
ATOM     26 ND1  HIS J 101      46.846  55.572 -12.624  1.00 17.50 LIG-0.24  NA
ENDBRANCH 21 22
ENDBRANCH 19 21
ENDBRANCH 16 19
ENDBRANCH 13 15
ENDBRANCH 10 13
ENDBRANCH 8 9
ENDBRANCH 1 8
BRANCH 4 27
ATOM     27  C   PRO J 104      55.380  55.758 -11.041  1.00  7.89 LIG 0.24  C 
ATOM     28 O    PRO J 104      54.994  56.742 -11.681  1.00  6.40 LIG-0.27  OA
ATOM     29  N   ILE J 105      56.467  55.794 -10.266  1.00 10.49 LIG-0.35  N 
ATOM     30 H    ILE J 105      56.732  55.156  -9.755  1.00 10.49 LIG 0.16  HD
BRANCH 29 31
ATOM     31  CA  ILE J 105      57.297  56.994 -10.259  1.00  9.44 LIG 0.18  C 
BRANCH 31 32
ATOM     32  CB  ILE J 105      58.017  57.232  -8.936  1.00  9.59 LIG 0.01  C 
ATOM     33  CG2 ILE J 105      57.689  56.125  -8.004  1.00  7.65 LIG 0.01  C 
BRANCH 32 34
ATOM     34  CG1 ILE J 105      59.517  57.381  -9.122  1.00  8.07 LIG 0.00  C 
ATOM     35  CD1 ILE J 105      60.227  57.459  -7.822  1.00 10.10 LIG 0.01  C 
ENDBRANCH 32 34
ENDBRANCH 31 32
BRANCH 31 36
ATOM     36  C   ILE J 105      58.260  57.085 -11.434  1.00 12.77 LIG 0.24  C 
ATOM     37  N   ALA J 106      58.269  58.266 -12.058  1.00 12.70 LIG-0.34  N 
ATOM     38 H    ALA J 106      57.754  58.906 -11.802  1.00 12.70 LIG 0.16  HD
ATOM     39 O    ILE J 105      58.896  56.097 -11.789  1.00 10.65 LIG-0.27  OA
BRANCH 37 40
ATOM     40  CA  ALA J 106      59.087  58.656 -13.191  1.00 16.79 LIG 0.18  C 
ATOM     41  CB  ALA J 106      59.018  57.632 -14.336  1.00 18.33 LIG 0.04  C 
BRANCH 40 42
ATOM     42  C   ALA J 106      58.826  60.071 -13.675  1.00 17.57 LIG 0.20  C 
ATOM     43 O    ALA J 106      59.817  60.839 -13.689  1.00 21.44 LIG-0.65  OA
ATOM     44 OXT  ALA J 106      57.676  60.390 -14.063  1.00 20.61 LIG-0.65  OA
ENDBRANCH 40 42
ENDBRANCH 37 40
ENDBRANCH 31 36
ENDBRANCH 29 31
ENDBRANCH 4 27
TORSDOF 14
ENDMDL
MODEL 19
USER: ADFR SOLUTION from run 192
USER: SCORE 14.540795 LL:  -3.137 LR: -12.332 RR:   0.000 FEB:  -8.155
USER: RMSD 6.361742
USER: SEED 191
USER: STATUS no improvement in best in 9 clusters for 5 generations
USER: GENES 16
USER: genes 0 Translation |==|  0.37771 0.48597 0.54778
USER: genes 1 Rotation |==|  0.93764 0.70614 0.38039 0.54094
USER: genes 2 Torsion [N]-C--CA-[N] |==|  0.64882
USER: genes 3 Torsion [C]-CA--N-[C] |==|  0.16189
USER: genes 4 Torsion [N]-C--CA-[N] |==|  0.82223
USER: genes 5 Torsion [C]-CA--N-[C] |==|  0.61111
USER: genes 6 Torsion [N]-C--CA-[N] |==|  0.90750
USER: genes 7 Torsion [C]-CA--CB-[CG] |==|  0.06605
USER: genes 8 Torsion [CA]-CB--CG-[ND1] |==|  0.77313
USER: genes 9 Torsion [N]-CA--C-[O] |==|  0.73870
USER: genes 10 Torsion [C]-N--CA-[C] |==|  0.80851
USER: genes 11 Torsion [N]-CA--CB-[CG1] |==|  0.25486
USER: genes 12 Torsion [CA]-CB--CG1-[CD1] |==|  0.66830
USER: genes 13 Torsion [N]-CA--C-[N] |==|  0.37787
USER: genes 14 Torsion [C]-N--CA-[CB] |==|  0.08828
USER: genes 15 Torsion [N]-CA--C-[O] |==|  0.63278
ROOT
ATOM      1  C   GLY J 103      54.491  53.081 -11.775  1.00 12.08 LIG 0.24  C 
ATOM      2 O    GLY J 103      55.056  53.421 -10.688  1.00  8.68 LIG-0.27  OA
ATOM      3  N   PRO J 104      55.092  53.222 -12.966  1.00 11.63 LIG-0.34  N 
ATOM      4  CA  PRO J 104      56.481  53.672 -13.116  1.00 13.37 LIG 0.18  C 
ATOM      5  CB  PRO J 104      56.754  53.373 -14.594  1.00 10.19 LIG 0.04  C 
ATOM      6  CG  PRO J 104      55.427  53.756 -15.235  1.00 11.82 LIG 0.02  C 
ATOM      7  CD  PRO J 104      54.432  53.077 -14.277  1.00  8.53 LIG 0.13  C 
ENDROOT
BRANCH 1 8
ATOM      8  CA  GLY J 103      53.056  52.595 -11.856  1.00  6.72 LIG 0.23  C 
BRANCH 8 9
ATOM      9  N   GLY J 103      52.052  53.383 -11.183  1.00  9.69 LIG-0.35  N 
ATOM     10  C   ALA J 102      51.864  54.660 -11.484  1.00  5.22 LIG 0.24  C 
ATOM     11 O    ALA J 102      52.520  55.247 -12.340  1.00 12.11 LIG-0.27  OA
ATOM     12 H    GLY J 103      51.603  52.956 -10.587  1.00  9.69 LIG 0.16  HD
BRANCH 10 13
ATOM     13  CA  ALA J 102      50.745  55.369 -10.703  1.00  8.22 LIG 0.17  C 
ATOM     14  CB  ALA J 102      51.047  55.323  -9.188  1.00 14.95 LIG 0.04  C 
BRANCH 13 15
ATOM     15  N   ALA J 102      49.412  54.855 -10.936  1.00  4.21 LIG-0.35  N 
ATOM     16  C   HIS J 101      48.338  55.636 -11.050  1.00  9.96 LIG 0.26  C 
ATOM     17 O    HIS J 101      48.388  56.874 -10.961  1.00  8.34 LIG-0.27  OA
ATOM     18 H    ALA J 102      49.379  53.998 -10.993  1.00  4.21 LIG 0.16  HD
BRANCH 16 19
ATOM     19  CA  HIS J 101      47.000  54.884 -11.289  1.00  9.34 LIG 0.41  C 
ATOM     20  N   HIS J 101      47.123  53.626 -12.099  1.00 12.44 LIG 0.61  N 
BRANCH 19 21
ATOM     21  CB  HIS J 101      46.303  54.606  -9.955  1.00 10.29 LIG 0.11  C 
BRANCH 21 22
ATOM     22  CG  HIS J 101      46.707  55.542  -8.866  1.00 11.59 LIG 0.06  A 
ATOM     23  CD2 HIS J 101      46.089  56.627  -8.348  1.00 10.25 LIG 0.14  A 
ATOM     24 NE2  HIS J 101      46.867  57.084  -7.314  1.00 11.46 LIG-0.25  NA
ATOM     25  CE1 HIS J 101      47.933  56.315  -7.204  1.00 15.99 LIG 0.23  A 
ATOM     26 ND1  HIS J 101      47.863  55.377  -8.133  1.00 17.50 LIG-0.24  NA
ENDBRANCH 21 22
ENDBRANCH 19 21
ENDBRANCH 16 19
ENDBRANCH 13 15
ENDBRANCH 10 13
ENDBRANCH 8 9
ENDBRANCH 1 8
BRANCH 4 27
ATOM     27  C   PRO J 104      56.690  55.166 -12.795  1.00  7.89 LIG 0.24  C 
ATOM     28 O    PRO J 104      56.662  56.022 -13.687  1.00  6.40 LIG-0.27  OA
ATOM     29  N   ILE J 105      56.859  55.482 -11.510  1.00 10.49 LIG-0.35  N 
ATOM     30 H    ILE J 105      56.818  54.928 -10.853  1.00 10.49 LIG 0.16  HD
BRANCH 29 31
ATOM     31  CA  ILE J 105      57.136  56.869 -11.148  1.00  9.44 LIG 0.18  C 
BRANCH 31 32
ATOM     32  CB  ILE J 105      56.886  57.178  -9.676  1.00  9.59 LIG 0.01  C 
ATOM     33  CG2 ILE J 105      55.767  56.332  -9.189  1.00  7.65 LIG 0.01  C 
BRANCH 32 34
ATOM     34  CG1 ILE J 105      58.136  56.991  -8.833  1.00  8.07 LIG 0.00  C 
ATOM     35  CD1 ILE J 105      57.944  55.959  -7.786  1.00 10.10 LIG 0.01  C 
ENDBRANCH 32 34
ENDBRANCH 31 32
BRANCH 31 36
ATOM     36  C   ILE J 105      58.507  57.359 -11.589  1.00 12.77 LIG 0.24  C 
ATOM     37  N   ALA J 106      58.514  58.578 -12.134  1.00 12.70 LIG-0.34  N 
ATOM     38 H    ALA J 106      57.786  59.026 -12.227  1.00 12.70 LIG 0.16  HD
ATOM     39 O    ILE J 105      59.484  56.621 -11.501  1.00 10.65 LIG-0.27  OA
BRANCH 37 40
ATOM     40  CA  ALA J 106      59.663  59.314 -12.630  1.00 16.79 LIG 0.18  C 
ATOM     41  CB  ALA J 106      60.745  58.382 -13.201  1.00 18.33 LIG 0.04  C 
BRANCH 40 42
ATOM     42  C   ALA J 106      59.304  60.431 -13.593  1.00 17.57 LIG 0.20  C 
ATOM     43 O    ALA J 106      59.972  60.477 -14.654  1.00 21.44 LIG-0.65  OA
ATOM     44 OXT  ALA J 106      58.362  61.209 -13.313  1.00 20.61 LIG-0.65  OA
ENDBRANCH 40 42
ENDBRANCH 37 40
ENDBRANCH 31 36
ENDBRANCH 29 31
ENDBRANCH 4 27
TORSDOF 14
ENDMDL
MODEL 20
USER: ADFR SOLUTION from run 112
USER: SCORE 13.916228 LL:  -2.991 LR: -12.195 RR:   0.000 FEB:  -8.019
USER: RMSD 3.676995
USER: SEED 111
USER: STATUS no improvement in best in 10 clusters for 5 generations
USER: GENES 16
USER: genes 0 Translation |==|  0.45225 0.69824 0.64602
USER: genes 1 Rotation |==|  0.66734 0.54618 0.50714 0.96884
USER: genes 2 Torsion [N]-C--CA-[N] |==|  0.45586
USER: genes 3 Torsion [C]-CA--N-[C] |==|  0.41887
USER: genes 4 Torsion [N]-C--CA-[N] |==|  0.45851
USER: genes 5 Torsion [C]-CA--N-[C] |==|  0.72933
USER: genes 6 Torsion [N]-C--CA-[N] |==|  0.83846
USER: genes 7 Torsion [C]-CA--CB-[CG] |==|  0.37944
USER: genes 8 Torsion [CA]-CB--CG-[ND1] |==|  0.10438
USER: genes 9 Torsion [N]-CA--C-[O] |==|  0.29438
USER: genes 10 Torsion [C]-N--CA-[C] |==|  0.16330
USER: genes 11 Torsion [N]-CA--CB-[CG1] |==|  0.91440
USER: genes 12 Torsion [CA]-CB--CG1-[CD1] |==|  0.31830
USER: genes 13 Torsion [N]-CA--C-[N] |==|  0.71111
USER: genes 14 Torsion [C]-N--CA-[CB] |==|  0.18834
USER: genes 15 Torsion [N]-CA--C-[O] |==|  0.03766
ROOT
ATOM      1  C   GLY J 103      56.391  56.902 -10.154  1.00 12.08 LIG 0.24  C 
ATOM      2 O    GLY J 103      56.178  57.810 -11.018  1.00  8.68 LIG-0.27  OA
ATOM      3  N   PRO J 104      57.534  56.838  -9.454  1.00 11.63 LIG-0.34  N 
ATOM      4  CA  PRO J 104      58.587  57.858  -9.540  1.00 13.37 LIG 0.18  C 
ATOM      5  CB  PRO J 104      59.492  57.480  -8.362  1.00 10.19 LIG 0.04  C 
ATOM      6  CG  PRO J 104      59.465  55.960  -8.430  1.00 11.82 LIG 0.02  C 
ATOM      7  CD  PRO J 104      57.959  55.701  -8.615  1.00  8.53 LIG 0.13  C 
ENDROOT
BRANCH 1 8
ATOM      8  CA  GLY J 103      55.443  55.744  -9.903  1.00  6.72 LIG 0.23  C 
BRANCH 8 9
ATOM      9  N   GLY J 103      54.075  55.907 -10.328  1.00  9.69 LIG-0.35  N 
ATOM     10  C   ALA J 102      53.339  54.866 -10.691  1.00  5.22 LIG 0.24  C 
ATOM     11 O    ALA J 102      53.766  53.715 -10.690  1.00 12.11 LIG-0.27  OA
ATOM     12 H    GLY J 103      53.794  56.720 -10.323  1.00  9.69 LIG 0.16  HD
BRANCH 10 13
ATOM     13  CA  ALA J 102      51.891  55.186 -11.099  1.00  8.22 LIG 0.17  C 
ATOM     14  CB  ALA J 102      51.065  55.580  -9.855  1.00 14.95 LIG 0.04  C 
BRANCH 13 15
ATOM     15  N   ALA J 102      51.205  54.125 -11.806  1.00  4.21 LIG-0.35  N 
ATOM     16  C   HIS J 101      51.102  54.079 -13.134  1.00  9.96 LIG 0.26  C 
ATOM     17 O    HIS J 101      51.582  54.947 -13.881  1.00  8.34 LIG-0.27  OA
ATOM     18 H    ALA J 102      50.869  53.526 -11.287  1.00  4.21 LIG 0.16  HD
BRANCH 16 19
ATOM     19  CA  HIS J 101      50.317  52.861 -13.692  1.00  9.34 LIG 0.41  C 
ATOM     20  N   HIS J 101      50.875  51.522 -13.302  1.00 12.44 LIG 0.61  N 
BRANCH 19 21
ATOM     21  CB  HIS J 101      48.837  52.964 -13.313  1.00 10.29 LIG 0.11  C 
BRANCH 21 22
ATOM     22  CG  HIS J 101      47.912  52.622 -14.431  1.00 11.59 LIG 0.06  A 
ATOM     23  CD2 HIS J 101      46.748  53.183 -14.828  1.00 10.25 LIG 0.14  A 
ATOM     24 NE2  HIS J 101      46.341  52.520 -15.959  1.00 11.46 LIG-0.25  NA
ATOM     25  CE1 HIS J 101      47.218  51.577 -16.245  1.00 15.99 LIG 0.23  A 
ATOM     26 ND1  HIS J 101      48.176  51.614 -15.334  1.00 17.50 LIG-0.24  NA
ENDBRANCH 21 22
ENDBRANCH 19 21
ENDBRANCH 16 19
ENDBRANCH 13 15
ENDBRANCH 10 13
ENDBRANCH 8 9
ENDBRANCH 1 8
BRANCH 4 27
ATOM     27  C   PRO J 104      59.361  57.844 -10.873  1.00  7.89 LIG 0.24  C 
ATOM     28 O    PRO J 104      59.178  58.717 -11.729  1.00  6.40 LIG-0.27  OA
ATOM     29  N   ILE J 105      60.261  56.871 -11.031  1.00 10.49 LIG-0.35  N 
ATOM     30 H    ILE J 105      60.467  56.285 -10.436  1.00 10.49 LIG 0.16  HD
BRANCH 29 31
ATOM     31  CA  ILE J 105      60.974  56.759 -12.299  1.00  9.44 LIG 0.18  C 
BRANCH 31 32
ATOM     32  CB  ILE J 105      60.095  56.295 -13.456  1.00  9.59 LIG 0.01  C 
ATOM     33  CG2 ILE J 105      60.950  55.642 -14.479  1.00  7.65 LIG 0.01  C 
BRANCH 32 34
ATOM     34  CG1 ILE J 105      58.979  55.377 -12.991  1.00  8.07 LIG 0.00  C 
ATOM     35  CD1 ILE J 105      57.643  55.988 -13.193  1.00 10.10 LIG 0.01  C 
ENDBRANCH 32 34
ENDBRANCH 31 32
BRANCH 31 36
ATOM     36  C   ILE J 105      61.767  58.003 -12.674  1.00 12.77 LIG 0.24  C 
ATOM     37  N   ALA J 106      61.207  58.755 -13.624  1.00 12.70 LIG-0.34  N 
ATOM     38 H    ALA J 106      60.461  58.527 -13.988  1.00 12.70 LIG 0.16  HD
ATOM     39 O    ILE J 105      62.866  58.210 -12.169  1.00 10.65 LIG-0.27  OA
BRANCH 37 40
ATOM     40  CA  ALA J 106      61.713  59.999 -14.175  1.00 16.79 LIG 0.18  C 
ATOM     41  CB  ALA J 106      63.000  59.791 -14.991  1.00 18.33 LIG 0.04  C 
BRANCH 40 42
ATOM     42  C   ALA J 106      60.674  60.796 -14.941  1.00 17.57 LIG 0.20  C 
ATOM     43 O    ALA J 106      59.481  60.439 -14.786  1.00 21.44 LIG-0.65  OA
ATOM     44 OXT  ALA J 106      61.036  61.771 -15.642  1.00 20.61 LIG-0.65  OA
ENDBRANCH 40 42
ENDBRANCH 37 40
ENDBRANCH 31 36
ENDBRANCH 29 31
ENDBRANCH 4 27
TORSDOF 14
ENDMDL
MODEL 21
USER: ADFR SOLUTION from run 32
USER: SCORE 14.169660 LL:  -2.699 LR: -12.121 RR:   0.000 FEB:  -7.945
USER: RMSD 4.804046
USER: SEED 31
USER: STATUS searching
USER: GENES 16
USER: genes 0 Translation |==|  0.44121 0.71602 0.63330
USER: genes 1 Rotation |==|  0.63083 0.53741 0.45341 0.97887
USER: genes 2 Torsion [N]-C--CA-[N] |==|  0.58572
USER: genes 3 Torsion [C]-CA--N-[C] |==|  0.32611
USER: genes 4 Torsion [N]-C--CA-[N] |==|  0.85592
USER: genes 5 Torsion [C]-CA--N-[C] |==|  0.85065
USER: genes 6 Torsion [N]-C--CA-[N] |==|  0.15119
USER: genes 7 Torsion [C]-CA--CB-[CG] |==|  0.29272
USER: genes 8 Torsion [CA]-CB--CG-[ND1] |==|  0.54812
USER: genes 9 Torsion [N]-CA--C-[O] |==|  0.08156
USER: genes 10 Torsion [C]-N--CA-[C] |==|  0.82446
USER: genes 11 Torsion [N]-CA--CB-[CG1] |==|  0.70890
USER: genes 12 Torsion [CA]-CB--CG1-[CD1] |==|  0.07037
USER: genes 13 Torsion [N]-CA--C-[N] |==|  0.41050
USER: genes 14 Torsion [C]-N--CA-[CB] |==|  0.51714
USER: genes 15 Torsion [N]-CA--C-[O] |==|  0.88718
ROOT
ATOM      1  C   GLY J 103      56.110  57.222 -10.364  1.00 12.08 LIG 0.24  C 
ATOM      2 O    GLY J 103      56.035  57.999 -11.367  1.00  8.68 LIG-0.27  OA
ATOM      3  N   PRO J 104      57.252  57.045  -9.682  1.00 11.63 LIG-0.34  N 
ATOM      4  CA  PRO J 104      58.477  57.804  -9.958  1.00 13.37 LIG 0.18  C 
ATOM      5  CB  PRO J 104      59.350  57.451  -8.748  1.00 10.19 LIG 0.04  C 
ATOM      6  CG  PRO J 104      59.021  55.977  -8.553  1.00 11.82 LIG 0.02  C 
ATOM      7  CD  PRO J 104      57.487  56.000  -8.667  1.00  8.53 LIG 0.13  C 
ENDROOT
BRANCH 1 8
ATOM      8  CA  GLY J 103      54.967  56.337  -9.902  1.00  6.72 LIG 0.23  C 
BRANCH 8 9
ATOM      9  N   GLY J 103      54.000  55.936 -10.895  1.00  9.69 LIG-0.35  N 
ATOM     10  C   ALA J 102      53.827  54.661 -11.212  1.00  5.22 LIG 0.24  C 
ATOM     11 O    ALA J 102      54.468  53.752 -10.691  1.00 12.11 LIG-0.27  OA
ATOM     12 H    GLY J 103      53.562  56.586 -11.248  1.00  9.69 LIG 0.16  HD
BRANCH 10 13
ATOM     13  CA  ALA J 102      52.747  54.379 -12.269  1.00  8.22 LIG 0.17  C 
ATOM     14  CB  ALA J 102      53.233  54.845 -13.660  1.00 14.95 LIG 0.04  C 
BRANCH 13 15
ATOM     15  N   ALA J 102      51.454  54.970 -11.998  1.00  4.21 LIG-0.35  N 
ATOM     16  C   HIS J 101      50.792  54.787 -10.856  1.00  9.96 LIG 0.26  C 
ATOM     17 O    HIS J 101      51.226  54.087  -9.926  1.00  8.34 LIG-0.27  OA
ATOM     18 H    ALA J 102      51.152  55.451 -12.645  1.00  4.21 LIG 0.16  HD
BRANCH 16 19
ATOM     19  CA  HIS J 101      49.415  55.501 -10.770  1.00  9.34 LIG 0.41  C 
ATOM     20  N   HIS J 101      48.472  55.185 -11.895  1.00 12.44 LIG 0.61  N 
BRANCH 19 21
ATOM     21  CB  HIS J 101      48.758  55.225  -9.416  1.00 10.29 LIG 0.11  C 
BRANCH 21 22
ATOM     22  CG  HIS J 101      48.804  56.388  -8.484  1.00 11.59 LIG 0.06  A 
ATOM     23  CD2 HIS J 101      48.984  57.708  -8.714  1.00 10.25 LIG 0.14  A 
ATOM     24 NE2  HIS J 101      48.869  58.351  -7.507  1.00 11.46 LIG-0.25  NA
ATOM     25  CE1 HIS J 101      48.636  57.459  -6.563  1.00 15.99 LIG 0.23  A 
ATOM     26 ND1  HIS J 101      48.596  56.263  -7.126  1.00 17.50 LIG-0.24  NA
ENDBRANCH 21 22
ENDBRANCH 19 21
ENDBRANCH 16 19
ENDBRANCH 13 15
ENDBRANCH 10 13
ENDBRANCH 8 9
ENDBRANCH 1 8
BRANCH 4 27
ATOM     27  C   PRO J 104      59.167  57.415 -11.281  1.00  7.89 LIG 0.24  C 
ATOM     28 O    PRO J 104      58.515  56.988 -12.241  1.00  6.40 LIG-0.27  OA
ATOM     29  N   ILE J 105      60.487  57.603 -11.345  1.00 10.49 LIG-0.35  N 
ATOM     30 H    ILE J 105      60.967  57.958 -10.727  1.00 10.49 LIG 0.16  HD
BRANCH 29 31
ATOM     31  CA  ILE J 105      61.209  57.186 -12.543  1.00  9.44 LIG 0.18  C 
BRANCH 31 32
ATOM     32  CB  ILE J 105      62.638  57.712 -12.609  1.00  9.59 LIG 0.01  C 
ATOM     33  CG2 ILE J 105      63.551  56.588 -12.935  1.00  7.65 LIG 0.01  C 
BRANCH 32 34
ATOM     34  CG1 ILE J 105      62.781  58.854 -13.600  1.00  8.07 LIG 0.00  C 
ATOM     35  CD1 ILE J 105      61.498  59.569 -13.803  1.00 10.10 LIG 0.01  C 
ENDBRANCH 32 34
ENDBRANCH 31 32
BRANCH 31 36
ATOM     36  C   ILE J 105      61.161  55.687 -12.801  1.00 12.77 LIG 0.24  C 
ATOM     37  N   ALA J 106      61.176  55.343 -14.091  1.00 12.70 LIG-0.34  N 
ATOM     38 H    ALA J 106      61.200  55.941 -14.708  1.00 12.70 LIG 0.16  HD
ATOM     39 O    ILE J 105      61.039  54.903 -11.864  1.00 10.65 LIG-0.27  OA
BRANCH 37 40
ATOM     40  CA  ALA J 106      61.157  54.002 -14.644  1.00 16.79 LIG 0.18  C 
ATOM     41  CB  ALA J 106      61.337  54.001 -16.172  1.00 18.33 LIG 0.04  C 
BRANCH 40 42
ATOM     42  C   ALA J 106      62.112  53.043 -13.957  1.00 17.57 LIG 0.20  C 
ATOM     43 O    ALA J 106      63.236  53.509 -13.654  1.00 21.44 LIG-0.65  OA
ATOM     44 OXT  ALA J 106      61.734  51.876 -13.696  1.00 20.61 LIG-0.65  OA
ENDBRANCH 40 42
ENDBRANCH 37 40
ENDBRANCH 31 36
ENDBRANCH 29 31
ENDBRANCH 4 27
TORSDOF 14
ENDMDL
MODEL 22
USER: ADFR SOLUTION from run 89
USER: SCORE 14.281502 LL:  -3.135 LR: -11.983 RR:   0.000 FEB:  -7.807
USER: RMSD 5.096655
USER: SEED 88
USER: STATUS no improvement in best in 9 clusters for 5 generations
USER: GENES 16
USER: genes 0 Translation |==|  0.44566 0.70005 0.65369
USER: genes 1 Rotation |==|  0.70469 0.54783 0.52548 0.95295
USER: genes 2 Torsion [N]-C--CA-[N] |==|  0.44450
USER: genes 3 Torsion [C]-CA--N-[C] |==|  0.45123
USER: genes 4 Torsion [N]-C--CA-[N] |==|  0.42126
USER: genes 5 Torsion [C]-CA--N-[C] |==|  0.78333
USER: genes 6 Torsion [N]-C--CA-[N] |==|  0.90830
USER: genes 7 Torsion [C]-CA--CB-[CG] |==|  0.78287
USER: genes 8 Torsion [CA]-CB--CG-[ND1] |==|  0.11073
USER: genes 9 Torsion [N]-CA--C-[O] |==|  0.62126
USER: genes 10 Torsion [C]-N--CA-[C] |==|  0.63913
USER: genes 11 Torsion [N]-CA--CB-[CG1] |==|  0.95171
USER: genes 12 Torsion [CA]-CB--CG1-[CD1] |==|  0.24143
USER: genes 13 Torsion [N]-CA--C-[N] |==|  0.88658
USER: genes 14 Torsion [C]-N--CA-[CB] |==|  0.77443
USER: genes 15 Torsion [N]-CA--C-[O] |==|  0.58918
ROOT
ATOM      1  C   GLY J 103      56.223  56.935 -10.027  1.00 12.08 LIG 0.24  C 
ATOM      2 O    GLY J 103      55.962  57.961 -10.730  1.00  8.68 LIG-0.27  OA
ATOM      3  N   PRO J 104      57.365  56.819  -9.331  1.00 11.63 LIG-0.34  N 
ATOM      4  CA  PRO J 104      58.355  57.898  -9.229  1.00 13.37 LIG 0.18  C 
ATOM      5  CB  PRO J 104      59.275  57.380  -8.117  1.00 10.19 LIG 0.04  C 
ATOM      6  CG  PRO J 104      59.337  55.893  -8.439  1.00 11.82 LIG 0.02  C 
ATOM      7  CD  PRO J 104      57.851  55.584  -8.687  1.00  8.53 LIG 0.13  C 
ENDROOT
BRANCH 1 8
ATOM      8  CA  GLY J 103      55.344  55.699  -9.987  1.00  6.72 LIG 0.23  C 
BRANCH 8 9
ATOM      9  N   GLY J 103      53.949  55.871 -10.313  1.00  9.69 LIG-0.35  N 
ATOM     10  C   ALA J 102      53.187  54.837 -10.640  1.00  5.22 LIG 0.24  C 
ATOM     11 O    ALA J 102      53.611  53.685 -10.688  1.00 12.11 LIG-0.27  OA
ATOM     12 H    GLY J 103      53.671  56.683 -10.275  1.00  9.69 LIG 0.16  HD
BRANCH 10 13
ATOM     13  CA  ALA J 102      51.715  55.164 -10.941  1.00  8.22 LIG 0.17  C 
ATOM     14  CB  ALA J 102      50.904  55.209  -9.627  1.00 14.95 LIG 0.04  C 
BRANCH 13 15
ATOM     15  N   ALA J 102      51.063  54.264 -11.869  1.00  4.21 LIG-0.35  N 
ATOM     16  C   HIS J 101      51.242  54.321 -13.189  1.00  9.96 LIG 0.26  C 
ATOM     17 O    HIS J 101      51.979  55.156 -13.737  1.00  8.34 LIG-0.27  OA
ATOM     18 H    ALA J 102      50.549  53.689 -11.488  1.00  4.21 LIG 0.16  HD
BRANCH 16 19
ATOM     19  CA  HIS J 101      50.442  53.270 -14.007  1.00  9.34 LIG 0.41  C 
ATOM     20  N   HIS J 101      50.242  51.953 -13.313  1.00 12.44 LIG 0.61  N 
BRANCH 19 21
ATOM     21  CB  HIS J 101      49.102  53.857 -14.457  1.00 10.29 LIG 0.11  C 
BRANCH 21 22
ATOM     22  CG  HIS J 101      48.073  53.884 -13.378  1.00 11.59 LIG 0.06  A 
ATOM     23  CD2 HIS J 101      46.756  53.577 -13.393  1.00 10.25 LIG 0.14  A 
ATOM     24 NE2  HIS J 101      46.292  53.709 -12.109  1.00 11.46 LIG-0.25  NA
ATOM     25  CE1 HIS J 101      47.284  54.093 -11.329  1.00 15.99 LIG 0.23  A 
ATOM     26 ND1  HIS J 101      48.372  54.210 -12.072  1.00 17.50 LIG-0.24  NA
ENDBRANCH 21 22
ENDBRANCH 19 21
ENDBRANCH 16 19
ENDBRANCH 13 15
ENDBRANCH 10 13
ENDBRANCH 8 9
ENDBRANCH 1 8
BRANCH 4 27
ATOM     27  C   PRO J 104      59.137  58.152 -10.534  1.00  7.89 LIG 0.24  C 
ATOM     28 O    PRO J 104      60.359  58.332 -10.523  1.00  6.40 LIG-0.27  OA
ATOM     29  N   ILE J 105      58.431  58.124 -11.667  1.00 10.49 LIG-0.35  N 
ATOM     30 H    ILE J 105      57.594  57.937 -11.725  1.00 10.49 LIG 0.16  HD
BRANCH 29 31
ATOM     31  CA  ILE J 105      59.098  58.431 -12.929  1.00  9.44 LIG 0.18  C 
BRANCH 31 32
ATOM     32  CB  ILE J 105      59.449  57.195 -13.750  1.00  9.59 LIG 0.01  C 
ATOM     33  CG2 ILE J 105      60.775  57.401 -14.386  1.00  7.65 LIG 0.01  C 
BRANCH 32 34
ATOM     34  CG1 ILE J 105      59.420  55.927 -12.915  1.00  8.07 LIG 0.00  C 
ATOM     35  CD1 ILE J 105      58.062  55.335 -12.861  1.00 10.10 LIG 0.01  C 
ENDBRANCH 32 34
ENDBRANCH 31 32
BRANCH 31 36
ATOM     36  C   ILE J 105      58.371  59.466 -13.774  1.00 12.77 LIG 0.24  C 
ATOM     37  N   ALA J 106      57.042  59.333 -13.798  1.00 12.70 LIG-0.34  N 
ATOM     38 H    ALA J 106      56.653  58.697 -13.370  1.00 12.70 LIG 0.16  HD
ATOM     39 O    ILE J 105      59.008  60.288 -14.426  1.00 10.65 LIG-0.27  OA
BRANCH 37 40
ATOM     40  CA  ALA J 106      56.087  60.172 -14.497  1.00 16.79 LIG 0.18  C 
ATOM     41  CB  ALA J 106      55.764  61.458 -13.717  1.00 18.33 LIG 0.04  C 
BRANCH 40 42
ATOM     42  C   ALA J 106      56.464  60.459 -15.939  1.00 17.57 LIG 0.20  C 
ATOM     43 O    ALA J 106      56.109  61.575 -16.389  1.00 21.44 LIG-0.65  OA
ATOM     44 OXT  ALA J 106      57.126  59.612 -16.585  1.00 20.61 LIG-0.65  OA
ENDBRANCH 40 42
ENDBRANCH 37 40
ENDBRANCH 31 36
ENDBRANCH 29 31
ENDBRANCH 4 27
TORSDOF 14
ENDMDL
