MODEL 1
USER: ADFR SOLUTION from run 196
USER: SCORE 21.911510 LL:  -0.939 LR: -21.043 RR:   0.000 FEB: -15.674
USER: RMSD 1.034458
USER: SEED 195
USER: STATUS searching
USER: GENES 20
USER: genes 0 Translation |==|  0.61121 0.58059 0.62245
USER: genes 1 Rotation |==|  0.53697 0.50461 0.50307 0.99860
USER: genes 2 Torsion [N]-CA--C-[N] |==|  0.39461
USER: genes 3 Torsion [C]-N--CA-[CB] |==|  0.25406
USER: genes 4 Torsion [N]-CA--CB-[CG] |==|  0.50867
USER: genes 5 Torsion [CA]-CB--CG-[CD] |==|  0.54410
USER: genes 6 Torsion [CB]-CG--CD-[CE] |==|  0.63144
USER: genes 7 Torsion [CG]-CD--CE-[NZ] |==|  0.16301
USER: genes 8 Torsion [CD]-CE--NZ-[HZ2] |==|  0.82597
USER: genes 9 Torsion [N]-CA--C-[OXT] |==|  0.28795
USER: genes 10 Torsion [C]-CA--CB-[SG] |==|  0.22409
USER: genes 11 Torsion [CA]-CB--SG-[HG] |==|  0.97745
USER: genes 12 Torsion [C]-CA--N-[C] |==|  0.76223
USER: genes 13 Torsion [N]-C--CA-[N] |==|  0.47355
USER: genes 14 Torsion [C]-CA--N-[H2] |==|  0.64313
USER: genes 15 Torsion [C]-CA--CB-[CG] |==|  0.60514
USER: genes 16 Torsion [CA]-CB--CG-[CD] |==|  0.29485
USER: genes 17 Torsion [CB]-CG--CD-[CE] |==|  0.55098
USER: genes 18 Torsion [CG]-CD--CE-[NZ] |==|  0.19565
USER: genes 19 Torsion [CD]-CE--NZ-[HZ1] |==|  0.02304
ROOT
ATOM      1  CA  CYS B   2       3.730  20.265  16.022  1.00 13.05 LIG 0.18  C 
ENDROOT
BRANCH 1 2
ATOM      2  C   CYS B   2       2.402  20.243  15.284  1.00 11.99 LIG 0.24  C 
ATOM      3  N   LYS B   3       1.327  19.945  16.020  1.00 12.79 LIG-0.34  N 
ATOM      4 H    LYS B   3       1.347  19.752  16.858  1.00 12.79 LIG 0.16  HD
ATOM      5 O    CYS B   2       2.345  20.622  14.109  1.00 13.18 LIG-0.27  OA
BRANCH 3 6
ATOM      6  CA  LYS B   3       0.012  19.928  15.417  1.00 17.07 LIG 0.18  C 
BRANCH 6 7
ATOM      7  CB  LYS B   3      -0.519  18.618  14.840  1.00 17.68 LIG 0.04  C 
BRANCH 7 8
ATOM      8  CG  LYS B   3      -1.894  18.931  14.204  1.00 18.86 LIG 0.00  C 
BRANCH 8 9
ATOM      9  CD  LYS B   3      -2.714  17.705  13.929  1.00 20.79 LIG 0.03  C 
BRANCH 9 10
ATOM     10  CE  LYS B   3      -3.340  17.655  12.529  1.00 22.05 LIG 0.23  C 
BRANCH 10 11
ATOM     11  NZ  LYS B   3      -2.272  17.723  11.496  1.00 26.11 LIG-0.08  N 
ATOM     12 HZ2  LYS B   3      -1.843  18.500  11.563  1.00 26.11 LIG 0.27  HD
ATOM     13 HZ1  LYS B   3      -2.637  17.655  10.687  1.00 26.11 LIG 0.27  HD
ATOM     14 HZ3  LYS B   3      -1.697  17.055  11.619  1.00 26.11 LIG 0.27  HD
ENDBRANCH 10 11
ENDBRANCH 9 10
ENDBRANCH 8 9
ENDBRANCH 7 8
ENDBRANCH 6 7
BRANCH 6 15
ATOM     15  C   LYS B   3      -1.050  20.439  16.421  1.00 17.69 LIG 0.20  C 
ATOM     16 OXT  LYS B   3      -1.522  21.551  16.338  1.00 15.19 LIG-0.65  OA
ATOM     17 O    LYS B   3      -1.522  19.608  17.210  1.00 19.25 LIG-0.65  OA
ENDBRANCH 6 15
ENDBRANCH 3 6
ENDBRANCH 1 2
BRANCH 1 18
ATOM     18  CB  CYS B   2       3.982  21.710  16.488  1.00 11.90 LIG 0.10  C 
BRANCH 18 19
ATOM     19 SG   CYS B   2       3.016  22.047  18.052  1.00 13.34 LIG-0.18  SA
ATOM     20 HG   CYS B   2       2.282  21.125  18.276  1.00 13.34 LIG 0.10  HD
ENDBRANCH 18 19
ENDBRANCH 1 18
BRANCH 1 21
ATOM     21  N   CYS B   2       4.846  19.735  15.253  1.00 10.67 LIG-0.34  N 
ATOM     22 H    CYS B   2       5.286  20.345  14.838  1.00 10.67 LIG 0.16  HD
ATOM     23  C   LYS B   1       5.167  18.477  15.183  1.00  9.81 LIG 0.25  C 
ATOM     24 O    LYS B   1       4.593  17.616  15.850  1.00 12.59 LIG-0.27  OA
BRANCH 23 25
ATOM     25  CA  LYS B   1       6.402  18.080  14.378  1.00 10.58 LIG 0.27  C 
BRANCH 25 26
ATOM     26  N   LYS B   1       6.728  16.625  14.615  1.00  8.28 LIG-0.07  N 
ATOM     27 H1   LYS B   1       6.577  16.162  13.870  1.00  8.28 LIG 0.28  HD
ATOM     28 H3   LYS B   1       6.215  16.308  15.270  1.00  8.28 LIG 0.28  HD
ATOM     29 H2   LYS B   1       7.584  16.546  14.844  1.00  8.28 LIG 0.28  HD
ENDBRANCH 25 26
BRANCH 25 30
ATOM     30  CB  LYS B   1       6.133  18.369  12.892  1.00 12.65 LIG 0.04  C 
BRANCH 30 31
ATOM     31  CG  LYS B   1       6.692  17.355  11.887  1.00 13.69 LIG 0.00  C 
BRANCH 31 32
ATOM     32  CD  LYS B   1       5.560  16.478  11.290  1.00 12.46 LIG 0.03  C 
BRANCH 32 33
ATOM     33  CE  LYS B   1       6.175  15.194  10.660  1.00 14.43 LIG 0.23  C 
BRANCH 33 34
ATOM     34  NZ  LYS B   1       6.645  14.375  11.839  1.00 15.78 LIG-0.08  N 
ATOM     35 HZ3  LYS B   1       7.534  14.344  11.843  1.00 15.78 LIG 0.27  HD
ATOM     36 HZ1  LYS B   1       6.358  14.749  12.593  1.00 15.78 LIG 0.27  HD
ATOM     37 HZ2  LYS B   1       6.320  13.549  11.775  1.00 15.78 LIG 0.27  HD
ENDBRANCH 33 34
ENDBRANCH 32 33
ENDBRANCH 31 32
ENDBRANCH 30 31
ENDBRANCH 25 30
ENDBRANCH 23 25
ENDBRANCH 1 21
TORSDOF 18
ENDMDL
MODEL 2
USER: ADFR SOLUTION from run 188
USER: SCORE 20.188642 LL:  -0.971 LR: -19.974 RR:   0.000 FEB: -14.605
USER: RMSD 5.926594
USER: SEED 187
USER: STATUS 1 or 2 clusters left
USER: GENES 20
USER: genes 0 Translation |==|  0.59203 0.58481 0.56382
USER: genes 1 Rotation |==|  0.90565 0.27862 0.30994 0.51790
USER: genes 2 Torsion [N]-CA--C-[N] |==|  0.82799
USER: genes 3 Torsion [C]-N--CA-[CB] |==|  0.87775
USER: genes 4 Torsion [N]-CA--CB-[CG] |==|  0.78417
USER: genes 5 Torsion [CA]-CB--CG-[CD] |==|  0.79079
USER: genes 6 Torsion [CB]-CG--CD-[CE] |==|  0.68191
USER: genes 7 Torsion [CG]-CD--CE-[NZ] |==|  0.90481
USER: genes 8 Torsion [CD]-CE--NZ-[HZ2] |==|  0.30723
USER: genes 9 Torsion [N]-CA--C-[OXT] |==|  0.34331
USER: genes 10 Torsion [C]-CA--CB-[SG] |==|  0.11093
USER: genes 11 Torsion [CA]-CB--SG-[HG] |==|  0.80956
USER: genes 12 Torsion [C]-CA--N-[C] |==|  0.23625
USER: genes 13 Torsion [N]-C--CA-[N] |==|  0.53713
USER: genes 14 Torsion [C]-CA--N-[H2] |==|  0.82852
USER: genes 15 Torsion [C]-CA--CB-[CG] |==|  0.78482
USER: genes 16 Torsion [CA]-CB--CG-[CD] |==|  0.64192
USER: genes 17 Torsion [CB]-CG--CD-[CE] |==|  0.41599
USER: genes 18 Torsion [CG]-CD--CE-[NZ] |==|  0.77855
USER: genes 19 Torsion [CD]-CE--NZ-[HZ1] |==|  0.81144
ROOT
ATOM      1  CA  CYS B   2       3.342  20.338  15.098  1.00 13.05 LIG 0.18  C 
ENDROOT
BRANCH 1 2
ATOM      2  C   CYS B   2       3.490  21.179  16.354  1.00 11.99 LIG 0.24  C 
ATOM      3  N   LYS B   3       3.881  20.527  17.454  1.00 12.79 LIG-0.34  N 
ATOM      4 H    LYS B   3       4.031  19.681  17.493  1.00 12.79 LIG 0.16  HD
ATOM      5 O    CYS B   2       3.383  22.408  16.288  1.00 13.18 LIG-0.27  OA
BRANCH 3 6
ATOM      6  CA  LYS B   3       4.082  21.244  18.695  1.00 17.07 LIG 0.18  C 
BRANCH 6 7
ATOM      7  CB  LYS B   3       4.824  22.578  18.665  1.00 17.68 LIG 0.04  C 
BRANCH 7 8
ATOM      8  CG  LYS B   3       6.332  22.251  18.541  1.00 18.86 LIG 0.00  C 
BRANCH 8 9
ATOM      9  CD  LYS B   3       6.939  21.757  19.821  1.00 20.79 LIG 0.03  C 
BRANCH 9 10
ATOM     10  CE  LYS B   3       7.996  22.690  20.428  1.00 22.05 LIG 0.23  C 
BRANCH 10 11
ATOM     11  NZ  LYS B   3       8.756  23.366  19.343  1.00 26.11 LIG-0.08  N 
ATOM     12 HZ2  LYS B   3       8.549  24.232  19.331  1.00 26.11 LIG 0.27  HD
ATOM     13 HZ1  LYS B   3       8.545  23.000  18.560  1.00 26.11 LIG 0.27  HD
ATOM     14 HZ3  LYS B   3       9.628  23.272  19.488  1.00 26.11 LIG 0.27  HD
ENDBRANCH 10 11
ENDBRANCH 9 10
ENDBRANCH 8 9
ENDBRANCH 7 8
ENDBRANCH 6 7
BRANCH 6 15
ATOM     15  C   LYS B   3       2.726  21.500  19.397  1.00 17.69 LIG 0.20  C 
ATOM     16 OXT  LYS B   3       2.514  21.126  20.529  1.00 15.19 LIG-0.65  OA
ATOM     17 O    LYS B   3       1.927  22.249  18.818  1.00 19.25 LIG-0.65  OA
ENDBRANCH 6 15
ENDBRANCH 3 6
ENDBRANCH 1 2
BRANCH 1 18
ATOM     18  CB  CYS B   2       2.228  19.307  15.355  1.00 11.90 LIG 0.10  C 
BRANCH 18 19
ATOM     19 SG   CYS B   2       0.832  20.108  16.305  1.00 13.34 LIG-0.18  SA
ATOM     20 HG   CYS B   2       1.201  20.365  17.418  1.00 13.34 LIG 0.10  HD
ENDBRANCH 18 19
ENDBRANCH 1 18
BRANCH 1 21
ATOM     21  N   CYS B   2       4.577  19.711  14.653  1.00 10.67 LIG-0.34  N 
ATOM     22 H    CYS B   2       4.989  20.171  14.055  1.00 10.67 LIG 0.16  HD
ATOM     23  C   LYS B   1       5.034  18.576  15.094  1.00  9.81 LIG 0.25  C 
ATOM     24 O    LYS B   1       4.491  17.964  16.014  1.00 12.59 LIG-0.27  OA
BRANCH 23 25
ATOM     25  CA  LYS B   1       6.376  18.073  14.568  1.00 10.58 LIG 0.27  C 
BRANCH 25 26
ATOM     26  N   LYS B   1       6.566  16.622  14.939  1.00  8.28 LIG-0.07  N 
ATOM     27 H1   LYS B   1       7.339  16.330  14.609  1.00  8.28 LIG 0.28  HD
ATOM     28 H3   LYS B   1       5.897  16.140  14.603  1.00  8.28 LIG 0.28  HD
ATOM     29 H2   LYS B   1       6.574  16.541  15.826  1.00  8.28 LIG 0.28  HD
ENDBRANCH 25 26
BRANCH 25 30
ATOM     30  CB  LYS B   1       6.416  18.281  13.045  1.00 12.65 LIG 0.04  C 
BRANCH 30 31
ATOM     31  CG  LYS B   1       5.634  17.273  12.197  1.00 13.69 LIG 0.00  C 
BRANCH 31 32
ATOM     32  CD  LYS B   1       6.520  16.685  11.067  1.00 12.46 LIG 0.03  C 
BRANCH 32 33
ATOM     33  CE  LYS B   1       6.056  15.234  10.745  1.00 14.43 LIG 0.23  C 
BRANCH 33 34
ATOM     34  NZ  LYS B   1       6.671  14.385  11.831  1.00 15.78 LIG-0.08  N 
ATOM     35 HZ3  LYS B   1       6.354  13.555  11.774  1.00 15.78 LIG 0.27  HD
ATOM     36 HZ1  LYS B   1       7.555  14.371  11.732  1.00 15.78 LIG 0.27  HD
ATOM     37 HZ2  LYS B   1       6.467  14.727  12.627  1.00 15.78 LIG 0.27  HD
ENDBRANCH 33 34
ENDBRANCH 32 33
ENDBRANCH 31 32
ENDBRANCH 30 31
ENDBRANCH 25 30
ENDBRANCH 23 25
ENDBRANCH 1 21
TORSDOF 18
ENDMDL
MODEL 3
USER: ADFR SOLUTION from run 157
USER: SCORE 20.990083 LL:  -1.495 LR: -19.556 RR:   0.000 FEB: -14.187
USER: RMSD 2.043413
USER: SEED 156
USER: STATUS no improvement in best in 2 clusters for 5 generations
USER: GENES 20
USER: genes 0 Translation |==|  0.61291 0.57931 0.61873
USER: genes 1 Rotation |==|  0.54450 0.50779 0.49714 0.99795
USER: genes 2 Torsion [N]-CA--C-[N] |==|  0.38566
USER: genes 3 Torsion [C]-N--CA-[CB] |==|  0.24502
USER: genes 4 Torsion [N]-CA--CB-[CG] |==|  0.40962
USER: genes 5 Torsion [CA]-CB--CG-[CD] |==|  0.31737
USER: genes 6 Torsion [CB]-CG--CD-[CE] |==|  0.23027
USER: genes 7 Torsion [CG]-CD--CE-[NZ] |==|  0.69628
USER: genes 8 Torsion [CD]-CE--NZ-[HZ2] |==|  0.99239
USER: genes 9 Torsion [N]-CA--C-[OXT] |==|  0.84124
USER: genes 10 Torsion [C]-CA--CB-[SG] |==|  0.21872
USER: genes 11 Torsion [CA]-CB--SG-[HG] |==|  0.97625
USER: genes 12 Torsion [C]-CA--N-[C] |==|  0.77222
USER: genes 13 Torsion [N]-C--CA-[N] |==|  0.44328
USER: genes 14 Torsion [C]-CA--N-[H2] |==|  0.67032
USER: genes 15 Torsion [C]-CA--CB-[CG] |==|  0.45941
USER: genes 16 Torsion [CA]-CB--CG-[CD] |==|  0.84760
USER: genes 17 Torsion [CB]-CG--CD-[CE] |==|  0.58027
USER: genes 18 Torsion [CG]-CD--CE-[NZ] |==|  0.25667
USER: genes 19 Torsion [CD]-CE--NZ-[HZ1] |==|  0.27636
ROOT
ATOM      1  CA  CYS B   2       3.764  20.243  15.963  1.00 13.05 LIG 0.18  C 
ENDROOT
BRANCH 1 2
ATOM      2  C   CYS B   2       2.426  20.274  15.245  1.00 11.99 LIG 0.24  C 
ATOM      3  N   LYS B   3       1.363  19.913  15.970  1.00 12.79 LIG-0.34  N 
ATOM      4 H    LYS B   3       1.396  19.655  16.790  1.00 12.79 LIG 0.16  HD
ATOM      5 O    CYS B   2       2.350  20.744  14.105  1.00 13.18 LIG-0.27  OA
BRANCH 3 6
ATOM      6  CA  LYS B   3       0.039  19.938  15.387  1.00 17.07 LIG 0.18  C 
BRANCH 6 7
ATOM      7  CB  LYS B   3      -0.466  18.700  14.650  1.00 17.68 LIG 0.04  C 
BRANCH 7 8
ATOM      8  CG  LYS B   3      -1.997  18.638  14.871  1.00 18.86 LIG 0.00  C 
BRANCH 8 9
ATOM      9  CD  LYS B   3      -2.787  18.830  13.611  1.00 20.79 LIG 0.03  C 
BRANCH 9 10
ATOM     10  CE  LYS B   3      -2.954  17.563  12.761  1.00 22.05 LIG 0.23  C 
BRANCH 10 11
ATOM     11  NZ  LYS B   3      -2.144  17.677  11.519  1.00 26.11 LIG-0.08  N 
ATOM     12 HZ2  LYS B   3      -1.752  18.475  11.493  1.00 26.11 LIG 0.27  HD
ATOM     13 HZ1  LYS B   3      -2.673  17.582  10.810  1.00 26.11 LIG 0.27  HD
ATOM     14 HZ3  LYS B   3      -1.522  17.041  11.511  1.00 26.11 LIG 0.27  HD
ENDBRANCH 10 11
ENDBRANCH 9 10
ENDBRANCH 8 9
ENDBRANCH 7 8
ENDBRANCH 6 7
BRANCH 6 15
ATOM     15  C   LYS B   3      -1.020  20.284  16.463  1.00 17.69 LIG 0.20  C 
ATOM     16 OXT  LYS B   3      -1.147  19.621  17.468  1.00 15.19 LIG-0.65  OA
ATOM     17 O    LYS B   3      -1.617  21.363  16.335  1.00 19.25 LIG-0.65  OA
ENDBRANCH 6 15
ENDBRANCH 3 6
ENDBRANCH 1 2
BRANCH 1 18
ATOM     18  CB  CYS B   2       4.056  21.667  16.468  1.00 11.90 LIG 0.10  C 
BRANCH 18 19
ATOM     19 SG   CYS B   2       3.076  22.000  18.024  1.00 13.34 LIG-0.18  SA
ATOM     20 HG   CYS B   2       2.302  21.102  18.209  1.00 13.34 LIG 0.10  HD
ENDBRANCH 18 19
ENDBRANCH 1 18
BRANCH 1 21
ATOM     21  N   CYS B   2       4.857  19.711  15.163  1.00 10.67 LIG-0.34  N 
ATOM     22 H    CYS B   2       5.335  20.325  14.799  1.00 10.67 LIG 0.16  HD
ATOM     23  C   LYS B   1       5.107  18.445  14.997  1.00  9.81 LIG 0.25  C 
ATOM     24 O    LYS B   1       4.478  17.570  15.591  1.00 12.59 LIG-0.27  OA
BRANCH 23 25
ATOM     25  CA  LYS B   1       6.325  18.042  14.171  1.00 10.58 LIG 0.27  C 
BRANCH 25 26
ATOM     26  N   LYS B   1       6.728  16.625  14.500  1.00  8.28 LIG-0.07  N 
ATOM     27 H1   LYS B   1       6.704  16.130  13.761  1.00  8.28 LIG 0.28  HD
ATOM     28 H3   LYS B   1       6.164  16.288  15.101  1.00  8.28 LIG 0.28  HD
ATOM     29 H2   LYS B   1       7.553  16.620  14.833  1.00  8.28 LIG 0.28  HD
ENDBRANCH 25 26
BRANCH 25 30
ATOM     30  CB  LYS B   1       5.985  18.206  12.680  1.00 12.65 LIG 0.04  C 
BRANCH 30 31
ATOM     31  CG  LYS B   1       7.167  18.187  11.704  1.00 13.69 LIG 0.00  C 
BRANCH 31 32
ATOM     32  CD  LYS B   1       8.228  19.250  12.090  1.00 12.46 LIG 0.03  C 
BRANCH 32 33
ATOM     33  CE  LYS B   1       8.976  19.726  10.810  1.00 14.43 LIG 0.23  C 
BRANCH 33 34
ATOM     34  NZ  LYS B   1       8.204  20.937  10.343  1.00 15.78 LIG-0.08  N 
ATOM     35 HZ3  LYS B   1       7.386  20.920  10.691  1.00 15.78 LIG 0.27  HD
ATOM     36 HZ1  LYS B   1       8.623  21.676  10.608  1.00 15.78 LIG 0.27  HD
ATOM     37 HZ2  LYS B   1       8.149  20.930   9.454  1.00 15.78 LIG 0.27  HD
ENDBRANCH 33 34
ENDBRANCH 32 33
ENDBRANCH 31 32
ENDBRANCH 30 31
ENDBRANCH 25 30
ENDBRANCH 23 25
ENDBRANCH 1 21
TORSDOF 18
ENDMDL
