MODEL 1
USER: ADFR SOLUTION from run 82
USER: SCORE 23.040837 LL:  -1.191 LR: -21.945 RR:   0.000 FEB: -16.277
USER: RMSD 1.379702
USER: SEED 81
USER: STATUS no improvement in best in 3 clusters for 5 generations
USER: GENES 21
USER: genes 0 Translation |==|  0.60464 0.59174 0.54127
USER: genes 1 Rotation |==|  0.46708 0.53714 0.46936 0.99659
USER: genes 2 Torsion [N]-CA--C-[N] |==|  0.35000
USER: genes 3 Torsion [C]-N--CA-[CB] |==|  0.28437
USER: genes 4 Torsion [N]-CA--CB-[CG] |==|  0.61662
USER: genes 5 Torsion [CA]-CB--CG-[CD] |==|  0.52301
USER: genes 6 Torsion [CB]-CG--CD-[CE] |==|  0.47289
USER: genes 7 Torsion [CG]-CD--CE-[NZ] |==|  0.22745
USER: genes 8 Torsion [CD]-CE--NZ-[HZ3] |==|  0.11008
USER: genes 9 Torsion [N]-CA--C-[O] |==|  0.76097
USER: genes 10 Torsion [C]-CA--CB-[CG] |==|  0.30197
USER: genes 11 Torsion [CA]-CB--CG-[SD] |==|  0.92466
USER: genes 12 Torsion [CB]-CG--SD-[CE] |==|  0.32471
USER: genes 13 Torsion [C]-CA--N-[C] |==|  0.75804
USER: genes 14 Torsion [N]-C--CA-[N] |==|  0.36803
USER: genes 15 Torsion [C]-CA--CB-[CG] |==|  0.21825
USER: genes 16 Torsion [CA]-CB--CG-[CD] |==|  0.22241
USER: genes 17 Torsion [CB]-CG--CD-[CE] |==|  0.81404
USER: genes 18 Torsion [CG]-CD--CE-[NZ] |==|  0.25051
USER: genes 19 Torsion [CD]-CE--NZ-[HZ1] |==|  0.62682
USER: genes 20 Torsion [C]-CA--N-[H3] |==|  0.81207
ROOT
ATOM      1  CA  MET B   2       4.010  20.149  15.747  1.00  6.97 LIG 0.18  C 
ENDROOT
BRANCH 1 2
ATOM      2  C   MET B   2       2.603  20.075  15.196  1.00  8.68 LIG 0.24  C 
ATOM      3 O    MET B   2       2.392  20.359  14.016  1.00  9.39 LIG-0.27  OA
ATOM      4  N   LYS B   3       1.644  19.769  16.088  1.00  6.67 LIG-0.34  N 
ATOM      5 H    LYS B   3       1.784  19.574  16.913  1.00  6.67 LIG 0.16  HD
BRANCH 4 6
ATOM      6  CA  LYS B   3       0.246  19.752  15.671  1.00  9.86 LIG 0.18  C 
BRANCH 6 7
ATOM      7  CB  LYS B   3      -0.318  18.345  15.441  1.00 11.74 LIG 0.04  C 
BRANCH 7 8
ATOM      8  CG  LYS B   3      -1.158  18.500  14.143  1.00 14.43 LIG 0.00  C 
BRANCH 8 9
ATOM      9  CD  LYS B   3      -1.963  17.266  13.854  1.00 17.61 LIG 0.03  C 
BRANCH 9 10
ATOM     10  CE  LYS B   3      -2.952  17.535  12.719  1.00 19.20 LIG 0.23  C 
BRANCH 10 11
ATOM     11  NZ  LYS B   3      -2.155  17.379  11.459  1.00 20.87 LIG-0.08  N 
ATOM     12 HZ3  LYS B   3      -1.596  16.692  11.544  1.00 20.87 LIG 0.27  HD
ATOM     13 HZ1  LYS B   3      -2.706  17.229  10.776  1.00 20.87 LIG 0.27  HD
ATOM     14 HZ2  LYS B   3      -1.691  18.123  11.308  1.00 20.87 LIG 0.27  HD
ENDBRANCH 10 11
ENDBRANCH 9 10
ENDBRANCH 8 9
ENDBRANCH 7 8
ENDBRANCH 6 7
BRANCH 6 15
ATOM     15  C   LYS B   3      -0.641  20.440  16.721  1.00 12.85 LIG 0.20  C 
ATOM     16 O    LYS B   3      -1.030  19.689  17.660  1.00 12.91 LIG-0.65  OA
ATOM     17 OXT  LYS B   3      -1.034  21.595  16.535  1.00 11.49 LIG-0.65  OA
ENDBRANCH 6 15
ENDBRANCH 4 6
ENDBRANCH 1 2
BRANCH 1 18
ATOM     18  CB  MET B   2       4.497  21.607  15.523  1.00  8.88 LIG 0.04  C 
BRANCH 18 19
ATOM     19  CG  MET B   2       4.571  22.352  16.873  1.00 12.36 LIG 0.08  C 
BRANCH 19 20
ATOM     20 SD   MET B   2       3.387  21.632  18.033  1.00 15.55 LIG-0.17  SA
ATOM     21  CE  MET B   2       4.476  21.009  19.305  1.00 16.27 LIG 0.09  C 
ENDBRANCH 19 20
ENDBRANCH 18 19
ENDBRANCH 1 18
BRANCH 1 22
ATOM     22  N   MET B   2       4.941  19.285  14.999  1.00  7.01 LIG-0.35  N 
ATOM     23  C   LYS B   1       5.120  18.005  15.299  1.00  7.04 LIG 0.25  C 
ATOM     24 O    LYS B   1       4.593  17.442  16.269  1.00  8.63 LIG-0.27  OA
ATOM     25 H    MET B   2       5.350  19.684  14.357  1.00  7.01 LIG 0.16  HD
BRANCH 23 26
ATOM     26  CA  LYS B   1       6.125  17.261  14.436  1.00  7.11 LIG 0.27  C 
BRANCH 26 27
ATOM     27  CB  LYS B   1       5.465  16.407  13.339  1.00  9.17 LIG 0.04  C 
BRANCH 27 28
ATOM     28  CG  LYS B   1       4.982  17.148  12.105  1.00  9.41 LIG 0.00  C 
BRANCH 28 29
ATOM     29  CD  LYS B   1       6.146  17.444  11.135  1.00  9.76 LIG 0.03  C 
BRANCH 29 30
ATOM     30  CE  LYS B   1       7.177  18.433  11.660  1.00 11.82 LIG 0.23  C 
BRANCH 30 31
ATOM     31  NZ  LYS B   1       8.312  17.817  12.410  1.00 12.32 LIG-0.08  N 
ATOM     32 HZ1  LYS B   1       8.459  18.278  13.157  1.00 12.32 LIG 0.27  HD
ATOM     33 HZ2  LYS B   1       8.109  16.975  12.616  1.00 12.32 LIG 0.27  HD
ATOM     34 HZ3  LYS B   1       9.044  17.830  11.904  1.00 12.32 LIG 0.27  HD
ENDBRANCH 30 31
ENDBRANCH 29 30
ENDBRANCH 28 29
ENDBRANCH 27 28
ENDBRANCH 26 27
BRANCH 26 35
ATOM     35  N   LYS B   1       7.075  16.469  15.291  1.00  7.84 LIG-0.07  N 
ATOM     36 H1   LYS B   1       6.612  15.957  15.853  1.00  7.84 LIG 0.28  HD
ATOM     37 H3   LYS B   1       7.593  17.025  15.754  1.00  7.84 LIG 0.28  HD
ATOM     38 H2   LYS B   1       7.583  15.954  14.771  1.00  7.84 LIG 0.28  HD
ENDBRANCH 26 35
ENDBRANCH 23 26
ENDBRANCH 1 22
TORSDOF 19
ENDMDL
MODEL 2
USER: ADFR SOLUTION from run 23
USER: SCORE 21.337044 LL:  -1.068 LR: -21.054 RR:   0.000 FEB: -15.386
USER: RMSD 6.073234
USER: SEED 22
USER: STATUS no improvement in best in 2 clusters for 5 generations
USER: GENES 21
USER: genes 0 Translation |==|  0.57715 0.57741 0.48894
USER: genes 1 Rotation |==|  0.90676 0.28065 0.31058 0.52353
USER: genes 2 Torsion [N]-CA--C-[N] |==|  0.79631
USER: genes 3 Torsion [C]-N--CA-[CB] |==|  0.85957
USER: genes 4 Torsion [N]-CA--CB-[CG] |==|  0.44509
USER: genes 5 Torsion [CA]-CB--CG-[CD] |==|  0.43980
USER: genes 6 Torsion [CB]-CG--CD-[CE] |==|  0.85488
USER: genes 7 Torsion [CG]-CD--CE-[NZ] |==|  0.34086
USER: genes 8 Torsion [CD]-CE--NZ-[HZ3] |==|  0.11322
USER: genes 9 Torsion [N]-CA--C-[O] |==|  0.31174
USER: genes 10 Torsion [C]-CA--CB-[CG] |==|  0.15967
USER: genes 11 Torsion [CA]-CB--CG-[SD] |==|  0.44164
USER: genes 12 Torsion [CB]-CG--SD-[CE] |==|  0.60398
USER: genes 13 Torsion [C]-CA--N-[C] |==|  0.21099
USER: genes 14 Torsion [N]-C--CA-[N] |==|  0.54985
USER: genes 15 Torsion [C]-CA--CB-[CG] |==|  0.81567
USER: genes 16 Torsion [CA]-CB--CG-[CD] |==|  0.60111
USER: genes 17 Torsion [CB]-CG--CD-[CE] |==|  0.36064
USER: genes 18 Torsion [CG]-CD--CE-[NZ] |==|  0.83198
USER: genes 19 Torsion [CD]-CE--NZ-[HZ1] |==|  0.79330
USER: genes 20 Torsion [C]-CA--N-[H3] |==|  0.91329
ROOT
ATOM      1  CA  MET B   2       3.474  19.902  14.844  1.00  6.97 LIG 0.18  C 
ENDROOT
BRANCH 1 2
ATOM      2  C   MET B   2       3.659  20.770  16.070  1.00  8.68 LIG 0.24  C 
ATOM      3 O    MET B   2       3.711  21.995  15.949  1.00  9.39 LIG-0.27  OA
ATOM      4  N   LYS B   3       3.838  20.112  17.229  1.00  6.67 LIG-0.34  N 
ATOM      5 H    LYS B   3       3.808  19.258  17.319  1.00  6.67 LIG 0.16  HD
BRANCH 4 6
ATOM      6  CA  LYS B   3       4.105  20.859  18.453  1.00  9.86 LIG 0.18  C 
BRANCH 6 7
ATOM      7  CB  LYS B   3       5.239  21.883  18.322  1.00 11.74 LIG 0.04  C 
BRANCH 7 8
ATOM      8  CG  LYS B   3       4.986  22.855  19.509  1.00 14.43 LIG 0.00  C 
BRANCH 8 9
ATOM      9  CD  LYS B   3       6.231  23.607  19.883  1.00 17.61 LIG 0.03  C 
BRANCH 9 10
ATOM     10  CE  LYS B   3       7.387  22.633  20.113  1.00 19.20 LIG 0.23  C 
BRANCH 10 11
ATOM     11  NZ  LYS B   3       8.460  23.067  19.160  1.00 20.87 LIG-0.08  N 
ATOM     12 HZ3  LYS B   3       8.503  23.956  19.146  1.00 20.87 LIG 0.27  HD
ATOM     13 HZ1  LYS B   3       9.243  22.737  19.424  1.00 20.87 LIG 0.27  HD
ATOM     14 HZ2  LYS B   3       8.272  22.766  18.344  1.00 20.87 LIG 0.27  HD
ENDBRANCH 10 11
ENDBRANCH 9 10
ENDBRANCH 8 9
ENDBRANCH 7 8
ENDBRANCH 6 7
BRANCH 6 15
ATOM     15  C   LYS B   3       2.849  21.615  18.912  1.00 12.85 LIG 0.20  C 
ATOM     16 O    LYS B   3       2.340  21.192  19.988  1.00 12.91 LIG-0.65  OA
ATOM     17 OXT  LYS B   3       2.336  22.463  18.176  1.00 11.49 LIG-0.65  OA
ENDBRANCH 6 15
ENDBRANCH 4 6
ENDBRANCH 1 2
BRANCH 1 18
ATOM     18  CB  MET B   2       2.525  18.745  15.259  1.00  8.88 LIG 0.04  C 
BRANCH 18 19
ATOM     19  CG  MET B   2       1.195  19.319  15.790  1.00 12.36 LIG 0.08  C 
BRANCH 19 20
ATOM     20 SD   MET B   2      -0.097  18.059  15.689  1.00 15.55 LIG-0.17  SA
ATOM     21  CE  MET B   2      -1.513  19.044  15.225  1.00 16.27 LIG 0.09  C 
ENDBRANCH 19 20
ENDBRANCH 18 19
ENDBRANCH 1 18
BRANCH 1 22
ATOM     22  N   MET B   2       4.737  19.269  14.423  1.00  7.01 LIG-0.35  N 
ATOM     23  C   LYS B   1       5.261  18.232  15.062  1.00  7.04 LIG 0.25  C 
ATOM     24 O    LYS B   1       4.789  17.751  16.104  1.00  8.63 LIG-0.27  OA
ATOM     25 H    MET B   2       5.097  19.632  13.732  1.00  7.01 LIG 0.16  HD
BRANCH 23 26
ATOM     26  CA  LYS B   1       6.574  17.709  14.505  1.00  7.11 LIG 0.27  C 
BRANCH 26 27
ATOM     27  CB  LYS B   1       6.666  17.818  12.972  1.00  9.17 LIG 0.04  C 
BRANCH 27 28
ATOM     28  CG  LYS B   1       5.709  16.950  12.174  1.00  9.41 LIG 0.00  C 
BRANCH 28 29
ATOM     29  CD  LYS B   1       6.373  16.421  10.885  1.00  9.76 LIG 0.03  C 
BRANCH 29 30
ATOM     30  CE  LYS B   1       6.238  14.921  10.668  1.00 11.82 LIG 0.23  C 
BRANCH 30 31
ATOM     31  NZ  LYS B   1       6.845  14.075  11.738  1.00 12.32 LIG-0.08  N 
ATOM     32 HZ1  LYS B   1       7.731  14.087  11.660  1.00 12.32 LIG 0.27  HD
ATOM     33 HZ2  LYS B   1       6.613  14.394  12.536  1.00 12.32 LIG 0.27  HD
ATOM     34 HZ3  LYS B   1       6.552  13.238  11.657  1.00 12.32 LIG 0.27  HD
ENDBRANCH 30 31
ENDBRANCH 29 30
ENDBRANCH 28 29
ENDBRANCH 27 28
ENDBRANCH 26 27
BRANCH 26 35
ATOM     35  N   LYS B   1       6.845  16.316  15.001  1.00  7.84 LIG-0.07  N 
ATOM     36 H1   LYS B   1       6.476  15.726  14.446  1.00  7.84 LIG 0.28  HD
ATOM     37 H3   LYS B   1       6.495  16.217  15.814  1.00  7.84 LIG 0.28  HD
ATOM     38 H2   LYS B   1       7.724  16.179  15.038  1.00  7.84 LIG 0.28  HD
ENDBRANCH 26 35
ENDBRANCH 23 26
ENDBRANCH 1 22
TORSDOF 19
ENDMDL
MODEL 3
USER: ADFR SOLUTION from run 4
USER: SCORE 22.114442 LL:  -1.841 LR: -20.372 RR:   0.000 FEB: -14.704
USER: RMSD 1.201469
USER: SEED 933909
USER: STATUS no improvement in best in 1 clusters for 5 generations
USER: GENES 21
USER: genes 0 Translation |==|  0.58834 0.59000 0.54106
USER: genes 1 Rotation |==|  0.51398 0.52157 0.48844 0.99921
USER: genes 2 Torsion [N]-CA--C-[N] |==|  0.37284
USER: genes 3 Torsion [C]-N--CA-[CB] |==|  0.25956
USER: genes 4 Torsion [N]-CA--CB-[CG] |==|  0.59668
USER: genes 5 Torsion [CA]-CB--CG-[CD] |==|  0.50928
USER: genes 6 Torsion [CB]-CG--CD-[CE] |==|  0.19798
USER: genes 7 Torsion [CG]-CD--CE-[NZ] |==|  0.27512
USER: genes 8 Torsion [CD]-CE--NZ-[HZ3] |==|  0.74813
USER: genes 9 Torsion [N]-CA--C-[O] |==|  0.27197
USER: genes 10 Torsion [C]-CA--CB-[CG] |==|  0.49313
USER: genes 11 Torsion [CA]-CB--CG-[SD] |==|  0.69206
USER: genes 12 Torsion [CB]-CG--SD-[CE] |==|  0.14415
USER: genes 13 Torsion [C]-CA--N-[C] |==|  0.74451
USER: genes 14 Torsion [N]-C--CA-[N] |==|  0.39006
USER: genes 15 Torsion [C]-CA--CB-[CG] |==|  0.74451
USER: genes 16 Torsion [CA]-CB--CG-[CD] |==|  0.47292
USER: genes 17 Torsion [CB]-CG--CD-[CE] |==|  0.36388
USER: genes 18 Torsion [CG]-CD--CE-[NZ] |==|  0.24662
USER: genes 19 Torsion [CD]-CE--NZ-[HZ1] |==|  0.60501
USER: genes 20 Torsion [C]-CA--N-[H3] |==|  0.13373
ROOT
ATOM      1  CA  MET B   2       3.693  20.120  15.743  1.00  6.97 LIG 0.18  C 
ENDROOT
BRANCH 1 2
ATOM      2  C   MET B   2       2.331  20.067  15.084  1.00  8.68 LIG 0.24  C 
ATOM      3 O    MET B   2       2.207  20.418  13.910  1.00  9.39 LIG-0.27  OA
ATOM      4  N   LYS B   3       1.312  19.703  15.882  1.00  6.67 LIG-0.34  N 
ATOM      5 H    LYS B   3       1.391  19.462  16.703  1.00  6.67 LIG 0.16  HD
BRANCH 4 6
ATOM      6  CA  LYS B   3      -0.051  19.701  15.361  1.00  9.86 LIG 0.18  C 
BRANCH 6 7
ATOM      7  CB  LYS B   3      -0.503  18.344  14.808  1.00 11.74 LIG 0.04  C 
BRANCH 7 8
ATOM      8  CG  LYS B   3      -1.418  18.728  13.611  1.00 14.43 LIG 0.00  C 
BRANCH 8 9
ATOM      9  CD  LYS B   3      -2.035  17.516  12.975  1.00 17.61 LIG 0.03  C 
BRANCH 9 10
ATOM     10  CE  LYS B   3      -3.097  16.918  13.898  1.00 19.20 LIG 0.23  C 
BRANCH 10 11
ATOM     11  NZ  LYS B   3      -4.405  17.427  13.372  1.00 20.87 LIG-0.08  N 
ATOM     12 HZ3  LYS B   3      -4.610  18.193  13.777  1.00 20.87 LIG 0.27  HD
ATOM     13 HZ1  LYS B   3      -4.340  17.565  12.495  1.00 20.87 LIG 0.27  HD
ATOM     14 HZ2  LYS B   3      -5.043  16.827  13.532  1.00 20.87 LIG 0.27  HD
ENDBRANCH 10 11
ENDBRANCH 9 10
ENDBRANCH 8 9
ENDBRANCH 7 8
ENDBRANCH 6 7
BRANCH 6 15
ATOM     15  C   LYS B   3      -1.051  20.111  16.453  1.00 12.85 LIG 0.20  C 
ATOM     16 O    LYS B   3      -1.400  21.325  16.423  1.00 12.91 LIG-0.65  OA
ATOM     17 OXT  LYS B   3      -1.342  19.317  17.352  1.00 11.49 LIG-0.65  OA
ENDBRANCH 6 15
ENDBRANCH 4 6
ENDBRANCH 1 2
BRANCH 1 18
ATOM     18  CB  MET B   2       4.085  21.620  15.831  1.00  8.88 LIG 0.04  C 
BRANCH 18 19
ATOM     19  CG  MET B   2       5.441  21.769  16.551  1.00 12.36 LIG 0.08  C 
BRANCH 19 20
ATOM     20 SD   MET B   2       5.194  22.545  18.165  1.00 15.55 LIG-0.17  SA
ATOM     21  CE  MET B   2       3.917  21.508  18.861  1.00 16.27 LIG 0.09  C 
ENDBRANCH 19 20
ENDBRANCH 18 19
ENDBRANCH 1 18
BRANCH 1 22
ATOM     22  N   MET B   2       4.728  19.470  14.920  1.00  7.01 LIG-0.35  N 
ATOM     23  C   LYS B   1       5.047  18.190  15.056  1.00  7.04 LIG 0.25  C 
ATOM     24 O    LYS B   1       4.569  17.447  15.927  1.00  8.63 LIG-0.27  OA
ATOM     25 H    MET B   2       5.101  19.994  14.349  1.00  7.01 LIG 0.16  HD
BRANCH 23 26
ATOM     26  CA  LYS B   1       6.145  17.682  14.137  1.00  7.11 LIG 0.27  C 
BRANCH 26 27
ATOM     27  CB  LYS B   1       5.607  17.087  12.824  1.00  9.17 LIG 0.04  C 
BRANCH 27 28
ATOM     28  CG  LYS B   1       5.340  15.592  12.819  1.00  9.41 LIG 0.00  C 
BRANCH 28 29
ATOM     29  CD  LYS B   1       4.584  15.160  11.544  1.00  9.76 LIG 0.03  C 
BRANCH 29 30
ATOM     30  CE  LYS B   1       5.183  13.962  10.823  1.00 11.82 LIG 0.23  C 
BRANCH 30 31
ATOM     31  NZ  LYS B   1       4.678  12.634  11.285  1.00 12.32 LIG-0.08  N 
ATOM     32 HZ1  LYS B   1       5.346  12.047  11.285  1.00 12.32 LIG 0.27  HD
ATOM     33 HZ2  LYS B   1       4.351  12.712  12.109  1.00 12.32 LIG 0.27  HD
ATOM     34 HZ3  LYS B   1       4.036  12.354  10.736  1.00 12.32 LIG 0.27  HD
ENDBRANCH 30 31
ENDBRANCH 29 30
ENDBRANCH 28 29
ENDBRANCH 27 28
ENDBRANCH 26 27
BRANCH 26 35
ATOM     35  N   LYS B   1       7.056  16.736  14.869  1.00  7.84 LIG-0.07  N 
ATOM     36 H1   LYS B   1       7.582  16.319  14.285  1.00  7.84 LIG 0.28  HD
ATOM     37 H3   LYS B   1       6.568  16.136  15.311  1.00  7.84 LIG 0.28  HD
ATOM     38 H2   LYS B   1       7.557  17.193  15.446  1.00  7.84 LIG 0.28  HD
ENDBRANCH 26 35
ENDBRANCH 23 26
ENDBRANCH 1 22
TORSDOF 19
ENDMDL
