MODEL 1
USER: ADFR SOLUTION from run 104
USER: SCORE 22.505431 LL:  -1.586 LR: -20.943 RR:   0.000 FEB: -15.574
USER: RMSD 1.135618
USER: SEED 103
USER: STATUS no improvement in best in 4 clusters for 5 generations
USER: GENES 20
USER: genes 0 Translation |==|  0.61890 0.58994 0.62642
USER: genes 1 Rotation |==|  0.50520 0.49373 0.50442 0.99991
USER: genes 2 Torsion [N]-CA--C-[N] |==|  0.38581
USER: genes 3 Torsion [C]-N--CA-[CB] |==|  0.27825
USER: genes 4 Torsion [N]-CA--CB-[CG] |==|  0.56733
USER: genes 5 Torsion [CA]-CB--CG-[CD] |==|  0.61614
USER: genes 6 Torsion [CB]-CG--CD-[CE] |==|  0.54298
USER: genes 7 Torsion [CG]-CD--CE-[NZ] |==|  0.12164
USER: genes 8 Torsion [CD]-CE--NZ-[HZ3] |==|  0.15079
USER: genes 9 Torsion [N]-CA--C-[O] |==|  0.24777
USER: genes 10 Torsion [C]-CA--CB-[CG1] |==|  0.21984
USER: genes 11 Torsion [CA]-CB--CG1-[CD1] |==|  0.69743
USER: genes 12 Torsion [C]-CA--N-[C] |==|  0.80010
USER: genes 13 Torsion [N]-C--CA-[N] |==|  0.43234
USER: genes 14 Torsion [C]-CA--N-[H1] |==|  0.91387
USER: genes 15 Torsion [C]-CA--CB-[CG] |==|  0.77985
USER: genes 16 Torsion [CA]-CB--CG-[CD] |==|  0.60055
USER: genes 17 Torsion [CB]-CG--CD-[CE] |==|  0.38576
USER: genes 18 Torsion [CG]-CD--CE-[NZ] |==|  0.85576
USER: genes 19 Torsion [CD]-CE--NZ-[HZ1] |==|  0.44268
ROOT
ATOM      1  CA  ILE B   2       3.967  20.316  16.247  1.00 17.45 LIG 0.18  C 
ENDROOT
BRANCH 1 2
ATOM      2  C   ILE B   2       2.701  20.319  15.374  1.00 17.77 LIG 0.24  C 
ATOM      3 O    ILE B   2       2.720  20.571  14.179  1.00 17.30 LIG-0.27  OA
ATOM      4  N   LYS B   3       1.573  19.988  16.062  1.00 18.03 LIG-0.34  N 
ATOM      5 H    LYS B   3       1.566  19.769  16.894  1.00 18.03 LIG 0.16  HD
BRANCH 4 6
ATOM      6  CA  LYS B   3       0.280  19.980  15.436  1.00 18.65 LIG 0.18  C 
BRANCH 6 7
ATOM      7  CB  LYS B   3      -0.230  18.601  15.022  1.00 18.38 LIG 0.04  C 
BRANCH 7 8
ATOM      8  CG  LYS B   3      -1.256  18.811  13.869  1.00 17.78 LIG 0.00  C 
BRANCH 8 9
ATOM      9  CD  LYS B   3      -2.445  17.876  14.105  1.00 19.84 LIG 0.03  C 
BRANCH 9 10
ATOM     10  CE  LYS B   3      -3.256  17.798  12.778  1.00 23.06 LIG 0.23  C 
BRANCH 10 11
ATOM     11  NZ  LYS B   3      -2.306  17.651  11.633  1.00 27.49 LIG-0.08  N 
ATOM     12 HZ3  LYS B   3      -1.773  16.952  11.777  1.00 27.49 LIG 0.27  HD
ATOM     13 HZ2  LYS B   3      -1.815  18.389  11.558  1.00 27.49 LIG 0.27  HD
ATOM     14 HZ1  LYS B   3      -2.765  17.522  10.881  1.00 27.49 LIG 0.27  HD
ENDBRANCH 10 11
ENDBRANCH 9 10
ENDBRANCH 8 9
ENDBRANCH 7 8
ENDBRANCH 6 7
BRANCH 6 15
ATOM     15  C   LYS B   3      -0.779  20.539  16.429  1.00 19.41 LIG 0.20  C 
ATOM     16 O    LYS B   3      -0.958  21.748  16.404  1.00 18.76 LIG-0.65  OA
ATOM     17 OXT  LYS B   3      -1.350  19.825  17.256  1.00 17.05 LIG-0.65  OA
ENDBRANCH 6 15
ENDBRANCH 4 6
ENDBRANCH 1 2
BRANCH 1 18
ATOM     18  CB  ILE B   2       4.189  21.719  16.787  1.00 18.07 LIG 0.01  C 
ATOM     19  CG2 ILE B   2       3.821  22.830  15.770  1.00 16.68 LIG 0.01  C 
BRANCH 18 20
ATOM     20  CG1 ILE B   2       3.212  21.906  17.993  1.00 16.61 LIG 0.00  C 
ATOM     21  CD1 ILE B   2       2.094  22.870  17.632  1.00 19.99 LIG 0.01  C 
ENDBRANCH 18 20
ENDBRANCH 1 18
BRANCH 1 22
ATOM     22  N   ILE B   2       5.124  19.732  15.577  1.00 14.52 LIG-0.35  N 
ATOM     23  C   LYS B   1       5.263  18.463  15.337  1.00 13.52 LIG 0.25  C 
ATOM     24 O    LYS B   1       4.461  17.642  15.780  1.00 12.92 LIG-0.27  OA
ATOM     25 H    ILE B   2       5.716  20.315  15.353  1.00 14.52 LIG 0.16  HD
BRANCH 23 26
ATOM     26  CA  LYS B   1       6.565  17.965  14.677  1.00 10.84 LIG 0.27  C 
BRANCH 26 27
ATOM     27  N   LYS B   1       6.809  16.514  15.007  1.00 11.78 LIG-0.07  N 
ATOM     28 H3   LYS B   1       7.684  16.351  15.006  1.00 11.78 LIG 0.28  HD
ATOM     29 H2   LYS B   1       6.412  16.000  14.397  1.00 11.78 LIG 0.28  HD
ATOM     30 H1   LYS B   1       6.475  16.332  15.811  1.00 11.78 LIG 0.28  HD
ENDBRANCH 26 27
BRANCH 26 31
ATOM     31  CB  LYS B   1       6.523  18.200  13.173  1.00 14.95 LIG 0.04  C 
BRANCH 31 32
ATOM     32  CG  LYS B   1       5.737  17.228  12.315  1.00 16.40 LIG 0.00  C 
BRANCH 32 33
ATOM     33  CD  LYS B   1       6.326  16.924  10.954  1.00 17.75 LIG 0.03  C 
BRANCH 33 34
ATOM     34  CE  LYS B   1       6.230  15.428  10.558  1.00 20.84 LIG 0.23  C 
BRANCH 34 35
ATOM     35  NZ  LYS B   1       6.809  14.595  11.690  1.00 18.68 LIG-0.08  N 
ATOM     36 HZ1  LYS B   1       6.504  13.761  11.631  1.00 18.68 LIG 0.27  HD
ATOM     37 HZ3  LYS B   1       6.566  14.945  12.471  1.00 18.68 LIG 0.27  HD
ATOM     38 HZ2  LYS B   1       7.697  14.591  11.631  1.00 18.68 LIG 0.27  HD
ENDBRANCH 34 35
ENDBRANCH 33 34
ENDBRANCH 32 33
ENDBRANCH 31 32
ENDBRANCH 26 31
ENDBRANCH 23 26
ENDBRANCH 1 22
TORSDOF 18
ENDMDL
MODEL 2
USER: ADFR SOLUTION from run 160
USER: SCORE 21.577113 LL:  -1.407 LR: -20.226 RR:   0.000 FEB: -14.856
USER: RMSD 2.127489
USER: SEED 159
USER: STATUS no improvement in best in 3 clusters for 5 generations
USER: GENES 20
USER: genes 0 Translation |==|  0.67224 0.59400 0.63619
USER: genes 1 Rotation |==|  0.47679 0.57518 0.43295 0.98920
USER: genes 2 Torsion [N]-CA--C-[N] |==|  0.41831
USER: genes 3 Torsion [C]-N--CA-[CB] |==|  0.23571
USER: genes 4 Torsion [N]-CA--CB-[CG] |==|  0.60619
USER: genes 5 Torsion [CA]-CB--CG-[CD] |==|  0.62556
USER: genes 6 Torsion [CB]-CG--CD-[CE] |==|  0.57626
USER: genes 7 Torsion [CG]-CD--CE-[NZ] |==|  0.46084
USER: genes 8 Torsion [CD]-CE--NZ-[HZ3] |==|  0.94173
USER: genes 9 Torsion [N]-CA--C-[O] |==|  0.41822
USER: genes 10 Torsion [C]-CA--CB-[CG1] |==|  0.28162
USER: genes 11 Torsion [CA]-CB--CG1-[CD1] |==|  0.66242
USER: genes 12 Torsion [C]-CA--N-[C] |==|  0.77256
USER: genes 13 Torsion [N]-C--CA-[N] |==|  0.34659
USER: genes 14 Torsion [C]-CA--N-[H1] |==|  0.38866
USER: genes 15 Torsion [C]-CA--CB-[CG] |==|  0.21998
USER: genes 16 Torsion [CA]-CB--CG-[CD] |==|  0.20548
USER: genes 17 Torsion [CB]-CG--CD-[CE] |==|  0.79487
USER: genes 18 Torsion [CG]-CD--CE-[NZ] |==|  0.23514
USER: genes 19 Torsion [CD]-CE--NZ-[HZ1] |==|  0.64426
ROOT
ATOM      1  CA  ILE B   2       5.047  20.385  16.401  1.00 17.45 LIG 0.18  C 
ENDROOT
BRANCH 1 2
ATOM      2  C   ILE B   2       3.608  20.706  15.963  1.00 17.77 LIG 0.24  C 
ATOM      3 O    ILE B   2       3.244  20.662  14.798  1.00 17.30 LIG-0.27  OA
ATOM      4  N   LYS B   3       2.787  21.016  17.004  1.00 18.03 LIG-0.34  N 
ATOM      5 H    LYS B   3       3.032  21.006  17.829  1.00 18.03 LIG 0.16  HD
BRANCH 4 6
ATOM      6  CA  LYS B   3       1.415  21.392  16.799  1.00 18.65 LIG 0.18  C 
BRANCH 6 7
ATOM      7  CB  LYS B   3       0.436  20.225  16.680  1.00 18.38 LIG 0.04  C 
BRANCH 7 8
ATOM      8  CG  LYS B   3      -0.612  20.607  15.592  1.00 17.78 LIG 0.00  C 
BRANCH 8 9
ATOM      9  CD  LYS B   3      -2.005  20.255  16.120  1.00 19.84 LIG 0.03  C 
BRANCH 9 10
ATOM     10  CE  LYS B   3      -2.916  19.962  14.891  1.00 23.06 LIG 0.23  C 
BRANCH 10 11
ATOM     11  NZ  LYS B   3      -4.166  19.289  15.359  1.00 27.49 LIG-0.08  N 
ATOM     12 HZ3  LYS B   3      -4.025  18.922  16.158  1.00 27.49 LIG 0.27  HD
ATOM     13 HZ2  LYS B   3      -4.399  18.656  14.778  1.00 27.49 LIG 0.27  HD
ATOM     14 HZ1  LYS B   3      -4.821  19.889  15.421  1.00 27.49 LIG 0.27  HD
ENDBRANCH 10 11
ENDBRANCH 9 10
ENDBRANCH 8 9
ENDBRANCH 7 8
ENDBRANCH 6 7
BRANCH 6 15
ATOM     15  C   LYS B   3       0.922  22.232  18.012  1.00 19.41 LIG 0.20  C 
ATOM     16 O    LYS B   3       0.051  23.058  17.779  1.00 18.76 LIG-0.65  OA
ATOM     17 OXT  LYS B   3       1.431  22.139  19.131  1.00 17.05 LIG-0.65  OA
ENDBRANCH 6 15
ENDBRANCH 4 6
ENDBRANCH 1 2
BRANCH 1 18
ATOM     18  CB  ILE B   2       5.791  21.692  16.623  1.00 18.07 LIG 0.01  C 
ATOM     19  CG2 ILE B   2       5.062  22.920  16.018  1.00 16.68 LIG 0.01  C 
BRANCH 18 20
ATOM     20  CG1 ILE B   2       5.833  21.941  18.165  1.00 16.61 LIG 0.00  C 
ATOM     21  CD1 ILE B   2       5.175  23.266  18.513  1.00 19.99 LIG 0.01  C 
ENDBRANCH 18 20
ENDBRANCH 1 18
BRANCH 1 22
ATOM     22  N   ILE B   2       5.721  19.445  15.512  1.00 14.52 LIG-0.35  N 
ATOM     23  C   LYS B   1       5.573  18.156  15.568  1.00 13.52 LIG 0.25  C 
ATOM     24 O    LYS B   1       4.933  17.631  16.478  1.00 12.92 LIG-0.27  OA
ATOM     25 H    ILE B   2       6.234  19.830  14.938  1.00 14.52 LIG 0.16  HD
BRANCH 23 26
ATOM     26  CA  LYS B   1       6.393  17.267  14.610  1.00 10.84 LIG 0.27  C 
BRANCH 26 27
ATOM     27  N   LYS B   1       7.184  16.241  15.381  1.00 11.78 LIG-0.07  N 
ATOM     28 H3   LYS B   1       6.829  16.139  16.191  1.00 11.78 LIG 0.28  HD
ATOM     29 H2   LYS B   1       8.027  16.514  15.460  1.00 11.78 LIG 0.28  HD
ATOM     30 H1   LYS B   1       7.163  15.463  14.949  1.00 11.78 LIG 0.28  HD
ENDBRANCH 26 27
BRANCH 26 31
ATOM     31  CB  LYS B   1       5.482  16.616  13.579  1.00 14.95 LIG 0.04  C 
BRANCH 31 32
ATOM     32  CG  LYS B   1       5.028  17.446  12.394  1.00 16.40 LIG 0.00  C 
BRANCH 32 33
ATOM     33  CD  LYS B   1       6.074  17.706  11.331  1.00 17.75 LIG 0.03  C 
BRANCH 33 34
ATOM     34  CE  LYS B   1       7.145  18.743  11.759  1.00 20.84 LIG 0.23  C 
BRANCH 34 35
ATOM     35  NZ  LYS B   1       8.224  18.020  12.548  1.00 18.68 LIG-0.08  N 
ATOM     36 HZ1  LYS B   1       8.356  18.439  13.322  1.00 18.68 LIG 0.27  HD
ATOM     37 HZ3  LYS B   1       8.981  18.016  12.081  1.00 18.68 LIG 0.27  HD
ATOM     38 HZ2  LYS B   1       7.967  17.182  12.704  1.00 18.68 LIG 0.27  HD
ENDBRANCH 34 35
ENDBRANCH 33 34
ENDBRANCH 32 33
ENDBRANCH 31 32
ENDBRANCH 26 31
ENDBRANCH 23 26
ENDBRANCH 1 22
TORSDOF 18
ENDMDL
MODEL 3
USER: ADFR SOLUTION from run 159
USER: SCORE 20.281734 LL:  -0.590 LR: -20.029 RR:   0.000 FEB: -14.660
USER: RMSD 6.035560
USER: SEED 158
USER: STATUS 1 or 2 clusters left
USER: GENES 20
USER: genes 0 Translation |==|  0.59294 0.59170 0.55635
USER: genes 1 Rotation |==|  0.07397 0.69830 0.65909 0.56219
USER: genes 2 Torsion [N]-CA--C-[N] |==|  0.03128
USER: genes 3 Torsion [C]-N--CA-[CB] |==|  0.59233
USER: genes 4 Torsion [N]-CA--CB-[CG] |==|  0.11963
USER: genes 5 Torsion [CA]-CB--CG-[CD] |==|  0.39756
USER: genes 6 Torsion [CB]-CG--CD-[CE] |==|  0.15355
USER: genes 7 Torsion [CG]-CD--CE-[NZ] |==|  0.23616
USER: genes 8 Torsion [CD]-CE--NZ-[HZ3] |==|  0.89635
USER: genes 9 Torsion [N]-CA--C-[O] |==|  0.34234
USER: genes 10 Torsion [C]-CA--CB-[CG1] |==|  0.22779
USER: genes 11 Torsion [CA]-CB--CG1-[CD1] |==|  0.58299
USER: genes 12 Torsion [C]-CA--N-[C] |==|  0.20944
USER: genes 13 Torsion [N]-C--CA-[N] |==|  0.54490
USER: genes 14 Torsion [C]-CA--N-[H1] |==|  0.45054
USER: genes 15 Torsion [C]-CA--CB-[CG] |==|  0.74085
USER: genes 16 Torsion [CA]-CB--CG-[CD] |==|  0.12970
USER: genes 17 Torsion [CB]-CG--CD-[CE] |==|  0.56161
USER: genes 18 Torsion [CG]-CD--CE-[NZ] |==|  0.17316
USER: genes 19 Torsion [CD]-CE--NZ-[HZ1] |==|  0.06540
ROOT
ATOM      1  CA  ILE B   2       3.441  20.346  15.143  1.00 17.45 LIG 0.18  C 
ENDROOT
BRANCH 1 2
ATOM      2  C   ILE B   2       3.186  20.718  16.613  1.00 17.77 LIG 0.24  C 
ATOM      3 O    ILE B   2       2.080  21.012  17.041  1.00 17.30 LIG-0.27  OA
ATOM      4  N   LYS B   3       4.308  20.660  17.384  1.00 18.03 LIG-0.34  N 
ATOM      5 H    LYS B   3       5.078  20.411  17.092  1.00 18.03 LIG 0.16  HD
BRANCH 4 6
ATOM      6  CA  LYS B   3       4.288  21.017  18.775  1.00 18.65 LIG 0.18  C 
BRANCH 6 7
ATOM      7  CB  LYS B   3       5.573  21.659  19.297  1.00 18.38 LIG 0.04  C 
BRANCH 7 8
ATOM      8  CG  LYS B   3       6.045  22.688  18.227  1.00 17.78 LIG 0.00  C 
BRANCH 8 9
ATOM      9  CD  LYS B   3       6.635  23.901  18.952  1.00 19.84 LIG 0.03  C 
BRANCH 9 10
ATOM     10  CE  LYS B   3       7.756  23.385  19.901  1.00 23.06 LIG 0.23  C 
BRANCH 10 11
ATOM     11  NZ  LYS B   3       9.032  23.264  19.131  1.00 27.49 LIG-0.08  N 
ATOM     12 HZ3  LYS B   3       8.856  22.976  18.307  1.00 27.49 LIG 0.27  HD
ATOM     13 HZ2  LYS B   3       9.571  22.685  19.539  1.00 27.49 LIG 0.27  HD
ATOM     14 HZ1  LYS B   3       9.429  24.059  19.087  1.00 27.49 LIG 0.27  HD
ENDBRANCH 10 11
ENDBRANCH 9 10
ENDBRANCH 8 9
ENDBRANCH 7 8
ENDBRANCH 6 7
BRANCH 6 15
ATOM     15  C   LYS B   3       3.164  22.063  19.026  1.00 19.41 LIG 0.20  C 
ATOM     16 O    LYS B   3       2.324  21.764  19.862  1.00 18.76 LIG-0.65  OA
ATOM     17 OXT  LYS B   3       3.068  23.099  18.366  1.00 17.05 LIG-0.65  OA
ENDBRANCH 6 15
ENDBRANCH 4 6
ENDBRANCH 1 2
BRANCH 1 18
ATOM     18  CB  ILE B   2       2.278  19.502  14.647  1.00 18.07 LIG 0.01  C 
ATOM     19  CG2 ILE B   2       1.681  18.580  15.741  1.00 16.68 LIG 0.01  C 
BRANCH 18 20
ATOM     20  CG1 ILE B   2       1.132  20.488  14.251  1.00 16.61 LIG 0.00  C 
ATOM     21  CD1 ILE B   2      -0.227  19.838  14.449  1.00 19.99 LIG 0.01  C 
ENDBRANCH 18 20
ENDBRANCH 1 18
BRANCH 1 22
ATOM     22  N   ILE B   2       4.758  19.758  14.920  1.00 14.52 LIG-0.35  N 
ATOM     23  C   LYS B   1       5.075  18.541  15.245  1.00 13.52 LIG 0.25  C 
ATOM     24 O    LYS B   1       4.301  17.833  15.888  1.00 12.92 LIG-0.27  OA
ATOM     25 H    ILE B   2       5.313  20.299  14.548  1.00 14.52 LIG 0.16  HD
BRANCH 23 26
ATOM     26  CA  LYS B   1       6.523  18.059  15.013  1.00 10.84 LIG 0.27  C 
BRANCH 26 27
ATOM     27  N   LYS B   1       6.600  16.554  15.072  1.00 11.78 LIG-0.07  N 
ATOM     28 H3   LYS B   1       5.906  16.203  14.640  1.00 11.78 LIG 0.28  HD
ATOM     29 H2   LYS B   1       6.583  16.290  15.922  1.00 11.78 LIG 0.28  HD
ATOM     30 H1   LYS B   1       7.356  16.280  14.691  1.00 11.78 LIG 0.28  HD
ENDBRANCH 26 27
BRANCH 26 31
ATOM     31  CB  LYS B   1       7.056  18.597  13.692  1.00 14.95 LIG 0.04  C 
BRANCH 31 32
ATOM     32  CG  LYS B   1       6.914  17.734  12.454  1.00 16.40 LIG 0.00  C 
BRANCH 32 33
ATOM     33  CD  LYS B   1       5.552  17.110  12.237  1.00 17.75 LIG 0.03  C 
BRANCH 33 34
ATOM     34  CE  LYS B   1       5.585  15.855  11.326  1.00 20.84 LIG 0.23  C 
BRANCH 34 35
ATOM     35  NZ  LYS B   1       6.434  14.793  12.006  1.00 18.68 LIG-0.08  N 
ATOM     36 HZ1  LYS B   1       6.452  14.944  12.883  1.00 18.68 LIG 0.27  HD
ATOM     37 HZ3  LYS B   1       7.262  14.823  11.683  1.00 18.68 LIG 0.27  HD
ATOM     38 HZ2  LYS B   1       6.085  13.989  11.851  1.00 18.68 LIG 0.27  HD
ENDBRANCH 34 35
ENDBRANCH 33 34
ENDBRANCH 32 33
ENDBRANCH 31 32
ENDBRANCH 26 31
ENDBRANCH 23 26
ENDBRANCH 1 22
TORSDOF 18
ENDMDL
MODEL 4
USER: ADFR SOLUTION from run 75
USER: SCORE 21.059791 LL:  -1.900 LR: -19.221 RR:   0.000 FEB: -13.852
USER: RMSD 1.801064
USER: SEED 74
USER: STATUS no improvement in best in 2 clusters for 5 generations
USER: GENES 20
USER: genes 0 Translation |==|  0.61062 0.59614 0.60680
USER: genes 1 Rotation |==|  0.49735 0.52010 0.51479 0.99937
USER: genes 2 Torsion [N]-CA--C-[N] |==|  0.36584
USER: genes 3 Torsion [C]-N--CA-[CB] |==|  0.32194
USER: genes 4 Torsion [N]-CA--CB-[CG] |==|  0.64197
USER: genes 5 Torsion [CA]-CB--CG-[CD] |==|  0.72547
USER: genes 6 Torsion [CB]-CG--CD-[CE] |==|  0.57055
USER: genes 7 Torsion [CG]-CD--CE-[NZ] |==|  0.90290
USER: genes 8 Torsion [CD]-CE--NZ-[HZ3] |==|  0.57243
USER: genes 9 Torsion [N]-CA--C-[O] |==|  0.63484
USER: genes 10 Torsion [C]-CA--CB-[CG1] |==|  0.53160
USER: genes 11 Torsion [CA]-CB--CG1-[CD1] |==|  0.57944
USER: genes 12 Torsion [C]-CA--N-[C] |==|  0.77591
USER: genes 13 Torsion [N]-C--CA-[N] |==|  0.39859
USER: genes 14 Torsion [C]-CA--N-[H1] |==|  0.10878
USER: genes 15 Torsion [C]-CA--CB-[CG] |==|  0.34019
USER: genes 16 Torsion [CA]-CB--CG-[CD] |==|  0.09420
USER: genes 17 Torsion [CB]-CG--CD-[CE] |==|  0.57367
USER: genes 18 Torsion [CG]-CD--CE-[NZ] |==|  0.72588
USER: genes 19 Torsion [CD]-CE--NZ-[HZ1] |==|  0.63088
ROOT
ATOM      1  CA  ILE B   2       3.799  20.422  15.938  1.00 17.45 LIG 0.18  C 
ENDROOT
BRANCH 1 2
ATOM      2  C   ILE B   2       2.451  20.344  15.204  1.00 17.77 LIG 0.24  C 
ATOM      3 O    ILE B   2       2.311  20.677  14.036  1.00 17.30 LIG-0.27  OA
ATOM      4  N   LYS B   3       1.447  19.844  15.976  1.00 18.03 LIG-0.34  N 
ATOM      5 H    LYS B   3       1.555  19.569  16.784  1.00 18.03 LIG 0.16  HD
BRANCH 4 6
ATOM      6  CA  LYS B   3       0.100  19.735  15.488  1.00 18.65 LIG 0.18  C 
BRANCH 6 7
ATOM      7  CB  LYS B   3      -0.434  18.307  15.376  1.00 18.38 LIG 0.04  C 
BRANCH 7 8
ATOM      8  CG  LYS B   3      -1.011  18.139  13.939  1.00 17.78 LIG 0.00  C 
BRANCH 8 9
ATOM      9  CD  LYS B   3      -2.531  18.320  14.006  1.00 19.84 LIG 0.03  C 
BRANCH 9 10
ATOM     10  CE  LYS B   3      -3.152  17.546  12.806  1.00 23.06 LIG 0.23  C 
BRANCH 10 11
ATOM     11  NZ  LYS B   3      -2.229  17.640  11.633  1.00 27.49 LIG-0.08  N 
ATOM     12 HZ3  LYS B   3      -2.696  17.554  10.880  1.00 27.49 LIG 0.27  HD
ATOM     13 HZ2  LYS B   3      -1.621  16.992  11.682  1.00 27.49 LIG 0.27  HD
ATOM     14 HZ1  LYS B   3      -1.821  18.431  11.639  1.00 27.49 LIG 0.27  HD
ENDBRANCH 10 11
ENDBRANCH 9 10
ENDBRANCH 8 9
ENDBRANCH 7 8
ENDBRANCH 6 7
BRANCH 6 15
ATOM     15  C   LYS B   3      -0.865  20.468  16.463  1.00 19.41 LIG 0.20  C 
ATOM     16 O    LYS B   3      -1.861  19.848  16.806  1.00 18.76 LIG-0.65  OA
ATOM     17 OXT  LYS B   3      -0.691  21.638  16.809  1.00 17.05 LIG-0.65  OA
ENDBRANCH 6 15
ENDBRANCH 4 6
ENDBRANCH 1 2
BRANCH 1 18
ATOM     18  CB  ILE B   2       4.014  21.852  16.409  1.00 18.07 LIG 0.01  C 
ATOM     19  CG2 ILE B   2       3.151  22.225  17.642  1.00 16.68 LIG 0.01  C 
BRANCH 18 20
ATOM     20  CG1 ILE B   2       5.500  21.960  16.882  1.00 16.61 LIG 0.00  C 
ATOM     21  CD1 ILE B   2       5.642  23.020  17.962  1.00 19.99 LIG 0.01  C 
ENDBRANCH 18 20
ENDBRANCH 1 18
BRANCH 1 22
ATOM     22  N   ILE B   2       4.905  19.863  15.168  1.00 14.52 LIG-0.35  N 
ATOM     23  C   LYS B   1       5.167  18.593  15.087  1.00 13.52 LIG 0.25  C 
ATOM     24 O    LYS B   1       4.554  17.775  15.772  1.00 12.92 LIG-0.27  OA
ATOM     25 H    ILE B   2       5.376  20.461  14.767  1.00 14.52 LIG 0.16  HD
BRANCH 23 26
ATOM     26  CA  LYS B   1       6.406  18.134  14.290  1.00 10.84 LIG 0.27  C 
BRANCH 26 27
ATOM     27  N   LYS B   1       7.057  16.947  14.954  1.00 11.78 LIG-0.07  N 
ATOM     28 H3   LYS B   1       7.568  17.226  15.627  1.00 11.78 LIG 0.28  HD
ATOM     29 H2   LYS B   1       7.559  16.514  14.361  1.00 11.78 LIG 0.28  HD
ATOM     30 H1   LYS B   1       6.428  16.400  15.267  1.00 11.78 LIG 0.28  HD
ENDBRANCH 26 27
BRANCH 26 31
ATOM     31  CB  LYS B   1       6.027  17.833  12.847  1.00 14.95 LIG 0.04  C 
BRANCH 31 32
ATOM     32  CG  LYS B   1       6.745  18.586  11.743  1.00 16.40 LIG 0.00  C 
BRANCH 32 33
ATOM     33  CD  LYS B   1       8.195  18.925  12.011  1.00 17.75 LIG 0.03  C 
BRANCH 33 34
ATOM     34  CE  LYS B   1       8.689  20.179  11.242  1.00 20.84 LIG 0.23  C 
BRANCH 34 35
ATOM     35  NZ  LYS B   1       9.434  19.716  10.001  1.00 18.68 LIG-0.08  N 
ATOM     36 HZ1  LYS B   1      10.203  20.159   9.934  1.00 18.68 LIG 0.27  HD
ATOM     37 HZ3  LYS B   1       8.937  19.875   9.280  1.00 18.68 LIG 0.27  HD
ATOM     38 HZ2  LYS B   1       9.598  18.843  10.061  1.00 18.68 LIG 0.27  HD
ENDBRANCH 34 35
ENDBRANCH 33 34
ENDBRANCH 32 33
ENDBRANCH 31 32
ENDBRANCH 26 31
ENDBRANCH 23 26
ENDBRANCH 1 22
TORSDOF 18
ENDMDL
