MODEL 1
USER: ADFR SOLUTION from run 14
USER: SCORE 19.617101 LL:  -0.793 LR: -19.505 RR:   0.000 FEB: -14.732
USER: RMSD 6.045764
USER: SEED 730806
USER: STATUS no improvement in best in 3 clusters for 5 generations
USER: GENES 18
USER: genes 0 Translation |==|  0.56036 0.54278 0.68967
USER: genes 1 Rotation |==|  0.56792 0.47700 0.38049 0.98018
USER: genes 2 Torsion [C]-N--CA-[C] |==|  0.25430
USER: genes 3 Torsion [N]-CA--C-[N] |==|  0.75753
USER: genes 4 Torsion [C]-N--CA-[C] |==|  0.23838
USER: genes 5 Torsion [N]-CA--C-[OXT] |==|  0.28457
USER: genes 6 Torsion [N]-CA--CB-[CG] |==|  0.53691
USER: genes 7 Torsion [CA]-CB--CG-[CD] |==|  0.20159
USER: genes 8 Torsion [CB]-CG--CD-[CE] |==|  0.32066
USER: genes 9 Torsion [CG]-CD--CE-[NZ] |==|  0.90199
USER: genes 10 Torsion [CD]-CE--NZ-[HZ1] |==|  0.29924
USER: genes 11 Torsion [N]-C--CA-[N] |==|  0.51606
USER: genes 12 Torsion [C]-CA--CB-[CG] |==|  0.84972
USER: genes 13 Torsion [CA]-CB--CG-[CD] |==|  0.52379
USER: genes 14 Torsion [CB]-CG--CD-[CE] |==|  0.29925
USER: genes 15 Torsion [CG]-CD--CE-[NZ] |==|  0.02064
USER: genes 16 Torsion [CD]-CE--NZ-[HZ2] |==|  0.48442
USER: genes 17 Torsion [C]-CA--N-[H2] |==|  0.93854
ROOT
ATOM      1  C   LYS B   1      55.523   4.498  93.063  1.00 15.79 LIG 0.25  C 
ATOM      2 O    LYS B   1      56.357   5.105  92.361  1.00 16.21 LIG-0.27  OA
ATOM      3  N   GLY B   2      55.152   3.241  92.916  1.00 14.89 LIG-0.35  N 
ATOM      4 H    GLY B   2      54.541   2.847  93.376  1.00 14.89 LIG 0.16  HD
ENDROOT
BRANCH 3 5
ATOM      5  CA  GLY B   2      55.810   2.414  91.896  1.00 20.83 LIG 0.23  C 
BRANCH 5 6
ATOM      6  C   GLY B   2      57.007   1.679  92.478  1.00 21.80 LIG 0.24  C 
ATOM      7 O    GLY B   2      56.815   0.547  92.934  1.00 22.80 LIG-0.27  OA
ATOM      8  N   LYS B   3      58.181   2.296  92.484  1.00 24.68 LIG-0.34  N 
ATOM      9 H    LYS B   3      58.306   3.064  92.117  1.00 24.68 LIG 0.16  HD
BRANCH 8 10
ATOM     10  CA  LYS B   3      59.379   1.751  93.106  1.00 23.24 LIG 0.18  C 
BRANCH 10 11
ATOM     11  C   LYS B   3      60.179   0.803  92.197  1.00 25.01 LIG 0.20  C 
ATOM     12 OXT  LYS B   3      61.232   1.167  91.614  1.00 24.27 LIG-0.65  OA
ATOM     13 O    LYS B   3      59.709  -0.353  91.979  1.00 24.62 LIG-0.65  OA
ENDBRANCH 10 11
BRANCH 10 14
ATOM     14  CB  LYS B   3      59.070   0.973  94.373  1.00 24.40 LIG 0.04  C 
BRANCH 14 15
ATOM     15  CG  LYS B   3      60.440   0.727  95.144  1.00 26.49 LIG 0.00  C 
BRANCH 15 16
ATOM     16  CD  LYS B   3      60.831   2.070  95.717  1.00 30.21 LIG 0.03  C 
BRANCH 16 17
ATOM     17  CE  LYS B   3      60.822   2.041  97.259  1.00 33.43 LIG 0.23  C 
BRANCH 17 18
ATOM     18  NZ  LYS B   3      59.733   1.168  97.730  1.00 35.75 LIG-0.08  N 
ATOM     19 HZ2  LYS B   3      59.272   1.586  98.367  1.00 35.75 LIG 0.27  HD
ATOM     20 HZ1  LYS B   3      60.077   0.415  98.058  1.00 35.75 LIG 0.27  HD
ATOM     21 HZ3  LYS B   3      59.192   0.975  97.050  1.00 35.75 LIG 0.27  HD
ENDBRANCH 17 18
ENDBRANCH 16 17
ENDBRANCH 15 16
ENDBRANCH 14 15
ENDBRANCH 10 14
ENDBRANCH 8 10
ENDBRANCH 5 6
ENDBRANCH 3 5
BRANCH 1 22
ATOM     22  CA  LYS B   1      54.855   5.224  94.257  1.00 14.35 LIG 0.27  C 
BRANCH 22 23
ATOM     23  CB  LYS B   1      53.330   5.059  94.197  1.00 17.58 LIG 0.04  C 
BRANCH 23 24
ATOM     24  CG  LYS B   1      52.733   5.500  92.863  1.00 22.18 LIG 0.00  C 
BRANCH 24 25
ATOM     25  CD  LYS B   1      51.179   5.512  92.945  1.00 23.04 LIG 0.03  C 
BRANCH 25 26
ATOM     26  CE  LYS B   1      50.726   6.963  92.970  1.00 24.58 LIG 0.23  C 
BRANCH 26 27
ATOM     27  NZ  LYS B   1      51.816   7.917  92.739  1.00 25.06 LIG-0.08  N 
ATOM     28 HZ2  LYS B   1      51.483   8.740  92.683  1.00 25.06 LIG 0.27  HD
ATOM     29 HZ1  LYS B   1      52.232   7.714  91.980  1.00 25.06 LIG 0.27  HD
ATOM     30 HZ3  LYS B   1      52.394   7.876  93.415  1.00 25.06 LIG 0.27  HD
ENDBRANCH 26 27
ENDBRANCH 25 26
ENDBRANCH 24 25
ENDBRANCH 23 24
ENDBRANCH 22 23
BRANCH 22 31
ATOM     31  N   LYS B   1      55.233   6.671  94.251  1.00 11.88 LIG-0.07  N 
ATOM     32 H1   LYS B   1      55.353   6.951  95.087  1.00 11.88 LIG 0.28  HD
ATOM     33 H2   LYS B   1      55.987   6.780  93.791  1.00 11.88 LIG 0.28  HD
ATOM     34 H3   LYS B   1      54.583   7.146  93.870  1.00 11.88 LIG 0.28  HD
ENDBRANCH 22 31
ENDBRANCH 1 22
TORSDOF 16
ENDMDL
MODEL 2
USER: ADFR SOLUTION from run 36
USER: SCORE 19.804325 LL:  -1.046 LR: -18.933 RR:   0.000 FEB: -14.160
USER: RMSD 0.727488
USER: SEED 35
USER: STATUS 1 or 2 clusters left
USER: GENES 18
USER: genes 0 Translation |==|  0.57738 0.53134 0.69661
USER: genes 1 Rotation |==|  0.51543 0.48076 0.49246 0.99933
USER: genes 2 Torsion [C]-N--CA-[C] |==|  0.76667
USER: genes 3 Torsion [N]-CA--C-[N] |==|  0.43177
USER: genes 4 Torsion [C]-N--CA-[C] |==|  0.57296
USER: genes 5 Torsion [N]-CA--C-[OXT] |==|  0.22489
USER: genes 6 Torsion [N]-CA--CB-[CG] |==|  0.55330
USER: genes 7 Torsion [CA]-CB--CG-[CD] |==|  0.52766
USER: genes 8 Torsion [CB]-CG--CD-[CE] |==|  0.47722
USER: genes 9 Torsion [CG]-CD--CE-[NZ] |==|  0.19908
USER: genes 10 Torsion [CD]-CE--NZ-[HZ1] |==|  0.56314
USER: genes 11 Torsion [N]-C--CA-[N] |==|  0.45374
USER: genes 12 Torsion [C]-CA--CB-[CG] |==|  0.76955
USER: genes 13 Torsion [CA]-CB--CG-[CD] |==|  0.60048
USER: genes 14 Torsion [CB]-CG--CD-[CE] |==|  0.42317
USER: genes 15 Torsion [CG]-CD--CE-[NZ] |==|  0.83622
USER: genes 16 Torsion [CD]-CE--NZ-[HZ2] |==|  0.78521
USER: genes 17 Torsion [C]-CA--N-[H2] |==|  0.66752
ROOT
ATOM      1  C   LYS B   1      55.817   4.309  93.198  1.00 15.79 LIG 0.25  C 
ATOM      2 O    LYS B   1      56.340   5.040  92.333  1.00 16.21 LIG-0.27  OA
ATOM      3  N   GLY B   2      56.026   3.016  93.354  1.00 14.89 LIG-0.35  N 
ATOM      4 H    GLY B   2      55.623   2.514  93.924  1.00 14.89 LIG 0.16  HD
ENDROOT
BRANCH 3 5
ATOM      5  CA  GLY B   2      57.018   2.344  92.504  1.00 20.83 LIG 0.23  C 
BRANCH 5 6
ATOM      6  C   GLY B   2      56.411   1.945  91.168  1.00 21.80 LIG 0.24  C 
ATOM      7 O    GLY B   2      55.190   1.763  91.127  1.00 22.80 LIG-0.27  OA
ATOM      8  N   LYS B   3      57.222   1.796  90.129  1.00 24.68 LIG-0.34  N 
ATOM      9 H    LYS B   3      58.063   1.975  90.164  1.00 24.68 LIG 0.16  HD
BRANCH 8 10
ATOM     10  CA  LYS B   3      56.788   1.315  88.825  1.00 23.24 LIG 0.18  C 
BRANCH 10 11
ATOM     11  C   LYS B   3      57.899   0.631  88.010  1.00 25.01 LIG 0.20  C 
ATOM     12 OXT  LYS B   3      58.232  -0.565  88.208  1.00 24.27 LIG-0.65  OA
ATOM     13 O    LYS B   3      58.538   1.330  87.169  1.00 24.62 LIG-0.65  OA
ENDBRANCH 10 11
BRANCH 10 14
ATOM     14  CB  LYS B   3      56.238   2.428  87.953  1.00 24.40 LIG 0.04  C 
BRANCH 14 15
ATOM     15  CG  LYS B   3      55.357   1.763  86.806  1.00 26.49 LIG 0.00  C 
BRANCH 15 16
ATOM     16  CD  LYS B   3      55.046   2.879  85.835  1.00 30.21 LIG 0.03  C 
BRANCH 16 17
ATOM     17  CE  LYS B   3      54.365   2.335  84.562  1.00 33.43 LIG 0.23  C 
BRANCH 17 18
ATOM     18  NZ  LYS B   3      52.989   1.917  84.879  1.00 35.75 LIG-0.08  N 
ATOM     19 HZ2  LYS B   3      52.970   1.548  85.689  1.00 35.75 LIG 0.27  HD
ATOM     20 HZ1  LYS B   3      52.712   1.323  84.276  1.00 35.75 LIG 0.27  HD
ATOM     21 HZ3  LYS B   3      52.452   2.627  84.864  1.00 35.75 LIG 0.27  HD
ENDBRANCH 17 18
ENDBRANCH 16 17
ENDBRANCH 15 16
ENDBRANCH 14 15
ENDBRANCH 10 14
ENDBRANCH 8 10
ENDBRANCH 5 6
ENDBRANCH 3 5
BRANCH 1 22
ATOM     22  CA  LYS B   1      54.852   4.928  94.239  1.00 14.35 LIG 0.27  C 
BRANCH 22 23
ATOM     23  CB  LYS B   1      53.404   4.516  93.937  1.00 17.58 LIG 0.04  C 
BRANCH 23 24
ATOM     24  CG  LYS B   1      52.743   5.391  92.874  1.00 22.18 LIG 0.00  C 
BRANCH 24 25
ATOM     25  CD  LYS B   1      51.239   5.604  93.209  1.00 23.04 LIG 0.03  C 
BRANCH 25 26
ATOM     26  CE  LYS B   1      50.814   6.936  92.610  1.00 24.58 LIG 0.23  C 
BRANCH 26 27
ATOM     27  NZ  LYS B   1      51.587   8.075  93.114  1.00 25.06 LIG-0.08  N 
ATOM     28 HZ2  LYS B   1      51.301   8.291  93.927  1.00 25.06 LIG 0.27  HD
ATOM     29 HZ1  LYS B   1      51.482   8.769  92.568  1.00 25.06 LIG 0.27  HD
ATOM     30 HZ3  LYS B   1      52.449   7.855  93.152  1.00 25.06 LIG 0.27  HD
ENDBRANCH 26 27
ENDBRANCH 25 26
ENDBRANCH 24 25
ENDBRANCH 23 24
ENDBRANCH 22 23
BRANCH 22 31
ATOM     31  N   LYS B   1      54.989   6.417  94.242  1.00 11.88 LIG-0.07  N 
ATOM     32 H1   LYS B   1      54.207   6.789  94.039  1.00 11.88 LIG 0.28  HD
ATOM     33 H2   LYS B   1      55.246   6.691  95.049  1.00 11.88 LIG 0.28  HD
ATOM     34 H3   LYS B   1      55.598   6.661  93.640  1.00 11.88 LIG 0.28  HD
ENDBRANCH 22 31
ENDBRANCH 1 22
TORSDOF 16
ENDMDL
MODEL 3
USER: ADFR SOLUTION from run 14
USER: SCORE 18.702655 LL:  -1.183 LR: -18.200 RR:   0.000 FEB: -13.427
USER: RMSD 6.330204
USER: SEED 730806
USER: STATUS no improvement in best in 3 clusters for 5 generations
USER: GENES 18
USER: genes 0 Translation |==|  0.55983 0.54272 0.68905
USER: genes 1 Rotation |==|  0.57142 0.47416 0.38086 0.97962
USER: genes 2 Torsion [C]-N--CA-[C] |==|  0.25340
USER: genes 3 Torsion [N]-CA--C-[N] |==|  0.75579
USER: genes 4 Torsion [C]-N--CA-[C] |==|  0.23752
USER: genes 5 Torsion [N]-CA--C-[OXT] |==|  0.28412
USER: genes 6 Torsion [N]-CA--CB-[CG] |==|  0.53664
USER: genes 7 Torsion [CA]-CB--CG-[CD] |==|  0.20146
USER: genes 8 Torsion [CB]-CG--CD-[CE] |==|  0.32080
USER: genes 9 Torsion [CG]-CD--CE-[NZ] |==|  0.90443
USER: genes 10 Torsion [CD]-CE--NZ-[HZ1] |==|  0.29770
USER: genes 11 Torsion [N]-C--CA-[N] |==|  0.51061
USER: genes 12 Torsion [C]-CA--CB-[CG] |==|  0.39410
USER: genes 13 Torsion [CA]-CB--CG-[CD] |==|  0.67152
USER: genes 14 Torsion [CB]-CG--CD-[CE] |==|  0.49345
USER: genes 15 Torsion [CG]-CD--CE-[NZ] |==|  0.35942
USER: genes 16 Torsion [CD]-CE--NZ-[HZ2] |==|  0.49350
USER: genes 17 Torsion [C]-CA--N-[H2] |==|  0.94890
ROOT
ATOM      1  C   LYS B   1      55.514   4.497  93.051  1.00 15.79 LIG 0.25  C 
ATOM      2 O    LYS B   1      56.358   5.112  92.367  1.00 16.21 LIG-0.27  OA
ATOM      3  N   GLY B   2      55.145   3.242  92.885  1.00 14.89 LIG-0.35  N 
ATOM      4 H    GLY B   2      54.527   2.843  93.332  1.00 14.89 LIG 0.16  HD
ENDROOT
BRANCH 3 5
ATOM      5  CA  GLY B   2      55.818   2.426  91.865  1.00 20.83 LIG 0.23  C 
BRANCH 5 6
ATOM      6  C   GLY B   2      57.011   1.690  92.455  1.00 21.80 LIG 0.24  C 
ATOM      7 O    GLY B   2      56.816   0.559  92.910  1.00 22.80 LIG-0.27  OA
ATOM      8  N   LYS B   3      58.185   2.307  92.468  1.00 24.68 LIG-0.34  N 
ATOM      9 H    LYS B   3      58.313   3.075  92.102  1.00 24.68 LIG 0.16  HD
BRANCH 8 10
ATOM     10  CA  LYS B   3      59.379   1.762  93.098  1.00 23.24 LIG 0.18  C 
BRANCH 10 11
ATOM     11  C   LYS B   3      60.181   0.807  92.196  1.00 25.01 LIG 0.20  C 
ATOM     12 OXT  LYS B   3      61.235   1.167  91.614  1.00 24.27 LIG-0.65  OA
ATOM     13 O    LYS B   3      59.710  -0.350  91.985  1.00 24.62 LIG-0.65  OA
ENDBRANCH 10 11
BRANCH 10 14
ATOM     14  CB  LYS B   3      59.063   0.991  94.366  1.00 24.40 LIG 0.04  C 
BRANCH 14 15
ATOM     15  CG  LYS B   3      60.430   0.742  95.144  1.00 26.49 LIG 0.00  C 
BRANCH 15 16
ATOM     16  CD  LYS B   3      60.825   2.086  95.711  1.00 30.21 LIG 0.03  C 
BRANCH 16 17
ATOM     17  CE  LYS B   3      60.812   2.065  97.253  1.00 33.43 LIG 0.23  C 
BRANCH 17 18
ATOM     18  NZ  LYS B   3      59.732   1.182  97.725  1.00 35.75 LIG-0.08  N 
ATOM     19 HZ2  LYS B   3      59.270   1.594  98.365  1.00 35.75 LIG 0.27  HD
ATOM     20 HZ1  LYS B   3      60.083   0.431  98.051  1.00 35.75 LIG 0.27  HD
ATOM     21 HZ3  LYS B   3      59.190   0.986  97.047  1.00 35.75 LIG 0.27  HD
ENDBRANCH 17 18
ENDBRANCH 16 17
ENDBRANCH 15 16
ENDBRANCH 14 15
ENDBRANCH 10 14
ENDBRANCH 8 10
ENDBRANCH 5 6
ENDBRANCH 3 5
BRANCH 1 22
ATOM     22  CA  LYS B   1      54.829   5.210  94.243  1.00 14.35 LIG 0.27  C 
BRANCH 22 23
ATOM     23  CB  LYS B   1      53.302   5.087  94.133  1.00 17.58 LIG 0.04  C 
BRANCH 23 24
ATOM     24  CG  LYS B   1      52.622   4.878  95.484  1.00 22.18 LIG 0.00  C 
BRANCH 24 25
ATOM     25  CD  LYS B   1      51.878   3.511  95.507  1.00 23.04 LIG 0.03  C 
BRANCH 25 26
ATOM     26  CE  LYS B   1      51.273   3.335  96.891  1.00 24.58 LIG 0.23  C 
BRANCH 26 27
ATOM     27  NZ  LYS B   1      49.851   2.980  96.864  1.00 25.06 LIG-0.08  N 
ATOM     28 HZ2  LYS B   1      49.560   2.857  97.695  1.00 25.06 LIG 0.27  HD
ATOM     29 HZ1  LYS B   1      49.741   2.231  96.398  1.00 25.06 LIG 0.27  HD
ATOM     30 HZ3  LYS B   1      49.388   3.638  96.482  1.00 25.06 LIG 0.27  HD
ENDBRANCH 26 27
ENDBRANCH 25 26
ENDBRANCH 24 25
ENDBRANCH 23 24
ENDBRANCH 22 23
BRANCH 22 31
ATOM     31  N   LYS B   1      55.244   6.646  94.286  1.00 11.88 LIG-0.07  N 
ATOM     32 H1   LYS B   1      55.398   6.886  95.129  1.00 11.88 LIG 0.28  HD
ATOM     33 H2   LYS B   1      55.986   6.756  93.807  1.00 11.88 LIG 0.28  HD
ATOM     34 H3   LYS B   1      54.595   7.153  93.948  1.00 11.88 LIG 0.28  HD
ENDBRANCH 22 31
ENDBRANCH 1 22
TORSDOF 16
ENDMDL
