MODEL 1
USER: ADFR SOLUTION from run 192
USER: SCORE 22.818290 LL:  -0.922 LR: -22.046 RR:   0.000 FEB: -16.677
USER: RMSD 0.846167
USER: SEED 191
USER: STATUS no improvement in best in 2 clusters for 5 generations
USER: GENES 20
USER: genes 0 Translation |==|  0.58698 0.60315 0.55604
USER: genes 1 Rotation |==|  0.48741 0.52270 0.50754 0.99927
USER: genes 2 Torsion [N]-CA--C-[N] |==|  0.31667
USER: genes 3 Torsion [C]-N--CA-[CB] |==|  0.41210
USER: genes 4 Torsion [N]-CA--CB-[CG] |==|  0.48760
USER: genes 5 Torsion [CA]-CB--CG-[CD] |==|  0.29244
USER: genes 6 Torsion [CB]-CG--CD-[CE] |==|  0.62839
USER: genes 7 Torsion [CG]-CD--CE-[NZ] |==|  0.37452
USER: genes 8 Torsion [CD]-CE--NZ-[HZ3] |==|  0.05759
USER: genes 9 Torsion [N]-CA--C-[O] |==|  0.83876
USER: genes 10 Torsion [C]-CA--CB-[CG] |==|  0.44461
USER: genes 11 Torsion [CA]-CB--CG-[CD1] |==|  0.23286
USER: genes 12 Torsion [C]-CA--N-[C] |==|  0.78126
USER: genes 13 Torsion [N]-C--CA-[N] |==|  0.40028
USER: genes 14 Torsion [C]-CA--CB-[CG] |==|  0.37139
USER: genes 15 Torsion [CA]-CB--CG-[CD] |==|  0.38382
USER: genes 16 Torsion [CB]-CG--CD-[CE] |==|  0.04709
USER: genes 17 Torsion [CG]-CD--CE-[NZ] |==|  0.73544
USER: genes 18 Torsion [CD]-CE--NZ-[HZ1] |==|  0.89560
USER: genes 19 Torsion [C]-CA--N-[H3] |==|  0.74486
ROOT
ATOM      1  CA  PHE B   2       3.922  20.229  15.868  1.00 30.29 LIG 0.18  C 
ENDROOT
BRANCH 1 2
ATOM      2  C   PHE B   2       2.550  20.050  15.185  1.00 29.92 LIG 0.24  C 
ATOM      3 O    PHE B   2       2.349  20.622  14.107  1.00 30.56 LIG-0.27  OA
ATOM      4  N   LYS B   3       1.630  19.308  15.811  1.00 27.47 LIG-0.35  N 
ATOM      5 H    LYS B   3       1.768  18.886  16.548  1.00 27.47 LIG 0.16  HD
BRANCH 4 6
ATOM      6  CA  LYS B   3       0.301  19.162  15.272  1.00 30.37 LIG 0.16  C 
BRANCH 6 7
ATOM      7  CB  LYS B   3      -0.297  17.777  15.620  1.00 32.12 LIG 0.03  C 
BRANCH 7 8
ATOM      8  CG  LYS B   3      -1.742  17.711  15.126  1.00 33.18 LIG 0.00  C 
BRANCH 8 9
ATOM      9  CD  LYS B   3      -1.899  16.864  13.885  1.00 36.86 LIG 0.03  C 
BRANCH 9 10
ATOM     10  CE  LYS B   3      -2.763  17.538  12.803  1.00 36.70 LIG 0.23  C 
BRANCH 10 11
ATOM     11  NZ  LYS B   3      -2.100  17.386  11.480  1.00 36.16 LIG-0.08  N 
ATOM     12 HZ3  LYS B   3      -1.524  16.708  11.512  1.00 36.16 LIG 0.27  HD
ATOM     13 HZ2  LYS B   3      -1.664  18.135  11.278  1.00 36.16 LIG 0.27  HD
ATOM     14 HZ1  LYS B   3      -2.715  17.224  10.857  1.00 36.16 LIG 0.27  HD
ENDBRANCH 10 11
ENDBRANCH 9 10
ENDBRANCH 8 9
ENDBRANCH 7 8
ENDBRANCH 6 7
BRANCH 6 15
ATOM     15  C   LYS B   3      -0.647  20.222  15.865  1.00 32.22 LIG 0.22  C 
ATOM     16 O    LYS B   3      -0.775  20.241  17.110  1.00 34.74 LIG-0.29  OA
ENDBRANCH 6 15
ENDBRANCH 4 6
ENDBRANCH 1 2
BRANCH 1 17
ATOM     17  CB  PHE B   2       4.201  21.740  15.993  1.00 30.71 LIG 0.07  C 
BRANCH 17 18
ATOM     18  CG  PHE B   2       5.251  22.063  17.051  1.00 31.43 LIG-0.06  A 
ATOM     19  CD1 PHE B   2       6.600  21.995  16.734  1.00 31.70 LIG 0.01  A 
ATOM     20  CE1 PHE B   2       7.541  22.293  17.690  1.00 34.47 LIG 0.00  A 
ATOM     21  CZ  PHE B   2       7.181  22.641  18.986  1.00 33.74 LIG 0.00  A 
ATOM     22  CE2 PHE B   2       5.826  22.696  19.279  1.00 35.51 LIG 0.00  A 
ATOM     23  CD2 PHE B   2       4.867  22.408  18.313  1.00 30.57 LIG 0.01  A 
ENDBRANCH 17 18
ENDBRANCH 1 17
BRANCH 1 24
ATOM     24  N   PHE B   2       5.007  19.610  15.139  1.00 28.58 LIG-0.35  N 
ATOM     25 H    PHE B   2       5.477  20.163  14.678  1.00 28.58 LIG 0.16  HD
ATOM     26  C   LYS B   1       5.245  18.307  15.185  1.00 31.08 LIG 0.25  C 
ATOM     27 O    LYS B   1       4.549  17.547  15.903  1.00 30.78 LIG-0.27  OA
BRANCH 26 28
ATOM     28  CA  LYS B   1       6.432  17.778  14.376  1.00 28.94 LIG 0.27  C 
BRANCH 28 29
ATOM     29  CB  LYS B   1       5.973  17.327  12.987  1.00 30.63 LIG 0.04  C 
BRANCH 29 30
ATOM     30  CG  LYS B   1       6.810  17.784  11.816  1.00 30.50 LIG 0.00  C 
BRANCH 30 31
ATOM     31  CD  LYS B   1       7.032  16.705  10.774  1.00 31.54 LIG 0.03  C 
BRANCH 31 32
ATOM     32  CE  LYS B   1       6.068  15.523  10.873  1.00 33.13 LIG 0.23  C 
BRANCH 32 33
ATOM     33  NZ  LYS B   1       6.726  14.434  11.679  1.00 35.52 LIG-0.08  N 
ATOM     34 HZ1  LYS B   1       7.593  14.403  11.484  1.00 35.52 LIG 0.27  HD
ATOM     35 HZ2  LYS B   1       6.623  14.604  12.547  1.00 35.52 LIG 0.27  HD
ATOM     36 HZ3  LYS B   1       6.350  13.651  11.484  1.00 35.52 LIG 0.27  HD
ENDBRANCH 32 33
ENDBRANCH 31 32
ENDBRANCH 30 31
ENDBRANCH 29 30
ENDBRANCH 28 29
BRANCH 28 37
ATOM     37  N   LYS B   1       7.117  16.652  15.092  1.00 27.26 LIG-0.07  N 
ATOM     38 H1   LYS B   1       6.530  16.228  15.609  1.00 27.26 LIG 0.28  HD
ATOM     39 H3   LYS B   1       7.775  16.977  15.595  1.00 27.26 LIG 0.28  HD
ATOM     40 H2   LYS B   1       7.452  16.082  14.496  1.00 27.26 LIG 0.28  HD
ENDBRANCH 28 37
ENDBRANCH 26 28
ENDBRANCH 1 24
TORSDOF 18
ENDMDL
MODEL 2
USER: ADFR SOLUTION from run 21
USER: SCORE 21.331470 LL:  -0.356 LR: -21.850 RR:   0.000 FEB: -16.480
USER: RMSD 6.654591
USER: SEED 20
USER: STATUS searching
USER: GENES 20
USER: genes 0 Translation |==|  0.59095 0.60398 0.53770
USER: genes 1 Rotation |==|  0.85361 0.24354 0.25715 0.51461
USER: genes 2 Torsion [N]-CA--C-[N] |==|  0.69336
USER: genes 3 Torsion [C]-N--CA-[CB] |==|  0.17106
USER: genes 4 Torsion [N]-CA--CB-[CG] |==|  0.67329
USER: genes 5 Torsion [CA]-CB--CG-[CD] |==|  0.98443
USER: genes 6 Torsion [CB]-CG--CD-[CE] |==|  0.52398
USER: genes 7 Torsion [CG]-CD--CE-[NZ] |==|  0.71930
USER: genes 8 Torsion [CD]-CE--NZ-[HZ3] |==|  0.06948
USER: genes 9 Torsion [N]-CA--C-[O] |==|  0.86401
USER: genes 10 Torsion [C]-CA--CB-[CG] |==|  0.33911
USER: genes 11 Torsion [CA]-CB--CG-[CD1] |==|  0.07667
USER: genes 12 Torsion [C]-CA--N-[C] |==|  0.21068
USER: genes 13 Torsion [N]-C--CA-[N] |==|  0.40830
USER: genes 14 Torsion [C]-CA--CB-[CG] |==|  0.33689
USER: genes 15 Torsion [CA]-CB--CG-[CD] |==|  0.88780
USER: genes 16 Torsion [CB]-CG--CD-[CE] |==|  0.26932
USER: genes 17 Torsion [CG]-CD--CE-[NZ] |==|  0.93203
USER: genes 18 Torsion [CD]-CE--NZ-[HZ1] |==|  0.37464
USER: genes 19 Torsion [C]-CA--N-[H3] |==|  0.11892
ROOT
ATOM      1  CA  PHE B   2       4.000  20.243  15.538  1.00 30.29 LIG 0.18  C 
ENDROOT
BRANCH 1 2
ATOM      2  C   PHE B   2       4.649  20.905  16.770  1.00 29.92 LIG 0.24  C 
ATOM      3 O    PHE B   2       5.534  21.750  16.587  1.00 30.56 LIG-0.27  OA
ATOM      4  N   LYS B   3       4.246  20.507  17.982  1.00 27.47 LIG-0.35  N 
ATOM      5 H    LYS B   3       3.615  19.939  18.120  1.00 27.47 LIG 0.16  HD
BRANCH 4 6
ATOM      6  CA  LYS B   3       4.864  21.024  19.177  1.00 30.37 LIG 0.16  C 
BRANCH 6 7
ATOM      7  CB  LYS B   3       4.677  22.557  19.287  1.00 32.12 LIG 0.03  C 
BRANCH 7 8
ATOM      8  CG  LYS B   3       6.047  23.237  19.258  1.00 33.18 LIG 0.00  C 
BRANCH 8 9
ATOM      9  CD  LYS B   3       7.191  22.251  19.268  1.00 36.86 LIG 0.03  C 
BRANCH 9 10
ATOM     10  CE  LYS B   3       8.562  22.926  19.452  1.00 36.70 LIG 0.23  C 
BRANCH 10 11
ATOM     11  NZ  LYS B   3       9.242  23.027  18.132  1.00 36.16 LIG-0.08  N 
ATOM     12 HZ3  LYS B   3       8.632  23.030  17.484  1.00 36.16 LIG 0.27  HD
ATOM     13 HZ2  LYS B   3       9.786  22.331  18.024  1.00 36.16 LIG 0.27  HD
ATOM     14 HZ1  LYS B   3       9.714  23.780  18.098  1.00 36.16 LIG 0.27  HD
ENDBRANCH 10 11
ENDBRANCH 9 10
ENDBRANCH 8 9
ENDBRANCH 7 8
ENDBRANCH 6 7
BRANCH 6 15
ATOM     15  C   LYS B   3       4.226  20.402  20.434  1.00 32.22 LIG 0.22  C 
ATOM     16 O    LYS B   3       2.976  20.402  20.499  1.00 34.74 LIG-0.29  OA
ENDBRANCH 6 15
ENDBRANCH 4 6
ENDBRANCH 1 2
BRANCH 1 17
ATOM     17  CB  PHE B   2       2.796  19.410  16.021  1.00 30.71 LIG 0.07  C 
BRANCH 17 18
ATOM     18  CG  PHE B   2       1.484  19.831  15.368  1.00 31.43 LIG-0.06  A 
ATOM     19  CD1 PHE B   2       1.488  20.406  14.106  1.00 31.70 LIG 0.01  A 
ATOM     20  CE1 PHE B   2       0.301  20.777  13.522  1.00 34.47 LIG 0.00  A 
ATOM     21  CZ  PHE B   2      -0.916  20.616  14.172  1.00 33.74 LIG 0.00  A 
ATOM     22  CE2 PHE B   2      -0.894  20.044  15.435  1.00 35.51 LIG 0.00  A 
ATOM     23  CD2 PHE B   2       0.303  19.654  16.029  1.00 30.57 LIG 0.01  A 
ENDBRANCH 17 18
ENDBRANCH 1 17
BRANCH 1 24
ATOM     24  N   PHE B   2       4.904  19.382  14.810  1.00 28.58 LIG-0.35  N 
ATOM     25 H    PHE B   2       5.199  19.723  14.078  1.00 28.58 LIG 0.16  HD
ATOM     26  C   LYS B   1       5.244  18.175  15.243  1.00 31.08 LIG 0.25  C 
ATOM     27 O    LYS B   1       4.814  17.736  16.337  1.00 30.78 LIG-0.27  OA
BRANCH 26 28
ATOM     28  CA  LYS B   1       6.220  17.367  14.383  1.00 28.94 LIG 0.27  C 
BRANCH 28 29
ATOM     29  CB  LYS B   1       5.457  16.515  13.366  1.00 30.63 LIG 0.04  C 
BRANCH 29 30
ATOM     30  CG  LYS B   1       5.774  16.755  11.909  1.00 30.50 LIG 0.00  C 
BRANCH 30 31
ATOM     31  CD  LYS B   1       5.954  18.220  11.563  1.00 31.54 LIG 0.03  C 
BRANCH 31 32
ATOM     32  CE  LYS B   1       7.409  18.689  11.536  1.00 33.13 LIG 0.23  C 
BRANCH 32 33
ATOM     33  NZ  LYS B   1       8.223  17.777  12.415  1.00 35.52 LIG-0.08  N 
ATOM     34 HZ1  LYS B   1       8.976  17.554  11.996  1.00 35.52 LIG 0.27  HD
ATOM     35 HZ2  LYS B   1       8.420  18.195  13.175  1.00 35.52 LIG 0.27  HD
ATOM     36 HZ3  LYS B   1       7.756  17.041  12.595  1.00 35.52 LIG 0.27  HD
ENDBRANCH 32 33
ENDBRANCH 31 32
ENDBRANCH 30 31
ENDBRANCH 29 30
ENDBRANCH 28 29
BRANCH 28 37
ATOM     37  N   LYS B   1       7.102  16.502  15.234  1.00 27.26 LIG-0.07  N 
ATOM     38 H1   LYS B   1       7.476  15.872  14.729  1.00 27.26 LIG 0.28  HD
ATOM     39 H3   LYS B   1       6.614  16.119  15.872  1.00 27.26 LIG 0.28  HD
ATOM     40 H2   LYS B   1       7.738  17.000  15.605  1.00 27.26 LIG 0.28  HD
ENDBRANCH 28 37
ENDBRANCH 26 28
ENDBRANCH 1 24
TORSDOF 18
ENDMDL
MODEL 3
USER: ADFR SOLUTION from run 108
USER: SCORE 21.319626 LL:  -0.954 LR: -21.194 RR:   0.000 FEB: -15.825
USER: RMSD 6.397706
USER: SEED 107
USER: STATUS no improvement in best in 4 clusters for 5 generations
USER: GENES 20
USER: genes 0 Translation |==|  0.55872 0.58954 0.50441
USER: genes 1 Rotation |==|  0.90452 0.29442 0.29076 0.51786
USER: genes 2 Torsion [N]-CA--C-[N] |==|  0.78990
USER: genes 3 Torsion [C]-N--CA-[CB] |==|  0.84395
USER: genes 4 Torsion [N]-CA--CB-[CG] |==|  0.58530
USER: genes 5 Torsion [CA]-CB--CG-[CD] |==|  0.00031
USER: genes 6 Torsion [CB]-CG--CD-[CE] |==|  0.43893
USER: genes 7 Torsion [CG]-CD--CE-[NZ] |==|  0.38339
USER: genes 8 Torsion [CD]-CE--NZ-[HZ3] |==|  0.04068
USER: genes 9 Torsion [N]-CA--C-[O] |==|  0.30271
USER: genes 10 Torsion [C]-CA--CB-[CG] |==|  0.21829
USER: genes 11 Torsion [CA]-CB--CG-[CD1] |==|  0.10989
USER: genes 12 Torsion [C]-CA--N-[C] |==|  0.21038
USER: genes 13 Torsion [N]-C--CA-[N] |==|  0.46276
USER: genes 14 Torsion [C]-CA--CB-[CG] |==|  0.41228
USER: genes 15 Torsion [CA]-CB--CG-[CD] |==|  0.46503
USER: genes 16 Torsion [CB]-CG--CD-[CE] |==|  0.93658
USER: genes 17 Torsion [CG]-CD--CE-[NZ] |==|  0.82090
USER: genes 18 Torsion [CD]-CE--NZ-[HZ1] |==|  0.55598
USER: genes 19 Torsion [C]-CA--N-[H3] |==|  0.42688
ROOT
ATOM      1  CA  PHE B   2       3.371  20.004  14.938  1.00 30.29 LIG 0.18  C 
ENDROOT
BRANCH 1 2
ATOM      2  C   PHE B   2       3.601  20.748  16.270  1.00 29.92 LIG 0.24  C 
ATOM      3 O    PHE B   2       3.634  21.984  16.257  1.00 30.56 LIG-0.27  OA
ATOM      4  N   LYS B   3       3.788  20.014  17.374  1.00 27.47 LIG-0.35  N 
ATOM      5 H    LYS B   3       3.743  19.156  17.398  1.00 27.47 LIG 0.16  HD
BRANCH 4 6
ATOM      6  CA  LYS B   3       4.088  20.638  18.638  1.00 30.37 LIG 0.16  C 
BRANCH 6 7
ATOM      7  CB  LYS B   3       5.346  21.535  18.536  1.00 32.12 LIG 0.03  C 
BRANCH 7 8
ATOM      8  CG  LYS B   3       6.066  21.551  19.885  1.00 33.18 LIG 0.00  C 
BRANCH 8 9
ATOM      9  CD  LYS B   3       5.376  20.705  20.929  1.00 36.86 LIG 0.03  C 
BRANCH 9 10
ATOM     10  CE  LYS B   3       6.315  20.274  22.070  1.00 36.70 LIG 0.23  C 
BRANCH 10 11
ATOM     11  NZ  LYS B   3       5.601  20.401  23.369  1.00 36.16 LIG-0.08  N 
ATOM     12 HZ3  LYS B   3       4.728  20.491  23.221  1.00 36.16 LIG 0.27  HD
ATOM     13 HZ2  LYS B   3       5.903  21.115  23.805  1.00 36.16 LIG 0.27  HD
ATOM     14 HZ1  LYS B   3       5.744  19.672  23.859  1.00 36.16 LIG 0.27  HD
ENDBRANCH 10 11
ENDBRANCH 9 10
ENDBRANCH 8 9
ENDBRANCH 7 8
ENDBRANCH 6 7
BRANCH 6 15
ATOM     15  C   LYS B   3       2.926  21.543  19.088  1.00 32.22 LIG 0.22  C 
ATOM     16 O    LYS B   3       2.241  21.152  20.060  1.00 34.74 LIG-0.29  OA
ENDBRANCH 6 15
ENDBRANCH 4 6
ENDBRANCH 1 2
BRANCH 1 17
ATOM     17  CB  PHE B   2       2.357  18.871  15.191  1.00 30.71 LIG 0.07  C 
BRANCH 17 18
ATOM     18  CG  PHE B   2       0.917  19.368  15.256  1.00 31.43 LIG-0.06  A 
ATOM     19  CD1 PHE B   2       0.482  20.354  14.384  1.00 31.70 LIG 0.01  A 
ATOM     20  CE1 PHE B   2      -0.819  20.793  14.444  1.00 34.47 LIG 0.00  A 
ATOM     21  CZ  PHE B   2      -1.717  20.292  15.378  1.00 33.74 LIG 0.00  A 
ATOM     22  CE2 PHE B   2      -1.256  19.310  16.243  1.00 35.51 LIG 0.00  A 
ATOM     23  CD2 PHE B   2       0.056  18.852  16.180  1.00 30.57 LIG 0.01  A 
ENDBRANCH 17 18
ENDBRANCH 1 17
BRANCH 1 24
ATOM     24  N   PHE B   2       4.580  19.438  14.385  1.00 28.58 LIG-0.35  N 
ATOM     25 H    PHE B   2       4.900  19.878  13.720  1.00 28.58 LIG 0.16  HD
ATOM     26  C   LYS B   1       5.139  18.337  14.871  1.00 31.08 LIG 0.25  C 
ATOM     27 O    LYS B   1       4.653  17.751  15.868  1.00 30.78 LIG-0.27  OA
BRANCH 26 28
ATOM     28  CA  LYS B   1       6.425  17.846  14.202  1.00 28.94 LIG 0.27  C 
BRANCH 28 29
ATOM     29  CB  LYS B   1       6.125  17.294  12.806  1.00 30.63 LIG 0.04  C 
BRANCH 29 30
ATOM     30  CG  LYS B   1       7.209  17.453  11.767  1.00 30.50 LIG 0.00  C 
BRANCH 30 31
ATOM     31  CD  LYS B   1       6.973  16.629  10.516  1.00 31.54 LIG 0.03  C 
BRANCH 31 32
ATOM     32  CE  LYS B   1       6.055  15.424  10.717  1.00 33.13 LIG 0.23  C 
BRANCH 32 33
ATOM     33  NZ  LYS B   1       6.726  14.462  11.662  1.00 35.52 LIG-0.08  N 
ATOM     34 HZ1  LYS B   1       6.367  13.654  11.568  1.00 35.52 LIG 0.27  HD
ATOM     35 HZ2  LYS B   1       7.596  14.424  11.478  1.00 35.52 LIG 0.27  HD
ATOM     36 HZ3  LYS B   1       6.612  14.741  12.500  1.00 35.52 LIG 0.27  HD
ENDBRANCH 32 33
ENDBRANCH 31 32
ENDBRANCH 30 31
ENDBRANCH 29 30
ENDBRANCH 28 29
BRANCH 28 37
ATOM     37  N   LYS B   1       7.109  16.806  15.039  1.00 27.26 LIG-0.07  N 
ATOM     38 H1   LYS B   1       7.638  17.204  15.634  1.00 27.26 LIG 0.28  HD
ATOM     39 H3   LYS B   1       7.596  16.277  14.516  1.00 27.26 LIG 0.28  HD
ATOM     40 H2   LYS B   1       6.498  16.320  15.466  1.00 27.26 LIG 0.28  HD
ENDBRANCH 28 37
ENDBRANCH 26 28
ENDBRANCH 1 24
TORSDOF 18
ENDMDL
MODEL 4
USER: ADFR SOLUTION from run 149
USER: SCORE 20.838148 LL:  -1.098 LR: -20.623 RR:   0.000 FEB: -15.253
USER: RMSD 6.778815
USER: SEED 148
USER: STATUS no improvement in best in 1 clusters for 5 generations
USER: GENES 20
USER: genes 0 Translation |==|  0.54302 0.55602 0.50067
USER: genes 1 Rotation |==|  0.88348 0.28599 0.27616 0.58389
USER: genes 2 Torsion [N]-CA--C-[N] |==|  0.78339
USER: genes 3 Torsion [C]-N--CA-[CB] |==|  0.87215
USER: genes 4 Torsion [N]-CA--CB-[CG] |==|  0.61212
USER: genes 5 Torsion [CA]-CB--CG-[CD] |==|  0.41168
USER: genes 6 Torsion [CB]-CG--CD-[CE] |==|  0.48171
USER: genes 7 Torsion [CG]-CD--CE-[NZ] |==|  0.55090
USER: genes 8 Torsion [CD]-CE--NZ-[HZ3] |==|  0.91850
USER: genes 9 Torsion [N]-CA--C-[O] |==|  0.24458
USER: genes 10 Torsion [C]-CA--CB-[CG] |==|  0.24807
USER: genes 11 Torsion [CA]-CB--CG-[CD1] |==|  0.95473
USER: genes 12 Torsion [C]-CA--N-[C] |==|  0.20764
USER: genes 13 Torsion [N]-C--CA-[N] |==|  0.44650
USER: genes 14 Torsion [C]-CA--CB-[CG] |==|  0.40142
USER: genes 15 Torsion [CA]-CB--CG-[CD] |==|  0.49087
USER: genes 16 Torsion [CB]-CG--CD-[CE] |==|  0.98419
USER: genes 17 Torsion [CG]-CD--CE-[NZ] |==|  0.59683
USER: genes 18 Torsion [CD]-CE--NZ-[HZ1] |==|  0.56731
USER: genes 19 Torsion [C]-CA--N-[H3] |==|  0.08182
ROOT
ATOM      1  CA  PHE B   2       3.065  19.451  14.871  1.00 30.29 LIG 0.18  C 
ENDROOT
BRANCH 1 2
ATOM      2  C   PHE B   2       3.486  20.463  15.958  1.00 29.92 LIG 0.24  C 
ATOM      3 O    PHE B   2       3.477  21.667  15.677  1.00 30.56 LIG-0.27  OA
ATOM      4  N   LYS B   3       3.874  19.982  17.144  1.00 27.47 LIG-0.35  N 
ATOM      5 H    LYS B   3       3.861  19.149  17.357  1.00 27.47 LIG 0.16  HD
BRANCH 4 6
ATOM      6  CA  LYS B   3       4.356  20.862  18.179  1.00 30.37 LIG 0.16  C 
BRANCH 6 7
ATOM      7  CB  LYS B   3       5.374  21.884  17.617  1.00 32.12 LIG 0.03  C 
BRANCH 7 8
ATOM      8  CG  LYS B   3       6.518  22.061  18.617  1.00 33.18 LIG 0.00  C 
BRANCH 8 9
ATOM      9  CD  LYS B   3       7.838  22.364  17.948  1.00 36.86 LIG 0.03  C 
BRANCH 9 10
ATOM     10  CE  LYS B   3       8.956  22.701  18.952  1.00 36.70 LIG 0.23  C 
BRANCH 10 11
ATOM     11  NZ  LYS B   3      10.060  23.402  18.243  1.00 36.16 LIG-0.08  N 
ATOM     12 HZ3  LYS B   3      10.087  23.132  17.396  1.00 36.16 LIG 0.27  HD
ATOM     13 HZ2  LYS B   3      10.834  23.214  18.639  1.00 36.16 LIG 0.27  HD
ATOM     14 HZ1  LYS B   3       9.919  24.281  18.269  1.00 36.16 LIG 0.27  HD
ENDBRANCH 10 11
ENDBRANCH 9 10
ENDBRANCH 8 9
ENDBRANCH 7 8
ENDBRANCH 6 7
BRANCH 6 15
ATOM     15  C   LYS B   3       3.197  21.672  18.790  1.00 32.22 LIG 0.22  C 
ATOM     16 O    LYS B   3       2.581  21.155  19.749  1.00 34.74 LIG-0.29  OA
ENDBRANCH 6 15
ENDBRANCH 4 6
ENDBRANCH 1 2
BRANCH 1 17
ATOM     17  CB  PHE B   2       2.191  18.370  15.536  1.00 30.71 LIG 0.07  C 
BRANCH 17 18
ATOM     18  CG  PHE B   2       0.708  18.726  15.541  1.00 31.43 LIG-0.06  A 
ATOM     19  CD1 PHE B   2       0.306  20.031  15.303  1.00 31.70 LIG 0.01  A 
ATOM     20  CE1 PHE B   2      -1.032  20.343  15.303  1.00 34.47 LIG 0.00  A 
ATOM     21  CZ  PHE B   2      -2.005  19.387  15.561  1.00 33.74 LIG 0.00  A 
ATOM     22  CE2 PHE B   2      -1.578  18.089  15.802  1.00 35.51 LIG 0.00  A 
ATOM     23  CD2 PHE B   2      -0.225  17.763  15.791  1.00 30.57 LIG 0.01  A 
ENDBRANCH 17 18
ENDBRANCH 1 17
BRANCH 1 24
ATOM     24  N   PHE B   2       4.187  18.814  14.220  1.00 28.58 LIG-0.35  N 
ATOM     25 H    PHE B   2       4.341  19.104  13.426  1.00 28.58 LIG 0.16  HD
ATOM     26  C   LYS B   1       4.908  17.867  14.807  1.00 31.08 LIG 0.25  C 
ATOM     27 O    LYS B   1       4.664  17.504  15.983  1.00 30.78 LIG-0.27  OA
BRANCH 26 28
ATOM     28  CA  LYS B   1       6.078  17.280  14.013  1.00 28.94 LIG 0.27  C 
BRANCH 28 29
ATOM     29  CB  LYS B   1       5.567  16.307  12.948  1.00 30.63 LIG 0.04  C 
BRANCH 29 30
ATOM     30  CG  LYS B   1       6.322  16.276  11.640  1.00 30.50 LIG 0.00  C 
BRANCH 30 31
ATOM     31  CD  LYS B   1       5.805  15.234  10.668  1.00 31.54 LIG 0.03  C 
BRANCH 31 32
ATOM     32  CE  LYS B   1       4.717  14.323  11.238  1.00 33.13 LIG 0.23  C 
BRANCH 32 33
ATOM     33  NZ  LYS B   1       4.887  12.947  10.651  1.00 35.52 LIG-0.08  N 
ATOM     34 HZ1  LYS B   1       4.110  12.515  10.675  1.00 35.52 LIG 0.27  HD
ATOM     35 HZ2  LYS B   1       5.162  13.016   9.807  1.00 35.52 LIG 0.27  HD
ATOM     36 HZ3  LYS B   1       5.492  12.495  11.123  1.00 35.52 LIG 0.27  HD
ENDBRANCH 32 33
ENDBRANCH 31 32
ENDBRANCH 30 31
ENDBRANCH 29 30
ENDBRANCH 28 29
BRANCH 28 37
ATOM     37  N   LYS B   1       7.058  16.596  14.920  1.00 27.26 LIG-0.07  N 
ATOM     38 H1   LYS B   1       7.447  15.925  14.484  1.00 27.26 LIG 0.28  HD
ATOM     39 H3   LYS B   1       6.630  16.278  15.632  1.00 27.26 LIG 0.28  HD
ATOM     40 H2   LYS B   1       7.678  17.178  15.181  1.00 27.26 LIG 0.28  HD
ENDBRANCH 28 37
ENDBRANCH 26 28
ENDBRANCH 1 24
TORSDOF 18
ENDMDL
MODEL 5
USER: ADFR SOLUTION from run 130
USER: SCORE 20.771372 LL:  -0.603 LR: -20.189 RR:   0.000 FEB: -14.820
USER: RMSD 2.069456
USER: SEED 129
USER: STATUS no improvement in best in 3 clusters for 5 generations
USER: GENES 20
USER: genes 0 Translation |==|  0.63154 0.61838 0.58552
USER: genes 1 Rotation |==|  0.48056 0.57741 0.44825 0.99087
USER: genes 2 Torsion [N]-CA--C-[N] |==|  0.40052
USER: genes 3 Torsion [C]-N--CA-[CB] |==|  0.22623
USER: genes 4 Torsion [N]-CA--CB-[CG] |==|  0.47514
USER: genes 5 Torsion [CA]-CB--CG-[CD] |==|  0.25057
USER: genes 6 Torsion [CB]-CG--CD-[CE] |==|  0.54205
USER: genes 7 Torsion [CG]-CD--CE-[NZ] |==|  0.75521
USER: genes 8 Torsion [CD]-CE--NZ-[HZ3] |==|  0.72732
USER: genes 9 Torsion [N]-CA--C-[O] |==|  0.02472
USER: genes 10 Torsion [C]-CA--CB-[CG] |==|  0.40876
USER: genes 11 Torsion [CA]-CB--CG-[CD1] |==|  0.27388
USER: genes 12 Torsion [C]-CA--N-[C] |==|  0.79946
USER: genes 13 Torsion [N]-C--CA-[N] |==|  0.32796
USER: genes 14 Torsion [C]-CA--CB-[CG] |==|  0.41012
USER: genes 15 Torsion [CA]-CB--CG-[CD] |==|  0.81364
USER: genes 16 Torsion [CB]-CG--CD-[CE] |==|  0.20291
USER: genes 17 Torsion [CG]-CD--CE-[NZ] |==|  0.08371
USER: genes 18 Torsion [CD]-CE--NZ-[HZ1] |==|  0.98865
USER: genes 19 Torsion [C]-CA--N-[H3] |==|  0.79441
ROOT
ATOM      1  CA  PHE B   2       4.791  20.480  16.398  1.00 30.29 LIG 0.18  C 
ENDROOT
BRANCH 1 2
ATOM      2  C   PHE B   2       3.301  20.627  16.026  1.00 29.92 LIG 0.24  C 
ATOM      3 O    PHE B   2       2.994  20.668  14.828  1.00 30.56 LIG-0.27  OA
ATOM      4  N   LYS B   3       2.414  20.738  17.021  1.00 27.47 LIG-0.35  N 
ATOM      5 H    LYS B   3       2.614  20.687  17.856  1.00 27.47 LIG 0.16  HD
BRANCH 4 6
ATOM      6  CA  LYS B   3       1.016  20.959  16.748  1.00 30.37 LIG 0.16  C 
BRANCH 6 7
ATOM      7  CB  LYS B   3       0.298  19.633  16.397  1.00 32.12 LIG 0.03  C 
BRANCH 7 8
ATOM      8  CG  LYS B   3      -1.211  19.875  16.335  1.00 33.18 LIG 0.00  C 
BRANCH 8 9
ATOM      9  CD  LYS B   3      -1.686  20.267  14.956  1.00 36.86 LIG 0.03  C 
BRANCH 9 10
ATOM     10  CE  LYS B   3      -3.104  20.865  14.957  1.00 36.70 LIG 0.23  C 
BRANCH 10 11
ATOM     11  NZ  LYS B   3      -4.101  19.769  14.825  1.00 36.16 LIG-0.08  N 
ATOM     12 HZ3  LYS B   3      -4.359  19.702  13.976  1.00 36.16 LIG 0.27  HD
ATOM     13 HZ2  LYS B   3      -4.808  19.948  15.335  1.00 36.16 LIG 0.27  HD
ATOM     14 HZ1  LYS B   3      -3.735  19.001  15.085  1.00 36.16 LIG 0.27  HD
ENDBRANCH 10 11
ENDBRANCH 9 10
ENDBRANCH 8 9
ENDBRANCH 7 8
ENDBRANCH 6 7
BRANCH 6 15
ATOM     15  C   LYS B   3       0.305  21.541  17.984  1.00 32.22 LIG 0.22  C 
ATOM     16 O    LYS B   3       1.025  21.894  18.944  1.00 34.74 LIG-0.29  OA
ENDBRANCH 6 15
ENDBRANCH 4 6
ENDBRANCH 1 2
BRANCH 1 17
ATOM     17  CB  PHE B   2       5.434  21.881  16.362  1.00 30.71 LIG 0.07  C 
BRANCH 17 18
ATOM     18  CG  PHE B   2       6.546  22.049  17.392  1.00 31.43 LIG-0.06  A 
ATOM     19  CD1 PHE B   2       7.872  21.909  17.013  1.00 31.70 LIG 0.01  A 
ATOM     20  CE1 PHE B   2       8.869  22.069  17.946  1.00 34.47 LIG 0.00  A 
ATOM     21  CZ  PHE B   2       8.586  22.344  19.277  1.00 33.74 LIG 0.00  A 
ATOM     22  CE2 PHE B   2       7.252  22.474  19.633  1.00 35.51 LIG 0.00  A 
ATOM     23  CD2 PHE B   2       6.237  22.327  18.692  1.00 30.57 LIG 0.01  A 
ENDBRANCH 17 18
ENDBRANCH 1 17
BRANCH 1 24
ATOM     24  N   PHE B   2       5.518  19.606  15.506  1.00 28.58 LIG-0.35  N 
ATOM     25 H    PHE B   2       6.061  20.017  14.981  1.00 28.58 LIG 0.16  HD
ATOM     26  C   LYS B   1       5.354  18.290  15.506  1.00 31.08 LIG 0.25  C 
ATOM     27 O    LYS B   1       4.574  17.736  16.318  1.00 30.78 LIG-0.27  OA
BRANCH 26 28
ATOM     28  CA  LYS B   1       6.193  17.476  14.518  1.00 28.94 LIG 0.27  C 
BRANCH 28 29
ATOM     29  CB  LYS B   1       5.287  16.717  13.544  1.00 30.63 LIG 0.04  C 
BRANCH 29 30
ATOM     30  CG  LYS B   1       5.819  16.509  12.147  1.00 30.50 LIG 0.00  C 
BRANCH 30 31
ATOM     31  CD  LYS B   1       5.955  17.794  11.354  1.00 31.54 LIG 0.03  C 
BRANCH 31 32
ATOM     32  CE  LYS B   1       7.116  18.687  11.793  1.00 33.13 LIG 0.23  C 
BRANCH 32 33
ATOM     33  NZ  LYS B   1       8.215  17.813  12.335  1.00 35.52 LIG-0.08  N 
ATOM     34 HZ1  LYS B   1       7.944  16.966  12.345  1.00 35.52 LIG 0.27  HD
ATOM     35 HZ2  LYS B   1       8.936  17.888  11.818  1.00 35.52 LIG 0.27  HD
ATOM     36 HZ3  LYS B   1       8.417  18.069  13.163  1.00 35.52 LIG 0.27  HD
ENDBRANCH 32 33
ENDBRANCH 31 32
ENDBRANCH 30 31
ENDBRANCH 29 30
ENDBRANCH 28 29
BRANCH 28 37
ATOM     37  N   LYS B   1       7.102  16.523  15.236  1.00 27.26 LIG-0.07  N 
ATOM     38 H1   LYS B   1       6.646  16.101  15.873  1.00 27.26 LIG 0.28  HD
ATOM     39 H3   LYS B   1       7.775  16.974  15.603  1.00 27.26 LIG 0.28  HD
ATOM     40 H2   LYS B   1       7.424  15.927  14.659  1.00 27.26 LIG 0.28  HD
ENDBRANCH 28 37
ENDBRANCH 26 28
ENDBRANCH 1 24
TORSDOF 18
ENDMDL
