MODEL 1
USER: ADFR SOLUTION from run 84
USER: SCORE 21.868355 LL:  -1.079 LR: -20.789 RR:   0.000 FEB: -16.315
USER: RMSD 0.810867
USER: SEED 83
USER: STATUS no improvement in best in 2 clusters for 5 generations
USER: GENES 17
USER: genes 0 Translation |==|  0.66573 0.52480 0.58735
USER: genes 1 Rotation |==|  0.50095 0.52370 0.49794 0.99943
USER: genes 2 Torsion [N]-CA--C-[N] |==|  0.41878
USER: genes 3 Torsion [C]-N--CA-[CB] |==|  0.25247
USER: genes 4 Torsion [N]-CA--CB-[CG] |==|  0.51803
USER: genes 5 Torsion [CA]-CB--CG-[CD] |==|  0.49784
USER: genes 6 Torsion [CB]-CG--CD-[CE] |==|  0.54759
USER: genes 7 Torsion [CG]-CD--CE-[NZ] |==|  0.25687
USER: genes 8 Torsion [CD]-CE--NZ-[HZ3] |==|  0.13552
USER: genes 9 Torsion [N]-CA--C-[O] |==|  0.73700
USER: genes 10 Torsion [N]-C--CA-[N] |==|  0.32897
USER: genes 11 Torsion [C]-CA--N-[H2] |==|  0.79530
USER: genes 12 Torsion [C]-CA--CB-[CG] |==|  0.38657
USER: genes 13 Torsion [CA]-CB--CG-[CD] |==|  0.43733
USER: genes 14 Torsion [CB]-CG--CD-[CE] |==|  0.97910
USER: genes 15 Torsion [CG]-CD--CE-[NZ] |==|  0.80305
USER: genes 16 Torsion [CD]-CE--NZ-[HZ1] |==|  0.89731
ROOT
ATOM      1  C   LYS B   1       4.985  18.033  15.119  1.00 18.50 LIG 0.25  C 
ATOM      2 O    LYS B   1       4.067  17.263  15.442  1.00 18.58 LIG-0.27  OA
ATOM      3  N   PRO B   2       4.921  19.291  15.532  1.00 19.42 LIG-0.34  N 
ATOM      4  CA  PRO B   2       3.754  19.804  16.256  1.00 19.20 LIG 0.18  C 
ATOM      5  CB  PRO B   2       4.134  21.274  16.523  1.00 19.17 LIG 0.04  C 
ATOM      6  CG  PRO B   2       5.646  21.205  16.549  1.00 20.21 LIG 0.02  C 
ATOM      7  CD  PRO B   2       5.965  20.321  15.342  1.00 19.76 LIG 0.13  C 
ENDROOT
BRANCH 4 8
ATOM      8  C   PRO B   2       2.480  19.759  15.426  1.00 20.15 LIG 0.24  C 
ATOM      9 O    PRO B   2       2.468  19.894  14.184  1.00 19.46 LIG-0.27  OA
ATOM     10  N   LYS B   3       1.343  19.613  16.108  1.00 19.22 LIG-0.34  N 
ATOM     11 H    LYS B   3       1.321  19.528  16.963  1.00 19.22 LIG 0.16  HD
BRANCH 10 12
ATOM     12  CA  LYS B   3       0.038  19.584  15.499  1.00 21.62 LIG 0.18  C 
BRANCH 12 13
ATOM     13  CB  LYS B   3      -0.424  18.168  15.124  1.00 23.55 LIG 0.04  C 
BRANCH 13 14
ATOM     14  CG  LYS B   3      -1.754  18.302  14.337  1.00 23.98 LIG 0.00  C 
BRANCH 14 15
ATOM     15  CD  LYS B   3      -2.192  16.898  13.954  1.00 25.73 LIG 0.03  C 
BRANCH 15 16
ATOM     16  CE  LYS B   3      -3.237  16.988  12.834  1.00 24.69 LIG 0.23  C 
BRANCH 16 17
ATOM     17  NZ  LYS B   3      -2.484  16.892  11.559  1.00 23.73 LIG-0.08  N 
ATOM     18 HZ3  LYS B   3      -1.924  16.201  11.596  1.00 23.73 LIG 0.27  HD
ATOM     19 HZ2  LYS B   3      -2.022  17.642  11.430  1.00 23.73 LIG 0.27  HD
ATOM     20 HZ1  LYS B   3      -3.054  16.776  10.886  1.00 23.73 LIG 0.27  HD
ENDBRANCH 16 17
ENDBRANCH 15 16
ENDBRANCH 14 15
ENDBRANCH 13 14
ENDBRANCH 12 13
BRANCH 12 21
ATOM     21  C   LYS B   3      -1.007  20.152  16.478  1.00 21.19 LIG 0.20  C 
ATOM     22 O    LYS B   3      -1.622  19.348  17.181  1.00 21.92 LIG-0.65  OA
ATOM     23 OXT  LYS B   3      -1.298  21.360  16.434  1.00 20.91 LIG-0.65  OA
ENDBRANCH 12 21
ENDBRANCH 10 12
ENDBRANCH 4 8
BRANCH 1 24
ATOM     24  CA  LYS B   1       6.135  17.597  14.245  1.00 16.81 LIG 0.28  C 
BRANCH 24 25
ATOM     25  N   LYS B   1       6.924  16.533  14.935  1.00 16.33 LIG-0.07  N 
ATOM     26 H2   LYS B   1       7.403  16.897  15.591  1.00 16.33 LIG 0.28  HD
ATOM     27 H1   LYS B   1       7.470  16.142  14.352  1.00 16.33 LIG 0.28  HD
ATOM     28 H3   LYS B   1       6.370  15.926  15.276  1.00 16.33 LIG 0.28  HD
ENDBRANCH 24 25
BRANCH 24 29
ATOM     29  CB  LYS B   1       5.638  17.019  12.884  1.00 20.04 LIG 0.04  C 
BRANCH 29 30
ATOM     30  CG  LYS B   1       6.440  17.419  11.650  1.00 22.28 LIG 0.00  C 
BRANCH 30 31
ATOM     31  CD  LYS B   1       6.260  16.416  10.484  1.00 23.07 LIG 0.03  C 
BRANCH 31 32
ATOM     32  CE  LYS B   1       5.478  15.175  10.886  1.00 23.39 LIG 0.23  C 
BRANCH 32 33
ATOM     33  NZ  LYS B   1       6.253  14.267  11.799  1.00 22.37 LIG-0.08  N 
ATOM     34 HZ3  LYS B   1       5.927  13.440  11.743  1.00 22.37 LIG 0.27  HD
ATOM     35 HZ1  LYS B   1       7.110  14.265  11.559  1.00 22.37 LIG 0.27  HD
ATOM     36 HZ2  LYS B   1       6.181  14.557  12.638  1.00 22.37 LIG 0.27  HD
ENDBRANCH 32 33
ENDBRANCH 31 32
ENDBRANCH 30 31
ENDBRANCH 29 30
ENDBRANCH 24 29
ENDBRANCH 1 24
TORSDOF 15
ENDMDL
MODEL 2
USER: ADFR SOLUTION from run 136
USER: SCORE 18.634225 LL:  -1.624 LR: -17.010 RR:   0.000 FEB: -12.535
USER: RMSD 5.280025
USER: SEED 135
USER: STATUS no improvement in best in 2 clusters for 5 generations
USER: GENES 17
USER: genes 0 Translation |==|  0.48852 0.61715 0.55613
USER: genes 1 Rotation |==|  0.92073 0.30027 0.51693 0.68114
USER: genes 2 Torsion [N]-CA--C-[N] |==|  0.42092
USER: genes 3 Torsion [C]-N--CA-[CB] |==|  0.48197
USER: genes 4 Torsion [N]-CA--CB-[CG] |==|  0.59391
USER: genes 5 Torsion [CA]-CB--CG-[CD] |==|  0.72295
USER: genes 6 Torsion [CB]-CG--CD-[CE] |==|  0.88713
USER: genes 7 Torsion [CG]-CD--CE-[NZ] |==|  0.47912
USER: genes 8 Torsion [CD]-CE--NZ-[HZ3] |==|  0.65765
USER: genes 9 Torsion [N]-CA--C-[O] |==|  0.09634
USER: genes 10 Torsion [N]-C--CA-[N] |==|  0.82956
USER: genes 11 Torsion [C]-CA--N-[H2] |==|  0.71280
USER: genes 12 Torsion [C]-CA--CB-[CG] |==|  0.36818
USER: genes 13 Torsion [CA]-CB--CG-[CD] |==|  0.85957
USER: genes 14 Torsion [CB]-CG--CD-[CE] |==|  0.64050
USER: genes 15 Torsion [CG]-CD--CE-[NZ] |==|  0.78763
USER: genes 16 Torsion [CD]-CE--NZ-[HZ1] |==|  0.85711
ROOT
ATOM      1  C   LYS B   1       1.529  19.487  14.651  1.00 18.50 LIG 0.25  C 
ATOM      2 O    LYS B   1       1.378  20.268  13.699  1.00 18.58 LIG-0.27  OA
ATOM      3  N   PRO B   2       0.482  18.779  15.051  1.00 19.42 LIG-0.34  N 
ATOM      4  CA  PRO B   2      -0.849  18.979  14.472  1.00 19.20 LIG 0.18  C 
ATOM      5  CB  PRO B   2      -1.713  17.954  15.232  1.00 19.17 LIG 0.04  C 
ATOM      6  CG  PRO B   2      -0.694  16.896  15.595  1.00 20.21 LIG 0.02  C 
ATOM      7  CD  PRO B   2       0.493  17.726  16.089  1.00 19.76 LIG 0.13  C 
ENDROOT
BRANCH 4 8
ATOM      8  C   PRO B   2      -1.395  20.377  14.722  1.00 20.15 LIG 0.24  C 
ATOM      9 O    PRO B   2      -1.116  21.048  15.738  1.00 19.46 LIG-0.27  OA
ATOM     10  N   LYS B   3      -2.245  20.845  13.806  1.00 19.22 LIG-0.34  N 
ATOM     11 H    LYS B   3      -2.462  20.401  13.102  1.00 19.22 LIG 0.16  HD
BRANCH 10 12
ATOM     12  CA  LYS B   3      -2.890  22.130  13.890  1.00 21.62 LIG 0.18  C 
BRANCH 12 13
ATOM     13  CB  LYS B   3      -3.694  22.488  12.630  1.00 23.55 LIG 0.04  C 
BRANCH 13 14
ATOM     14  CG  LYS B   3      -3.595  24.023  12.431  1.00 23.98 LIG 0.00  C 
BRANCH 14 15
ATOM     15  CD  LYS B   3      -4.880  24.629  12.973  1.00 25.73 LIG 0.03  C 
BRANCH 15 16
ATOM     16  CE  LYS B   3      -6.062  23.740  12.568  1.00 24.69 LIG 0.23  C 
BRANCH 16 17
ATOM     17  NZ  LYS B   3      -7.247  24.282  13.278  1.00 23.73 LIG-0.08  N 
ATOM     18 HZ3  LYS B   3      -7.615  23.641  13.774  1.00 23.73 LIG 0.27  HD
ATOM     19 HZ2  LYS B   3      -7.842  24.575  12.684  1.00 23.73 LIG 0.27  HD
ATOM     20 HZ1  LYS B   3      -6.997  24.955  13.803  1.00 23.73 LIG 0.27  HD
ENDBRANCH 16 17
ENDBRANCH 15 16
ENDBRANCH 14 15
ENDBRANCH 13 14
ENDBRANCH 12 13
BRANCH 12 21
ATOM     21  C   LYS B   3      -3.878  22.142  15.072  1.00 21.19 LIG 0.20  C 
ATOM     22 O    LYS B   3      -3.568  21.498  16.076  1.00 21.92 LIG-0.65  OA
ATOM     23 OXT  LYS B   3      -4.996  22.668  14.934  1.00 20.91 LIG-0.65  OA
ENDBRANCH 12 21
ENDBRANCH 10 12
ENDBRANCH 4 8
BRANCH 1 24
ATOM     24  CA  LYS B   1       2.840  19.353  15.386  1.00 16.81 LIG 0.28  C 
BRANCH 24 25
ATOM     25  N   LYS B   1       2.671  19.777  16.809  1.00 16.33 LIG-0.07  N 
ATOM     26 H2   LYS B   1       3.018  20.589  16.920  1.00 16.33 LIG 0.28  HD
ATOM     27 H1   LYS B   1       3.088  19.201  17.342  1.00 16.33 LIG 0.28  HD
ATOM     28 H3   LYS B   1       1.805  19.796  17.012  1.00 16.33 LIG 0.28  HD
ENDBRANCH 24 25
BRANCH 24 29
ATOM     29  CB  LYS B   1       3.356  17.881  15.382  1.00 20.04 LIG 0.04  C 
BRANCH 29 30
ATOM     30  CG  LYS B   1       4.822  17.683  15.009  1.00 22.28 LIG 0.00  C 
BRANCH 30 31
ATOM     31  CD  LYS B   1       5.194  18.410  13.693  1.00 23.07 LIG 0.03  C 
BRANCH 31 32
ATOM     32  CE  LYS B   1       5.909  17.506  12.700  1.00 23.39 LIG 0.23  C 
BRANCH 32 33
ATOM     33  NZ  LYS B   1       7.348  17.267  13.059  1.00 22.37 LIG-0.08  N 
ATOM     34 HZ3  LYS B   1       7.754  16.841  12.391  1.00 22.37 LIG 0.27  HD
ATOM     35 HZ1  LYS B   1       7.753  18.047  13.201  1.00 22.37 LIG 0.27  HD
ATOM     36 HZ2  LYS B   1       7.392  16.771  13.797  1.00 22.37 LIG 0.27  HD
ENDBRANCH 32 33
ENDBRANCH 31 32
ENDBRANCH 30 31
ENDBRANCH 29 30
ENDBRANCH 24 29
ENDBRANCH 1 24
TORSDOF 15
ENDMDL
MODEL 3
USER: ADFR SOLUTION from run 13
USER: SCORE 18.603970 LL:  -1.571 LR: -17.033 RR:   0.000 FEB: -12.558
USER: RMSD 5.401284
USER: SEED 477403
USER: STATUS no improvement in best in 1 clusters for 5 generations
USER: GENES 17
USER: genes 0 Translation |==|  0.48597 0.63194 0.55430
USER: genes 1 Rotation |==|  0.91820 0.29854 0.51782 0.68496
USER: genes 2 Torsion [N]-CA--C-[N] |==|  0.40305
USER: genes 3 Torsion [C]-N--CA-[CB] |==|  0.50097
USER: genes 4 Torsion [N]-CA--CB-[CG] |==|  0.57121
USER: genes 5 Torsion [CA]-CB--CG-[CD] |==|  0.74097
USER: genes 6 Torsion [CB]-CG--CD-[CE] |==|  0.86448
USER: genes 7 Torsion [CG]-CD--CE-[NZ] |==|  0.48767
USER: genes 8 Torsion [CD]-CE--NZ-[HZ3] |==|  0.34199
USER: genes 9 Torsion [N]-CA--C-[O] |==|  0.19306
USER: genes 10 Torsion [N]-C--CA-[N] |==|  0.84643
USER: genes 11 Torsion [C]-CA--N-[H2] |==|  0.70734
USER: genes 12 Torsion [C]-CA--CB-[CG] |==|  0.44551
USER: genes 13 Torsion [CA]-CB--CG-[CD] |==|  0.59478
USER: genes 14 Torsion [CB]-CG--CD-[CE] |==|  0.23158
USER: genes 15 Torsion [CG]-CD--CE-[NZ] |==|  0.33194
USER: genes 16 Torsion [CD]-CE--NZ-[HZ1] |==|  0.42643
ROOT
ATOM      1  C   LYS B   1       1.480  19.720  14.624  1.00 18.50 LIG 0.25  C 
ATOM      2 O    LYS B   1       1.335  20.485  13.658  1.00 18.58 LIG-0.27  OA
ATOM      3  N   PRO B   2       0.426  19.029  15.036  1.00 19.42 LIG-0.34  N 
ATOM      4  CA  PRO B   2      -0.903  19.231  14.454  1.00 19.20 LIG 0.18  C 
ATOM      5  CB  PRO B   2      -1.776  18.227  15.232  1.00 19.17 LIG 0.04  C 
ATOM      6  CG  PRO B   2      -0.767  17.166  15.613  1.00 20.21 LIG 0.02  C 
ATOM      7  CD  PRO B   2       0.428  17.994  16.093  1.00 19.76 LIG 0.13  C 
ENDROOT
BRANCH 4 8
ATOM      8  C   PRO B   2      -1.436  20.638  14.679  1.00 20.15 LIG 0.24  C 
ATOM      9 O    PRO B   2      -1.247  21.280  15.734  1.00 19.46 LIG-0.27  OA
ATOM     10  N   LYS B   3      -2.175  21.148  13.692  1.00 19.22 LIG-0.34  N 
ATOM     11 H    LYS B   3      -2.329  20.725  12.959  1.00 19.22 LIG 0.16  HD
BRANCH 10 12
ATOM     12  CA  LYS B   3      -2.792  22.449  13.739  1.00 21.62 LIG 0.18  C 
BRANCH 12 13
ATOM     13  CB  LYS B   3      -3.594  22.785  12.472  1.00 23.55 LIG 0.04  C 
BRANCH 13 14
ATOM     14  CG  LYS B   3      -3.639  24.330  12.342  1.00 23.98 LIG 0.00  C 
BRANCH 14 15
ATOM     15  CD  LYS B   3      -4.917  24.800  13.017  1.00 25.73 LIG 0.03  C 
BRANCH 15 16
ATOM     16  CE  LYS B   3      -6.091  23.956  12.508  1.00 24.69 LIG 0.23  C 
BRANCH 16 17
ATOM     17  NZ  LYS B   3      -7.279  24.392  13.283  1.00 23.73 LIG-0.08  N 
ATOM     18 HZ3  LYS B   3      -7.915  24.665  12.723  1.00 23.73 LIG 0.27  HD
ATOM     19 HZ2  LYS B   3      -7.052  25.062  13.823  1.00 23.73 LIG 0.27  HD
ATOM     20 HZ1  LYS B   3      -7.584  23.711  13.767  1.00 23.73 LIG 0.27  HD
ENDBRANCH 16 17
ENDBRANCH 15 16
ENDBRANCH 14 15
ENDBRANCH 13 14
ENDBRANCH 12 13
BRANCH 12 21
ATOM     21  C   LYS B   3      -3.774  22.517  14.924  1.00 21.19 LIG 0.20  C 
ATOM     22 O    LYS B   3      -3.295  22.517  16.059  1.00 21.92 LIG-0.65  OA
ATOM     23 OXT  LYS B   3      -4.997  22.429  14.715  1.00 20.91 LIG-0.65  OA
ENDBRANCH 12 21
ENDBRANCH 10 12
ENDBRANCH 4 8
BRANCH 1 24
ATOM     24  CA  LYS B   1       2.789  19.587  15.361  1.00 16.81 LIG 0.28  C 
BRANCH 24 25
ATOM     25  N   LYS B   1       2.592  19.897  16.809  1.00 16.33 LIG-0.07  N 
ATOM     26 H2   LYS B   1       2.929  20.701  16.990  1.00 16.33 LIG 0.28  HD
ATOM     27 H1   LYS B   1       3.006  19.284  17.303  1.00 16.33 LIG 0.28  HD
ATOM     28 H3   LYS B   1       1.722  19.892  16.998  1.00 16.33 LIG 0.28  HD
ENDBRANCH 24 25
BRANCH 24 29
ATOM     29  CB  LYS B   1       3.368  18.143  15.253  1.00 20.04 LIG 0.04  C 
BRANCH 29 30
ATOM     30  CG  LYS B   1       4.859  17.992  15.539  1.00 22.28 LIG 0.00  C 
BRANCH 30 31
ATOM     31  CD  LYS B   1       5.513  16.890  14.670  1.00 23.07 LIG 0.03  C 
BRANCH 31 32
ATOM     32  CE  LYS B   1       5.904  17.383  13.285  1.00 23.39 LIG 0.23  C 
BRANCH 32 33
ATOM     33  NZ  LYS B   1       7.378  17.267  13.018  1.00 22.37 LIG-0.08  N 
ATOM     34 HZ3  LYS B   1       7.700  16.549  13.434  1.00 22.37 LIG 0.27  HD
ATOM     35 HZ1  LYS B   1       7.516  17.188  12.142  1.00 22.37 LIG 0.27  HD
ATOM     36 HZ2  LYS B   1       7.793  17.995  13.318  1.00 22.37 LIG 0.27  HD
ENDBRANCH 32 33
ENDBRANCH 31 32
ENDBRANCH 30 31
ENDBRANCH 29 30
ENDBRANCH 24 29
ENDBRANCH 1 24
TORSDOF 15
ENDMDL
MODEL 4
USER: ADFR SOLUTION from run 1
USER: SCORE 18.314641 LL:  -0.914 LR: -17.401 RR:   0.000 FEB: -12.926
USER: RMSD 6.158825
USER: SEED 405149
USER: STATUS no improvement in best in 4 clusters for 5 generations
USER: GENES 17
USER: genes 0 Translation |==|  0.64452 0.55847 0.55059
USER: genes 1 Rotation |==|  0.84637 0.18862 0.32017 0.52704
USER: genes 2 Torsion [N]-CA--C-[N] |==|  0.89373
USER: genes 3 Torsion [C]-N--CA-[CB] |==|  0.90445
USER: genes 4 Torsion [N]-CA--CB-[CG] |==|  0.44373
USER: genes 5 Torsion [CA]-CB--CG-[CD] |==|  0.45591
USER: genes 6 Torsion [CB]-CG--CD-[CE] |==|  0.74561
USER: genes 7 Torsion [CG]-CD--CE-[NZ] |==|  0.32536
USER: genes 8 Torsion [CD]-CE--NZ-[HZ3] |==|  0.60303
USER: genes 9 Torsion [N]-CA--C-[O] |==|  0.85093
USER: genes 10 Torsion [N]-C--CA-[N] |==|  0.83124
USER: genes 11 Torsion [C]-CA--N-[H2] |==|  0.27573
USER: genes 12 Torsion [C]-CA--CB-[CG] |==|  0.33084
USER: genes 13 Torsion [CA]-CB--CG-[CD] |==|  0.81680
USER: genes 14 Torsion [CB]-CG--CD-[CE] |==|  0.30548
USER: genes 15 Torsion [CG]-CD--CE-[NZ] |==|  0.87457
USER: genes 16 Torsion [CD]-CE--NZ-[HZ1] |==|  0.13349
ROOT
ATOM      1  C   LYS B   1       4.571  18.563  14.568  1.00 18.50 LIG 0.25  C 
ATOM      2 O    LYS B   1       5.108  19.667  14.391  1.00 18.58 LIG-0.27  OA
ATOM      3  N   PRO B   2       3.311  18.539  14.981  1.00 19.42 LIG-0.34  N 
ATOM      4  CA  PRO B   2       2.593  19.768  15.330  1.00 19.20 LIG 0.18  C 
ATOM      5  CB  PRO B   2       1.200  19.248  15.737  1.00 19.17 LIG 0.04  C 
ATOM      6  CG  PRO B   2       1.098  17.969  14.935  1.00 20.21 LIG 0.02  C 
ATOM      7  CD  PRO B   2       2.474  17.331  15.141  1.00 19.76 LIG 0.13  C 
ENDROOT
BRANCH 4 8
ATOM      8  C   PRO B   2       3.218  20.500  16.508  1.00 20.15 LIG 0.24  C 
ATOM      9 O    PRO B   2       3.337  21.743  16.556  1.00 19.46 LIG-0.27  OA
ATOM     10  N   LYS B   3       3.691  19.730  17.490  1.00 19.22 LIG-0.34  N 
ATOM     11 H    LYS B   3       3.631  18.872  17.479  1.00 19.22 LIG 0.16  HD
BRANCH 10 12
ATOM     12  CA  LYS B   3       4.346  20.240  18.667  1.00 21.62 LIG 0.18  C 
BRANCH 12 13
ATOM     13  CB  LYS B   3       5.186  21.498  18.396  1.00 23.55 LIG 0.04  C 
BRANCH 13 14
ATOM     14  CG  LYS B   3       5.396  22.221  19.752  1.00 23.98 LIG 0.00  C 
BRANCH 14 15
ATOM     15  CD  LYS B   3       6.530  23.215  19.559  1.00 25.73 LIG 0.03  C 
BRANCH 15 16
ATOM     16  CE  LYS B   3       7.856  22.538  19.927  1.00 24.69 LIG 0.23  C 
BRANCH 16 17
ATOM     17  NZ  LYS B   3       8.667  22.517  18.684  1.00 23.73 LIG-0.08  N 
ATOM     18 HZ3  LYS B   3       9.130  21.758  18.644  1.00 23.73 LIG 0.27  HD
ATOM     19 HZ2  LYS B   3       9.230  23.207  18.684  1.00 23.73 LIG 0.27  HD
ATOM     20 HZ1  LYS B   3       8.130  22.573  17.977  1.00 23.73 LIG 0.27  HD
ENDBRANCH 16 17
ENDBRANCH 15 16
ENDBRANCH 14 15
ENDBRANCH 13 14
ENDBRANCH 12 13
BRANCH 12 21
ATOM     21  C   LYS B   3       3.295  20.622  19.726  1.00 21.19 LIG 0.20  C 
ATOM     22 O    LYS B   3       2.396  21.392  19.381  1.00 21.92 LIG-0.65  OA
ATOM     23 OXT  LYS B   3       3.454  20.267  20.907  1.00 20.91 LIG-0.65  OA
ENDBRANCH 12 21
ENDBRANCH 10 12
ENDBRANCH 4 8
BRANCH 1 24
ATOM     24  CA  LYS B   1       5.312  17.263  14.372  1.00 16.81 LIG 0.28  C 
BRANCH 24 25
ATOM     25  N   LYS B   1       5.384  16.519  15.665  1.00 16.33 LIG-0.07  N 
ATOM     26 H2   LYS B   1       4.753  15.891  15.683  1.00 16.33 LIG 0.28  HD
ATOM     27 H1   LYS B   1       5.259  17.084  16.341  1.00 16.33 LIG 0.28  HD
ATOM     28 H3   LYS B   1       6.184  16.136  15.743  1.00 16.33 LIG 0.28  HD
ENDBRANCH 24 25
BRANCH 24 29
ATOM     29  CB  LYS B   1       4.602  16.346  13.329  1.00 20.04 LIG 0.04  C 
BRANCH 29 30
ATOM     30  CG  LYS B   1       5.412  15.987  12.087  1.00 22.28 LIG 0.00  C 
BRANCH 30 31
ATOM     31  CD  LYS B   1       5.702  17.223  11.200  1.00 23.07 LIG 0.03  C 
BRANCH 31 32
ATOM     32  CE  LYS B   1       7.167  17.634  11.218  1.00 23.39 LIG 0.23  C 
BRANCH 32 33
ATOM     33  NZ  LYS B   1       7.754  17.647  12.601  1.00 22.37 LIG-0.08  N 
ATOM     34 HZ3  LYS B   1       7.426  18.338  13.057  1.00 22.37 LIG 0.27  HD
ATOM     35 HZ1  LYS B   1       7.544  16.889  13.020  1.00 22.37 LIG 0.27  HD
ATOM     36 HZ2  LYS B   1       8.639  17.720  12.547  1.00 22.37 LIG 0.27  HD
ENDBRANCH 32 33
ENDBRANCH 31 32
ENDBRANCH 30 31
ENDBRANCH 29 30
ENDBRANCH 24 29
ENDBRANCH 1 24
TORSDOF 15
ENDMDL
MODEL 5
USER: ADFR SOLUTION from run 11
USER: SCORE 18.167783 LL:  -1.147 LR: -17.021 RR:   0.000 FEB: -12.546
USER: RMSD 5.970166
USER: SEED 450795
USER: STATUS no improvement in best in 1 clusters for 5 generations
USER: GENES 17
USER: genes 0 Translation |==|  0.62567 0.57437 0.55594
USER: genes 1 Rotation |==|  0.85748 0.20887 0.31116 0.54231
USER: genes 2 Torsion [N]-CA--C-[N] |==|  0.92385
USER: genes 3 Torsion [C]-N--CA-[CB] |==|  0.88693
USER: genes 4 Torsion [N]-CA--CB-[CG] |==|  0.84240
USER: genes 5 Torsion [CA]-CB--CG-[CD] |==|  0.74761
USER: genes 6 Torsion [CB]-CG--CD-[CE] |==|  0.92874
USER: genes 7 Torsion [CG]-CD--CE-[NZ] |==|  0.66152
USER: genes 8 Torsion [CD]-CE--NZ-[HZ3] |==|  0.62628
USER: genes 9 Torsion [N]-CA--C-[O] |==|  0.37073
USER: genes 10 Torsion [N]-C--CA-[N] |==|  0.83058
USER: genes 11 Torsion [C]-CA--N-[H2] |==|  0.70116
USER: genes 12 Torsion [C]-CA--CB-[CG] |==|  0.42075
USER: genes 13 Torsion [CA]-CB--CG-[CD] |==|  0.75546
USER: genes 14 Torsion [CB]-CG--CD-[CE] |==|  0.19328
USER: genes 15 Torsion [CG]-CD--CE-[NZ] |==|  0.13820
USER: genes 16 Torsion [CD]-CE--NZ-[HZ1] |==|  0.64241
ROOT
ATOM      1  C   LYS B   1       4.204  18.813  14.648  1.00 18.50 LIG 0.25  C 
ATOM      2 O    LYS B   1       4.614  19.969  14.460  1.00 18.58 LIG-0.27  OA
ATOM      3  N   PRO B   2       2.976  18.655  15.124  1.00 19.42 LIG-0.34  N 
ATOM      4  CA  PRO B   2       2.154  19.799  15.527  1.00 19.20 LIG 0.18  C 
ATOM      5  CB  PRO B   2       0.845  19.134  15.996  1.00 19.17 LIG 0.04  C 
ATOM      6  CG  PRO B   2       0.835  17.858  15.182  1.00 20.21 LIG 0.02  C 
ATOM      7  CD  PRO B   2       2.278  17.365  15.309  1.00 19.76 LIG 0.13  C 
ENDROOT
BRANCH 4 8
ATOM      8  C   PRO B   2       2.760  20.581  16.682  1.00 20.15 LIG 0.24  C 
ATOM      9 O    PRO B   2       2.585  21.808  16.844  1.00 19.46 LIG-0.27  OA
ATOM     10  N   LYS B   3       3.549  19.890  17.507  1.00 19.22 LIG-0.34  N 
ATOM     11 H    LYS B   3       3.695  19.047  17.413  1.00 19.22 LIG 0.16  HD
BRANCH 10 12
ATOM     12  CA  LYS B   3       4.237  20.465  18.633  1.00 21.62 LIG 0.18  C 
BRANCH 12 13
ATOM     13  CB  LYS B   3       4.834  21.849  18.336  1.00 23.55 LIG 0.04  C 
BRANCH 13 14
ATOM     14  CG  LYS B   3       5.781  21.700  17.117  1.00 23.98 LIG 0.00  C 
BRANCH 14 15
ATOM     15  CD  LYS B   3       7.167  21.393  17.660  1.00 25.73 LIG 0.03  C 
BRANCH 15 16
ATOM     16  CE  LYS B   3       7.283  21.956  19.082  1.00 24.69 LIG 0.23  C 
BRANCH 16 17
ATOM     17  NZ  LYS B   3       8.428  22.900  19.059  1.00 23.73 LIG-0.08  N 
ATOM     18 HZ3  LYS B   3       8.943  22.760  19.771  1.00 23.73 LIG 0.27  HD
ATOM     19 HZ2  LYS B   3       8.124  23.737  19.072  1.00 23.73 LIG 0.27  HD
ATOM     20 HZ1  LYS B   3       8.905  22.770  18.319  1.00 23.73 LIG 0.27  HD
ENDBRANCH 16 17
ENDBRANCH 15 16
ENDBRANCH 14 15
ENDBRANCH 13 14
ENDBRANCH 12 13
BRANCH 12 21
ATOM     21  C   LYS B   3       3.257  20.641  19.808  1.00 21.19 LIG 0.20  C 
ATOM     22 O    LYS B   3       3.633  20.267  20.921  1.00 21.92 LIG-0.65  OA
ATOM     23 OXT  LYS B   3       2.092  21.014  19.587  1.00 20.91 LIG-0.65  OA
ENDBRANCH 12 21
ENDBRANCH 10 12
ENDBRANCH 4 8
BRANCH 1 24
ATOM     24  CA  LYS B   1       5.064  17.599  14.396  1.00 16.81 LIG 0.28  C 
BRANCH 24 25
ATOM     25  N   LYS B   1       5.284  16.858  15.675  1.00 16.33 LIG-0.07  N 
ATOM     26 H2   LYS B   1       6.124  16.975  15.945  1.00 16.33 LIG 0.28  HD
ATOM     27 H1   LYS B   1       5.133  15.991  15.545  1.00 16.33 LIG 0.28  HD
ATOM     28 H3   LYS B   1       4.728  17.167  16.297  1.00 16.33 LIG 0.28  HD
ENDBRANCH 24 25
BRANCH 24 29
ATOM     29  CB  LYS B   1       4.397  16.620  13.382  1.00 20.04 LIG 0.04  C 
BRANCH 29 30
ATOM     30  CG  LYS B   1       5.346  15.768  12.546  1.00 22.28 LIG 0.00  C 
BRANCH 30 31
ATOM     31  CD  LYS B   1       5.779  16.482  11.242  1.00 23.07 LIG 0.03  C 
BRANCH 31 32
ATOM     32  CE  LYS B   1       6.698  17.668  11.494  1.00 23.39 LIG 0.23  C 
BRANCH 32 33
ATOM     33  NZ  LYS B   1       7.848  17.334  12.401  1.00 22.37 LIG-0.08  N 
ATOM     34 HZ3  LYS B   1       8.608  17.352  11.937  1.00 22.37 LIG 0.27  HD
ATOM     35 HZ1  LYS B   1       7.889  17.931  13.061  1.00 22.37 LIG 0.27  HD
ATOM     36 HZ2  LYS B   1       7.730  16.521  12.744  1.00 22.37 LIG 0.27  HD
ENDBRANCH 32 33
ENDBRANCH 31 32
ENDBRANCH 30 31
ENDBRANCH 29 30
ENDBRANCH 24 29
ENDBRANCH 1 24
TORSDOF 15
ENDMDL
