MODEL 1
USER: ADFR SOLUTION from run 178
USER: SCORE 22.164727 LL:  -0.886 LR: -21.349 RR:   0.000 FEB: -15.980
USER: RMSD 1.177130
USER: SEED 177
USER: STATUS no improvement in best in 1 clusters for 5 generations
USER: GENES 20
USER: genes 0 Translation |==|  0.59450 0.61382 0.59598
USER: genes 1 Rotation |==|  0.53198 0.51070 0.50172 0.99886
USER: genes 2 Torsion [N]-CA--C-[N] |==|  0.39458
USER: genes 3 Torsion [C]-N--CA-[CB] |==|  0.28109
USER: genes 4 Torsion [N]-CA--CB-[CG] |==|  0.54149
USER: genes 5 Torsion [CA]-CB--CG-[CD] |==|  0.54447
USER: genes 6 Torsion [CB]-CG--CD-[CE] |==|  0.55600
USER: genes 7 Torsion [CG]-CD--CE-[NZ] |==|  0.22431
USER: genes 8 Torsion [CD]-CE--NZ-[HZ3] |==|  0.75636
USER: genes 9 Torsion [N]-CA--C-[O] |==|  0.76969
USER: genes 10 Torsion [C]-CA--CB-[CG] |==|  0.22460
USER: genes 11 Torsion [CA]-CB--CG-[OD2] |==|  0.22913
USER: genes 12 Torsion [C]-CA--N-[C] |==|  0.76436
USER: genes 13 Torsion [N]-C--CA-[N] |==|  0.43678
USER: genes 14 Torsion [C]-CA--N-[H1] |==|  0.65213
USER: genes 15 Torsion [C]-CA--CB-[CG] |==|  0.59220
USER: genes 16 Torsion [CA]-CB--CG-[CD] |==|  0.38587
USER: genes 17 Torsion [CB]-CG--CD-[CE] |==|  0.60494
USER: genes 18 Torsion [CG]-CD--CE-[NZ] |==|  0.06334
USER: genes 19 Torsion [CD]-CE--NZ-[HZ2] |==|  0.08276
ROOT
ATOM      1  CA  ASP B   2       3.665  19.910  16.215  1.00 12.46 LIG 0.19  C 
ENDROOT
BRANCH 1 2
ATOM      2  C   ASP B   2       2.357  19.948  15.447  1.00 13.53 LIG 0.24  C 
ATOM      3 O    ASP B   2       2.323  20.281  14.269  1.00 12.22 LIG-0.27  OA
ATOM      4  N   LYS B   3       1.263  19.542  16.118  1.00 12.18 LIG-0.34  N 
ATOM      5 H    LYS B   3       1.268  19.237  16.922  1.00 12.18 LIG 0.16  HD
BRANCH 4 6
ATOM      6  CA  LYS B   3      -0.039  19.600  15.495  1.00 15.26 LIG 0.18  C 
BRANCH 6 7
ATOM      7  CB  LYS B   3      -0.466  18.216  14.996  1.00 17.81 LIG 0.04  C 
BRANCH 7 8
ATOM      8  CG  LYS B   3      -1.663  18.471  14.028  1.00 19.62 LIG 0.00  C 
BRANCH 8 9
ATOM      9  CD  LYS B   3      -2.356  17.144  13.832  1.00 20.64 LIG 0.03  C 
BRANCH 9 10
ATOM     10  CE  LYS B   3      -3.207  17.157  12.552  1.00 20.59 LIG 0.23  C 
BRANCH 10 11
ATOM     11  NZ  LYS B   3      -2.268  16.908  11.426  1.00 21.98 LIG-0.08  N 
ATOM     12 HZ3  LYS B   3      -1.928  17.682  11.146  1.00 21.98 LIG 0.27  HD
ATOM     13 HZ1  LYS B   3      -1.609  16.376  11.700  1.00 21.98 LIG 0.27  HD
ATOM     14 HZ2  LYS B   3      -2.704  16.516  10.756  1.00 21.98 LIG 0.27  HD
ENDBRANCH 10 11
ENDBRANCH 9 10
ENDBRANCH 8 9
ENDBRANCH 7 8
ENDBRANCH 6 7
BRANCH 6 15
ATOM     15  C   LYS B   3      -1.095  20.078  16.502  1.00 16.28 LIG 0.20  C 
ATOM     16 O    LYS B   3      -1.553  19.183  17.253  1.00 16.01 LIG-0.65  OA
ATOM     17 OXT  LYS B   3      -1.574  21.226  16.432  1.00 15.00 LIG-0.65  OA
ENDBRANCH 6 15
ENDBRANCH 4 6
ENDBRANCH 1 2
BRANCH 1 18
ATOM     18  CB  ASP B   2       3.947  21.334  16.727  1.00 14.65 LIG 0.15  C 
BRANCH 18 19
ATOM     19  CG  ASP B   2       3.146  21.611  17.996  1.00 19.32 LIG 0.17  C 
ATOM     20 OD2  ASP B   2       3.629  21.196  19.052  1.00 20.30 LIG-0.65  OA
ATOM     21 OD1  ASP B   2       2.039  22.157  18.006  1.00 19.73 LIG-0.65  OA
ENDBRANCH 18 19
ENDBRANCH 1 18
BRANCH 1 22
ATOM     22  N   ASP B   2       4.787  19.482  15.354  1.00 11.86 LIG-0.34  N 
ATOM     23  C   LYS B   1       5.034  18.200  15.166  1.00 11.94 LIG 0.25  C 
ATOM     24 O    LYS B   1       4.327  17.303  15.646  1.00 10.64 LIG-0.27  OA
ATOM     25 H    ASP B   2       5.241  20.123  15.005  1.00 11.86 LIG 0.16  HD
BRANCH 23 26
ATOM     26  CA  LYS B   1       6.235  17.852  14.299  1.00 10.01 LIG 0.27  C 
BRANCH 26 27
ATOM     27  N   LYS B   1       6.697  16.464  14.631  1.00 10.36 LIG-0.07  N 
ATOM     28 H3   LYS B   1       6.578  15.934  13.925  1.00 10.36 LIG 0.28  HD
ATOM     29 H2   LYS B   1       6.227  16.150  15.318  1.00 10.36 LIG 0.28  HD
ATOM     30 H1   LYS B   1       7.561  16.481  14.846  1.00 10.36 LIG 0.28  HD
ENDBRANCH 26 27
BRANCH 26 31
ATOM     31  CB  LYS B   1       5.958  17.990  12.788  1.00 13.39 LIG 0.04  C 
BRANCH 31 32
ATOM     32  CG  LYS B   1       6.693  16.999  11.893  1.00 12.86 LIG 0.00  C 
BRANCH 32 33
ATOM     33  CD  LYS B   1       5.756  16.480  10.767  1.00 14.44 LIG 0.03  C 
BRANCH 33 34
ATOM     34  CE  LYS B   1       6.009  14.991  10.487  1.00 17.41 LIG 0.23  C 
BRANCH 34 35
ATOM     35  NZ  LYS B   1       6.633  14.280  11.631  1.00 17.68 LIG-0.08  N 
ATOM     36 HZ1  LYS B   1       7.519  14.321  11.558  1.00 17.68 LIG 0.27  HD
ATOM     37 HZ2  LYS B   1       6.380  14.664  12.393  1.00 17.68 LIG 0.27  HD
ATOM     38 HZ3  LYS B   1       6.375  13.428  11.629  1.00 17.68 LIG 0.27  HD
ENDBRANCH 34 35
ENDBRANCH 33 34
ENDBRANCH 32 33
ENDBRANCH 31 32
ENDBRANCH 26 31
ENDBRANCH 23 26
ENDBRANCH 1 22
TORSDOF 18
ENDMDL
MODEL 2
USER: ADFR SOLUTION from run 180
USER: SCORE 19.530255 LL:  -0.756 LR: -19.848 RR:   0.000 FEB: -14.478
USER: RMSD 5.928859
USER: SEED 179
USER: STATUS no improvement in best in 1 clusters for 5 generations
USER: GENES 20
USER: genes 0 Translation |==|  0.59144 0.61433 0.50457
USER: genes 1 Rotation |==|  0.90020 0.28526 0.29204 0.52191
USER: genes 2 Torsion [N]-CA--C-[N] |==|  0.76186
USER: genes 3 Torsion [C]-N--CA-[CB] |==|  0.88340
USER: genes 4 Torsion [N]-CA--CB-[CG] |==|  0.38910
USER: genes 5 Torsion [CA]-CB--CG-[CD] |==|  0.46176
USER: genes 6 Torsion [CB]-CG--CD-[CE] |==|  0.91383
USER: genes 7 Torsion [CG]-CD--CE-[NZ] |==|  0.75214
USER: genes 8 Torsion [CD]-CE--NZ-[HZ3] |==|  0.80568
USER: genes 9 Torsion [N]-CA--C-[O] |==|  0.32159
USER: genes 10 Torsion [C]-CA--CB-[CG] |==|  0.26368
USER: genes 11 Torsion [CA]-CB--CG-[OD2] |==|  0.58235
USER: genes 12 Torsion [C]-CA--N-[C] |==|  0.19444
USER: genes 13 Torsion [N]-C--CA-[N] |==|  0.53223
USER: genes 14 Torsion [C]-CA--N-[H1] |==|  0.23916
USER: genes 15 Torsion [C]-CA--CB-[CG] |==|  0.82282
USER: genes 16 Torsion [CA]-CB--CG-[CD] |==|  0.52886
USER: genes 17 Torsion [CB]-CG--CD-[CE] |==|  0.32103
USER: genes 18 Torsion [CG]-CD--CE-[NZ] |==|  0.91916
USER: genes 19 Torsion [CD]-CE--NZ-[HZ2] |==|  0.08271
ROOT
ATOM      1  CA  ASP B   2       3.605  19.918  14.706  1.00 12.46 LIG 0.19  C 
ENDROOT
BRANCH 1 2
ATOM      2  C   ASP B   2       3.856  20.639  16.018  1.00 13.53 LIG 0.24  C 
ATOM      3 O    ASP B   2       4.137  21.831  16.042  1.00 12.22 LIG-0.27  OA
ATOM      4  N   LYS B   3       3.694  19.909  17.137  1.00 12.18 LIG-0.34  N 
ATOM      5 H    LYS B   3       3.429  19.091  17.152  1.00 12.18 LIG 0.16  HD
BRANCH 4 6
ATOM      6  CA  LYS B   3       3.969  20.486  18.432  1.00 15.26 LIG 0.18  C 
BRANCH 6 7
ATOM      7  CB  LYS B   3       5.249  21.327  18.393  1.00 17.81 LIG 0.04  C 
BRANCH 7 8
ATOM      8  CG  LYS B   3       4.950  22.587  19.262  1.00 19.62 LIG 0.00  C 
BRANCH 8 9
ATOM      9  CD  LYS B   3       6.275  23.259  19.529  1.00 20.64 LIG 0.03  C 
BRANCH 9 10
ATOM     10  CE  LYS B   3       7.409  22.223  19.588  1.00 20.59 LIG 0.23  C 
BRANCH 10 11
ATOM     11  NZ  LYS B   3       7.496  21.782  21.006  1.00 21.98 LIG-0.08  N 
ATOM     12 HZ3  LYS B   3       7.815  22.446  21.505  1.00 21.98 LIG 0.27  HD
ATOM     13 HZ1  LYS B   3       6.685  21.556  21.297  1.00 21.98 LIG 0.27  HD
ATOM     14 HZ2  LYS B   3       8.038  21.079  21.066  1.00 21.98 LIG 0.27  HD
ENDBRANCH 10 11
ENDBRANCH 9 10
ENDBRANCH 8 9
ENDBRANCH 7 8
ENDBRANCH 6 7
BRANCH 6 15
ATOM     15  C   LYS B   3       2.820  21.407  18.864  1.00 16.28 LIG 0.20  C 
ATOM     16 O    LYS B   3       2.198  21.032  19.887  1.00 16.01 LIG-0.65  OA
ATOM     17 OXT  LYS B   3       2.439  22.343  18.135  1.00 15.00 LIG-0.65  OA
ENDBRANCH 6 15
ENDBRANCH 4 6
ENDBRANCH 1 2
BRANCH 1 18
ATOM     18  CB  ASP B   2       2.484  18.891  14.946  1.00 14.65 LIG 0.15  C 
BRANCH 18 19
ATOM     19  CG  ASP B   2       1.131  19.481  14.558  1.00 19.32 LIG 0.17  C 
ATOM     20 OD2  ASP B   2       0.151  19.061  15.177  1.00 20.30 LIG-0.65  OA
ATOM     21 OD1  ASP B   2       0.970  20.288  13.639  1.00 19.73 LIG-0.65  OA
ENDBRANCH 18 19
ENDBRANCH 1 18
BRANCH 1 22
ATOM     22  N   ASP B   2       4.812  19.206  14.239  1.00 11.86 LIG-0.34  N 
ATOM     23  C   LYS B   1       5.247  18.138  14.878  1.00 11.94 LIG 0.25  C 
ATOM     24 O    LYS B   1       4.655  17.651  15.852  1.00 10.64 LIG-0.27  OA
ATOM     25 H    ASP B   2       5.186  19.544  13.542  1.00 11.86 LIG 0.16  HD
BRANCH 23 26
ATOM     26  CA  LYS B   1       6.522  17.494  14.353  1.00 10.01 LIG 0.27  C 
BRANCH 26 27
ATOM     27  N   LYS B   1       6.705  16.156  15.006  1.00 10.36 LIG-0.07  N 
ATOM     28 H3   LYS B   1       6.397  16.189  15.841  1.00 10.36 LIG 0.28  HD
ATOM     29 H2   LYS B   1       7.570  15.946  15.017  1.00 10.36 LIG 0.28  HD
ATOM     30 H1   LYS B   1       6.257  15.538  14.548  1.00 10.36 LIG 0.28  HD
ENDBRANCH 26 27
BRANCH 26 31
ATOM     31  CB  LYS B   1       6.550  17.361  12.816  1.00 13.39 LIG 0.04  C 
BRANCH 31 32
ATOM     32  CG  LYS B   1       5.485  16.448  12.217  1.00 12.86 LIG 0.00  C 
BRANCH 32 33
ATOM     33  CD  LYS B   1       5.772  16.189  10.713  1.00 14.44 LIG 0.03  C 
BRANCH 33 34
ATOM     34  CE  LYS B   1       6.079  14.705  10.461  1.00 17.41 LIG 0.23  C 
BRANCH 34 35
ATOM     35  NZ  LYS B   1       6.697  14.031  11.631  1.00 17.68 LIG-0.08  N 
ATOM     36 HZ1  LYS B   1       7.583  14.100  11.580  1.00 17.68 LIG 0.27  HD
ATOM     37 HZ2  LYS B   1       6.413  14.418  12.380  1.00 17.68 LIG 0.27  HD
ATOM     38 HZ3  LYS B   1       6.466  13.171  11.635  1.00 17.68 LIG 0.27  HD
ENDBRANCH 34 35
ENDBRANCH 33 34
ENDBRANCH 32 33
ENDBRANCH 31 32
ENDBRANCH 26 31
ENDBRANCH 23 26
ENDBRANCH 1 22
TORSDOF 18
ENDMDL
