MODEL 1
USER: ADFR SOLUTION from run 130
USER: SCORE 21.138365 LL:  -0.709 LR: -20.514 RR:   0.000 FEB: -15.144
USER: RMSD 1.483533
USER: SEED 129
USER: STATUS no improvement in best in 3 clusters for 5 generations
USER: GENES 20
USER: genes 0 Translation |==|  0.62118 0.59980 0.60430
USER: genes 1 Rotation |==|  0.45813 0.53862 0.48800 0.99660
USER: genes 2 Torsion [N]-CA--C-[N] |==|  0.37011
USER: genes 3 Torsion [C]-N--CA-[CB] |==|  0.27558
USER: genes 4 Torsion [N]-CA--CB-[CG] |==|  0.66129
USER: genes 5 Torsion [CA]-CB--CG-[CD] |==|  0.62107
USER: genes 6 Torsion [CB]-CG--CD-[CE] |==|  0.38863
USER: genes 7 Torsion [CG]-CD--CE-[NZ] |==|  0.18908
USER: genes 8 Torsion [CD]-CE--NZ-[HZ1] |==|  0.40293
USER: genes 9 Torsion [N]-CA--C-[OXT] |==|  0.67250
USER: genes 10 Torsion [C]-CA--CB-[OG] |==|  0.51328
USER: genes 11 Torsion [CA]-CB--OG-[HG] |==|  0.14151
USER: genes 12 Torsion [C]-CA--N-[C] |==|  0.75872
USER: genes 13 Torsion [N]-C--CA-[N] |==|  0.34662
USER: genes 14 Torsion [C]-CA--N-[H2] |==|  0.46829
USER: genes 15 Torsion [C]-CA--CB-[CG] |==|  0.29201
USER: genes 16 Torsion [CA]-CB--CG-[CD] |==|  0.97142
USER: genes 17 Torsion [CB]-CG--CD-[CE] |==|  0.28039
USER: genes 18 Torsion [CG]-CD--CE-[NZ] |==|  0.81278
USER: genes 19 Torsion [CD]-CE--NZ-[HZ1] |==|  0.82156
ROOT
ATOM      1  CA  SER B   2       3.934  19.995  15.896  1.00 10.18 LIG 0.20  C 
ENDROOT
BRANCH 1 2
ATOM      2  C   SER B   2       2.497  19.986  15.426  1.00  8.90 LIG 0.24  C 
ATOM      3  N   LYS B   3       1.513  19.795  16.344  1.00  6.95 LIG-0.34  N 
ATOM      4 H    LYS B   3       1.613  19.727  17.196  1.00  6.95 LIG 0.16  HD
ATOM      5 O    SER B   2       2.260  20.195  14.239  1.00  8.68 LIG-0.27  OA
BRANCH 3 6
ATOM      6  CA  LYS B   3       0.156  19.695  15.831  1.00 11.00 LIG 0.18  C 
BRANCH 6 7
ATOM      7  CB  LYS B   3      -0.353  18.252  15.694  1.00 14.39 LIG 0.04  C 
BRANCH 7 8
ATOM      8  CG  LYS B   3      -0.753  18.010  14.206  1.00 14.11 LIG 0.00  C 
BRANCH 8 9
ATOM      9  CD  LYS B   3      -2.057  17.273  14.077  1.00 17.93 LIG 0.03  C 
BRANCH 9 10
ATOM     10  CE  LYS B   3      -2.969  17.775  12.953  1.00 22.23 LIG 0.23  C 
BRANCH 10 11
ATOM     11  NZ  LYS B   3      -2.370  17.470  11.629  1.00 28.78 LIG-0.08  N 
ATOM     12 HZ1  LYS B   3      -3.016  17.278  11.048  1.00 28.78 LIG 0.27  HD
ATOM     13 HZ2  LYS B   3      -1.912  18.177  11.340  1.00 28.78 LIG 0.27  HD
ATOM     14 HZ3  LYS B   3      -1.822  16.773  11.704  1.00 28.78 LIG 0.27  HD
ENDBRANCH 10 11
ENDBRANCH 9 10
ENDBRANCH 8 9
ENDBRANCH 7 8
ENDBRANCH 6 7
BRANCH 6 15
ATOM     15  C   LYS B   3      -0.841  20.431  16.750  1.00 14.57 LIG 0.20  C 
ATOM     16 OXT  LYS B   3      -1.702  19.690  17.253  1.00 12.12 LIG-0.65  OA
ATOM     17 O    LYS B   3      -0.770  21.650  16.890  1.00  9.76 LIG-0.65  OA
ENDBRANCH 6 15
ENDBRANCH 3 6
ENDBRANCH 1 2
BRANCH 1 18
ATOM     18  CB  SER B   2       4.485  21.425  15.796  1.00 16.17 LIG 0.20  C 
BRANCH 18 19
ATOM     19 OG   SER B   2       5.870  21.439  16.128  1.00 18.91 LIG-0.40  OA
ATOM     20 HG   SER B   2       6.272  20.852  15.680  1.00 18.91 LIG 0.21  HD
ENDBRANCH 18 19
ENDBRANCH 1 18
BRANCH 1 21
ATOM     21  N   SER B   2       4.828  19.181  15.076  1.00 10.11 LIG-0.34  N 
ATOM     22 H    SER B   2       5.220  19.620  14.449  1.00 10.11 LIG 0.16  HD
ATOM     23  C   LYS B   1       5.016  17.888  15.281  1.00  8.46 LIG 0.25  C 
ATOM     24 O    LYS B   1       4.398  17.253  16.128  1.00  8.56 LIG-0.27  OA
BRANCH 23 25
ATOM     25  CA  LYS B   1       6.070  17.225  14.418  1.00  4.26 LIG 0.27  C 
BRANCH 25 26
ATOM     26  N   LYS B   1       7.105  16.530  15.245  1.00  4.35 LIG-0.07  N 
ATOM     27 H1   LYS B   1       6.705  16.023  15.858  1.00  4.35 LIG 0.28  HD
ATOM     28 H3   LYS B   1       7.617  17.134  15.650  1.00  4.35 LIG 0.28  HD
ATOM     29 H2   LYS B   1       7.609  16.018  14.719  1.00  4.35 LIG 0.28  HD
ENDBRANCH 25 26
BRANCH 25 30
ATOM     30  CB  LYS B   1       5.436  16.269  13.392  1.00  8.53 LIG 0.04  C 
BRANCH 30 31
ATOM     31  CG  LYS B   1       5.440  16.844  11.984  1.00  9.48 LIG 0.00  C 
BRANCH 31 32
ATOM     32  CD  LYS B   1       5.848  18.333  12.039  1.00 13.21 LIG 0.03  C 
BRANCH 32 33
ATOM     33  CE  LYS B   1       7.310  18.507  11.645  1.00 18.73 LIG 0.23  C 
BRANCH 33 34
ATOM     34  NZ  LYS B   1       8.230  17.898  12.663  1.00 15.92 LIG-0.08  N 
ATOM     35 HZ3  LYS B   1       9.070  17.960  12.378  1.00 15.92 LIG 0.27  HD
ATOM     36 HZ1  LYS B   1       8.146  18.331  13.435  1.00 15.92 LIG 0.27  HD
ATOM     37 HZ2  LYS B   1       8.019  17.041  12.779  1.00 15.92 LIG 0.27  HD
ENDBRANCH 33 34
ENDBRANCH 32 33
ENDBRANCH 31 32
ENDBRANCH 30 31
ENDBRANCH 25 30
ENDBRANCH 23 25
ENDBRANCH 1 21
TORSDOF 18
ENDMDL
MODEL 2
USER: ADFR SOLUTION from run 99
USER: SCORE 21.349180 LL:  -1.565 LR: -19.864 RR:   0.000 FEB: -14.494
USER: RMSD 1.276357
USER: SEED 98
USER: STATUS no improvement in best in 3 clusters for 5 generations
USER: GENES 20
USER: genes 0 Translation |==|  0.62039 0.60494 0.61029
USER: genes 1 Rotation |==|  0.48225 0.52857 0.50622 0.99883
USER: genes 2 Torsion [N]-CA--C-[N] |==|  0.40679
USER: genes 3 Torsion [C]-N--CA-[CB] |==|  0.24849
USER: genes 4 Torsion [N]-CA--CB-[CG] |==|  0.63183
USER: genes 5 Torsion [CA]-CB--CG-[CD] |==|  0.60373
USER: genes 6 Torsion [CB]-CG--CD-[CE] |==|  0.42435
USER: genes 7 Torsion [CG]-CD--CE-[NZ] |==|  0.16102
USER: genes 8 Torsion [CD]-CE--NZ-[HZ1] |==|  0.12894
USER: genes 9 Torsion [N]-CA--C-[OXT] |==|  0.16963
USER: genes 10 Torsion [C]-CA--CB-[OG] |==|  0.54977
USER: genes 11 Torsion [CA]-CB--OG-[HG] |==|  0.09129
USER: genes 12 Torsion [C]-CA--N-[C] |==|  0.75561
USER: genes 13 Torsion [N]-C--CA-[N] |==|  0.40551
USER: genes 14 Torsion [C]-CA--N-[H2] |==|  0.42893
USER: genes 15 Torsion [C]-CA--CB-[CG] |==|  0.83279
USER: genes 16 Torsion [CA]-CB--CG-[CD] |==|  0.64973
USER: genes 17 Torsion [CB]-CG--CD-[CE] |==|  0.58754
USER: genes 18 Torsion [CG]-CD--CE-[NZ] |==|  0.60569
USER: genes 19 Torsion [CD]-CE--NZ-[HZ1] |==|  0.56271
ROOT
ATOM      1  CA  SER B   2       3.918  20.083  15.990  1.00 10.18 LIG 0.20  C 
ENDROOT
BRANCH 1 2
ATOM      2  C   SER B   2       2.502  20.028  15.464  1.00  8.90 LIG 0.24  C 
ATOM      3  N   LYS B   3       1.479  19.949  16.357  1.00  6.95 LIG-0.34  N 
ATOM      4 H    LYS B   3       1.543  19.980  17.214  1.00  6.95 LIG 0.16  HD
ATOM      5 O    SER B   2       2.316  20.098  14.253  1.00  8.68 LIG-0.27  OA
BRANCH 3 6
ATOM      6  CA  LYS B   3       0.144  19.797  15.802  1.00 11.00 LIG 0.18  C 
BRANCH 6 7
ATOM      7  CB  LYS B   3      -0.281  18.335  15.592  1.00 14.39 LIG 0.04  C 
BRANCH 7 8
ATOM      8  CG  LYS B   3      -0.884  18.197  14.160  1.00 14.11 LIG 0.00  C 
BRANCH 8 9
ATOM      9  CD  LYS B   3      -2.050  17.250  14.119  1.00 17.93 LIG 0.03  C 
BRANCH 9 10
ATOM     10  CE  LYS B   3      -3.066  17.532  13.008  1.00 22.23 LIG 0.23  C 
BRANCH 10 11
ATOM     11  NZ  LYS B   3      -2.402  17.494  11.680  1.00 28.78 LIG-0.08  N 
ATOM     12 HZ1  LYS B   3      -1.883  16.773  11.628  1.00 28.78 LIG 0.27  HD
ATOM     13 HZ2  LYS B   3      -3.020  17.462  11.040  1.00 28.78 LIG 0.27  HD
ATOM     14 HZ3  LYS B   3      -1.905  18.225  11.575  1.00 28.78 LIG 0.27  HD
ENDBRANCH 10 11
ENDBRANCH 9 10
ENDBRANCH 8 9
ENDBRANCH 7 8
ENDBRANCH 6 7
BRANCH 6 15
ATOM     15  C   LYS B   3      -0.917  20.437  16.722  1.00 14.57 LIG 0.20  C 
ATOM     16 OXT  LYS B   3      -0.765  21.659  16.890  1.00 12.12 LIG-0.65  OA
ATOM     17 O    LYS B   3      -1.778  19.739  17.253  1.00  9.76 LIG-0.65  OA
ENDBRANCH 6 15
ENDBRANCH 3 6
ENDBRANCH 1 2
BRANCH 1 18
ATOM     18  CB  SER B   2       4.370  21.550  16.056  1.00 16.17 LIG 0.20  C 
BRANCH 18 19
ATOM     19 OG   SER B   2       5.790  21.619  16.141  1.00 18.91 LIG-0.40  OA
ATOM     20 HG   SER B   2       6.129  20.980  15.714  1.00 18.91 LIG 0.21  HD
ENDBRANCH 18 19
ENDBRANCH 1 18
BRANCH 1 21
ATOM     21  N   SER B   2       4.894  19.419  15.130  1.00 10.11 LIG-0.34  N 
ATOM     22 H    SER B   2       5.263  19.942  14.556  1.00 10.11 LIG 0.16  HD
ATOM     23  C   LYS B   1       5.181  18.132  15.227  1.00  8.46 LIG 0.25  C 
ATOM     24 O    LYS B   1       4.596  17.377  15.996  1.00  8.56 LIG-0.27  OA
BRANCH 23 25
ATOM     25  CA  LYS B   1       6.304  17.634  14.342  1.00  4.26 LIG 0.27  C 
BRANCH 25 26
ATOM     26  N   LYS B   1       7.090  16.545  15.003  1.00  4.35 LIG-0.07  N 
ATOM     27 H1   LYS B   1       6.546  16.050  15.505  1.00  4.35 LIG 0.28  HD
ATOM     28 H3   LYS B   1       7.721  16.905  15.517  1.00  4.35 LIG 0.28  HD
ATOM     29 H2   LYS B   1       7.469  16.033  14.382  1.00  4.35 LIG 0.28  HD
ENDBRANCH 25 26
BRANCH 25 30
ATOM     30  CB  LYS B   1       5.780  17.189  12.964  1.00  8.53 LIG 0.04  C 
BRANCH 30 31
ATOM     31  CG  LYS B   1       4.768  16.058  13.067  1.00  9.48 LIG 0.00  C 
BRANCH 31 32
ATOM     32  CD  LYS B   1       5.217  14.884  12.169  1.00 13.21 LIG 0.03  C 
BRANCH 32 33
ATOM     33  CE  LYS B   1       4.011  14.131  11.621  1.00 18.73 LIG 0.23  C 
BRANCH 33 34
ATOM     34  NZ  LYS B   1       4.260  12.652  11.576  1.00 15.92 LIG-0.08  N 
ATOM     35 HZ3  LYS B   1       4.105  12.300  12.378  1.00 15.92 LIG 0.27  HD
ATOM     36 HZ1  LYS B   1       3.718  12.278  10.978  1.00 15.92 LIG 0.27  HD
ATOM     37 HZ2  LYS B   1       5.106  12.500  11.345  1.00 15.92 LIG 0.27  HD
ENDBRANCH 33 34
ENDBRANCH 32 33
ENDBRANCH 31 32
ENDBRANCH 30 31
ENDBRANCH 25 30
ENDBRANCH 23 25
ENDBRANCH 1 21
TORSDOF 18
ENDMDL
MODEL 3
USER: ADFR SOLUTION from run 77
USER: SCORE 19.972030 LL:  -0.932 LR: -19.633 RR:   0.000 FEB: -14.264
USER: RMSD 6.085943
USER: SEED 76
USER: STATUS no improvement in best in 2 clusters for 5 generations
USER: GENES 20
USER: genes 0 Translation |==|  0.64168 0.60570 0.54733
USER: genes 1 Rotation |==|  0.17027 0.79542 0.72847 0.54245
USER: genes 2 Torsion [N]-CA--C-[N] |==|  0.64677
USER: genes 3 Torsion [C]-N--CA-[CB] |==|  0.17088
USER: genes 4 Torsion [N]-CA--CB-[CG] |==|  0.54283
USER: genes 5 Torsion [CA]-CB--CG-[CD] |==|  0.09510
USER: genes 6 Torsion [CB]-CG--CD-[CE] |==|  0.31740
USER: genes 7 Torsion [CG]-CD--CE-[NZ] |==|  0.94241
USER: genes 8 Torsion [CD]-CE--NZ-[HZ1] |==|  0.89633
USER: genes 9 Torsion [N]-CA--C-[OXT] |==|  0.33822
USER: genes 10 Torsion [C]-CA--CB-[OG] |==|  0.34814
USER: genes 11 Torsion [CA]-CB--OG-[HG] |==|  0.91056
USER: genes 12 Torsion [C]-CA--N-[C] |==|  0.16762
USER: genes 13 Torsion [N]-C--CA-[N] |==|  0.40250
USER: genes 14 Torsion [C]-CA--N-[H2] |==|  0.07509
USER: genes 15 Torsion [C]-CA--CB-[CG] |==|  0.18741
USER: genes 16 Torsion [CA]-CB--CG-[CD] |==|  0.21950
USER: genes 17 Torsion [CB]-CG--CD-[CE] |==|  0.77080
USER: genes 18 Torsion [CG]-CD--CE-[NZ] |==|  0.26194
USER: genes 19 Torsion [CD]-CE--NZ-[HZ1] |==|  0.29093
ROOT
ATOM      1  CA  SER B   2       4.349  20.096  14.998  1.00 10.18 LIG 0.20  C 
ENDROOT
BRANCH 1 2
ATOM      2  C   SER B   2       4.830  20.589  16.344  1.00  8.90 LIG 0.24  C 
ATOM      3  N   LYS B   3       3.946  20.632  17.376  1.00  6.95 LIG-0.34  N 
ATOM      4 H    LYS B   3       3.132  20.354  17.365  1.00  6.95 LIG 0.16  HD
ATOM      5 O    SER B   2       6.012  20.893  16.476  1.00  8.68 LIG-0.27  OA
BRANCH 3 6
ATOM      6  CA  LYS B   3       4.429  21.206  18.621  1.00 11.00 LIG 0.18  C 
BRANCH 6 7
ATOM      7  CB  LYS B   3       4.858  22.677  18.504  1.00 14.39 LIG 0.04  C 
BRANCH 7 8
ATOM      8  CG  LYS B   3       5.702  23.046  19.762  1.00 14.11 LIG 0.00  C 
BRANCH 8 9
ATOM      9  CD  LYS B   3       6.533  21.892  20.251  1.00 17.93 LIG 0.03  C 
BRANCH 9 10
ATOM     10  CE  LYS B   3       8.046  22.096  20.133  1.00 22.23 LIG 0.23  C 
BRANCH 10 11
ATOM     11  NZ  LYS B   3       8.348  23.148  19.128  1.00 28.78 LIG-0.08  N 
ATOM     12 HZ1  LYS B   3       7.774  23.085  18.450  1.00 28.78 LIG 0.27  HD
ATOM     13 HZ2  LYS B   3       8.272  23.950  19.506  1.00 28.78 LIG 0.27  HD
ATOM     14 HZ3  LYS B   3       9.178  23.041  18.825  1.00 28.78 LIG 0.27  HD
ENDBRANCH 10 11
ENDBRANCH 9 10
ENDBRANCH 8 9
ENDBRANCH 7 8
ENDBRANCH 6 7
BRANCH 6 15
ATOM     15  C   LYS B   3       3.344  21.148  19.717  1.00 14.57 LIG 0.20  C 
ATOM     16 OXT  LYS B   3       3.690  20.523  20.734  1.00 12.12 LIG-0.65  OA
ATOM     17 O    LYS B   3       2.238  21.648  19.521  1.00  9.76 LIG-0.65  OA
ENDBRANCH 6 15
ENDBRANCH 3 6
ENDBRANCH 1 2
BRANCH 1 18
ATOM     18  CB  SER B   2       2.945  19.495  15.159  1.00 16.17 LIG 0.20  C 
BRANCH 18 19
ATOM     19 OG   SER B   2       2.040  20.120  14.253  1.00 18.91 LIG-0.40  OA
ATOM     20 HG   SER B   2       2.267  20.920  14.137  1.00 18.91 LIG 0.21  HD
ENDBRANCH 18 19
ENDBRANCH 1 18
BRANCH 1 21
ATOM     21  N   SER B   2       5.165  19.023  14.436  1.00 10.11 LIG-0.34  N 
ATOM     22 H    SER B   2       5.522  19.220  13.679  1.00 10.11 LIG 0.16  HD
ATOM     23  C   LYS B   1       5.336  17.858  15.038  1.00  8.46 LIG 0.25  C 
ATOM     24 O    LYS B   1       4.763  17.558  16.079  1.00  8.56 LIG-0.27  OA
BRANCH 23 25
ATOM     25  CA  LYS B   1       6.311  16.907  14.376  1.00  4.26 LIG 0.27  C 
BRANCH 25 26
ATOM     26  N   LYS B   1       7.071  16.103  15.384  1.00  4.35 LIG-0.07  N 
ATOM     27 H1   LYS B   1       7.837  16.515  15.576  1.00  4.35 LIG 0.28  HD
ATOM     28 H3   LYS B   1       7.245  15.296  15.051  1.00  4.35 LIG 0.28  HD
ATOM     29 H2   LYS B   1       6.585  16.020  16.125  1.00  4.35 LIG 0.28  HD
ENDBRANCH 25 26
BRANCH 25 30
ATOM     30  CB  LYS B   1       5.605  15.999  13.353  1.00  8.53 LIG 0.04  C 
BRANCH 30 31
ATOM     31  CG  LYS B   1       5.093  16.774  12.148  1.00  9.48 LIG 0.00  C 
BRANCH 31 32
ATOM     32  CD  LYS B   1       6.266  17.054  11.182  1.00 13.21 LIG 0.03  C 
BRANCH 32 33
ATOM     33  CE  LYS B   1       7.053  18.280  11.630  1.00 18.73 LIG 0.23  C 
BRANCH 33 34
ATOM     34  NZ  LYS B   1       8.230  17.897  12.479  1.00 15.92 LIG-0.08  N 
ATOM     35 HZ3  LYS B   1       8.137  17.055  12.753  1.00 15.92 LIG 0.27  HD
ATOM     36 HZ1  LYS B   1       8.977  17.973  12.003  1.00 15.92 LIG 0.27  HD
ATOM     37 HZ2  LYS B   1       8.273  18.435  13.187  1.00 15.92 LIG 0.27  HD
ENDBRANCH 33 34
ENDBRANCH 32 33
ENDBRANCH 31 32
ENDBRANCH 30 31
ENDBRANCH 25 30
ENDBRANCH 23 25
ENDBRANCH 1 21
TORSDOF 18
ENDMDL
MODEL 4
USER: ADFR SOLUTION from run 65
USER: SCORE 19.743850 LL:  -1.129 LR: -18.934 RR:   0.000 FEB: -13.565
USER: RMSD 5.910711
USER: SEED 64
USER: STATUS no improvement in best in 2 clusters for 5 generations
USER: GENES 20
USER: genes 0 Translation |==|  0.64829 0.53937 0.57103
USER: genes 1 Rotation |==|  0.86951 0.39880 0.22978 0.67379
USER: genes 2 Torsion [N]-CA--C-[N] |==|  0.48580
USER: genes 3 Torsion [C]-N--CA-[CB] |==|  0.13754
USER: genes 4 Torsion [N]-CA--CB-[CG] |==|  0.65648
USER: genes 5 Torsion [CA]-CB--CG-[CD] |==|  0.00007
USER: genes 6 Torsion [CB]-CG--CD-[CE] |==|  0.53997
USER: genes 7 Torsion [CG]-CD--CE-[NZ] |==|  0.79960
USER: genes 8 Torsion [CD]-CE--NZ-[HZ1] |==|  0.66579
USER: genes 9 Torsion [N]-CA--C-[OXT] |==|  0.77373
USER: genes 10 Torsion [C]-CA--CB-[OG] |==|  0.69247
USER: genes 11 Torsion [CA]-CB--OG-[HG] |==|  0.60461
USER: genes 12 Torsion [C]-CA--N-[C] |==|  0.53000
USER: genes 13 Torsion [N]-C--CA-[N] |==|  0.16829
USER: genes 14 Torsion [C]-CA--N-[H2] |==|  0.15442
USER: genes 15 Torsion [C]-CA--CB-[CG] |==|  0.57243
USER: genes 16 Torsion [CA]-CB--CG-[CD] |==|  0.42833
USER: genes 17 Torsion [CB]-CG--CD-[CE] |==|  0.88351
USER: genes 18 Torsion [CG]-CD--CE-[NZ] |==|  0.83143
USER: genes 19 Torsion [CD]-CE--NZ-[HZ1] |==|  0.93033
ROOT
ATOM      1  CA  SER B   2       4.483  18.952  15.372  1.00 10.18 LIG 0.20  C 
ENDROOT
BRANCH 1 2
ATOM      2  C   SER B   2       4.678  20.048  16.394  1.00  8.90 LIG 0.24  C 
ATOM      3  N   LYS B   3       3.708  20.252  17.324  1.00  6.95 LIG-0.34  N 
ATOM      4 H    LYS B   3       2.996  19.781  17.434  1.00  6.95 LIG 0.16  HD
ATOM      5 O    SER B   2       5.724  20.692  16.380  1.00  8.68 LIG-0.27  OA
BRANCH 3 6
ATOM      6  CA  LYS B   3       3.895  21.381  18.221  1.00 11.00 LIG 0.18  C 
BRANCH 6 7
ATOM      7  CB  LYS B   3       4.237  22.697  17.504  1.00 14.39 LIG 0.04  C 
BRANCH 7 8
ATOM      8  CG  LYS B   3       5.580  23.238  18.083  1.00 14.11 LIG 0.00  C 
BRANCH 8 9
ATOM      9  CD  LYS B   3       6.146  22.342  19.149  1.00 17.93 LIG 0.03  C 
BRANCH 9 10
ATOM     10  CE  LYS B   3       7.259  22.973  19.992  1.00 22.23 LIG 0.23  C 
BRANCH 10 11
ATOM     11  NZ  LYS B   3       8.504  23.096  19.192  1.00 28.78 LIG-0.08  N 
ATOM     12 HZ1  LYS B   3       9.156  22.635  19.585  1.00 28.78 LIG 0.27  HD
ATOM     13 HZ2  LYS B   3       8.365  22.773  18.374  1.00 28.78 LIG 0.27  HD
ATOM     14 HZ3  LYS B   3       8.738  23.953  19.137  1.00 28.78 LIG 0.27  HD
ENDBRANCH 10 11
ENDBRANCH 9 10
ENDBRANCH 8 9
ENDBRANCH 7 8
ENDBRANCH 6 7
BRANCH 6 15
ATOM     15  C   LYS B   3       2.621  21.648  19.051  1.00 14.57 LIG 0.20  C 
ATOM     16 OXT  LYS B   3       1.755  22.302  18.446  1.00 12.12 LIG-0.65  OA
ATOM     17 O    LYS B   3       2.552  21.267  20.218  1.00  9.76 LIG-0.65  OA
ENDBRANCH 6 15
ENDBRANCH 3 6
ENDBRANCH 1 2
BRANCH 1 18
ATOM     18  CB  SER B   2       4.543  17.591  16.081  1.00 16.17 LIG 0.20  C 
BRANCH 18 19
ATOM     19 OG   SER B   2       5.727  16.895  15.703  1.00 18.91 LIG-0.40  OA
ATOM     20 HG   SER B   2       5.560  16.075  15.628  1.00 18.91 LIG 0.21  HD
ENDBRANCH 18 19
ENDBRANCH 1 18
BRANCH 1 21
ATOM     21  N   SER B   2       5.529  18.901  14.353  1.00 10.11 LIG-0.34  N 
ATOM     22 H    SER B   2       6.209  19.396  14.530  1.00 10.11 LIG 0.16  HD
ATOM     23  C   LYS B   1       5.436  18.159  13.263  1.00  8.46 LIG 0.25  C 
ATOM     24 O    LYS B   1       4.433  17.514  12.982  1.00  8.56 LIG-0.27  OA
BRANCH 23 25
ATOM     25  CA  LYS B   1       6.663  18.127  12.375  1.00  4.26 LIG 0.27  C 
BRANCH 25 26
ATOM     26  N   LYS B   1       7.854  17.580  13.096  1.00  4.35 LIG-0.07  N 
ATOM     27 H1   LYS B   1       8.073  18.125  13.765  1.00  4.35 LIG 0.28  HD
ATOM     28 H3   LYS B   1       8.539  17.516  12.531  1.00  4.35 LIG 0.28  HD
ATOM     29 H2   LYS B   1       7.660  16.774  13.420  1.00  4.35 LIG 0.28  HD
ENDBRANCH 25 26
BRANCH 25 30
ATOM     30  CB  LYS B   1       6.393  17.356  11.070  1.00  8.53 LIG 0.04  C 
BRANCH 30 31
ATOM     31  CG  LYS B   1       7.661  16.762  10.476  1.00  9.48 LIG 0.00  C 
BRANCH 31 32
ATOM     32  CD  LYS B   1       7.297  15.530   9.618  1.00 13.21 LIG 0.03  C 
BRANCH 32 33
ATOM     33  CE  LYS B   1       6.241  14.680  10.313  1.00 18.73 LIG 0.23  C 
BRANCH 33 34
ATOM     34  NZ  LYS B   1       6.730  14.170  11.637  1.00 15.92 LIG-0.08  N 
ATOM     35 HZ3  LYS B   1       6.400  13.357  11.782  1.00 15.92 LIG 0.27  HD
ATOM     36 HZ1  LYS B   1       7.619  14.133  11.631  1.00 15.92 LIG 0.27  HD
ATOM     37 HZ2  LYS B   1       6.461  14.719  12.285  1.00 15.92 LIG 0.27  HD
ENDBRANCH 33 34
ENDBRANCH 32 33
ENDBRANCH 31 32
ENDBRANCH 30 31
ENDBRANCH 25 30
ENDBRANCH 23 25
ENDBRANCH 1 21
TORSDOF 18
ENDMDL
MODEL 5
USER: ADFR SOLUTION from run 153
USER: SCORE 18.742646 LL:  -0.827 LR: -18.817 RR:   0.000 FEB: -13.448
USER: RMSD 5.396517
USER: SEED 152
USER: STATUS no improvement in best in 2 clusters for 5 generations
USER: GENES 20
USER: genes 0 Translation |==|  0.59385 0.57464 0.54500
USER: genes 1 Rotation |==|  0.91236 0.30518 0.29522 0.50826
USER: genes 2 Torsion [N]-CA--C-[N] |==|  0.47983
USER: genes 3 Torsion [C]-N--CA-[CB] |==|  0.18639
USER: genes 4 Torsion [N]-CA--CB-[CG] |==|  0.70605
USER: genes 5 Torsion [CA]-CB--CG-[CD] |==|  0.44195
USER: genes 6 Torsion [CB]-CG--CD-[CE] |==|  0.36427
USER: genes 7 Torsion [CG]-CD--CE-[NZ] |==|  0.34385
USER: genes 8 Torsion [CD]-CE--NZ-[HZ1] |==|  0.33371
USER: genes 9 Torsion [N]-CA--C-[OXT] |==|  0.45778
USER: genes 10 Torsion [C]-CA--CB-[OG] |==|  0.94200
USER: genes 11 Torsion [CA]-CB--OG-[HG] |==|  0.91968
USER: genes 12 Torsion [C]-CA--N-[C] |==|  0.19453
USER: genes 13 Torsion [N]-C--CA-[N] |==|  0.55879
USER: genes 14 Torsion [C]-CA--N-[H2] |==|  0.27209
USER: genes 15 Torsion [C]-CA--CB-[CG] |==|  0.87404
USER: genes 16 Torsion [CA]-CB--CG-[CD] |==|  0.67346
USER: genes 17 Torsion [CB]-CG--CD-[CE] |==|  0.32983
USER: genes 18 Torsion [CG]-CD--CE-[NZ] |==|  0.67375
USER: genes 19 Torsion [CD]-CE--NZ-[HZ1] |==|  0.92646
ROOT
ATOM      1  CA  SER B   2       3.380  19.561  14.962  1.00 10.18 LIG 0.20  C 
ENDROOT
BRANCH 1 2
ATOM      2  C   SER B   2       3.352  20.229  16.317  1.00  8.90 LIG 0.24  C 
ATOM      3  N   LYS B   3       2.208  20.847  16.714  1.00  6.95 LIG-0.34  N 
ATOM      4 H    LYS B   3       1.458  20.857  16.293  1.00  6.95 LIG 0.16  HD
ATOM      5 O    SER B   2       4.346  20.158  17.034  1.00  8.68 LIG-0.27  OA
BRANCH 3 6
ATOM      6  CA  LYS B   3       2.261  21.561  17.980  1.00 11.00 LIG 0.18  C 
BRANCH 6 7
ATOM      7  CB  LYS B   3       3.172  22.798  17.960  1.00 14.39 LIG 0.04  C 
BRANCH 7 8
ATOM      8  CG  LYS B   3       4.476  22.463  18.747  1.00 14.11 LIG 0.00  C 
BRANCH 8 9
ATOM      9  CD  LYS B   3       5.615  23.373  18.381  1.00 17.93 LIG 0.03  C 
BRANCH 9 10
ATOM     10  CE  LYS B   3       6.356  23.985  19.574  1.00 22.23 LIG 0.23  C 
BRANCH 10 11
ATOM     11  NZ  LYS B   3       7.804  23.662  19.503  1.00 28.78 LIG-0.08  N 
ATOM     12 HZ1  LYS B   3       8.275  24.416  19.464  1.00 28.78 LIG 0.27  HD
ATOM     13 HZ2  LYS B   3       8.041  23.202  20.227  1.00 28.78 LIG 0.27  HD
ATOM     14 HZ3  LYS B   3       7.964  23.174  18.776  1.00 28.78 LIG 0.27  HD
ENDBRANCH 10 11
ENDBRANCH 9 10
ENDBRANCH 8 9
ENDBRANCH 7 8
ENDBRANCH 6 7
BRANCH 6 15
ATOM     15  C   LYS B   3       0.860  22.051  18.401  1.00 14.57 LIG 0.20  C 
ATOM     16 OXT  LYS B   3       0.785  22.398  19.591  1.00 12.12 LIG-0.65  OA
ATOM     17 O    LYS B   3      -0.071  22.026  17.598  1.00  9.76 LIG-0.65  OA
ENDBRANCH 6 15
ENDBRANCH 3 6
ENDBRANCH 1 2
BRANCH 1 18
ATOM     18  CB  SER B   2       2.489  18.310  15.002  1.00 16.17 LIG 0.20  C 
BRANCH 18 19
ATOM     19 OG   SER B   2       2.305  17.885  16.349  1.00 18.91 LIG-0.40  OA
ATOM     20 HG   SER B   2       2.975  18.105  16.807  1.00 18.91 LIG 0.21  HD
ENDBRANCH 18 19
ENDBRANCH 1 18
BRANCH 1 21
ATOM     21  N   SER B   2       4.702  19.077  14.569  1.00 10.11 LIG-0.34  N 
ATOM     22 H    SER B   2       5.057  19.524  13.926  1.00 10.11 LIG 0.16  HD
ATOM     23  C   LYS B   1       5.294  18.048  15.151  1.00  8.46 LIG 0.25  C 
ATOM     24 O    LYS B   1       4.750  17.370  16.015  1.00  8.56 LIG-0.27  OA
BRANCH 23 25
ATOM     25  CA  LYS B   1       6.713  17.760  14.705  1.00  4.26 LIG 0.27  C 
BRANCH 25 26
ATOM     26  N   LYS B   1       7.111  16.349  15.003  1.00  4.35 LIG-0.07  N 
ATOM     27 H1   LYS B   1       6.596  16.026  15.653  1.00  4.35 LIG 0.28  HD
ATOM     28 H3   LYS B   1       7.962  16.329  15.263  1.00  4.35 LIG 0.28  HD
ATOM     29 H2   LYS B   1       7.012  15.852  14.271  1.00  4.35 LIG 0.28  HD
ENDBRANCH 25 26
BRANCH 25 30
ATOM     30  CB  LYS B   1       6.913  18.096  13.216  1.00  8.53 LIG 0.04  C 
BRANCH 30 31
ATOM     31  CG  LYS B   1       5.777  17.578  12.347  1.00  9.48 LIG 0.00  C 
BRANCH 31 32
ATOM     32  CD  LYS B   1       6.331  16.545  11.341  1.00 13.21 LIG 0.03  C 
BRANCH 32 33
ATOM     33  CE  LYS B   1       5.683  15.182  11.555  1.00 18.73 LIG 0.23  C 
BRANCH 33 34
ATOM     34  NZ  LYS B   1       6.697  14.148  11.951  1.00 15.92 LIG-0.08  N 
ATOM     35 HZ3  LYS B   1       6.461  13.358  11.616  1.00 15.92 LIG 0.27  HD
ATOM     36 HZ1  LYS B   1       7.495  14.378  11.635  1.00 15.92 LIG 0.27  HD
ATOM     37 HZ2  LYS B   1       6.734  14.094  12.839  1.00 15.92 LIG 0.27  HD
ENDBRANCH 33 34
ENDBRANCH 32 33
ENDBRANCH 31 32
ENDBRANCH 30 31
ENDBRANCH 25 30
ENDBRANCH 23 25
ENDBRANCH 1 21
TORSDOF 18
ENDMDL
