MODEL 1
USER: ADFR SOLUTION from run 198
USER: SCORE 23.991879 LL:  -1.104 LR: -22.997 RR:   0.000 FEB: -17.330
USER: RMSD 1.179070
USER: SEED 197
USER: STATUS no improvement in best in 1 clusters for 5 generations
USER: GENES 21
USER: genes 0 Translation |==|  0.57287 0.60877 0.51224
USER: genes 1 Rotation |==|  0.47021 0.54422 0.46800 0.99612
USER: genes 2 Torsion [N]-CA--C-[N] |==|  0.32837
USER: genes 3 Torsion [C]-N--CA-[CB] |==|  0.29869
USER: genes 4 Torsion [N]-CA--CB-[CG] |==|  0.57503
USER: genes 5 Torsion [CA]-CB--CG-[CD] |==|  0.53332
USER: genes 6 Torsion [CB]-CG--CD-[CE] |==|  0.52628
USER: genes 7 Torsion [CG]-CD--CE-[NZ] |==|  0.21030
USER: genes 8 Torsion [CD]-CE--NZ-[HZ2] |==|  0.79876
USER: genes 9 Torsion [N]-CA--C-[OXT] |==|  0.23253
USER: genes 10 Torsion [C]-CA--CB-[CG] |==|  0.40282
USER: genes 11 Torsion [CA]-CB--CG-[CD1] |==|  0.87927
USER: genes 12 Torsion [CE1]-CZ--OH-[HH] |==|  0.87060
USER: genes 13 Torsion [C]-CA--N-[C] |==|  0.76445
USER: genes 14 Torsion [N]-C--CA-[N] |==|  0.36333
USER: genes 15 Torsion [C]-CA--CB-[CG] |==|  0.26136
USER: genes 16 Torsion [CA]-CB--CG-[CD] |==|  0.19800
USER: genes 17 Torsion [CB]-CG--CD-[CE] |==|  0.78512
USER: genes 18 Torsion [CG]-CD--CE-[NZ] |==|  0.26569
USER: genes 19 Torsion [CD]-CE--NZ-[HZ1] |==|  0.96313
USER: genes 20 Torsion [C]-CA--N-[H2] |==|  0.43716
ROOT
ATOM      1  CA  TYR B   2       3.911  20.647  15.908  1.00 10.27 LIG 0.18  C 
ENDROOT
BRANCH 1 2
ATOM      2  C   TYR B   2       2.519  20.648  15.290  1.00 12.73 LIG 0.24  C 
ATOM      3 O    TYR B   2       2.280  21.144  14.178  1.00 10.11 LIG-0.27  OA
ATOM      4  N   LYS B   3       1.562  20.136  16.066  1.00 12.59 LIG-0.34  N 
ATOM      5 H    LYS B   3       1.696  19.818  16.853  1.00 12.59 LIG 0.16  HD
BRANCH 4 6
ATOM      6  CA  LYS B   3       0.188  20.083  15.618  1.00 15.60 LIG 0.18  C 
BRANCH 6 7
ATOM      7  CB  LYS B   3      -0.311  18.681  15.260  1.00 14.29 LIG 0.04  C 
BRANCH 7 8
ATOM      8  CG  LYS B   3      -1.447  18.903  14.198  1.00 13.96 LIG 0.00  C 
BRANCH 8 9
ATOM      9  CD  LYS B   3      -2.236  17.640  13.959  1.00 18.12 LIG 0.03  C 
BRANCH 9 10
ATOM     10  CE  LYS B   3      -3.185  17.815  12.750  1.00 16.83 LIG 0.23  C 
BRANCH 10 11
ATOM     11  NZ  LYS B   3      -2.313  17.727  11.554  1.00 27.08 LIG-0.08  N 
ATOM     12 HZ3  LYS B   3      -1.775  17.022  11.629  1.00 27.08 LIG 0.27  HD
ATOM     13 HZ2  LYS B   3      -1.823  18.467  11.489  1.00 27.08 LIG 0.27  HD
ATOM     14 HZ1  LYS B   3      -2.816  17.640  10.825  1.00 27.08 LIG 0.27  HD
ENDBRANCH 10 11
ENDBRANCH 9 10
ENDBRANCH 8 9
ENDBRANCH 7 8
ENDBRANCH 6 7
BRANCH 6 15
ATOM     15  C   LYS B   3      -0.746  20.673  16.697  1.00 15.27 LIG 0.20  C 
ATOM     16 OXT  LYS B   3      -0.936  21.888  16.780  1.00 10.74 LIG-0.65  OA
ATOM     17 O    LYS B   3      -1.313  19.859  17.433  1.00 14.41 LIG-0.65  OA
ENDBRANCH 6 15
ENDBRANCH 4 6
ENDBRANCH 1 2
BRANCH 1 18
ATOM     18  CB  TYR B   2       4.336  22.142  16.032  1.00 10.39 LIG 0.07  C 
BRANCH 18 19
ATOM     19  CG  TYR B   2       5.167  22.363  17.281  1.00 11.96 LIG-0.06  A 
ATOM     20  CD1 TYR B   2       4.834  21.805  18.495  1.00 11.67 LIG 0.01  A 
ATOM     21  CE1 TYR B   2       5.585  21.978  19.646  1.00 13.01 LIG 0.04  A 
ATOM     22  CZ  TYR B   2       6.691  22.757  19.553  1.00 17.78 LIG 0.07  A 
ATOM     23  CE2 TYR B   2       7.058  23.349  18.354  1.00 20.17 LIG 0.04  A 
ATOM     24  CD2 TYR B   2       6.309  23.152  17.221  1.00 16.60 LIG 0.01  A 
BRANCH 22 25
ATOM     25 OH   TYR B   2       7.504  22.976  20.634  1.00 26.76 LIG-0.36  OA
ATOM     26 HH   TYR B   2       7.034  23.169  21.303  1.00 26.76 LIG 0.22  HD
ENDBRANCH 22 25
ENDBRANCH 18 19
ENDBRANCH 1 18
BRANCH 1 27
ATOM     27  N   TYR B   2       4.886  19.840  15.160  1.00  6.22 LIG-0.35  N 
ATOM     28 H    TYR B   2       5.357  20.296  14.603  1.00  6.22 LIG 0.16  HD
ATOM     29  C   LYS B   1       5.027  18.542  15.328  1.00  7.19 LIG 0.25  C 
ATOM     30 O    LYS B   1       4.307  17.867  16.109  1.00 11.44 LIG-0.27  OA
BRANCH 29 31
ATOM     31  CA  LYS B   1       6.057  17.842  14.458  1.00 10.22 LIG 0.27  C 
BRANCH 31 32
ATOM     32  CB  LYS B   1       5.334  17.051  13.337  1.00 11.18 LIG 0.04  C 
BRANCH 32 33
ATOM     33  CG  LYS B   1       5.176  17.781  12.021  1.00 13.69 LIG 0.00  C 
BRANCH 33 34
ATOM     34  CD  LYS B   1       6.466  17.964  11.232  1.00 14.37 LIG 0.03  C 
BRANCH 34 35
ATOM     35  CE  LYS B   1       7.368  19.088  11.769  1.00 18.49 LIG 0.23  C 
BRANCH 35 36
ATOM     36  NZ  LYS B   1       8.386  18.479  12.678  1.00 20.11 LIG-0.08  N 
ATOM     37 HZ1  LYS B   1       8.148  17.644  12.873  1.00 20.11 LIG 0.27  HD
ATOM     38 HZ2  LYS B   1       9.179  18.476  12.276  1.00 20.11 LIG 0.27  HD
ATOM     39 HZ3  LYS B   1       8.436  18.956  13.428  1.00 20.11 LIG 0.27  HD
ENDBRANCH 35 36
ENDBRANCH 34 35
ENDBRANCH 33 34
ENDBRANCH 32 33
ENDBRANCH 31 32
BRANCH 31 40
ATOM     40  N   LYS B   1       6.945  16.977  15.305  1.00 11.01 LIG-0.07  N 
ATOM     41 H1   LYS B   1       6.464  16.602  15.953  1.00 11.01 LIG 0.28  HD
ATOM     42 H2   LYS B   1       7.310  16.342  14.800  1.00 11.01 LIG 0.28  HD
ATOM     43 H3   LYS B   1       7.589  17.476  15.664  1.00 11.01 LIG 0.28  HD
ENDBRANCH 31 40
ENDBRANCH 29 31
ENDBRANCH 1 27
TORSDOF 19
ENDMDL
MODEL 2
USER: ADFR SOLUTION from run 3
USER: SCORE 22.271231 LL:  -1.182 LR: -21.964 RR:   0.000 FEB: -16.296
USER: RMSD 6.748006
USER: SEED 120677
USER: STATUS no improvement in best in 6 clusters for 5 generations
USER: GENES 21
USER: genes 0 Translation |==|  0.52926 0.56894 0.48193
USER: genes 1 Rotation |==|  0.89651 0.31586 0.28451 0.61154
USER: genes 2 Torsion [N]-CA--C-[N] |==|  0.78917
USER: genes 3 Torsion [C]-N--CA-[CB] |==|  0.88465
USER: genes 4 Torsion [N]-CA--CB-[CG] |==|  0.80361
USER: genes 5 Torsion [CA]-CB--CG-[CD] |==|  0.67914
USER: genes 6 Torsion [CB]-CG--CD-[CE] |==|  0.47963
USER: genes 7 Torsion [CG]-CD--CE-[NZ] |==|  0.38444
USER: genes 8 Torsion [CD]-CE--NZ-[HZ2] |==|  0.64214
USER: genes 9 Torsion [N]-CA--C-[OXT] |==|  0.80890
USER: genes 10 Torsion [C]-CA--CB-[CG] |==|  0.22931
USER: genes 11 Torsion [CA]-CB--CG-[CD1] |==|  0.34875
USER: genes 12 Torsion [CE1]-CZ--OH-[HH] |==|  0.13721
USER: genes 13 Torsion [C]-CA--N-[C] |==|  0.22035
USER: genes 14 Torsion [N]-C--CA-[N] |==|  0.48788
USER: genes 15 Torsion [C]-CA--CB-[CG] |==|  0.35798
USER: genes 16 Torsion [CA]-CB--CG-[CD] |==|  0.35172
USER: genes 17 Torsion [CB]-CG--CD-[CE] |==|  0.09806
USER: genes 18 Torsion [CG]-CD--CE-[NZ] |==|  0.75606
USER: genes 19 Torsion [CD]-CE--NZ-[HZ1] |==|  0.85949
USER: genes 20 Torsion [C]-CA--N-[H2] |==|  0.10245
ROOT
ATOM      1  CA  TYR B   2       3.027  19.989  15.339  1.00 10.27 LIG 0.18  C 
ENDROOT
BRANCH 1 2
ATOM      2  C   TYR B   2       3.338  21.046  16.390  1.00 12.73 LIG 0.24  C 
ATOM      3 O    TYR B   2       3.209  22.262  16.177  1.00 10.11 LIG-0.27  OA
ATOM      4  N   LYS B   3       3.826  20.569  17.536  1.00 12.59 LIG-0.34  N 
ATOM      5 H    LYS B   3       3.957  19.734  17.696  1.00 12.59 LIG 0.16  HD
BRANCH 4 6
ATOM      6  CA  LYS B   3       4.181  21.456  18.623  1.00 15.60 LIG 0.18  C 
BRANCH 6 7
ATOM      7  CB  LYS B   3       4.901  22.735  18.191  1.00 14.29 LIG 0.04  C 
BRANCH 7 8
ATOM      8  CG  LYS B   3       6.329  22.272  17.728  1.00 13.96 LIG 0.00  C 
BRANCH 8 9
ATOM      9  CD  LYS B   3       7.410  22.835  18.616  1.00 18.12 LIG 0.03  C 
BRANCH 9 10
ATOM     10  CE  LYS B   3       8.782  22.221  18.255  1.00 16.83 LIG 0.23  C 
BRANCH 10 11
ATOM     11  NZ  LYS B   3       9.741  23.352  18.305  1.00 27.08 LIG-0.08  N 
ATOM     12 HZ3  LYS B   3       9.295  24.116  18.399  1.00 27.08 LIG 0.27  HD
ATOM     13 HZ2  LYS B   3      10.212  23.375  17.551  1.00 27.08 LIG 0.27  HD
ATOM     14 HZ1  LYS B   3      10.292  23.244  18.996  1.00 27.08 LIG 0.27  HD
ENDBRANCH 10 11
ENDBRANCH 9 10
ENDBRANCH 8 9
ENDBRANCH 7 8
ENDBRANCH 6 7
BRANCH 6 15
ATOM     15  C   LYS B   3       2.918  21.852  19.418  1.00 15.27 LIG 0.20  C 
ATOM     16 OXT  LYS B   3       2.054  22.578  18.921  1.00 10.74 LIG-0.65  OA
ATOM     17 O    LYS B   3       2.810  21.369  20.549  1.00 14.41 LIG-0.65  OA
ENDBRANCH 6 15
ENDBRANCH 4 6
ENDBRANCH 1 2
BRANCH 1 18
ATOM     18  CB  TYR B   2       2.200  18.882  16.062  1.00 10.39 LIG 0.07  C 
BRANCH 18 19
ATOM     19  CG  TYR B   2       0.736  19.269  16.141  1.00 11.96 LIG-0.06  A 
ATOM     20  CD1 TYR B   2      -0.267  18.453  15.670  1.00 11.67 LIG 0.01  A 
ATOM     21  CE1 TYR B   2      -1.612  18.776  15.746  1.00 13.01 LIG 0.04  A 
ATOM     22  CZ  TYR B   2      -1.932  19.972  16.299  1.00 17.78 LIG 0.07  A 
ATOM     23  CE2 TYR B   2      -0.953  20.831  16.774  1.00 20.17 LIG 0.04  A 
ATOM     24  CD2 TYR B   2       0.372  20.485  16.705  1.00 16.60 LIG 0.01  A 
BRANCH 22 25
ATOM     25 OH   TYR B   2      -3.235  20.374  16.429  1.00 26.76 LIG-0.36  OA
ATOM     26 HH   TYR B   2      -3.684  19.758  16.782  1.00 26.76 LIG 0.22  HD
ENDBRANCH 22 25
ENDBRANCH 18 19
ENDBRANCH 1 18
BRANCH 1 27
ATOM     27  N   TYR B   2       4.222  19.457  14.667  1.00  6.22 LIG-0.35  N 
ATOM     28 H    TYR B   2       4.361  19.797  13.890  1.00  6.22 LIG 0.16  HD
ATOM     29  C   LYS B   1       5.004  18.545  15.205  1.00  7.19 LIG 0.25  C 
ATOM     30 O    LYS B   1       4.775  18.014  16.322  1.00 11.44 LIG-0.27  OA
BRANCH 29 31
ATOM     31  CA  LYS B   1       6.184  18.072  14.373  1.00 10.22 LIG 0.27  C 
BRANCH 31 32
ATOM     32  CB  LYS B   1       5.667  17.458  13.046  1.00 11.18 LIG 0.04  C 
BRANCH 32 33
ATOM     33  CG  LYS B   1       6.312  17.991  11.785  1.00 13.69 LIG 0.00  C 
BRANCH 33 34
ATOM     34  CD  LYS B   1       6.888  16.926  10.861  1.00 14.37 LIG 0.03  C 
BRANCH 34 35
ATOM     35  CE  LYS B   1       6.070  15.623  10.830  1.00 18.49 LIG 0.23  C 
BRANCH 35 36
ATOM     36  NZ  LYS B   1       6.560  14.736  11.928  1.00 20.11 LIG-0.08  N 
ATOM     37 HZ1  LYS B   1       7.446  14.668  11.882  1.00 20.11 LIG 0.27  HD
ATOM     38 HZ2  LYS B   1       6.330  15.082  12.714  1.00 20.11 LIG 0.27  HD
ATOM     39 HZ3  LYS B   1       6.196  13.928  11.842  1.00 20.11 LIG 0.27  HD
ENDBRANCH 35 36
ENDBRANCH 34 35
ENDBRANCH 33 34
ENDBRANCH 32 33
ENDBRANCH 31 32
BRANCH 31 40
ATOM     40  N   LYS B   1       7.028  17.119  15.169  1.00 11.01 LIG-0.07  N 
ATOM     41 H1   LYS B   1       7.588  17.579  15.686  1.00 11.01 LIG 0.28  HD
ATOM     42 H2   LYS B   1       6.504  16.611  15.677  1.00 11.01 LIG 0.28  HD
ATOM     43 H3   LYS B   1       7.494  16.602  14.614  1.00 11.01 LIG 0.28  HD
ENDBRANCH 31 40
ENDBRANCH 29 31
ENDBRANCH 1 27
TORSDOF 19
ENDMDL
