MODEL 1
USER: ADFR SOLUTION from run 107
USER: SCORE 22.027581 LL:  -1.207 LR: -20.879 RR:   0.000 FEB: -15.510
USER: RMSD 1.251896
USER: SEED 106
USER: STATUS searching
USER: GENES 20
USER: genes 0 Translation |==|  0.62163 0.59861 0.59601
USER: genes 1 Rotation |==|  0.51681 0.51127 0.51133 0.99946
USER: genes 2 Torsion [N]-CA--C-[N] |==|  0.39254
USER: genes 3 Torsion [C]-N--CA-[CB] |==|  0.27566
USER: genes 4 Torsion [N]-CA--CB-[CG] |==|  0.58195
USER: genes 5 Torsion [CA]-CB--CG-[CD] |==|  0.61833
USER: genes 6 Torsion [CB]-CG--CD-[CE] |==|  0.51546
USER: genes 7 Torsion [CG]-CD--CE-[NZ] |==|  0.19901
USER: genes 8 Torsion [CD]-CE--NZ-[HZ3] |==|  0.29056
USER: genes 9 Torsion [N]-CA--C-[OXT] |==|  0.16765
USER: genes 10 Torsion [C]-CA--CB-[CG] |==|  0.21989
USER: genes 11 Torsion [CA]-CB--CG-[ND2] |==|  0.12604
USER: genes 12 Torsion [C]-CA--N-[C] |==|  0.77670
USER: genes 13 Torsion [N]-C--CA-[N] |==|  0.39384
USER: genes 14 Torsion [C]-CA--N-[H1] |==|  0.42258
USER: genes 15 Torsion [C]-CA--CB-[CG] |==|  0.45101
USER: genes 16 Torsion [CA]-CB--CG-[CD] |==|  0.37848
USER: genes 17 Torsion [CB]-CG--CD-[CE] |==|  0.93876
USER: genes 18 Torsion [CG]-CD--CE-[NZ] |==|  0.74498
USER: genes 19 Torsion [CD]-CE--NZ-[HZ2] |==|  0.26692
ROOT
ATOM      1  CA  ASN B   2       3.924  20.277  16.169  1.00 12.64 LIG 0.18  C 
ENDROOT
BRANCH 1 2
ATOM      2  C   ASN B   2       2.607  20.253  15.407  1.00 10.07 LIG 0.24  C 
ATOM      3 O    ASN B   2       2.547  20.500  14.206  1.00  8.89 LIG-0.27  OA
ATOM      4  N   LYS B   3       1.508  19.937  16.092  1.00 10.73 LIG-0.34  N 
ATOM      5 H    LYS B   3       1.502  19.756  16.933  1.00 10.73 LIG 0.16  HD
BRANCH 4 6
ATOM      6  CA  LYS B   3       0.215  19.874  15.463  1.00 12.20 LIG 0.18  C 
BRANCH 6 7
ATOM      7  CB  LYS B   3      -0.203  18.430  15.112  1.00 14.58 LIG 0.04  C 
BRANCH 7 8
ATOM      8  CG  LYS B   3      -1.115  18.478  13.878  1.00 22.14 LIG 0.00  C 
BRANCH 8 9
ATOM      9  CD  LYS B   3      -2.308  17.548  14.011  1.00 26.32 LIG 0.03  C 
BRANCH 9 10
ATOM     10  CE  LYS B   3      -3.120  17.519  12.707  1.00 28.31 LIG 0.23  C 
BRANCH 10 11
ATOM     11  NZ  LYS B   3      -2.289  16.763  11.713  1.00 33.82 LIG-0.08  N 
ATOM     12 HZ3  LYS B   3      -2.626  15.947  11.604  1.00 33.82 LIG 0.27  HD
ATOM     13 HZ2  LYS B   3      -1.453  16.701  12.010  1.00 33.82 LIG 0.27  HD
ATOM     14 HZ1  LYS B   3      -2.295  17.193  10.933  1.00 33.82 LIG 0.27  HD
ENDBRANCH 10 11
ENDBRANCH 9 10
ENDBRANCH 8 9
ENDBRANCH 7 8
ENDBRANCH 6 7
BRANCH 6 15
ATOM     15  C   LYS B   3      -0.862  20.419  16.423  1.00 15.69 LIG 0.20  C 
ATOM     16 OXT  LYS B   3      -0.805  21.574  16.830  1.00 12.46 LIG-0.65  OA
ATOM     17 O    LYS B   3      -1.775  19.701  16.806  1.00 19.93 LIG-0.65  OA
ENDBRANCH 6 15
ENDBRANCH 4 6
ENDBRANCH 1 2
BRANCH 1 18
ATOM     18  CB  ASN B   2       4.181  21.745  16.557  1.00 13.38 LIG 0.14  C 
BRANCH 18 19
ATOM     19  CG  ASN B   2       3.306  22.044  17.786  1.00 20.51 LIG 0.22  C 
ATOM     20  ND2 ASN B   2       3.249  21.201  18.784  1.00 23.58 LIG-0.37  N 
ATOM     21 21HD ASN B   2       2.751  21.371  19.464  1.00 23.58 LIG 0.16  HD
ATOM     22 22HD ASN B   2       3.711  20.475  18.761  1.00 23.58 LIG 0.16  HD
ATOM     23 OD1  ASN B   2       2.646  23.079  17.823  1.00 25.05 LIG-0.27  OA
ENDBRANCH 18 19
ENDBRANCH 1 18
BRANCH 1 24
ATOM     24  N   ASN B   2       5.036  19.743  15.381  1.00  8.35 LIG-0.35  N 
ATOM     25  C   LYS B   1       5.236  18.446  15.258  1.00  9.80 LIG 0.25  C 
ATOM     26 O    LYS B   1       4.560  17.606  15.842  1.00  9.20 LIG-0.27  OA
ATOM     27 H    ASN B   2       5.533  20.343  15.017  1.00  8.35 LIG 0.16  HD
BRANCH 25 28
ATOM     28  CA  LYS B   1       6.404  18.004  14.377  1.00  8.32 LIG 0.27  C 
BRANCH 28 29
ATOM     29  N   LYS B   1       7.086  16.812  14.980  1.00  7.62 LIG-0.07  N 
ATOM     30 H3   LYS B   1       6.488  16.316  15.415  1.00  7.62 LIG 0.28  HD
ATOM     31 H2   LYS B   1       7.714  17.084  15.548  1.00  7.62 LIG 0.28  HD
ATOM     32 H1   LYS B   1       7.461  16.326  14.335  1.00  7.62 LIG 0.28  HD
ENDBRANCH 28 29
BRANCH 28 33
ATOM     33  CB  LYS B   1       5.926  17.825  12.943  1.00 15.26 LIG 0.04  C 
BRANCH 33 34
ATOM     34  CG  LYS B   1       6.963  17.790  11.840  1.00 21.45 LIG 0.00  C 
BRANCH 34 35
ATOM     35  CD  LYS B   1       6.694  16.677  10.814  1.00 24.43 LIG 0.03  C 
BRANCH 35 36
ATOM     36  CE  LYS B   1       5.824  15.556  11.366  1.00 26.22 LIG 0.23  C 
BRANCH 36 37
ATOM     37  NZ  LYS B   1       6.645  14.451  11.960  1.00 19.44 LIG-0.08  N 
ATOM     38 HZ1  LYS B   1       7.458  14.457  11.598  1.00 19.44 LIG 0.27  HD
ATOM     39 HZ2  LYS B   1       6.711  14.570  12.840  1.00 19.44 LIG 0.27  HD
ATOM     40 HZ3  LYS B   1       6.253  13.669  11.796  1.00 19.44 LIG 0.27  HD
ENDBRANCH 36 37
ENDBRANCH 35 36
ENDBRANCH 34 35
ENDBRANCH 33 34
ENDBRANCH 28 33
ENDBRANCH 25 28
ENDBRANCH 1 24
TORSDOF 18
ENDMDL
MODEL 2
USER: ADFR SOLUTION from run 195
USER: SCORE 20.346195 LL:  -1.287 LR: -20.134 RR:   0.000 FEB: -14.764
USER: RMSD 5.937671
USER: SEED 194
USER: STATUS no improvement in best in 2 clusters for 5 generations
USER: GENES 20
USER: genes 0 Translation |==|  0.62245 0.59491 0.53637
USER: genes 1 Rotation |==|  0.85251 0.23811 0.26119 0.51094
USER: genes 2 Torsion [N]-CA--C-[N] |==|  0.62003
USER: genes 3 Torsion [C]-N--CA-[CB] |==|  0.18549
USER: genes 4 Torsion [N]-CA--CB-[CG] |==|  0.67316
USER: genes 5 Torsion [CA]-CB--CG-[CD] |==|  0.88749
USER: genes 6 Torsion [CB]-CG--CD-[CE] |==|  0.37784
USER: genes 7 Torsion [CG]-CD--CE-[NZ] |==|  0.07254
USER: genes 8 Torsion [CD]-CE--NZ-[HZ3] |==|  0.78685
USER: genes 9 Torsion [N]-CA--C-[OXT] |==|  0.34732
USER: genes 10 Torsion [C]-CA--CB-[CG] |==|  0.31368
USER: genes 11 Torsion [CA]-CB--CG-[ND2] |==|  0.61845
USER: genes 12 Torsion [C]-CA--N-[C] |==|  0.21995
USER: genes 13 Torsion [N]-C--CA-[N] |==|  0.39960
USER: genes 14 Torsion [C]-CA--N-[H1] |==|  0.36673
USER: genes 15 Torsion [C]-CA--CB-[CG] |==|  0.29801
USER: genes 16 Torsion [CA]-CB--CG-[CD] |==|  0.23961
USER: genes 17 Torsion [CB]-CG--CD-[CE] |==|  0.18803
USER: genes 18 Torsion [CG]-CD--CE-[NZ] |==|  0.78438
USER: genes 19 Torsion [CD]-CE--NZ-[HZ2] |==|  0.22925
ROOT
ATOM      1  CA  ASN B   2       3.941  20.213  15.185  1.00 12.64 LIG 0.18  C 
ENDROOT
BRANCH 1 2
ATOM      2  C   ASN B   2       4.530  20.810  16.454  1.00 10.07 LIG 0.24  C 
ATOM      3 O    ASN B   2       5.676  21.253  16.494  1.00  8.89 LIG-0.27  OA
ATOM      4  N   LYS B   3       3.749  20.853  17.533  1.00 10.73 LIG-0.34  N 
ATOM      5 H    LYS B   3       2.941  20.557  17.552  1.00 10.73 LIG 0.16  HD
BRANCH 4 6
ATOM      6  CA  LYS B   3       4.205  21.409  18.780  1.00 12.20 LIG 0.18  C 
BRANCH 6 7
ATOM      7  CB  LYS B   3       4.452  22.931  18.694  1.00 14.58 LIG 0.04  C 
BRANCH 7 8
ATOM      8  CG  LYS B   3       5.939  23.195  18.966  1.00 22.14 LIG 0.00  C 
BRANCH 8 9
ATOM      9  CD  LYS B   3       6.480  22.323  20.085  1.00 26.32 LIG 0.03  C 
BRANCH 9 10
ATOM     10  CE  LYS B   3       7.852  21.744  19.706  1.00 28.31 LIG 0.23  C 
BRANCH 10 11
ATOM     11  NZ  LYS B   3       8.453  22.701  18.720  1.00 33.82 LIG-0.08  N 
ATOM     12 HZ3  LYS B   3       8.071  22.587  17.925  1.00 33.82 LIG 0.27  HD
ATOM     13 HZ2  LYS B   3       9.327  22.549  18.653  1.00 33.82 LIG 0.27  HD
ATOM     14 HZ1  LYS B   3       8.318  23.536  18.997  1.00 33.82 LIG 0.27  HD
ENDBRANCH 10 11
ENDBRANCH 9 10
ENDBRANCH 8 9
ENDBRANCH 7 8
ENDBRANCH 6 7
BRANCH 6 15
ATOM     15  C   LYS B   3       3.136  21.201  19.870  1.00 15.69 LIG 0.20  C 
ATOM     16 OXT  LYS B   3       3.420  20.636  20.921  1.00 12.46 LIG-0.65  OA
ATOM     17 O    LYS B   3       1.986  21.577  19.694  1.00 19.93 LIG-0.65  OA
ENDBRANCH 6 15
ENDBRANCH 4 6
ENDBRANCH 1 2
BRANCH 1 18
ATOM     18  CB  ASN B   2       2.669  19.455  15.607  1.00 13.38 LIG 0.14  C 
BRANCH 18 19
ATOM     19  CG  ASN B   2       1.474  20.207  14.995  1.00 20.51 LIG 0.22  C 
ATOM     20  ND2 ASN B   2       0.389  20.414  15.696  1.00 23.58 LIG-0.37  N 
ATOM     21 21HD ASN B   2      -0.278  20.827  15.344  1.00 23.58 LIG 0.16  HD
ATOM     22 22HD ASN B   2       0.342  20.136  16.509  1.00 23.58 LIG 0.16  HD
ATOM     23 OD1  ASN B   2       1.537  20.606  13.836  1.00 25.05 LIG-0.27  OA
ENDBRANCH 18 19
ENDBRANCH 1 18
BRANCH 1 24
ATOM     24  N   ASN B   2       4.877  19.322  14.499  1.00  8.35 LIG-0.35  N 
ATOM     25  C   LYS B   1       5.077  18.084  14.904  1.00  9.80 LIG 0.25  C 
ATOM     26 O    LYS B   1       4.557  17.617  15.911  1.00  9.20 LIG-0.27  OA
ATOM     27 H    ASN B   2       5.273  19.676  13.822  1.00  8.35 LIG 0.16  HD
BRANCH 25 28
ATOM     28  CA  LYS B   1       6.047  17.233  14.085  1.00  8.32 LIG 0.27  C 
BRANCH 28 29
ATOM     29  N   LYS B   1       6.831  16.326  14.987  1.00  7.62 LIG-0.07  N 
ATOM     30 H3   LYS B   1       6.466  16.328  15.799  1.00  7.62 LIG 0.28  HD
ATOM     31 H2   LYS B   1       7.671  16.613  15.039  1.00  7.62 LIG 0.28  HD
ATOM     32 H1   LYS B   1       6.820  15.499  14.660  1.00  7.62 LIG 0.28  HD
ENDBRANCH 28 29
BRANCH 28 33
ATOM     33  CB  LYS B   1       5.294  16.538  12.959  1.00 15.26 LIG 0.04  C 
BRANCH 33 34
ATOM     34  CG  LYS B   1       5.502  17.034  11.544  1.00 21.45 LIG 0.00  C 
BRANCH 34 35
ATOM     35  CD  LYS B   1       6.719  16.383  10.866  1.00 24.43 LIG 0.03  C 
BRANCH 35 36
ATOM     36  CE  LYS B   1       6.528  14.897  10.598  1.00 26.22 LIG 0.23  C 
BRANCH 36 37
ATOM     37  NZ  LYS B   1       6.711  14.076  11.840  1.00 19.44 LIG-0.08  N 
ATOM     38 HZ1  LYS B   1       7.368  14.422  12.331  1.00 19.44 LIG 0.27  HD
ATOM     39 HZ2  LYS B   1       5.956  14.078  12.311  1.00 19.44 LIG 0.27  HD
ATOM     40 HZ3  LYS B   1       6.917  13.240  11.615  1.00 19.44 LIG 0.27  HD
ENDBRANCH 36 37
ENDBRANCH 35 36
ENDBRANCH 34 35
ENDBRANCH 33 34
ENDBRANCH 28 33
ENDBRANCH 25 28
ENDBRANCH 1 24
TORSDOF 18
ENDMDL
