MODEL 1
USER: ADFR SOLUTION from run 124
USER: SCORE 23.446093 LL:  -1.003 LR: -22.576 RR:   0.000 FEB: -16.908
USER: RMSD 1.446265
USER: SEED 123
USER: STATUS no improvement in best in 2 clusters for 5 generations
USER: GENES 21
USER: genes 0 Translation |==|  0.61252 0.61050 0.53235
USER: genes 1 Rotation |==|  0.50060 0.52748 0.44331 0.99602
USER: genes 2 Torsion [N]-CA--C-[N] |==|  0.32420
USER: genes 3 Torsion [C]-N--CA-[CB] |==|  0.29283
USER: genes 4 Torsion [N]-CA--CB-[CG] |==|  0.57777
USER: genes 5 Torsion [CA]-CB--CG-[CD] |==|  0.57573
USER: genes 6 Torsion [CB]-CG--CD-[CE] |==|  0.50969
USER: genes 7 Torsion [CG]-CD--CE-[NZ] |==|  0.19316
USER: genes 8 Torsion [CD]-CE--NZ-[HZ3] |==|  0.13640
USER: genes 9 Torsion [N]-CA--C-[O] |==|  0.26368
USER: genes 10 Torsion [C]-CA--CB-[CG] |==|  0.24070
USER: genes 11 Torsion [CA]-CB--CG-[CD] |==|  0.02147
USER: genes 12 Torsion [CB]-CG--CD-[OE1] |==|  0.67094
USER: genes 13 Torsion [C]-CA--N-[C] |==|  0.73996
USER: genes 14 Torsion [N]-C--CA-[N] |==|  0.33771
USER: genes 15 Torsion [C]-CA--N-[H1] |==|  0.14868
USER: genes 16 Torsion [C]-CA--CB-[CG] |==|  0.35247
USER: genes 17 Torsion [CA]-CB--CG-[CD] |==|  0.88798
USER: genes 18 Torsion [CB]-CG--CD-[CE] |==|  0.28082
USER: genes 19 Torsion [CG]-CD--CE-[NZ] |==|  0.93919
USER: genes 20 Torsion [CD]-CE--NZ-[HZ2] |==|  0.02501
ROOT
ATOM      1  CA  GLN B   2       3.931  20.046  15.717  1.00 17.90 LIG 0.18  C 
ENDROOT
BRANCH 1 2
ATOM      2  C   GLN B   2       2.565  20.206  15.090  1.00 16.31 LIG 0.24  C 
ATOM      3 O    GLN B   2       2.361  20.757  14.008  1.00 17.68 LIG-0.27  OA
ATOM      4  N   LYS B   3       1.552  19.708  15.818  1.00 17.96 LIG-0.34  N 
ATOM      5 H    LYS B   3       1.664  19.313  16.574  1.00 17.96 LIG 0.16  HD
BRANCH 4 6
ATOM      6  CA  LYS B   3       0.178  19.787  15.403  1.00 18.66 LIG 0.18  C 
BRANCH 6 7
ATOM      7  CB  LYS B   3      -0.241  18.377  14.926  1.00 21.21 LIG 0.04  C 
BRANCH 7 8
ATOM      8  CG  LYS B   3      -1.333  18.413  13.886  1.00 28.49 LIG 0.00  C 
BRANCH 8 9
ATOM      9  CD  LYS B   3      -2.158  17.139  13.930  1.00 23.11 LIG 0.03  C 
BRANCH 9 10
ATOM     10  CE  LYS B   3      -3.190  17.223  12.780  1.00 24.47 LIG 0.23  C 
BRANCH 10 11
ATOM     11  NZ  LYS B   3      -2.387  17.098  11.527  1.00 24.59 LIG-0.08  N 
ATOM     12 HZ3  LYS B   3      -1.839  16.400  11.593  1.00 24.59 LIG 0.27  HD
ATOM     13 HZ1  LYS B   3      -2.934  16.981  10.834  1.00 24.59 LIG 0.27  HD
ATOM     14 HZ2  LYS B   3      -1.909  17.839  11.405  1.00 24.59 LIG 0.27  HD
ENDBRANCH 10 11
ENDBRANCH 9 10
ENDBRANCH 8 9
ENDBRANCH 7 8
ENDBRANCH 6 7
BRANCH 6 15
ATOM     15  C   LYS B   3      -0.729  20.196  16.577  1.00 20.09 LIG 0.20  C 
ATOM     16 O    LYS B   3      -0.960  21.420  16.635  1.00 20.27 LIG-0.65  OA
ATOM     17 OXT  LYS B   3      -1.171  19.348  17.385  1.00 17.88 LIG-0.65  OA
ENDBRANCH 6 15
ENDBRANCH 4 6
ENDBRANCH 1 2
BRANCH 1 18
ATOM     18  CB  GLN B   2       4.524  21.481  15.776  1.00 14.78 LIG 0.04  C 
BRANCH 18 19
ATOM     19  CG  GLN B   2       4.078  22.181  17.061  1.00 19.11 LIG 0.10  C 
BRANCH 19 20
ATOM     20  CD  GLN B   2       3.347  21.437  18.116  1.00 21.74 LIG 0.21  C 
ATOM     21 OE1  GLN B   2       2.217  21.675  18.514  1.00 22.50 LIG-0.27  OA
ATOM     22  NE2 GLN B   2       3.994  20.392  18.649  1.00 26.70 LIG-0.37  N 
ATOM     23 21HE GLN B   2       4.791  20.201  18.388  1.00 26.70 LIG 0.16  HD
ATOM     24 22HE GLN B   2       3.612  19.912  19.252  1.00 26.70 LIG 0.16  HD
ENDBRANCH 19 20
ENDBRANCH 18 19
ENDBRANCH 1 18
BRANCH 1 25
ATOM     25  N   GLN B   2       4.837  19.199  14.936  1.00 16.65 LIG-0.35  N 
ATOM     26  C   LYS B   1       4.950  17.894  15.181  1.00 15.97 LIG 0.25  C 
ATOM     27 O    LYS B   1       4.365  17.313  16.099  1.00 15.49 LIG-0.27  OA
ATOM     28 H    GLN B   2       5.275  19.614  14.322  1.00 16.65 LIG 0.16  HD
BRANCH 26 29
ATOM     29  CA  LYS B   1       5.933  17.145  14.306  1.00 14.04 LIG 0.27  C 
BRANCH 29 30
ATOM     30  N   LYS B   1       6.987  16.482  15.118  1.00 15.17 LIG-0.07  N 
ATOM     31 H3   LYS B   1       7.493  17.101  15.510  1.00 15.17 LIG 0.28  HD
ATOM     32 H2   LYS B   1       7.494  15.975  14.591  1.00 15.17 LIG 0.28  HD
ATOM     33 H1   LYS B   1       6.606  15.973  15.741  1.00 15.17 LIG 0.28  HD
ENDBRANCH 29 30
BRANCH 29 34
ATOM     34  CB  LYS B   1       5.221  16.175  13.343  1.00 17.90 LIG 0.04  C 
BRANCH 34 35
ATOM     35  CG  LYS B   1       5.614  16.364  11.876  1.00 15.85 LIG 0.00  C 
BRANCH 35 36
ATOM     36  CD  LYS B   1       5.745  17.842  11.513  1.00 19.36 LIG 0.03  C 
BRANCH 36 37
ATOM     37  CE  LYS B   1       7.191  18.337  11.467  1.00 24.06 LIG 0.23  C 
BRANCH 37 38
ATOM     38  NZ  LYS B   1       8.112  17.474  12.264  1.00 18.61 LIG-0.08  N 
ATOM     39 HZ1  LYS B   1       8.395  17.922  12.979  1.00 18.61 LIG 0.27  HD
ATOM     40 HZ2  LYS B   1       7.681  16.741  12.526  1.00 18.61 LIG 0.27  HD
ATOM     41 HZ3  LYS B   1       8.810  17.244  11.763  1.00 18.61 LIG 0.27  HD
ENDBRANCH 37 38
ENDBRANCH 36 37
ENDBRANCH 35 36
ENDBRANCH 34 35
ENDBRANCH 29 34
ENDBRANCH 26 29
ENDBRANCH 1 25
TORSDOF 19
ENDMDL
MODEL 2
USER: ADFR SOLUTION from run 194
USER: SCORE 21.404119 LL:  -0.867 LR: -21.509 RR:   0.000 FEB: -15.841
USER: RMSD 5.992404
USER: SEED 193
USER: STATUS 1 or 2 clusters left
USER: GENES 21
USER: genes 0 Translation |==|  0.56199 0.57289 0.48568
USER: genes 1 Rotation |==|  0.88949 0.29190 0.27518 0.56671
USER: genes 2 Torsion [N]-CA--C-[N] |==|  0.77782
USER: genes 3 Torsion [C]-N--CA-[CB] |==|  0.86767
USER: genes 4 Torsion [N]-CA--CB-[CG] |==|  0.50239
USER: genes 5 Torsion [CA]-CB--CG-[CD] |==|  0.17176
USER: genes 6 Torsion [CB]-CG--CD-[CE] |==|  0.36699
USER: genes 7 Torsion [CG]-CD--CE-[NZ] |==|  0.95840
USER: genes 8 Torsion [CD]-CE--NZ-[HZ3] |==|  0.19335
USER: genes 9 Torsion [N]-CA--C-[O] |==|  0.30357
USER: genes 10 Torsion [C]-CA--CB-[CG] |==|  0.28060
USER: genes 11 Torsion [CA]-CB--CG-[CD] |==|  0.63713
USER: genes 12 Torsion [CB]-CG--CD-[OE1] |==|  0.28616
USER: genes 13 Torsion [C]-CA--N-[C] |==|  0.20215
USER: genes 14 Torsion [N]-C--CA-[N] |==|  0.45231
USER: genes 15 Torsion [C]-CA--N-[H1] |==|  0.14365
USER: genes 16 Torsion [C]-CA--CB-[CG] |==|  0.36748
USER: genes 17 Torsion [CA]-CB--CG-[CD] |==|  0.50291
USER: genes 18 Torsion [CB]-CG--CD-[CE] |==|  0.86008
USER: genes 19 Torsion [CG]-CD--CE-[NZ] |==|  0.92187
USER: genes 20 Torsion [CD]-CE--NZ-[HZ2] |==|  0.86455
ROOT
ATOM      1  CA  GLN B   2       2.946  19.426  14.877  1.00 17.90 LIG 0.18  C 
ENDROOT
BRANCH 1 2
ATOM      2  C   GLN B   2       3.331  20.378  15.987  1.00 16.31 LIG 0.24  C 
ATOM      3 O    GLN B   2       3.377  21.602  15.863  1.00 17.68 LIG-0.27  OA
ATOM      4  N   LYS B   3       3.647  19.785  17.149  1.00 17.96 LIG-0.34  N 
ATOM      5 H    LYS B   3       3.620  18.934  17.268  1.00 17.96 LIG 0.16  HD
BRANCH 4 6
ATOM      6  CA  LYS B   3       4.065  20.519  18.313  1.00 18.66 LIG 0.18  C 
BRANCH 6 7
ATOM      7  CB  LYS B   3       5.146  21.528  17.857  1.00 21.21 LIG 0.04  C 
BRANCH 7 8
ATOM      8  CG  LYS B   3       5.689  22.355  18.996  1.00 28.49 LIG 0.00  C 
BRANCH 8 9
ATOM      9  CD  LYS B   3       6.363  21.469  20.028  1.00 23.11 LIG 0.03  C 
BRANCH 9 10
ATOM     10  CE  LYS B   3       7.735  22.108  20.353  1.00 24.47 LIG 0.23  C 
BRANCH 10 11
ATOM     11  NZ  LYS B   3       7.970  23.098  19.260  1.00 24.59 LIG-0.08  N 
ATOM     12 HZ3  LYS B   3       7.402  23.778  19.347  1.00 24.59 LIG 0.27  HD
ATOM     13 HZ1  LYS B   3       8.806  23.402  19.309  1.00 24.59 LIG 0.27  HD
ATOM     14 HZ2  LYS B   3       7.844  22.705  18.471  1.00 24.59 LIG 0.27  HD
ENDBRANCH 10 11
ENDBRANCH 9 10
ENDBRANCH 8 9
ENDBRANCH 7 8
ENDBRANCH 6 7
BRANCH 6 15
ATOM     15  C   LYS B   3       2.889  21.303  18.921  1.00 20.09 LIG 0.20  C 
ATOM     16 O    LYS B   3       2.487  20.848  20.010  1.00 20.27 LIG-0.65  OA
ATOM     17 OXT  LYS B   3       2.402  22.301  18.342  1.00 17.88 LIG-0.65  OA
ENDBRANCH 6 15
ENDBRANCH 4 6
ENDBRANCH 1 2
BRANCH 1 18
ATOM     18  CB  GLN B   2       2.116  18.308  15.568  1.00 14.78 LIG 0.04  C 
BRANCH 18 19
ATOM     19  CG  GLN B   2       0.622  18.544  15.334  1.00 19.11 LIG 0.10  C 
BRANCH 19 20
ATOM     20  CD  GLN B   2      -0.338  18.509  16.465  1.00 21.74 LIG 0.21  C 
ATOM     21 OE1  GLN B   2      -0.843  19.479  17.010  1.00 22.50 LIG-0.27  OA
ATOM     22  NE2 GLN B   2      -0.694  17.291  16.893  1.00 26.70 LIG-0.37  N 
ATOM     23 21HE GLN B   2      -0.354  16.591  16.527  1.00 26.70 LIG 0.16  HD
ATOM     24 22HE GLN B   2      -1.262  17.210  17.533  1.00 26.70 LIG 0.16  HD
ENDBRANCH 19 20
ENDBRANCH 18 19
ENDBRANCH 1 18
BRANCH 1 25
ATOM     25  N   GLN B   2       4.098  18.808  14.213  1.00 16.65 LIG-0.35  N 
ATOM     26  C   LYS B   1       4.823  17.867  14.816  1.00 15.97 LIG 0.25  C 
ATOM     27 O    LYS B   1       4.631  17.485  15.974  1.00 15.49 LIG-0.27  OA
ATOM     28 H    GLN B   2       4.256  19.105  13.421  1.00 16.65 LIG 0.16  HD
BRANCH 26 29
ATOM     29  CA  LYS B   1       5.992  17.328  14.018  1.00 14.04 LIG 0.27  C 
BRANCH 29 30
ATOM     30  N   LYS B   1       6.961  16.613  14.890  1.00 15.17 LIG-0.07  N 
ATOM     31 H3   LYS B   1       7.363  17.197  15.428  1.00 15.17 LIG 0.28  HD
ATOM     32 H2   LYS B   1       7.571  16.206  14.385  1.00 15.17 LIG 0.28  HD
ATOM     33 H1   LYS B   1       6.529  16.007  15.379  1.00 15.17 LIG 0.28  HD
ENDBRANCH 29 30
BRANCH 29 34
ATOM     34  CB  LYS B   1       5.526  16.480  12.819  1.00 17.90 LIG 0.04  C 
BRANCH 34 35
ATOM     35  CG  LYS B   1       6.223  16.837  11.504  1.00 15.85 LIG 0.00  C 
BRANCH 35 36
ATOM     36  CD  LYS B   1       5.708  15.986  10.344  1.00 19.36 LIG 0.03  C 
BRANCH 36 37
ATOM     37  CE  LYS B   1       5.704  14.485  10.639  1.00 24.06 LIG 0.23  C 
BRANCH 37 38
ATOM     38  NZ  LYS B   1       6.755  14.098  11.625  1.00 18.61 LIG-0.08  N 
ATOM     39 HZ1  LYS B   1       6.830  13.212  11.647  1.00 18.61 LIG 0.27  HD
ATOM     40 HZ2  LYS B   1       7.535  14.455  11.385  1.00 18.61 LIG 0.27  HD
ATOM     41 HZ3  LYS B   1       6.530  14.397  12.432  1.00 18.61 LIG 0.27  HD
ENDBRANCH 37 38
ENDBRANCH 36 37
ENDBRANCH 35 36
ENDBRANCH 34 35
ENDBRANCH 29 34
ENDBRANCH 26 29
ENDBRANCH 1 25
TORSDOF 19
ENDMDL
MODEL 3
USER: ADFR SOLUTION from run 145
USER: SCORE 23.437407 LL:  -2.518 LR: -20.992 RR:   0.000 FEB: -15.324
USER: RMSD 1.666721
USER: SEED 144
USER: STATUS no improvement in best in 1 clusters for 5 generations
USER: GENES 21
USER: genes 0 Translation |==|  0.60670 0.59831 0.54224
USER: genes 1 Rotation |==|  0.53319 0.51324 0.49070 0.99863
USER: genes 2 Torsion [N]-CA--C-[N] |==|  0.38349
USER: genes 3 Torsion [C]-N--CA-[CB] |==|  0.29786
USER: genes 4 Torsion [N]-CA--CB-[CG] |==|  0.62226
USER: genes 5 Torsion [CA]-CB--CG-[CD] |==|  0.70866
USER: genes 6 Torsion [CB]-CG--CD-[CE] |==|  0.22006
USER: genes 7 Torsion [CG]-CD--CE-[NZ] |==|  0.60485
USER: genes 8 Torsion [CD]-CE--NZ-[HZ3] |==|  0.19538
USER: genes 9 Torsion [N]-CA--C-[O] |==|  0.77332
USER: genes 10 Torsion [C]-CA--CB-[CG] |==|  0.19511
USER: genes 11 Torsion [CA]-CB--CG-[CD] |==|  0.15681
USER: genes 12 Torsion [CB]-CG--CD-[OE1] |==|  0.57595
USER: genes 13 Torsion [C]-CA--N-[C] |==|  0.76410
USER: genes 14 Torsion [N]-C--CA-[N] |==|  0.40648
USER: genes 15 Torsion [C]-CA--N-[H1] |==|  0.66385
USER: genes 16 Torsion [C]-CA--CB-[CG] |==|  0.84160
USER: genes 17 Torsion [CA]-CB--CG-[CD] |==|  0.71921
USER: genes 18 Torsion [CB]-CG--CD-[CE] |==|  0.58538
USER: genes 19 Torsion [CG]-CD--CE-[NZ] |==|  0.59720
USER: genes 20 Torsion [CD]-CE--NZ-[HZ2] |==|  0.50694
ROOT
ATOM      1  CA  GLN B   2       3.818  19.845  15.895  1.00 17.90 LIG 0.18  C 
ENDROOT
BRANCH 1 2
ATOM      2  C   GLN B   2       2.485  19.847  15.180  1.00 16.31 LIG 0.24  C 
ATOM      3 O    GLN B   2       2.333  20.169  14.002  1.00 17.68 LIG-0.27  OA
ATOM      4  N   LYS B   3       1.441  19.482  15.941  1.00 17.96 LIG-0.34  N 
ATOM      5 H    LYS B   3       1.517  19.247  16.765  1.00 17.96 LIG 0.16  HD
BRANCH 4 6
ATOM      6  CA  LYS B   3       0.090  19.447  15.450  1.00 18.66 LIG 0.18  C 
BRANCH 6 7
ATOM      7  CB  LYS B   3      -0.302  17.960  15.286  1.00 21.21 LIG 0.04  C 
BRANCH 7 8
ATOM      8  CG  LYS B   3      -1.026  17.687  13.991  1.00 28.49 LIG 0.00  C 
BRANCH 8 9
ATOM      9  CD  LYS B   3      -2.511  17.486  14.239  1.00 23.11 LIG 0.03  C 
BRANCH 9 10
ATOM     10  CE  LYS B   3      -3.140  18.891  14.408  1.00 24.47 LIG 0.23  C 
BRANCH 10 11
ATOM     11  NZ  LYS B   3      -4.171  18.728  15.476  1.00 24.59 LIG-0.08  N 
ATOM     12 HZ3  LYS B   3      -3.770  18.598  16.260  1.00 24.59 LIG 0.27  HD
ATOM     13 HZ1  LYS B   3      -4.674  19.462  15.519  1.00 24.59 LIG 0.27  HD
ATOM     14 HZ2  LYS B   3      -4.687  18.027  15.287  1.00 24.59 LIG 0.27  HD
ENDBRANCH 10 11
ENDBRANCH 9 10
ENDBRANCH 8 9
ENDBRANCH 7 8
ENDBRANCH 6 7
BRANCH 6 15
ATOM     15  C   LYS B   3      -0.877  20.101  16.453  1.00 20.09 LIG 0.20  C 
ATOM     16 O    LYS B   3      -1.224  19.348  17.385  1.00 20.27 LIG-0.65  OA
ATOM     17 OXT  LYS B   3      -1.263  21.283  16.311  1.00 17.88 LIG-0.65  OA
ENDBRANCH 6 15
ENDBRANCH 4 6
ENDBRANCH 1 2
BRANCH 1 18
ATOM     18  CB  GLN B   2       4.129  21.340  16.183  1.00 14.78 LIG 0.04  C 
BRANCH 18 19
ATOM     19  CG  GLN B   2       3.179  21.877  17.255  1.00 19.11 LIG 0.10  C 
BRANCH 19 20
ATOM     20  CD  GLN B   2       3.087  21.223  18.584  1.00 21.74 LIG 0.21  C 
ATOM     21 OE1  GLN B   2       2.112  21.223  19.320  1.00 22.50 LIG-0.27  OA
ATOM     22  NE2 GLN B   2       4.174  20.549  18.982  1.00 26.70 LIG-0.37  N 
ATOM     23 21HE GLN B   2       4.875  20.532  18.483  1.00 26.70 LIG 0.16  HD
ATOM     24 22HE GLN B   2       4.171  20.134  19.735  1.00 26.70 LIG 0.16  HD
ENDBRANCH 19 20
ENDBRANCH 18 19
ENDBRANCH 1 18
BRANCH 1 25
ATOM     25  N   GLN B   2       4.910  19.287  15.092  1.00 16.65 LIG-0.35  N 
ATOM     26  C   LYS B   1       5.138  17.975  15.049  1.00 15.97 LIG 0.25  C 
ATOM     27 O    LYS B   1       4.508  17.144  15.709  1.00 15.49 LIG-0.27  OA
ATOM     28 H    GLN B   2       5.374  19.872  14.664  1.00 16.65 LIG 0.16  HD
BRANCH 26 29
ATOM     29  CA  LYS B   1       6.308  17.541  14.190  1.00 14.04 LIG 0.27  C 
BRANCH 29 30
ATOM     30  N   LYS B   1       6.987  16.348  14.760  1.00 15.17 LIG-0.07  N 
ATOM     31 H3   LYS B   1       6.941  15.675  14.180  1.00 15.17 LIG 0.28  HD
ATOM     32 H2   LYS B   1       6.586  16.112  15.519  1.00 15.17 LIG 0.28  HD
ATOM     33 H1   LYS B   1       7.841  16.542  14.924  1.00 15.17 LIG 0.28  HD
ENDBRANCH 29 30
BRANCH 29 34
ATOM     34  CB  LYS B   1       5.898  17.349  12.718  1.00 17.90 LIG 0.04  C 
BRANCH 34 35
ATOM     35  CG  LYS B   1       4.760  16.344  12.521  1.00 15.85 LIG 0.00  C 
BRANCH 35 36
ATOM     36  CD  LYS B   1       5.283  14.986  12.053  1.00 19.36 LIG 0.03  C 
BRANCH 36 37
ATOM     37  CE  LYS B   1       4.301  14.223  11.164  1.00 24.06 LIG 0.23  C 
BRANCH 37 38
ATOM     38  NZ  LYS B   1       4.362  12.748  11.385  1.00 18.61 LIG-0.08  N 
ATOM     39 HZ1  LYS B   1       4.128  12.564  12.223  1.00 18.61 LIG 0.27  HD
ATOM     40 HZ2  LYS B   1       3.804  12.340  10.825  1.00 18.61 LIG 0.27  HD
ATOM     41 HZ3  LYS B   1       5.191  12.460  11.238  1.00 18.61 LIG 0.27  HD
ENDBRANCH 37 38
ENDBRANCH 36 37
ENDBRANCH 35 36
ENDBRANCH 34 35
ENDBRANCH 29 34
ENDBRANCH 26 29
ENDBRANCH 1 25
TORSDOF 19
ENDMDL
