MODEL 1
USER: ADFR SOLUTION from run 127
USER: SCORE 22.658159 LL:  -0.955 LR: -21.828 RR:   0.000 FEB: -16.458
USER: RMSD 1.386820
USER: SEED 126
USER: STATUS 1 or 2 clusters left
USER: GENES 20
USER: genes 0 Translation |==|  0.60962 0.59296 0.57908
USER: genes 1 Rotation |==|  0.45728 0.54503 0.46380 0.99481
USER: genes 2 Torsion [N]-CA--C-[N] |==|  0.32788
USER: genes 3 Torsion [C]-N--CA-[CB] |==|  0.30959
USER: genes 4 Torsion [N]-CA--CB-[CG] |==|  0.61977
USER: genes 5 Torsion [CA]-CB--CG-[CD] |==|  0.54181
USER: genes 6 Torsion [CB]-CG--CD-[CE] |==|  0.47251
USER: genes 7 Torsion [CG]-CD--CE-[NZ] |==|  0.22471
USER: genes 8 Torsion [CD]-CE--NZ-[HZ3] |==|  0.07481
USER: genes 9 Torsion [N]-CA--C-[O] |==|  0.74466
USER: genes 10 Torsion [C]-CA--CB-[CG] |==|  0.29914
USER: genes 11 Torsion [CA]-CB--CG-[CD2] |==|  0.81061
USER: genes 12 Torsion [C]-CA--N-[C] |==|  0.74361
USER: genes 13 Torsion [N]-C--CA-[N] |==|  0.34959
USER: genes 14 Torsion [C]-CA--N-[H1] |==|  0.48085
USER: genes 15 Torsion [C]-CA--CB-[CG] |==|  0.33173
USER: genes 16 Torsion [CA]-CB--CG-[CD] |==|  0.90604
USER: genes 17 Torsion [CB]-CG--CD-[CE] |==|  0.29969
USER: genes 18 Torsion [CG]-CD--CE-[NZ] |==|  0.87546
USER: genes 19 Torsion [CD]-CE--NZ-[HZ3] |==|  0.43799
ROOT
ATOM      1  CA  LEU B   2       4.056  20.100  15.707  1.00 13.49 LIG 0.18  C 
ENDROOT
BRANCH 1 2
ATOM      2  C   LEU B   2       2.639  20.183  15.166  1.00 13.24 LIG 0.24  C 
ATOM      3 O    LEU B   2       2.403  20.565  14.028  1.00 12.84 LIG-0.27  OA
ATOM      4  N   LYS B   3       1.665  19.734  15.966  1.00 13.77 LIG-0.34  N 
ATOM      5 H    LYS B   3       1.782  19.399  16.749  1.00 13.77 LIG 0.16  HD
BRANCH 4 6
ATOM      6  CA  LYS B   3       0.282  19.802  15.509  1.00 14.66 LIG 0.18  C 
BRANCH 6 7
ATOM      7  CB  LYS B   3      -0.300  18.405  15.243  1.00 17.74 LIG 0.04  C 
BRANCH 7 8
ATOM      8  CG  LYS B   3      -1.098  18.443  13.930  1.00 17.95 LIG 0.00  C 
BRANCH 8 9
ATOM      9  CD  LYS B   3      -1.982  17.223  13.809  1.00 21.89 LIG 0.03  C 
BRANCH 9 10
ATOM     10  CE  LYS B   3      -2.956  17.366  12.636  1.00 19.59 LIG 0.23  C 
BRANCH 10 11
ATOM     11  NZ  LYS B   3      -2.207  17.011  11.399  1.00 20.11 LIG-0.08  N 
ATOM     12 HZ3  LYS B   3      -1.547  16.449  11.602  1.00 20.11 LIG 0.27  HD
ATOM     13 HZ2  LYS B   3      -1.866  17.748  11.036  1.00 20.11 LIG 0.27  HD
ATOM     14 HZ1  LYS B   3      -2.759  16.622  10.819  1.00 20.11 LIG 0.27  HD
ENDBRANCH 10 11
ENDBRANCH 9 10
ENDBRANCH 8 9
ENDBRANCH 7 8
ENDBRANCH 6 7
BRANCH 6 15
ATOM     15  C   LYS B   3      -0.570  20.439  16.615  1.00 19.11 LIG 0.20  C 
ATOM     16 O    LYS B   3      -1.081  19.620  17.402  1.00 19.02 LIG-0.65  OA
ATOM     17 OXT  LYS B   3      -0.708  21.680  16.652  1.00 15.29 LIG-0.65  OA
ENDBRANCH 6 15
ENDBRANCH 4 6
ENDBRANCH 1 2
BRANCH 1 18
ATOM     18  CB  LEU B   2       4.686  21.509  15.731  1.00 16.32 LIG 0.04  C 
BRANCH 18 19
ATOM     19  CG  LEU B   2       4.807  22.039  17.183  1.00 17.59 LIG-0.02  C 
ATOM     20  CD2 LEU B   2       3.438  22.312  17.763  1.00 21.32 LIG 0.01  C 
ATOM     21  CD1 LEU B   2       5.667  23.294  17.198  1.00 19.96 LIG 0.01  C 
ENDBRANCH 18 19
ENDBRANCH 1 18
BRANCH 1 22
ATOM     22  N   LEU B   2       4.906  19.232  14.890  1.00 13.93 LIG-0.35  N 
ATOM     23 H    LEU B   2       5.293  19.629  14.233  1.00 13.93 LIG 0.16  HD
ATOM     24  C   LYS B   1       5.048  17.940  15.168  1.00 11.76 LIG 0.25  C 
ATOM     25 O    LYS B   1       4.417  17.371  16.050  1.00 11.37 LIG-0.27  OA
BRANCH 24 26
ATOM     26  CA  LYS B   1       6.030  17.178  14.303  1.00 10.15 LIG 0.27  C 
BRANCH 26 27
ATOM     27  N   LYS B   1       7.034  16.482  15.153  1.00 12.07 LIG-0.07  N 
ATOM     28 H3   LYS B   1       6.616  15.985  15.761  1.00 12.07 LIG 0.28  HD
ATOM     29 H2   LYS B   1       7.546  17.085  15.563  1.00 12.07 LIG 0.28  HD
ATOM     30 H1   LYS B   1       7.543  15.959  14.643  1.00 12.07 LIG 0.28  HD
ENDBRANCH 26 27
BRANCH 26 31
ATOM     31  CB  LYS B   1       5.377  16.229  13.276  1.00 13.63 LIG 0.04  C 
BRANCH 31 32
ATOM     32  CG  LYS B   1       5.744  16.601  11.831  1.00 14.29 LIG 0.00  C 
BRANCH 32 33
ATOM     33  CD  LYS B   1       5.893  18.121  11.701  1.00 16.29 LIG 0.03  C 
BRANCH 33 34
ATOM     34  CE  LYS B   1       7.371  18.504  11.538  1.00 21.27 LIG 0.23  C 
BRANCH 34 35
ATOM     35  NZ  LYS B   1       8.202  17.745  12.517  1.00 18.80 LIG-0.08  N 
ATOM     36 HZ1  LYS B   1       8.179  18.154  13.307  1.00 18.80 LIG 0.27  HD
ATOM     37 HZ3  LYS B   1       9.043  17.707  12.228  1.00 18.80 LIG 0.27  HD
ATOM     38 HZ2  LYS B   1       7.882  16.919  12.602  1.00 18.80 LIG 0.27  HD
ENDBRANCH 34 35
ENDBRANCH 33 34
ENDBRANCH 32 33
ENDBRANCH 31 32
ENDBRANCH 26 31
ENDBRANCH 24 26
ENDBRANCH 1 22
TORSDOF 18
ENDMDL
MODEL 2
USER: ADFR SOLUTION from run 128
USER: SCORE 20.825130 LL:  -0.964 LR: -20.943 RR:   0.000 FEB: -15.574
USER: RMSD 6.107691
USER: SEED 127
USER: STATUS no improvement in best in 1 clusters for 5 generations
USER: GENES 20
USER: genes 0 Translation |==|  0.58543 0.57390 0.53256
USER: genes 1 Rotation |==|  0.89768 0.28929 0.29016 0.55847
USER: genes 2 Torsion [N]-CA--C-[N] |==|  0.77285
USER: genes 3 Torsion [C]-N--CA-[CB] |==|  0.88644
USER: genes 4 Torsion [N]-CA--CB-[CG] |==|  0.53224
USER: genes 5 Torsion [CA]-CB--CG-[CD] |==|  0.49277
USER: genes 6 Torsion [CB]-CG--CD-[CE] |==|  0.72681
USER: genes 7 Torsion [CG]-CD--CE-[NZ] |==|  0.85720
USER: genes 8 Torsion [CD]-CE--NZ-[HZ3] |==|  0.01205
USER: genes 9 Torsion [N]-CA--C-[O] |==|  0.32202
USER: genes 10 Torsion [C]-CA--CB-[CG] |==|  0.18615
USER: genes 11 Torsion [CA]-CB--CG-[CD2] |==|  0.48216
USER: genes 12 Torsion [C]-CA--N-[C] |==|  0.22703
USER: genes 13 Torsion [N]-C--CA-[N] |==|  0.52286
USER: genes 14 Torsion [C]-CA--N-[H1] |==|  0.19733
USER: genes 15 Torsion [C]-CA--CB-[CG] |==|  0.90835
USER: genes 16 Torsion [CA]-CB--CG-[CD] |==|  0.79904
USER: genes 17 Torsion [CB]-CG--CD-[CE] |==|  0.75246
USER: genes 18 Torsion [CG]-CD--CE-[NZ] |==|  0.30965
USER: genes 19 Torsion [CD]-CE--NZ-[HZ3] |==|  0.34101
ROOT
ATOM      1  CA  LEU B   2       3.584  19.771  14.939  1.00 13.49 LIG 0.18  C 
ENDROOT
BRANCH 1 2
ATOM      2  C   LEU B   2       3.802  20.641  16.164  1.00 13.24 LIG 0.24  C 
ATOM      3 O    LEU B   2       3.843  21.862  16.091  1.00 12.84 LIG-0.27  OA
ATOM      4  N   LYS B   3       3.859  20.012  17.343  1.00 13.77 LIG-0.34  N 
ATOM      5 H    LYS B   3       3.774  19.164  17.458  1.00 13.77 LIG 0.16  HD
BRANCH 4 6
ATOM      6  CA  LYS B   3       4.082  20.792  18.556  1.00 14.66 LIG 0.18  C 
BRANCH 6 7
ATOM      7  CB  LYS B   3       5.131  21.894  18.339  1.00 17.74 LIG 0.04  C 
BRANCH 7 8
ATOM      8  CG  LYS B   3       5.527  22.475  19.706  1.00 17.95 LIG 0.00  C 
BRANCH 8 9
ATOM      9  CD  LYS B   3       6.606  23.522  19.547  1.00 21.89 LIG 0.03  C 
BRANCH 9 10
ATOM     10  CE  LYS B   3       7.989  22.932  19.833  1.00 19.59 LIG 0.23  C 
BRANCH 10 11
ATOM     11  NZ  LYS B   3       7.908  22.246  21.152  1.00 20.11 LIG-0.08  N 
ATOM     12 HZ3  LYS B   3       7.070  22.274  21.451  1.00 20.11 LIG 0.27  HD
ATOM     13 HZ2  LYS B   3       8.443  22.656  21.733  1.00 20.11 LIG 0.27  HD
ATOM     14 HZ1  LYS B   3       8.163  21.398  21.062  1.00 20.11 LIG 0.27  HD
ENDBRANCH 10 11
ENDBRANCH 9 10
ENDBRANCH 8 9
ENDBRANCH 7 8
ENDBRANCH 6 7
BRANCH 6 15
ATOM     15  C   LYS B   3       2.771  21.491  18.938  1.00 19.11 LIG 0.20  C 
ATOM     16 O    LYS B   3       2.293  21.121  20.027  1.00 19.02 LIG-0.65  OA
ATOM     17 OXT  LYS B   3       2.275  22.338  18.166  1.00 15.29 LIG-0.65  OA
ENDBRANCH 6 15
ENDBRANCH 4 6
ENDBRANCH 1 2
BRANCH 1 18
ATOM     18  CB  LEU B   2       2.589  18.640  15.277  1.00 16.32 LIG 0.04  C 
BRANCH 18 19
ATOM     19  CG  LEU B   2       1.173  19.208  15.553  1.00 17.59 LIG-0.02  C 
ATOM     20  CD2 LEU B   2       0.176  18.085  15.727  1.00 21.32 LIG 0.01  C 
ATOM     21  CD1 LEU B   2       0.763  20.132  14.416  1.00 19.96 LIG 0.01  C 
ENDBRANCH 18 19
ENDBRANCH 1 18
BRANCH 1 22
ATOM     22  N   LEU B   2       4.829  19.159  14.470  1.00 13.93 LIG-0.35  N 
ATOM     23 H    LEU B   2       5.203  19.572  13.815  1.00 13.93 LIG 0.16  HD
ATOM     24  C   LYS B   1       5.314  18.056  15.031  1.00 11.76 LIG 0.25  C 
ATOM     25 O    LYS B   1       4.720  17.430  15.900  1.00 11.37 LIG-0.27  OA
BRANCH 24 26
ATOM     26  CA  LYS B   1       6.656  17.583  14.516  1.00 10.15 LIG 0.27  C 
BRANCH 26 27
ATOM     27  N   LYS B   1       6.984  16.246  15.081  1.00 12.07 LIG-0.07  N 
ATOM     28 H3   LYS B   1       6.861  16.257  15.962  1.00 12.07 LIG 0.28  HD
ATOM     29 H2   LYS B   1       7.834  16.049  14.904  1.00 12.07 LIG 0.28  HD
ATOM     30 H1   LYS B   1       6.455  15.631  14.716  1.00 12.07 LIG 0.28  HD
ENDBRANCH 26 27
BRANCH 26 31
ATOM     31  CB  LYS B   1       6.800  17.618  12.979  1.00 13.63 LIG 0.04  C 
BRANCH 31 32
ATOM     32  CG  LYS B   1       5.469  17.329  12.267  1.00 14.29 LIG 0.00  C 
BRANCH 32 33
ATOM     33  CD  LYS B   1       5.109  15.846  12.408  1.00 16.29 LIG 0.03  C 
BRANCH 33 34
ATOM     34  CE  LYS B   1       5.714  15.035  11.252  1.00 21.27 LIG 0.23  C 
BRANCH 34 35
ATOM     35  NZ  LYS B   1       6.791  14.142  11.770  1.00 18.80 LIG-0.08  N 
ATOM     36 HZ1  LYS B   1       7.569  14.371  11.403  1.00 18.80 LIG 0.27  HD
ATOM     37 HZ3  LYS B   1       6.603  13.298  11.562  1.00 18.80 LIG 0.27  HD
ATOM     38 HZ2  LYS B   1       6.846  14.224  12.654  1.00 18.80 LIG 0.27  HD
ENDBRANCH 34 35
ENDBRANCH 33 34
ENDBRANCH 32 33
ENDBRANCH 31 32
ENDBRANCH 26 31
ENDBRANCH 24 26
ENDBRANCH 1 22
TORSDOF 18
ENDMDL
MODEL 3
USER: ADFR SOLUTION from run 129
USER: SCORE 21.672042 LL:  -1.337 LR: -20.397 RR:   0.000 FEB: -15.027
USER: RMSD 2.450947
USER: SEED 128
USER: STATUS no improvement in best in 6 clusters for 5 generations
USER: GENES 20
USER: genes 0 Translation |==|  0.66785 0.60185 0.63216
USER: genes 1 Rotation |==|  0.49558 0.57674 0.40834 0.98548
USER: genes 2 Torsion [N]-CA--C-[N] |==|  0.36440
USER: genes 3 Torsion [C]-N--CA-[CB] |==|  0.27857
USER: genes 4 Torsion [N]-CA--CB-[CG] |==|  0.58275
USER: genes 5 Torsion [CA]-CB--CG-[CD] |==|  0.54316
USER: genes 6 Torsion [CB]-CG--CD-[CE] |==|  0.36386
USER: genes 7 Torsion [CG]-CD--CE-[NZ] |==|  0.51620
USER: genes 8 Torsion [CD]-CE--NZ-[HZ3] |==|  0.16846
USER: genes 9 Torsion [N]-CA--C-[O] |==|  0.93731
USER: genes 10 Torsion [C]-CA--CB-[CG] |==|  0.23670
USER: genes 11 Torsion [CA]-CB--CG-[CD2] |==|  0.05141
USER: genes 12 Torsion [C]-CA--N-[C] |==|  0.77468
USER: genes 13 Torsion [N]-C--CA-[N] |==|  0.28582
USER: genes 14 Torsion [C]-CA--N-[H1] |==|  0.16485
USER: genes 15 Torsion [C]-CA--CB-[CG] |==|  0.33266
USER: genes 16 Torsion [CA]-CB--CG-[CD] |==|  0.93532
USER: genes 17 Torsion [CB]-CG--CD-[CE] |==|  0.30512
USER: genes 18 Torsion [CG]-CD--CE-[NZ] |==|  0.78050
USER: genes 19 Torsion [CD]-CE--NZ-[HZ3] |==|  0.83878
ROOT
ATOM      1  CA  LEU B   2       5.191  20.253  16.583  1.00 13.49 LIG 0.18  C 
ENDROOT
BRANCH 1 2
ATOM      2  C   LEU B   2       3.802  20.750  16.222  1.00 13.24 LIG 0.24  C 
ATOM      3 O    LEU B   2       3.523  21.125  15.092  1.00 12.84 LIG-0.27  OA
ATOM      4  N   LYS B   3       2.872  20.674  17.181  1.00 13.77 LIG-0.34  N 
ATOM      5 H    LYS B   3       2.999  20.361  17.972  1.00 13.77 LIG 0.16  HD
BRANCH 4 6
ATOM      6  CA  LYS B   3       1.522  21.149  16.901  1.00 14.66 LIG 0.18  C 
BRANCH 6 7
ATOM      7  CB  LYS B   3       0.564  19.991  16.578  1.00 17.74 LIG 0.04  C 
BRANCH 7 8
ATOM      8  CG  LYS B   3      -0.522  20.500  15.618  1.00 17.95 LIG 0.00  C 
BRANCH 8 9
ATOM      9  CD  LYS B   3      -1.684  19.535  15.568  1.00 21.89 LIG 0.03  C 
BRANCH 9 10
ATOM     10  CE  LYS B   3      -3.015  20.268  15.750  1.00 19.59 LIG 0.23  C 
BRANCH 10 11
ATOM     11  NZ  LYS B   3      -4.080  19.231  15.831  1.00 20.11 LIG-0.08  N 
ATOM     12 HZ3  LYS B   3      -3.925  18.700  16.528  1.00 20.11 LIG 0.27  HD
ATOM     13 HZ2  LYS B   3      -4.079  18.746  15.085  1.00 20.11 LIG 0.27  HD
ATOM     14 HZ1  LYS B   3      -4.872  19.625  15.927  1.00 20.11 LIG 0.27  HD
ENDBRANCH 10 11
ENDBRANCH 9 10
ENDBRANCH 8 9
ENDBRANCH 7 8
ENDBRANCH 6 7
BRANCH 6 15
ATOM     15  C   LYS B   3       0.976  21.845  18.155  1.00 19.11 LIG 0.20  C 
ATOM     16 O    LYS B   3       1.529  21.497  19.215  1.00 19.02 LIG-0.65  OA
ATOM     17 OXT  LYS B   3       0.043  22.669  18.048  1.00 15.29 LIG-0.65  OA
ENDBRANCH 6 15
ENDBRANCH 4 6
ENDBRANCH 1 2
BRANCH 1 18
ATOM     18  CB  LEU B   2       6.155  21.453  16.708  1.00 16.32 LIG 0.04  C 
BRANCH 18 19
ATOM     19  CG  LEU B   2       6.088  22.073  18.128  1.00 17.59 LIG-0.02  C 
ATOM     20  CD2 LEU B   2       5.473  21.097  19.104  1.00 21.32 LIG 0.01  C 
ATOM     21  CD1 LEU B   2       5.297  23.371  18.081  1.00 19.96 LIG 0.01  C 
ENDBRANCH 18 19
ENDBRANCH 1 18
BRANCH 1 22
ATOM     22  N   LEU B   2       5.728  19.340  15.572  1.00 13.93 LIG-0.35  N 
ATOM     23 H    LEU B   2       6.272  19.704  15.015  1.00 13.93 LIG 0.16  HD
ATOM     24  C   LYS B   1       5.383  18.056  15.545  1.00 11.76 LIG 0.25  C 
ATOM     25 O    LYS B   1       4.537  17.574  16.287  1.00 11.37 LIG-0.27  OA
BRANCH 24 26
ATOM     26  CA  LYS B   1       6.083  17.201  14.510  1.00 10.15 LIG 0.27  C 
BRANCH 26 27
ATOM     27  N   LYS B   1       7.144  16.378  15.151  1.00 12.07 LIG-0.07  N 
ATOM     28 H3   LYS B   1       7.746  16.912  15.531  1.00 12.07 LIG 0.28  HD
ATOM     29 H2   LYS B   1       7.542  15.873  14.535  1.00 12.07 LIG 0.28  HD
ATOM     30 H1   LYS B   1       6.779  15.855  15.772  1.00 12.07 LIG 0.28  HD
ENDBRANCH 26 27
BRANCH 26 31
ATOM     31  CB  LYS B   1       5.137  16.353  13.634  1.00 13.63 LIG 0.04  C 
BRANCH 31 32
ATOM     32  CG  LYS B   1       5.265  16.701  12.142  1.00 14.29 LIG 0.00  C 
BRANCH 32 33
ATOM     33  CD  LYS B   1       5.822  18.119  11.979  1.00 16.29 LIG 0.03  C 
BRANCH 33 34
ATOM     34  CE  LYS B   1       7.255  18.073  11.429  1.00 21.27 LIG 0.23  C 
BRANCH 34 35
ATOM     35  NZ  LYS B   1       8.210  17.745  12.527  1.00 18.80 LIG-0.08  N 
ATOM     36 HZ1  LYS B   1       8.020  16.939  12.855  1.00 18.80 LIG 0.27  HD
ATOM     37 HZ3  LYS B   1       8.139  18.352  13.174  1.00 18.80 LIG 0.27  HD
ATOM     38 HZ2  LYS B   1       9.041  17.747  12.209  1.00 18.80 LIG 0.27  HD
ENDBRANCH 34 35
ENDBRANCH 33 34
ENDBRANCH 32 33
ENDBRANCH 31 32
ENDBRANCH 26 31
ENDBRANCH 24 26
ENDBRANCH 1 22
TORSDOF 18
ENDMDL
MODEL 4
USER: ADFR SOLUTION from run 139
USER: SCORE 22.881020 LL:  -3.009 LR: -19.948 RR:   0.000 FEB: -14.579
USER: RMSD 1.459653
USER: SEED 138
USER: STATUS no improvement in best in 1 clusters for 5 generations
USER: GENES 20
USER: genes 0 Translation |==|  0.59985 0.59623 0.58138
USER: genes 1 Rotation |==|  0.47103 0.54385 0.50957 0.99714
USER: genes 2 Torsion [N]-CA--C-[N] |==|  0.36926
USER: genes 3 Torsion [C]-N--CA-[CB] |==|  0.30918
USER: genes 4 Torsion [N]-CA--CB-[CG] |==|  0.65019
USER: genes 5 Torsion [CA]-CB--CG-[CD] |==|  0.69757
USER: genes 6 Torsion [CB]-CG--CD-[CE] |==|  0.21294
USER: genes 7 Torsion [CG]-CD--CE-[NZ] |==|  0.65579
USER: genes 8 Torsion [CD]-CE--NZ-[HZ3] |==|  0.52347
USER: genes 9 Torsion [N]-CA--C-[O] |==|  0.62387
USER: genes 10 Torsion [C]-CA--CB-[CG] |==|  0.38607
USER: genes 11 Torsion [CA]-CB--CG-[CD2] |==|  0.21810
USER: genes 12 Torsion [C]-CA--N-[C] |==|  0.76474
USER: genes 13 Torsion [N]-C--CA-[N] |==|  0.39024
USER: genes 14 Torsion [C]-CA--N-[H1] |==|  0.79519
USER: genes 15 Torsion [C]-CA--CB-[CG] |==|  0.78443
USER: genes 16 Torsion [CA]-CB--CG-[CD] |==|  0.61196
USER: genes 17 Torsion [CB]-CG--CD-[CE] |==|  0.61560
USER: genes 18 Torsion [CG]-CD--CE-[NZ] |==|  0.69614
USER: genes 19 Torsion [CD]-CE--NZ-[HZ3] |==|  0.91672
ROOT
ATOM      1  CA  LEU B   2       3.865  20.156  15.745  1.00 13.49 LIG 0.18  C 
ENDROOT
BRANCH 1 2
ATOM      2  C   LEU B   2       2.450  20.026  15.211  1.00 13.24 LIG 0.24  C 
ATOM      3 O    LEU B   2       2.188  20.187  14.027  1.00 12.84 LIG-0.27  OA
ATOM      4  N   LYS B   3       1.513  19.640  16.085  1.00 13.77 LIG-0.34  N 
ATOM      5 H    LYS B   3       1.654  19.454  16.913  1.00 13.77 LIG 0.16  HD
BRANCH 4 6
ATOM      6  CA  LYS B   3       0.131  19.511  15.636  1.00 14.66 LIG 0.18  C 
BRANCH 6 7
ATOM      7  CB  LYS B   3      -0.327  18.044  15.615  1.00 17.74 LIG 0.04  C 
BRANCH 7 8
ATOM      8  CG  LYS B   3      -0.873  17.718  14.216  1.00 17.95 LIG 0.00  C 
BRANCH 8 9
ATOM      9  CD  LYS B   3      -2.375  17.553  14.256  1.00 21.89 LIG 0.03  C 
BRANCH 9 10
ATOM     10  CE  LYS B   3      -3.074  18.913  14.338  1.00 19.59 LIG 0.23  C 
BRANCH 10 11
ATOM     11  NZ  LYS B   3      -3.943  18.887  15.547  1.00 20.11 LIG-0.08  N 
ATOM     12 HZ3  LYS B   3      -4.457  19.613  15.559  1.00 20.11 LIG 0.27  HD
ATOM     13 HZ2  LYS B   3      -3.435  18.871  16.277  1.00 20.11 LIG 0.27  HD
ATOM     14 HZ1  LYS B   3      -4.457  18.160  15.527  1.00 20.11 LIG 0.27  HD
ENDBRANCH 10 11
ENDBRANCH 9 10
ENDBRANCH 8 9
ENDBRANCH 7 8
ENDBRANCH 6 7
BRANCH 6 15
ATOM     15  C   LYS B   3      -0.778  20.250  16.628  1.00 19.11 LIG 0.20  C 
ATOM     16 O    LYS B   3      -1.804  19.621  16.947  1.00 19.02 LIG-0.65  OA
ATOM     17 OXT  LYS B   3      -0.459  21.390  17.027  1.00 15.29 LIG-0.65  OA
ENDBRANCH 6 15
ENDBRANCH 4 6
ENDBRANCH 1 2
BRANCH 1 18
ATOM     18  CB  LEU B   2       4.237  21.649  15.869  1.00 16.32 LIG 0.04  C 
BRANCH 18 19
ATOM     19  CG  LEU B   2       5.023  21.919  17.179  1.00 17.59 LIG-0.02  C 
ATOM     20  CD2 LEU B   2       6.466  21.496  17.027  1.00 21.32 LIG 0.01  C 
ATOM     21  CD1 LEU B   2       4.357  21.187  18.334  1.00 19.96 LIG 0.01  C 
ENDBRANCH 18 19
ENDBRANCH 1 18
BRANCH 1 22
ATOM     22  N   LEU B   2       4.845  19.512  14.868  1.00 13.93 LIG-0.35  N 
ATOM     23 H    LEU B   2       5.224  20.043  14.307  1.00 13.93 LIG 0.16  HD
ATOM     24  C   LYS B   1       5.106  18.212  14.957  1.00 11.76 LIG 0.25  C 
ATOM     25 O    LYS B   1       4.491  17.455  15.697  1.00 11.37 LIG-0.27  OA
BRANCH 24 26
ATOM     26  CA  LYS B   1       6.208  17.692  14.058  1.00 10.15 LIG 0.27  C 
BRANCH 26 27
ATOM     27  N   LYS B   1       7.033  16.686  14.781  1.00 12.07 LIG-0.07  N 
ATOM     28 H3   LYS B   1       7.542  16.246  14.200  1.00 12.07 LIG 0.28  HD
ATOM     29 H2   LYS B   1       6.499  16.111  15.202  1.00 12.07 LIG 0.28  HD
ATOM     30 H1   LYS B   1       7.551  17.099  15.375  1.00 12.07 LIG 0.28  HD
ENDBRANCH 26 27
BRANCH 26 31
ATOM     31  CB  LYS B   1       5.725  17.173  12.687  1.00 13.63 LIG 0.04  C 
BRANCH 31 32
ATOM     32  CG  LYS B   1       5.094  15.775  12.787  1.00 14.29 LIG 0.00  C 
BRANCH 32 33
ATOM     33  CD  LYS B   1       5.525  14.918  11.592  1.00 16.29 LIG 0.03  C 
BRANCH 33 34
ATOM     34  CE  LYS B   1       4.337  14.103  11.061  1.00 21.27 LIG 0.23  C 
BRANCH 34 35
ATOM     35  NZ  LYS B   1       4.530  12.658  11.379  1.00 18.80 LIG-0.08  N 
ATOM     36 HZ1  LYS B   1       4.168  12.478  12.172  1.00 18.80 LIG 0.27  HD
ATOM     37 HZ3  LYS B   1       5.400  12.472  11.402  1.00 18.80 LIG 0.27  HD
ATOM     38 HZ2  LYS B   1       4.137  12.161  10.755  1.00 18.80 LIG 0.27  HD
ENDBRANCH 34 35
ENDBRANCH 33 34
ENDBRANCH 32 33
ENDBRANCH 31 32
ENDBRANCH 26 31
ENDBRANCH 24 26
ENDBRANCH 1 22
TORSDOF 18
ENDMDL
