MODEL 1
USER: ADFR SOLUTION from run 125
USER: SCORE 18.608775 LL:  -3.321 LR: -17.790 RR:   0.000 FEB: -10.332
USER: RMSD 4.741290
USER: SEED 124
USER: STATUS no improvement in best in 3 clusters for 5 generations
USER: GENES 27
USER: genes 0 Translation |==|  0.55883 0.56566 0.57630
USER: genes 1 Rotation |==|  0.36455 0.41999 0.02988 0.56515
USER: genes 2 Torsion [N]-C--CA-[N] |==|  0.50181
USER: genes 3 Torsion [C]-CA--CB-[CG] |==|  0.25635
USER: genes 4 Torsion [CA]-CB--CG-[CD] |==|  0.46495
USER: genes 5 Torsion [CB]-CG--CD-[NE2] |==|  0.22743
USER: genes 6 Torsion [C]-CA--N-[C] |==|  0.61355
USER: genes 7 Torsion [N]-C--CA-[N] |==|  0.89457
USER: genes 8 Torsion [C]-CA--N-[C] |==|  0.80004
USER: genes 9 Torsion [N]-C--CA-[N] |==|  0.41190
USER: genes 10 Torsion [C]-CA--CB-[CG] |==|  0.53468
USER: genes 11 Torsion [CA]-CB--CG-[CD] |==|  0.41313
USER: genes 12 Torsion [CB]-CG--CD-[NE2] |==|  0.56737
USER: genes 13 Torsion [C]-N--CA-[CB] |==|  0.20000
USER: genes 14 Torsion [N]-CA--C-[N] |==|  0.18739
USER: genes 15 Torsion [C]-N--CA-[CB] |==|  0.29996
USER: genes 16 Torsion [N]-CA--C-[N] |==|  0.35597
USER: genes 17 Torsion [C]-N--CA-[C] |==|  0.67003
USER: genes 18 Torsion [N]-CA--C-[N] |==|  0.43749
USER: genes 19 Torsion [C]-N--CA-[C] |==|  0.64293
USER: genes 20 Torsion [N]-CA--C-[O] |==|  0.96280
USER: genes 21 Torsion [N]-CA--CB-[CG] |==|  0.04087
USER: genes 22 Torsion [CA]-CB--CG-[OD2] |==|  0.28353
USER: genes 23 Torsion [N]-CA--CB-[CG] |==|  0.80717
USER: genes 24 Torsion [CA]-CB--CG-[OD2] |==|  0.57932
USER: genes 25 Torsion [N]-CA--CB-[OG1] |==|  0.04572
USER: genes 26 Torsion [CA]-CB--OG1-[HG1] |==|  0.25758
ROOT
ATOM      1  C   GLN D 206     -20.548  13.148  30.526  1.00 23.02 LIG 0.24  C 
ATOM      2 O    GLN D 206     -19.553  12.457  30.741  1.00 23.21 LIG-0.27  OA
ATOM      3  N   ALA D 207     -21.514  12.798  29.681  1.00 22.72 LIG-0.35  N 
ATOM      4 H    ALA D 207     -22.226  13.262  29.551  1.00 22.72 LIG 0.16  HD
ENDROOT
BRANCH 1 5
ATOM      5  CA  GLN D 206     -20.746  14.476  31.240  1.00 22.90 LIG 0.18  C 
BRANCH 5 6
ATOM      6  CB  GLN D 206     -20.945  15.578  30.190  1.00 23.00 LIG 0.04  C 
BRANCH 6 7
ATOM      7  CG  GLN D 206     -22.402  15.858  29.819  1.00 22.87 LIG 0.10  C 
BRANCH 7 8
ATOM      8  CD  GLN D 206     -22.552  17.143  29.023  1.00 23.72 LIG 0.21  C 
ATOM      9  NE2 GLN D 206     -22.306  17.070  27.716  1.00 23.17 LIG-0.37  N 
ATOM     10 21HE GLN D 206     -22.072  16.321  27.364  1.00 23.17 LIG 0.16  HD
ATOM     11 22HE GLN D 206     -22.381  17.771  27.224  1.00 23.17 LIG 0.16  HD
ATOM     12 OE1  GLN D 206     -22.889  18.187  29.575  1.00 23.11 LIG-0.27  OA
ENDBRANCH 7 8
ENDBRANCH 6 7
ENDBRANCH 5 6
BRANCH 5 13
ATOM     13  N   GLN D 206     -19.662  14.833  32.144  1.00 22.83 LIG-0.35  N 
ATOM     14 H    GLN D 206     -18.876  14.660  31.842  1.00 22.83 LIG 0.16  HD
ATOM     15  C   GLN D 205     -19.895  15.379  33.333  1.00 23.49 LIG 0.24  C 
ATOM     16 O    GLN D 205     -21.028  15.596  33.767  1.00 22.46 LIG-0.27  OA
BRANCH 15 17
ATOM     17  CA  GLN D 205     -18.671  15.733  34.160  1.00 24.37 LIG 0.18  C 
BRANCH 17 18
ATOM     18  N   GLN D 205     -17.682  14.683  33.957  1.00 25.17 LIG-0.35  N 
ATOM     19 H    GLN D 205     -17.010  14.925  33.478  1.00 25.17 LIG 0.16  HD
ATOM     20  C   PRO D 204     -17.816  13.465  34.469  1.00 27.23 LIG 0.24  C 
ATOM     21 O    PRO D 204     -18.769  13.129  35.168  1.00 27.18 LIG-0.27  OA
BRANCH 20 22
ATOM     22  CA  PRO D 204     -16.715  12.463  34.127  1.00 28.49 LIG 0.18  C 
ATOM     23  N   PRO D 204     -16.510  11.508  35.219  1.00 30.00 LIG-0.34  N 
ATOM     24  CD  PRO D 204     -17.233  10.268  34.917  1.00 30.13 LIG 0.13  C 
ATOM     25  C   ACE D 203     -15.743  11.746  36.294  1.00 30.58 LIG 0.22  C 
ATOM     26  CG  PRO D 204     -16.905  10.128  33.477  1.00 30.43 LIG 0.02  C 
ATOM     27  CB  PRO D 204     -17.153  11.564  32.964  1.00 28.78 LIG 0.04  C 
ATOM     28  CH3 ACE D 203     -15.632  10.656  37.341  1.00 31.20 LIG 0.12  C 
ATOM     29 O    ACE D 203     -15.139  12.809  36.436  1.00 31.12 LIG-0.27  OA
ENDBRANCH 20 22
ENDBRANCH 17 18
BRANCH 17 30
ATOM     30  CB  GLN D 205     -18.121  17.091  33.727  1.00 24.72 LIG 0.04  C 
BRANCH 30 31
ATOM     31  CG  GLN D 205     -16.745  17.381  34.283  1.00 27.03 LIG 0.10  C 
BRANCH 31 32
ATOM     32  CD  GLN D 205     -15.913  18.241  33.359  1.00 28.11 LIG 0.21  C 
ATOM     33  NE2 GLN D 205     -14.597  18.143  33.489  1.00 29.45 LIG-0.37  N 
ATOM     34 21HE GLN D 205     -14.262  17.605  34.071  1.00 29.45 LIG 0.16  HD
ATOM     35 22HE GLN D 205     -14.079  18.616  32.991  1.00 29.45 LIG 0.16  HD
ATOM     36 OE1  GLN D 205     -16.445  18.993  32.543  1.00 29.17 LIG-0.27  OA
ENDBRANCH 31 32
ENDBRANCH 30 31
ENDBRANCH 17 30
ENDBRANCH 15 17
ENDBRANCH 5 13
ENDBRANCH 1 5
BRANCH 3 37
ATOM     37  CA  ALA D 207     -21.445  11.576  28.890  1.00 22.93 LIG 0.17  C 
ATOM     38  CB  ALA D 207     -21.653  10.371  29.785  1.00 22.72 LIG 0.04  C 
BRANCH 37 39
ATOM     39  C   ALA D 207     -22.574  11.681  27.857  1.00 23.32 LIG 0.24  C 
ATOM     40  N   THR D 208     -22.470  12.612  26.913  1.00 24.11 LIG-0.34  N 
ATOM     41 H    THR D 208     -21.802  13.146  26.825  1.00 24.11 LIG 0.16  HD
ATOM     42 O    ALA D 207     -23.529  10.909  27.913  1.00 22.54 LIG-0.27  OA
BRANCH 40 43
ATOM     43  CA  THR D 208     -23.536  12.784  25.928  1.00 25.74 LIG 0.20  C 
BRANCH 43 44
ATOM     44  C   THR D 208     -23.151  12.787  24.449  1.00 27.84 LIG 0.24  C 
ATOM     45  N   ASP D 209     -23.804  11.972  23.628  1.00 27.84 LIG-0.34  N 
ATOM     46 H    ASP D 209     -24.450  11.452  23.856  1.00 27.84 LIG 0.16  HD
ATOM     47 O    THR D 208     -22.260  13.538  24.052  1.00 27.83 LIG-0.27  OA
BRANCH 45 48
ATOM     48  CA  ASP D 209     -23.427  11.923  22.217  1.00 29.52 LIG 0.19  C 
BRANCH 48 49
ATOM     49  C   ASP D 209     -24.470  12.312  21.175  1.00 30.14 LIG 0.24  C 
ATOM     50 O    ASP D 209     -25.662  12.249  21.465  1.00 31.34 LIG-0.27  OA
ATOM     51  N   ASP D 210     -24.051  12.709  19.979  1.00 30.20 LIG-0.34  N 
ATOM     52 H    ASP D 210     -23.225  12.762  19.743  1.00 30.20 LIG 0.16  HD
BRANCH 51 53
ATOM     53  CA  ASP D 210     -25.013  13.096  18.946  1.00 30.95 LIG 0.20  C 
BRANCH 53 54
ATOM     54  C   ASP D 210     -24.793  12.388  17.608  1.00 31.44 LIG 0.20  C 
ATOM     55 O    ASP D 210     -23.719  11.778  17.431  1.00 30.73 LIG-0.65  OA
ATOM     56 OXT  ASP D 210     -25.701  12.445  16.752  1.00 31.53 LIG-0.65  OA
ENDBRANCH 53 54
BRANCH 53 57
ATOM     57  CB  ASP D 210     -24.989  14.615  18.741  1.00 31.88 LIG 0.15  C 
BRANCH 57 58
ATOM     58  CG  ASP D 210     -23.777  15.272  19.362  1.00 32.06 LIG 0.17  C 
ATOM     59 OD2  ASP D 210     -22.820  15.611  18.632  1.00 32.64 LIG-0.65  OA
ATOM     60 OD1  ASP D 210     -23.785  15.441  20.595  1.00 34.58 LIG-0.65  OA
ENDBRANCH 57 58
ENDBRANCH 53 57
ENDBRANCH 51 53
ENDBRANCH 48 49
BRANCH 48 61
ATOM     61  CB  ASP D 209     -22.923  10.524  21.863  1.00 29.28 LIG 0.15  C 
BRANCH 61 62
ATOM     62  CG  ASP D 209     -21.590  10.210  22.506  1.00 30.36 LIG 0.17  C 
ATOM     63 OD2  ASP D 209     -20.825   9.410  21.930  1.00 30.91 LIG-0.65  OA
ATOM     64 OD1  ASP D 209     -21.320  10.743  23.604  1.00 31.75 LIG-0.65  OA
ENDBRANCH 61 62
ENDBRANCH 48 61
ENDBRANCH 45 48
ENDBRANCH 43 44
BRANCH 43 65
ATOM     65  CB  THR D 208     -24.335  14.084  26.178  1.00 25.82 LIG 0.15  C 
ATOM     66  CG2 THR D 208     -25.683  13.773  26.812  1.00 25.57 LIG 0.04  C 
BRANCH 65 67
ATOM     67 OG1  THR D 208     -23.593  14.945  27.049  1.00 26.97 LIG-0.39  OA
ATOM     68 HG1  THR D 208     -23.129  15.474  26.591  1.00 26.97 LIG 0.21  HD
ENDBRANCH 65 67
ENDBRANCH 43 65
ENDBRANCH 40 43
ENDBRANCH 37 39
ENDBRANCH 3 37
TORSDOF 25
ENDMDL
MODEL 2
USER: ADFR SOLUTION from run 130
USER: SCORE 18.226278 LL:  -3.008 LR: -17.309 RR:   0.000 FEB:  -9.851
USER: RMSD 4.993472
USER: SEED 129
USER: STATUS 1 or 2 clusters left
USER: GENES 27
USER: genes 0 Translation |==|  0.46497 0.52530 0.41344
USER: genes 1 Rotation |==|  0.46972 0.26031 0.91790 0.63034
USER: genes 2 Torsion [N]-C--CA-[N] |==|  0.55307
USER: genes 3 Torsion [C]-CA--CB-[CG] |==|  0.51200
USER: genes 4 Torsion [CA]-CB--CG-[CD] |==|  0.31644
USER: genes 5 Torsion [CB]-CG--CD-[NE2] |==|  0.71438
USER: genes 6 Torsion [C]-CA--N-[C] |==|  0.59188
USER: genes 7 Torsion [N]-C--CA-[N] |==|  0.36436
USER: genes 8 Torsion [C]-CA--N-[C] |==|  0.63333
USER: genes 9 Torsion [N]-C--CA-[N] |==|  0.63542
USER: genes 10 Torsion [C]-CA--CB-[CG] |==|  0.52119
USER: genes 11 Torsion [CA]-CB--CG-[CD] |==|  0.28676
USER: genes 12 Torsion [CB]-CG--CD-[NE2] |==|  0.30271
USER: genes 13 Torsion [C]-N--CA-[CB] |==|  0.86958
USER: genes 14 Torsion [N]-CA--C-[N] |==|  0.33478
USER: genes 15 Torsion [C]-N--CA-[CB] |==|  0.59177
USER: genes 16 Torsion [N]-CA--C-[N] |==|  0.81775
USER: genes 17 Torsion [C]-N--CA-[C] |==|  0.69288
USER: genes 18 Torsion [N]-CA--C-[N] |==|  0.83106
USER: genes 19 Torsion [C]-N--CA-[C] |==|  0.68023
USER: genes 20 Torsion [N]-CA--C-[O] |==|  0.65537
USER: genes 21 Torsion [N]-CA--CB-[CG] |==|  0.94404
USER: genes 22 Torsion [CA]-CB--CG-[OD2] |==|  0.76367
USER: genes 23 Torsion [N]-CA--CB-[CG] |==|  0.06395
USER: genes 24 Torsion [CA]-CB--CG-[OD2] |==|  0.30864
USER: genes 25 Torsion [N]-CA--CB-[OG1] |==|  0.98558
USER: genes 26 Torsion [CA]-CB--OG1-[HG1] |==|  0.79448
ROOT
ATOM      1  C   GLN D 206     -22.378  12.361  26.129  1.00 23.02 LIG 0.24  C 
ATOM      2 O    GLN D 206     -22.391  11.369  25.402  1.00 23.21 LIG-0.27  OA
ATOM      3  N   ALA D 207     -22.189  13.598  25.675  1.00 22.72 LIG-0.35  N 
ATOM      4 H    ALA D 207     -22.211  14.298  26.175  1.00 22.72 LIG 0.16  HD
ENDROOT
BRANCH 1 5
ATOM      5  CA  GLN D 206     -22.594  12.234  27.628  1.00 22.90 LIG 0.18  C 
BRANCH 5 6
ATOM      6  CB  GLN D 206     -21.693  13.248  28.346  1.00 23.00 LIG 0.04  C 
BRANCH 6 7
ATOM      7  CG  GLN D 206     -21.722  13.169  29.873  1.00 22.87 LIG 0.10  C 
BRANCH 7 8
ATOM      8  CD  GLN D 206     -20.389  12.723  30.448  1.00 23.72 LIG 0.21  C 
ATOM      9  NE2 GLN D 206     -20.304  11.458  30.854  1.00 23.17 LIG-0.37  N 
ATOM     10 21HE GLN D 206     -20.987  10.939  30.787  1.00 23.17 LIG 0.16  HD
ATOM     11 22HE GLN D 206     -19.568  11.160  31.184  1.00 23.17 LIG 0.16  HD
ATOM     12 OE1  GLN D 206     -19.445  13.507  30.522  1.00 23.11 LIG-0.27  OA
ENDBRANCH 7 8
ENDBRANCH 6 7
ENDBRANCH 5 6
BRANCH 5 13
ATOM     13  N   GLN D 206     -22.362  10.895  28.151  1.00 22.83 LIG-0.35  N 
ATOM     14 H    GLN D 206     -21.746  10.456  27.742  1.00 22.83 LIG 0.16  HD
ATOM     15  C   GLN D 205     -23.058  10.415  29.176  1.00 23.49 LIG 0.24  C 
ATOM     16 O    GLN D 205     -23.959  11.044  29.735  1.00 22.46 LIG-0.27  OA
BRANCH 15 17
ATOM     17  CA  GLN D 205     -22.689   9.017  29.641  1.00 24.37 LIG 0.18  C 
BRANCH 17 18
ATOM     18  N   GLN D 205     -22.526   9.061  31.088  1.00 25.17 LIG-0.35  N 
ATOM     19 H    GLN D 205     -23.169   9.457  31.499  1.00 25.17 LIG 0.16  HD
ATOM     20  C   PRO D 204     -21.476   8.533  31.706  1.00 27.23 LIG 0.24  C 
ATOM     21 O    PRO D 204     -20.570   7.951  31.116  1.00 27.18 LIG-0.27  OA
BRANCH 20 22
ATOM     22  CA  PRO D 204     -21.430   8.702  33.223  1.00 28.49 LIG 0.18  C 
ATOM     23  N   PRO D 204     -20.122   9.195  33.662  1.00 30.00 LIG-0.34  N 
ATOM     24  CD  PRO D 204     -20.198  10.646  33.865  1.00 30.13 LIG 0.13  C 
ATOM     25  C   ACE D 203     -19.054   8.412  33.873  1.00 30.58 LIG 0.22  C 
ATOM     26  CG  PRO D 204     -21.511  10.738  34.550  1.00 30.43 LIG 0.02  C 
ATOM     27  CB  PRO D 204     -22.383   9.819  33.666  1.00 28.78 LIG 0.04  C 
ATOM     28  CH3 ACE D 203     -17.767   9.074  34.325  1.00 31.20 LIG 0.12  C 
ATOM     29 O    ACE D 203     -19.104   7.193  33.716  1.00 31.12 LIG-0.27  OA
ENDBRANCH 20 22
ENDBRANCH 17 18
BRANCH 17 30
ATOM     30  CB  GLN D 205     -23.783   8.028  29.245  1.00 24.72 LIG 0.04  C 
BRANCH 30 31
ATOM     31  CG  GLN D 205     -23.580   6.648  29.830  1.00 27.03 LIG 0.10  C 
BRANCH 31 32
ATOM     32  CD  GLN D 205     -24.489   6.374  31.006  1.00 28.11 LIG 0.21  C 
ATOM     33  NE2 GLN D 205     -25.469   5.503  30.802  1.00 29.45 LIG-0.37  N 
ATOM     34 21HE GLN D 205     -25.555   5.125  30.034  1.00 29.45 LIG 0.16  HD
ATOM     35 22HE GLN D 205     -26.018   5.317  31.438  1.00 29.45 LIG 0.16  HD
ATOM     36 OE1  GLN D 205     -24.320   6.943  32.084  1.00 29.17 LIG-0.27  OA
ENDBRANCH 31 32
ENDBRANCH 30 31
ENDBRANCH 17 30
ENDBRANCH 15 17
ENDBRANCH 5 13
ENDBRANCH 1 5
BRANCH 3 37
ATOM     37  CA  ALA D 207     -21.924  13.876  24.270  1.00 22.93 LIG 0.17  C 
ATOM     38  CB  ALA D 207     -20.859  12.930  23.751  1.00 22.72 LIG 0.04  C 
BRANCH 37 39
ATOM     39  C   ALA D 207     -23.252  13.645  23.539  1.00 23.32 LIG 0.24  C 
ATOM     40  N   THR D 208     -23.780  14.665  22.869  1.00 24.11 LIG-0.34  N 
ATOM     41 H    THR D 208     -23.418  15.442  22.797  1.00 24.11 LIG 0.16  HD
ATOM     42 O    ALA D 207     -23.787  12.538  23.575  1.00 22.54 LIG-0.27  OA
BRANCH 40 43
ATOM     43  CA  THR D 208     -25.064  14.514  22.189  1.00 25.74 LIG 0.20  C 
BRANCH 43 44
ATOM     44  C   THR D 208     -25.509  13.104  21.803  1.00 27.84 LIG 0.24  C 
ATOM     45  N   ASP D 209     -24.800  12.448  20.892  1.00 27.84 LIG-0.34  N 
ATOM     46 H    ASP D 209     -24.087  12.744  20.512  1.00 27.84 LIG 0.16  HD
ATOM     47 O    THR D 208     -26.501  12.608  22.341  1.00 27.83 LIG-0.27  OA
BRANCH 45 48
ATOM     48  CA  ASP D 209     -25.229  11.116  20.473  1.00 29.52 LIG 0.19  C 
BRANCH 48 49
ATOM     49  C   ASP D 209     -24.377   9.918  20.882  1.00 30.14 LIG 0.24  C 
ATOM     50 O    ASP D 209     -24.872   9.040  21.583  1.00 31.34 LIG-0.27  OA
ATOM     51  N   ASP D 210     -23.118   9.865  20.462  1.00 30.20 LIG-0.34  N 
ATOM     52 H    ASP D 210     -22.741  10.463  19.972  1.00 30.20 LIG 0.16  HD
BRANCH 51 53
ATOM     53  CA  ASP D 210     -22.262   8.735  20.825  1.00 30.95 LIG 0.20  C 
BRANCH 53 54
ATOM     54  C   ASP D 210     -21.081   9.124  21.716  1.00 31.44 LIG 0.20  C 
ATOM     55 O    ASP D 210     -19.929   8.836  21.331  1.00 30.73 LIG-0.65  OA
ATOM     56 OXT  ASP D 210     -21.320   9.721  22.788  1.00 31.53 LIG-0.65  OA
ENDBRANCH 53 54
BRANCH 53 57
ATOM     57  CB  ASP D 210     -21.752   8.029  19.563  1.00 31.88 LIG 0.15  C 
BRANCH 57 58
ATOM     58  CG  ASP D 210     -22.595   8.325  18.344  1.00 32.06 LIG 0.17  C 
ATOM     59 OD2  ASP D 210     -23.621   7.643  18.125  1.00 32.64 LIG-0.65  OA
ATOM     60 OD1  ASP D 210     -22.219   9.246  17.595  1.00 34.58 LIG-0.65  OA
ENDBRANCH 57 58
ENDBRANCH 53 57
ENDBRANCH 51 53
ENDBRANCH 48 49
BRANCH 48 61
ATOM     61  CB  ASP D 209     -25.381  11.073  18.952  1.00 29.28 LIG 0.15  C 
BRANCH 61 62
ATOM     62  CG  ASP D 209     -24.559  12.138  18.260  1.00 30.36 LIG 0.17  C 
ATOM     63 OD2  ASP D 209     -23.578  11.783  17.577  1.00 30.91 LIG-0.65  OA
ATOM     64 OD1  ASP D 209     -24.881  13.335  18.423  1.00 31.75 LIG-0.65  OA
ENDBRANCH 61 62
ENDBRANCH 48 61
ENDBRANCH 45 48
ENDBRANCH 43 44
BRANCH 43 65
ATOM     65  CB  THR D 208     -25.128  15.366  20.900  1.00 25.82 LIG 0.15  C 
ATOM     66  CG2 THR D 208     -26.347  16.276  20.915  1.00 25.57 LIG 0.04  C 
BRANCH 65 67
ATOM     67 OG1  THR D 208     -23.945  16.165  20.793  1.00 26.97 LIG-0.39  OA
ATOM     68 HG1  THR D 208     -23.983  16.797  21.345  1.00 26.97 LIG 0.21  HD
ENDBRANCH 65 67
ENDBRANCH 43 65
ENDBRANCH 40 43
ENDBRANCH 37 39
ENDBRANCH 3 37
TORSDOF 25
ENDMDL
MODEL 3
USER: ADFR SOLUTION from run 46
USER: SCORE 18.133394 LL:  -3.733 LR: -16.850 RR:   0.000 FEB:  -9.393
USER: RMSD 3.139482
USER: SEED 45
USER: STATUS 1 or 2 clusters left
USER: GENES 27
USER: genes 0 Translation |==|  0.47344 0.55111 0.43580
USER: genes 1 Rotation |==|  0.44445 0.41436 0.53707 0.98806
USER: genes 2 Torsion [N]-C--CA-[N] |==|  0.36682
USER: genes 3 Torsion [C]-CA--CB-[CG] |==|  0.52738
USER: genes 4 Torsion [CA]-CB--CG-[CD] |==|  0.79621
USER: genes 5 Torsion [CB]-CG--CD-[NE2] |==|  0.70734
USER: genes 6 Torsion [C]-CA--N-[C] |==|  0.71766
USER: genes 7 Torsion [N]-C--CA-[N] |==|  0.45966
USER: genes 8 Torsion [C]-CA--N-[C] |==|  0.77951
USER: genes 9 Torsion [N]-C--CA-[N] |==|  0.27037
USER: genes 10 Torsion [C]-CA--CB-[CG] |==|  0.21832
USER: genes 11 Torsion [CA]-CB--CG-[CD] |==|  0.61226
USER: genes 12 Torsion [CB]-CG--CD-[NE2] |==|  0.23291
USER: genes 13 Torsion [C]-N--CA-[CB] |==|  0.48475
USER: genes 14 Torsion [N]-CA--C-[N] |==|  0.45205
USER: genes 15 Torsion [C]-N--CA-[CB] |==|  0.52377
USER: genes 16 Torsion [N]-CA--C-[N] |==|  0.79219
USER: genes 17 Torsion [C]-N--CA-[C] |==|  0.72222
USER: genes 18 Torsion [N]-CA--C-[N] |==|  0.75709
USER: genes 19 Torsion [C]-N--CA-[C] |==|  0.18067
USER: genes 20 Torsion [N]-CA--C-[O] |==|  0.72578
USER: genes 21 Torsion [N]-CA--CB-[CG] |==|  0.86089
USER: genes 22 Torsion [CA]-CB--CG-[OD2] |==|  0.30439
USER: genes 23 Torsion [N]-CA--CB-[CG] |==|  0.11643
USER: genes 24 Torsion [CA]-CB--CG-[OD2] |==|  0.76826
USER: genes 25 Torsion [N]-CA--CB-[OG1] |==|  0.91496
USER: genes 26 Torsion [CA]-CB--OG1-[HG1] |==|  0.89084
ROOT
ATOM      1  C   GLN D 206     -22.213  12.865  26.733  1.00 23.02 LIG 0.24  C 
ATOM      2 O    GLN D 206     -23.001  13.806  26.650  1.00 23.21 LIG-0.27  OA
ATOM      3  N   ALA D 207     -21.396  12.506  25.746  1.00 22.72 LIG-0.35  N 
ATOM      4 H    ALA D 207     -20.821  11.869  25.810  1.00 22.72 LIG 0.16  HD
ENDROOT
BRANCH 1 5
ATOM      5  CA  GLN D 206     -22.114  12.038  28.005  1.00 22.90 LIG 0.18  C 
BRANCH 5 6
ATOM      6  CB  GLN D 206     -23.322  11.093  28.076  1.00 23.00 LIG 0.04  C 
BRANCH 6 7
ATOM      7  CG  GLN D 206     -23.491  10.364  29.410  1.00 22.87 LIG 0.10  C 
BRANCH 7 8
ATOM      8  CD  GLN D 206     -22.460   9.263  29.594  1.00 23.72 LIG 0.21  C 
ATOM      9  NE2 GLN D 206     -22.889   8.011  29.448  1.00 23.17 LIG-0.37  N 
ATOM     10 21HE GLN D 206     -23.714   7.859  29.261  1.00 23.17 LIG 0.16  HD
ATOM     11 22HE GLN D 206     -22.340   7.355  29.540  1.00 23.17 LIG 0.16  HD
ATOM     12 OE1  GLN D 206     -21.292   9.537  29.860  1.00 23.11 LIG-0.27  OA
ENDBRANCH 7 8
ENDBRANCH 6 7
ENDBRANCH 5 6
BRANCH 5 13
ATOM     13  N   GLN D 206     -22.022  12.830  29.223  1.00 22.83 LIG-0.35  N 
ATOM     14 H    GLN D 206     -22.770  13.154  29.493  1.00 22.83 LIG 0.16  HD
ATOM     15  C   GLN D 205     -20.863  13.020  29.847  1.00 23.49 LIG 0.24  C 
ATOM     16 O    GLN D 205     -19.792  12.573  29.433  1.00 22.46 LIG-0.27  OA
BRANCH 15 17
ATOM     17  CA  GLN D 205     -20.917  13.837  31.125  1.00 24.37 LIG 0.18  C 
BRANCH 17 18
ATOM     18  N   GLN D 205     -19.656  13.642  31.828  1.00 25.17 LIG-0.35  N 
ATOM     19 H    GLN D 205     -19.097  14.288  31.728  1.00 25.17 LIG 0.16  HD
ATOM     20  C   PRO D 204     -19.401  12.560  32.555  1.00 27.23 LIG 0.24  C 
ATOM     21 O    PRO D 204     -20.209  11.648  32.710  1.00 27.18 LIG-0.27  OA
BRANCH 20 22
ATOM     22  CA  PRO D 204     -18.015  12.484  33.191  1.00 28.49 LIG 0.18  C 
ATOM     23  N   PRO D 204     -18.047  12.934  34.585  1.00 30.00 LIG-0.34  N 
ATOM     24  CD  PRO D 204     -18.119  11.764  35.467  1.00 30.13 LIG 0.13  C 
ATOM     25  C   ACE D 203     -17.979  14.219  34.963  1.00 30.58 LIG 0.22  C 
ATOM     26  CG  PRO D 204     -17.141  10.877  34.792  1.00 30.43 LIG 0.02  C 
ATOM     27  CB  PRO D 204     -17.561  11.024  33.313  1.00 28.78 LIG 0.04  C 
ATOM     28  CH3 ACE D 203     -18.026  14.525  36.447  1.00 31.20 LIG 0.12  C 
ATOM     29 O    ACE D 203     -17.876  15.131  34.144  1.00 31.12 LIG-0.27  OA
ENDBRANCH 20 22
ENDBRANCH 17 18
BRANCH 17 30
ATOM     30  CB  GLN D 205     -21.135  15.312  30.795  1.00 24.72 LIG 0.04  C 
BRANCH 30 31
ATOM     31  CG  GLN D 205     -22.573  15.642  30.460  1.00 27.03 LIG 0.10  C 
BRANCH 31 32
ATOM     32  CD  GLN D 205     -22.695  16.614  29.309  1.00 28.11 LIG 0.21  C 
ATOM     33  NE2 GLN D 205     -22.645  16.093  28.091  1.00 29.45 LIG-0.37  N 
ATOM     34 21HE GLN D 205     -22.555  15.243  27.990  1.00 29.45 LIG 0.16  HD
ATOM     35 22HE GLN D 205     -22.703  16.604  27.401  1.00 29.45 LIG 0.16  HD
ATOM     36 OE1  GLN D 205     -22.822  17.821  29.510  1.00 29.17 LIG-0.27  OA
ENDBRANCH 31 32
ENDBRANCH 30 31
ENDBRANCH 17 30
ENDBRANCH 15 17
ENDBRANCH 5 13
ENDBRANCH 1 5
BRANCH 3 37
ATOM     37  CA  ALA D 207     -21.406  13.173  24.451  1.00 22.93 LIG 0.17  C 
ATOM     38  CB  ALA D 207     -20.281  12.637  23.588  1.00 22.72 LIG 0.04  C 
BRANCH 37 39
ATOM     39  C   ALA D 207     -22.767  12.849  23.822  1.00 23.32 LIG 0.24  C 
ATOM     40  N   THR D 208     -23.180  13.604  22.809  1.00 24.11 LIG-0.34  N 
ATOM     41 H    THR D 208     -22.728  14.248  22.463  1.00 24.11 LIG 0.16  HD
ATOM     42 O    ALA D 207     -23.431  11.908  24.252  1.00 22.54 LIG-0.27  OA
BRANCH 40 43
ATOM     43  CA  THR D 208     -24.487  13.367  22.199  1.00 25.74 LIG 0.20  C 
BRANCH 43 44
ATOM     44  C   THR D 208     -24.859  11.929  21.838  1.00 27.84 LIG 0.24  C 
ATOM     45  N   ASP D 209     -24.290  11.380  20.771  1.00 27.84 LIG-0.34  N 
ATOM     46 H    ASP D 209     -23.703  11.763  20.272  1.00 27.84 LIG 0.16  HD
ATOM     47 O    THR D 208     -25.666  11.314  22.538  1.00 27.83 LIG-0.27  OA
BRANCH 45 48
ATOM     48  CA  ASP D 209     -24.661  10.023  20.379  1.00 29.52 LIG 0.19  C 
BRANCH 48 49
ATOM     49  C   ASP D 209     -23.733   8.877  20.769  1.00 30.14 LIG 0.24  C 
ATOM     50 O    ASP D 209     -23.930   8.275  21.821  1.00 31.34 LIG-0.27  OA
ATOM     51  N   ASP D 210     -22.734   8.567  19.951  1.00 30.20 LIG-0.34  N 
ATOM     52 H    ASP D 210     -22.567   8.969  19.209  1.00 30.20 LIG 0.16  HD
BRANCH 51 53
ATOM     53  CA  ASP D 210     -21.819   7.473  20.280  1.00 30.95 LIG 0.20  C 
BRANCH 53 54
ATOM     54  C   ASP D 210     -22.492   6.099  20.304  1.00 31.44 LIG 0.20  C 
ATOM     55 O    ASP D 210     -22.831   5.626  21.408  1.00 30.73 LIG-0.65  OA
ATOM     56 OXT  ASP D 210     -22.679   5.513  19.217  1.00 31.53 LIG-0.65  OA
ENDBRANCH 53 54
BRANCH 53 57
ATOM     57  CB  ASP D 210     -21.133   7.741  21.625  1.00 31.88 LIG 0.15  C 
BRANCH 57 58
ATOM     58  CG  ASP D 210     -20.528   9.124  21.710  1.00 32.06 LIG 0.17  C 
ATOM     59 OD2  ASP D 210     -21.049   9.978  22.461  1.00 32.64 LIG-0.65  OA
ATOM     60 OD1  ASP D 210     -19.525   9.355  21.010  1.00 34.58 LIG-0.65  OA
ENDBRANCH 57 58
ENDBRANCH 53 57
ENDBRANCH 51 53
ENDBRANCH 48 49
BRANCH 48 61
ATOM     61  CB  ASP D 209     -24.862   9.957  18.865  1.00 29.28 LIG 0.15  C 
BRANCH 61 62
ATOM     62  CG  ASP D 209     -23.804  10.728  18.108  1.00 30.36 LIG 0.17  C 
ATOM     63 OD2  ASP D 209     -23.954  11.958  17.962  1.00 30.91 LIG-0.65  OA
ATOM     64 OD1  ASP D 209     -22.833  10.097  17.635  1.00 31.75 LIG-0.65  OA
ENDBRANCH 61 62
ENDBRANCH 48 61
ENDBRANCH 45 48
ENDBRANCH 43 44
BRANCH 43 65
ATOM     65  CB  THR D 208     -24.676  14.207  20.915  1.00 25.82 LIG 0.15  C 
ATOM     66  CG2 THR D 208     -26.147  14.526  20.691  1.00 25.57 LIG 0.04  C 
BRANCH 65 67
ATOM     67 OG1  THR D 208     -23.941  15.431  21.029  1.00 26.97 LIG-0.39  OA
ATOM     68 HG1  THR D 208     -24.007  15.725  21.812  1.00 26.97 LIG 0.21  HD
ENDBRANCH 65 67
ENDBRANCH 43 65
ENDBRANCH 40 43
ENDBRANCH 37 39
ENDBRANCH 3 37
TORSDOF 25
ENDMDL
MODEL 4
USER: ADFR SOLUTION from run 165
USER: SCORE 16.711435 LL:  -3.095 LR: -16.851 RR:   0.000 FEB:  -9.394
USER: RMSD 4.664337
USER: SEED 164
USER: STATUS no improvement in best in 2 clusters for 5 generations
USER: GENES 27
USER: genes 0 Translation |==|  0.45043 0.57215 0.42650
USER: genes 1 Rotation |==|  0.38605 0.31829 0.91958 0.66718
USER: genes 2 Torsion [N]-C--CA-[N] |==|  0.63103
USER: genes 3 Torsion [C]-CA--CB-[CG] |==|  0.38572
USER: genes 4 Torsion [CA]-CB--CG-[CD] |==|  0.56305
USER: genes 5 Torsion [CB]-CG--CD-[NE2] |==|  0.07530
USER: genes 6 Torsion [C]-CA--N-[C] |==|  0.14516
USER: genes 7 Torsion [N]-C--CA-[N] |==|  0.66104
USER: genes 8 Torsion [C]-CA--N-[C] |==|  0.15624
USER: genes 9 Torsion [N]-C--CA-[N] |==|  0.62497
USER: genes 10 Torsion [C]-CA--CB-[CG] |==|  0.49148
USER: genes 11 Torsion [CA]-CB--CG-[CD] |==|  0.73843
USER: genes 12 Torsion [CB]-CG--CD-[NE2] |==|  0.17577
USER: genes 13 Torsion [C]-N--CA-[CB] |==|  0.83969
USER: genes 14 Torsion [N]-CA--C-[N] |==|  0.12995
USER: genes 15 Torsion [C]-N--CA-[CB] |==|  0.73817
USER: genes 16 Torsion [N]-CA--C-[N] |==|  0.72594
USER: genes 17 Torsion [C]-N--CA-[C] |==|  0.76241
USER: genes 18 Torsion [N]-CA--C-[N] |==|  0.81896
USER: genes 19 Torsion [C]-N--CA-[C] |==|  0.67030
USER: genes 20 Torsion [N]-CA--C-[O] |==|  0.66570
USER: genes 21 Torsion [N]-CA--CB-[CG] |==|  0.97263
USER: genes 22 Torsion [CA]-CB--CG-[OD2] |==|  0.23142
USER: genes 23 Torsion [N]-CA--CB-[CG] |==|  0.01532
USER: genes 24 Torsion [CA]-CB--CG-[OD2] |==|  0.26369
USER: genes 25 Torsion [N]-CA--CB-[OG1] |==|  0.01892
USER: genes 26 Torsion [CA]-CB--OG1-[HG1] |==|  0.78517
ROOT
ATOM      1  C   GLN D 206     -22.662  13.275  26.481  1.00 23.02 LIG 0.24  C 
ATOM      2 O    GLN D 206     -22.905  12.156  26.033  1.00 23.21 LIG-0.27  OA
ATOM      3  N   ALA D 207     -22.053  14.228  25.780  1.00 22.72 LIG-0.35  N 
ATOM      4 H    ALA D 207     -21.909  15.022  26.078  1.00 22.72 LIG 0.16  HD
ENDROOT
BRANCH 1 5
ATOM      5  CA  GLN D 206     -23.061  13.652  27.899  1.00 22.90 LIG 0.18  C 
BRANCH 5 6
ATOM      6  CB  GLN D 206     -22.437  15.012  28.244  1.00 23.00 LIG 0.04  C 
BRANCH 6 7
ATOM      7  CG  GLN D 206     -23.353  15.963  29.016  1.00 22.87 LIG 0.10  C 
BRANCH 7 8
ATOM      8  CD  GLN D 206     -22.936  17.415  28.854  1.00 23.72 LIG 0.21  C 
ATOM      9  NE2 GLN D 206     -22.291  17.730  27.732  1.00 23.17 LIG-0.37  N 
ATOM     10 21HE GLN D 206     -22.128  17.123  27.145  1.00 23.17 LIG 0.16  HD
ATOM     11 22HE GLN D 206     -22.039  18.540  27.594  1.00 23.17 LIG 0.16  HD
ATOM     12 OE1  GLN D 206     -23.195  18.242  29.724  1.00 23.11 LIG-0.27  OA
ENDBRANCH 7 8
ENDBRANCH 6 7
ENDBRANCH 5 6
BRANCH 5 13
ATOM     13  N   GLN D 206     -22.698  12.662  28.903  1.00 22.83 LIG-0.35  N 
ATOM     14 H    GLN D 206     -23.347  12.416  29.410  1.00 22.83 LIG 0.16  HD
ATOM     15  C   GLN D 205     -21.458  12.193  29.006  1.00 23.49 LIG 0.24  C 
ATOM     16 O    GLN D 205     -20.530  12.575  28.291  1.00 22.46 LIG-0.27  OA
BRANCH 15 17
ATOM     17  CA  GLN D 205     -21.227  11.139  30.074  1.00 24.37 LIG 0.18  C 
BRANCH 17 18
ATOM     18  N   GLN D 205     -20.195  11.639  30.972  1.00 25.17 LIG-0.35  N 
ATOM     19 H    GLN D 205     -19.517  11.115  31.050  1.00 25.17 LIG 0.16  HD
ATOM     20  C   PRO D 204     -20.301  12.800  31.607  1.00 27.23 LIG 0.24  C 
ATOM     21 O    PRO D 204     -21.262  13.554  31.478  1.00 27.18 LIG-0.27  OA
BRANCH 20 22
ATOM     22  CA  PRO D 204     -19.154  13.162  32.549  1.00 28.49 LIG 0.18  C 
ATOM     23  N   PRO D 204     -19.658  13.677  33.825  1.00 30.00 LIG-0.34  N 
ATOM     24  CD  PRO D 204     -19.653  12.596  34.817  1.00 30.13 LIG 0.13  C 
ATOM     25  C   ACE D 203     -20.022  14.951  34.031  1.00 30.58 LIG 0.22  C 
ATOM     26  CG  PRO D 204     -18.340  11.977  34.511  1.00 30.43 LIG 0.02  C 
ATOM     27  CB  PRO D 204     -18.389  11.900  32.969  1.00 28.78 LIG 0.04  C 
ATOM     28  CH3 ACE D 203     -20.527  15.330  35.409  1.00 31.20 LIG 0.12  C 
ATOM     29 O    ACE D 203     -19.948  15.798  33.142  1.00 31.12 LIG-0.27  OA
ENDBRANCH 20 22
ENDBRANCH 17 18
BRANCH 17 30
ATOM     30  CB  GLN D 205     -22.525  10.868  30.832  1.00 24.72 LIG 0.04  C 
BRANCH 30 31
ATOM     31  CG  GLN D 205     -22.394   9.773  31.867  1.00 27.03 LIG 0.10  C 
BRANCH 31 32
ATOM     32  CD  GLN D 205     -22.800   8.417  31.336  1.00 28.11 LIG 0.21  C 
ATOM     33  NE2 GLN D 205     -22.070   7.932  30.341  1.00 29.45 LIG-0.37  N 
ATOM     34 21HE GLN D 205     -21.402   8.382  30.038  1.00 29.45 LIG 0.16  HD
ATOM     35 22HE GLN D 205     -22.264   7.167  29.998  1.00 29.45 LIG 0.16  HD
ATOM     36 OE1  GLN D 205     -23.765   7.815  31.806  1.00 29.17 LIG-0.27  OA
ENDBRANCH 31 32
ENDBRANCH 30 31
ENDBRANCH 17 30
ENDBRANCH 15 17
ENDBRANCH 5 13
ENDBRANCH 1 5
BRANCH 3 37
ATOM     37  CA  ALA D 207     -21.570  14.003  24.424  1.00 22.93 LIG 0.17  C 
ATOM     38  CB  ALA D 207     -20.588  12.848  24.413  1.00 22.72 LIG 0.04  C 
BRANCH 37 39
ATOM     39  C   ALA D 207     -22.811  13.663  23.588  1.00 23.32 LIG 0.24  C 
ATOM     40  N   THR D 208     -23.885  14.434  23.726  1.00 24.11 LIG-0.34  N 
ATOM     41 H    THR D 208     -23.928  15.126  24.235  1.00 24.11 LIG 0.16  HD
ATOM     42 O    ALA D 207     -22.784  12.709  22.812  1.00 22.54 LIG-0.27  OA
BRANCH 40 43
ATOM     43  CA  THR D 208     -25.108  14.132  22.986  1.00 25.74 LIG 0.20  C 
BRANCH 43 44
ATOM     44  C   THR D 208     -25.394  12.672  22.638  1.00 27.84 LIG 0.24  C 
ATOM     45  N   ASP D 209     -25.088  12.243  21.418  1.00 27.84 LIG-0.34  N 
ATOM     46 H    ASP D 209     -24.716  12.719  20.806  1.00 27.84 LIG 0.16  HD
ATOM     47 O    THR D 208     -25.889  11.928  23.486  1.00 27.83 LIG-0.27  OA
BRANCH 45 48
ATOM     48  CA  ASP D 209     -25.391  10.864  21.046  1.00 29.52 LIG 0.19  C 
BRANCH 48 49
ATOM     49  C   ASP D 209     -24.374   9.781  21.393  1.00 30.14 LIG 0.24  C 
ATOM     50 O    ASP D 209     -24.679   8.908  22.202  1.00 31.34 LIG-0.27  OA
ATOM     51  N   ASP D 210     -23.185   9.818  20.804  1.00 30.20 LIG-0.34  N 
ATOM     52 H    ASP D 210     -22.940  10.415  20.235  1.00 30.20 LIG 0.16  HD
BRANCH 51 53
ATOM     53  CA  ASP D 210     -22.177   8.798  21.101  1.00 30.95 LIG 0.20  C 
BRANCH 53 54
ATOM     54  C   ASP D 210     -20.897   9.366  21.716  1.00 31.44 LIG 0.20  C 
ATOM     55 O    ASP D 210     -19.820   9.184  21.113  1.00 30.73 LIG-0.65  OA
ATOM     56 OXT  ASP D 210     -20.986   9.993  22.793  1.00 31.53 LIG-0.65  OA
ENDBRANCH 53 54
BRANCH 53 57
ATOM     57  CB  ASP D 210     -21.839   8.002  19.835  1.00 31.88 LIG 0.15  C 
BRANCH 57 58
ATOM     58  CG  ASP D 210     -22.777   8.297  18.687  1.00 32.06 LIG 0.17  C 
ATOM     59 OD2  ASP D 210     -22.570   9.298  17.966  1.00 32.64 LIG-0.65  OA
ATOM     60 OD1  ASP D 210     -23.735   7.521  18.515  1.00 34.58 LIG-0.65  OA
ENDBRANCH 57 58
ENDBRANCH 53 57
ENDBRANCH 51 53
ENDBRANCH 48 49
BRANCH 48 61
ATOM     61  CB  ASP D 209     -25.658  10.778  19.544  1.00 29.28 LIG 0.15  C 
BRANCH 61 62
ATOM     62  CG  ASP D 209     -25.410  12.092  18.837  1.00 30.36 LIG 0.17  C 
ATOM     63 OD2  ASP D 209     -24.296  12.282  18.308  1.00 30.91 LIG-0.65  OA
ATOM     64 OD1  ASP D 209     -26.322  12.947  18.835  1.00 31.75 LIG-0.65  OA
ENDBRANCH 61 62
ENDBRANCH 48 61
ENDBRANCH 45 48
ENDBRANCH 43 44
BRANCH 43 65
ATOM     65  CB  THR D 208     -25.179  14.924  21.659  1.00 25.82 LIG 0.15  C 
ATOM     66  CG2 THR D 208     -26.320  15.930  21.693  1.00 25.57 LIG 0.04  C 
BRANCH 65 67
ATOM     67 OG1  THR D 208     -23.945  15.618  21.447  1.00 26.97 LIG-0.39  OA
ATOM     68 HG1  THR D 208     -23.921  16.301  21.934  1.00 26.97 LIG 0.21  HD
ENDBRANCH 65 67
ENDBRANCH 43 65
ENDBRANCH 40 43
ENDBRANCH 37 39
ENDBRANCH 3 37
TORSDOF 25
ENDMDL
MODEL 5
USER: ADFR SOLUTION from run 127
USER: SCORE 16.701291 LL:  -3.082 LR: -16.742 RR:   0.000 FEB:  -9.285
USER: RMSD 4.795454
USER: SEED 126
USER: STATUS no improvement in best in 10 clusters for 5 generations
USER: GENES 27
USER: genes 0 Translation |==|  0.44805 0.57093 0.41990
USER: genes 1 Rotation |==|  0.37528 0.33547 0.91994 0.67613
USER: genes 2 Torsion [N]-C--CA-[N] |==|  0.71896
USER: genes 3 Torsion [C]-CA--CB-[CG] |==|  0.52987
USER: genes 4 Torsion [CA]-CB--CG-[CD] |==|  0.46350
USER: genes 5 Torsion [CB]-CG--CD-[NE2] |==|  0.95793
USER: genes 6 Torsion [C]-CA--N-[C] |==|  0.60616
USER: genes 7 Torsion [N]-C--CA-[N] |==|  0.69978
USER: genes 8 Torsion [C]-CA--N-[C] |==|  0.15054
USER: genes 9 Torsion [N]-C--CA-[N] |==|  0.02465
USER: genes 10 Torsion [C]-CA--CB-[CG] |==|  0.20512
USER: genes 11 Torsion [CA]-CB--CG-[CD] |==|  0.14072
USER: genes 12 Torsion [CB]-CG--CD-[NE2] |==|  0.21916
USER: genes 13 Torsion [C]-N--CA-[CB] |==|  0.83271
USER: genes 14 Torsion [N]-CA--C-[N] |==|  0.19001
USER: genes 15 Torsion [C]-N--CA-[CB] |==|  0.63792
USER: genes 16 Torsion [N]-CA--C-[N] |==|  0.73625
USER: genes 17 Torsion [C]-N--CA-[C] |==|  0.75386
USER: genes 18 Torsion [N]-CA--C-[N] |==|  0.20025
USER: genes 19 Torsion [C]-N--CA-[C] |==|  0.21805
USER: genes 20 Torsion [N]-CA--C-[O] |==|  0.15901
USER: genes 21 Torsion [N]-CA--CB-[CG] |==|  0.73485
USER: genes 22 Torsion [CA]-CB--CG-[OD2] |==|  0.30901
USER: genes 23 Torsion [N]-CA--CB-[CG] |==|  0.13931
USER: genes 24 Torsion [CA]-CB--CG-[OD2] |==|  0.30478
USER: genes 25 Torsion [N]-CA--CB-[OG1] |==|  0.13253
USER: genes 26 Torsion [CA]-CB--OG1-[HG1] |==|  0.23881
ROOT
ATOM      1  C   GLN D 206     -22.708  13.251  26.303  1.00 23.02 LIG 0.24  C 
ATOM      2 O    GLN D 206     -23.021  12.122  25.927  1.00 23.21 LIG-0.27  OA
ATOM      3  N   ALA D 207     -22.044  14.118  25.543  1.00 22.72 LIG-0.35  N 
ATOM      4 H    ALA D 207     -21.852  14.920  25.790  1.00 22.72 LIG 0.16  HD
ENDROOT
BRANCH 1 5
ATOM      5  CA  GLN D 206     -23.081  13.742  27.693  1.00 22.90 LIG 0.18  C 
BRANCH 5 6
ATOM      6  CB  GLN D 206     -23.096  15.277  27.688  1.00 23.00 LIG 0.04  C 
BRANCH 6 7
ATOM      7  CG  GLN D 206     -23.201  15.925  29.070  1.00 22.87 LIG 0.10  C 
BRANCH 7 8
ATOM      8  CD  GLN D 206     -22.892  17.412  29.028  1.00 23.72 LIG 0.21  C 
ATOM      9  NE2 GLN D 206     -22.291  17.868  27.931  1.00 23.17 LIG-0.37  N 
ATOM     10 21HE GLN D 206     -22.095  17.327  27.292  1.00 23.17 LIG 0.16  HD
ATOM     11 22HE GLN D 206     -22.100  18.703  27.862  1.00 23.17 LIG 0.16  HD
ATOM     12 OE1  GLN D 206     -23.195  18.141  29.969  1.00 23.11 LIG-0.27  OA
ENDBRANCH 7 8
ENDBRANCH 6 7
ENDBRANCH 5 6
BRANCH 5 13
ATOM     13  N   GLN D 206     -22.210  13.251  28.751  1.00 22.83 LIG-0.35  N 
ATOM     14 H    GLN D 206     -21.379  13.205  28.534  1.00 22.83 LIG 0.16  HD
ATOM     15  C   GLN D 205     -22.684  12.908  29.944  1.00 23.49 LIG 0.24  C 
ATOM     16 O    GLN D 205     -23.881  12.951  30.233  1.00 22.46 LIG-0.27  OA
BRANCH 15 17
ATOM     17  CA  GLN D 205     -21.660  12.445  30.965  1.00 24.37 LIG 0.18  C 
BRANCH 17 18
ATOM     18  N   GLN D 205     -21.824  11.008  31.135  1.00 25.17 LIG-0.35  N 
ATOM     19 H    GLN D 205     -21.942  10.764  31.951  1.00 25.17 LIG 0.16  HD
ATOM     20  C   PRO D 204     -21.794  10.158  30.114  1.00 27.23 LIG 0.24  C 
ATOM     21 O    PRO D 204     -21.644  10.513  28.948  1.00 27.18 LIG-0.27  OA
BRANCH 20 22
ATOM     22  CA  PRO D 204     -21.935   8.678  30.462  1.00 28.49 LIG 0.18  C 
ATOM     23  N   PRO D 204     -22.290   8.497  31.872  1.00 30.00 LIG-0.34  N 
ATOM     24  CD  PRO D 204     -23.737   8.290  31.982  1.00 30.13 LIG 0.13  C 
ATOM     25  C   ACE D 203     -21.401   8.488  32.877  1.00 30.58 LIG 0.22  C 
ATOM     26  CG  PRO D 204     -23.950   7.370  30.838  1.00 30.43 LIG 0.02  C 
ATOM     27  CB  PRO D 204     -23.136   8.068  29.727  1.00 28.78 LIG 0.04  C 
ATOM     28  CH3 ACE D 203     -21.925   8.291  34.285  1.00 31.20 LIG 0.12  C 
ATOM     29 O    ACE D 203     -20.195   8.627  32.676  1.00 31.12 LIG-0.27  OA
ENDBRANCH 20 22
ENDBRANCH 17 18
BRANCH 17 30
ATOM     30  CB  GLN D 205     -20.250  12.780  30.482  1.00 24.72 LIG 0.04  C 
BRANCH 30 31
ATOM     31  CG  GLN D 205     -19.920  14.252  30.582  1.00 27.03 LIG 0.10  C 
BRANCH 31 32
ATOM     32  CD  GLN D 205     -20.218  14.825  31.949  1.00 28.11 LIG 0.21  C 
ATOM     33  NE2 GLN D 205     -19.327  14.576  32.898  1.00 29.45 LIG-0.37  N 
ATOM     34 21HE GLN D 205     -18.622  14.116  32.717  1.00 29.45 LIG 0.16  HD
ATOM     35 22HE GLN D 205     -19.453  14.873  33.696  1.00 29.45 LIG 0.16  HD
ATOM     36 OE1  GLN D 205     -21.242  15.476  32.153  1.00 29.17 LIG-0.27  OA
ENDBRANCH 31 32
ENDBRANCH 30 31
ENDBRANCH 17 30
ENDBRANCH 15 17
ENDBRANCH 5 13
ENDBRANCH 1 5
BRANCH 3 37
ATOM     37  CA  ALA D 207     -21.579  13.777  24.205  1.00 22.93 LIG 0.17  C 
ATOM     38  CB  ALA D 207     -20.620  12.606  24.277  1.00 22.72 LIG 0.04  C 
BRANCH 37 39
ATOM     39  C   ALA D 207     -22.834  13.398  23.408  1.00 23.32 LIG 0.24  C 
ATOM     40  N   THR D 208     -23.707  14.361  23.127  1.00 24.11 LIG-0.34  N 
ATOM     41 H    THR D 208     -23.608  15.188  23.340  1.00 24.11 LIG 0.16  HD
ATOM     42 O    ALA D 207     -22.999  12.237  23.042  1.00 22.54 LIG-0.27  OA
BRANCH 40 43
ATOM     43  CA  THR D 208     -24.940  14.049  22.407  1.00 25.74 LIG 0.20  C 
BRANCH 43 44
ATOM     44  C   THR D 208     -25.114  12.632  21.864  1.00 27.84 LIG 0.24  C 
ATOM     45  N   ASP D 209     -24.772  12.395  20.602  1.00 27.84 LIG-0.34  N 
ATOM     46 H    ASP D 209     -24.434  12.974  20.064  1.00 27.84 LIG 0.16  HD
ATOM     47 O    THR D 208     -25.556  11.747  22.598  1.00 27.83 LIG-0.27  OA
BRANCH 45 48
ATOM     48  CA  ASP D 209     -24.970  11.058  20.045  1.00 29.52 LIG 0.19  C 
BRANCH 48 49
ATOM     49  C   ASP D 209     -23.846  10.038  20.197  1.00 30.14 LIG 0.24  C 
ATOM     50 O    ASP D 209     -23.185   9.722  19.211  1.00 31.34 LIG-0.27  OA
ATOM     51  N   ASP D 210     -23.620   9.521  21.399  1.00 30.20 LIG-0.34  N 
ATOM     52 H    ASP D 210     -24.065   9.719  22.108  1.00 30.20 LIG 0.16  HD
BRANCH 51 53
ATOM     53  CA  ASP D 210     -22.550   8.540  21.595  1.00 30.95 LIG 0.20  C 
BRANCH 53 54
ATOM     54  C   ASP D 210     -21.156   9.165  21.677  1.00 31.44 LIG 0.20  C 
ATOM     55 O    ASP D 210     -20.945  10.030  22.550  1.00 30.73 LIG-0.65  OA
ATOM     56 OXT  ASP D 210     -20.286   8.775  20.868  1.00 31.53 LIG-0.65  OA
ENDBRANCH 53 54
BRANCH 53 57
ATOM     57  CB  ASP D 210     -22.586   7.488  20.481  1.00 31.88 LIG 0.15  C 
BRANCH 57 58
ATOM     58  CG  ASP D 210     -23.350   6.244  20.872  1.00 32.06 LIG 0.17  C 
ATOM     59 OD2  ASP D 210     -24.441   5.992  20.315  1.00 32.64 LIG-0.65  OA
ATOM     60 OD1  ASP D 210     -22.852   5.518  21.752  1.00 34.58 LIG-0.65  OA
ENDBRANCH 57 58
ENDBRANCH 53 57
ENDBRANCH 51 53
ENDBRANCH 48 49
BRANCH 48 61
ATOM     61  CB  ASP D 209     -25.300  11.160  18.556  1.00 29.28 LIG 0.15  C 
BRANCH 61 62
ATOM     62  CG  ASP D 209     -24.320  12.035  17.806  1.00 30.36 LIG 0.17  C 
ATOM     63 OD2  ASP D 209     -23.528  11.493  17.009  1.00 30.91 LIG-0.65  OA
ATOM     64 OD1  ASP D 209     -24.325  13.264  18.035  1.00 31.75 LIG-0.65  OA
ENDBRANCH 61 62
ENDBRANCH 48 61
ENDBRANCH 45 48
ENDBRANCH 43 44
BRANCH 43 65
ATOM     65  CB  THR D 208     -25.158  15.009  21.214  1.00 25.82 LIG 0.15  C 
ATOM     66  CG2 THR D 208     -25.564  16.392  21.703  1.00 25.57 LIG 0.04  C 
BRANCH 65 67
ATOM     67 OG1  THR D 208     -23.950  15.115  20.454  1.00 26.97 LIG-0.39  OA
ATOM     68 HG1  THR D 208     -23.917  14.491  19.892  1.00 26.97 LIG 0.21  HD
ENDBRANCH 65 67
ENDBRANCH 43 65
ENDBRANCH 40 43
ENDBRANCH 37 39
ENDBRANCH 3 37
TORSDOF 25
ENDMDL
MODEL 6
USER: ADFR SOLUTION from run 200
USER: SCORE 18.122536 LL:  -3.509 LR: -16.726 RR:   0.000 FEB:  -9.268
USER: RMSD 1.784693
USER: SEED 199
USER: STATUS searching
USER: GENES 27
USER: genes 0 Translation |==|  0.48484 0.53118 0.50083
USER: genes 1 Rotation |==|  0.50215 0.45521 0.52858 0.99716
USER: genes 2 Torsion [N]-C--CA-[N] |==|  0.35607
USER: genes 3 Torsion [C]-CA--CB-[CG] |==|  0.57983
USER: genes 4 Torsion [CA]-CB--CG-[CD] |==|  0.65776
USER: genes 5 Torsion [CB]-CG--CD-[NE2] |==|  0.10128
USER: genes 6 Torsion [C]-CA--N-[C] |==|  0.84004
USER: genes 7 Torsion [N]-C--CA-[N] |==|  0.32495
USER: genes 8 Torsion [C]-CA--N-[C] |==|  0.75712
USER: genes 9 Torsion [N]-C--CA-[N] |==|  0.21720
USER: genes 10 Torsion [C]-CA--CB-[CG] |==|  0.46389
USER: genes 11 Torsion [CA]-CB--CG-[CD] |==|  0.22572
USER: genes 12 Torsion [CB]-CG--CD-[NE2] |==|  0.11842
USER: genes 13 Torsion [C]-N--CA-[CB] |==|  0.47951
USER: genes 14 Torsion [N]-CA--C-[N] |==|  0.35612
USER: genes 15 Torsion [C]-N--CA-[CB] |==|  0.52359
USER: genes 16 Torsion [N]-CA--C-[N] |==|  0.88871
USER: genes 17 Torsion [C]-N--CA-[C] |==|  0.63816
USER: genes 18 Torsion [N]-CA--C-[N] |==|  0.42248
USER: genes 19 Torsion [C]-N--CA-[C] |==|  0.59832
USER: genes 20 Torsion [N]-CA--C-[O] |==|  0.92741
USER: genes 21 Torsion [N]-CA--CB-[CG] |==|  0.76774
USER: genes 22 Torsion [CA]-CB--CG-[OD2] |==|  0.28705
USER: genes 23 Torsion [N]-CA--CB-[CG] |==|  0.25494
USER: genes 24 Torsion [CA]-CB--CG-[OD2] |==|  0.27961
USER: genes 25 Torsion [N]-CA--CB-[OG1] |==|  0.90910
USER: genes 26 Torsion [CA]-CB--OG1-[HG1] |==|  0.15122
ROOT
ATOM      1  C   GLN D 206     -21.991  12.476  28.489  1.00 23.02 LIG 0.24  C 
ATOM      2 O    GLN D 206     -22.748  13.408  28.757  1.00 23.21 LIG-0.27  OA
ATOM      3  N   ALA D 207     -21.372  12.350  27.317  1.00 22.72 LIG-0.35  N 
ATOM      4 H    ALA D 207     -20.817  11.718  27.136  1.00 22.72 LIG 0.16  HD
ENDROOT
BRANCH 1 5
ATOM      5  CA  GLN D 206     -21.699  11.388  29.509  1.00 22.90 LIG 0.18  C 
BRANCH 5 6
ATOM      6  CB  GLN D 206     -22.942  10.501  29.658  1.00 23.00 LIG 0.04  C 
BRANCH 6 7
ATOM      7  CG  GLN D 206     -23.106   9.845  31.030  1.00 22.87 LIG 0.10  C 
BRANCH 7 8
ATOM      8  CD  GLN D 206     -23.198   8.332  30.932  1.00 23.72 LIG 0.21  C 
ATOM      9  NE2 GLN D 206     -22.445   7.745  30.004  1.00 23.17 LIG-0.37  N 
ATOM     10 21HE GLN D 206     -21.942   8.222  29.495  1.00 23.17 LIG 0.16  HD
ATOM     11 22HE GLN D 206     -22.462   6.890  29.914  1.00 23.17 LIG 0.16  HD
ATOM     12 OE1  GLN D 206     -23.934   7.699  31.685  1.00 23.11 LIG-0.27  OA
ENDBRANCH 7 8
ENDBRANCH 6 7
ENDBRANCH 5 6
BRANCH 5 13
ATOM     13  N   GLN D 206     -21.280  11.890  30.811  1.00 22.83 LIG-0.35  N 
ATOM     14 H    GLN D 206     -21.774  11.634  31.465  1.00 22.83 LIG 0.16  HD
ATOM     15  C   GLN D 205     -20.218  12.677  30.947  1.00 23.49 LIG 0.24  C 
ATOM     16 O    GLN D 205     -19.534  13.061  29.996  1.00 22.46 LIG-0.27  OA
BRANCH 15 17
ATOM     17  CA  GLN D 205     -19.874  13.099  32.365  1.00 24.37 LIG 0.18  C 
BRANCH 17 18
ATOM     18  N   GLN D 205     -18.561  12.556  32.682  1.00 25.17 LIG-0.35  N 
ATOM     19 H    GLN D 205     -17.911  13.093  32.515  1.00 25.17 LIG 0.16  HD
ATOM     20  C   PRO D 204     -18.393  11.338  33.185  1.00 27.23 LIG 0.24  C 
ATOM     21 O    PRO D 204     -19.326  10.581  33.441  1.00 27.18 LIG-0.27  OA
BRANCH 20 22
ATOM     22  CA  PRO D 204     -16.950  10.897  33.420  1.00 28.49 LIG 0.18  C 
ATOM     23  N   PRO D 204     -16.405  11.495  34.642  1.00 30.00 LIG-0.34  N 
ATOM     24  CD  PRO D 204     -16.500  10.524  35.737  1.00 30.13 LIG 0.13  C 
ATOM     25  C   ACE D 203     -15.876  12.726  34.706  1.00 30.58 LIG 0.22  C 
ATOM     26  CG  PRO D 204     -16.070   9.296  35.025  1.00 30.43 LIG 0.02  C 
ATOM     27  CB  PRO D 204     -16.892   9.394  33.721  1.00 28.78 LIG 0.04  C 
ATOM     28  CH3 ACE D 203     -15.355  13.204  36.047  1.00 31.20 LIG 0.12  C 
ATOM     29 O    ACE D 203     -15.802  13.452  33.716  1.00 31.12 LIG-0.27  OA
ENDBRANCH 20 22
ENDBRANCH 17 18
BRANCH 17 30
ATOM     30  CB  GLN D 205     -19.874  14.623  32.472  1.00 24.72 LIG 0.04  C 
BRANCH 30 31
ATOM     31  CG  GLN D 205     -19.852  15.120  33.900  1.00 27.03 LIG 0.10  C 
BRANCH 31 32
ATOM     32  CD  GLN D 205     -18.463  15.113  34.498  1.00 28.11 LIG 0.21  C 
ATOM     33  NE2 GLN D 205     -17.484  15.549  33.716  1.00 29.45 LIG-0.37  N 
ATOM     34 21HE GLN D 205     -17.659  15.822  32.919  1.00 29.45 LIG 0.16  HD
ATOM     35 22HE GLN D 205     -16.674  15.559  34.006  1.00 29.45 LIG 0.16  HD
ATOM     36 OE1  GLN D 205     -18.269  14.714  35.645  1.00 29.17 LIG-0.27  OA
ENDBRANCH 31 32
ENDBRANCH 30 31
ENDBRANCH 17 30
ENDBRANCH 15 17
ENDBRANCH 5 13
ENDBRANCH 1 5
BRANCH 3 37
ATOM     37  CA  ALA D 207     -21.586  13.288  26.223  1.00 22.93 LIG 0.17  C 
ATOM     38  CB  ALA D 207     -20.618  12.992  25.096  1.00 22.72 LIG 0.04  C 
BRANCH 37 39
ATOM     39  C   ALA D 207     -23.033  13.070  25.761  1.00 23.32 LIG 0.24  C 
ATOM     40  N   THR D 208     -23.825  14.134  25.671  1.00 24.11 LIG-0.34  N 
ATOM     41 H    THR D 208     -23.578  14.942  25.832  1.00 24.11 LIG 0.16  HD
ATOM     42 O    ALA D 207     -23.421  11.938  25.477  1.00 22.54 LIG-0.27  OA
BRANCH 40 43
ATOM     43  CA  THR D 208     -25.223  13.980  25.276  1.00 25.74 LIG 0.20  C 
BRANCH 43 44
ATOM     44  C   THR D 208     -25.532  13.117  24.053  1.00 27.84 LIG 0.24  C 
ATOM     45  N   ASP D 209     -24.727  13.207  23.000  1.00 27.84 LIG-0.34  N 
ATOM     46 H    ASP D 209     -24.023  13.698  22.956  1.00 27.84 LIG 0.16  HD
ATOM     47 O    THR D 208     -26.505  12.362  24.069  1.00 27.83 LIG-0.27  OA
BRANCH 45 48
ATOM     48  CA  ASP D 209     -25.024  12.425  21.803  1.00 29.52 LIG 0.19  C 
BRANCH 48 49
ATOM     49  C   ASP D 209     -23.906  11.592  21.185  1.00 30.14 LIG 0.24  C 
ATOM     50 O    ASP D 209     -22.740  11.950  21.330  1.00 31.34 LIG-0.27  OA
ATOM     51  N   ASP D 210     -24.233  10.499  20.506  1.00 30.20 LIG-0.34  N 
ATOM     52 H    ASP D 210     -25.038  10.222  20.384  1.00 30.20 LIG 0.16  HD
BRANCH 51 53
ATOM     53  CA  ASP D 210     -23.195   9.665  19.898  1.00 30.95 LIG 0.20  C 
BRANCH 53 54
ATOM     54  C   ASP D 210     -23.612   9.046  18.562  1.00 31.44 LIG 0.20  C 
ATOM     55 O    ASP D 210     -24.827   8.860  18.350  1.00 30.73 LIG-0.65  OA
ATOM     56 OXT  ASP D 210     -22.717   8.761  17.738  1.00 31.53 LIG-0.65  OA
ENDBRANCH 53 54
BRANCH 53 57
ATOM     57  CB  ASP D 210     -22.765   8.561  20.871  1.00 31.88 LIG 0.15  C 
BRANCH 57 58
ATOM     58  CG  ASP D 210     -21.727   9.027  21.866  1.00 32.06 LIG 0.17  C 
ATOM     59 OD2  ASP D 210     -22.070   9.277  23.042  1.00 32.64 LIG-0.65  OA
ATOM     60 OD1  ASP D 210     -20.556   9.151  21.459  1.00 34.58 LIG-0.65  OA
ENDBRANCH 57 58
ENDBRANCH 53 57
ENDBRANCH 51 53
ENDBRANCH 48 49
BRANCH 48 61
ATOM     61  CB  ASP D 209     -25.572  13.341  20.708  1.00 29.28 LIG 0.15  C 
BRANCH 61 62
ATOM     62  CG  ASP D 209     -24.484  13.873  19.802  1.00 30.36 LIG 0.17  C 
ATOM     63 OD2  ASP D 209     -24.320  13.334  18.689  1.00 30.91 LIG-0.65  OA
ATOM     64 OD1  ASP D 209     -23.774  14.815  20.216  1.00 31.75 LIG-0.65  OA
ENDBRANCH 61 62
ENDBRANCH 48 61
ENDBRANCH 45 48
ENDBRANCH 43 44
BRANCH 43 65
ATOM     65  CB  THR D 208     -25.898  15.350  25.032  1.00 25.82 LIG 0.15  C 
ATOM     66  CG2 THR D 208     -27.399  15.261  25.272  1.00 25.57 LIG 0.04  C 
BRANCH 65 67
ATOM     67 OG1  THR D 208     -25.337  16.327  25.915  1.00 26.97 LIG-0.39  OA
ATOM     68 HG1  THR D 208     -24.503  16.339  25.825  1.00 26.97 LIG 0.21  HD
ENDBRANCH 65 67
ENDBRANCH 43 65
ENDBRANCH 40 43
ENDBRANCH 37 39
ENDBRANCH 3 37
TORSDOF 25
ENDMDL
MODEL 7
USER: ADFR SOLUTION from run 125
USER: SCORE 18.412378 LL:  -3.356 LR: -16.574 RR:   0.000 FEB:  -9.116
USER: RMSD 4.520166
USER: SEED 124
USER: STATUS no improvement in best in 3 clusters for 5 generations
USER: GENES 27
USER: genes 0 Translation |==|  0.55606 0.56761 0.57380
USER: genes 1 Rotation |==|  0.34636 0.42684 0.03757 0.58488
USER: genes 2 Torsion [N]-C--CA-[N] |==|  0.48888
USER: genes 3 Torsion [C]-CA--CB-[CG] |==|  0.25724
USER: genes 4 Torsion [CA]-CB--CG-[CD] |==|  0.48387
USER: genes 5 Torsion [CB]-CG--CD-[NE2] |==|  0.22909
USER: genes 6 Torsion [C]-CA--N-[C] |==|  0.60713
USER: genes 7 Torsion [N]-C--CA-[N] |==|  0.89378
USER: genes 8 Torsion [C]-CA--N-[C] |==|  0.77820
USER: genes 9 Torsion [N]-C--CA-[N] |==|  0.44530
USER: genes 10 Torsion [C]-CA--CB-[CG] |==|  0.53043
USER: genes 11 Torsion [CA]-CB--CG-[CD] |==|  0.41522
USER: genes 12 Torsion [CB]-CG--CD-[NE2] |==|  0.57227
USER: genes 13 Torsion [C]-N--CA-[CB] |==|  0.27220
USER: genes 14 Torsion [N]-CA--C-[N] |==|  0.80556
USER: genes 15 Torsion [C]-N--CA-[CB] |==|  0.82323
USER: genes 16 Torsion [N]-CA--C-[N] |==|  0.38488
USER: genes 17 Torsion [C]-N--CA-[C] |==|  0.83408
USER: genes 18 Torsion [N]-CA--C-[N] |==|  0.40101
USER: genes 19 Torsion [C]-N--CA-[C] |==|  0.74116
USER: genes 20 Torsion [N]-CA--C-[O] |==|  0.98297
USER: genes 21 Torsion [N]-CA--CB-[CG] |==|  0.75026
USER: genes 22 Torsion [CA]-CB--CG-[OD2] |==|  0.11057
USER: genes 23 Torsion [N]-CA--CB-[CG] |==|  0.79430
USER: genes 24 Torsion [CA]-CB--CG-[OD2] |==|  0.52311
USER: genes 25 Torsion [N]-CA--CB-[OG1] |==|  0.93326
USER: genes 26 Torsion [CA]-CB--OG1-[HG1] |==|  0.45327
ROOT
ATOM      1  C   GLN D 206     -20.602  13.186  30.459  1.00 23.02 LIG 0.24  C 
ATOM      2 O    GLN D 206     -19.553  12.550  30.557  1.00 23.21 LIG-0.27  OA
ATOM      3  N   ALA D 207     -21.621  12.803  29.694  1.00 22.72 LIG-0.35  N 
ATOM      4 H    ALA D 207     -22.368  13.227  29.646  1.00 22.72 LIG 0.16  HD
ENDROOT
BRANCH 1 5
ATOM      5  CA  GLN D 206     -20.808  14.478  31.234  1.00 22.90 LIG 0.18  C 
BRANCH 5 6
ATOM      6  CB  GLN D 206     -21.053  15.620  30.238  1.00 23.00 LIG 0.04  C 
BRANCH 6 7
ATOM      7  CG  GLN D 206     -22.523  15.892  29.918  1.00 22.87 LIG 0.10  C 
BRANCH 7 8
ATOM      8  CD  GLN D 206     -22.700  17.120  29.041  1.00 23.72 LIG 0.21  C 
ATOM      9  NE2 GLN D 206     -22.531  16.948  27.731  1.00 23.17 LIG-0.37  N 
ATOM     10 21HE GLN D 206     -22.329  16.171  27.422  1.00 23.17 LIG 0.16  HD
ATOM     11 22HE GLN D 206     -22.623  17.614  27.195  1.00 23.17 LIG 0.16  HD
ATOM     12 OE1  GLN D 206     -22.989  18.207  29.534  1.00 23.11 LIG-0.27  OA
ENDBRANCH 7 8
ENDBRANCH 6 7
ENDBRANCH 5 6
BRANCH 5 13
ATOM     13  N   GLN D 206     -19.710  14.816  32.128  1.00 22.83 LIG-0.35  N 
ATOM     14 H    GLN D 206     -18.929  14.643  31.813  1.00 22.83 LIG 0.16  HD
ATOM     15  C   GLN D 205     -19.924  15.348  33.327  1.00 23.49 LIG 0.24  C 
ATOM     16 O    GLN D 205     -21.050  15.565  33.779  1.00 22.46 LIG-0.27  OA
BRANCH 15 17
ATOM     17  CA  GLN D 205     -18.688  15.684  34.142  1.00 24.37 LIG 0.18  C 
BRANCH 17 18
ATOM     18  N   GLN D 205     -17.710  14.628  33.918  1.00 25.17 LIG-0.35  N 
ATOM     19 H    GLN D 205     -17.099  14.834  33.349  1.00 25.17 LIG 0.16  HD
ATOM     20  C   PRO D 204     -17.767  13.456  34.540  1.00 27.23 LIG 0.24  C 
ATOM     21 O    PRO D 204     -18.631  13.173  35.366  1.00 27.18 LIG-0.27  OA
BRANCH 20 22
ATOM     22  CA  PRO D 204     -16.694  12.437  34.161  1.00 28.49 LIG 0.18  C 
ATOM     23  N   PRO D 204     -16.555  11.405  35.192  1.00 30.00 LIG-0.34  N 
ATOM     24  CD  PRO D 204     -17.314  10.217  34.790  1.00 30.13 LIG 0.13  C 
ATOM     25  C   ACE D 203     -15.812  11.543  36.300  1.00 30.58 LIG 0.22  C 
ATOM     26  CG  PRO D 204     -16.951  10.159  33.352  1.00 30.43 LIG 0.02  C 
ATOM     27  CB  PRO D 204     -17.131  11.633  32.930  1.00 28.78 LIG 0.04  C 
ATOM     28  CH3 ACE D 203     -15.770  10.383  37.275  1.00 31.20 LIG 0.12  C 
ATOM     29 O    ACE D 203     -15.173  12.570  36.528  1.00 31.12 LIG-0.27  OA
ENDBRANCH 20 22
ENDBRANCH 17 18
BRANCH 17 30
ATOM     30  CB  GLN D 205     -18.132  17.041  33.716  1.00 24.72 LIG 0.04  C 
BRANCH 30 31
ATOM     31  CG  GLN D 205     -16.762  17.331  34.287  1.00 27.03 LIG 0.10  C 
BRANCH 31 32
ATOM     32  CD  GLN D 205     -15.926  18.205  33.380  1.00 28.11 LIG 0.21  C 
ATOM     33  NE2 GLN D 205     -14.610  18.084  33.496  1.00 29.45 LIG-0.37  N 
ATOM     34 21HE GLN D 205     -14.278  17.525  34.060  1.00 29.45 LIG 0.16  HD
ATOM     35 22HE GLN D 205     -14.089  18.564  33.008  1.00 29.45 LIG 0.16  HD
ATOM     36 OE1  GLN D 205     -16.453  18.987  32.591  1.00 29.17 LIG-0.27  OA
ENDBRANCH 31 32
ENDBRANCH 30 31
ENDBRANCH 17 30
ENDBRANCH 15 17
ENDBRANCH 5 13
ENDBRANCH 1 5
BRANCH 3 37
ATOM     37  CA  ALA D 207     -21.556  11.612  28.857  1.00 22.93 LIG 0.17  C 
ATOM     38  CB  ALA D 207     -22.226  10.451  29.563  1.00 22.72 LIG 0.04  C 
BRANCH 37 39
ATOM     39  C   ALA D 207     -22.309  11.964  27.567  1.00 23.32 LIG 0.24  C 
ATOM     40  N   THR D 208     -23.629  12.109  27.637  1.00 24.11 LIG-0.34  N 
ATOM     41 H    THR D 208     -24.091  12.042  28.359  1.00 24.11 LIG 0.16  HD
ATOM     42 O    ALA D 207     -21.688  12.115  26.517  1.00 22.54 LIG-0.27  OA
BRANCH 40 43
ATOM     43  CA  THR D 208     -24.402  12.403  26.432  1.00 25.74 LIG 0.20  C 
BRANCH 43 44
ATOM     44  C   THR D 208     -24.353  11.395  25.285  1.00 27.84 LIG 0.24  C 
ATOM     45  N   ASP D 209     -25.482  11.116  24.643  1.00 27.84 LIG-0.34  N 
ATOM     46 H    ASP D 209     -26.245  11.477  24.805  1.00 27.84 LIG 0.16  HD
ATOM     47 O    THR D 208     -23.280  10.872  24.977  1.00 27.83 LIG-0.27  OA
BRANCH 45 48
ATOM     48  CA  ASP D 209     -25.470  10.123  23.571  1.00 29.52 LIG 0.19  C 
BRANCH 48 49
ATOM     49  C   ASP D 209     -24.571  10.370  22.365  1.00 30.14 LIG 0.24  C 
ATOM     50 O    ASP D 209     -24.412  11.518  21.959  1.00 31.34 LIG-0.27  OA
ATOM     51  N   ASP D 210     -23.984   9.327  21.790  1.00 30.20 LIG-0.34  N 
ATOM     52 H    ASP D 210     -24.075   8.511  22.047  1.00 30.20 LIG 0.16  HD
BRANCH 51 53
ATOM     53  CA  ASP D 210     -23.108   9.514  20.631  1.00 30.95 LIG 0.20  C 
BRANCH 53 54
ATOM     54  C   ASP D 210     -23.830   9.368  19.290  1.00 31.44 LIG 0.20  C 
ATOM     55 O    ASP D 210     -25.022   8.999  19.296  1.00 30.73 LIG-0.65  OA
ATOM     56 OXT  ASP D 210     -23.195   9.631  18.246  1.00 31.53 LIG-0.65  OA
ENDBRANCH 53 54
BRANCH 53 57
ATOM     57  CB  ASP D 210     -21.928   8.537  20.696  1.00 31.88 LIG 0.15  C 
BRANCH 57 58
ATOM     58  CG  ASP D 210     -20.737   9.104  21.434  1.00 32.06 LIG 0.17  C 
ATOM     59 OD2  ASP D 210     -20.921   9.786  22.466  1.00 32.64 LIG-0.65  OA
ATOM     60 OD1  ASP D 210     -19.607   8.868  20.967  1.00 34.58 LIG-0.65  OA
ENDBRANCH 57 58
ENDBRANCH 53 57
ENDBRANCH 51 53
ENDBRANCH 48 49
BRANCH 48 61
ATOM     61  CB  ASP D 209     -26.891   9.908  23.048  1.00 29.28 LIG 0.15  C 
BRANCH 61 62
ATOM     62  CG  ASP D 209     -27.744   9.106  24.006  1.00 30.36 LIG 0.17  C 
ATOM     63 OD2  ASP D 209     -28.871   8.729  23.627  1.00 30.91 LIG-0.65  OA
ATOM     64 OD1  ASP D 209     -27.296   8.878  25.151  1.00 31.75 LIG-0.65  OA
ENDBRANCH 61 62
ENDBRANCH 48 61
ENDBRANCH 45 48
ENDBRANCH 43 44
BRANCH 43 65
ATOM     65  CB  THR D 208     -24.016  13.775  25.831  1.00 25.82 LIG 0.15  C 
ATOM     66  CG2 THR D 208     -25.234  14.462  25.232  1.00 25.57 LIG 0.04  C 
BRANCH 65 67
ATOM     67 OG1  THR D 208     -23.459  14.609  26.853  1.00 26.97 LIG-0.39  OA
ATOM     68 HG1  THR D 208     -23.046  15.248  26.498  1.00 26.97 LIG 0.21  HD
ENDBRANCH 65 67
ENDBRANCH 43 65
ENDBRANCH 40 43
ENDBRANCH 37 39
ENDBRANCH 3 37
TORSDOF 25
ENDMDL
MODEL 8
USER: ADFR SOLUTION from run 6
USER: SCORE 17.569037 LL:  -4.129 LR: -16.364 RR:   0.000 FEB:  -8.907
USER: RMSD 5.585996
USER: SEED 358877
USER: STATUS no improvement in best in 2 clusters for 5 generations
USER: GENES 27
USER: genes 0 Translation |==|  0.48241 0.55620 0.44383
USER: genes 1 Rotation |==|  0.45433 0.40280 0.57576 0.98242
USER: genes 2 Torsion [N]-C--CA-[N] |==|  0.37738
USER: genes 3 Torsion [C]-CA--CB-[CG] |==|  0.56094
USER: genes 4 Torsion [CA]-CB--CG-[CD] |==|  0.82534
USER: genes 5 Torsion [CB]-CG--CD-[NE2] |==|  0.75128
USER: genes 6 Torsion [C]-CA--N-[C] |==|  0.71423
USER: genes 7 Torsion [N]-C--CA-[N] |==|  0.86663
USER: genes 8 Torsion [C]-CA--N-[C] |==|  0.60556
USER: genes 9 Torsion [N]-C--CA-[N] |==|  0.96375
USER: genes 10 Torsion [C]-CA--CB-[CG] |==|  0.23488
USER: genes 11 Torsion [CA]-CB--CG-[CD] |==|  0.02710
USER: genes 12 Torsion [CB]-CG--CD-[NE2] |==|  0.70915
USER: genes 13 Torsion [C]-N--CA-[CB] |==|  0.49101
USER: genes 14 Torsion [N]-CA--C-[N] |==|  0.43488
USER: genes 15 Torsion [C]-N--CA-[CB] |==|  0.55589
USER: genes 16 Torsion [N]-CA--C-[N] |==|  0.84413
USER: genes 17 Torsion [C]-N--CA-[C] |==|  0.62431
USER: genes 18 Torsion [N]-CA--C-[N] |==|  0.69024
USER: genes 19 Torsion [C]-N--CA-[C] |==|  0.81119
USER: genes 20 Torsion [N]-CA--C-[O] |==|  0.49169
USER: genes 21 Torsion [N]-CA--CB-[CG] |==|  0.76421
USER: genes 22 Torsion [CA]-CB--CG-[OD2] |==|  0.08194
USER: genes 23 Torsion [N]-CA--CB-[CG] |==|  0.11895
USER: genes 24 Torsion [CA]-CB--CG-[OD2] |==|  0.30014
USER: genes 25 Torsion [N]-CA--CB-[OG1] |==|  0.91719
USER: genes 26 Torsion [CA]-CB--OG1-[HG1] |==|  0.88753
ROOT
ATOM      1  C   GLN D 206     -22.038  12.964  26.949  1.00 23.02 LIG 0.24  C 
ATOM      2 O    GLN D 206     -22.967  13.765  26.853  1.00 23.21 LIG-0.27  OA
ATOM      3  N   ALA D 207     -21.146  12.759  25.984  1.00 22.72 LIG-0.35  N 
ATOM      4 H    ALA D 207     -20.476  12.224  26.058  1.00 22.72 LIG 0.16  HD
ENDROOT
BRANCH 1 5
ATOM      5  CA  GLN D 206     -21.840  12.145  28.215  1.00 22.90 LIG 0.18  C 
BRANCH 5 6
ATOM      6  CB  GLN D 206     -22.813  10.958  28.194  1.00 23.00 LIG 0.04  C 
BRANCH 6 7
ATOM      7  CG  GLN D 206     -23.123  10.355  29.565  1.00 22.87 LIG 0.10  C 
BRANCH 7 8
ATOM      8  CD  GLN D 206     -21.886   9.771  30.225  1.00 23.72 LIG 0.21  C 
ATOM      9  NE2 GLN D 206     -21.616   8.493  29.965  1.00 23.17 LIG-0.37  N 
ATOM     10 21HE GLN D 206     -22.134   8.041  29.448  1.00 23.17 LIG 0.16  HD
ATOM     11 22HE GLN D 206     -20.924   8.120  30.313  1.00 23.17 LIG 0.16  HD
ATOM     12 OE1  GLN D 206     -21.179  10.461  30.955  1.00 23.11 LIG-0.27  OA
ENDBRANCH 7 8
ENDBRANCH 6 7
ENDBRANCH 5 6
BRANCH 5 13
ATOM     13  N   GLN D 206     -21.999  12.906  29.446  1.00 22.83 LIG-0.35  N 
ATOM     14 H    GLN D 206     -22.816  13.066  29.661  1.00 22.83 LIG 0.16  HD
ATOM     15  C   GLN D 205     -20.952  13.306  30.161  1.00 23.49 LIG 0.24  C 
ATOM     16 O    GLN D 205     -19.785  13.093  29.827  1.00 22.46 LIG-0.27  OA
BRANCH 15 17
ATOM     17  CA  GLN D 205     -21.263  14.060  31.441  1.00 24.37 LIG 0.18  C 
BRANCH 17 18
ATOM     18  N   GLN D 205     -22.247  15.086  31.122  1.00 25.17 LIG-0.35  N 
ATOM     19 H    GLN D 205     -22.840  14.835  30.552  1.00 25.17 LIG 0.16  HD
ATOM     20  C   PRO D 204     -22.222  16.296  31.669  1.00 27.23 LIG 0.24  C 
ATOM     21 O    PRO D 204     -21.385  16.644  32.497  1.00 27.18 LIG-0.27  OA
BRANCH 20 22
ATOM     22  CA  PRO D 204     -23.296  17.273  31.195  1.00 28.49 LIG 0.18  C 
ATOM     23  N   PRO D 204     -23.971  16.777  29.992  1.00 30.00 LIG-0.34  N 
ATOM     24  CD  PRO D 204     -25.233  16.138  30.376  1.00 30.13 LIG 0.13  C 
ATOM     25  C   ACE D 203     -23.499  16.935  28.746  1.00 30.58 LIG 0.22  C 
ATOM     26  CG  PRO D 204     -25.715  17.113  31.385  1.00 30.43 LIG 0.02  C 
ATOM     27  CB  PRO D 204     -24.437  17.351  32.218  1.00 28.78 LIG 0.04  C 
ATOM     28  CH3 ACE D 203     -24.313  16.362  27.603  1.00 31.20 LIG 0.12  C 
ATOM     29 O    ACE D 203     -22.445  17.528  28.522  1.00 31.12 LIG-0.27  OA
ENDBRANCH 20 22
ENDBRANCH 17 18
BRANCH 17 30
ATOM     30  CB  GLN D 205     -21.801  13.098  32.498  1.00 24.72 LIG 0.04  C 
BRANCH 30 31
ATOM     31  CG  GLN D 205     -20.711  12.394  33.274  1.00 27.03 LIG 0.10  C 
BRANCH 31 32
ATOM     32  CD  GLN D 205     -19.338  12.965  32.999  1.00 28.11 LIG 0.21  C 
ATOM     33  NE2 GLN D 205     -18.547  12.243  32.217  1.00 29.45 LIG-0.37  N 
ATOM     34 21HE GLN D 205     -18.828  11.498  31.891  1.00 29.45 LIG 0.16  HD
ATOM     35 22HE GLN D 205     -17.753  12.521  32.035  1.00 29.45 LIG 0.16  HD
ATOM     36 OE1  GLN D 205     -18.988  14.037  33.491  1.00 29.17 LIG-0.27  OA
ENDBRANCH 31 32
ENDBRANCH 30 31
ENDBRANCH 17 30
ENDBRANCH 15 17
ENDBRANCH 5 13
ENDBRANCH 1 5
BRANCH 3 37
ATOM     37  CA  ALA D 207     -21.229  13.435  24.696  1.00 22.93 LIG 0.17  C 
ATOM     38  CB  ALA D 207     -20.036  13.061  23.840  1.00 22.72 LIG 0.04  C 
BRANCH 37 39
ATOM     39  C   ALA D 207     -22.531  12.945  24.048  1.00 23.32 LIG 0.24  C 
ATOM     40  N   THR D 208     -23.096  13.717  23.125  1.00 24.11 LIG-0.34  N 
ATOM     41 H    THR D 208     -22.771  14.463  22.846  1.00 24.11 LIG 0.16  HD
ATOM     42 O    ALA D 207     -23.011  11.863  24.381  1.00 22.54 LIG-0.27  OA
BRANCH 40 43
ATOM     43  CA  THR D 208     -24.358  13.320  22.505  1.00 25.74 LIG 0.20  C 
BRANCH 43 44
ATOM     44  C   THR D 208     -24.590  11.833  22.242  1.00 27.84 LIG 0.24  C 
ATOM     45  N   ASP D 209     -23.699  11.176  21.508  1.00 27.84 LIG-0.34  N 
ATOM     46 H    ASP D 209     -22.978  11.516  21.183  1.00 27.84 LIG 0.16  HD
ATOM     47 O    THR D 208     -25.584  11.278  22.713  1.00 27.83 LIG-0.27  OA
BRANCH 45 48
ATOM     48  CA  ASP D 209     -23.920   9.764  21.205  1.00 29.52 LIG 0.19  C 
BRANCH 48 49
ATOM     49  C   ASP D 209     -22.746   8.801  21.347  1.00 30.14 LIG 0.24  C 
ATOM     50 O    ASP D 209     -22.303   8.554  22.466  1.00 31.34 LIG-0.27  OA
ATOM     51  N   ASP D 210     -22.238   8.257  20.247  1.00 30.20 LIG-0.34  N 
ATOM     52 H    ASP D 210     -22.523   8.409  19.450  1.00 30.20 LIG 0.16  HD
BRANCH 51 53
ATOM     53  CA  ASP D 210     -21.114   7.323  20.332  1.00 30.95 LIG 0.20  C 
BRANCH 53 54
ATOM     54  C   ASP D 210     -19.808   7.980  20.784  1.00 31.44 LIG 0.20  C 
ATOM     55 O    ASP D 210     -18.805   7.255  20.942  1.00 30.73 LIG-0.65  OA
ATOM     56 OXT  ASP D 210     -19.800   9.215  20.969  1.00 31.53 LIG-0.65  OA
ENDBRANCH 53 54
BRANCH 53 57
ATOM     57  CB  ASP D 210     -20.905   6.621  18.985  1.00 31.88 LIG 0.15  C 
BRANCH 57 58
ATOM     58  CG  ASP D 210     -21.787   5.406  18.813  1.00 32.06 LIG 0.17  C 
ATOM     59 OD2  ASP D 210     -22.901   5.370  19.382  1.00 32.64 LIG-0.65  OA
ATOM     60 OD1  ASP D 210     -21.354   4.477  18.106  1.00 34.58 LIG-0.65  OA
ENDBRANCH 57 58
ENDBRANCH 53 57
ENDBRANCH 51 53
ENDBRANCH 48 49
BRANCH 48 61
ATOM     61  CB  ASP D 209     -24.465   9.617  19.785  1.00 29.28 LIG 0.15  C 
BRANCH 61 62
ATOM     62  CG  ASP D 209     -23.751  10.512  18.796  1.00 30.36 LIG 0.17  C 
ATOM     63 OD2  ASP D 209     -22.977   9.988  17.970  1.00 30.91 LIG-0.65  OA
ATOM     64 OD1  ASP D 209     -23.945  11.746  18.864  1.00 31.75 LIG-0.65  OA
ENDBRANCH 61 62
ENDBRANCH 48 61
ENDBRANCH 45 48
ENDBRANCH 43 44
BRANCH 43 65
ATOM     65  CB  THR D 208     -24.583  14.047  21.158  1.00 25.82 LIG 0.15  C 
ATOM     66  CG2 THR D 208     -26.069  14.232  20.888  1.00 25.57 LIG 0.04  C 
BRANCH 65 67
ATOM     67 OG1  THR D 208     -23.947  15.330  21.192  1.00 26.97 LIG-0.39  OA
ATOM     68 HG1  THR D 208     -24.067  15.681  21.945  1.00 26.97 LIG 0.21  HD
ENDBRANCH 65 67
ENDBRANCH 43 65
ENDBRANCH 40 43
ENDBRANCH 37 39
ENDBRANCH 3 37
TORSDOF 25
ENDMDL
MODEL 9
USER: ADFR SOLUTION from run 193
USER: SCORE 15.574757 LL:  -3.364 LR: -16.294 RR:   0.000 FEB:  -8.837
USER: RMSD 4.286972
USER: SEED 192
USER: STATUS no improvement in best in 4 clusters for 5 generations
USER: GENES 27
USER: genes 0 Translation |==|  0.47322 0.56666 0.45606
USER: genes 1 Rotation |==|  0.43614 0.34829 0.96372 0.58869
USER: genes 2 Torsion [N]-C--CA-[N] |==|  0.53452
USER: genes 3 Torsion [C]-CA--CB-[CG] |==|  0.39950
USER: genes 4 Torsion [CA]-CB--CG-[CD] |==|  0.69726
USER: genes 5 Torsion [CB]-CG--CD-[NE2] |==|  0.04112
USER: genes 6 Torsion [C]-CA--N-[C] |==|  0.19168
USER: genes 7 Torsion [N]-C--CA-[N] |==|  0.63112
USER: genes 8 Torsion [C]-CA--N-[C] |==|  0.54444
USER: genes 9 Torsion [N]-C--CA-[N] |==|  0.66460
USER: genes 10 Torsion [C]-CA--CB-[CG] |==|  0.27895
USER: genes 11 Torsion [CA]-CB--CG-[CD] |==|  0.00207
USER: genes 12 Torsion [CB]-CG--CD-[NE2] |==|  0.22456
USER: genes 13 Torsion [C]-N--CA-[CB] |==|  0.88172
USER: genes 14 Torsion [N]-CA--C-[N] |==|  0.38138
USER: genes 15 Torsion [C]-N--CA-[CB] |==|  0.34001
USER: genes 16 Torsion [N]-CA--C-[N] |==|  0.45471
USER: genes 17 Torsion [C]-N--CA-[C] |==|  0.13836
USER: genes 18 Torsion [N]-CA--C-[N] |==|  0.14965
USER: genes 19 Torsion [C]-N--CA-[C] |==|  0.68553
USER: genes 20 Torsion [N]-CA--C-[O] |==|  0.43094
USER: genes 21 Torsion [N]-CA--CB-[CG] |==|  0.76585
USER: genes 22 Torsion [CA]-CB--CG-[OD2] |==|  0.82168
USER: genes 23 Torsion [N]-CA--CB-[CG] |==|  0.85202
USER: genes 24 Torsion [CA]-CB--CG-[OD2] |==|  0.18169
USER: genes 25 Torsion [N]-CA--CB-[OG1] |==|  0.10431
USER: genes 26 Torsion [CA]-CB--OG1-[HG1] |==|  0.75292
ROOT
ATOM      1  C   GLN D 206     -22.217  13.168  27.280  1.00 23.02 LIG 0.24  C 
ATOM      2 O    GLN D 206     -22.072  11.970  27.039  1.00 23.21 LIG-0.27  OA
ATOM      3  N   ALA D 207     -22.079  14.121  26.362  1.00 22.72 LIG-0.35  N 
ATOM      4 H    ALA D 207     -22.211  14.957  26.517  1.00 22.72 LIG 0.16  HD
ENDROOT
BRANCH 1 5
ATOM      5  CA  GLN D 206     -22.584  13.645  28.676  1.00 22.90 LIG 0.18  C 
BRANCH 5 6
ATOM      6  CB  GLN D 206     -21.725  14.869  29.023  1.00 23.00 LIG 0.04  C 
BRANCH 6 7
ATOM      7  CG  GLN D 206     -22.435  15.941  29.850  1.00 22.87 LIG 0.10  C 
BRANCH 7 8
ATOM      8  CD  GLN D 206     -22.720  17.193  29.039  1.00 23.72 LIG 0.21  C 
ATOM      9  NE2 GLN D 206     -22.612  17.087  27.716  1.00 23.17 LIG-0.37  N 
ATOM     10 21HE GLN D 206     -22.387  16.335  27.362  1.00 23.17 LIG 0.16  HD
ATOM     11 22HE GLN D 206     -22.767  17.768  27.216  1.00 23.17 LIG 0.16  HD
ATOM     12 OE1  GLN D 206     -23.037  18.242  29.595  1.00 23.11 LIG-0.27  OA
ENDBRANCH 7 8
ENDBRANCH 6 7
ENDBRANCH 5 6
BRANCH 5 13
ATOM     13  N   GLN D 206     -22.449  12.626  29.707  1.00 22.83 LIG-0.35  N 
ATOM     14 H    GLN D 206     -23.194  12.357  30.040  1.00 22.83 LIG 0.16  HD
ATOM     15  C   GLN D 205     -21.260  12.167  30.085  1.00 23.49 LIG 0.24  C 
ATOM     16 O    GLN D 205     -20.197  12.582  29.620  1.00 22.46 LIG-0.27  OA
BRANCH 15 17
ATOM     17  CA  GLN D 205     -21.267  11.080  31.146  1.00 24.37 LIG 0.18  C 
BRANCH 17 18
ATOM     18  N   GLN D 205     -20.284  11.444  32.157  1.00 25.17 LIG-0.35  N 
ATOM     19 H    GLN D 205     -20.035  12.266  32.122  1.00 25.17 LIG 0.16  HD
ATOM     20  C   PRO D 204     -19.820  10.575  33.048  1.00 27.23 LIG 0.24  C 
ATOM     21 O    PRO D 204     -20.192   9.406  33.107  1.00 27.18 LIG-0.27  OA
BRANCH 20 22
ATOM     22  CA  PRO D 204     -18.758  11.100  34.013  1.00 28.49 LIG 0.18  C 
ATOM     23  N   PRO D 204     -17.515  10.332  33.901  1.00 30.00 LIG-0.34  N 
ATOM     24  CD  PRO D 204     -16.576  11.059  33.042  1.00 30.13 LIG 0.13  C 
ATOM     25  C   ACE D 203     -17.289   9.169  34.531  1.00 30.58 LIG 0.22  C 
ATOM     26  CG  PRO D 204     -16.782  12.438  33.549  1.00 30.43 LIG 0.02  C 
ATOM     27  CB  PRO D 204     -18.323  12.515  33.612  1.00 28.78 LIG 0.04  C 
ATOM     28  CH3 ACE D 203     -15.950   8.493  34.313  1.00 31.20 LIG 0.12  C 
ATOM     29 O    ACE D 203     -18.130   8.659  35.270  1.00 31.12 LIG-0.27  OA
ENDBRANCH 20 22
ENDBRANCH 17 18
BRANCH 17 30
ATOM     30  CB  GLN D 205     -22.660  10.957  31.759  1.00 24.72 LIG 0.04  C 
BRANCH 30 31
ATOM     31  CG  GLN D 205     -23.458   9.800  31.200  1.00 27.03 LIG 0.10  C 
BRANCH 31 32
ATOM     32  CD  GLN D 205     -22.689   9.008  30.166  1.00 28.11 LIG 0.21  C 
ATOM     33  NE2 GLN D 205     -21.823   8.118  30.632  1.00 29.45 LIG-0.37  N 
ATOM     34 21HE GLN D 205     -21.729   8.012  31.480  1.00 29.45 LIG 0.16  HD
ATOM     35 22HE GLN D 205     -21.355   7.646  30.085  1.00 29.45 LIG 0.16  HD
ATOM     36 OE1  GLN D 205     -22.864   9.199  28.963  1.00 29.17 LIG-0.27  OA
ENDBRANCH 31 32
ENDBRANCH 30 31
ENDBRANCH 17 30
ENDBRANCH 15 17
ENDBRANCH 5 13
ENDBRANCH 1 5
BRANCH 3 37
ATOM     37  CA  ALA D 207     -21.686  13.824  24.990  1.00 22.93 LIG 0.17  C 
ATOM     38  CB  ALA D 207     -20.570  12.799  24.986  1.00 22.72 LIG 0.04  C 
BRANCH 37 39
ATOM     39  C   ALA D 207     -22.938  13.261  24.307  1.00 23.32 LIG 0.24  C 
ATOM     40  N   THR D 208     -23.215  13.676  23.075  1.00 24.11 LIG-0.34  N 
ATOM     41 H    THR D 208     -22.729  14.222  22.622  1.00 24.11 LIG 0.16  HD
ATOM     42 O    ALA D 207     -23.642  12.443  24.897  1.00 22.54 LIG-0.27  OA
BRANCH 40 43
ATOM     43  CA  THR D 208     -24.418  13.204  22.392  1.00 25.74 LIG 0.20  C 
BRANCH 43 44
ATOM     44  C   THR D 208     -24.241  12.319  21.158  1.00 27.84 LIG 0.24  C 
ATOM     45  N   ASP D 209     -25.287  11.622  20.728  1.00 27.84 LIG-0.34  N 
ATOM     46 H    ASP D 209     -26.073  11.645  21.076  1.00 27.84 LIG 0.16  HD
ATOM     47 O    THR D 208     -23.148  12.275  20.591  1.00 27.83 LIG-0.27  OA
BRANCH 45 48
ATOM     48  CA  ASP D 209     -25.133  10.736  19.577  1.00 29.52 LIG 0.19  C 
BRANCH 48 49
ATOM     49  C   ASP D 209     -23.967   9.752  19.572  1.00 30.14 LIG 0.24  C 
ATOM     50 O    ASP D 209     -23.196   9.740  18.616  1.00 31.34 LIG-0.27  OA
ATOM     51  N   ASP D 210     -23.825   8.934  20.609  1.00 30.20 LIG-0.34  N 
ATOM     52 H    ASP D 210     -24.348   8.916  21.292  1.00 30.20 LIG 0.16  HD
BRANCH 51 53
ATOM     53  CA  ASP D 210     -22.720   7.975  20.651  1.00 30.95 LIG 0.20  C 
BRANCH 53 54
ATOM     54  C   ASP D 210     -23.173   6.516  20.570  1.00 31.44 LIG 0.20  C 
ATOM     55 O    ASP D 210     -22.368   5.670  20.133  1.00 30.73 LIG-0.65  OA
ATOM     56 OXT  ASP D 210     -24.329   6.235  20.952  1.00 31.53 LIG-0.65  OA
ENDBRANCH 53 54
BRANCH 53 57
ATOM     57  CB  ASP D 210     -21.879   8.190  21.916  1.00 31.88 LIG 0.15  C 
BRANCH 57 58
ATOM     58  CG  ASP D 210     -20.837   9.272  21.751  1.00 32.06 LIG 0.17  C 
ATOM     59 OD2  ASP D 210     -19.913   9.115  20.924  1.00 32.64 LIG-0.65  OA
ATOM     60 OD1  ASP D 210     -20.945  10.286  22.466  1.00 34.58 LIG-0.65  OA
ENDBRANCH 57 58
ENDBRANCH 53 57
ENDBRANCH 51 53
ENDBRANCH 48 49
BRANCH 48 61
ATOM     61  CB  ASP D 209     -25.043  11.562  18.294  1.00 29.28 LIG 0.15  C 
BRANCH 61 62
ATOM     62  CG  ASP D 209     -26.198  12.526  18.146  1.00 30.36 LIG 0.17  C 
ATOM     63 OD2  ASP D 209     -26.306  13.457  18.969  1.00 30.91 LIG-0.65  OA
ATOM     64 OD1  ASP D 209     -27.016  12.336  17.220  1.00 31.75 LIG-0.65  OA
ENDBRANCH 61 62
ENDBRANCH 48 61
ENDBRANCH 45 48
ENDBRANCH 43 44
BRANCH 43 65
ATOM     65  CB  THR D 208     -25.327  14.380  21.965  1.00 25.82 LIG 0.15  C 
ATOM     66  CG2 THR D 208     -26.205  14.829  23.124  1.00 25.57 LIG 0.04  C 
BRANCH 65 67
ATOM     67 OG1  THR D 208     -24.519  15.480  21.532  1.00 26.97 LIG-0.39  OA
ATOM     68 HG1  THR D 208     -24.335  15.967  22.191  1.00 26.97 LIG 0.21  HD
ENDBRANCH 65 67
ENDBRANCH 43 65
ENDBRANCH 40 43
ENDBRANCH 37 39
ENDBRANCH 3 37
TORSDOF 25
ENDMDL
MODEL 10
USER: ADFR SOLUTION from run 127
USER: SCORE 17.643980 LL:  -3.653 LR: -16.108 RR:   0.000 FEB:  -8.651
USER: RMSD 5.530096
USER: SEED 126
USER: STATUS no improvement in best in 10 clusters for 5 generations
USER: GENES 27
USER: genes 0 Translation |==|  0.47626 0.56902 0.42574
USER: genes 1 Rotation |==|  0.50645 0.57345 0.05744 0.72069
USER: genes 2 Torsion [N]-C--CA-[N] |==|  0.34309
USER: genes 3 Torsion [C]-CA--CB-[CG] |==|  0.29472
USER: genes 4 Torsion [CA]-CB--CG-[CD] |==|  0.57599
USER: genes 5 Torsion [CB]-CG--CD-[NE2] |==|  0.16559
USER: genes 6 Torsion [C]-CA--N-[C] |==|  0.80850
USER: genes 7 Torsion [N]-C--CA-[N] |==|  0.98475
USER: genes 8 Torsion [C]-CA--N-[C] |==|  0.71911
USER: genes 9 Torsion [N]-C--CA-[N] |==|  0.86068
USER: genes 10 Torsion [C]-CA--CB-[CG] |==|  0.37768
USER: genes 11 Torsion [CA]-CB--CG-[CD] |==|  0.12842
USER: genes 12 Torsion [CB]-CG--CD-[NE2] |==|  0.75112
USER: genes 13 Torsion [C]-N--CA-[CB] |==|  0.11594
USER: genes 14 Torsion [N]-CA--C-[N] |==|  0.12796
USER: genes 15 Torsion [C]-N--CA-[CB] |==|  0.78319
USER: genes 16 Torsion [N]-CA--C-[N] |==|  0.75766
USER: genes 17 Torsion [C]-N--CA-[C] |==|  0.70000
USER: genes 18 Torsion [N]-CA--C-[N] |==|  0.73709
USER: genes 19 Torsion [C]-N--CA-[C] |==|  0.19417
USER: genes 20 Torsion [N]-CA--C-[O] |==|  0.16637
USER: genes 21 Torsion [N]-CA--CB-[CG] |==|  0.84706
USER: genes 22 Torsion [CA]-CB--CG-[OD2] |==|  0.82579
USER: genes 23 Torsion [N]-CA--CB-[CG] |==|  0.11548
USER: genes 24 Torsion [CA]-CB--CG-[OD2] |==|  0.27388
USER: genes 25 Torsion [N]-CA--CB-[OG1] |==|  0.88837
USER: genes 26 Torsion [CA]-CB--OG1-[HG1] |==|  0.97061
ROOT
ATOM      1  C   GLN D 206     -22.158  13.214  26.461  1.00 23.02 LIG 0.24  C 
ATOM      2 O    GLN D 206     -20.965  12.993  26.663  1.00 23.21 LIG-0.27  OA
ATOM      3  N   ALA D 207     -22.677  13.370  25.246  1.00 22.72 LIG-0.35  N 
ATOM      4 H    ALA D 207     -23.516  13.492  25.097  1.00 22.72 LIG 0.16  HD
ENDROOT
BRANCH 1 5
ATOM      5  CA  GLN D 206     -23.141  13.315  27.617  1.00 22.90 LIG 0.18  C 
BRANCH 5 6
ATOM      6  CB  GLN D 206     -22.818  14.573  28.433  1.00 23.00 LIG 0.04  C 
BRANCH 6 7
ATOM      7  CG  GLN D 206     -23.801  15.730  28.249  1.00 22.87 LIG 0.10  C 
BRANCH 7 8
ATOM      8  CD  GLN D 206     -23.147  17.080  28.494  1.00 23.72 LIG 0.21  C 
ATOM      9  NE2 GLN D 206     -22.114  17.394  27.716  1.00 23.17 LIG-0.37  N 
ATOM     10 21HE GLN D 206     -21.846  16.842  27.113  1.00 23.17 LIG 0.16  HD
ATOM     11 22HE GLN D 206     -21.714  18.149  27.816  1.00 23.17 LIG 0.16  HD
ATOM     12 OE1  GLN D 206     -23.570  17.831  29.370  1.00 23.11 LIG-0.27  OA
ENDBRANCH 7 8
ENDBRANCH 6 7
ENDBRANCH 5 6
BRANCH 5 13
ATOM     13  N   GLN D 206     -23.163  12.144  28.483  1.00 22.83 LIG-0.35  N 
ATOM     14 H    GLN D 206     -22.845  12.279  29.270  1.00 22.83 LIG 0.16  HD
ATOM     15  C   GLN D 205     -23.640  10.976  28.066  1.00 23.49 LIG 0.24  C 
ATOM     16 O    GLN D 205     -24.066  10.788  26.925  1.00 22.46 LIG-0.27  OA
BRANCH 15 17
ATOM     17  CA  GLN D 205     -23.634   9.849  29.084  1.00 24.37 LIG 0.18  C 
BRANCH 17 18
ATOM     18  N   GLN D 205     -22.956  10.334  30.277  1.00 25.17 LIG-0.35  N 
ATOM     19 H    GLN D 205     -23.445  10.834  30.778  1.00 25.17 LIG 0.16  HD
ATOM     20  C   PRO D 204     -21.695  10.025  30.559  1.00 27.23 LIG 0.24  C 
ATOM     21 O    PRO D 204     -21.006   9.295  29.852  1.00 27.18 LIG-0.27  OA
BRANCH 20 22
ATOM     22  CA  PRO D 204     -21.113  10.651  31.825  1.00 28.49 LIG 0.18  C 
ATOM     23  N   PRO D 204     -21.346  12.098  31.857  1.00 30.00 LIG-0.34  N 
ATOM     24  CD  PRO D 204     -22.519  12.379  32.691  1.00 30.13 LIG 0.13  C 
ATOM     25  C   ACE D 203     -20.567  12.999  31.241  1.00 30.58 LIG 0.22  C 
ATOM     26  CG  PRO D 204     -22.259  11.448  33.816  1.00 30.43 LIG 0.02  C 
ATOM     27  CB  PRO D 204     -21.871  10.156  33.064  1.00 28.78 LIG 0.04  C 
ATOM     28  CH3 ACE D 203     -20.941  14.463  31.365  1.00 31.20 LIG 0.12  C 
ATOM     29 O    ACE D 203     -19.574  12.664  30.597  1.00 31.12 LIG-0.27  OA
ENDBRANCH 20 22
ENDBRANCH 17 18
BRANCH 17 30
ATOM     30  CB  GLN D 205     -25.066   9.425  29.404  1.00 24.72 LIG 0.04  C 
BRANCH 30 31
ATOM     31  CG  GLN D 205     -25.249   7.925  29.449  1.00 27.03 LIG 0.10  C 
BRANCH 31 32
ATOM     32  CD  GLN D 205     -24.166   7.229  30.241  1.00 28.11 LIG 0.21  C 
ATOM     33  NE2 GLN D 205     -23.088   6.857  29.563  1.00 29.45 LIG-0.37  N 
ATOM     34 21HE GLN D 205     -23.032   7.021  28.721  1.00 29.45 LIG 0.16  HD
ATOM     35 22HE GLN D 205     -22.445   6.451  29.966  1.00 29.45 LIG 0.16  HD
ATOM     36 OE1  GLN D 205     -24.297   7.019  31.446  1.00 29.17 LIG-0.27  OA
ENDBRANCH 31 32
ENDBRANCH 30 31
ENDBRANCH 17 30
ENDBRANCH 15 17
ENDBRANCH 5 13
ENDBRANCH 1 5
BRANCH 3 37
ATOM     37  CA  ALA D 207     -21.856  13.346  24.043  1.00 22.93 LIG 0.17  C 
ATOM     38  CB  ALA D 207     -20.824  12.240  24.148  1.00 22.72 LIG 0.04  C 
BRANCH 37 39
ATOM     39  C   ALA D 207     -22.820  13.074  22.882  1.00 23.32 LIG 0.24  C 
ATOM     40  N   THR D 208     -23.953  13.769  22.837  1.00 24.11 LIG-0.34  N 
ATOM     41 H    THR D 208     -24.175  14.378  23.402  1.00 24.11 LIG 0.16  HD
ATOM     42 O    ALA D 207     -22.527  12.243  22.024  1.00 22.54 LIG-0.27  OA
BRANCH 40 43
ATOM     43  CA  THR D 208     -24.927  13.522  21.776  1.00 25.74 LIG 0.20  C 
BRANCH 43 44
ATOM     44  C   THR D 208     -25.274  12.071  21.446  1.00 27.84 LIG 0.24  C 
ATOM     45  N   ASP D 209     -24.518  11.428  20.563  1.00 27.84 LIG-0.34  N 
ATOM     46 H    ASP D 209     -23.825  11.756  20.173  1.00 27.84 LIG 0.16  HD
ATOM     47 O    THR D 208     -26.232  11.531  22.001  1.00 27.83 LIG-0.27  OA
BRANCH 45 48
ATOM     48  CA  ASP D 209     -24.854  10.054  20.197  1.00 29.52 LIG 0.19  C 
BRANCH 48 49
ATOM     49  C   ASP D 209     -23.958   8.929  20.704  1.00 30.14 LIG 0.24  C 
ATOM     50 O    ASP D 209     -24.159   8.459  21.821  1.00 31.34 LIG-0.27  OA
ATOM     51  N   ASP D 210     -22.983   8.493  19.916  1.00 30.20 LIG-0.34  N 
ATOM     52 H    ASP D 210     -22.814   8.801  19.131  1.00 30.20 LIG 0.16  HD
BRANCH 51 53
ATOM     53  CA  ASP D 210     -22.099   7.413  20.357  1.00 30.95 LIG 0.20  C 
BRANCH 53 54
ATOM     54  C   ASP D 210     -22.791   6.050  20.434  1.00 31.44 LIG 0.20  C 
ATOM     55 O    ASP D 210     -23.289   5.580  19.392  1.00 30.73 LIG-0.65  OA
ATOM     56 OXT  ASP D 210     -22.820   5.464  21.538  1.00 31.53 LIG-0.65  OA
ENDBRANCH 53 54
BRANCH 53 57
ATOM     57  CB  ASP D 210     -21.477   7.759  21.716  1.00 31.88 LIG 0.15  C 
BRANCH 57 58
ATOM     58  CG  ASP D 210     -20.755   9.086  21.710  1.00 32.06 LIG 0.17  C 
ATOM     59 OD2  ASP D 210     -19.763   9.243  20.966  1.00 32.64 LIG-0.65  OA
ATOM     60 OD1  ASP D 210     -21.186   9.977  22.466  1.00 34.58 LIG-0.65  OA
ENDBRANCH 57 58
ENDBRANCH 53 57
ENDBRANCH 51 53
ENDBRANCH 48 49
BRANCH 48 61
ATOM     61  CB  ASP D 209     -24.933   9.927  18.675  1.00 29.28 LIG 0.15  C 
BRANCH 61 62
ATOM     62  CG  ASP D 209     -23.824  10.680  17.975  1.00 30.36 LIG 0.17  C 
ATOM     63 OD2  ASP D 209     -22.820  10.043  17.595  1.00 30.91 LIG-0.65  OA
ATOM     64 OD1  ASP D 209     -23.945  11.915  17.828  1.00 31.75 LIG-0.65  OA
ENDBRANCH 61 62
ENDBRANCH 48 61
ENDBRANCH 45 48
ENDBRANCH 43 44
BRANCH 43 65
ATOM     65  CB  THR D 208     -24.500  14.187  20.447  1.00 25.82 LIG 0.15  C 
ATOM     66  CG2 THR D 208     -25.692  14.337  19.513  1.00 25.57 LIG 0.04  C 
BRANCH 65 67
ATOM     67 OG1  THR D 208     -23.945  15.480  20.713  1.00 26.97 LIG-0.39  OA
ATOM     68 HG1  THR D 208     -24.089  15.687  21.514  1.00 26.97 LIG 0.21  HD
ENDBRANCH 65 67
ENDBRANCH 43 65
ENDBRANCH 40 43
ENDBRANCH 37 39
ENDBRANCH 3 37
TORSDOF 25
ENDMDL
MODEL 11
USER: ADFR SOLUTION from run 22
USER: SCORE 15.485688 LL:  -3.465 LR: -16.000 RR:   0.000 FEB:  -8.542
USER: RMSD 5.357842
USER: SEED 21
USER: STATUS no improvement in best in 18 clusters for 5 generations
USER: GENES 27
USER: genes 0 Translation |==|  0.39237 0.56731 0.44238
USER: genes 1 Rotation |==|  0.71617 0.46225 0.79205 0.84140
USER: genes 2 Torsion [N]-C--CA-[N] |==|  0.51864
USER: genes 3 Torsion [C]-CA--CB-[CG] |==|  0.83450
USER: genes 4 Torsion [CA]-CB--CG-[CD] |==|  0.51668
USER: genes 5 Torsion [CB]-CG--CD-[NE2] |==|  0.90145
USER: genes 6 Torsion [C]-CA--N-[C] |==|  0.76346
USER: genes 7 Torsion [N]-C--CA-[N] |==|  0.47778
USER: genes 8 Torsion [C]-CA--N-[C] |==|  0.56364
USER: genes 9 Torsion [N]-C--CA-[N] |==|  0.69164
USER: genes 10 Torsion [C]-CA--CB-[CG] |==|  0.72435
USER: genes 11 Torsion [CA]-CB--CG-[CD] |==|  0.71890
USER: genes 12 Torsion [CB]-CG--CD-[NE2] |==|  0.93626
USER: genes 13 Torsion [C]-N--CA-[CB] |==|  0.40287
USER: genes 14 Torsion [N]-CA--C-[N] |==|  0.78461
USER: genes 15 Torsion [C]-N--CA-[CB] |==|  0.44919
USER: genes 16 Torsion [N]-CA--C-[N] |==|  0.18101
USER: genes 17 Torsion [C]-N--CA-[C] |==|  0.76731
USER: genes 18 Torsion [N]-CA--C-[N] |==|  0.37707
USER: genes 19 Torsion [C]-N--CA-[C] |==|  0.55088
USER: genes 20 Torsion [N]-CA--C-[O] |==|  0.43240
USER: genes 21 Torsion [N]-CA--CB-[CG] |==|  0.11228
USER: genes 22 Torsion [CA]-CB--CG-[OD2] |==|  0.23772
USER: genes 23 Torsion [N]-CA--CB-[CG] |==|  0.53319
USER: genes 24 Torsion [CA]-CB--CG-[OD2] |==|  0.75465
USER: genes 25 Torsion [N]-CA--CB-[OG1] |==|  0.87460
USER: genes 26 Torsion [CA]-CB--OG1-[HG1] |==|  0.18266
ROOT
ATOM      1  C   GLN D 206     -23.794  13.181  26.910  1.00 23.02 LIG 0.24  C 
ATOM      2 O    GLN D 206     -24.694  12.435  27.296  1.00 23.21 LIG-0.27  OA
ATOM      3  N   ALA D 207     -24.016  14.326  26.270  1.00 22.72 LIG-0.35  N 
ATOM      4 H    ALA D 207     -23.392  14.866  26.027  1.00 22.72 LIG 0.16  HD
ENDROOT
BRANCH 1 5
ATOM      5  CA  GLN D 206     -22.334  12.836  27.158  1.00 22.90 LIG 0.18  C 
BRANCH 5 6
ATOM      6  CB  GLN D 206     -21.560  12.983  25.841  1.00 23.00 LIG 0.04  C 
BRANCH 6 7
ATOM      7  CG  GLN D 206     -22.053  12.091  24.700  1.00 22.87 LIG 0.10  C 
BRANCH 7 8
ATOM      8  CD  GLN D 206     -21.156  12.179  23.477  1.00 23.72 LIG 0.21  C 
ATOM      9  NE2 GLN D 206     -20.616  13.368  23.216  1.00 23.17 LIG-0.37  N 
ATOM     10 21HE GLN D 206     -20.784  14.038  23.728  1.00 23.17 LIG 0.16  HD
ATOM     11 22HE GLN D 206     -20.099  13.465  22.536  1.00 23.17 LIG 0.16  HD
ATOM     12 OE1  GLN D 206     -20.948  11.190  22.780  1.00 23.11 LIG-0.27  OA
ENDBRANCH 7 8
ENDBRANCH 6 7
ENDBRANCH 5 6
BRANCH 5 13
ATOM     13  N   GLN D 206     -22.123  11.509  27.720  1.00 22.83 LIG-0.35  N 
ATOM     14 H    GLN D 206     -21.954  10.900  27.138  1.00 22.83 LIG 0.16  HD
ATOM     15  C   GLN D 205     -22.191  11.286  29.029  1.00 23.49 LIG 0.24  C 
ATOM     16 O    GLN D 205     -22.462  12.163  29.851  1.00 22.46 LIG-0.27  OA
BRANCH 15 17
ATOM     17  CA  GLN D 205     -21.916   9.863  29.481  1.00 24.37 LIG 0.18  C 
BRANCH 17 18
ATOM     18  N   GLN D 205     -21.849   9.867  30.936  1.00 25.17 LIG-0.35  N 
ATOM     19 H    GLN D 205     -22.261  10.526  31.303  1.00 25.17 LIG 0.16  HD
ATOM     20  C   PRO D 204     -21.207   8.930  31.625  1.00 27.23 LIG 0.24  C 
ATOM     21 O    PRO D 204     -20.636   7.979  31.098  1.00 27.18 LIG-0.27  OA
BRANCH 20 22
ATOM     22  CA  PRO D 204     -21.190   9.101  33.143  1.00 28.49 LIG 0.18  C 
ATOM     23  N   PRO D 204     -19.844   9.423  33.625  1.00 30.00 LIG-0.34  N 
ATOM     24  CD  PRO D 204     -19.737  10.871  33.823  1.00 30.13 LIG 0.13  C 
ATOM     25  C   ACE D 203     -18.895   8.508  33.873  1.00 30.58 LIG 0.22  C 
ATOM     26  CG  PRO D 204     -21.049  11.138  34.462  1.00 30.43 LIG 0.02  C 
ATOM     27  CB  PRO D 204     -22.003  10.335  33.552  1.00 28.78 LIG 0.04  C 
ATOM     28  CH3 ACE D 203     -17.548   8.999  34.367  1.00 31.20 LIG 0.12  C 
ATOM     29 O    ACE D 203     -19.097   7.304  33.716  1.00 31.12 LIG-0.27  OA
ENDBRANCH 20 22
ENDBRANCH 17 18
BRANCH 17 30
ATOM     30  CB  GLN D 205     -23.024   8.934  28.988  1.00 24.72 LIG 0.04  C 
BRANCH 30 31
ATOM     31  CG  GLN D 205     -24.060   8.628  30.046  1.00 27.03 LIG 0.10  C 
BRANCH 31 32
ATOM     32  CD  GLN D 205     -23.863   7.270  30.680  1.00 28.11 LIG 0.21  C 
ATOM     33  NE2 GLN D 205     -23.187   6.380  29.966  1.00 29.45 LIG-0.37  N 
ATOM     34 21HE GLN D 205     -22.882   6.593  29.190  1.00 29.45 LIG 0.16  HD
ATOM     35 22HE GLN D 205     -23.053   5.590  30.279  1.00 29.45 LIG 0.16  HD
ATOM     36 OE1  GLN D 205     -24.320   7.018  31.794  1.00 29.17 LIG-0.27  OA
ENDBRANCH 31 32
ENDBRANCH 30 31
ENDBRANCH 17 30
ENDBRANCH 15 17
ENDBRANCH 5 13
ENDBRANCH 1 5
BRANCH 3 37
ATOM     37  CA  ALA D 207     -25.359  14.769  25.920  1.00 22.93 LIG 0.17  C 
ATOM     38  CB  ALA D 207     -25.445  16.279  26.025  1.00 22.72 LIG 0.04  C 
BRANCH 37 39
ATOM     39  C   ALA D 207     -25.586  14.316  24.472  1.00 23.32 LIG 0.24  C 
ATOM     40  N   THR D 208     -25.019  15.026  23.501  1.00 24.11 LIG-0.34  N 
ATOM     41 H    THR D 208     -24.513  15.709  23.627  1.00 24.11 LIG 0.16  HD
ATOM     42 O    ALA D 207     -26.266  13.318  24.243  1.00 22.54 LIG-0.27  OA
BRANCH 40 43
ATOM     43  CA  THR D 208     -25.236  14.664  22.102  1.00 25.74 LIG 0.20  C 
BRANCH 43 44
ATOM     44  C   THR D 208     -24.512  13.433  21.559  1.00 27.84 LIG 0.24  C 
ATOM     45  N   ASP D 209     -24.829  12.244  22.060  1.00 27.84 LIG-0.34  N 
ATOM     46 H    ASP D 209     -25.433  12.104  22.656  1.00 27.84 LIG 0.16  HD
ATOM     47 O    THR D 208     -23.664  13.564  20.676  1.00 27.83 LIG-0.27  OA
BRANCH 45 48
ATOM     48  CA  ASP D 209     -24.121  11.056  21.590  1.00 29.52 LIG 0.19  C 
BRANCH 48 49
ATOM     49  C   ASP D 209     -24.601  10.388  20.305  1.00 30.14 LIG 0.24  C 
ATOM     50 O    ASP D 209     -25.805  10.220  20.130  1.00 31.34 LIG-0.27  OA
ATOM     51  N   ASP D 210     -23.694  10.008  19.413  1.00 30.20 LIG-0.34  N 
ATOM     52 H    ASP D 210     -22.845  10.109  19.506  1.00 30.20 LIG 0.16  HD
BRANCH 51 53
ATOM     53  CA  ASP D 210     -24.106   9.366  18.164  1.00 30.95 LIG 0.20  C 
BRANCH 53 54
ATOM     54  C   ASP D 210     -22.977   8.604  17.467  1.00 31.44 LIG 0.20  C 
ATOM     55 O    ASP D 210     -23.281   7.673  16.693  1.00 30.73 LIG-0.65  OA
ATOM     56 OXT  ASP D 210     -21.799   8.952  17.698  1.00 31.53 LIG-0.65  OA
ENDBRANCH 53 54
BRANCH 53 57
ATOM     57  CB  ASP D 210     -24.703  10.404  17.206  1.00 31.88 LIG 0.15  C 
BRANCH 57 58
ATOM     58  CG  ASP D 210     -23.945  11.712  17.212  1.00 32.06 LIG 0.17  C 
ATOM     59 OD2  ASP D 210     -22.944  11.846  16.475  1.00 32.64 LIG-0.65  OA
ATOM     60 OD1  ASP D 210     -24.356  12.610  17.970  1.00 34.58 LIG-0.65  OA
ENDBRANCH 57 58
ENDBRANCH 53 57
ENDBRANCH 51 53
ENDBRANCH 48 49
BRANCH 48 61
ATOM     61  CB  ASP D 209     -24.110   9.990  22.685  1.00 29.28 LIG 0.15  C 
BRANCH 61 62
ATOM     62  CG  ASP D 209     -23.156   8.857  22.379  1.00 30.36 LIG 0.17  C 
ATOM     63 OD2  ASP D 209     -23.576   7.888  21.716  1.00 30.91 LIG-0.65  OA
ATOM     64 OD1  ASP D 209     -21.990   8.924  22.826  1.00 31.75 LIG-0.65  OA
ENDBRANCH 61 62
ENDBRANCH 48 61
ENDBRANCH 45 48
ENDBRANCH 43 44
BRANCH 43 65
ATOM     65  CB  THR D 208     -24.889  15.835  21.153  1.00 25.82 LIG 0.15  C 
ATOM     66  CG2 THR D 208     -25.442  15.579  19.759  1.00 25.57 LIG 0.04  C 
BRANCH 65 67
ATOM     67 OG1  THR D 208     -25.445  17.051  21.665  1.00 26.97 LIG-0.39  OA
ATOM     68 HG1  THR D 208     -25.070  17.247  22.389  1.00 26.97 LIG 0.21  HD
ENDBRANCH 65 67
ENDBRANCH 43 65
ENDBRANCH 40 43
ENDBRANCH 37 39
ENDBRANCH 3 37
TORSDOF 25
ENDMDL
MODEL 12
USER: ADFR SOLUTION from run 47
USER: SCORE 17.989602 LL:  -4.446 LR: -15.865 RR:   0.000 FEB:  -8.408
USER: RMSD 5.607400
USER: SEED 46
USER: STATUS searching
USER: GENES 27
USER: genes 0 Translation |==|  0.43491 0.52111 0.40379
USER: genes 1 Rotation |==|  0.40085 0.23231 0.89411 0.61481
USER: genes 2 Torsion [N]-C--CA-[N] |==|  0.80076
USER: genes 3 Torsion [C]-CA--CB-[CG] |==|  0.12088
USER: genes 4 Torsion [CA]-CB--CG-[CD] |==|  0.63108
USER: genes 5 Torsion [CB]-CG--CD-[NE2] |==|  0.12618
USER: genes 6 Torsion [C]-CA--N-[C] |==|  0.73657
USER: genes 7 Torsion [N]-C--CA-[N] |==|  0.04423
USER: genes 8 Torsion [C]-CA--N-[C] |==|  0.68997
USER: genes 9 Torsion [N]-C--CA-[N] |==|  0.85124
USER: genes 10 Torsion [C]-CA--CB-[CG] |==|  0.91322
USER: genes 11 Torsion [CA]-CB--CG-[CD] |==|  0.34335
USER: genes 12 Torsion [CB]-CG--CD-[NE2] |==|  0.87757
USER: genes 13 Torsion [C]-N--CA-[CB] |==|  0.83543
USER: genes 14 Torsion [N]-CA--C-[N] |==|  0.19277
USER: genes 15 Torsion [C]-N--CA-[CB] |==|  0.74866
USER: genes 16 Torsion [N]-CA--C-[N] |==|  0.64659
USER: genes 17 Torsion [C]-N--CA-[C] |==|  0.82761
USER: genes 18 Torsion [N]-CA--C-[N] |==|  0.87222
USER: genes 19 Torsion [C]-N--CA-[C] |==|  0.58899
USER: genes 20 Torsion [N]-CA--C-[O] |==|  0.69834
USER: genes 21 Torsion [N]-CA--CB-[CG] |==|  0.65482
USER: genes 22 Torsion [CA]-CB--CG-[OD2] |==|  0.52683
USER: genes 23 Torsion [N]-CA--CB-[CG] |==|  0.15081
USER: genes 24 Torsion [CA]-CB--CG-[OD2] |==|  0.76581
USER: genes 25 Torsion [N]-CA--CB-[OG1] |==|  0.91336
USER: genes 26 Torsion [CA]-CB--OG1-[HG1] |==|  0.94090
ROOT
ATOM      1  C   GLN D 206     -22.964  12.280  25.868  1.00 23.02 LIG 0.24  C 
ATOM      2 O    GLN D 206     -22.850  11.331  25.094  1.00 23.21 LIG-0.27  OA
ATOM      3  N   ALA D 207     -22.542  13.509  25.586  1.00 22.72 LIG-0.35  N 
ATOM      4 H    ALA D 207     -22.649  14.183  26.110  1.00 22.72 LIG 0.16  HD
ENDROOT
BRANCH 1 5
ATOM      5  CA  GLN D 206     -23.622  12.104  27.228  1.00 22.90 LIG 0.18  C 
BRANCH 5 6
ATOM      6  CB  GLN D 206     -24.725  13.160  27.385  1.00 23.00 LIG 0.04  C 
BRANCH 6 7
ATOM      7  CG  GLN D 206     -25.607  13.359  26.151  1.00 22.87 LIG 0.10  C 
BRANCH 7 8
ATOM      8  CD  GLN D 206     -25.790  14.828  25.812  1.00 23.72 LIG 0.21  C 
ATOM      9  NE2 GLN D 206     -24.697  15.589  25.833  1.00 23.17 LIG-0.37  N 
ATOM     10 21HE GLN D 206     -23.937  15.242  26.035  1.00 23.17 LIG 0.16  HD
ATOM     11 22HE GLN D 206     -24.752  16.426  25.644  1.00 23.17 LIG 0.16  HD
ATOM     12 OE1  GLN D 206     -26.900  15.272  25.529  1.00 23.11 LIG-0.27  OA
ENDBRANCH 7 8
ENDBRANCH 6 7
ENDBRANCH 5 6
BRANCH 5 13
ATOM     13  N   GLN D 206     -22.697  12.171  28.350  1.00 22.83 LIG-0.35  N 
ATOM     14 H    GLN D 206     -22.533  12.968  28.627  1.00 22.83 LIG 0.16  HD
ATOM     15  C   GLN D 205     -22.164  11.076  28.883  1.00 23.49 LIG 0.24  C 
ATOM     16 O    GLN D 205     -22.385   9.941  28.457  1.00 22.46 LIG-0.27  OA
BRANCH 15 17
ATOM     17  CA  GLN D 205     -21.242  11.289  30.070  1.00 24.37 LIG 0.18  C 
BRANCH 17 18
ATOM     18  N   GLN D 205     -21.468  12.638  30.569  1.00 25.17 LIG-0.35  N 
ATOM     19 H    GLN D 205     -22.240  12.752  30.931  1.00 25.17 LIG 0.16  HD
ATOM     20  C   PRO D 204     -20.557  13.601  30.469  1.00 27.23 LIG 0.24  C 
ATOM     21 O    PRO D 204     -19.449  13.429  29.968  1.00 27.18 LIG-0.27  OA
BRANCH 20 22
ATOM     22  CA  PRO D 204     -20.965  14.974  30.999  1.00 28.49 LIG 0.18  C 
ATOM     23  N   PRO D 204     -22.224  15.422  30.398  1.00 30.00 LIG-0.34  N 
ATOM     24  CD  PRO D 204     -23.327  15.138  31.322  1.00 30.13 LIG 0.13  C 
ATOM     25  C   ACE D 203     -22.315  16.028  29.205  1.00 30.58 LIG 0.22  C 
ATOM     26  CG  PRO D 204     -22.700  15.554  32.601  1.00 30.43 LIG 0.02  C 
ATOM     27  CB  PRO D 204     -21.309  14.890  32.492  1.00 28.78 LIG 0.04  C 
ATOM     28  CH3 ACE D 203     -23.692  16.431  28.718  1.00 31.20 LIG 0.12  C 
ATOM     29 O    ACE D 203     -21.320  16.262  28.520  1.00 31.12 LIG-0.27  OA
ENDBRANCH 20 22
ENDBRANCH 17 18
BRANCH 17 30
ATOM     30  CB  GLN D 205     -21.533  10.252  31.152  1.00 24.72 LIG 0.04  C 
BRANCH 30 31
ATOM     31  CG  GLN D 205     -22.982   9.819  31.189  1.00 27.03 LIG 0.10  C 
BRANCH 31 32
ATOM     32  CD  GLN D 205     -23.147   8.324  31.036  1.00 28.11 LIG 0.21  C 
ATOM     33  NE2 GLN D 205     -22.412   7.743  30.098  1.00 29.45 LIG-0.37  N 
ATOM     34 21HE GLN D 205     -21.872   8.215  29.621  1.00 29.45 LIG 0.16  HD
ATOM     35 22HE GLN D 205     -22.473   6.895  29.965  1.00 29.45 LIG 0.16  HD
ATOM     36 OE1  GLN D 205     -23.933   7.697  31.746  1.00 29.17 LIG-0.27  OA
ENDBRANCH 31 32
ENDBRANCH 30 31
ENDBRANCH 17 30
ENDBRANCH 15 17
ENDBRANCH 5 13
ENDBRANCH 1 5
BRANCH 3 37
ATOM     37  CA  ALA D 207     -21.852  13.825  24.342  1.00 22.93 LIG 0.17  C 
ATOM     38  CB  ALA D 207     -20.590  12.994  24.230  1.00 22.72 LIG 0.04  C 
BRANCH 37 39
ATOM     39  C   ALA D 207     -22.832  13.471  23.217  1.00 23.32 LIG 0.24  C 
ATOM     40  N   THR D 208     -23.916  14.227  23.074  1.00 24.11 LIG-0.34  N 
ATOM     41 H    THR D 208     -24.097  14.918  23.553  1.00 24.11 LIG 0.16  HD
ATOM     42 O    ALA D 207     -22.595  12.519  22.475  1.00 22.54 LIG-0.27  OA
BRANCH 40 43
ATOM     43  CA  THR D 208     -24.904  13.911  22.045  1.00 25.74 LIG 0.20  C 
BRANCH 43 44
ATOM     44  C   THR D 208     -25.134  12.440  21.700  1.00 27.84 LIG 0.24  C 
ATOM     45  N   ASP D 209     -25.051  12.071  20.427  1.00 27.84 LIG-0.34  N 
ATOM     46 H    ASP D 209     -24.853  12.593  19.773  1.00 27.84 LIG 0.16  HD
ATOM     47 O    THR D 208     -25.384  11.635  22.599  1.00 27.83 LIG-0.27  OA
BRANCH 45 48
ATOM     48  CA  ASP D 209     -25.310  10.680  20.065  1.00 29.52 LIG 0.19  C 
BRANCH 48 49
ATOM     49  C   ASP D 209     -24.397   9.601  20.639  1.00 30.14 LIG 0.24  C 
ATOM     50 O    ASP D 209     -24.894   8.583  21.114  1.00 31.34 LIG-0.27  OA
ATOM     51  N   ASP D 210     -23.084   9.800  20.605  1.00 30.20 LIG-0.34  N 
ATOM     52 H    ASP D 210     -22.705  10.501  20.282  1.00 30.20 LIG 0.16  HD
BRANCH 51 53
ATOM     53  CA  ASP D 210     -22.167   8.792  21.139  1.00 30.95 LIG 0.20  C 
BRANCH 53 54
ATOM     54  C   ASP D 210     -20.891   9.385  21.740  1.00 31.44 LIG 0.20  C 
ATOM     55 O    ASP D 210     -19.818   9.225  21.125  1.00 30.73 LIG-0.65  OA
ATOM     56 OXT  ASP D 210     -20.981  10.009  22.819  1.00 31.53 LIG-0.65  OA
ENDBRANCH 53 54
BRANCH 53 57
ATOM     57  CB  ASP D 210     -21.806   7.774  20.051  1.00 31.88 LIG 0.15  C 
BRANCH 57 58
ATOM     58  CG  ASP D 210     -22.109   6.350  20.456  1.00 32.06 LIG 0.17  C 
ATOM     59 OD2  ASP D 210     -21.699   5.407  19.743  1.00 32.64 LIG-0.65  OA
ATOM     60 OD1  ASP D 210     -22.771   6.177  21.496  1.00 34.58 LIG-0.65  OA
ENDBRANCH 57 58
ENDBRANCH 53 57
ENDBRANCH 51 53
ENDBRANCH 48 49
BRANCH 48 61
ATOM     61  CB  ASP D 209     -25.301  10.528  18.544  1.00 29.28 LIG 0.15  C 
BRANCH 61 62
ATOM     62  CG  ASP D 209     -24.028  11.053  17.919  1.00 30.36 LIG 0.17  C 
ATOM     63 OD2  ASP D 209     -23.946  12.273  17.671  1.00 30.91 LIG-0.65  OA
ATOM     64 OD1  ASP D 209     -23.118  10.239  17.651  1.00 31.75 LIG-0.65  OA
ENDBRANCH 61 62
ENDBRANCH 48 61
ENDBRANCH 45 48
ENDBRANCH 43 44
BRANCH 43 65
ATOM     65  CB  THR D 208     -24.588  14.632  20.713  1.00 25.82 LIG 0.15  C 
ATOM     66  CG2 THR D 208     -25.864  14.887  19.924  1.00 25.57 LIG 0.04  C 
BRANCH 65 67
ATOM     67 OG1  THR D 208     -23.945  15.882  20.984  1.00 26.97 LIG-0.39  OA
ATOM     68 HG1  THR D 208     -24.117  16.121  21.770  1.00 26.97 LIG 0.21  HD
ENDBRANCH 65 67
ENDBRANCH 43 65
ENDBRANCH 40 43
ENDBRANCH 37 39
ENDBRANCH 3 37
TORSDOF 25
ENDMDL
MODEL 13
USER: ADFR SOLUTION from run 200
USER: SCORE 17.418985 LL:  -3.521 LR: -15.851 RR:   0.000 FEB:  -8.393
USER: RMSD 2.962645
USER: SEED 199
USER: STATUS searching
USER: GENES 27
USER: genes 0 Translation |==|  0.48347 0.52981 0.49930
USER: genes 1 Rotation |==|  0.49510 0.47940 0.50820 0.99948
USER: genes 2 Torsion [N]-C--CA-[N] |==|  0.37776
USER: genes 3 Torsion [C]-CA--CB-[CG] |==|  0.58518
USER: genes 4 Torsion [CA]-CB--CG-[CD] |==|  0.65820
USER: genes 5 Torsion [CB]-CG--CD-[NE2] |==|  0.09851
USER: genes 6 Torsion [C]-CA--N-[C] |==|  0.83510
USER: genes 7 Torsion [N]-C--CA-[N] |==|  0.32975
USER: genes 8 Torsion [C]-CA--N-[C] |==|  0.75602
USER: genes 9 Torsion [N]-C--CA-[N] |==|  0.21913
USER: genes 10 Torsion [C]-CA--CB-[CG] |==|  0.46170
USER: genes 11 Torsion [CA]-CB--CG-[CD] |==|  0.22655
USER: genes 12 Torsion [CB]-CG--CD-[NE2] |==|  0.11859
USER: genes 13 Torsion [C]-N--CA-[CB] |==|  0.50591
USER: genes 14 Torsion [N]-CA--C-[N] |==|  0.40084
USER: genes 15 Torsion [C]-N--CA-[CB] |==|  0.39115
USER: genes 16 Torsion [N]-CA--C-[N] |==|  0.85646
USER: genes 17 Torsion [C]-N--CA-[C] |==|  0.66022
USER: genes 18 Torsion [N]-CA--C-[N] |==|  0.39711
USER: genes 19 Torsion [C]-N--CA-[C] |==|  0.73130
USER: genes 20 Torsion [N]-CA--C-[O] |==|  0.78515
USER: genes 21 Torsion [N]-CA--CB-[CG] |==|  0.62927
USER: genes 22 Torsion [CA]-CB--CG-[OD2] |==|  0.30887
USER: genes 23 Torsion [N]-CA--CB-[CG] |==|  0.83863
USER: genes 24 Torsion [CA]-CB--CG-[OD2] |==|  0.37490
USER: genes 25 Torsion [N]-CA--CB-[OG1] |==|  0.94305
USER: genes 26 Torsion [CA]-CB--OG1-[HG1] |==|  0.12879
ROOT
ATOM      1  C   GLN D 206     -22.017  12.449  28.447  1.00 23.02 LIG 0.24  C 
ATOM      2 O    GLN D 206     -22.666  13.448  28.757  1.00 23.21 LIG-0.27  OA
ATOM      3  N   ALA D 207     -21.527  12.245  27.227  1.00 22.72 LIG-0.35  N 
ATOM      4 H    ALA D 207     -21.046  11.565  27.013  1.00 22.72 LIG 0.16  HD
ENDROOT
BRANCH 1 5
ATOM      5  CA  GLN D 206     -21.718  11.363  29.468  1.00 22.90 LIG 0.18  C 
BRANCH 5 6
ATOM      6  CB  GLN D 206     -22.955  10.467  29.614  1.00 23.00 LIG 0.04  C 
BRANCH 6 7
ATOM      7  CG  GLN D 206     -23.141   9.846  31.000  1.00 22.87 LIG 0.10  C 
BRANCH 7 8
ATOM      8  CD  GLN D 206     -23.211   8.330  30.942  1.00 23.72 LIG 0.21  C 
ATOM      9  NE2 GLN D 206     -22.445   7.730  30.033  1.00 23.17 LIG-0.37  N 
ATOM     10 21HE GLN D 206     -21.946   8.200  29.514  1.00 23.17 LIG 0.16  HD
ATOM     11 22HE GLN D 206     -22.449   6.873  29.966  1.00 23.17 LIG 0.16  HD
ATOM     12 OE1  GLN D 206     -23.942   7.707  31.708  1.00 23.11 LIG-0.27  OA
ENDBRANCH 7 8
ENDBRANCH 6 7
ENDBRANCH 5 6
BRANCH 5 13
ATOM     13  N   GLN D 206     -21.306  11.868  30.770  1.00 22.83 LIG-0.35  N 
ATOM     14 H    GLN D 206     -21.813  11.628  31.421  1.00 22.83 LIG 0.16  HD
ATOM     15  C   GLN D 205     -20.230  12.636  30.913  1.00 23.49 LIG 0.24  C 
ATOM     16 O    GLN D 205     -19.527  12.997  29.968  1.00 22.46 LIG-0.27  OA
BRANCH 15 17
ATOM     17  CA  GLN D 205     -19.895  13.063  32.331  1.00 24.37 LIG 0.18  C 
BRANCH 17 18
ATOM     18  N   GLN D 205     -18.579  12.531  32.655  1.00 25.17 LIG-0.35  N 
ATOM     19 H    GLN D 205     -17.932  13.071  32.484  1.00 25.17 LIG 0.16  HD
ATOM     20  C   PRO D 204     -18.404  11.318  33.168  1.00 27.23 LIG 0.24  C 
ATOM     21 O    PRO D 204     -19.331  10.557  33.429  1.00 27.18 LIG-0.27  OA
BRANCH 20 22
ATOM     22  CA  PRO D 204     -16.958  10.889  33.409  1.00 28.49 LIG 0.18  C 
ATOM     23  N   PRO D 204     -16.424  11.488  34.635  1.00 30.00 LIG-0.34  N 
ATOM     24  CD  PRO D 204     -16.515  10.513  35.726  1.00 30.13 LIG 0.13  C 
ATOM     25  C   ACE D 203     -15.905  12.723  34.706  1.00 30.58 LIG 0.22  C 
ATOM     26  CG  PRO D 204     -16.072   9.290  35.012  1.00 30.43 LIG 0.02  C 
ATOM     27  CB  PRO D 204     -16.888   9.385  33.704  1.00 28.78 LIG 0.04  C 
ATOM     28  CH3 ACE D 203     -15.395  13.201  36.050  1.00 31.20 LIG 0.12  C 
ATOM     29 O    ACE D 203     -15.834  13.453  33.718  1.00 31.12 LIG-0.27  OA
ENDBRANCH 20 22
ENDBRANCH 17 18
BRANCH 17 30
ATOM     30  CB  GLN D 205     -19.908  14.587  32.436  1.00 24.72 LIG 0.04  C 
BRANCH 30 31
ATOM     31  CG  GLN D 205     -19.915  15.087  33.863  1.00 27.03 LIG 0.10  C 
BRANCH 31 32
ATOM     32  CD  GLN D 205     -18.536  15.098  34.483  1.00 28.11 LIG 0.21  C 
ATOM     33  NE2 GLN D 205     -17.550  15.546  33.716  1.00 29.45 LIG-0.37  N 
ATOM     34 21HE GLN D 205     -17.716  15.815  32.916  1.00 29.45 LIG 0.16  HD
ATOM     35 22HE GLN D 205     -16.745  15.566  34.019  1.00 29.45 LIG 0.16  HD
ATOM     36 OE1  GLN D 205     -18.354  14.702  35.633  1.00 29.17 LIG-0.27  OA
ENDBRANCH 31 32
ENDBRANCH 30 31
ENDBRANCH 17 30
ENDBRANCH 15 17
ENDBRANCH 5 13
ENDBRANCH 1 5
BRANCH 3 37
ATOM     37  CA  ALA D 207     -21.769  13.173  26.130  1.00 22.93 LIG 0.17  C 
ATOM     38  CB  ALA D 207     -21.130  12.646  24.861  1.00 22.72 LIG 0.04  C 
BRANCH 37 39
ATOM     39  C   ALA D 207     -23.293  13.251  25.974  1.00 23.32 LIG 0.24  C 
ATOM     40  N   THR D 208     -23.825  14.422  25.637  1.00 24.11 LIG-0.34  N 
ATOM     41 H    THR D 208     -23.374  15.136  25.476  1.00 24.11 LIG 0.16  HD
ATOM     42 O    ALA D 207     -23.978  12.246  26.149  1.00 22.54 LIG-0.27  OA
BRANCH 40 43
ATOM     43  CA  THR D 208     -25.274  14.564  25.514  1.00 25.74 LIG 0.20  C 
BRANCH 43 44
ATOM     44  C   THR D 208     -25.894  14.415  24.126  1.00 27.84 LIG 0.24  C 
ATOM     45  N   ASP D 209     -25.392  15.137  23.131  1.00 27.84 LIG-0.34  N 
ATOM     46 H    ASP D 209     -24.721  15.672  23.197  1.00 27.84 LIG 0.16  HD
ATOM     47 O    THR D 208     -26.833  13.635  23.957  1.00 27.83 LIG-0.27  OA
BRANCH 45 48
ATOM     48  CA  ASP D 209     -25.995  15.046  21.803  1.00 29.52 LIG 0.19  C 
BRANCH 48 49
ATOM     49  C   ASP D 209     -25.111  14.624  20.634  1.00 30.14 LIG 0.24  C 
ATOM     50 O    ASP D 209     -23.945  15.008  20.593  1.00 31.34 LIG-0.27  OA
ATOM     51  N   ASP D 210     -25.636  13.848  19.693  1.00 30.20 LIG-0.34  N 
ATOM     52 H    ASP D 210     -26.448  13.563  19.691  1.00 30.20 LIG 0.16  HD
BRANCH 51 53
ATOM     53  CA  ASP D 210     -24.826  13.413  18.553  1.00 30.95 LIG 0.20  C 
BRANCH 53 54
ATOM     54  C   ASP D 210     -25.012  14.280  17.306  1.00 31.44 LIG 0.20  C 
ATOM     55 O    ASP D 210     -26.040  14.115  16.618  1.00 30.73 LIG-0.65  OA
ATOM     56 OXT  ASP D 210     -24.128  15.120  17.033  1.00 31.53 LIG-0.65  OA
ENDBRANCH 53 54
BRANCH 53 57
ATOM     57  CB  ASP D 210     -25.127  11.947  18.218  1.00 31.88 LIG 0.15  C 
BRANCH 57 58
ATOM     58  CG  ASP D 210     -23.876  11.126  18.004  1.00 32.06 LIG 0.17  C 
ATOM     59 OD2  ASP D 210     -23.570  10.244  18.836  1.00 32.64 LIG-0.65  OA
ATOM     60 OD1  ASP D 210     -23.192  11.375  16.994  1.00 34.58 LIG-0.65  OA
ENDBRANCH 57 58
ENDBRANCH 53 57
ENDBRANCH 51 53
ENDBRANCH 48 49
BRANCH 48 61
ATOM     61  CB  ASP D 209     -26.639  16.382  21.433  1.00 29.28 LIG 0.15  C 
BRANCH 61 62
ATOM     62  CG  ASP D 209     -27.691  16.812  22.430  1.00 30.36 LIG 0.17  C 
ATOM     63 OD2  ASP D 209     -27.695  17.998  22.818  1.00 30.91 LIG-0.65  OA
ATOM     64 OD1  ASP D 209     -28.500  15.955  22.847  1.00 31.75 LIG-0.65  OA
ENDBRANCH 61 62
ENDBRANCH 48 61
ENDBRANCH 45 48
ENDBRANCH 43 44
BRANCH 43 65
ATOM     65  CB  THR D 208     -25.760  15.923  26.072  1.00 25.82 LIG 0.15  C 
ATOM     66  CG2 THR D 208     -27.077  15.758  26.817  1.00 25.57 LIG 0.04  C 
BRANCH 65 67
ATOM     67 OG1  THR D 208     -24.777  16.456  26.965  1.00 26.97 LIG-0.39  OA
ATOM     68 HG1  THR D 208     -24.017  16.394  26.614  1.00 26.97 LIG 0.21  HD
ENDBRANCH 65 67
ENDBRANCH 43 65
ENDBRANCH 40 43
ENDBRANCH 37 39
ENDBRANCH 3 37
TORSDOF 25
ENDMDL
