MODEL 1
USER: ADFR SOLUTION from run 159
USER: SCORE 16.793392 LL:  -3.378 LR: -14.662 RR:   0.000 FEB:  -9.293
USER: RMSD 1.486857
USER: SEED 158
USER: STATUS no improvement in best in 1 clusters for 5 generations
USER: GENES 20
USER: genes 0 Translation |==|  0.51690 0.43419 0.52861
USER: genes 1 Rotation |==|  0.49540 0.50708 0.49328 0.99988
USER: genes 2 Torsion [C]-CA--N-[C] |==|  0.83827
USER: genes 3 Torsion [N]-C--CA-[N] |==|  0.32028
USER: genes 4 Torsion [C]-CA--N-[C] |==|  0.78257
USER: genes 5 Torsion [N]-C--CA-[CB] |==|  0.58133
USER: genes 6 Torsion [C]-CA--CB-[CG2] |==|  0.46003
USER: genes 7 Torsion [N]-CA--C-[N] |==|  0.39480
USER: genes 8 Torsion [C]-N--CA-[CB] |==|  0.50000
USER: genes 9 Torsion [N]-CA--CB-[CG] |==|  0.14665
USER: genes 10 Torsion [CA]-CB--CG-[CD] |==|  0.49761
USER: genes 11 Torsion [CB]-CG--CD-[OE2] |==|  0.47038
USER: genes 12 Torsion [N]-CA--C-[N] |==|  0.34511
USER: genes 13 Torsion [C]-N--CA-[CB] |==|  0.83351
USER: genes 14 Torsion [N]-CA--CB-[CG2] |==|  0.54493
USER: genes 15 Torsion [CA]-CB--OG1-[HG1] |==|  0.84507
USER: genes 16 Torsion [N]-CA--C-[N] |==|  0.32529
USER: genes 17 Torsion [N]-CA--CB-[CG] |==|  0.77316
USER: genes 18 Torsion [CA]-CB--CG-[CD] |==|  0.50817
USER: genes 19 Torsion [CB]-CG--CD-[NE2] |==|  0.44477
ROOT
ATOM      1  CA  GLN I 252      24.386   5.334 -18.730  1.00 16.23 LIG 0.18  C 
ENDROOT
BRANCH 1 2
ATOM      2  N   GLN I 252      24.045   5.049 -20.121  1.00 16.34 LIG-0.35  N 
ATOM      3  C   VAL I 251      22.961   5.593 -20.676  1.00 18.16 LIG 0.24  C 
ATOM      4 O    VAL I 251      22.198   6.347 -20.059  1.00 14.74 LIG-0.27  OA
ATOM      5 H    GLN I 252      24.588   4.519 -20.527  1.00 16.34 LIG 0.16  HD
BRANCH 3 6
ATOM      6  CA  VAL I 251      22.679   5.236 -22.140  1.00 17.69 LIG 0.18  C 
BRANCH 6 7
ATOM      7  N   VAL I 251      21.430   4.496 -22.152  1.00 18.42 LIG-0.35  N 
ATOM      8  C   PRO I 250      21.330   3.216 -21.814  1.00 18.71 LIG 0.24  C 
ATOM      9 O    PRO I 250      22.288   2.529 -21.457  1.00 17.39 LIG-0.27  OA
ATOM     10 H    VAL I 251      20.755   4.967 -22.399  1.00 18.42 LIG 0.16  HD
BRANCH 8 11
ATOM     11  CA  PRO I 250      19.923   2.631 -21.859  1.00 18.98 LIG 0.18  C 
ATOM     12  CB  PRO I 250      19.781   1.499 -20.831  1.00 18.07 LIG 0.04  C 
ATOM     13  CG  PRO I 250      19.221   0.327 -21.636  1.00 16.66 LIG 0.02  C 
ATOM     14  CD  PRO I 250      19.846   0.509 -22.964  1.00 18.50 LIG 0.13  C 
ATOM     15  N   PRO I 250      19.679   1.955 -23.139  1.00 18.66 LIG-0.34  N 
ATOM     16  C   ACE I 249      19.379   2.594 -24.279  1.00 19.73 LIG 0.22  C 
ATOM     17 O    ACE I 249      19.297   3.829 -24.336  1.00 18.17 LIG-0.27  OA
ATOM     18  CH3 ACE I 249      19.154   1.747 -25.516  1.00 18.86 LIG 0.12  C 
ENDBRANCH 8 11
ENDBRANCH 6 7
BRANCH 6 19
ATOM     19  CB  VAL I 251      22.548   6.532 -22.991  1.00 19.17 LIG 0.01  C 
ATOM     20  CG2 VAL I 251      22.626   6.182 -24.469  1.00 18.02 LIG 0.01  C 
ATOM     21  CG1 VAL I 251      23.646   7.527 -22.637  1.00 18.69 LIG 0.01  C 
ENDBRANCH 6 19
ENDBRANCH 3 6
ENDBRANCH 1 2
BRANCH 1 22
ATOM     22  C   GLN I 252      24.571   6.815 -18.498  1.00 16.56 LIG 0.24  C 
ATOM     23 O    GLN I 252      25.111   7.528 -19.347  1.00 16.02 LIG-0.27  OA
ATOM     24  N   GLU I 253      24.118   7.277 -17.335  1.00 16.36 LIG-0.35  N 
ATOM     25 H    GLU I 253      23.731   6.795 -16.739  1.00 16.36 LIG 0.16  HD
BRANCH 24 26
ATOM     26  CA  GLU I 253      24.256   8.681 -16.990  1.00 16.29 LIG 0.18  C 
BRANCH 26 27
ATOM     27  CB  GLU I 253      23.663   8.972 -15.607  1.00 17.20 LIG 0.04  C 
BRANCH 27 28
ATOM     28  CG  GLU I 253      24.185   8.079 -14.508  1.00 17.14 LIG 0.12  C 
BRANCH 28 29
ATOM     29  CD  GLU I 253      23.592   8.406 -13.142  1.00 16.40 LIG 0.17  C 
ATOM     30 OE2  GLU I 253      23.793   7.608 -12.197  1.00 15.77 LIG-0.65  OA
ATOM     31 OE1  GLU I 253      22.951   9.470 -13.007  1.00 15.17 LIG-0.65  OA
ENDBRANCH 28 29
ENDBRANCH 27 28
ENDBRANCH 26 27
BRANCH 26 32
ATOM     32  C   GLU I 253      25.741   8.976 -16.959  1.00 17.65 LIG 0.24  C 
ATOM     33 O    GLU I 253      26.503   8.342 -16.229  1.00 15.54 LIG-0.27  OA
ATOM     34  N   THR I 254      26.121   9.969 -17.751  1.00 18.98 LIG-0.34  N 
ATOM     35 H    THR I 254      25.565  10.406 -18.240  1.00 18.98 LIG 0.16  HD
BRANCH 34 36
ATOM     36  CA  THR I 254      27.490  10.436 -17.891  1.00 17.93 LIG 0.21  C 
BRANCH 36 37
ATOM     37  CB  THR I 254      27.998  10.914 -16.514  1.00 16.77 LIG 0.15  C 
ATOM     38  CG2 THR I 254      29.218  11.745 -16.651  1.00 17.84 LIG 0.04  C 
BRANCH 37 39
ATOM     39 OG1  THR I 254      26.959  11.628 -15.832  1.00 18.79 LIG-0.39  OA
ATOM     40 HG1  THR I 254      26.689  12.260 -16.315  1.00 18.79 LIG 0.21  HD
ENDBRANCH 37 39
ENDBRANCH 36 37
BRANCH 36 41
ATOM     41  C   THR I 254      28.408   9.333 -18.450  1.00 19.04 LIG 0.29  C 
ATOM     42 O    THR I 254      28.547   8.292 -17.782  1.00 18.19 LIG-0.27  OA
ATOM     43  N   NH2 I 255      28.968   9.502 -19.558  1.00 17.54 LIG-0.11  N 
ENDBRANCH 36 41
ENDBRANCH 34 36
ENDBRANCH 26 32
ENDBRANCH 24 26
ENDBRANCH 1 22
BRANCH 1 44
ATOM     44  CB  GLN I 252      25.670   4.626 -18.294  1.00 17.05 LIG 0.04  C 
BRANCH 44 45
ATOM     45  CG  GLN I 252      25.504   3.168 -17.892  1.00 16.15 LIG 0.10  C 
BRANCH 45 46
ATOM     46  CD  GLN I 252      26.809   2.567 -17.408  1.00 17.21 LIG 0.21  C 
ATOM     47  NE2 GLN I 252      26.720   1.468 -16.663  1.00 17.56 LIG-0.37  N 
ATOM     48 21HE GLN I 252      25.949   1.134 -16.480  1.00 17.56 LIG 0.16  HD
ATOM     49 22HE GLN I 252      27.434   1.093 -16.365  1.00 17.56 LIG 0.16  HD
ATOM     50 OE1  GLN I 252      27.882   3.084 -17.698  1.00 16.83 LIG-0.27  OA
ENDBRANCH 45 46
ENDBRANCH 44 45
ENDBRANCH 1 44
TORSDOF 18
ENDMDL
MODEL 2
USER: ADFR SOLUTION from run 141
USER: SCORE 15.808621 LL:  -3.676 LR: -13.836 RR:   0.000 FEB:  -8.467
USER: RMSD 3.996930
USER: SEED 140
USER: STATUS 1 or 2 clusters left
USER: GENES 20
USER: genes 0 Translation |==|  0.54458 0.50458 0.52944
USER: genes 1 Rotation |==|  0.56207 0.90307 0.78172 0.56571
USER: genes 2 Torsion [C]-CA--N-[C] |==|  0.58878
USER: genes 3 Torsion [N]-C--CA-[N] |==|  0.33824
USER: genes 4 Torsion [C]-CA--N-[C] |==|  0.55686
USER: genes 5 Torsion [N]-C--CA-[CB] |==|  0.12217
USER: genes 6 Torsion [C]-CA--CB-[CG2] |==|  0.13096
USER: genes 7 Torsion [N]-CA--C-[N] |==|  0.58245
USER: genes 8 Torsion [C]-N--CA-[CB] |==|  0.86554
USER: genes 9 Torsion [N]-CA--CB-[CG] |==|  0.34624
USER: genes 10 Torsion [CA]-CB--CG-[CD] |==|  0.50418
USER: genes 11 Torsion [CB]-CG--CD-[OE2] |==|  0.32786
USER: genes 12 Torsion [N]-CA--C-[N] |==|  0.36870
USER: genes 13 Torsion [C]-N--CA-[CB] |==|  0.22778
USER: genes 14 Torsion [N]-CA--CB-[CG2] |==|  0.70016
USER: genes 15 Torsion [CA]-CB--OG1-[HG1] |==|  0.10505
USER: genes 16 Torsion [N]-CA--C-[N] |==|  0.02401
USER: genes 17 Torsion [N]-CA--CB-[CG] |==|  0.81619
USER: genes 18 Torsion [CA]-CB--CG-[CD] |==|  0.30291
USER: genes 19 Torsion [CB]-CG--CD-[NE2] |==|  0.36978
ROOT
ATOM      1  CA  GLN I 252      24.905   6.812 -18.712  1.00 16.23 LIG 0.18  C 
ENDROOT
BRANCH 1 2
ATOM      2  N   GLN I 252      24.671   5.390 -18.478  1.00 16.34 LIG-0.35  N 
ATOM      3  C   VAL I 251      25.197   4.476 -19.295  1.00 18.16 LIG 0.24  C 
ATOM      4 O    VAL I 251      25.889   4.772 -20.277  1.00 14.74 LIG-0.27  OA
ATOM      5 H    GLN I 252      24.183   5.209 -17.793  1.00 16.34 LIG 0.16  HD
BRANCH 3 6
ATOM      6  CA  VAL I 251      24.898   3.006 -18.975  1.00 17.69 LIG 0.18  C 
BRANCH 6 7
ATOM      7  N   VAL I 251      24.245   2.453 -20.149  1.00 18.42 LIG-0.35  N 
ATOM      8  C   PRO I 250      23.497   1.357 -20.127  1.00 18.71 LIG 0.24  C 
ATOM      9 O    PRO I 250      23.283   0.699 -19.108  1.00 17.39 LIG-0.27  OA
ATOM     10 H    VAL I 251      24.388   2.906 -20.865  1.00 18.42 LIG 0.16  HD
BRANCH 8 11
ATOM     11  CA  PRO I 250      22.871   0.960 -21.459  1.00 18.98 LIG 0.18  C 
ATOM     12  CB  PRO I 250      23.900   1.087 -22.592  1.00 18.07 LIG 0.04  C 
ATOM     13  CG  PRO I 250      23.195   1.938 -23.648  1.00 16.66 LIG 0.02  C 
ATOM     14  CD  PRO I 250      22.364   2.852 -22.835  1.00 18.50 LIG 0.13  C 
ATOM     15  N   PRO I 250      21.824   1.912 -21.848  1.00 18.66 LIG-0.34  N 
ATOM     16  C   ACE I 249      20.583   1.909 -21.339  1.00 19.73 LIG 0.22  C 
ATOM     17 O    ACE I 249      20.230   1.093 -20.477  1.00 18.17 LIG-0.27  OA
ATOM     18  CH3 ACE I 249      19.617   2.960 -21.851  1.00 18.86 LIG 0.12  C 
ENDBRANCH 8 11
ENDBRANCH 6 7
BRANCH 6 19
ATOM     19  CB  VAL I 251      26.221   2.243 -18.682  1.00 19.17 LIG 0.01  C 
ATOM     20  CG2 VAL I 251      27.073   3.053 -17.716  1.00 18.02 LIG 0.01  C 
ATOM     21  CG1 VAL I 251      26.999   1.989 -19.968  1.00 18.69 LIG 0.01  C 
ENDBRANCH 6 19
ENDBRANCH 3 6
ENDBRANCH 1 2
BRANCH 1 22
ATOM     22  C   GLN I 252      24.946   7.586 -17.415  1.00 16.56 LIG 0.24  C 
ATOM     23 O    GLN I 252      25.330   7.055 -16.370  1.00 16.02 LIG-0.27  OA
ATOM     24  N   GLU I 253      24.544   8.852 -17.487  1.00 16.36 LIG-0.35  N 
ATOM     25 H    GLU I 253      24.282   9.238 -18.209  1.00 16.36 LIG 0.16  HD
BRANCH 24 26
ATOM     26  CA  GLU I 253      24.520   9.692 -16.302  1.00 16.29 LIG 0.18  C 
BRANCH 26 27
ATOM     27  CB  GLU I 253      23.832   8.980 -15.133  1.00 17.20 LIG 0.04  C 
BRANCH 27 28
ATOM     28  CG  GLU I 253      24.672   8.889 -13.882  1.00 17.14 LIG 0.12  C 
BRANCH 28 29
ATOM     29  CD  GLU I 253      23.975   8.144 -12.748  1.00 16.40 LIG 0.17  C 
ATOM     30 OE2  GLU I 253      24.496   7.088 -12.318  1.00 15.77 LIG-0.65  OA
ATOM     31 OE1  GLU I 253      22.927   8.627 -12.270  1.00 15.17 LIG-0.65  OA
ENDBRANCH 28 29
ENDBRANCH 27 28
ENDBRANCH 26 27
BRANCH 26 32
ATOM     32  C   GLU I 253      25.964   9.962 -15.933  1.00 17.65 LIG 0.24  C 
ATOM     33 O    GLU I 253      26.786   9.048 -15.864  1.00 15.54 LIG-0.27  OA
ATOM     34  N   THR I 254      26.236  11.232 -15.674  1.00 18.98 LIG-0.34  N 
ATOM     35 H    THR I 254      25.639  11.849 -15.714  1.00 18.98 LIG 0.16  HD
BRANCH 34 36
ATOM     36  CA  THR I 254      27.547  11.734 -15.297  1.00 17.93 LIG 0.21  C 
BRANCH 36 37
ATOM     37  CB  THR I 254      28.391  11.935 -16.573  1.00 16.77 LIG 0.15  C 
ATOM     38  CG2 THR I 254      29.455  10.909 -16.681  1.00 17.84 LIG 0.04  C 
BRANCH 37 39
ATOM     39 OG1  THR I 254      27.541  11.922 -17.728  1.00 18.79 LIG-0.39  OA
ATOM     40 HG1  THR I 254      26.819  12.312 -17.549  1.00 18.79 LIG 0.21  HD
ENDBRANCH 37 39
ENDBRANCH 36 37
BRANCH 36 41
ATOM     41  C   THR I 254      27.441  13.053 -14.509  1.00 19.04 LIG 0.29  C 
ATOM     42 O    THR I 254      28.489  13.687 -14.285  1.00 18.19 LIG-0.27  OA
ATOM     43  N   NH2 I 255      26.316  13.459 -14.137  1.00 17.54 LIG-0.11  N 
ENDBRANCH 36 41
ENDBRANCH 34 36
ENDBRANCH 26 32
ENDBRANCH 24 26
ENDBRANCH 1 22
BRANCH 1 44
ATOM     44  CB  GLN I 252      23.825   7.435 -19.598  1.00 17.05 LIG 0.04  C 
BRANCH 44 45
ATOM     45  CG  GLN I 252      23.788   6.930 -21.032  1.00 16.15 LIG 0.10  C 
BRANCH 45 46
ATOM     46  CD  GLN I 252      22.572   6.063 -21.292  1.00 17.21 LIG 0.21  C 
ATOM     47  NE2 GLN I 252      21.882   6.319 -22.400  1.00 17.56 LIG-0.37  N 
ATOM     48 21HE GLN I 252      22.135   6.950 -22.928  1.00 17.56 LIG 0.16  HD
ATOM     49 22HE GLN I 252      21.184   5.855 -22.588  1.00 17.56 LIG 0.16  HD
ATOM     50 OE1  GLN I 252      22.256   5.177 -20.507  1.00 16.83 LIG-0.27  OA
ENDBRANCH 45 46
ENDBRANCH 44 45
ENDBRANCH 1 44
TORSDOF 18
ENDMDL
MODEL 3
USER: ADFR SOLUTION from run 99
USER: SCORE 15.551468 LL:  -3.494 LR: -13.496 RR:   0.000 FEB:  -8.127
USER: RMSD 2.471447
USER: SEED 98
USER: STATUS no improvement in best in 6 clusters for 5 generations
USER: GENES 20
USER: genes 0 Translation |==|  0.53511 0.41535 0.53091
USER: genes 1 Rotation |==|  0.52134 0.51630 0.46940 0.99834
USER: genes 2 Torsion [C]-CA--N-[C] |==|  0.81078
USER: genes 3 Torsion [N]-C--CA-[N] |==|  0.33474
USER: genes 4 Torsion [C]-CA--N-[C] |==|  0.81176
USER: genes 5 Torsion [N]-C--CA-[CB] |==|  0.56303
USER: genes 6 Torsion [C]-CA--CB-[CG2] |==|  0.49824
USER: genes 7 Torsion [N]-CA--C-[N] |==|  0.24697
USER: genes 8 Torsion [C]-N--CA-[CB] |==|  0.78333
USER: genes 9 Torsion [N]-CA--CB-[CG] |==|  0.83123
USER: genes 10 Torsion [CA]-CB--CG-[CD] |==|  0.72711
USER: genes 11 Torsion [CB]-CG--CD-[OE2] |==|  0.65743
USER: genes 12 Torsion [N]-CA--C-[N] |==|  0.13617
USER: genes 13 Torsion [C]-N--CA-[CB] |==|  0.76263
USER: genes 14 Torsion [N]-CA--CB-[CG2] |==|  0.58051
USER: genes 15 Torsion [CA]-CB--OG1-[HG1] |==|  0.17563
USER: genes 16 Torsion [N]-CA--C-[N] |==|  0.18478
USER: genes 17 Torsion [N]-CA--CB-[CG] |==|  0.79114
USER: genes 18 Torsion [CA]-CB--CG-[CD] |==|  0.51909
USER: genes 19 Torsion [CB]-CG--CD-[NE2] |==|  0.35865
ROOT
ATOM      1  CA  GLN I 252      24.727   4.938 -18.680  1.00 16.23 LIG 0.18  C 
ENDROOT
BRANCH 1 2
ATOM      2  N   GLN I 252      24.319   4.833 -20.078  1.00 16.34 LIG-0.35  N 
ATOM      3  C   VAL I 251      23.170   5.373 -20.489  1.00 18.16 LIG 0.24  C 
ATOM      4 O    VAL I 251      22.400   5.973 -19.727  1.00 14.74 LIG-0.27  OA
ATOM      5 H    GLN I 252      24.868   4.408 -20.586  1.00 16.34 LIG 0.16  HD
BRANCH 3 6
ATOM      6  CA  VAL I 251      22.820   5.212 -21.973  1.00 17.69 LIG 0.18  C 
BRANCH 6 7
ATOM      7  N   VAL I 251      21.556   4.501 -22.024  1.00 18.42 LIG-0.35  N 
ATOM      8  C   PRO I 250      21.408   3.235 -21.654  1.00 18.71 LIG 0.24  C 
ATOM      9 O    PRO I 250      22.330   2.537 -21.230  1.00 17.39 LIG-0.27  OA
ATOM     10 H    VAL I 251      20.905   4.980 -22.318  1.00 18.42 LIG 0.16  HD
BRANCH 8 11
ATOM     11  CA  PRO I 250      19.990   2.681 -21.752  1.00 18.98 LIG 0.18  C 
ATOM     12  CB  PRO I 250      19.821   1.477 -20.814  1.00 18.07 LIG 0.04  C 
ATOM     13  CG  PRO I 250      19.246   0.380 -21.709  1.00 16.66 LIG 0.02  C 
ATOM     14  CD  PRO I 250      19.883   0.651 -23.015  1.00 18.50 LIG 0.13  C 
ATOM     15  N   PRO I 250      19.744   2.110 -23.081  1.00 18.66 LIG-0.34  N 
ATOM     16  C   ACE I 249      19.464   2.839 -24.170  1.00 19.73 LIG 0.22  C 
ATOM     17 O    ACE I 249      19.404   4.076 -24.133  1.00 18.17 LIG-0.27  OA
ATOM     18  CH3 ACE I 249      19.231   2.093 -25.470  1.00 18.86 LIG 0.12  C 
ENDBRANCH 8 11
ENDBRANCH 6 7
BRANCH 6 19
ATOM     19  CB  VAL I 251      22.684   6.609 -22.644  1.00 19.17 LIG 0.01  C 
ATOM     20  CG2 VAL I 251      22.352   6.435 -24.119  1.00 18.02 LIG 0.01  C 
ATOM     21  CG1 VAL I 251      23.970   7.412 -22.495  1.00 18.69 LIG 0.01  C 
ENDBRANCH 6 19
ENDBRANCH 3 6
ENDBRANCH 1 2
BRANCH 1 22
ATOM     22  C   GLN I 252      25.065   6.363 -18.307  1.00 16.56 LIG 0.24  C 
ATOM     23 O    GLN I 252      26.217   6.790 -18.412  1.00 16.02 LIG-0.27  OA
ATOM     24  N   GLU I 253      24.048   7.099 -17.867  1.00 16.36 LIG-0.35  N 
ATOM     25 H    GLU I 253      23.239   6.818 -17.797  1.00 16.36 LIG 0.16  HD
BRANCH 24 26
ATOM     26  CA  GLU I 253      24.252   8.478 -17.460  1.00 16.29 LIG 0.18  C 
BRANCH 26 27
ATOM     27  CB  GLU I 253      24.878   8.557 -16.063  1.00 17.20 LIG 0.04  C 
BRANCH 27 28
ATOM     28  CG  GLU I 253      24.039   7.934 -14.972  1.00 17.14 LIG 0.12  C 
BRANCH 28 29
ATOM     29  CD  GLU I 253      23.220   8.958 -14.193  1.00 16.40 LIG 0.17  C 
ATOM     30 OE2  GLU I 253      23.367   9.019 -12.950  1.00 15.77 LIG-0.65  OA
ATOM     31 OE1  GLU I 253      22.453   9.716 -14.824  1.00 15.17 LIG-0.65  OA
ENDBRANCH 28 29
ENDBRANCH 27 28
ENDBRANCH 26 27
BRANCH 26 32
ATOM     32  C   GLU I 253      25.209   9.089 -18.462  1.00 17.65 LIG 0.24  C 
ATOM     33 O    GLU I 253      26.186   9.743 -18.095  1.00 15.54 LIG-0.27  OA
ATOM     34  N   THR I 254      24.885   8.880 -19.729  1.00 18.98 LIG-0.34  N 
ATOM     35 H    THR I 254      24.188   8.432 -19.959  1.00 18.98 LIG 0.16  HD
BRANCH 34 36
ATOM     36  CA  THR I 254      25.647   9.367 -20.867  1.00 17.93 LIG 0.21  C 
BRANCH 36 37
ATOM     37  CB  THR I 254      25.199  10.808 -21.188  1.00 16.77 LIG 0.15  C 
ATOM     38  CG2 THR I 254      25.365  11.114 -22.629  1.00 17.84 LIG 0.04  C 
BRANCH 37 39
ATOM     39 OG1  THR I 254      23.842  11.001 -20.770  1.00 18.79 LIG-0.39  OA
ATOM     40 HG1  THR I 254      23.790  10.914 -19.936  1.00 18.79 LIG 0.21  HD
ENDBRANCH 37 39
ENDBRANCH 36 37
BRANCH 36 41
ATOM     41  C   THR I 254      27.162   9.322 -20.593  1.00 19.04 LIG 0.29  C 
ATOM     42 O    THR I 254      27.771  10.404 -20.495  1.00 18.19 LIG-0.27  OA
ATOM     43  N   NH2 I 255      27.730   8.214 -20.459  1.00 17.54 LIG-0.11  N 
ENDBRANCH 36 41
ENDBRANCH 34 36
ENDBRANCH 26 32
ENDBRANCH 24 26
ENDBRANCH 1 22
BRANCH 1 44
ATOM     44  CB  GLN I 252      25.947   4.069 -18.369  1.00 17.05 LIG 0.04  C 
BRANCH 44 45
ATOM     45  CG  GLN I 252      25.673   2.577 -18.261  1.00 16.15 LIG 0.10  C 
BRANCH 45 46
ATOM     46  CD  GLN I 252      26.894   1.813 -17.789  1.00 17.21 LIG 0.21  C 
ATOM     47  NE2 GLN I 252      26.720   0.984 -16.764  1.00 17.56 LIG-0.37  N 
ATOM     48 21HE GLN I 252      25.943   0.902 -16.404  1.00 17.56 LIG 0.16  HD
ATOM     49 22HE GLN I 252      27.384   0.530 -16.461  1.00 17.56 LIG 0.16  HD
ATOM     50 OE1  GLN I 252      27.979   1.968 -18.338  1.00 16.83 LIG-0.27  OA
ENDBRANCH 45 46
ENDBRANCH 44 45
ENDBRANCH 1 44
TORSDOF 18
ENDMDL
MODEL 4
USER: ADFR SOLUTION from run 167
USER: SCORE 15.264502 LL:  -3.783 LR: -13.236 RR:   0.000 FEB:  -7.867
USER: RMSD 2.445915
USER: SEED 166
USER: STATUS 1 or 2 clusters left
USER: GENES 20
USER: genes 0 Translation |==|  0.49936 0.45185 0.51432
USER: genes 1 Rotation |==|  0.51071 0.45512 0.49015 0.99777
USER: genes 2 Torsion [C]-CA--N-[C] |==|  0.80000
USER: genes 3 Torsion [N]-C--CA-[N] |==|  0.31426
USER: genes 4 Torsion [C]-CA--N-[C] |==|  0.73118
USER: genes 5 Torsion [N]-C--CA-[CB] |==|  0.14641
USER: genes 6 Torsion [C]-CA--CB-[CG2] |==|  0.55979
USER: genes 7 Torsion [N]-CA--C-[N] |==|  0.47499
USER: genes 8 Torsion [C]-N--CA-[CB] |==|  0.45541
USER: genes 9 Torsion [N]-CA--CB-[CG] |==|  0.13247
USER: genes 10 Torsion [CA]-CB--CG-[CD] |==|  0.47150
USER: genes 11 Torsion [CB]-CG--CD-[OE2] |==|  0.00188
USER: genes 12 Torsion [N]-CA--C-[N] |==|  0.29490
USER: genes 13 Torsion [C]-N--CA-[CB] |==|  0.84679
USER: genes 14 Torsion [N]-CA--CB-[CG2] |==|  0.38758
USER: genes 15 Torsion [CA]-CB--OG1-[HG1] |==|  0.22284
USER: genes 16 Torsion [N]-CA--C-[N] |==|  0.39826
USER: genes 17 Torsion [N]-CA--CB-[CG] |==|  0.75627
USER: genes 18 Torsion [CA]-CB--CG-[CD] |==|  0.20292
USER: genes 19 Torsion [CB]-CG--CD-[NE2] |==|  0.08725
ROOT
ATOM      1  CA  GLN I 252      24.057   5.705 -19.041  1.00 16.23 LIG 0.18  C 
ENDROOT
BRANCH 1 2
ATOM      2  N   GLN I 252      24.011   5.505 -20.486  1.00 16.34 LIG-0.35  N 
ATOM      3  C   VAL I 251      22.932   5.863 -21.184  1.00 18.16 LIG 0.24  C 
ATOM      4 O    VAL I 251      21.930   6.366 -20.659  1.00 14.74 LIG-0.27  OA
ATOM      5 H    GLN I 252      24.716   5.150 -20.827  1.00 16.34 LIG 0.16  HD
BRANCH 3 6
ATOM      6  CA  VAL I 251      22.970   5.614 -22.696  1.00 17.69 LIG 0.18  C 
BRANCH 6 7
ATOM      7  N   VAL I 251      21.976   4.592 -22.972  1.00 18.42 LIG-0.35  N 
ATOM      8  C   PRO I 250      22.260   3.301 -23.091  1.00 18.71 LIG 0.24  C 
ATOM      9 O    PRO I 250      23.397   2.841 -22.979  1.00 17.39 LIG-0.27  OA
ATOM     10 H    VAL I 251      21.178   4.903 -23.051  1.00 18.42 LIG 0.16  HD
BRANCH 8 11
ATOM     11  CA  PRO I 250      21.069   2.385 -23.347  1.00 18.98 LIG 0.18  C 
ATOM     12  CB  PRO I 250      20.256   2.888 -24.549  1.00 18.07 LIG 0.04  C 
ATOM     13  CG  PRO I 250      18.820   2.961 -24.029  1.00 16.66 LIG 0.02  C 
ATOM     14  CD  PRO I 250      19.000   3.341 -22.611  1.00 18.50 LIG 0.13  C 
ATOM     15  N   PRO I 250      20.109   2.456 -22.239  1.00 18.66 LIG-0.34  N 
ATOM     16  C   ACE I 249      20.265   1.817 -21.070  1.00 19.73 LIG 0.22  C 
ATOM     17 O    ACE I 249      21.259   1.117 -20.834  1.00 18.17 LIG-0.27  OA
ATOM     18  CH3 ACE I 249      19.177   1.992 -20.028  1.00 18.86 LIG 0.12  C 
ENDBRANCH 8 11
ENDBRANCH 6 7
BRANCH 6 19
ATOM     19  CB  VAL I 251      22.627   6.923 -23.463  1.00 19.17 LIG 0.01  C 
ATOM     20  CG2 VAL I 251      22.147   6.582 -24.866  1.00 18.02 LIG 0.01  C 
ATOM     21  CG1 VAL I 251      23.841   7.841 -23.541  1.00 18.69 LIG 0.01  C 
ENDBRANCH 6 19
ENDBRANCH 3 6
ENDBRANCH 1 2
BRANCH 1 22
ATOM     22  C   GLN I 252      24.198   7.167 -18.688  1.00 16.56 LIG 0.24  C 
ATOM     23 O    GLN I 252      24.426   8.011 -19.559  1.00 16.02 LIG-0.27  OA
ATOM     24  N   GLU I 253      24.061   7.464 -17.399  1.00 16.36 LIG-0.35  N 
ATOM     25 H    GLU I 253      23.893   6.890 -16.783  1.00 16.36 LIG 0.16  HD
BRANCH 24 26
ATOM     26  CA  GLU I 253      24.195   8.834 -16.935  1.00 16.29 LIG 0.18  C 
BRANCH 26 27
ATOM     27  CB  GLU I 253      23.619   9.000 -15.524  1.00 17.20 LIG 0.04  C 
BRANCH 27 28
ATOM     28  CG  GLU I 253      24.071   7.945 -14.543  1.00 17.14 LIG 0.12  C 
BRANCH 28 29
ATOM     29  CD  GLU I 253      23.690   8.269 -13.103  1.00 16.40 LIG 0.17  C 
ATOM     30 OE2  GLU I 253      23.055   9.325 -12.876  1.00 15.77 LIG-0.65  OA
ATOM     31 OE1  GLU I 253      24.000   7.457 -12.205  1.00 15.17 LIG-0.65  OA
ENDBRANCH 28 29
ENDBRANCH 27 28
ENDBRANCH 26 27
BRANCH 26 32
ATOM     32  C   GLU I 253      25.678   9.138 -16.900  1.00 17.65 LIG 0.24  C 
ATOM     33 O    GLU I 253      26.401   8.686 -16.012  1.00 15.54 LIG-0.27  OA
ATOM     34  N   THR I 254      26.099   9.934 -17.872  1.00 18.98 LIG-0.34  N 
ATOM     35 H    THR I 254      25.569  10.250 -18.472  1.00 18.98 LIG 0.16  HD
BRANCH 34 36
ATOM     36  CA  THR I 254      27.475  10.367 -18.046  1.00 17.93 LIG 0.21  C 
BRANCH 36 37
ATOM     37  CB  THR I 254      27.958  11.035 -16.742  1.00 16.77 LIG 0.15  C 
ATOM     38  CG2 THR I 254      29.353  10.648 -16.425  1.00 17.84 LIG 0.04  C 
BRANCH 37 39
ATOM     39 OG1  THR I 254      27.826  12.459 -16.844  1.00 18.79 LIG-0.39  OA
ATOM     40 HG1  THR I 254      27.028  12.678 -16.697  1.00 18.79 LIG 0.21  HD
ENDBRANCH 37 39
ENDBRANCH 36 37
BRANCH 36 41
ATOM     41  C   THR I 254      28.394   9.190 -18.422  1.00 19.04 LIG 0.29  C 
ATOM     42 O    THR I 254      28.157   8.077 -17.915  1.00 18.19 LIG-0.27  OA
ATOM     43  N   NH2 I 255      29.331   9.375 -19.231  1.00 17.54 LIG-0.11  N 
ENDBRANCH 36 41
ENDBRANCH 34 36
ENDBRANCH 26 32
ENDBRANCH 24 26
ENDBRANCH 1 22
BRANCH 1 44
ATOM     44  CB  GLN I 252      25.219   4.951 -18.391  1.00 17.05 LIG 0.04  C 
BRANCH 44 45
ATOM     45  CG  GLN I 252      24.917   3.516 -17.986  1.00 16.15 LIG 0.10  C 
BRANCH 45 46
ATOM     46  CD  GLN I 252      24.824   2.600 -19.190  1.00 17.21 LIG 0.21  C 
ATOM     47  NE2 GLN I 252      25.585   2.909 -20.236  1.00 17.56 LIG-0.37  N 
ATOM     48 21HE GLN I 252      26.098   3.599 -20.206  1.00 17.56 LIG 0.16  HD
ATOM     49 22HE GLN I 252      25.565   2.419 -20.943  1.00 17.56 LIG 0.16  HD
ATOM     50 OE1  GLN I 252      24.076   1.629 -19.181  1.00 16.83 LIG-0.27  OA
ENDBRANCH 45 46
ENDBRANCH 44 45
ENDBRANCH 1 44
TORSDOF 18
ENDMDL
MODEL 5
USER: ADFR SOLUTION from run 113
USER: SCORE 16.331331 LL:  -4.065 LR: -13.236 RR:   0.000 FEB:  -7.867
USER: RMSD 3.664142
USER: SEED 112
USER: STATUS 1 or 2 clusters left
USER: GENES 20
USER: genes 0 Translation |==|  0.54468 0.36580 0.51714
USER: genes 1 Rotation |==|  0.44687 0.58090 0.58336 0.98341
USER: genes 2 Torsion [C]-CA--N-[C] |==|  0.59103
USER: genes 3 Torsion [N]-C--CA-[N] |==|  0.86170
USER: genes 4 Torsion [C]-CA--N-[C] |==|  0.76799
USER: genes 5 Torsion [N]-C--CA-[CB] |==|  0.29179
USER: genes 6 Torsion [C]-CA--CB-[CG2] |==|  0.09861
USER: genes 7 Torsion [N]-CA--C-[N] |==|  0.45142
USER: genes 8 Torsion [C]-N--CA-[CB] |==|  0.51208
USER: genes 9 Torsion [N]-CA--CB-[CG] |==|  0.63848
USER: genes 10 Torsion [CA]-CB--CG-[CD] |==|  0.39734
USER: genes 11 Torsion [CB]-CG--CD-[OE2] |==|  0.95047
USER: genes 12 Torsion [N]-CA--C-[N] |==|  0.42934
USER: genes 13 Torsion [C]-N--CA-[CB] |==|  0.86111
USER: genes 14 Torsion [N]-CA--CB-[CG2] |==|  0.47950
USER: genes 15 Torsion [CA]-CB--OG1-[HG1] |==|  0.99961
USER: genes 16 Torsion [N]-CA--C-[N] |==|  0.35708
USER: genes 17 Torsion [N]-CA--CB-[CG] |==|  0.85317
USER: genes 18 Torsion [CA]-CB--CG-[CD] |==|  0.73279
USER: genes 19 Torsion [CB]-CG--CD-[NE2] |==|  0.46738
ROOT
ATOM      1  CA  GLN I 252      24.907   3.898 -18.979  1.00 16.23 LIG 0.18  C 
ENDROOT
BRANCH 1 2
ATOM      2  N   GLN I 252      24.350   3.202 -20.136  1.00 16.34 LIG-0.35  N 
ATOM      3  C   VAL I 251      23.943   1.936 -20.032  1.00 18.16 LIG 0.24  C 
ATOM      4 O    VAL I 251      24.018   1.292 -18.977  1.00 14.74 LIG-0.27  OA
ATOM      5 H    GLN I 252      24.313   3.668 -20.858  1.00 16.34 LIG 0.16  HD
BRANCH 3 6
ATOM      6  CA  VAL I 251      23.375   1.283 -21.297  1.00 17.69 LIG 0.18  C 
BRANCH 6 7
ATOM      7  N   VAL I 251      22.386   2.205 -21.828  1.00 18.42 LIG-0.35  N 
ATOM      8  C   PRO I 250      21.131   2.263 -21.403  1.00 18.71 LIG 0.24  C 
ATOM      9 O    PRO I 250      20.679   1.541 -20.514  1.00 17.39 LIG-0.27  OA
ATOM     10 H    VAL I 251      22.693   2.715 -22.450  1.00 18.42 LIG 0.16  HD
BRANCH 8 11
ATOM     11  CA  PRO I 250      20.259   3.324 -22.066  1.00 18.98 LIG 0.18  C 
ATOM     12  CB  PRO I 250      19.291   2.673 -23.064  1.00 18.07 LIG 0.04  C 
ATOM     13  CG  PRO I 250      19.499   3.459 -24.359  1.00 16.66 LIG 0.02  C 
ATOM     14  CD  PRO I 250      20.938   3.797 -24.313  1.00 18.50 LIG 0.13  C 
ATOM     15  N   PRO I 250      21.068   4.210 -22.912  1.00 18.66 LIG-0.34  N 
ATOM     16  C   ACE I 249      21.819   5.216 -22.440  1.00 19.73 LIG 0.22  C 
ATOM     17 O    ACE I 249      21.895   5.466 -21.229  1.00 18.17 LIG-0.27  OA
ATOM     18  CH3 ACE I 249      22.594   6.041 -23.449  1.00 18.86 LIG 0.12  C 
ENDBRANCH 8 11
ENDBRANCH 6 7
BRANCH 6 19
ATOM     19  CB  VAL I 251      24.510   1.050 -22.335  1.00 19.17 LIG 0.01  C 
ATOM     20  CG2 VAL I 251      25.797   0.685 -21.609  1.00 18.02 LIG 0.01  C 
ATOM     21  CG1 VAL I 251      24.733   2.295 -23.186  1.00 18.69 LIG 0.01  C 
ENDBRANCH 6 19
ENDBRANCH 3 6
ENDBRANCH 1 2
BRANCH 1 22
ATOM     22  C   GLN I 252      24.575   5.371 -19.007  1.00 16.56 LIG 0.24  C 
ATOM     23 O    GLN I 252      24.203   5.918 -20.049  1.00 16.02 LIG-0.27  OA
ATOM     24  N   GLU I 253      24.713   6.015 -17.852  1.00 16.36 LIG-0.35  N 
ATOM     25 H    GLU I 253      24.961   5.646 -17.117  1.00 16.36 LIG 0.16  HD
BRANCH 24 26
ATOM     26  CA  GLU I 253      24.441   7.439 -17.759  1.00 16.29 LIG 0.18  C 
BRANCH 26 27
ATOM     27  CB  GLU I 253      24.772   7.975 -16.361  1.00 17.20 LIG 0.04  C 
BRANCH 27 28
ATOM     28  CG  GLU I 253      23.670   8.797 -15.737  1.00 17.14 LIG 0.12  C 
BRANCH 28 29
ATOM     29  CD  GLU I 253      23.543   8.579 -14.233  1.00 16.40 LIG 0.17  C 
ATOM     30 OE2  GLU I 253      24.069   7.558 -13.731  1.00 15.77 LIG-0.65  OA
ATOM     31 OE1  GLU I 253      22.944   9.438 -13.552  1.00 15.17 LIG-0.65  OA
ENDBRANCH 28 29
ENDBRANCH 27 28
ENDBRANCH 26 27
BRANCH 26 32
ATOM     32  C   GLU I 253      25.339   8.119 -18.771  1.00 17.65 LIG 0.24  C 
ATOM     33 O    GLU I 253      26.405   7.612 -19.121  1.00 15.54 LIG-0.27  OA
ATOM     34  N   THR I 254      24.889   9.286 -19.207  1.00 18.98 LIG-0.34  N 
ATOM     35 H    THR I 254      24.148   9.626 -18.935  1.00 18.98 LIG 0.16  HD
BRANCH 34 36
ATOM     36  CA  THR I 254      25.574  10.124 -20.177  1.00 17.93 LIG 0.21  C 
BRANCH 36 37
ATOM     37  CB  THR I 254      27.043  10.299 -19.738  1.00 16.77 LIG 0.15  C 
ATOM     38  CG2 THR I 254      27.835  10.997 -20.778  1.00 17.84 LIG 0.04  C 
BRANCH 37 39
ATOM     39 OG1  THR I 254      27.099  10.999 -18.488  1.00 18.79 LIG-0.39  OA
ATOM     40 HG1  THR I 254      26.319  11.182 -18.234  1.00 18.79 LIG 0.21  HD
ENDBRANCH 37 39
ENDBRANCH 36 37
BRANCH 36 41
ATOM     41  C   THR I 254      25.503   9.522 -21.593  1.00 19.04 LIG 0.29  C 
ATOM     42 O    THR I 254      25.828   8.329 -21.739  1.00 18.19 LIG-0.27  OA
ATOM     43  N   NH2 I 255      25.106  10.233 -22.544  1.00 17.54 LIG-0.11  N 
ENDBRANCH 36 41
ENDBRANCH 34 36
ENDBRANCH 26 32
ENDBRANCH 24 26
ENDBRANCH 1 22
BRANCH 1 44
ATOM     44  CB  GLN I 252      26.428   3.760 -18.900  1.00 17.05 LIG 0.04  C 
BRANCH 44 45
ATOM     45  CG  GLN I 252      26.956   2.334 -18.958  1.00 16.15 LIG 0.10  C 
BRANCH 45 46
ATOM     46  CD  GLN I 252      27.213   1.774 -17.573  1.00 17.21 LIG 0.21  C 
ATOM     47  NE2 GLN I 252      27.444   0.466 -17.492  1.00 17.56 LIG-0.37  N 
ATOM     48 21HE GLN I 252      27.443  -0.016 -18.204  1.00 17.56 LIG 0.16  HD
ATOM     49 22HE GLN I 252      27.594   0.103 -16.727  1.00 17.56 LIG 0.16  HD
ATOM     50 OE1  GLN I 252      27.203   2.506 -16.590  1.00 16.83 LIG-0.27  OA
ENDBRANCH 45 46
ENDBRANCH 44 45
ENDBRANCH 1 44
TORSDOF 18
ENDMDL
MODEL 6
USER: ADFR SOLUTION from run 22
USER: SCORE 15.564042 LL:  -3.932 LR: -13.198 RR:   0.000 FEB:  -7.829
USER: RMSD 2.025429
USER: SEED 21
USER: STATUS no improvement in best in 2 clusters for 5 generations
USER: GENES 20
USER: genes 0 Translation |==|  0.52229 0.42465 0.51666
USER: genes 1 Rotation |==|  0.50636 0.51802 0.47515 0.99902
USER: genes 2 Torsion [C]-CA--N-[C] |==|  0.82117
USER: genes 3 Torsion [N]-C--CA-[N] |==|  0.32222
USER: genes 4 Torsion [C]-CA--N-[C] |==|  0.82561
USER: genes 5 Torsion [N]-C--CA-[CB] |==|  0.54105
USER: genes 6 Torsion [C]-CA--CB-[CG2] |==|  0.49082
USER: genes 7 Torsion [N]-CA--C-[N] |==|  0.39931
USER: genes 8 Torsion [C]-N--CA-[CB] |==|  0.44791
USER: genes 9 Torsion [N]-CA--CB-[CG] |==|  0.30284
USER: genes 10 Torsion [CA]-CB--CG-[CD] |==|  0.59106
USER: genes 11 Torsion [CB]-CG--CD-[OE2] |==|  0.79381
USER: genes 12 Torsion [N]-CA--C-[N] |==|  0.92707
USER: genes 13 Torsion [C]-N--CA-[CB] |==|  0.85455
USER: genes 14 Torsion [N]-CA--CB-[CG2] |==|  0.53121
USER: genes 15 Torsion [CA]-CB--OG1-[HG1] |==|  0.24667
USER: genes 16 Torsion [N]-CA--C-[N] |==|  0.35795
USER: genes 17 Torsion [N]-CA--CB-[CG] |==|  0.66127
USER: genes 18 Torsion [CA]-CB--CG-[CD] |==|  0.50265
USER: genes 19 Torsion [CB]-CG--CD-[NE2] |==|  0.58431
ROOT
ATOM      1  CA  GLN I 252      24.487   5.134 -18.990  1.00 16.23 LIG 0.18  C 
ENDROOT
BRANCH 1 2
ATOM      2  N   GLN I 252      24.069   4.937 -20.375  1.00 16.34 LIG-0.35  N 
ATOM      3  C   VAL I 251      22.940   5.485 -20.825  1.00 18.16 LIG 0.24  C 
ATOM      4 O    VAL I 251      22.195   6.170 -20.111  1.00 14.74 LIG-0.27  OA
ATOM      5 H    GLN I 252      24.600   4.454 -20.849  1.00 16.34 LIG 0.16  HD
BRANCH 3 6
ATOM      6  CA  VAL I 251      22.578   5.224 -22.292  1.00 17.69 LIG 0.18  C 
BRANCH 6 7
ATOM      7  N   VAL I 251      21.341   4.462 -22.282  1.00 18.42 LIG-0.35  N 
ATOM      8  C   PRO I 250      21.227   3.252 -21.751  1.00 18.71 LIG 0.24  C 
ATOM      9 O    PRO I 250      22.158   2.654 -21.211  1.00 17.39 LIG-0.27  OA
ATOM     10 H    VAL I 251      20.685   4.872 -22.657  1.00 18.42 LIG 0.16  HD
BRANCH 8 11
ATOM     11  CA  PRO I 250      19.834   2.635 -21.813  1.00 18.98 LIG 0.18  C 
ATOM     12  CB  PRO I 250      19.739   1.431 -20.864  1.00 18.07 LIG 0.04  C 
ATOM     13  CG  PRO I 250      19.194   0.303 -21.739  1.00 16.66 LIG 0.02  C 
ATOM     14  CD  PRO I 250      19.789   0.593 -23.062  1.00 18.50 LIG 0.13  C 
ATOM     15  N   PRO I 250      19.584   2.043 -23.133  1.00 18.66 LIG-0.34  N 
ATOM     16  C   ACE I 249      19.246   2.752 -24.220  1.00 19.73 LIG 0.22  C 
ATOM     17 O    ACE I 249      19.132   3.985 -24.189  1.00 18.17 LIG-0.27  OA
ATOM     18  CH3 ACE I 249      19.019   1.986 -25.510  1.00 18.86 LIG 0.12  C 
ENDBRANCH 8 11
ENDBRANCH 6 7
BRANCH 6 19
ATOM     19  CB  VAL I 251      22.378   6.572 -23.041  1.00 19.17 LIG 0.01  C 
ATOM     20  CG2 VAL I 251      22.100   6.301 -24.513  1.00 18.02 LIG 0.01  C 
ATOM     21  CG1 VAL I 251      23.610   7.459 -22.903  1.00 18.69 LIG 0.01  C 
ENDBRANCH 6 19
ENDBRANCH 3 6
ENDBRANCH 1 2
BRANCH 1 22
ATOM     22  C   GLN I 252      24.791   6.586 -18.704  1.00 16.56 LIG 0.24  C 
ATOM     23 O    GLN I 252      25.321   7.303 -19.557  1.00 16.02 LIG-0.27  OA
ATOM     24  N   GLU I 253      24.452   7.018 -17.493  1.00 16.36 LIG-0.35  N 
ATOM     25 H    GLU I 253      24.074   6.533 -16.893  1.00 16.36 LIG 0.16  HD
BRANCH 24 26
ATOM     26  CA  GLU I 253      24.712   8.390 -17.095  1.00 16.29 LIG 0.18  C 
BRANCH 26 27
ATOM     27  CB  GLU I 253      23.854   8.789 -15.889  1.00 17.20 LIG 0.04  C 
BRANCH 27 28
ATOM     28  CG  GLU I 253      24.629   8.949 -14.603  1.00 17.14 LIG 0.12  C 
BRANCH 28 29
ATOM     29  CD  GLU I 253      23.822   8.559 -13.369  1.00 16.40 LIG 0.17  C 
ATOM     30 OE2  GLU I 253      22.923   9.336 -12.973  1.00 15.77 LIG-0.65  OA
ATOM     31 OE1  GLU I 253      24.068   7.467 -12.814  1.00 15.17 LIG-0.65  OA
ENDBRANCH 28 29
ENDBRANCH 27 28
ENDBRANCH 26 27
BRANCH 26 32
ATOM     32  C   GLU I 253      26.173   8.459 -16.703  1.00 17.65 LIG 0.24  C 
ATOM     33 O    GLU I 253      26.812   9.508 -16.801  1.00 15.54 LIG-0.27  OA
ATOM     34  N   THR I 254      26.684   7.311 -16.283  1.00 18.98 LIG-0.34  N 
ATOM     35 H    THR I 254      26.220   6.589 -16.238  1.00 18.98 LIG 0.16  HD
BRANCH 34 36
ATOM     36  CA  THR I 254      28.061   7.128 -15.855  1.00 17.93 LIG 0.21  C 
BRANCH 36 37
ATOM     37  CB  THR I 254      29.002   7.665 -16.954  1.00 16.77 LIG 0.15  C 
ATOM     38  CG2 THR I 254      30.407   7.267 -16.701  1.00 17.84 LIG 0.04  C 
BRANCH 37 39
ATOM     39 OG1  THR I 254      28.559   7.210 -18.240  1.00 18.79 LIG-0.39  OA
ATOM     40 HG1  THR I 254      28.007   7.758 -18.557  1.00 18.79 LIG 0.21  HD
ENDBRANCH 37 39
ENDBRANCH 36 37
BRANCH 36 41
ATOM     41  C   THR I 254      28.336   7.840 -14.517  1.00 19.04 LIG 0.29  C 
ATOM     42 O    THR I 254      27.994   9.032 -14.407  1.00 18.19 LIG-0.27  OA
ATOM     43  N   NH2 I 255      28.870   7.203 -13.580  1.00 17.54 LIG-0.11  N 
ENDBRANCH 36 41
ENDBRANCH 34 36
ENDBRANCH 26 32
ENDBRANCH 24 26
ENDBRANCH 1 22
BRANCH 1 44
ATOM     44  CB  GLN I 252      25.731   4.315 -18.641  1.00 17.05 LIG 0.04  C 
BRANCH 44 45
ATOM     45  CG  GLN I 252      25.567   3.341 -17.484  1.00 16.15 LIG 0.10  C 
BRANCH 45 46
ATOM     46  CD  GLN I 252      26.852   2.591 -17.194  1.00 17.21 LIG 0.21  C 
ATOM     47  NE2 GLN I 252      26.727   1.361 -16.703  1.00 17.56 LIG-0.37  N 
ATOM     48 21HE GLN I 252      25.944   1.029 -16.568  1.00 17.56 LIG 0.16  HD
ATOM     49 22HE GLN I 252      27.428   0.898 -16.522  1.00 17.56 LIG 0.16  HD
ATOM     50 OE1  GLN I 252      27.941   3.111 -17.406  1.00 16.83 LIG-0.27  OA
ENDBRANCH 45 46
ENDBRANCH 44 45
ENDBRANCH 1 44
TORSDOF 18
ENDMDL
MODEL 7
USER: ADFR SOLUTION from run 42
USER: SCORE 14.959642 LL:  -3.690 LR: -13.137 RR:   0.000 FEB:  -7.768
USER: RMSD 2.624939
USER: SEED 41
USER: STATUS 1 or 2 clusters left
USER: GENES 20
USER: genes 0 Translation |==|  0.46172 0.42292 0.46734
USER: genes 1 Rotation |==|  0.53981 0.59183 0.50372 0.98987
USER: genes 2 Torsion [C]-CA--N-[C] |==|  0.20510
USER: genes 3 Torsion [N]-C--CA-[N] |==|  0.95482
USER: genes 4 Torsion [C]-CA--N-[C] |==|  0.79865
USER: genes 5 Torsion [N]-C--CA-[CB] |==|  0.67014
USER: genes 6 Torsion [C]-CA--CB-[CG2] |==|  0.53206
USER: genes 7 Torsion [N]-CA--C-[N] |==|  0.44529
USER: genes 8 Torsion [C]-N--CA-[CB] |==|  0.50001
USER: genes 9 Torsion [N]-CA--CB-[CG] |==|  0.61893
USER: genes 10 Torsion [CA]-CB--CG-[CD] |==|  0.41319
USER: genes 11 Torsion [CB]-CG--CD-[OE2] |==|  0.52749
USER: genes 12 Torsion [N]-CA--C-[N] |==|  0.32804
USER: genes 13 Torsion [C]-N--CA-[CB] |==|  0.86015
USER: genes 14 Torsion [N]-CA--CB-[CG2] |==|  0.54210
USER: genes 15 Torsion [CA]-CB--OG1-[HG1] |==|  0.91610
USER: genes 16 Torsion [N]-CA--C-[N] |==|  0.37623
USER: genes 17 Torsion [N]-CA--CB-[CG] |==|  0.83994
USER: genes 18 Torsion [CA]-CB--CG-[CD] |==|  0.75819
USER: genes 19 Torsion [CB]-CG--CD-[NE2] |==|  0.86343
ROOT
ATOM      1  CA  GLN I 252      23.351   5.097 -20.062  1.00 16.23 LIG 0.18  C 
ENDROOT
BRANCH 1 2
ATOM      2  N   GLN I 252      22.566   5.035 -21.292  1.00 16.34 LIG-0.35  N 
ATOM      3  C   VAL I 251      23.120   5.345 -22.465  1.00 18.16 LIG 0.24  C 
ATOM      4 O    VAL I 251      24.301   5.700 -22.575  1.00 14.74 LIG-0.27  OA
ATOM      5 H    GLN I 252      21.748   4.790 -21.188  1.00 16.34 LIG 0.16  HD
BRANCH 3 6
ATOM      6  CA  VAL I 251      22.221   5.254 -23.703  1.00 17.69 LIG 0.18  C 
BRANCH 6 7
ATOM      7  N   VAL I 251      21.062   4.469 -23.315  1.00 18.42 LIG-0.35  N 
ATOM      8  C   PRO I 250      21.097   3.159 -23.108  1.00 18.71 LIG 0.24  C 
ATOM      9 O    PRO I 250      22.116   2.477 -23.224  1.00 17.39 LIG-0.27  OA
ATOM     10 H    VAL I 251      20.345   4.936 -23.230  1.00 18.42 LIG 0.16  HD
BRANCH 8 11
ATOM     11  CA  PRO I 250      19.780   2.526 -22.673  1.00 18.98 LIG 0.18  C 
ATOM     12  CB  PRO I 250      19.928   1.882 -21.287  1.00 18.07 LIG 0.04  C 
ATOM     13  CG  PRO I 250      19.404   0.458 -21.474  1.00 16.66 LIG 0.02  C 
ATOM     14  CD  PRO I 250      19.802   0.139 -22.862  1.00 18.50 LIG 0.13  C 
ATOM     15  N   PRO I 250      19.437   1.389 -23.537  1.00 18.66 LIG-0.34  N 
ATOM     16  C   ACE I 249      18.898   1.512 -24.758  1.00 19.73 LIG 0.22  C 
ATOM     17 O    ACE I 249      18.659   2.619 -25.261  1.00 18.17 LIG-0.27  OA
ATOM     18  CH3 ACE I 249      18.600   0.236 -25.522  1.00 18.86 LIG 0.12  C 
ENDBRANCH 8 11
ENDBRANCH 6 7
BRANCH 6 19
ATOM     19  CB  VAL I 251      21.784   6.678 -24.152  1.00 19.17 LIG 0.01  C 
ATOM     20  CG2 VAL I 251      20.677   6.568 -25.189  1.00 18.02 LIG 0.01  C 
ATOM     21  CG1 VAL I 251      22.963   7.449 -24.734  1.00 18.69 LIG 0.01  C 
ENDBRANCH 6 19
ENDBRANCH 3 6
ENDBRANCH 1 2
BRANCH 1 22
ATOM     22  C   GLN I 252      23.597   6.525 -19.634  1.00 16.56 LIG 0.24  C 
ATOM     23 O    GLN I 252      23.490   7.456 -20.436  1.00 16.02 LIG-0.27  OA
ATOM     24  N   GLU I 253      23.930   6.694 -18.358  1.00 16.36 LIG-0.35  N 
ATOM     25 H    GLU I 253      23.999   6.057 -17.785  1.00 16.36 LIG 0.16  HD
BRANCH 24 26
ATOM     26  CA  GLU I 253      24.210   8.019 -17.833  1.00 16.29 LIG 0.18  C 
BRANCH 26 27
ATOM     27  CB  GLU I 253      24.570   7.960 -16.344  1.00 17.20 LIG 0.04  C 
BRANCH 27 28
ATOM     28  CG  GLU I 253      23.929   9.042 -15.509  1.00 17.14 LIG 0.12  C 
BRANCH 28 29
ATOM     29  CD  GLU I 253      23.642   8.599 -14.078  1.00 16.40 LIG 0.17  C 
ATOM     30 OE2  GLU I 253      22.944   9.344 -13.351  1.00 15.77 LIG-0.65  OA
ATOM     31 OE1  GLU I 253      24.088   7.498 -13.691  1.00 15.17 LIG-0.65  OA
ENDBRANCH 28 29
ENDBRANCH 27 28
ENDBRANCH 26 27
BRANCH 26 32
ATOM     32  C   GLU I 253      25.399   8.550 -18.606  1.00 17.65 LIG 0.24  C 
ATOM     33 O    GLU I 253      26.497   7.996 -18.547  1.00 15.54 LIG-0.27  OA
ATOM     34  N   THR I 254      25.154   9.648 -19.306  1.00 18.98 LIG-0.34  N 
ATOM     35 H    THR I 254      24.381  10.024 -19.317  1.00 18.98 LIG 0.16  HD
BRANCH 34 36
ATOM     36  CA  THR I 254      26.135  10.341 -20.124  1.00 17.93 LIG 0.21  C 
BRANCH 36 37
ATOM     37  CB  THR I 254      27.408  10.578 -19.285  1.00 16.77 LIG 0.15  C 
ATOM     38  CG2 THR I 254      28.294  11.580 -19.923  1.00 17.84 LIG 0.04  C 
BRANCH 37 39
ATOM     39 OG1  THR I 254      27.049  10.976 -17.955  1.00 18.79 LIG-0.39  OA
ATOM     40 HG1  THR I 254      26.320  11.393 -17.974  1.00 18.79 LIG 0.21  HD
ENDBRANCH 37 39
ENDBRANCH 36 37
BRANCH 36 41
ATOM     41  C   THR I 254      26.470   9.546 -21.399  1.00 19.04 LIG 0.29  C 
ATOM     42 O    THR I 254      26.645   8.318 -21.294  1.00 18.19 LIG-0.27  OA
ATOM     43  N   NH2 I 255      26.537  10.144 -22.497  1.00 17.54 LIG-0.11  N 
ENDBRANCH 36 41
ENDBRANCH 34 36
ENDBRANCH 26 32
ENDBRANCH 24 26
ENDBRANCH 1 22
BRANCH 1 44
ATOM     44  CB  GLN I 252      24.710   4.410 -20.211  1.00 17.05 LIG 0.04  C 
BRANCH 44 45
ATOM     45  CG  GLN I 252      24.657   2.947 -20.623  1.00 16.15 LIG 0.10  C 
BRANCH 45 46
ATOM     46  CD  GLN I 252      24.522   2.030 -19.423  1.00 17.21 LIG 0.21  C 
ATOM     47  NE2 GLN I 252      25.366   2.237 -18.416  1.00 17.56 LIG-0.37  N 
ATOM     48 21HE GLN I 252      25.950   2.867 -18.466  1.00 17.56 LIG 0.16  HD
ATOM     49 22HE GLN I 252      25.328   1.741 -17.715  1.00 17.56 LIG 0.16  HD
ATOM     50 OE1  GLN I 252      23.672   1.147 -19.403  1.00 16.83 LIG-0.27  OA
ENDBRANCH 45 46
ENDBRANCH 44 45
ENDBRANCH 1 44
TORSDOF 18
ENDMDL
MODEL 8
USER: ADFR SOLUTION from run 141
USER: SCORE 14.648320 LL:  -3.272 LR: -13.110 RR:   0.000 FEB:  -7.741
USER: RMSD 4.216608
USER: SEED 140
USER: STATUS 1 or 2 clusters left
USER: GENES 20
USER: genes 0 Translation |==|  0.54400 0.50437 0.52861
USER: genes 1 Rotation |==|  0.55678 0.90468 0.77855 0.57363
USER: genes 2 Torsion [C]-CA--N-[C] |==|  0.58733
USER: genes 3 Torsion [N]-C--CA-[N] |==|  0.33690
USER: genes 4 Torsion [C]-CA--N-[C] |==|  0.55742
USER: genes 5 Torsion [N]-C--CA-[CB] |==|  0.12215
USER: genes 6 Torsion [C]-CA--CB-[CG2] |==|  0.13935
USER: genes 7 Torsion [N]-CA--C-[N] |==|  0.57306
USER: genes 8 Torsion [C]-N--CA-[CB] |==|  0.86579
USER: genes 9 Torsion [N]-CA--CB-[CG] |==|  0.33444
USER: genes 10 Torsion [CA]-CB--CG-[CD] |==|  0.48714
USER: genes 11 Torsion [CB]-CG--CD-[OE2] |==|  0.36239
USER: genes 12 Torsion [N]-CA--C-[N] |==|  0.33851
USER: genes 13 Torsion [C]-N--CA-[CB] |==|  0.78858
USER: genes 14 Torsion [N]-CA--CB-[CG2] |==|  0.50960
USER: genes 15 Torsion [CA]-CB--OG1-[HG1] |==|  0.17675
USER: genes 16 Torsion [N]-CA--C-[N] |==|  0.22265
USER: genes 17 Torsion [N]-CA--CB-[CG] |==|  0.65508
USER: genes 18 Torsion [CA]-CB--CG-[CD] |==|  0.87039
USER: genes 19 Torsion [CB]-CG--CD-[NE2] |==|  0.77879
ROOT
ATOM      1  CA  GLN I 252      24.894   6.808 -18.730  1.00 16.23 LIG 0.18  C 
ENDROOT
BRANCH 1 2
ATOM      2  N   GLN I 252      24.650   5.391 -18.476  1.00 16.34 LIG-0.35  N 
ATOM      3  C   VAL I 251      25.193   4.460 -19.261  1.00 18.16 LIG 0.24  C 
ATOM      4 O    VAL I 251      25.912   4.735 -20.230  1.00 14.74 LIG-0.27  OA
ATOM      5 H    GLN I 252      24.143   5.225 -17.800  1.00 16.34 LIG 0.16  HD
BRANCH 3 6
ATOM      6  CA  VAL I 251      24.881   2.998 -18.921  1.00 17.69 LIG 0.18  C 
BRANCH 6 7
ATOM      7  N   VAL I 251      24.246   2.427 -20.096  1.00 18.42 LIG-0.35  N 
ATOM      8  C   PRO I 250      23.490   1.337 -20.068  1.00 18.71 LIG 0.24  C 
ATOM      9 O    PRO I 250      23.250   0.701 -19.042  1.00 17.39 LIG-0.27  OA
ATOM     10 H    VAL I 251      24.407   2.865 -20.818  1.00 18.42 LIG 0.16  HD
BRANCH 8 11
ATOM     11  CA  PRO I 250      22.887   0.920 -21.405  1.00 18.98 LIG 0.18  C 
ATOM     12  CB  PRO I 250      23.938   1.018 -22.520  1.00 18.07 LIG 0.04  C 
ATOM     13  CG  PRO I 250      23.261   1.854 -23.605  1.00 16.66 LIG 0.02  C 
ATOM     14  CD  PRO I 250      22.421   2.789 -22.826  1.00 18.50 LIG 0.13  C 
ATOM     15  N   PRO I 250      21.855   1.872 -21.832  1.00 18.66 LIG-0.34  N 
ATOM     16  C   ACE I 249      20.604   1.888 -21.348  1.00 19.73 LIG 0.22  C 
ATOM     17 O    ACE I 249      20.228   1.091 -20.477  1.00 18.17 LIG-0.27  OA
ATOM     18  CH3 ACE I 249      19.656   2.937 -21.898  1.00 18.86 LIG 0.12  C 
ENDBRANCH 8 11
ENDBRANCH 6 7
BRANCH 6 19
ATOM     19  CB  VAL I 251      26.195   2.233 -18.590  1.00 19.17 LIG 0.01  C 
ATOM     20  CG2 VAL I 251      26.998   3.020 -17.566  1.00 18.02 LIG 0.01  C 
ATOM     21  CG1 VAL I 251      27.029   2.019 -19.847  1.00 18.69 LIG 0.01  C 
ENDBRANCH 6 19
ENDBRANCH 3 6
ENDBRANCH 1 2
BRANCH 1 22
ATOM     22  C   GLN I 252      24.891   7.609 -17.449  1.00 16.56 LIG 0.24  C 
ATOM     23 O    GLN I 252      25.178   7.082 -16.371  1.00 16.02 LIG-0.27  OA
ATOM     24  N   GLU I 253      24.562   8.891 -17.572  1.00 16.36 LIG-0.35  N 
ATOM     25 H    GLU I 253      24.369   9.274 -18.317  1.00 16.36 LIG 0.16  HD
BRANCH 24 26
ATOM     26  CA  GLU I 253      24.505   9.758 -16.408  1.00 16.29 LIG 0.18  C 
BRANCH 26 27
ATOM     27  CB  GLU I 253      23.707   9.109 -15.272  1.00 17.20 LIG 0.04  C 
BRANCH 27 28
ATOM     28  CG  GLU I 253      24.492   8.912 -13.997  1.00 17.14 LIG 0.12  C 
BRANCH 28 29
ATOM     29  CD  GLU I 253      23.644   8.369 -12.852  1.00 16.40 LIG 0.17  C 
ATOM     30 OE2  GLU I 253      24.069   7.380 -12.211  1.00 15.77 LIG-0.65  OA
ATOM     31 OE1  GLU I 253      22.570   8.946 -12.577  1.00 15.17 LIG-0.65  OA
ENDBRANCH 28 29
ENDBRANCH 27 28
ENDBRANCH 26 27
BRANCH 26 32
ATOM     32  C   GLU I 253      25.934   9.964 -15.950  1.00 17.65 LIG 0.24  C 
ATOM     33 O    GLU I 253      26.642   9.012 -15.620  1.00 15.54 LIG-0.27  OA
ATOM     34  N   THR I 254      26.323  11.230 -15.917  1.00 18.98 LIG-0.34  N 
ATOM     35 H    THR I 254      25.804  11.878 -16.139  1.00 18.98 LIG 0.16  HD
BRANCH 34 36
ATOM     36  CA  THR I 254      27.646  11.676 -15.512  1.00 17.93 LIG 0.21  C 
BRANCH 36 37
ATOM     37  CB  THR I 254      27.750  11.599 -13.974  1.00 16.77 LIG 0.15  C 
ATOM     38  CG2 THR I 254      29.052  12.121 -13.497  1.00 17.84 LIG 0.04  C 
BRANCH 37 39
ATOM     39 OG1  THR I 254      26.657  12.307 -13.375  1.00 18.79 LIG-0.39  OA
ATOM     40 HG1  THR I 254      25.933  11.932 -13.581  1.00 18.79 LIG 0.21  HD
ENDBRANCH 37 39
ENDBRANCH 36 37
BRANCH 36 41
ATOM     41  C   THR I 254      28.753  10.831 -16.170  1.00 19.04 LIG 0.29  C 
ATOM     42 O    THR I 254      29.265   9.914 -15.501  1.00 18.19 LIG-0.27  OA
ATOM     43  N   NH2 I 255      29.091  11.073 -17.351  1.00 17.54 LIG-0.11  N 
ENDBRANCH 36 41
ENDBRANCH 34 36
ENDBRANCH 26 32
ENDBRANCH 24 26
ENDBRANCH 1 22
BRANCH 1 44
ATOM     44  CB  GLN I 252      23.847   7.414 -19.666  1.00 17.05 LIG 0.04  C 
BRANCH 44 45
ATOM     45  CG  GLN I 252      24.401   8.085 -20.914  1.00 16.15 LIG 0.10  C 
BRANCH 45 46
ATOM     46  CD  GLN I 252      25.566   8.999 -20.591  1.00 17.21 LIG 0.21  C 
ATOM     47  NE2 GLN I 252      25.266  10.200 -20.107  1.00 17.56 LIG-0.37  N 
ATOM     48 21HE GLN I 252      24.443  10.424 -19.990  1.00 17.56 LIG 0.16  HD
ATOM     49 22HE GLN I 252      25.894  10.754 -19.910  1.00 17.56 LIG 0.16  HD
ATOM     50 OE1  GLN I 252      26.720   8.630 -20.776  1.00 16.83 LIG-0.27  OA
ENDBRANCH 45 46
ENDBRANCH 44 45
ENDBRANCH 1 44
TORSDOF 18
ENDMDL
MODEL 9
USER: ADFR SOLUTION from run 62
USER: SCORE 14.523488 LL:  -3.317 LR: -12.950 RR:   0.000 FEB:  -7.580
USER: RMSD 4.951164
USER: SEED 61
USER: STATUS no improvement in best in 8 clusters for 5 generations
USER: GENES 20
USER: genes 0 Translation |==|  0.55916 0.51722 0.55358
USER: genes 1 Rotation |==|  0.52128 0.90905 0.78131 0.55558
USER: genes 2 Torsion [C]-CA--N-[C] |==|  0.72227
USER: genes 3 Torsion [N]-C--CA-[N] |==|  0.11793
USER: genes 4 Torsion [C]-CA--N-[C] |==|  0.16150
USER: genes 5 Torsion [N]-C--CA-[CB] |==|  0.72981
USER: genes 6 Torsion [C]-CA--CB-[CG2] |==|  0.52354
USER: genes 7 Torsion [N]-CA--C-[N] |==|  0.53491
USER: genes 8 Torsion [C]-N--CA-[CB] |==|  0.88462
USER: genes 9 Torsion [N]-CA--CB-[CG] |==|  0.31789
USER: genes 10 Torsion [CA]-CB--CG-[CD] |==|  0.52872
USER: genes 11 Torsion [CB]-CG--CD-[OE2] |==|  0.34026
USER: genes 12 Torsion [N]-CA--C-[N] |==|  0.41111
USER: genes 13 Torsion [C]-N--CA-[CB] |==|  0.51837
USER: genes 14 Torsion [N]-CA--CB-[CG2] |==|  0.81169
USER: genes 15 Torsion [CA]-CB--OG1-[HG1] |==|  0.89258
USER: genes 16 Torsion [N]-CA--C-[N] |==|  0.39752
USER: genes 17 Torsion [N]-CA--CB-[CG] |==|  0.72328
USER: genes 18 Torsion [CA]-CB--CG-[CD] |==|  0.67344
USER: genes 19 Torsion [CB]-CG--CD-[NE2] |==|  0.08038
ROOT
ATOM      1  CA  GLN I 252      25.178   7.078 -18.187  1.00 16.23 LIG 0.18  C 
ENDROOT
BRANCH 1 2
ATOM      2  N   GLN I 252      25.156   5.643 -17.916  1.00 16.34 LIG-0.35  N 
ATOM      3  C   VAL I 251      26.293   4.949 -17.852  1.00 18.16 LIG 0.24  C 
ATOM      4 O    VAL I 251      27.405   5.467 -18.020  1.00 14.74 LIG-0.27  OA
ATOM      5 H    GLN I 252      24.372   5.306 -17.807  1.00 16.34 LIG 0.16  HD
BRANCH 3 6
ATOM      6  CA  VAL I 251      26.175   3.448 -17.565  1.00 17.69 LIG 0.18  C 
BRANCH 6 7
ATOM      7  N   VAL I 251      25.067   2.960 -18.368  1.00 18.42 LIG-0.35  N 
ATOM      8  C   PRO I 250      25.013   3.069 -19.689  1.00 18.71 LIG 0.24  C 
ATOM      9 O    PRO I 250      25.897   3.595 -20.367  1.00 17.39 LIG-0.27  OA
ATOM     10 H    VAL I 251      24.445   2.591 -17.904  1.00 18.42 LIG 0.16  HD
BRANCH 8 11
ATOM     11  CA  PRO I 250      23.779   2.463 -20.350  1.00 18.98 LIG 0.18  C 
ATOM     12  CB  PRO I 250      24.092   1.055 -20.876  1.00 18.07 LIG 0.04  C 
ATOM     13  CG  PRO I 250      23.633   1.086 -22.334  1.00 16.66 LIG 0.02  C 
ATOM     14  CD  PRO I 250      23.917   2.479 -22.740  1.00 18.50 LIG 0.13  C 
ATOM     15  N   PRO I 250      23.421   3.204 -21.565  1.00 18.66 LIG-0.34  N 
ATOM     16  C   ACE I 249      22.765   4.373 -21.564  1.00 19.73 LIG 0.22  C 
ATOM     17 O    ACE I 249      22.418   4.929 -20.512  1.00 18.17 LIG-0.27  OA
ATOM     18  CH3 ACE I 249      22.468   5.009 -22.909  1.00 18.86 LIG 0.12  C 
ENDBRANCH 8 11
ENDBRANCH 6 7
BRANCH 6 19
ATOM     19  CB  VAL I 251      27.492   2.722 -17.962  1.00 19.17 LIG 0.01  C 
ATOM     20  CG2 VAL I 251      27.292   1.216 -17.872  1.00 18.02 LIG 0.01  C 
ATOM     21  CG1 VAL I 251      28.641   3.145 -17.054  1.00 18.69 LIG 0.01  C 
ENDBRANCH 6 19
ENDBRANCH 3 6
ENDBRANCH 1 2
BRANCH 1 22
ATOM     22  C   GLN I 252      25.023   7.883 -16.918  1.00 16.56 LIG 0.24  C 
ATOM     23 O    GLN I 252      25.126   7.349 -15.811  1.00 16.02 LIG-0.27  OA
ATOM     24  N   GLU I 253      24.771   9.178 -17.085  1.00 16.36 LIG-0.35  N 
ATOM     25 H    GLU I 253      24.706   9.566 -17.850  1.00 16.36 LIG 0.16  HD
BRANCH 24 26
ATOM     26  CA  GLU I 253      24.583  10.051 -15.940  1.00 16.29 LIG 0.18  C 
BRANCH 26 27
ATOM     27  CB  GLU I 253      23.734   9.373 -14.860  1.00 17.20 LIG 0.04  C 
BRANCH 27 28
ATOM     28  CG  GLU I 253      24.473   9.100 -13.572  1.00 17.14 LIG 0.12  C 
BRANCH 28 29
ATOM     29  CD  GLU I 253      23.691   8.208 -12.613  1.00 16.40 LIG 0.17  C 
ATOM     30 OE2  GLU I 253      24.217   7.137 -12.230  1.00 15.77 LIG-0.65  OA
ATOM     31 OE1  GLU I 253      22.567   8.589 -12.223  1.00 15.17 LIG-0.65  OA
ENDBRANCH 28 29
ENDBRANCH 27 28
ENDBRANCH 26 27
BRANCH 26 32
ATOM     32  C   GLU I 253      25.960  10.334 -15.378  1.00 17.65 LIG 0.24  C 
ATOM     33 O    GLU I 253      26.854   9.488 -15.424  1.00 15.54 LIG-0.27  OA
ATOM     34  N   THR I 254      26.094  11.531 -14.828  1.00 18.98 LIG-0.34  N 
ATOM     35 H    THR I 254      25.449  12.098 -14.795  1.00 18.98 LIG 0.16  HD
BRANCH 34 36
ATOM     36  CA  THR I 254      27.318  12.029 -14.222  1.00 17.93 LIG 0.21  C 
BRANCH 36 37
ATOM     37  CB  THR I 254      27.027  13.387 -13.550  1.00 16.77 LIG 0.15  C 
ATOM     38  CG2 THR I 254      26.722  14.430 -14.556  1.00 17.84 LIG 0.04  C 
BRANCH 37 39
ATOM     39 OG1  THR I 254      25.955  13.245 -12.608  1.00 18.79 LIG-0.39  OA
ATOM     40 HG1  THR I 254      25.376  12.723 -12.919  1.00 18.79 LIG 0.21  HD
ENDBRANCH 37 39
ENDBRANCH 36 37
BRANCH 36 41
ATOM     41  C   THR I 254      27.887  11.031 -13.196  1.00 19.04 LIG 0.29  C 
ATOM     42 O    THR I 254      27.082  10.377 -12.507  1.00 18.19 LIG-0.27  OA
ATOM     43  N   NH2 I 255      29.128  10.890 -13.098  1.00 17.54 LIG-0.11  N 
ENDBRANCH 36 41
ENDBRANCH 34 36
ENDBRANCH 26 32
ENDBRANCH 24 26
ENDBRANCH 1 22
BRANCH 1 44
ATOM     44  CB  GLN I 252      24.068   7.499 -19.151  1.00 17.05 LIG 0.04  C 
BRANCH 44 45
ATOM     45  CG  GLN I 252      24.499   7.685 -20.598  1.00 16.15 LIG 0.10  C 
BRANCH 45 46
ATOM     46  CD  GLN I 252      24.303   9.115 -21.063  1.00 17.21 LIG 0.21  C 
ATOM     47  NE2 GLN I 252      24.388  10.062 -20.133  1.00 17.56 LIG-0.37  N 
ATOM     48 21HE GLN I 252      24.548   9.848 -19.315  1.00 17.56 LIG 0.16  HD
ATOM     49 22HE GLN I 252      24.282  10.887 -20.350  1.00 17.56 LIG 0.16  HD
ATOM     50 OE1  GLN I 252      24.078   9.364 -22.242  1.00 16.83 LIG-0.27  OA
ENDBRANCH 45 46
ENDBRANCH 44 45
ENDBRANCH 1 44
TORSDOF 18
ENDMDL
MODEL 10
USER: ADFR SOLUTION from run 87
USER: SCORE 14.541543 LL:  -3.546 LR: -12.930 RR:   0.000 FEB:  -7.561
USER: RMSD 4.787643
USER: SEED 86
USER: STATUS no improvement in best in 8 clusters for 5 generations
USER: GENES 20
USER: genes 0 Translation |==|  0.58309 0.56153 0.49412
USER: genes 1 Rotation |==|  0.55843 0.81604 0.86004 0.63067
USER: genes 2 Torsion [C]-CA--N-[C] |==|  0.12222
USER: genes 3 Torsion [N]-C--CA-[N] |==|  0.78891
USER: genes 4 Torsion [C]-CA--N-[C] |==|  0.85470
USER: genes 5 Torsion [N]-C--CA-[CB] |==|  0.17557
USER: genes 6 Torsion [C]-CA--CB-[CG2] |==|  0.75136
USER: genes 7 Torsion [N]-CA--C-[N] |==|  0.63690
USER: genes 8 Torsion [C]-N--CA-[CB] |==|  0.87104
USER: genes 9 Torsion [N]-CA--CB-[CG] |==|  0.36482
USER: genes 10 Torsion [CA]-CB--CG-[CD] |==|  0.27061
USER: genes 11 Torsion [CB]-CG--CD-[OE2] |==|  0.41382
USER: genes 12 Torsion [N]-CA--C-[N] |==|  0.32552
USER: genes 13 Torsion [C]-N--CA-[CB] |==|  0.84345
USER: genes 14 Torsion [N]-CA--CB-[CG2] |==|  0.43059
USER: genes 15 Torsion [CA]-CB--OG1-[HG1] |==|  0.01756
USER: genes 16 Torsion [N]-CA--C-[N] |==|  0.36136
USER: genes 17 Torsion [N]-CA--CB-[CG] |==|  0.76638
USER: genes 18 Torsion [CA]-CB--CG-[CD] |==|  0.54942
USER: genes 19 Torsion [CB]-CG--CD-[NE2] |==|  0.03404
ROOT
ATOM      1  CA  GLN I 252      25.627   8.008 -19.480  1.00 16.23 LIG 0.18  C 
ENDROOT
BRANCH 1 2
ATOM      2  N   GLN I 252      25.233   6.678 -19.936  1.00 16.34 LIG-0.35  N 
ATOM      3  C   VAL I 251      24.053   6.165 -19.587  1.00 18.16 LIG 0.24  C 
ATOM      4 O    VAL I 251      23.245   6.769 -18.868  1.00 14.74 LIG-0.27  OA
ATOM      5 H    GLN I 252      25.813   6.277 -20.430  1.00 16.34 LIG 0.16  HD
BRANCH 3 6
ATOM      6  CA  VAL I 251      23.724   4.762 -20.110  1.00 17.69 LIG 0.18  C 
BRANCH 6 7
ATOM      7  N   VAL I 251      23.372   4.915 -21.510  1.00 18.42 LIG-0.35  N 
ATOM      8  C   PRO I 250      22.458   5.772 -21.950  1.00 18.71 LIG 0.24  C 
ATOM      9 O    PRO I 250      21.818   6.523 -21.213  1.00 17.39 LIG-0.27  OA
ATOM     10 H    VAL I 251      23.814   4.395 -22.033  1.00 18.42 LIG 0.16  HD
BRANCH 8 11
ATOM     11  CA  PRO I 250      22.259   5.805 -23.461  1.00 18.98 LIG 0.18  C 
ATOM     12  CB  PRO I 250      21.742   4.448 -23.962  1.00 18.07 LIG 0.04  C 
ATOM     13  CG  PRO I 250      22.697   4.075 -25.095  1.00 16.66 LIG 0.02  C 
ATOM     14  CD  PRO I 250      23.986   4.640 -24.640  1.00 18.50 LIG 0.13  C 
ATOM     15  N   PRO I 250      23.544   5.951 -24.154  1.00 18.66 LIG-0.34  N 
ATOM     16  C   ACE I 249      24.199   7.115 -24.281  1.00 19.73 LIG 0.22  C 
ATOM     17 O    ACE I 249      23.760   8.169 -23.801  1.00 18.17 LIG-0.27  OA
ATOM     18  CH3 ACE I 249      25.517   7.096 -25.030  1.00 18.86 LIG 0.12  C 
ENDBRANCH 8 11
ENDBRANCH 6 7
BRANCH 6 19
ATOM     19  CB  VAL I 251      24.963   3.833 -19.962  1.00 19.17 LIG 0.01  C 
ATOM     20  CG2 VAL I 251      25.819   3.921 -21.217  1.00 18.02 LIG 0.01  C 
ATOM     21  CG1 VAL I 251      24.534   2.389 -19.730  1.00 18.69 LIG 0.01  C 
ENDBRANCH 6 19
ENDBRANCH 3 6
ENDBRANCH 1 2
BRANCH 1 22
ATOM     22  C   GLN I 252      25.305   8.209 -18.018  1.00 16.56 LIG 0.24  C 
ATOM     23 O    GLN I 252      25.634   7.371 -17.174  1.00 16.02 LIG-0.27  OA
ATOM     24  N   GLU I 253      24.654   9.330 -17.721  1.00 16.36 LIG-0.35  N 
ATOM     25 H    GLU I 253      24.427   9.927 -18.295  1.00 16.36 LIG 0.16  HD
BRANCH 24 26
ATOM     26  CA  GLU I 253      24.272   9.626 -16.351  1.00 16.29 LIG 0.18  C 
BRANCH 26 27
ATOM     27  CB  GLU I 253      23.630   8.406 -15.679  1.00 17.20 LIG 0.04  C 
BRANCH 27 28
ATOM     28  CG  GLU I 253      24.192   8.082 -14.316  1.00 17.14 LIG 0.12  C 
BRANCH 28 29
ATOM     29  CD  GLU I 253      23.348   8.639 -13.175  1.00 16.40 LIG 0.17  C 
ATOM     30 OE2  GLU I 253      23.319   8.011 -12.092  1.00 15.77 LIG-0.65  OA
ATOM     31 OE1  GLU I 253      22.739   9.716 -13.352  1.00 15.17 LIG-0.65  OA
ENDBRANCH 28 29
ENDBRANCH 27 28
ENDBRANCH 26 27
BRANCH 26 32
ATOM     32  C   GLU I 253      25.545   9.980 -15.612  1.00 17.65 LIG 0.24  C 
ATOM     33 O    GLU I 253      26.445   9.153 -15.457  1.00 15.54 LIG-0.27  OA
ATOM     34  N   THR I 254      25.581  11.219 -15.142  1.00 18.98 LIG-0.34  N 
ATOM     35 H    THR I 254      24.932  11.772 -15.251  1.00 18.98 LIG 0.16  HD
BRANCH 34 36
ATOM     36  CA  THR I 254      26.694  11.788 -14.400  1.00 17.93 LIG 0.21  C 
BRANCH 36 37
ATOM     37  CB  THR I 254      26.978  10.904 -13.168  1.00 16.77 LIG 0.15  C 
ATOM     38  CG2 THR I 254      28.384  11.040 -12.721  1.00 17.84 LIG 0.04  C 
BRANCH 37 39
ATOM     39 OG1  THR I 254      26.064  11.231 -12.112  1.00 18.79 LIG-0.39  OA
ATOM     40 HG1  THR I 254      25.494  11.780 -12.395  1.00 18.79 LIG 0.21  HD
ENDBRANCH 37 39
ENDBRANCH 36 37
BRANCH 36 41
ATOM     41  C   THR I 254      27.954  11.910 -15.278  1.00 19.04 LIG 0.29  C 
ATOM     42 O    THR I 254      28.305  10.915 -15.939  1.00 18.19 LIG-0.27  OA
ATOM     43  N   NH2 I 255      28.572  12.998 -15.318  1.00 17.54 LIG-0.11  N 
ENDBRANCH 36 41
ENDBRANCH 34 36
ENDBRANCH 26 32
ENDBRANCH 24 26
ENDBRANCH 1 22
BRANCH 1 44
ATOM     44  CB  GLN I 252      24.933   9.118 -20.272  1.00 17.05 LIG 0.04  C 
BRANCH 44 45
ATOM     45  CG  GLN I 252      25.602   9.496 -21.585  1.00 16.15 LIG 0.10  C 
BRANCH 45 46
ATOM     46  CD  GLN I 252      25.134  10.849 -22.084  1.00 17.21 LIG 0.21  C 
ATOM     47  NE2 GLN I 252      24.444  11.596 -21.227  1.00 17.56 LIG-0.37  N 
ATOM     48 21HE GLN I 252      24.285  11.304 -20.433  1.00 17.56 LIG 0.16  HD
ATOM     49 22HE GLN I 252      24.157  12.370 -21.466  1.00 17.56 LIG 0.16  HD
ATOM     50 OE1  GLN I 252      25.388  11.216 -23.226  1.00 16.83 LIG-0.27  OA
ENDBRANCH 45 46
ENDBRANCH 44 45
ENDBRANCH 1 44
TORSDOF 18
ENDMDL
