MODEL 1
USER: ADFR SOLUTION from run 128
USER: SCORE 18.225108 LL:  -3.166 LR: -15.697 RR:   0.000 FEB:  -9.731
USER: RMSD 4.851650
USER: SEED 127
USER: STATUS no improvement in best in 3 clusters for 5 generations
USER: GENES 22
USER: genes 0 Translation |==|  0.49122 0.56500 0.55452
USER: genes 1 Rotation |==|  0.44565 0.42271 0.58720 0.98319
USER: genes 2 Torsion [C]-CA--N-[C] |==|  0.79066
USER: genes 3 Torsion [N]-C--CA-[N] |==|  0.27058
USER: genes 4 Torsion [C]-CA--N-[C] |==|  0.76524
USER: genes 5 Torsion [N]-C--CA-[CB] |==|  0.58497
USER: genes 6 Torsion [C]-CA--CB-[CG2] |==|  0.15347
USER: genes 7 Torsion [CA]-CB--CG1-[CD1] |==|  0.34348
USER: genes 8 Torsion [N]-CA--C-[N] |==|  0.22729
USER: genes 9 Torsion [C]-N--CA-[C] |==|  0.70808
USER: genes 10 Torsion [N]-CA--C-[N] |==|  0.02507
USER: genes 11 Torsion [C]-N--CA-[C] |==|  0.18093
USER: genes 12 Torsion [N]-CA--C-[O] |==|  0.01877
USER: genes 13 Torsion [N]-CA--CB-[CG] |==|  0.51654
USER: genes 14 Torsion [CA]-CB--CG-[CD] |==|  0.12287
USER: genes 15 Torsion [CB]-CG--CD-[OE1] |==|  0.23631
USER: genes 16 Torsion [N]-CA--CB-[CG] |==|  0.62851
USER: genes 17 Torsion [CA]-CB--CG-[CD] |==|  0.35786
USER: genes 18 Torsion [CB]-CG--CD-[OE1] |==|  0.32662
USER: genes 19 Torsion [N]-CA--CB-[CG] |==|  0.06141
USER: genes 20 Torsion [CA]-CB--CG-[CD] |==|  0.76582
USER: genes 21 Torsion [CB]-CG--CD-[OE1] |==|  0.89708
ROOT
ATOM      1  CA  GLN G 264      24.217  40.348  62.830  1.00 24.93 LIG 0.18  C 
ENDROOT
BRANCH 1 2
ATOM      2  N   GLN G 264      23.222  39.723  63.692  1.00 24.45 LIG-0.35  N 
ATOM      3 H    GLN G 264      23.158  40.060  64.480  1.00 24.45 LIG 0.16  HD
ATOM      4  C   ILE G 263      22.493  38.708  63.242  1.00 25.21 LIG 0.24  C 
ATOM      5 O    ILE G 263      22.632  38.245  62.109  1.00 24.71 LIG-0.27  OA
BRANCH 4 6
ATOM      6  CA  ILE G 263      21.454  38.119  64.195  1.00 25.39 LIG 0.18  C 
BRANCH 6 7
ATOM      7  N   ILE G 263      20.167  38.717  63.868  1.00 26.84 LIG-0.35  N 
ATOM      8 H    ILE G 263      19.688  38.241  63.335  1.00 26.84 LIG 0.16  HD
ATOM      9  C   PRO G 262      19.775  39.890  64.351  1.00 27.66 LIG 0.24  C 
ATOM     10 O    PRO G 262      20.451  40.555  65.131  1.00 28.28 LIG-0.27  OA
BRANCH 9 11
ATOM     11  CA  PRO G 262      18.407  40.381  63.885  1.00 28.51 LIG 0.18  C 
ATOM     12  CB  PRO G 262      18.328  41.906  63.824  1.00 28.21 LIG 0.04  C 
ATOM     13  CG  PRO G 262      17.895  42.248  65.256  1.00 28.36 LIG 0.02  C 
ATOM     14  CD  PRO G 262      16.737  41.282  65.365  1.00 29.26 LIG 0.13  C 
ATOM     15  N   PRO G 262      17.343  40.048  64.834  1.00 29.83 LIG-0.34  N 
ATOM     16  C   ACE G 261      17.033  38.773  65.103  1.00 31.20 LIG 0.22  C 
ATOM     17 O    ACE G 261      17.628  37.839  64.563  1.00 31.65 LIG-0.27  OA
ATOM     18  CH3 ACE G 261      15.919  38.503  66.097  1.00 31.68 LIG 0.12  C 
ENDBRANCH 9 11
ENDBRANCH 6 7
BRANCH 6 19
ATOM     19  CB  ILE G 263      21.408  36.585  64.016  1.00 25.89 LIG 0.01  C 
ATOM     20  CG2 ILE G 263      22.800  35.994  64.210  1.00 25.32 LIG 0.01  C 
BRANCH 19 21
ATOM     21  CG1 ILE G 263      20.403  35.979  65.003  1.00 25.77 LIG 0.00  C 
ATOM     22  CD1 ILE G 263      19.306  35.145  64.351  1.00 27.45 LIG 0.01  C 
ENDBRANCH 19 21
ENDBRANCH 6 19
ENDBRANCH 4 6
ENDBRANCH 1 2
BRANCH 1 23
ATOM     23  C   GLN G 264      25.471  39.509  62.668  1.00 25.80 LIG 0.24  C 
ATOM     24  N   GLU G 265      25.390  38.541  61.765  1.00 25.54 LIG-0.35  N 
ATOM     25 H    GLU G 265      24.682  38.369  61.309  1.00 25.54 LIG 0.16  HD
ATOM     26 O    GLN G 264      26.483  39.729  63.339  1.00 23.91 LIG-0.27  OA
BRANCH 24 27
ATOM     27  CA  GLU G 265      26.516  37.677  61.469  1.00 27.50 LIG 0.18  C 
BRANCH 27 28
ATOM     28  C   GLU G 265      27.052  38.148  60.120  1.00 28.95 LIG 0.24  C 
ATOM     29  N   GLU G 266      26.553  39.277  59.628  1.00 30.90 LIG-0.34  N 
ATOM     30 H    GLU G 266      25.942  39.749  60.006  1.00 30.90 LIG 0.16  HD
ATOM     31 O    GLU G 265      27.907  37.487  59.526  1.00 27.90 LIG-0.27  OA
BRANCH 29 32
ATOM     32  CA  GLU G 266      27.042  39.795  58.359  1.00 33.40 LIG 0.19  C 
BRANCH 32 33
ATOM     33  C   GLU G 266      26.671  38.824  57.251  1.00 34.22 LIG 0.20  C 
ATOM     34 O    GLU G 266      25.934  37.859  57.549  1.00 35.29 LIG-0.65  OA
ATOM     35 OXT  GLU G 266      27.137  39.032  56.110  1.00 35.25 LIG-0.65  OA
ENDBRANCH 32 33
BRANCH 32 36
ATOM     36  CB  GLU G 266      28.562  39.974  58.380  1.00 34.59 LIG 0.05  C 
BRANCH 36 37
ATOM     37  CG  GLU G 266      29.136  40.643  57.145  1.00 35.99 LIG 0.12  C 
BRANCH 37 38
ATOM     38  CD  GLU G 266      28.319  41.849  56.711  1.00 37.74 LIG 0.17  C 
ATOM     39 OE1  GLU G 266      28.559  42.952  57.252  1.00 38.97 LIG-0.65  OA
ATOM     40 OE2  GLU G 266      27.436  41.690  55.837  1.00 36.82 LIG-0.65  OA
ENDBRANCH 37 38
ENDBRANCH 36 37
ENDBRANCH 32 36
ENDBRANCH 29 32
ENDBRANCH 27 28
BRANCH 27 41
ATOM     41  CB  GLU G 265      26.044  36.223  61.352  1.00 27.49 LIG 0.04  C 
BRANCH 41 42
ATOM     42  CG  GLU G 265      26.921  35.232  62.110  1.00 27.71 LIG 0.12  C 
BRANCH 42 43
ATOM     43  CD  GLU G 265      26.136  34.309  63.034  1.00 28.38 LIG 0.17  C 
ATOM     44 OE1  GLU G 265      26.159  33.077  62.818  1.00 27.39 LIG-0.65  OA
ATOM     45 OE2  GLU G 265      25.474  34.827  63.964  1.00 28.48 LIG-0.65  OA
ENDBRANCH 42 43
ENDBRANCH 41 42
ENDBRANCH 27 41
ENDBRANCH 24 27
ENDBRANCH 1 23
BRANCH 1 46
ATOM     46  CB  GLN G 264      24.627  41.726  63.363  1.00 25.62 LIG 0.04  C 
BRANCH 46 47
ATOM     47  CG  GLN G 264      24.380  41.956  64.848  1.00 26.81 LIG 0.10  C 
BRANCH 47 48
ATOM     48  CD  GLN G 264      22.950  42.407  65.127  1.00 28.09 LIG 0.21  C 
ATOM     49  NE2 GLN G 264      22.382  41.943  66.239  1.00 27.12 LIG-0.37  N 
ATOM     50 21HE GLN G 264      22.820  41.415  66.757  1.00 27.12 LIG 0.16  HD
ATOM     51 22HE GLN G 264      21.578  42.171  66.439  1.00 27.12 LIG 0.16  HD
ATOM     52 OE1  GLN G 264      22.366  43.166  64.351  1.00 28.52 LIG-0.27  OA
ENDBRANCH 47 48
ENDBRANCH 46 47
ENDBRANCH 1 46
TORSDOF 20
ENDMDL
MODEL 2
USER: ADFR SOLUTION from run 133
USER: SCORE 18.186821 LL:  -3.317 LR: -15.333 RR:   0.000 FEB:  -9.367
USER: RMSD 1.974707
USER: SEED 132
USER: STATUS no improvement in best in 2 clusters for 5 generations
USER: GENES 22
USER: genes 0 Translation |==|  0.49915 0.54449 0.54961
USER: genes 1 Rotation |==|  0.50177 0.47328 0.50339 0.99927
USER: genes 2 Torsion [C]-CA--N-[C] |==|  0.83889
USER: genes 3 Torsion [N]-C--CA-[N] |==|  0.30347
USER: genes 4 Torsion [C]-CA--N-[C] |==|  0.75572
USER: genes 5 Torsion [N]-C--CA-[CB] |==|  0.62300
USER: genes 6 Torsion [C]-CA--CB-[CG2] |==|  0.17638
USER: genes 7 Torsion [CA]-CB--CG1-[CD1] |==|  0.36324
USER: genes 8 Torsion [N]-CA--C-[N] |==|  0.44738
USER: genes 9 Torsion [C]-N--CA-[C] |==|  0.85500
USER: genes 10 Torsion [N]-CA--C-[N] |==|  0.37960
USER: genes 11 Torsion [C]-N--CA-[C] |==|  0.71838
USER: genes 12 Torsion [N]-CA--C-[O] |==|  0.12846
USER: genes 13 Torsion [N]-CA--CB-[CG] |==|  0.93537
USER: genes 14 Torsion [CA]-CB--CG-[CD] |==|  0.53343
USER: genes 15 Torsion [CB]-CG--CD-[OE1] |==|  0.51111
USER: genes 16 Torsion [N]-CA--CB-[CG] |==|  0.80799
USER: genes 17 Torsion [CA]-CB--CG-[CD] |==|  0.51259
USER: genes 18 Torsion [CB]-CG--CD-[OE1] |==|  0.78023
USER: genes 19 Torsion [N]-CA--CB-[CG] |==|  0.77562
USER: genes 20 Torsion [CA]-CB--CG-[CD] |==|  0.18866
USER: genes 21 Torsion [CB]-CG--CD-[OE1] |==|  0.60325
ROOT
ATOM      1  CA  GLN G 264      24.413  39.933  62.731  1.00 24.93 LIG 0.18  C 
ENDROOT
BRANCH 1 2
ATOM      2  N   GLN G 264      23.420  39.415  63.664  1.00 24.45 LIG-0.35  N 
ATOM      3 H    GLN G 264      23.474  39.725  64.464  1.00 24.45 LIG 0.16  HD
ATOM      4  C   ILE G 263      22.520  38.528  63.256  1.00 25.21 LIG 0.24  C 
ATOM      5 O    ILE G 263      22.492  38.098  62.101  1.00 24.71 LIG-0.27  OA
BRANCH 4 6
ATOM      6  CA  ILE G 263      21.498  38.049  64.284  1.00 25.39 LIG 0.18  C 
BRANCH 6 7
ATOM      7  N   ILE G 263      20.206  38.617  63.920  1.00 26.84 LIG-0.35  N 
ATOM      8 H    ILE G 263      19.734  38.109  63.411  1.00 26.84 LIG 0.16  HD
ATOM      9  C   PRO G 262      19.801  39.810  64.340  1.00 27.66 LIG 0.24  C 
ATOM     10 O    PRO G 262      20.468  40.520  65.087  1.00 28.28 LIG-0.27  OA
BRANCH 9 11
ATOM     11  CA  PRO G 262      18.432  40.263  63.843  1.00 28.51 LIG 0.18  C 
ATOM     12  CB  PRO G 262      18.434  41.721  63.385  1.00 28.21 LIG 0.04  C 
ATOM     13  CG  PRO G 262      18.133  42.456  64.698  1.00 28.36 LIG 0.02  C 
ATOM     14  CD  PRO G 262      16.934  41.641  65.128  1.00 29.26 LIG 0.13  C 
ATOM     15  N   PRO G 262      17.426  40.269  64.908  1.00 29.83 LIG-0.34  N 
ATOM     16  C   ACE G 261      17.067  39.135  65.524  1.00 31.20 LIG 0.22  C 
ATOM     17 O    ACE G 261      17.565  38.051  65.216  1.00 31.65 LIG-0.27  OA
ATOM     18  CH3 ACE G 261      16.020  39.217  66.619  1.00 31.68 LIG 0.12  C 
ENDBRANCH 9 11
ENDBRANCH 6 7
BRANCH 6 19
ATOM     19  CB  ILE G 263      21.442  36.505  64.268  1.00 25.89 LIG 0.01  C 
ATOM     20  CG2 ILE G 263      22.786  35.929  64.697  1.00 25.32 LIG 0.01  C 
BRANCH 19 21
ATOM     21  CG1 ILE G 263      20.310  36.018  65.182  1.00 25.77 LIG 0.00  C 
ATOM     22  CD1 ILE G 263      19.382  34.992  64.542  1.00 27.45 LIG 0.01  C 
ENDBRANCH 19 21
ENDBRANCH 6 19
ENDBRANCH 4 6
ENDBRANCH 1 2
BRANCH 1 23
ATOM     23  C   GLN G 264      25.264  38.843  62.105  1.00 25.80 LIG 0.24  C 
ATOM     24  N   GLU G 265      25.894  39.187  60.990  1.00 25.54 LIG-0.35  N 
ATOM     25 H    GLU G 265      25.823  39.960  60.619  1.00 25.54 LIG 0.16  HD
ATOM     26 O    GLN G 264      25.349  37.722  62.615  1.00 23.91 LIG-0.27  OA
BRANCH 24 27
ATOM     27  CA  GLU G 265      26.773  38.268  60.294  1.00 27.50 LIG 0.18  C 
BRANCH 27 28
ATOM     28  C   GLU G 265      27.755  37.764  61.347  1.00 28.95 LIG 0.24  C 
ATOM     29  N   GLU G 266      28.032  36.464  61.348  1.00 30.90 LIG-0.34  N 
ATOM     30 H    GLU G 266      27.687  35.888  60.811  1.00 30.90 LIG 0.16  HD
ATOM     31 O    GLU G 265      28.254  38.548  62.158  1.00 27.90 LIG-0.27  OA
BRANCH 29 32
ATOM     32  CA  GLU G 266      28.983  35.924  62.309  1.00 33.40 LIG 0.19  C 
BRANCH 32 33
ATOM     33  C   GLU G 266      30.316  35.703  61.615  1.00 34.22 LIG 0.20  C 
ATOM     34 O    GLU G 266      30.752  36.623  60.890  1.00 35.29 LIG-0.65  OA
ATOM     35 OXT  GLU G 266      30.894  34.608  61.793  1.00 35.25 LIG-0.65  OA
ENDBRANCH 32 33
BRANCH 32 36
ATOM     36  CB  GLU G 266      28.493  34.593  62.887  1.00 34.59 LIG 0.05  C 
BRANCH 36 37
ATOM     37  CG  GLU G 266      26.991  34.389  62.815  1.00 35.99 LIG 0.12  C 
BRANCH 37 38
ATOM     38  CD  GLU G 266      26.529  33.208  63.652  1.00 37.74 LIG 0.17  C 
ATOM     39 OE1  GLU G 266      25.318  32.893  63.612  1.00 38.97 LIG-0.65  OA
ATOM     40 OE2  GLU G 266      27.374  32.603  64.352  1.00 36.82 LIG-0.65  OA
ENDBRANCH 37 38
ENDBRANCH 36 37
ENDBRANCH 32 36
ENDBRANCH 29 32
ENDBRANCH 27 28
BRANCH 27 41
ATOM     41  CB  GLU G 265      27.539  39.009  59.193  1.00 27.49 LIG 0.04  C 
BRANCH 41 42
ATOM     42  CG  GLU G 265      26.660  39.457  58.030  1.00 27.71 LIG 0.12  C 
BRANCH 42 43
ATOM     43  CD  GLU G 265      27.440  40.096  56.888  1.00 28.38 LIG 0.17  C 
ATOM     44 OE1  GLU G 265      27.809  41.287  57.001  1.00 27.39 LIG-0.65  OA
ATOM     45 OE2  GLU G 265      27.661  39.407  55.865  1.00 28.48 LIG-0.65  OA
ENDBRANCH 42 43
ENDBRANCH 41 42
ENDBRANCH 27 41
ENDBRANCH 24 27
ENDBRANCH 1 23
BRANCH 1 46
ATOM     46  CB  GLN G 264      25.347  40.938  63.414  1.00 25.62 LIG 0.04  C 
BRANCH 46 47
ATOM     47  CG  GLN G 264      24.797  42.350  63.562  1.00 26.81 LIG 0.10  C 
BRANCH 47 48
ATOM     48  CD  GLN G 264      23.632  42.411  64.544  1.00 28.09 LIG 0.21  C 
ATOM     49  NE2 GLN G 264      23.712  41.626  65.616  1.00 27.12 LIG-0.37  N 
ATOM     50 21HE GLN G 264      24.397  41.118  65.727  1.00 27.12 LIG 0.16  HD
ATOM     51 22HE GLN G 264      23.080  41.627  66.199  1.00 27.12 LIG 0.16  HD
ATOM     52 OE1  GLN G 264      22.673  43.158  64.338  1.00 28.52 LIG-0.27  OA
ENDBRANCH 47 48
ENDBRANCH 46 47
ENDBRANCH 1 46
TORSDOF 20
ENDMDL
MODEL 3
USER: ADFR SOLUTION from run 82
USER: SCORE 15.883830 LL:  -2.239 LR: -14.761 RR:   0.000 FEB:  -8.795
USER: RMSD 6.134548
USER: SEED 81
USER: STATUS no improvement in best in 8 clusters for 5 generations
USER: GENES 22
USER: genes 0 Translation |==|  0.58301 0.51478 0.50228
USER: genes 1 Rotation |==|  0.82079 0.33390 0.15709 0.54373
USER: genes 2 Torsion [C]-CA--N-[C] |==|  0.60035
USER: genes 3 Torsion [N]-C--CA-[N] |==|  0.39267
USER: genes 4 Torsion [C]-CA--N-[C] |==|  0.59230
USER: genes 5 Torsion [N]-C--CA-[CB] |==|  0.98539
USER: genes 6 Torsion [C]-CA--CB-[CG2] |==|  0.70770
USER: genes 7 Torsion [CA]-CB--CG1-[CD1] |==|  0.51145
USER: genes 8 Torsion [N]-CA--C-[N] |==|  0.41338
USER: genes 9 Torsion [C]-N--CA-[C] |==|  0.11667
USER: genes 10 Torsion [N]-CA--C-[N] |==|  0.67898
USER: genes 11 Torsion [C]-N--CA-[C] |==|  0.56147
USER: genes 12 Torsion [N]-CA--C-[O] |==|  0.46303
USER: genes 13 Torsion [N]-CA--CB-[CG] |==|  0.07464
USER: genes 14 Torsion [CA]-CB--CG-[CD] |==|  0.37620
USER: genes 15 Torsion [CB]-CG--CD-[OE1] |==|  0.65703
USER: genes 16 Torsion [N]-CA--CB-[CG] |==|  0.03294
USER: genes 17 Torsion [CA]-CB--CG-[CD] |==|  0.30792
USER: genes 18 Torsion [CB]-CG--CD-[OE1] |==|  0.12145
USER: genes 19 Torsion [N]-CA--CB-[CG] |==|  0.82561
USER: genes 20 Torsion [CA]-CB--CG-[CD] |==|  0.29545
USER: genes 21 Torsion [CB]-CG--CD-[OE1] |==|  0.27119
ROOT
ATOM      1  CA  GLN G 264      26.488  39.331  61.772  1.00 24.93 LIG 0.18  C 
ENDROOT
BRANCH 1 2
ATOM      2  N   GLN G 264      25.812  40.557  62.178  1.00 24.45 LIG-0.35  N 
ATOM      3 H    GLN G 264      25.557  41.064  61.533  1.00 24.45 LIG 0.16  HD
ATOM      4  C   ILE G 263      25.628  40.821  63.467  1.00 25.21 LIG 0.24  C 
ATOM      5 O    ILE G 263      26.026  40.071  64.359  1.00 24.71 LIG-0.27  OA
BRANCH 4 6
ATOM      6  CA  ILE G 263      24.890  42.112  63.815  1.00 25.39 LIG 0.18  C 
BRANCH 6 7
ATOM      7  N   ILE G 263      24.022  41.832  64.951  1.00 26.84 LIG-0.35  N 
ATOM      8 H    ILE G 263      24.342  41.250  65.498  1.00 26.84 LIG 0.16  HD
ATOM      9  C   PRO G 262      22.846  42.424  65.121  1.00 27.66 LIG 0.24  C 
ATOM     10 O    PRO G 262      22.405  43.273  64.351  1.00 28.28 LIG-0.27  OA
BRANCH 9 11
ATOM     11  CA  PRO G 262      22.053  41.994  66.351  1.00 28.51 LIG 0.18  C 
ATOM     12  CB  PRO G 262      22.724  40.845  67.102  1.00 28.21 LIG 0.04  C 
ATOM     13  CG  PRO G 262      22.144  39.624  66.377  1.00 28.36 LIG 0.02  C 
ATOM     14  CD  PRO G 262      20.684  40.016  66.433  1.00 29.26 LIG 0.13  C 
ATOM     15  N   PRO G 262      20.749  41.423  66.002  1.00 29.83 LIG-0.34  N 
ATOM     16  C   ACE G 261      19.814  42.162  65.390  1.00 31.20 LIG 0.22  C 
ATOM     17 O    ACE G 261      20.015  43.344  65.103  1.00 31.65 LIG-0.27  OA
ATOM     18  CH3 ACE G 261      18.488  41.505  65.058  1.00 31.68 LIG 0.12  C 
ENDBRANCH 9 11
ENDBRANCH 6 7
BRANCH 6 19
ATOM     19  CB  ILE G 263      25.919  43.209  64.169  1.00 25.89 LIG 0.01  C 
ATOM     20  CG2 ILE G 263      25.940  43.439  65.676  1.00 25.32 LIG 0.01  C 
BRANCH 19 21
ATOM     21  CG1 ILE G 263      27.305  42.806  63.648  1.00 25.77 LIG 0.00  C 
ATOM     22  CD1 ILE G 263      28.424  43.770  64.027  1.00 27.45 LIG 0.01  C 
ENDBRANCH 19 21
ENDBRANCH 6 19
ENDBRANCH 4 6
ENDBRANCH 1 2
BRANCH 1 23
ATOM     23  C   GLN G 264      27.364  39.517  60.546  1.00 25.80 LIG 0.24  C 
ATOM     24  N   GLU G 265      28.438  38.740  60.496  1.00 25.54 LIG-0.35  N 
ATOM     25 H    GLU G 265      28.653  38.180  61.113  1.00 25.54 LIG 0.16  HD
ATOM     26 O    GLN G 264      27.079  40.338  59.671  1.00 23.91 LIG-0.27  OA
BRANCH 24 27
ATOM     27  CA  GLU G 265      29.353  38.773  59.373  1.00 27.50 LIG 0.18  C 
BRANCH 27 28
ATOM     28  C   GLU G 265      29.526  40.249  59.028  1.00 28.95 LIG 0.24  C 
ATOM     29  N   GLU G 266      29.089  40.652  57.839  1.00 30.90 LIG-0.34  N 
ATOM     30 H    GLU G 266      28.732  40.140  57.248  1.00 30.90 LIG 0.16  HD
ATOM     31 O    GLU G 265      30.059  41.017  59.832  1.00 27.90 LIG-0.27  OA
BRANCH 29 32
ATOM     32  CA  GLU G 266      29.198  42.053  57.461  1.00 33.40 LIG 0.19  C 
BRANCH 32 33
ATOM     33  C   GLU G 266      28.184  42.352  56.370  1.00 34.22 LIG 0.20  C 
ATOM     34 O    GLU G 266      27.958  43.552  56.102  1.00 35.29 LIG-0.65  OA
ATOM     35 OXT  GLU G 266      27.619  41.385  55.814  1.00 35.25 LIG-0.65  OA
ENDBRANCH 32 33
BRANCH 32 36
ATOM     36  CB  GLU G 266      30.601  42.381  56.943  1.00 34.59 LIG 0.05  C 
BRANCH 36 37
ATOM     37  CG  GLU G 266      31.338  41.204  56.331  1.00 35.99 LIG 0.12  C 
BRANCH 37 38
ATOM     38  CD  GLU G 266      32.027  41.569  55.027  1.00 37.74 LIG 0.17  C 
ATOM     39 OE1  GLU G 266      31.742  40.908  54.002  1.00 38.97 LIG-0.65  OA
ATOM     40 OE2  GLU G 266      32.855  42.509  55.031  1.00 36.82 LIG-0.65  OA
ENDBRANCH 37 38
ENDBRANCH 36 37
ENDBRANCH 32 36
ENDBRANCH 29 32
ENDBRANCH 27 28
BRANCH 27 41
ATOM     41  CB  GLU G 265      28.740  38.037  58.176  1.00 27.49 LIG 0.04  C 
BRANCH 41 42
ATOM     42  CG  GLU G 265      27.259  37.716  58.348  1.00 27.71 LIG 0.12  C 
BRANCH 42 43
ATOM     43  CD  GLU G 265      26.352  38.518  57.424  1.00 28.38 LIG 0.17  C 
ATOM     44 OE1  GLU G 265      26.683  38.657  56.224  1.00 27.39 LIG-0.65  OA
ATOM     45 OE2  GLU G 265      25.318  39.032  57.910  1.00 28.48 LIG-0.65  OA
ENDBRANCH 42 43
ENDBRANCH 41 42
ENDBRANCH 27 41
ENDBRANCH 24 27
ENDBRANCH 1 23
BRANCH 1 46
ATOM     46  CB  GLN G 264      25.483  38.212  61.478  1.00 25.62 LIG 0.04  C 
BRANCH 46 47
ATOM     47  CG  GLN G 264      24.634  37.765  62.661  1.00 26.81 LIG 0.10  C 
BRANCH 47 48
ATOM     48  CD  GLN G 264      23.195  38.257  62.551  1.00 28.09 LIG 0.21  C 
ATOM     49  NE2 GLN G 264      22.957  39.505  62.950  1.00 27.12 LIG-0.37  N 
ATOM     50 21HE GLN G 264      23.599  39.989  63.252  1.00 27.12 LIG 0.16  HD
ATOM     51 22HE GLN G 264      22.161  39.827  62.905  1.00 27.12 LIG 0.16  HD
ATOM     52 OE1  GLN G 264      22.309  37.522  62.109  1.00 28.52 LIG-0.27  OA
ENDBRANCH 47 48
ENDBRANCH 46 47
ENDBRANCH 1 46
TORSDOF 20
ENDMDL
MODEL 4
USER: ADFR SOLUTION from run 181
USER: SCORE 15.486982 LL:  -2.838 LR: -14.268 RR:   0.000 FEB:  -8.302
USER: RMSD 4.671354
USER: SEED 180
USER: STATUS no improvement in best in 10 clusters for 5 generations
USER: GENES 22
USER: genes 0 Translation |==|  0.43332 0.48322 0.57781
USER: genes 1 Rotation |==|  0.49914 0.34798 0.53884 0.97474
USER: genes 2 Torsion [C]-CA--N-[C] |==|  0.17886
USER: genes 3 Torsion [N]-C--CA-[N] |==|  0.88333
USER: genes 4 Torsion [C]-CA--N-[C] |==|  0.81873
USER: genes 5 Torsion [N]-C--CA-[CB] |==|  0.75277
USER: genes 6 Torsion [C]-CA--CB-[CG2] |==|  0.19334
USER: genes 7 Torsion [CA]-CB--CG1-[CD1] |==|  0.44910
USER: genes 8 Torsion [N]-CA--C-[N] |==|  0.37343
USER: genes 9 Torsion [C]-N--CA-[C] |==|  0.53934
USER: genes 10 Torsion [N]-CA--C-[N] |==|  0.52219
USER: genes 11 Torsion [C]-N--CA-[C] |==|  0.20079
USER: genes 12 Torsion [N]-CA--C-[O] |==|  0.45811
USER: genes 13 Torsion [N]-CA--CB-[CG] |==|  0.33136
USER: genes 14 Torsion [CA]-CB--CG-[CD] |==|  0.42560
USER: genes 15 Torsion [CB]-CG--CD-[OE1] |==|  0.50160
USER: genes 16 Torsion [N]-CA--CB-[CG] |==|  0.61681
USER: genes 17 Torsion [CA]-CB--CG-[CD] |==|  0.29147
USER: genes 18 Torsion [CB]-CG--CD-[OE1] |==|  0.44100
USER: genes 19 Torsion [N]-CA--CB-[CG] |==|  0.49313
USER: genes 20 Torsion [CA]-CB--CG-[CD] |==|  0.31061
USER: genes 21 Torsion [CB]-CG--CD-[OE1] |==|  0.15570
ROOT
ATOM      1  CA  GLN G 264      22.784  38.692  63.302  1.00 24.93 LIG 0.18  C 
ENDROOT
BRANCH 1 2
ATOM      2  N   GLN G 264      21.539  38.022  63.657  1.00 24.45 LIG-0.35  N 
ATOM      3 H    GLN G 264      20.931  38.036  63.050  1.00 24.45 LIG 0.16  HD
ATOM      4  C   ILE G 263      21.408  37.447  64.847  1.00 25.21 LIG 0.24  C 
ATOM      5 O    ILE G 263      22.303  37.467  65.694  1.00 24.71 LIG-0.27  OA
BRANCH 4 6
ATOM      6  CA  ILE G 263      20.084  36.744  65.139  1.00 25.39 LIG 0.18  C 
BRANCH 6 7
ATOM      7  N   ILE G 263      19.013  37.591  64.630  1.00 26.84 LIG-0.35  N 
ATOM      8 H    ILE G 263      18.572  37.241  63.979  1.00 26.84 LIG 0.16  HD
ATOM      9  C   PRO G 262      18.748  38.792  65.129  1.00 27.66 LIG 0.24  C 
ATOM     10 O    PRO G 262      19.364  39.278  66.073  1.00 28.28 LIG-0.27  OA
BRANCH 9 11
ATOM     11  CA  PRO G 262      17.609  39.557  64.460  1.00 28.51 LIG 0.18  C 
ATOM     12  CB  PRO G 262      18.092  40.408  63.285  1.00 28.21 LIG 0.04  C 
ATOM     13  CG  PRO G 262      18.474  41.715  63.991  1.00 28.36 LIG 0.02  C 
ATOM     14  CD  PRO G 262      17.204  41.907  64.789  1.00 29.26 LIG 0.13  C 
ATOM     15  N   PRO G 262      17.012  40.557  65.349  1.00 29.83 LIG-0.34  N 
ATOM     16  C   ACE G 261      16.393  40.192  66.479  1.00 31.20 LIG 0.22  C 
ATOM     17 O    ACE G 261      16.300  39.009  66.809  1.00 31.65 LIG-0.27  OA
ATOM     18  CH3 ACE G 261      15.798  41.282  67.351  1.00 31.68 LIG 0.12  C 
ENDBRANCH 9 11
ENDBRANCH 6 7
BRANCH 6 19
ATOM     19  CB  ILE G 263      20.072  35.366  64.440  1.00 25.89 LIG 0.01  C 
ATOM     20  CG2 ILE G 263      21.063  34.428  65.119  1.00 25.32 LIG 0.01  C 
BRANCH 19 21
ATOM     21  CG1 ILE G 263      18.651  34.787  64.463  1.00 25.77 LIG 0.00  C 
ATOM     22  CD1 ILE G 263      18.411  33.672  63.450  1.00 27.45 LIG 0.01  C 
ENDBRANCH 19 21
ENDBRANCH 6 19
ENDBRANCH 4 6
ENDBRANCH 1 2
BRANCH 1 23
ATOM     23  C   GLN G 264      23.967  37.744  63.225  1.00 25.80 LIG 0.24  C 
ATOM     24  N   GLU G 265      24.745  37.897  62.162  1.00 25.54 LIG-0.35  N 
ATOM     25 H    GLU G 265      24.597  38.470  61.538  1.00 25.54 LIG 0.16  HD
ATOM     26 O    GLN G 264      24.171  36.899  64.100  1.00 23.91 LIG-0.27  OA
BRANCH 24 27
ATOM     27  CA  GLU G 265      25.934  37.091  61.964  1.00 27.50 LIG 0.18  C 
BRANCH 27 28
ATOM     28  C   GLU G 265      26.725  37.791  60.863  1.00 28.95 LIG 0.24  C 
ATOM     29  N   GLU G 266      27.789  37.157  60.381  1.00 30.90 LIG-0.34  N 
ATOM     30 H    GLU G 266      28.070  36.392  60.654  1.00 30.90 LIG 0.16  HD
ATOM     31 O    GLU G 265      26.378  38.904  60.459  1.00 27.90 LIG-0.27  OA
BRANCH 29 32
ATOM     32  CA  GLU G 266      28.570  37.758  59.310  1.00 33.40 LIG 0.19  C 
BRANCH 32 33
ATOM     33  C   GLU G 266      29.358  38.930  59.869  1.00 34.22 LIG 0.20  C 
ATOM     34 O    GLU G 266      30.294  39.383  59.175  1.00 35.29 LIG-0.65  OA
ATOM     35 OXT  GLU G 266      29.040  39.364  60.998  1.00 35.25 LIG-0.65  OA
ENDBRANCH 32 33
BRANCH 32 36
ATOM     36  CB  GLU G 266      27.668  38.258  58.177  1.00 34.59 LIG 0.05  C 
BRANCH 36 37
ATOM     37  CG  GLU G 266      27.756  39.750  57.913  1.00 35.99 LIG 0.12  C 
BRANCH 37 38
ATOM     38  CD  GLU G 266      27.411  40.102  56.476  1.00 37.74 LIG 0.17  C 
ATOM     39 OE1  GLU G 266      27.459  41.305  56.134  1.00 38.97 LIG-0.65  OA
ATOM     40 OE2  GLU G 266      27.085  39.178  55.695  1.00 36.82 LIG-0.65  OA
ENDBRANCH 37 38
ENDBRANCH 36 37
ENDBRANCH 32 36
ENDBRANCH 29 32
ENDBRANCH 27 28
BRANCH 27 41
ATOM     41  CB  GLU G 265      25.542  35.685  61.497  1.00 27.49 LIG 0.04  C 
BRANCH 41 42
ATOM     42  CG  GLU G 265      26.343  34.573  62.165  1.00 27.71 LIG 0.12  C 
BRANCH 42 43
ATOM     43  CD  GLU G 265      25.559  33.813  63.228  1.00 28.38 LIG 0.17  C 
ATOM     44 OE1  GLU G 265      25.937  32.664  63.551  1.00 27.39 LIG-0.65  OA
ATOM     45 OE2  GLU G 265      24.546  34.362  63.720  1.00 28.48 LIG-0.65  OA
ENDBRANCH 42 43
ENDBRANCH 41 42
ENDBRANCH 27 41
ENDBRANCH 24 27
ENDBRANCH 1 23
BRANCH 1 46
ATOM     46  CB  GLN G 264      23.123  39.802  64.303  1.00 25.62 LIG 0.04  C 
BRANCH 46 47
ATOM     47  CG  GLN G 264      24.438  40.530  64.058  1.00 26.81 LIG 0.10  C 
BRANCH 47 48
ATOM     48  CD  GLN G 264      24.219  41.977  63.631  1.00 28.09 LIG 0.21  C 
ATOM     49  NE2 GLN G 264      24.768  42.350  62.476  1.00 27.12 LIG-0.37  N 
ATOM     50 21HE GLN G 264      25.220  41.784  62.013  1.00 27.12 LIG 0.16  HD
ATOM     51 22HE GLN G 264      24.671  43.156  62.194  1.00 27.12 LIG 0.16  HD
ATOM     52 OE1  GLN G 264      23.562  42.749  64.332  1.00 28.52 LIG-0.27  OA
ENDBRANCH 47 48
ENDBRANCH 46 47
ENDBRANCH 1 46
TORSDOF 20
ENDMDL
MODEL 5
USER: ADFR SOLUTION from run 39
USER: SCORE 16.998399 LL:  -3.108 LR: -14.095 RR:   0.000 FEB:  -8.129
USER: RMSD 3.141912
USER: SEED 38
USER: STATUS no improvement in best in 9 clusters for 5 generations
USER: GENES 22
USER: genes 0 Translation |==|  0.50146 0.54622 0.54762
USER: genes 1 Rotation |==|  0.51136 0.47568 0.49949 0.99928
USER: genes 2 Torsion [C]-CA--N-[C] |==|  0.84385
USER: genes 3 Torsion [N]-C--CA-[N] |==|  0.30066
USER: genes 4 Torsion [C]-CA--N-[C] |==|  0.75417
USER: genes 5 Torsion [N]-C--CA-[CB] |==|  0.59441
USER: genes 6 Torsion [C]-CA--CB-[CG2] |==|  0.17230
USER: genes 7 Torsion [CA]-CB--CG1-[CD1] |==|  0.33275
USER: genes 8 Torsion [N]-CA--C-[N] |==|  0.38127
USER: genes 9 Torsion [C]-N--CA-[C] |==|  0.78951
USER: genes 10 Torsion [N]-CA--C-[N] |==|  0.44277
USER: genes 11 Torsion [C]-N--CA-[C] |==|  0.16120
USER: genes 12 Torsion [N]-CA--C-[O] |==|  0.67053
USER: genes 13 Torsion [N]-CA--CB-[CG] |==|  0.88450
USER: genes 14 Torsion [CA]-CB--CG-[CD] |==|  0.57716
USER: genes 15 Torsion [CB]-CG--CD-[OE1] |==|  0.06487
USER: genes 16 Torsion [N]-CA--CB-[CG] |==|  0.19082
USER: genes 17 Torsion [CA]-CB--CG-[CD] |==|  0.42501
USER: genes 18 Torsion [CB]-CG--CD-[OE1] |==|  0.48013
USER: genes 19 Torsion [N]-CA--CB-[CG] |==|  0.77375
USER: genes 20 Torsion [CA]-CB--CG-[CD] |==|  0.18696
USER: genes 21 Torsion [CB]-CG--CD-[OE1] |==|  0.60646
ROOT
ATOM      1  CA  GLN G 264      24.470  39.968  62.690  1.00 24.93 LIG 0.18  C 
ENDROOT
BRANCH 1 2
ATOM      2  N   GLN G 264      23.480  39.427  63.613  1.00 24.45 LIG-0.35  N 
ATOM      3 H    GLN G 264      23.531  39.724  64.418  1.00 24.45 LIG 0.16  HD
ATOM      4  C   ILE G 263      22.585  38.542  63.187  1.00 25.21 LIG 0.24  C 
ATOM      5 O    ILE G 263      22.561  38.133  62.025  1.00 24.71 LIG-0.27  OA
BRANCH 4 6
ATOM      6  CA  ILE G 263      21.565  38.038  64.206  1.00 25.39 LIG 0.18  C 
BRANCH 6 7
ATOM      7  N   ILE G 263      20.275  38.624  63.864  1.00 26.84 LIG-0.35  N 
ATOM      8 H    ILE G 263      19.801  38.137  63.336  1.00 26.84 LIG 0.16  HD
ATOM      9  C   PRO G 262      19.874  39.801  64.330  1.00 27.66 LIG 0.24  C 
ATOM     10 O    PRO G 262      20.543  40.480  65.103  1.00 28.28 LIG-0.27  OA
BRANCH 9 11
ATOM     11  CA  PRO G 262      18.506  40.278  63.851  1.00 28.51 LIG 0.18  C 
ATOM     12  CB  PRO G 262      18.444  41.796  63.689  1.00 28.21 LIG 0.04  C 
ATOM     13  CG  PRO G 262      18.036  42.238  65.101  1.00 28.36 LIG 0.02  C 
ATOM     14  CD  PRO G 262      16.868  41.296  65.291  1.00 29.26 LIG 0.13  C 
ATOM     15  N   PRO G 262      17.451  40.022  64.835  1.00 29.83 LIG-0.34  N 
ATOM     16  C   ACE G 261      17.130  38.772  65.194  1.00 31.20 LIG 0.22  C 
ATOM     17 O    ACE G 261      17.706  37.796  64.709  1.00 31.65 LIG-0.27  OA
ATOM     18  CH3 ACE G 261      16.029  38.583  66.219  1.00 31.68 LIG 0.12  C 
ENDBRANCH 9 11
ENDBRANCH 6 7
BRANCH 6 19
ATOM     19  CB  ILE G 263      21.500  36.496  64.144  1.00 25.89 LIG 0.01  C 
ATOM     20  CG2 ILE G 263      22.854  35.901  64.514  1.00 25.32 LIG 0.01  C 
BRANCH 19 21
ATOM     21  CG1 ILE G 263      20.394  35.986  65.076  1.00 25.77 LIG 0.00  C 
ATOM     22  CD1 ILE G 263      19.294  35.197  64.374  1.00 27.45 LIG 0.01  C 
ENDBRANCH 19 21
ENDBRANCH 6 19
ENDBRANCH 4 6
ENDBRANCH 1 2
BRANCH 1 23
ATOM     23  C   GLN G 264      25.300  38.892  62.014  1.00 25.80 LIG 0.24  C 
ATOM     24  N   GLU G 265      25.512  39.073  60.718  1.00 25.54 LIG-0.35  N 
ATOM     25 H    GLU G 265      25.194  39.733  60.268  1.00 25.54 LIG 0.16  HD
ATOM     26 O    GLN G 264      25.736  37.926  62.645  1.00 23.91 LIG-0.27  OA
BRANCH 24 27
ATOM     27  CA  GLU G 265      26.316  38.151  59.939  1.00 27.50 LIG 0.18  C 
BRANCH 27 28
ATOM     28  C   GLU G 265      27.764  38.455  60.311  1.00 28.95 LIG 0.24  C 
ATOM     29  N   GLU G 266      28.665  37.506  60.076  1.00 30.90 LIG-0.34  N 
ATOM     30 H    GLU G 266      28.488  36.732  59.745  1.00 30.90 LIG 0.16  HD
ATOM     31 O    GLU G 265      28.062  39.540  60.816  1.00 27.90 LIG-0.27  OA
BRANCH 29 32
ATOM     32  CA  GLU G 266      30.068  37.743  60.382  1.00 33.40 LIG 0.19  C 
BRANCH 32 33
ATOM     33  C   GLU G 266      30.202  38.082  61.857  1.00 34.22 LIG 0.20  C 
ATOM     34 O    GLU G 266      30.663  39.205  62.154  1.00 35.29 LIG-0.65  OA
ATOM     35 OXT  GLU G 266      29.862  37.214  62.690  1.00 35.25 LIG-0.65  OA
ENDBRANCH 32 33
BRANCH 32 36
ATOM     36  CB  GLU G 266      30.630  38.900  59.550  1.00 34.59 LIG 0.05  C 
BRANCH 36 37
ATOM     37  CG  GLU G 266      30.184  38.907  58.100  1.00 35.99 LIG 0.12  C 
BRANCH 37 38
ATOM     38  CD  GLU G 266      31.201  39.572  57.187  1.00 37.74 LIG 0.17  C 
ATOM     39 OE1  GLU G 266      32.393  39.621  57.567  1.00 38.97 LIG-0.65  OA
ATOM     40 OE2  GLU G 266      30.806  40.049  56.098  1.00 36.82 LIG-0.65  OA
ENDBRANCH 37 38
ENDBRANCH 36 37
ENDBRANCH 32 36
ENDBRANCH 29 32
ENDBRANCH 27 28
BRANCH 27 41
ATOM     41  CB  GLU G 265      26.108  38.410  58.442  1.00 27.49 LIG 0.04  C 
BRANCH 41 42
ATOM     42  CG  GLU G 265      26.685  39.738  57.965  1.00 27.71 LIG 0.12  C 
BRANCH 42 43
ATOM     43  CD  GLU G 265      27.077  39.737  56.493  1.00 28.38 LIG 0.17  C 
ATOM     44 OE1  GLU G 265      27.434  40.813  55.963  1.00 27.39 LIG-0.65  OA
ATOM     45 OE2  GLU G 265      27.000  38.658  55.862  1.00 28.48 LIG-0.65  OA
ENDBRANCH 42 43
ENDBRANCH 41 42
ENDBRANCH 27 41
ENDBRANCH 24 27
ENDBRANCH 1 23
BRANCH 1 46
ATOM     46  CB  GLN G 264      25.425  40.933  63.403  1.00 25.62 LIG 0.04  C 
BRANCH 46 47
ATOM     47  CG  GLN G 264      24.902  42.350  63.597  1.00 26.81 LIG 0.10  C 
BRANCH 47 48
ATOM     48  CD  GLN G 264      23.730  42.399  64.572  1.00 28.09 LIG 0.21  C 
ATOM     49  NE2 GLN G 264      23.797  41.592  65.629  1.00 27.12 LIG-0.37  N 
ATOM     50 21HE GLN G 264      24.478  41.077  65.734  1.00 27.12 LIG 0.16  HD
ATOM     51 22HE GLN G 264      23.161  41.586  66.207  1.00 27.12 LIG 0.16  HD
ATOM     52 OE1  GLN G 264      22.778  43.157  64.375  1.00 28.52 LIG-0.27  OA
ENDBRANCH 47 48
ENDBRANCH 46 47
ENDBRANCH 1 46
TORSDOF 20
ENDMDL
MODEL 6
USER: ADFR SOLUTION from run 39
USER: SCORE 17.049045 LL:  -3.219 LR: -13.975 RR:   0.000 FEB:  -8.009
USER: RMSD 1.634130
USER: SEED 38
USER: STATUS no improvement in best in 9 clusters for 5 generations
USER: GENES 22
USER: genes 0 Translation |==|  0.51025 0.53809 0.55432
USER: genes 1 Rotation |==|  0.53214 0.47610 0.47765 0.99789
USER: genes 2 Torsion [C]-CA--N-[C] |==|  0.83530
USER: genes 3 Torsion [N]-C--CA-[N] |==|  0.32882
USER: genes 4 Torsion [C]-CA--N-[C] |==|  0.74789
USER: genes 5 Torsion [N]-C--CA-[CB] |==|  0.59996
USER: genes 6 Torsion [C]-CA--CB-[CG2] |==|  0.13502
USER: genes 7 Torsion [CA]-CB--CG1-[CD1] |==|  0.36265
USER: genes 8 Torsion [N]-CA--C-[N] |==|  0.39158
USER: genes 9 Torsion [C]-N--CA-[C] |==|  0.79445
USER: genes 10 Torsion [N]-CA--C-[N] |==|  0.41974
USER: genes 11 Torsion [C]-N--CA-[C] |==|  0.75640
USER: genes 12 Torsion [N]-CA--C-[O] |==|  0.46788
USER: genes 13 Torsion [N]-CA--CB-[CG] |==|  0.25909
USER: genes 14 Torsion [CA]-CB--CG-[CD] |==|  0.52787
USER: genes 15 Torsion [CB]-CG--CD-[OE1] |==|  0.39300
USER: genes 16 Torsion [N]-CA--CB-[CG] |==|  0.25739
USER: genes 17 Torsion [CA]-CB--CG-[CD] |==|  0.51187
USER: genes 18 Torsion [CB]-CG--CD-[OE1] |==|  0.85867
USER: genes 19 Torsion [N]-CA--CB-[CG] |==|  0.90817
USER: genes 20 Torsion [CA]-CB--CG-[CD] |==|  0.76495
USER: genes 21 Torsion [CB]-CG--CD-[OE1] |==|  0.28415
ROOT
ATOM      1  CA  GLN G 264      24.688  39.803  62.826  1.00 24.93 LIG 0.18  C 
ENDROOT
BRANCH 1 2
ATOM      2  N   GLN G 264      23.655  39.268  63.705  1.00 24.45 LIG-0.35  N 
ATOM      3 H    GLN G 264      23.753  39.453  64.538  1.00 24.45 LIG 0.16  HD
ATOM      4  C   ILE G 263      22.657  38.552  63.201  1.00 25.21 LIG 0.24  C 
ATOM      5 O    ILE G 263      22.566  38.296  61.999  1.00 24.71 LIG-0.27  OA
BRANCH 4 6
ATOM      6  CA  ILE G 263      21.600  38.044  64.180  1.00 25.39 LIG 0.18  C 
BRANCH 6 7
ATOM      7  N   ILE G 263      20.324  38.632  63.796  1.00 26.84 LIG-0.35  N 
ATOM      8 H    ILE G 263      19.883  38.163  63.226  1.00 26.84 LIG 0.16  HD
ATOM      9  C   PRO G 262      19.888  39.786  64.286  1.00 27.66 LIG 0.24  C 
ATOM     10 O    PRO G 262      20.509  40.440  65.119  1.00 28.28 LIG-0.27  OA
BRANCH 9 11
ATOM     11  CA  PRO G 262      18.541  40.270  63.756  1.00 28.51 LIG 0.18  C 
ATOM     12  CB  PRO G 262      18.489  41.790  63.604  1.00 28.21 LIG 0.04  C 
ATOM     13  CG  PRO G 262      18.026  42.222  65.002  1.00 28.36 LIG 0.02  C 
ATOM     14  CD  PRO G 262      16.849  41.282  65.136  1.00 29.26 LIG 0.13  C 
ATOM     15  N   PRO G 262      17.447  40.010  64.695  1.00 29.83 LIG-0.34  N 
ATOM     16  C   ACE G 261      17.109  38.758  65.030  1.00 31.20 LIG 0.22  C 
ATOM     17 O    ACE G 261      17.702  37.784  64.561  1.00 31.65 LIG-0.27  OA
ATOM     18  CH3 ACE G 261      15.966  38.563  66.008  1.00 31.68 LIG 0.12  C 
ENDBRANCH 9 11
ENDBRANCH 6 7
BRANCH 6 19
ATOM     19  CB  ILE G 263      21.537  36.502  64.110  1.00 25.89 LIG 0.01  C 
ATOM     20  CG2 ILE G 263      22.942  35.917  64.197  1.00 25.32 LIG 0.01  C 
BRANCH 19 21
ATOM     21  CG1 ILE G 263      20.640  35.968  65.234  1.00 25.77 LIG 0.00  C 
ATOM     22  CD1 ILE G 263      19.585  34.968  64.775  1.00 27.45 LIG 0.01  C 
ENDBRANCH 19 21
ENDBRANCH 6 19
ENDBRANCH 4 6
ENDBRANCH 1 2
BRANCH 1 23
ATOM     23  C   GLN G 264      25.426  38.725  62.053  1.00 25.80 LIG 0.24  C 
ATOM     24  N   GLU G 265      25.720  39.032  60.797  1.00 25.54 LIG-0.35  N 
ATOM     25 H    GLU G 265      25.500  39.773  60.420  1.00 25.54 LIG 0.16  HD
ATOM     26 O    GLN G 264      25.720  37.647  62.576  1.00 23.91 LIG-0.27  OA
BRANCH 24 27
ATOM     27  CA  GLU G 265      26.454  38.121  59.940  1.00 27.50 LIG 0.18  C 
BRANCH 27 28
ATOM     28  C   GLU G 265      27.899  38.175  60.428  1.00 28.95 LIG 0.24  C 
ATOM     29  N   GLU G 266      28.639  37.084  60.258  1.00 30.90 LIG-0.34  N 
ATOM     30 H    GLU G 266      28.359  36.350  59.910  1.00 30.90 LIG 0.16  HD
ATOM     31 O    GLU G 265      28.338  39.197  60.961  1.00 27.90 LIG-0.27  OA
BRANCH 29 32
ATOM     32  CA  GLU G 266      30.034  37.080  60.676  1.00 33.40 LIG 0.19  C 
BRANCH 32 33
ATOM     33  C   GLU G 266      30.893  37.599  59.537  1.00 34.22 LIG 0.20  C 
ATOM     34 O    GLU G 266      32.087  37.873  59.789  1.00 35.29 LIG-0.65  OA
ATOM     35 OXT  GLU G 266      30.357  37.741  58.416  1.00 35.25 LIG-0.65  OA
ENDBRANCH 32 33
BRANCH 32 36
ATOM     36  CB  GLU G 266      30.497  35.669  61.049  1.00 34.59 LIG 0.05  C 
BRANCH 36 37
ATOM     37  CG  GLU G 266      31.150  34.899  59.916  1.00 35.99 LIG 0.12  C 
BRANCH 37 38
ATOM     38  CD  GLU G 266      31.369  33.437  60.262  1.00 37.74 LIG 0.17  C 
ATOM     39 OE1  GLU G 266      31.184  32.582  59.366  1.00 38.97 LIG-0.65  OA
ATOM     40 OE2  GLU G 266      31.717  33.144  61.430  1.00 36.82 LIG-0.65  OA
ENDBRANCH 37 38
ENDBRANCH 36 37
ENDBRANCH 32 36
ENDBRANCH 29 32
ENDBRANCH 27 28
BRANCH 27 41
ATOM     41  CB  GLU G 265      26.387  38.602  58.486  1.00 27.49 LIG 0.04  C 
BRANCH 41 42
ATOM     42  CG  GLU G 265      27.556  39.494  58.082  1.00 27.71 LIG 0.12  C 
BRANCH 42 43
ATOM     43  CD  GLU G 265      27.434  40.053  56.670  1.00 28.38 LIG 0.17  C 
ATOM     44 OE1  GLU G 265      27.196  39.264  55.727  1.00 27.39 LIG-0.65  OA
ATOM     45 OE2  GLU G 265      27.603  41.283  56.505  1.00 28.48 LIG-0.65  OA
ENDBRANCH 42 43
ENDBRANCH 41 42
ENDBRANCH 27 41
ENDBRANCH 24 27
ENDBRANCH 1 23
BRANCH 1 46
ATOM     46  CB  GLN G 264      25.719  40.620  63.613  1.00 25.62 LIG 0.04  C 
BRANCH 46 47
ATOM     47  CG  GLN G 264      25.177  41.373  64.821  1.00 26.81 LIG 0.10  C 
BRANCH 47 48
ATOM     48  CD  GLN G 264      24.589  42.727  64.434  1.00 28.09 LIG 0.21  C 
ATOM     49  NE2 GLN G 264      25.456  43.708  64.195  1.00 27.12 LIG-0.37  N 
ATOM     50 21HE GLN G 264      26.301  43.563  64.262  1.00 27.12 LIG 0.16  HD
ATOM     51 22HE GLN G 264      25.171  44.488  63.972  1.00 27.12 LIG 0.16  HD
ATOM     52 OE1  GLN G 264      23.369  42.883  64.351  1.00 28.52 LIG-0.27  OA
ENDBRANCH 47 48
ENDBRANCH 46 47
ENDBRANCH 1 46
TORSDOF 20
ENDMDL
MODEL 7
USER: ADFR SOLUTION from run 96
USER: SCORE 16.846722 LL:  -3.762 LR: -13.791 RR:   0.000 FEB:  -7.825
USER: RMSD 6.281143
USER: SEED 95
USER: STATUS 1 or 2 clusters left
USER: GENES 22
USER: genes 0 Translation |==|  0.40685 0.44988 0.61276
USER: genes 1 Rotation |==|  0.90567 0.43550 0.26335 0.65896
USER: genes 2 Torsion [C]-CA--N-[C] |==|  0.78137
USER: genes 3 Torsion [N]-C--CA-[N] |==|  0.13690
USER: genes 4 Torsion [C]-CA--N-[C] |==|  0.69398
USER: genes 5 Torsion [N]-C--CA-[CB] |==|  0.58143
USER: genes 6 Torsion [C]-CA--CB-[CG2] |==|  0.37559
USER: genes 7 Torsion [CA]-CB--CG1-[CD1] |==|  0.57562
USER: genes 8 Torsion [N]-CA--C-[N] |==|  0.30556
USER: genes 9 Torsion [C]-N--CA-[C] |==|  0.81878
USER: genes 10 Torsion [N]-CA--C-[N] |==|  0.41077
USER: genes 11 Torsion [C]-N--CA-[C] |==|  0.74428
USER: genes 12 Torsion [N]-CA--C-[O] |==|  0.05035
USER: genes 13 Torsion [N]-CA--CB-[CG] |==|  0.17963
USER: genes 14 Torsion [CA]-CB--CG-[CD] |==|  0.49298
USER: genes 15 Torsion [CB]-CG--CD-[OE1] |==|  0.48212
USER: genes 16 Torsion [N]-CA--CB-[CG] |==|  0.77660
USER: genes 17 Torsion [CA]-CB--CG-[CD] |==|  0.17912
USER: genes 18 Torsion [CB]-CG--CD-[OE1] |==|  0.64361
USER: genes 19 Torsion [N]-CA--CB-[CG] |==|  0.79338
USER: genes 20 Torsion [CA]-CB--CG-[CD] |==|  0.19416
USER: genes 21 Torsion [CB]-CG--CD-[OE1] |==|  0.64596
ROOT
ATOM      1  CA  GLN G 264      22.129  38.017  64.009  1.00 24.93 LIG 0.18  C 
ENDROOT
BRANCH 1 2
ATOM      2  N   GLN G 264      20.737  38.445  63.942  1.00 24.45 LIG-0.35  N 
ATOM      3 H    GLN G 264      20.213  37.918  63.510  1.00 24.45 LIG 0.16  HD
ATOM      4  C   ILE G 263      20.359  39.578  64.523  1.00 25.21 LIG 0.24  C 
ATOM      5 O    ILE G 263      21.150  40.312  65.118  1.00 24.71 LIG-0.27  OA
BRANCH 4 6
ATOM      6  CA  ILE G 263      18.880  39.949  64.430  1.00 25.39 LIG 0.18  C 
BRANCH 6 7
ATOM      7  N   ILE G 263      18.106  38.779  64.824  1.00 26.84 LIG-0.35  N 
ATOM      8 H    ILE G 263      18.164  38.590  65.660  1.00 26.84 LIG 0.16  HD
ATOM      9  C   PRO G 262      17.380  38.076  63.963  1.00 27.66 LIG 0.24  C 
ATOM     10 O    PRO G 262      17.280  38.365  62.774  1.00 28.28 LIG-0.27  OA
BRANCH 9 11
ATOM     11  CA  PRO G 262      16.652  36.864  64.538  1.00 28.51 LIG 0.18  C 
ATOM     12  CB  PRO G 262      16.461  35.756  63.503  1.00 28.21 LIG 0.04  C 
ATOM     13  CG  PRO G 262      15.133  36.169  62.854  1.00 28.36 LIG 0.02  C 
ATOM     14  CD  PRO G 262      14.332  36.378  64.119  1.00 29.26 LIG 0.13  C 
ATOM     15  N   PRO G 262      15.273  37.175  64.925  1.00 29.83 LIG-0.34  N 
ATOM     16  C   ACE G 261      15.012  38.063  65.894  1.00 31.20 LIG 0.22  C 
ATOM     17 O    ACE G 261      15.918  38.646  66.493  1.00 31.65 LIG-0.27  OA
ATOM     18  CH3 ACE G 261      13.561  38.335  66.242  1.00 31.68 LIG 0.12  C 
ENDBRANCH 9 11
ENDBRANCH 6 7
BRANCH 6 19
ATOM     19  CB  ILE G 263      18.592  41.140  65.372  1.00 25.89 LIG 0.01  C 
ATOM     20  CG2 ILE G 263      17.728  42.173  64.659  1.00 25.32 LIG 0.01  C 
BRANCH 19 21
ATOM     21  CG1 ILE G 263      17.915  40.634  66.652  1.00 25.77 LIG 0.00  C 
ATOM     22  CD1 ILE G 263      17.018  41.661  67.336  1.00 27.45 LIG 0.01  C 
ENDBRANCH 19 21
ENDBRANCH 6 19
ENDBRANCH 4 6
ENDBRANCH 1 2
BRANCH 1 23
ATOM     23  C   GLN G 264      23.022  38.750  63.025  1.00 25.80 LIG 0.24  C 
ATOM     24  N   GLU G 265      23.884  39.599  63.569  1.00 25.54 LIG-0.35  N 
ATOM     25 H    GLU G 265      23.935  39.755  64.413  1.00 25.54 LIG 0.16  HD
ATOM     26 O    GLN G 264      22.936  38.554  61.811  1.00 23.91 LIG-0.27  OA
BRANCH 24 27
ATOM     27  CA  GLU G 265      24.830  40.347  62.764  1.00 27.50 LIG 0.18  C 
BRANCH 27 28
ATOM     28  C   GLU G 265      25.766  39.306  62.157  1.00 28.95 LIG 0.24  C 
ATOM     29  N   GLU G 266      26.264  39.565  60.952  1.00 30.90 LIG-0.34  N 
ATOM     30 H    GLU G 266      26.086  40.265  60.487  1.00 30.90 LIG 0.16  HD
ATOM     31 O    GLU G 265      26.028  38.271  62.774  1.00 27.90 LIG-0.27  OA
BRANCH 29 32
ATOM     32  CA  GLU G 266      27.186  38.625  60.330  1.00 33.40 LIG 0.19  C 
BRANCH 32 33
ATOM     33  C   GLU G 266      28.609  39.021  60.682  1.00 34.22 LIG 0.20  C 
ATOM     34 O    GLU G 266      28.774  39.786  61.657  1.00 35.29 LIG-0.65  OA
ATOM     35 OXT  GLU G 266      29.534  38.575  59.969  1.00 35.25 LIG-0.65  OA
ENDBRANCH 32 33
BRANCH 32 36
ATOM     36  CB  GLU G 266      27.030  38.621  58.807  1.00 34.59 LIG 0.05  C 
BRANCH 36 37
ATOM     37  CG  GLU G 266      27.400  39.929  58.132  1.00 35.99 LIG 0.12  C 
BRANCH 37 38
ATOM     38  CD  GLU G 266      27.286  39.849  56.619  1.00 37.74 LIG 0.17  C 
ATOM     39 OE1  GLU G 266      27.446  40.900  55.958  1.00 38.97 LIG-0.65  OA
ATOM     40 OE2  GLU G 266      27.030  38.740  56.096  1.00 36.82 LIG-0.65  OA
ENDBRANCH 37 38
ENDBRANCH 36 37
ENDBRANCH 32 36
ENDBRANCH 29 32
ENDBRANCH 27 28
BRANCH 27 41
ATOM     41  CB  GLU G 265      25.635  41.301  63.654  1.00 27.49 LIG 0.04  C 
BRANCH 41 42
ATOM     42  CG  GLU G 265      24.893  42.589  63.997  1.00 27.71 LIG 0.12  C 
BRANCH 42 43
ATOM     43  CD  GLU G 265      23.643  42.365  64.839  1.00 28.38 LIG 0.17  C 
ATOM     44 OE1  GLU G 265      22.561  42.867  64.458  1.00 27.39 LIG-0.65  OA
ATOM     45 OE2  GLU G 265      23.754  41.705  65.898  1.00 28.48 LIG-0.65  OA
ENDBRANCH 42 43
ENDBRANCH 41 42
ENDBRANCH 27 41
ENDBRANCH 24 27
ENDBRANCH 1 23
BRANCH 1 46
ATOM     46  CB  GLN G 264      22.260  36.512  63.748  1.00 25.62 LIG 0.04  C 
BRANCH 46 47
ATOM     47  CG  GLN G 264      21.814  35.606  64.889  1.00 26.81 LIG 0.10  C 
BRANCH 47 48
ATOM     48  CD  GLN G 264      20.302  35.636  65.085  1.00 28.09 LIG 0.21  C 
ATOM     49  NE2 GLN G 264      19.555  35.396  64.009  1.00 27.12 LIG-0.37  N 
ATOM     50 21HE GLN G 264      19.929  35.237  63.252  1.00 27.12 LIG 0.16  HD
ATOM     51 22HE GLN G 264      18.697  35.401  64.071  1.00 27.12 LIG 0.16  HD
ATOM     52 OE1  GLN G 264      19.815  35.869  66.193  1.00 28.52 LIG-0.27  OA
ENDBRANCH 47 48
ENDBRANCH 46 47
ENDBRANCH 1 46
TORSDOF 20
ENDMDL
MODEL 8
USER: ADFR SOLUTION from run 89
USER: SCORE 16.798268 LL:  -3.913 LR: -13.734 RR:   0.000 FEB:  -7.768
USER: RMSD 7.281816
USER: SEED 88
USER: STATUS no improvement in best in 1 clusters for 5 generations
USER: GENES 22
USER: genes 0 Translation |==|  0.68309 0.36592 0.50380
USER: genes 1 Rotation |==|  0.88713 0.30224 0.35567 0.70048
USER: genes 2 Torsion [C]-CA--N-[C] |==|  0.69485
USER: genes 3 Torsion [N]-C--CA-[N] |==|  0.40685
USER: genes 4 Torsion [C]-CA--N-[C] |==|  0.82471
USER: genes 5 Torsion [N]-C--CA-[CB] |==|  0.81306
USER: genes 6 Torsion [C]-CA--CB-[CG2] |==|  0.98493
USER: genes 7 Torsion [CA]-CB--CG1-[CD1] |==|  0.84854
USER: genes 8 Torsion [N]-CA--C-[N] |==|  0.89211
USER: genes 9 Torsion [C]-N--CA-[C] |==|  0.61667
USER: genes 10 Torsion [N]-CA--C-[N] |==|  0.23715
USER: genes 11 Torsion [C]-N--CA-[C] |==|  0.63764
USER: genes 12 Torsion [N]-CA--C-[O] |==|  0.97704
USER: genes 13 Torsion [N]-CA--CB-[CG] |==|  0.27056
USER: genes 14 Torsion [CA]-CB--CG-[CD] |==|  0.44446
USER: genes 15 Torsion [CB]-CG--CD-[OE1] |==|  0.97482
USER: genes 16 Torsion [N]-CA--CB-[CG] |==|  0.93127
USER: genes 17 Torsion [CA]-CB--CG-[CD] |==|  0.48853
USER: genes 18 Torsion [CB]-CG--CD-[OE1] |==|  0.75549
USER: genes 19 Torsion [N]-CA--CB-[CG] |==|  0.90236
USER: genes 20 Torsion [CA]-CB--CG-[CD] |==|  0.58745
USER: genes 21 Torsion [CB]-CG--CD-[OE1] |==|  0.56708
ROOT
ATOM      1  CA  GLN G 264      28.965  36.317  61.803  1.00 24.93 LIG 0.18  C 
ENDROOT
BRANCH 1 2
ATOM      2  N   GLN G 264      27.897  36.846  60.965  1.00 24.45 LIG-0.35  N 
ATOM      3 H    GLN G 264      27.685  36.356  60.291  1.00 24.45 LIG 0.16  HD
ATOM      4  C   ILE G 263      27.325  38.006  61.267  1.00 25.21 LIG 0.24  C 
ATOM      5 O    ILE G 263      27.674  38.683  62.236  1.00 24.71 LIG-0.27  OA
BRANCH 4 6
ATOM      6  CA  ILE G 263      26.197  38.485  60.356  1.00 25.39 LIG 0.18  C 
BRANCH 6 7
ATOM      7  N   ILE G 263      25.239  39.207  61.182  1.00 26.84 LIG-0.35  N 
ATOM      8 H    ILE G 263      25.157  40.038  60.975  1.00 26.84 LIG 0.16  HD
ATOM      9  C   PRO G 262      24.557  38.629  62.164  1.00 27.66 LIG 0.24  C 
ATOM     10 O    PRO G 262      24.658  37.437  62.441  1.00 28.28 LIG-0.27  OA
BRANCH 9 11
ATOM     11  CA  PRO G 262      23.614  39.538  62.948  1.00 28.51 LIG 0.18  C 
ATOM     12  CB  PRO G 262      24.366  40.587  63.767  1.00 28.21 LIG 0.04  C 
ATOM     13  CG  PRO G 262      24.623  39.827  65.075  1.00 28.36 LIG 0.02  C 
ATOM     14  CD  PRO G 262      23.216  39.327  65.312  1.00 29.26 LIG 0.13  C 
ATOM     15  N   PRO G 262      22.867  38.811  63.977  1.00 29.83 LIG-0.34  N 
ATOM     16  C   ACE G 261      22.005  37.840  63.647  1.00 31.20 LIG 0.22  C 
ATOM     17 O    ACE G 261      21.809  37.527  62.471  1.00 31.65 LIG-0.27  OA
ATOM     18  CH3 ACE G 261      21.267  37.129  64.765  1.00 31.68 LIG 0.12  C 
ENDBRANCH 9 11
ENDBRANCH 6 7
BRANCH 6 19
ATOM     19  CB  ILE G 263      26.780  39.406  59.261  1.00 25.89 LIG 0.01  C 
ATOM     20  CG2 ILE G 263      28.263  39.649  59.518  1.00 25.32 LIG 0.01  C 
BRANCH 19 21
ATOM     21  CG1 ILE G 263      26.550  38.778  57.880  1.00 25.77 LIG 0.00  C 
ATOM     22  CD1 ILE G 263      27.081  37.356  57.739  1.00 27.45 LIG 0.01  C 
ENDBRANCH 19 21
ENDBRANCH 6 19
ENDBRANCH 4 6
ENDBRANCH 1 2
BRANCH 1 23
ATOM     23  C   GLN G 264      30.323  36.352  61.125  1.00 25.80 LIG 0.24  C 
ATOM     24  N   GLU G 265      30.316  36.054  59.832  1.00 25.54 LIG-0.35  N 
ATOM     25 H    GLU G 265      29.610  35.834  59.395  1.00 25.54 LIG 0.16  HD
ATOM     26 O    GLN G 264      31.347  36.639  61.750  1.00 23.91 LIG-0.27  OA
BRANCH 24 27
ATOM     27  CA  GLU G 265      31.528  36.079  59.037  1.00 27.50 LIG 0.18  C 
BRANCH 27 28
ATOM     28  C   GLU G 265      31.137  36.732  57.714  1.00 28.95 LIG 0.24  C 
ATOM     29  N   GLU G 266      31.161  38.060  57.660  1.00 30.90 LIG-0.34  N 
ATOM     30 H    GLU G 266      31.364  38.574  58.318  1.00 30.90 LIG 0.16  HD
ATOM     31 O    GLU G 265      30.809  36.035  56.751  1.00 27.90 LIG-0.27  OA
BRANCH 29 32
ATOM     32  CA  GLU G 266      30.826  38.743  56.419  1.00 33.40 LIG 0.19  C 
BRANCH 32 33
ATOM     33  C   GLU G 266      31.905  39.767  56.111  1.00 34.22 LIG 0.20  C 
ATOM     34 O    GLU G 266      32.771  39.978  56.988  1.00 35.29 LIG-0.65  OA
ATOM     35 OXT  GLU G 266      31.857  40.353  55.008  1.00 35.25 LIG-0.65  OA
ENDBRANCH 32 33
BRANCH 32 36
ATOM     36  CB  GLU G 266      29.475  39.456  56.524  1.00 34.59 LIG 0.05  C 
BRANCH 36 37
ATOM     37  CG  GLU G 266      29.567  40.935  56.851  1.00 35.99 LIG 0.12  C 
BRANCH 37 38
ATOM     38  CD  GLU G 266      28.302  41.688  56.476  1.00 37.74 LIG 0.17  C 
ATOM     39 OE1  GLU G 266      27.431  41.086  55.808  1.00 38.97 LIG-0.65  OA
ATOM     40 OE2  GLU G 266      28.184  42.880  56.843  1.00 36.82 LIG-0.65  OA
ENDBRANCH 37 38
ENDBRANCH 36 37
ENDBRANCH 32 36
ENDBRANCH 29 32
ENDBRANCH 27 28
BRANCH 27 41
ATOM     41  CB  GLU G 265      32.014  34.649  58.777  1.00 27.49 LIG 0.04  C 
BRANCH 41 42
ATOM     42  CG  GLU G 265      31.545  33.644  59.824  1.00 27.71 LIG 0.12  C 
BRANCH 42 43
ATOM     43  CD  GLU G 265      31.945  32.208  59.511  1.00 28.38 LIG 0.17  C 
ATOM     44 OE1  GLU G 265      31.184  31.511  58.802  1.00 27.39 LIG-0.65  OA
ATOM     45 OE2  GLU G 265      33.013  31.771  59.999  1.00 28.48 LIG-0.65  OA
ENDBRANCH 42 43
ENDBRANCH 41 42
ENDBRANCH 27 41
ENDBRANCH 24 27
ENDBRANCH 1 23
BRANCH 1 46
ATOM     46  CB  GLN G 264      28.677  34.872  62.224  1.00 25.62 LIG 0.04  C 
BRANCH 46 47
ATOM     47  CG  GLN G 264      27.212  34.541  62.477  1.00 26.81 LIG 0.10  C 
BRANCH 47 48
ATOM     48  CD  GLN G 264      27.044  33.472  63.552  1.00 28.09 LIG 0.21  C 
ATOM     49  NE2 GLN G 264      28.035  33.348  64.432  1.00 27.12 LIG-0.37  N 
ATOM     50 21HE GLN G 264      28.727  33.856  64.376  1.00 27.12 LIG 0.16  HD
ATOM     51 22HE GLN G 264      27.984  32.761  65.058  1.00 27.12 LIG 0.16  HD
ATOM     52 OE1  GLN G 264      26.032  32.770  63.589  1.00 28.52 LIG-0.27  OA
ENDBRANCH 47 48
ENDBRANCH 46 47
ENDBRANCH 1 46
TORSDOF 20
ENDMDL
