MODEL 1
USER: ADFR SOLUTION from run 112
USER: SCORE 14.013384 LL:  -2.754 LR: -11.808 RR:   0.000 FEB:  -7.632
USER: RMSD 6.174453
USER: SEED 111
USER: STATUS no improvement in best in 9 clusters for 5 generations
USER: GENES 16
USER: genes 0 Translation |==|  0.45608 0.20631 0.59557
USER: genes 1 Rotation |==|  0.40652 0.26976 0.75627 0.85011
USER: genes 2 Torsion [CB]-CA--N-[C] |==|  0.85900
USER: genes 3 Torsion [N]-C--CA-[N] |==|  0.80825
USER: genes 4 Torsion [N]-C--CA-[N] |==|  0.51485
USER: genes 5 Torsion [N]-C--CA-[N] |==|  0.87406
USER: genes 6 Torsion [C]-CA--CB-[CG2] |==|  0.04670
USER: genes 7 Torsion [CA]-CB--OG1-[HG1] |==|  0.04591
USER: genes 8 Torsion [N]-CA--C-[N] |==|  0.30556
USER: genes 9 Torsion [N]-CA--C-[N] |==|  0.31420
USER: genes 10 Torsion [C]-N--CA-[CB] |==|  0.44920
USER: genes 11 Torsion [N]-CA--CB-[CG] |==|  0.60618
USER: genes 12 Torsion [CA]-CB--CG-[CD1] |==|  0.24767
USER: genes 13 Torsion [N]-CA--C-[O] |==|  0.55432
USER: genes 14 Torsion [N]-CA--CB-[OG] |==|  0.87047
USER: genes 15 Torsion [CA]-CB--OG-[HG] |==|  0.08270
ROOT
ATOM      1  CA  SER B1004      11.162  13.655   0.921  1.00 32.51 LIG 0.20  C 
ENDROOT
BRANCH 1 2
ATOM      2  N   SER B1004      11.778  14.954   1.142  1.00 30.80 LIG-0.34  N 
ATOM      3 H    SER B1004      11.234  15.591   1.335  1.00 30.80 LIG 0.16  HD
ATOM      4  C   PRO B1003      13.093  15.083   1.040  1.00 29.50 LIG 0.24  C 
ATOM      5 O    PRO B1003      13.826  14.130   0.771  1.00 26.59 LIG-0.27  OA
BRANCH 4 6
ATOM      6  CA  PRO B1003      13.686  16.477   1.274  1.00 29.25 LIG 0.18  C 
ATOM      7  CB  PRO B1003      13.024  17.156   2.474  1.00 27.80 LIG 0.04  C 
ATOM      8  CG  PRO B1003      12.734  18.554   1.996  1.00 32.17 LIG 0.02  C 
ATOM      9  CD  PRO B1003      12.322  18.346   0.561  1.00 30.31 LIG 0.13  C 
ATOM     10  N   PRO B1003      13.246  17.285   0.132  1.00 27.10 LIG-0.34  N 
ATOM     11  C   PRO B1002      13.767  17.069  -1.085  1.00 28.33 LIG 0.24  C 
ATOM     12 O    PRO B1002      14.635  16.227  -1.280  1.00 27.60 LIG-0.27  OA
BRANCH 11 13
ATOM     13  CA  PRO B1002      13.242  17.935  -2.222  1.00 29.68 LIG 0.18  C 
ATOM     14  N   PRO B1002      13.735  17.599  -3.560  1.00 30.07 LIG-0.34  N 
ATOM     15  CD  PRO B1002      12.605  17.336  -4.472  1.00 30.93 LIG 0.13  C 
ATOM     16  C   THR B1001      15.048  17.608  -3.936  1.00 31.77 LIG 0.26  C 
ATOM     17  CG  PRO B1002      11.483  18.074  -3.803  1.00 29.32 LIG 0.02  C 
ATOM     18  CB  PRO B1002      11.728  17.780  -2.363  1.00 30.61 LIG 0.04  C 
ATOM     19 O    THR B1001      15.925  17.894  -3.115  1.00 28.08 LIG-0.27  OA
BRANCH 16 20
ATOM     20  CA  THR B1001      15.361  17.236  -5.374  1.00 31.25 LIG 0.43  C 
ATOM     21  N   THR B1001      14.614  16.055  -5.770  1.00 31.78 LIG 0.62  N 
BRANCH 20 22
ATOM     22  CB  THR B1001      15.064  18.422  -6.291  1.00 33.83 LIG 0.16  C 
ATOM     23  CG2 THR B1001      14.952  19.705  -5.481  1.00 26.93 LIG 0.04  C 
BRANCH 22 24
ATOM     24 OG1  THR B1001      16.110  18.553  -7.262  1.00 35.47 LIG-0.39  OA
ATOM     25 HG1  THR B1001      16.555  17.842  -7.291  1.00 35.47 LIG 0.21  HD
ENDBRANCH 22 24
ENDBRANCH 20 22
ENDBRANCH 16 20
ENDBRANCH 11 13
ENDBRANCH 4 6
ENDBRANCH 1 2
BRANCH 1 26
ATOM     26  C   SER B1004      11.546  12.752   2.090  1.00 31.12 LIG 0.24  C 
ATOM     27 O    SER B1004      12.701  12.377   2.234  1.00 31.43 LIG-0.27  OA
ATOM     28  N   PRO B1005      10.587  12.414   2.960  1.00 32.50 LIG-0.34  N 
ATOM     29  CA  PRO B1005       9.170  12.785   2.950  1.00 31.67 LIG 0.18  C 
ATOM     30  CD  PRO B1005      10.830  11.339   3.944  1.00 32.99 LIG 0.13  C 
ATOM     31  CB  PRO B1005       8.498  11.515   3.431  1.00 32.97 LIG 0.04  C 
ATOM     32  CG  PRO B1005       9.429  11.082   4.524  1.00 32.33 LIG 0.02  C 
BRANCH 29 33
ATOM     33  C   PRO B1005       8.875  13.960   3.888  1.00 31.95 LIG 0.24  C 
ATOM     34  N   PHE B1006       8.499  15.103   3.322  1.00 29.16 LIG-0.34  N 
ATOM     35 H    PHE B1006       8.392  15.214   2.476  1.00 29.16 LIG 0.16  HD
ATOM     36 O    PRO B1005       8.986  13.824   5.107  1.00 29.71 LIG-0.27  OA
BRANCH 34 37
ATOM     37  CA  PHE B1006       8.234  16.285   4.129  1.00 29.49 LIG 0.19  C 
BRANCH 37 38
ATOM     38  CB  PHE B1006       8.269  17.536   3.251  1.00 24.64 LIG 0.07  C 
BRANCH 38 39
ATOM     39  CG  PHE B1006       8.898  18.724   3.919  1.00 23.14 LIG-0.06  A 
ATOM     40  CD2 PHE B1006       8.121  19.620   4.644  1.00 22.25 LIG 0.01  A 
ATOM     41  CE2 PHE B1006       8.709  20.733   5.271  1.00 23.88 LIG 0.00  A 
ATOM     42  CZ  PHE B1006      10.078  20.941   5.168  1.00 22.95 LIG 0.00  A 
ATOM     43  CE1 PHE B1006      10.861  20.043   4.440  1.00 21.15 LIG 0.00  A 
ATOM     44  CD1 PHE B1006      10.269  18.948   3.825  1.00 23.85 LIG 0.01  A 
ENDBRANCH 38 39
ENDBRANCH 37 38
BRANCH 37 45
ATOM     45  C   PHE B1006       6.920  16.226   4.897  1.00 30.13 LIG 0.20  C 
ATOM     46 O    PHE B1006       6.437  17.304   5.302  1.00 31.00 LIG-0.65  OA
ATOM     47 OXT  PHE B1006       6.387  15.113   5.081  1.00 32.43 LIG-0.65  OA
ENDBRANCH 37 45
ENDBRANCH 34 37
ENDBRANCH 29 33
ENDBRANCH 1 26
BRANCH 1 48
ATOM     48  CB  SER B1004      11.648  13.057  -0.400  1.00 35.03 LIG 0.20  C 
BRANCH 48 49
ATOM     49 OG   SER B1004      11.587  14.034  -1.421  1.00 42.75 LIG-0.40  OA
ATOM     50 HG   SER B1004      11.699  14.796  -1.087  1.00 42.75 LIG 0.21  HD
ENDBRANCH 48 49
ENDBRANCH 1 48
TORSDOF 14
ENDMDL
MODEL 2
USER: ADFR SOLUTION from run 162
USER: SCORE 13.907716 LL:  -3.062 LR: -11.514 RR:   0.000 FEB:  -7.337
USER: RMSD 5.631995
USER: SEED 161
USER: STATUS no improvement in best in 14 clusters for 5 generations
USER: GENES 16
USER: genes 0 Translation |==|  0.45997 0.20399 0.59002
USER: genes 1 Rotation |==|  0.41451 0.25184 0.75764 0.83871
USER: genes 2 Torsion [CB]-CA--N-[C] |==|  0.86434
USER: genes 3 Torsion [N]-C--CA-[N] |==|  0.77511
USER: genes 4 Torsion [N]-C--CA-[N] |==|  0.28262
USER: genes 5 Torsion [N]-C--CA-[N] |==|  0.24749
USER: genes 6 Torsion [C]-CA--CB-[CG2] |==|  0.49211
USER: genes 7 Torsion [CA]-CB--OG1-[HG1] |==|  0.08618
USER: genes 8 Torsion [N]-CA--C-[N] |==|  0.29445
USER: genes 9 Torsion [N]-CA--C-[N] |==|  0.31001
USER: genes 10 Torsion [C]-N--CA-[CB] |==|  0.46350
USER: genes 11 Torsion [N]-CA--CB-[CG] |==|  0.59665
USER: genes 12 Torsion [CA]-CB--CG-[CD1] |==|  0.24180
USER: genes 13 Torsion [N]-CA--C-[O] |==|  0.08971
USER: genes 14 Torsion [N]-CA--CB-[OG] |==|  0.86086
USER: genes 15 Torsion [CA]-CB--OG-[HG] |==|  0.11308
ROOT
ATOM      1  CA  SER B1004      11.235  13.605   0.825  1.00 32.51 LIG 0.20  C 
ENDROOT
BRANCH 1 2
ATOM      2  N   SER B1004      11.764  14.922   1.140  1.00 30.80 LIG-0.34  N 
ATOM      3 H    SER B1004      11.177  15.512   1.357  1.00 30.80 LIG 0.16  HD
ATOM      4  C   PRO B1003      13.070  15.137   1.079  1.00 29.50 LIG 0.24  C 
ATOM      5 O    PRO B1003      13.867  14.248   0.772  1.00 26.59 LIG-0.27  OA
BRANCH 4 6
ATOM      6  CA  PRO B1003      13.570  16.547   1.412  1.00 29.25 LIG 0.18  C 
ATOM      7  CB  PRO B1003      12.654  17.223   2.433  1.00 27.80 LIG 0.04  C 
ATOM      8  CG  PRO B1003      12.443  18.608   1.884  1.00 32.17 LIG 0.02  C 
ATOM      9  CD  PRO B1003      12.350  18.375   0.397  1.00 30.31 LIG 0.13  C 
ATOM     10  N   PRO B1003      13.367  17.332   0.191  1.00 27.10 LIG-0.34  N 
ATOM     11  C   PRO B1002      14.139  17.115  -0.884  1.00 28.33 LIG 0.24  C 
ATOM     12 O    PRO B1002      15.046  16.293  -0.878  1.00 27.60 LIG-0.27  OA
BRANCH 11 13
ATOM     13  CA  PRO B1002      13.849  17.956  -2.121  1.00 29.68 LIG 0.18  C 
ATOM     14  N   PRO B1002      14.756  19.082  -2.354  1.00 30.07 LIG-0.34  N 
ATOM     15  CD  PRO B1002      15.361  18.984  -3.697  1.00 30.93 LIG 0.13  C 
ATOM     16  C   THR B1001      14.956  20.120  -1.489  1.00 31.77 LIG 0.26  C 
ATOM     17  CG  PRO B1002      14.368  18.127  -4.425  1.00 29.32 LIG 0.02  C 
ATOM     18  CB  PRO B1002      14.003  17.120  -3.390  1.00 30.61 LIG 0.04  C 
ATOM     19 O    THR B1001      14.364  20.145  -0.405  1.00 28.08 LIG-0.27  OA
BRANCH 16 20
ATOM     20  CA  THR B1001      15.935  21.199  -1.913  1.00 31.25 LIG 0.43  C 
ATOM     21  N   THR B1001      15.255  22.239  -2.664  1.00 31.78 LIG 0.62  N 
BRANCH 20 22
ATOM     22  CB  THR B1001      16.644  21.767  -0.683  1.00 33.83 LIG 0.16  C 
ATOM     23  CG2 THR B1001      17.679  22.801  -1.096  1.00 26.93 LIG 0.04  C 
BRANCH 22 24
ATOM     24 OG1  THR B1001      15.680  22.369   0.191  1.00 35.47 LIG-0.39  OA
ATOM     25 HG1  THR B1001      14.948  21.965   0.121  1.00 35.47 LIG 0.21  HD
ENDBRANCH 22 24
ENDBRANCH 20 22
ENDBRANCH 16 20
ENDBRANCH 11 13
ENDBRANCH 4 6
ENDBRANCH 1 2
BRANCH 1 26
ATOM     26  C   SER B1004      11.607  12.667   1.971  1.00 31.12 LIG 0.24  C 
ATOM     27 O    SER B1004      12.762  12.290   2.116  1.00 31.43 LIG-0.27  OA
ATOM     28  N   PRO B1005      10.639  12.300   2.818  1.00 32.50 LIG-0.34  N 
ATOM     29  CA  PRO B1005       9.222  12.669   2.803  1.00 31.67 LIG 0.18  C 
ATOM     30  CD  PRO B1005      10.873  11.196   3.772  1.00 32.99 LIG 0.13  C 
ATOM     31  CB  PRO B1005       8.548  11.382   3.237  1.00 32.97 LIG 0.04  C 
ATOM     32  CG  PRO B1005       9.466  10.918   4.326  1.00 32.33 LIG 0.02  C 
BRANCH 29 33
ATOM     33  C   PRO B1005       8.913  13.813   3.773  1.00 31.95 LIG 0.24  C 
ATOM     34  N   PHE B1006       8.570  14.981   3.237  1.00 29.16 LIG-0.34  N 
ATOM     35 H    PHE B1006       8.492  15.123   2.393  1.00 29.16 LIG 0.16  HD
ATOM     36 O    PRO B1005       8.983  13.632   4.990  1.00 29.71 LIG-0.27  OA
BRANCH 34 37
ATOM     37  CA  PHE B1006       8.295  16.137   4.078  1.00 29.49 LIG 0.19  C 
BRANCH 37 38
ATOM     38  CB  PHE B1006       8.250  17.405   3.224  1.00 24.64 LIG 0.07  C 
BRANCH 38 39
ATOM     39  CG  PHE B1006       8.787  18.621   3.921  1.00 23.14 LIG-0.06  A 
ATOM     40  CD2 PHE B1006       7.936  19.469   4.619  1.00 22.25 LIG 0.01  A 
ATOM     41  CE2 PHE B1006       8.438  20.608   5.273  1.00 23.88 LIG 0.00  A 
ATOM     42  CZ  PHE B1006       9.798  20.890   5.223  1.00 22.95 LIG 0.00  A 
ATOM     43  CE1 PHE B1006      10.655  20.040   4.522  1.00 21.15 LIG 0.00  A 
ATOM     44  CD1 PHE B1006      10.146  18.919   3.881  1.00 23.85 LIG 0.01  A 
ENDBRANCH 38 39
ENDBRANCH 37 38
BRANCH 37 45
ATOM     45  C   PHE B1006       7.017  16.015   4.897  1.00 30.13 LIG 0.20  C 
ATOM     46 O    PHE B1006       6.683  14.875   5.281  1.00 31.00 LIG-0.65  OA
ATOM     47 OXT  PHE B1006       6.370  17.052   5.149  1.00 32.43 LIG-0.65  OA
ENDBRANCH 37 45
ENDBRANCH 34 37
ENDBRANCH 29 33
ENDBRANCH 1 26
BRANCH 1 48
ATOM     48  CB  SER B1004      11.823  13.100  -0.493  1.00 35.03 LIG 0.20  C 
BRANCH 48 49
ATOM     49 OG   SER B1004      11.688  14.093  -1.491  1.00 42.75 LIG-0.40  OA
ATOM     50 HG   SER B1004      11.856  14.847  -1.161  1.00 42.75 LIG 0.21  HD
ENDBRANCH 48 49
ENDBRANCH 1 48
TORSDOF 14
ENDMDL
MODEL 3
USER: ADFR SOLUTION from run 74
USER: SCORE 13.758889 LL:  -3.600 LR: -11.089 RR:   0.000 FEB:  -6.912
USER: RMSD 4.185212
USER: SEED 73
USER: STATUS no improvement in best in 23 clusters for 5 generations
USER: GENES 16
USER: genes 0 Translation |==|  0.47840 0.27757 0.52084
USER: genes 1 Rotation |==|  0.41036 0.50872 0.69525 0.95140
USER: genes 2 Torsion [CB]-CA--N-[C] |==|  0.21667
USER: genes 3 Torsion [N]-C--CA-[N] |==|  0.77889
USER: genes 4 Torsion [N]-C--CA-[N] |==|  0.29674
USER: genes 5 Torsion [N]-C--CA-[N] |==|  0.88478
USER: genes 6 Torsion [C]-CA--CB-[CG2] |==|  0.97040
USER: genes 7 Torsion [CA]-CB--OG1-[HG1] |==|  0.21012
USER: genes 8 Torsion [N]-CA--C-[N] |==|  0.48051
USER: genes 9 Torsion [N]-CA--C-[N] |==|  0.44482
USER: genes 10 Torsion [C]-N--CA-[CB] |==|  0.28351
USER: genes 11 Torsion [N]-CA--CB-[CG] |==|  0.75531
USER: genes 12 Torsion [CA]-CB--CG-[CD1] |==|  0.68825
USER: genes 13 Torsion [N]-CA--C-[O] |==|  0.09858
USER: genes 14 Torsion [N]-CA--CB-[OG] |==|  0.74223
USER: genes 15 Torsion [CA]-CB--OG-[HG] |==|  0.10020
ROOT
ATOM      1  CA  SER B1004      11.581  15.205  -0.369  1.00 32.51 LIG 0.20  C 
ENDROOT
BRANCH 1 2
ATOM      2  N   SER B1004      12.529  15.894  -1.230  1.00 30.80 LIG-0.34  N 
ATOM      3 H    SER B1004      13.305  15.527  -1.290  1.00 30.80 LIG 0.16  HD
ATOM      4  C   PRO B1003      12.164  17.005  -1.852  1.00 29.50 LIG 0.24  C 
ATOM      5 O    PRO B1003      11.032  17.479  -1.737  1.00 26.59 LIG-0.27  OA
BRANCH 4 6
ATOM      6  CA  PRO B1003      13.207  17.693  -2.739  1.00 29.25 LIG 0.18  C 
ATOM      7  CB  PRO B1003      14.149  16.666  -3.370  1.00 27.80 LIG 0.04  C 
ATOM      8  CG  PRO B1003      15.521  17.253  -3.177  1.00 32.17 LIG 0.02  C 
ATOM      9  CD  PRO B1003      15.434  17.883  -1.809  1.00 30.31 LIG 0.13  C 
ATOM     10  N   PRO B1003      14.072  18.438  -1.819  1.00 27.10 LIG-0.34  N 
ATOM     11  C   PRO B1002      13.609  19.534  -1.200  1.00 28.33 LIG 0.24  C 
ATOM     12 O    PRO B1002      12.481  19.965  -1.399  1.00 27.60 LIG-0.27  OA
BRANCH 11 13
ATOM     13  CA  PRO B1002      14.562  20.237  -0.242  1.00 29.68 LIG 0.18  C 
ATOM     14  N   PRO B1002      15.118  21.507  -0.713  1.00 30.07 LIG-0.34  N 
ATOM     15  CD  PRO B1002      14.825  22.585   0.251  1.00 30.93 LIG 0.13  C 
ATOM     16  C   THR B1001      15.871  21.663  -1.842  1.00 31.77 LIG 0.26  C 
ATOM     17  CG  PRO B1002      14.606  21.818   1.522  1.00 29.32 LIG 0.02  C 
ATOM     18  CB  PRO B1002      13.839  20.633   1.045  1.00 30.61 LIG 0.04  C 
ATOM     19 O    THR B1001      16.111  20.689  -2.564  1.00 28.08 LIG-0.27  OA
BRANCH 16 20
ATOM     20  CA  THR B1001      16.364  23.062  -2.162  1.00 31.25 LIG 0.43  C 
ATOM     21  N   THR B1001      15.322  24.041  -1.910  1.00 31.78 LIG 0.62  N 
BRANCH 20 22
ATOM     22  CB  THR B1001      17.625  23.363  -1.351  1.00 33.83 LIG 0.16  C 
ATOM     23  CG2 THR B1001      17.846  22.291  -0.295  1.00 26.93 LIG 0.04  C 
BRANCH 22 24
ATOM     24 OG1  THR B1001      18.758  23.418  -2.228  1.00 35.47 LIG-0.39  OA
ATOM     25 HG1  THR B1001      18.748  24.142  -2.653  1.00 35.47 LIG 0.21  HD
ENDBRANCH 22 24
ENDBRANCH 20 22
ENDBRANCH 16 20
ENDBRANCH 11 13
ENDBRANCH 4 6
ENDBRANCH 1 2
BRANCH 1 26
ATOM     26  C   SER B1004      12.374  14.279   0.550  1.00 31.12 LIG 0.24  C 
ATOM     27 O    SER B1004      13.581  14.143   0.406  1.00 31.43 LIG-0.27  OA
ATOM     28  N   PRO B1005      11.712  13.651   1.528  1.00 32.50 LIG-0.34  N 
ATOM     29  CA  PRO B1005      10.285  13.713   1.853  1.00 31.67 LIG 0.18  C 
ATOM     30  CD  PRO B1005      12.360  12.549   2.269  1.00 32.99 LIG 0.13  C 
ATOM     31  CB  PRO B1005       9.981  12.283   2.255  1.00 32.97 LIG 0.04  C 
ATOM     32  CG  PRO B1005      11.195  11.938   3.065  1.00 32.33 LIG 0.02  C 
BRANCH 29 33
ATOM     33  C   PRO B1005       9.996  14.687   3.000  1.00 31.95 LIG 0.24  C 
ATOM     34  N   PHE B1006       8.748  15.131   3.113  1.00 29.16 LIG-0.34  N 
ATOM     35 H    PHE B1006       8.099  14.892   2.602  1.00 29.16 LIG 0.16  HD
ATOM     36 O    PRO B1005      10.896  15.022   3.770  1.00 29.71 LIG-0.27  OA
BRANCH 34 37
ATOM     37  CA  PHE B1006       8.386  16.089   4.148  1.00 29.49 LIG 0.19  C 
BRANCH 37 38
ATOM     38  CB  PHE B1006       8.271  17.490   3.547  1.00 24.64 LIG 0.07  C 
BRANCH 38 39
ATOM     39  CG  PHE B1006       9.567  18.246   3.528  1.00 23.14 LIG-0.06  A 
ATOM     40  CD2 PHE B1006      10.612  17.839   2.708  1.00 22.25 LIG 0.01  A 
ATOM     41  CE2 PHE B1006      11.827  18.547   2.689  1.00 23.88 LIG 0.00  A 
ATOM     42  CZ  PHE B1006      11.986  19.665   3.497  1.00 22.95 LIG 0.00  A 
ATOM     43  CE1 PHE B1006      10.938  20.077   4.322  1.00 21.15 LIG 0.00  A 
ATOM     44  CD1 PHE B1006       9.744  19.370   4.332  1.00 23.85 LIG 0.01  A 
ENDBRANCH 38 39
ENDBRANCH 37 38
BRANCH 37 45
ATOM     45  C   PHE B1006       7.107  15.736   4.895  1.00 30.13 LIG 0.20  C 
ATOM     46 O    PHE B1006       6.872  14.528   5.102  1.00 31.00 LIG-0.65  OA
ATOM     47 OXT  PHE B1006       6.360  16.664   5.268  1.00 32.43 LIG-0.65  OA
ENDBRANCH 37 45
ENDBRANCH 34 37
ENDBRANCH 29 33
ENDBRANCH 1 26
BRANCH 1 48
ATOM     48  CB  SER B1004      10.587  14.404  -1.210  1.00 35.03 LIG 0.20  C 
BRANCH 48 49
ATOM     49 OG   SER B1004       9.437  15.184  -1.468  1.00 42.75 LIG-0.40  OA
ATOM     50 HG   SER B1004       9.661  15.986  -1.577  1.00 42.75 LIG 0.21  HD
ENDBRANCH 48 49
ENDBRANCH 1 48
TORSDOF 14
ENDMDL
MODEL 4
USER: ADFR SOLUTION from run 162
USER: SCORE 13.656136 LL:  -3.275 LR: -10.862 RR:   0.000 FEB:  -6.685
USER: RMSD 4.815888
USER: SEED 161
USER: STATUS no improvement in best in 14 clusters for 5 generations
USER: GENES 16
USER: genes 0 Translation |==|  0.50756 0.35520 0.51547
USER: genes 1 Rotation |==|  0.52192 0.24499 0.74271 0.85437
USER: genes 2 Torsion [CB]-CA--N-[C] |==|  0.86076
USER: genes 3 Torsion [N]-C--CA-[N] |==|  0.70371
USER: genes 4 Torsion [N]-C--CA-[N] |==|  0.34974
USER: genes 5 Torsion [N]-C--CA-[N] |==|  0.38805
USER: genes 6 Torsion [C]-CA--CB-[CG2] |==|  0.64776
USER: genes 7 Torsion [CA]-CB--OG1-[HG1] |==|  0.58399
USER: genes 8 Torsion [N]-CA--C-[N] |==|  0.31119
USER: genes 9 Torsion [N]-CA--C-[N] |==|  0.47212
USER: genes 10 Torsion [C]-N--CA-[CB] |==|  0.31444
USER: genes 11 Torsion [N]-CA--CB-[CG] |==|  0.70934
USER: genes 12 Torsion [CA]-CB--CG-[CD1] |==|  0.13093
USER: genes 13 Torsion [N]-CA--C-[O] |==|  0.14724
USER: genes 14 Torsion [N]-CA--CB-[OG] |==|  0.87914
USER: genes 15 Torsion [CA]-CB--OG-[HG] |==|  0.16521
ROOT
ATOM      1  CA  SER B1004      12.128  16.894  -0.461  1.00 32.51 LIG 0.20  C 
ENDROOT
BRANCH 1 2
ATOM      2  N   SER B1004      12.579  18.113   0.191  1.00 30.80 LIG-0.34  N 
ATOM      3 H    SER B1004      11.999  18.495   0.698  1.00 30.80 LIG 0.16  HD
ATOM      4  C   PRO B1003      13.810  18.554  -0.021  1.00 29.50 LIG 0.24  C 
ATOM      5 O    PRO B1003      14.603  17.956  -0.752  1.00 26.59 LIG-0.27  OA
BRANCH 4 6
ATOM      6  CA  PRO B1003      14.228  19.849   0.684  1.00 29.25 LIG 0.18  C 
ATOM      7  CB  PRO B1003      13.127  20.335   1.628  1.00 27.80 LIG 0.04  C 
ATOM      8  CG  PRO B1003      13.019  21.809   1.345  1.00 32.17 LIG 0.02  C 
ATOM      9  CD  PRO B1003      13.218  21.886  -0.148  1.00 30.31 LIG 0.13  C 
ATOM     10  N   PRO B1003      14.261  20.871  -0.366  1.00 27.10 LIG-0.34  N 
ATOM     11  C   PRO B1002      15.229  20.851  -1.294  1.00 28.33 LIG 0.24  C 
ATOM     12 O    PRO B1002      16.122  20.014  -1.283  1.00 27.60 LIG-0.27  OA
BRANCH 11 13
ATOM     13  CA  PRO B1002      15.180  21.935  -2.363  1.00 29.68 LIG 0.18  C 
ATOM     14  N   PRO B1002      16.400  22.730  -2.522  1.00 30.07 LIG-0.34  N 
ATOM     15  CD  PRO B1002      16.874  22.668  -3.918  1.00 30.93 LIG 0.13  C 
ATOM     16  C   THR B1001      16.975  23.487  -1.542  1.00 31.77 LIG 0.26  C 
ATOM     17  CG  PRO B1002      15.619  22.312  -4.660  1.00 29.32 LIG 0.02  C 
ATOM     18  CB  PRO B1002      14.987  21.318  -3.748  1.00 30.61 LIG 0.04  C 
ATOM     19 O    THR B1001      16.476  23.520  -0.413  1.00 28.08 LIG-0.27  OA
BRANCH 16 20
ATOM     20  CA  THR B1001      18.238  24.248  -1.903  1.00 31.25 LIG 0.43  C 
ATOM     21  N   THR B1001      18.224  25.573  -1.308  1.00 31.78 LIG 0.62  N 
BRANCH 20 22
ATOM     22  CB  THR B1001      19.466  23.449  -1.465  1.00 33.83 LIG 0.16  C 
ATOM     23  CG2 THR B1001      20.377  24.306  -0.601  1.00 26.93 LIG 0.04  C 
BRANCH 22 24
ATOM     24 OG1  THR B1001      19.048  22.293  -0.728  1.00 35.47 LIG-0.39  OA
ATOM     25 HG1  THR B1001      19.636  22.093  -0.163  1.00 35.47 LIG 0.21  HD
ENDBRANCH 22 24
ENDBRANCH 20 22
ENDBRANCH 16 20
ENDBRANCH 11 13
ENDBRANCH 4 6
ENDBRANCH 1 2
BRANCH 1 26
ATOM     26  C   SER B1004      12.862  15.721   0.184  1.00 31.12 LIG 0.24  C 
ATOM     27 O    SER B1004      14.071  15.594   0.050  1.00 31.43 LIG-0.27  OA
ATOM     28  N   PRO B1005      12.146  14.862   0.919  1.00 32.50 LIG-0.34  N 
ATOM     29  CA  PRO B1005      10.708  14.874   1.197  1.00 31.67 LIG 0.18  C 
ATOM     30  CD  PRO B1005      12.740  13.576   1.338  1.00 32.99 LIG 0.13  C 
ATOM     31  CB  PRO B1005      10.359  13.399   1.165  1.00 32.97 LIG 0.04  C 
ATOM     32  CG  PRO B1005      11.530  12.801   1.885  1.00 32.33 LIG 0.02  C 
BRANCH 29 33
ATOM     33  C   PRO B1005      10.389  15.491   2.562  1.00 31.95 LIG 0.24  C 
ATOM     34  N   PHE B1006       9.110  15.739   2.828  1.00 29.16 LIG-0.34  N 
ATOM     35 H    PHE B1006       8.460  15.557   2.295  1.00 29.16 LIG 0.16  HD
ATOM     36 O    PRO B1005      11.296  15.733   3.361  1.00 29.71 LIG-0.27  OA
BRANCH 34 37
ATOM     37  CA  PHE B1006       8.714  16.360   4.084  1.00 29.49 LIG 0.19  C 
BRANCH 37 38
ATOM     38  CB  PHE B1006       8.146  17.755   3.820  1.00 24.64 LIG 0.07  C 
BRANCH 38 39
ATOM     39  CG  PHE B1006       9.087  18.866   4.185  1.00 23.14 LIG-0.06  A 
ATOM     40  CD2 PHE B1006       8.643  19.953   4.929  1.00 22.25 LIG 0.01  A 
ATOM     41  CE2 PHE B1006       9.523  20.994   5.272  1.00 23.88 LIG 0.00  A 
ATOM     42  CZ  PHE B1006      10.850  20.939   4.865  1.00 22.95 LIG 0.00  A 
ATOM     43  CE1 PHE B1006      11.299  19.849   4.117  1.00 21.15 LIG 0.00  A 
ATOM     44  CD1 PHE B1006      10.420  18.827   3.785  1.00 23.85 LIG 0.01  A 
ENDBRANCH 38 39
ENDBRANCH 37 38
BRANCH 37 45
ATOM     45  C   PHE B1006       7.719  15.537   4.891  1.00 30.13 LIG 0.20  C 
ATOM     46 O    PHE B1006       8.015  14.349   5.138  1.00 31.00 LIG-0.65  OA
ATOM     47 OXT  PHE B1006       6.664  16.084   5.272  1.00 32.43 LIG-0.65  OA
ENDBRANCH 37 45
ENDBRANCH 34 37
ENDBRANCH 29 33
ENDBRANCH 1 26
BRANCH 1 48
ATOM     48  CB  SER B1004      12.426  16.953  -1.959  1.00 35.03 LIG 0.20  C 
BRANCH 48 49
ATOM     49 OG   SER B1004      12.088  18.230  -2.466  1.00 42.75 LIG-0.40  OA
ATOM     50 HG   SER B1004      12.535  18.817  -2.065  1.00 42.75 LIG 0.21  HD
ENDBRANCH 48 49
ENDBRANCH 1 48
TORSDOF 14
ENDMDL
MODEL 5
USER: ADFR SOLUTION from run 19
USER: SCORE 14.760519 LL:  -4.609 LR: -10.727 RR:   0.000 FEB:  -6.550
USER: RMSD 5.403324
USER: SEED 18
USER: STATUS no improvement in best in 13 clusters for 5 generations
USER: GENES 16
USER: genes 0 Translation |==|  0.45817 0.16446 0.54892
USER: genes 1 Rotation |==|  0.44551 0.24628 0.87917 0.69719
USER: genes 2 Torsion [CB]-CA--N-[C] |==|  0.81111
USER: genes 3 Torsion [N]-C--CA-[N] |==|  0.68407
USER: genes 4 Torsion [N]-C--CA-[N] |==|  0.37162
USER: genes 5 Torsion [N]-C--CA-[N] |==|  0.32756
USER: genes 6 Torsion [C]-CA--CB-[CG2] |==|  0.67394
USER: genes 7 Torsion [CA]-CB--OG1-[HG1] |==|  0.58271
USER: genes 8 Torsion [N]-CA--C-[N] |==|  0.22586
USER: genes 9 Torsion [N]-CA--C-[N] |==|  0.88428
USER: genes 10 Torsion [C]-N--CA-[CB] |==|  0.83498
USER: genes 11 Torsion [N]-CA--CB-[CG] |==|  0.77771
USER: genes 12 Torsion [CA]-CB--CG-[CD1] |==|  0.10402
USER: genes 13 Torsion [N]-CA--C-[O] |==|  0.55935
USER: genes 14 Torsion [N]-CA--CB-[OG] |==|  0.88964
USER: genes 15 Torsion [CA]-CB--OG-[HG] |==|  0.14281
ROOT
ATOM      1  CA  SER B1004      11.202  12.745   0.116  1.00 32.51 LIG 0.20  C 
ENDROOT
BRANCH 1 2
ATOM      2  N   SER B1004      10.715  14.115   0.083  1.00 30.80 LIG-0.34  N 
ATOM      3 H    SER B1004       9.895  14.208  -0.160  1.00 30.80 LIG 0.16  HD
ATOM      4  C   PRO B1003      11.526  15.108   0.417  1.00 29.50 LIG 0.24  C 
ATOM      5 O    PRO B1003      12.691  14.913   0.769  1.00 26.59 LIG-0.27  OA
BRANCH 4 6
ATOM      6  CA  PRO B1003      10.961  16.532   0.355  1.00 29.25 LIG 0.18  C 
ATOM      7  CB  PRO B1003       9.519  16.525  -0.154  1.00 27.80 LIG 0.04  C 
ATOM      8  CG  PRO B1003       9.478  17.633  -1.171  1.00 32.17 LIG 0.02  C 
ATOM      9  CD  PRO B1003      10.820  17.524  -1.849  1.00 30.31 LIG 0.13  C 
ATOM     10  N   PRO B1003      11.704  17.199  -0.719  1.00 27.10 LIG-0.34  N 
ATOM     11  C   PRO B1002      12.993  17.523  -0.544  1.00 28.33 LIG 0.24  C 
ATOM     12 O    PRO B1002      13.581  17.308   0.509  1.00 27.60 LIG-0.27  OA
BRANCH 11 13
ATOM     13  CA  PRO B1002      13.700  18.194  -1.715  1.00 29.68 LIG 0.18  C 
ATOM     14  N   PRO B1002      14.505  19.372  -1.385  1.00 30.07 LIG-0.34  N 
ATOM     15  CD  PRO B1002      15.894  19.190  -1.849  1.00 30.93 LIG 0.13  C 
ATOM     16  C   THR B1001      14.026  20.511  -0.804  1.00 31.77 LIG 0.26  C 
ATOM     17  CG  PRO B1002      15.731  18.166  -2.934  1.00 29.32 LIG 0.02  C 
ATOM     18  CB  PRO B1002      14.718  17.245  -2.346  1.00 30.61 LIG 0.04  C 
ATOM     19 O    THR B1001      12.832  20.594  -0.497  1.00 28.08 LIG-0.27  OA
BRANCH 16 20
ATOM     20  CA  THR B1001      15.018  21.630  -0.546  1.00 31.25 LIG 0.43  C 
ATOM     21  N   THR B1001      14.655  22.819  -1.296  1.00 31.78 LIG 0.62  N 
BRANCH 20 22
ATOM     22  CB  THR B1001      15.097  21.915   0.955  1.00 33.83 LIG 0.16  C 
ATOM     23  CG2 THR B1001      14.638  23.334   1.250  1.00 26.93 LIG 0.04  C 
BRANCH 22 24
ATOM     24 OG1  THR B1001      14.272  20.982   1.664  1.00 35.47 LIG-0.39  OA
ATOM     25 HG1  THR B1001      13.984  21.341   2.366  1.00 35.47 LIG 0.21  HD
ENDBRANCH 22 24
ENDBRANCH 20 22
ENDBRANCH 16 20
ENDBRANCH 11 13
ENDBRANCH 4 6
ENDBRANCH 1 2
BRANCH 1 26
ATOM     26  C   SER B1004      11.809  12.499   1.495  1.00 31.12 LIG 0.24  C 
ATOM     27 O    SER B1004      13.015  12.595   1.670  1.00 31.43 LIG-0.27  OA
ATOM     28  N   PRO B1005      10.977  12.205   2.501  1.00 32.50 LIG-0.34  N 
ATOM     29  CA  PRO B1005       9.519  12.069   2.473  1.00 31.67 LIG 0.18  C 
ATOM     30  CD  PRO B1005      11.516  11.697   3.779  1.00 32.99 LIG 0.13  C 
ATOM     31  CB  PRO B1005       9.283  10.913   3.424  1.00 32.97 LIG 0.04  C 
ATOM     32  CG  PRO B1005      10.254  11.227   4.522  1.00 32.33 LIG 0.02  C 
BRANCH 29 33
ATOM     33  C   PRO B1005       8.812  13.340   2.955  1.00 31.95 LIG 0.24  C 
ATOM     34  N   PHE B1006       9.330  13.953   4.015  1.00 29.16 LIG-0.34  N 
ATOM     35 H    PHE B1006      10.040  13.694   4.426  1.00 29.16 LIG 0.16  HD
ATOM     36 O    PRO B1005       7.812  13.755   2.367  1.00 29.71 LIG-0.27  OA
BRANCH 34 37
ATOM     37  CA  PHE B1006       8.706  15.146   4.569  1.00 29.49 LIG 0.19  C 
BRANCH 37 38
ATOM     38  CB  PHE B1006       8.651  16.246   3.508  1.00 24.64 LIG 0.07  C 
BRANCH 38 39
ATOM     39  CG  PHE B1006       9.947  16.982   3.336  1.00 23.14 LIG-0.06  A 
ATOM     40  CD2 PHE B1006       9.957  18.350   3.093  1.00 22.25 LIG 0.01  A 
ATOM     41  CE2 PHE B1006      11.171  19.041   2.932  1.00 23.88 LIG 0.00  A 
ATOM     42  CZ  PHE B1006      12.374  18.353   3.018  1.00 22.95 LIG 0.00  A 
ATOM     43  CE1 PHE B1006      12.368  16.978   3.262  1.00 21.15 LIG 0.00  A 
ATOM     44  CD1 PHE B1006      11.163  16.308   3.419  1.00 23.85 LIG 0.01  A 
ENDBRANCH 38 39
ENDBRANCH 37 38
BRANCH 37 45
ATOM     45  C   PHE B1006       7.316  14.905   5.141  1.00 30.13 LIG 0.20  C 
ATOM     46 O    PHE B1006       6.558  15.891   5.256  1.00 31.00 LIG-0.65  OA
ATOM     47 OXT  PHE B1006       6.997  13.742   5.462  1.00 32.43 LIG-0.65  OA
ENDBRANCH 37 45
ENDBRANCH 34 37
ENDBRANCH 29 33
ENDBRANCH 1 26
BRANCH 1 48
ATOM     48  CB  SER B1004      12.249  12.530  -0.977  1.00 35.03 LIG 0.20  C 
BRANCH 48 49
ATOM     49 OG   SER B1004      11.859  13.205  -2.157  1.00 42.75 LIG-0.40  OA
ATOM     50 HG   SER B1004      11.674  14.004  -1.974  1.00 42.75 LIG 0.21  HD
ENDBRANCH 48 49
ENDBRANCH 1 48
TORSDOF 14
ENDMDL
MODEL 6
USER: ADFR SOLUTION from run 199
USER: SCORE 13.773046 LL:  -4.105 LR: -10.582 RR:   0.000 FEB:  -6.406
USER: RMSD 6.115943
USER: SEED 198
USER: STATUS no improvement in best in 18 clusters for 5 generations
USER: GENES 16
USER: genes 0 Translation |==|  0.46432 0.18647 0.60129
USER: genes 1 Rotation |==|  0.37778 0.43167 0.70888 0.93216
USER: genes 2 Torsion [CB]-CA--N-[C] |==|  0.20986
USER: genes 3 Torsion [N]-C--CA-[N] |==|  0.48607
USER: genes 4 Torsion [N]-C--CA-[N] |==|  0.28311
USER: genes 5 Torsion [N]-C--CA-[N] |==|  0.35765
USER: genes 6 Torsion [C]-CA--CB-[CG2] |==|  0.16225
USER: genes 7 Torsion [CA]-CB--OG1-[HG1] |==|  0.62258
USER: genes 8 Torsion [N]-CA--C-[N] |==|  0.44460
USER: genes 9 Torsion [N]-CA--C-[N] |==|  0.26602
USER: genes 10 Torsion [C]-N--CA-[CB] |==|  0.45113
USER: genes 11 Torsion [N]-CA--CB-[CG] |==|  0.80542
USER: genes 12 Torsion [CA]-CB--CG-[CD1] |==|  0.09282
USER: genes 13 Torsion [N]-CA--C-[O] |==|  0.05451
USER: genes 14 Torsion [N]-CA--CB-[OG] |==|  0.71730
USER: genes 15 Torsion [CA]-CB--OG-[HG] |==|  0.12108
ROOT
ATOM      1  CA  SER B1004      11.317  13.224   1.019  1.00 32.51 LIG 0.20  C 
ENDROOT
BRANCH 1 2
ATOM      2  N   SER B1004      12.387  14.045   0.476  1.00 30.80 LIG-0.34  N 
ATOM      3 H    SER B1004      13.183  13.808   0.700  1.00 30.80 LIG 0.16  HD
ATOM      4  C   PRO B1003      12.093  15.075  -0.305  1.00 29.50 LIG 0.24  C 
ATOM      5 O    PRO B1003      10.931  15.361  -0.601  1.00 26.59 LIG-0.27  OA
BRANCH 4 6
ATOM      6  CA  PRO B1003      13.260  15.911  -0.840  1.00 29.25 LIG 0.18  C 
ATOM      7  CB  PRO B1003      13.861  16.780   0.266  1.00 27.80 LIG 0.04  C 
ATOM      8  CG  PRO B1003      14.025  18.133  -0.372  1.00 32.17 LIG 0.02  C 
ATOM      9  CD  PRO B1003      12.795  18.254  -1.236  1.00 30.31 LIG 0.13  C 
ATOM     10  N   PRO B1003      12.655  16.884  -1.755  1.00 27.10 LIG-0.34  N 
ATOM     11  C   PRO B1002      12.163  16.482  -2.936  1.00 28.33 LIG 0.24  C 
ATOM     12 O    PRO B1002      12.227  15.316  -3.303  1.00 27.60 LIG-0.27  OA
BRANCH 11 13
ATOM     13  CA  PRO B1002      11.531  17.551  -3.818  1.00 29.68 LIG 0.18  C 
ATOM     14  N   PRO B1002      12.356  18.032  -4.929  1.00 30.07 LIG-0.34  N 
ATOM     15  CD  PRO B1002      11.642  17.864  -6.209  1.00 30.93 LIG 0.13  C 
ATOM     16  C   THR B1001      13.579  18.625  -4.797  1.00 31.77 LIG 0.26  C 
ATOM     17  CG  PRO B1002      10.209  17.822  -5.765  1.00 29.32 LIG 0.02  C 
ATOM     18  CB  PRO B1002      10.289  17.004  -4.522  1.00 30.61 LIG 0.04  C 
ATOM     19 O    THR B1001      14.078  18.772  -3.676  1.00 28.08 LIG-0.27  OA
BRANCH 16 20
ATOM     20  CA  THR B1001      14.280  19.063  -6.070  1.00 31.25 LIG 0.43  C 
ATOM     21  N   THR B1001      14.703  20.449  -5.969  1.00 31.78 LIG 0.62  N 
BRANCH 20 22
ATOM     22  CB  THR B1001      15.461  18.135  -6.355  1.00 33.83 LIG 0.16  C 
ATOM     23  CG2 THR B1001      14.986  16.696  -6.488  1.00 26.93 LIG 0.04  C 
BRANCH 22 24
ATOM     24 OG1  THR B1001      16.111  18.543  -7.565  1.00 35.47 LIG-0.39  OA
ATOM     25 HG1  THR B1001      16.281  17.867  -8.033  1.00 35.47 LIG 0.21  HD
ENDBRANCH 22 24
ENDBRANCH 20 22
ENDBRANCH 16 20
ENDBRANCH 11 13
ENDBRANCH 4 6
ENDBRANCH 1 2
BRANCH 1 26
ATOM     26  C   SER B1004      11.897  12.404   2.169  1.00 31.12 LIG 0.24  C 
ATOM     27 O    SER B1004      13.106  12.245   2.272  1.00 31.43 LIG-0.27  OA
ATOM     28  N   PRO B1005      11.046  11.895   3.067  1.00 32.50 LIG-0.34  N 
ATOM     29  CA  PRO B1005       9.585  12.002   3.106  1.00 31.67 LIG 0.18  C 
ATOM     30  CD  PRO B1005      11.512  10.881   4.035  1.00 32.99 LIG 0.13  C 
ATOM     31  CB  PRO B1005       9.173  10.629   3.599  1.00 32.97 LIG 0.04  C 
ATOM     32  CG  PRO B1005      10.202  10.371   4.657  1.00 32.33 LIG 0.02  C 
BRANCH 29 33
ATOM     33  C   PRO B1005       9.113  13.102   4.062  1.00 31.95 LIG 0.24  C 
ATOM     34  N   PHE B1006       8.848  14.291   3.528  1.00 29.16 LIG-0.34  N 
ATOM     35 H    PHE B1006       8.904  14.470   2.689  1.00 29.16 LIG 0.16  HD
ATOM     36 O    PRO B1005       8.989  12.868   5.265  1.00 29.71 LIG-0.27  OA
BRANCH 34 37
ATOM     37  CA  PHE B1006       8.429  15.408   4.363  1.00 29.49 LIG 0.19  C 
BRANCH 37 38
ATOM     38  CB  PHE B1006       8.612  16.723   3.604  1.00 24.64 LIG 0.07  C 
BRANCH 38 39
ATOM     39  CG  PHE B1006      10.048  17.107   3.400  1.00 23.14 LIG-0.06  A 
ATOM     40  CD2 PHE B1006      10.430  18.443   3.395  1.00 22.25 LIG 0.01  A 
ATOM     41  CE2 PHE B1006      11.775  18.804   3.205  1.00 23.88 LIG 0.00  A 
ATOM     42  CZ  PHE B1006      12.735  17.817   3.022  1.00 22.95 LIG 0.00  A 
ATOM     43  CE1 PHE B1006      12.356  16.473   3.027  1.00 21.15 LIG 0.00  A 
ATOM     44  CD1 PHE B1006      11.024  16.131   3.215  1.00 23.85 LIG 0.01  A 
ENDBRANCH 38 39
ENDBRANCH 37 38
BRANCH 37 45
ATOM     45  C   PHE B1006       6.999  15.296   4.872  1.00 30.13 LIG 0.20  C 
ATOM     46 O    PHE B1006       6.470  14.164   4.869  1.00 31.00 LIG-0.65  OA
ATOM     47 OXT  PHE B1006       6.426  16.330   5.272  1.00 32.43 LIG-0.65  OA
ENDBRANCH 37 45
ENDBRANCH 34 37
ENDBRANCH 29 33
ENDBRANCH 1 26
BRANCH 1 48
ATOM     48  CB  SER B1004      10.754  12.304  -0.064  1.00 35.03 LIG 0.20  C 
BRANCH 48 49
ATOM     49 OG   SER B1004       9.533  12.826  -0.551  1.00 42.75 LIG-0.40  OA
ATOM     50 HG   SER B1004       9.609  13.655  -0.667  1.00 42.75 LIG 0.21  HD
ENDBRANCH 48 49
ENDBRANCH 1 48
TORSDOF 14
ENDMDL
MODEL 7
USER: ADFR SOLUTION from run 128
USER: SCORE 13.481158 LL:  -3.891 LR: -10.500 RR:   0.000 FEB:  -6.323
USER: RMSD 7.831860
USER: SEED 127
USER: STATUS no improvement in best in 20 clusters for 5 generations
USER: GENES 16
USER: genes 0 Translation |==|  0.37499 0.50059 0.76981
USER: genes 1 Rotation |==|  0.68140 0.30663 0.79457 0.80485
USER: genes 2 Torsion [CB]-CA--N-[C] |==|  0.18889
USER: genes 3 Torsion [N]-C--CA-[N] |==|  0.20112
USER: genes 4 Torsion [N]-C--CA-[N] |==|  0.32018
USER: genes 5 Torsion [N]-C--CA-[N] |==|  0.38333
USER: genes 6 Torsion [C]-CA--CB-[CG2] |==|  0.98252
USER: genes 7 Torsion [CA]-CB--OG1-[HG1] |==|  0.87983
USER: genes 8 Torsion [N]-CA--C-[N] |==|  0.48202
USER: genes 9 Torsion [N]-CA--C-[N] |==|  0.47331
USER: genes 10 Torsion [C]-N--CA-[CB] |==|  0.82991
USER: genes 11 Torsion [N]-CA--CB-[CG] |==|  0.89991
USER: genes 12 Torsion [CA]-CB--CG-[CD1] |==|  0.35585
USER: genes 13 Torsion [N]-CA--C-[O] |==|  0.09535
USER: genes 14 Torsion [N]-CA--CB-[OG] |==|  0.72913
USER: genes 15 Torsion [CA]-CB--OG-[HG] |==|  0.11538
ROOT
ATOM      1  CA  SER B1004       9.642  20.056   3.926  1.00 32.51 LIG 0.20  C 
ENDROOT
BRANCH 1 2
ATOM      2  N   SER B1004       9.654  21.227   4.787  1.00 30.80 LIG-0.34  N 
ATOM      3 H    SER B1004      10.431  21.480   5.055  1.00 30.80 LIG 0.16  HD
ATOM      4  C   PRO B1003       8.512  21.822   5.103  1.00 29.50 LIG 0.24  C 
ATOM      5 O    PRO B1003       7.426  21.421   4.680  1.00 26.59 LIG-0.27  OA
BRANCH 4 6
ATOM      6  CA  PRO B1003       8.584  23.046   6.022  1.00 29.25 LIG 0.18  C 
ATOM      7  CB  PRO B1003       7.182  23.552   6.366  1.00 27.80 LIG 0.04  C 
ATOM      8  CG  PRO B1003       7.269  25.043   6.183  1.00 32.17 LIG 0.02  C 
ATOM      9  CD  PRO B1003       8.158  25.187   4.974  1.00 30.31 LIG 0.13  C 
ATOM     10  N   PRO B1003       9.146  24.120   5.197  1.00 27.10 LIG-0.34  N 
ATOM     11  C   PRO B1002      10.438  24.087   4.839  1.00 28.33 LIG 0.24  C 
ATOM     12 O    PRO B1002      11.191  23.194   5.205  1.00 27.60 LIG-0.27  OA
BRANCH 11 13
ATOM     13  CA  PRO B1002      10.939  25.228   3.963  1.00 29.68 LIG 0.18  C 
ATOM     14  N   PRO B1002      11.949  26.100   4.567  1.00 30.07 LIG-0.34  N 
ATOM     15  CD  PRO B1002      13.157  26.149   3.720  1.00 30.93 LIG 0.13  C 
ATOM     16  C   THR B1001      11.774  26.829   5.708  1.00 31.77 LIG 0.26  C 
ATOM     17  CG  PRO B1002      12.613  25.766   2.376  1.00 29.32 LIG 0.02  C 
ATOM     18  CB  PRO B1002      11.648  24.685   2.723  1.00 30.61 LIG 0.04  C 
ATOM     19 O    THR B1001      10.705  26.766   6.324  1.00 28.08 LIG-0.27  OA
BRANCH 16 20
ATOM     20  CA  THR B1001      12.940  27.681   6.174  1.00 31.25 LIG 0.43  C 
ATOM     21  N   THR B1001      12.475  28.980   6.627  1.00 31.78 LIG 0.62  N 
BRANCH 20 22
ATOM     22  CB  THR B1001      13.711  26.947   7.272  1.00 33.83 LIG 0.16  C 
ATOM     23  CG2 THR B1001      12.987  25.668   7.664  1.00 26.93 LIG 0.04  C 
BRANCH 22 24
ATOM     24 OG1  THR B1001      15.029  26.632   6.805  1.00 35.47 LIG-0.39  OA
ATOM     25 HG1  THR B1001      14.986  26.345   6.017  1.00 35.47 LIG 0.21  HD
ENDBRANCH 22 24
ENDBRANCH 20 22
ENDBRANCH 16 20
ENDBRANCH 11 13
ENDBRANCH 4 6
ENDBRANCH 1 2
BRANCH 1 26
ATOM     26  C   SER B1004      11.052  19.470   3.919  1.00 31.12 LIG 0.24  C 
ATOM     27 O    SER B1004      11.967  20.043   4.493  1.00 31.43 LIG-0.27  OA
ATOM     28  N   PRO B1005      11.241  18.303   3.291  1.00 32.50 LIG-0.34  N 
ATOM     29  CA  PRO B1005      10.263  17.480   2.576  1.00 31.67 LIG 0.18  C 
ATOM     30  CD  PRO B1005      12.612  17.825   3.019  1.00 32.99 LIG 0.13  C 
ATOM     31  CB  PRO B1005      11.072  16.962   1.403  1.00 32.97 LIG 0.04  C 
ATOM     32  CG  PRO B1005      12.380  16.645   2.062  1.00 32.33 LIG 0.02  C 
BRANCH 29 33
ATOM     33  C   PRO B1005       9.735  16.330   3.439  1.00 31.95 LIG 0.24  C 
ATOM     34  N   PHE B1006       8.703  15.642   2.961  1.00 29.16 LIG-0.34  N 
ATOM     35 H    PHE B1006       8.334  15.788   2.197  1.00 29.16 LIG 0.16  HD
ATOM     36 O    PRO B1005      10.264  16.073   4.522  1.00 29.71 LIG-0.27  OA
BRANCH 34 37
ATOM     37  CA  PHE B1006       8.108  14.556   3.727  1.00 29.49 LIG 0.19  C 
BRANCH 37 38
ATOM     38  CB  PHE B1006       9.147  13.459   3.969  1.00 24.64 LIG 0.07  C 
BRANCH 38 39
ATOM     39  CG  PHE B1006      10.089  13.257   2.819  1.00 23.14 LIG-0.06  A 
ATOM     40  CD2 PHE B1006       9.603  13.061   1.532  1.00 22.25 LIG 0.01  A 
ATOM     41  CE2 PHE B1006      10.486  12.873   0.454  1.00 23.88 LIG 0.00  A 
ATOM     42  CZ  PHE B1006      11.857  12.883   0.674  1.00 22.95 LIG 0.00  A 
ATOM     43  CE1 PHE B1006      12.349  13.080   1.966  1.00 21.15 LIG 0.00  A 
ATOM     44  CD1 PHE B1006      11.467  13.265   3.022  1.00 23.85 LIG 0.01  A 
ENDBRANCH 38 39
ENDBRANCH 37 38
BRANCH 37 45
ATOM     45  C   PHE B1006       7.498  14.996   5.050  1.00 30.13 LIG 0.20  C 
ATOM     46 O    PHE B1006       6.965  16.124   5.095  1.00 31.00 LIG-0.65  OA
ATOM     47 OXT  PHE B1006       7.553  14.214   6.021  1.00 32.43 LIG-0.65  OA
ENDBRANCH 37 45
ENDBRANCH 34 37
ENDBRANCH 29 33
ENDBRANCH 1 26
BRANCH 1 48
ATOM     48  CB  SER B1004       9.215  20.444   2.510  1.00 35.03 LIG 0.20  C 
BRANCH 48 49
ATOM     49 OG   SER B1004       7.837  20.178   2.334  1.00 42.75 LIG-0.40  OA
ATOM     50 HG   SER B1004       7.417  20.409   3.023  1.00 42.75 LIG 0.21  HD
ENDBRANCH 48 49
ENDBRANCH 1 48
TORSDOF 14
ENDMDL
MODEL 8
USER: ADFR SOLUTION from run 81
USER: SCORE 12.842591 LL:  -4.079 LR: -10.468 RR:   0.000 FEB:  -6.292
USER: RMSD 7.226263
USER: SEED 80
USER: STATUS no improvement in best in 22 clusters for 5 generations
USER: GENES 16
USER: genes 0 Translation |==|  0.59764 0.49642 0.51410
USER: genes 1 Rotation |==|  0.76817 0.11572 0.55831 0.66436
USER: genes 2 Torsion [CB]-CA--N-[C] |==|  0.35283
USER: genes 3 Torsion [N]-C--CA-[N] |==|  0.37497
USER: genes 4 Torsion [N]-C--CA-[N] |==|  0.51980
USER: genes 5 Torsion [N]-C--CA-[N] |==|  0.24843
USER: genes 6 Torsion [C]-CA--CB-[CG2] |==|  0.71319
USER: genes 7 Torsion [CA]-CB--OG1-[HG1] |==|  0.34249
USER: genes 8 Torsion [N]-CA--C-[N] |==|  0.25072
USER: genes 9 Torsion [N]-CA--C-[N] |==|  0.52149
USER: genes 10 Torsion [C]-N--CA-[CB] |==|  0.28301
USER: genes 11 Torsion [N]-CA--CB-[CG] |==|  0.53297
USER: genes 12 Torsion [CA]-CB--CG-[CD1] |==|  0.57887
USER: genes 13 Torsion [N]-CA--C-[O] |==|  0.30683
USER: genes 14 Torsion [N]-CA--CB-[OG] |==|  0.00324
USER: genes 15 Torsion [CA]-CB--OG-[HG] |==|  0.88921
ROOT
ATOM      1  CA  SER B1004      13.817  19.965  -0.485  1.00 32.51 LIG 0.20  C 
ENDROOT
BRANCH 1 2
ATOM      2  N   SER B1004      13.781  19.373   0.843  1.00 30.80 LIG-0.34  N 
ATOM      3 H    SER B1004      14.442  19.577   1.355  1.00 30.80 LIG 0.16  HD
ATOM      4  C   PRO B1003      12.774  18.582   1.182  1.00 29.50 LIG 0.24  C 
ATOM      5 O    PRO B1003      11.847  18.333   0.409  1.00 26.59 LIG-0.27  OA
BRANCH 4 6
ATOM      6  CA  PRO B1003      12.793  17.978   2.591  1.00 29.25 LIG 0.18  C 
ATOM      7  CB  PRO B1003      12.971  16.460   2.530  1.00 27.80 LIG 0.04  C 
ATOM      8  CG  PRO B1003      11.949  15.927   3.497  1.00 32.17 LIG 0.02  C 
ATOM      9  CD  PRO B1003      10.771  16.845   3.290  1.00 30.31 LIG 0.13  C 
ATOM     10  N   PRO B1003      11.432  18.147   3.106  1.00 27.10 LIG-0.34  N 
ATOM     11  C   PRO B1002      10.985  19.367   3.439  1.00 28.33 LIG 0.24  C 
ATOM     12 O    PRO B1002      11.693  20.363   3.357  1.00 27.60 LIG-0.27  OA
BRANCH 11 13
ATOM     13  CA  PRO B1002       9.551  19.461   3.946  1.00 29.68 LIG 0.18  C 
ATOM     14  N   PRO B1002       9.033  20.815   4.148  1.00 30.07 LIG-0.34  N 
ATOM     15  CD  PRO B1002       7.794  21.012   3.372  1.00 30.93 LIG 0.13  C 
ATOM     16  C   THR B1001       9.571  21.742   4.995  1.00 31.77 LIG 0.26  C 
ATOM     17  CG  PRO B1002       7.311  19.603   3.191  1.00 29.32 LIG 0.02  C 
ATOM     18  CB  PRO B1002       8.579  18.868   2.927  1.00 30.61 LIG 0.04  C 
ATOM     19 O    THR B1001      10.585  21.469   5.647  1.00 28.08 LIG-0.27  OA
BRANCH 16 20
ATOM     20  CA  THR B1001       8.886  23.094   5.072  1.00 31.25 LIG 0.43  C 
ATOM     21  N   THR B1001       7.855  23.086   6.094  1.00 31.78 LIG 0.62  N 
BRANCH 20 22
ATOM     22  CB  THR B1001       9.925  24.186   5.331  1.00 33.83 LIG 0.16  C 
ATOM     23  CG2 THR B1001       9.881  24.627   6.786  1.00 26.93 LIG 0.04  C 
BRANCH 22 24
ATOM     24 OG1  THR B1001      11.232  23.690   5.016  1.00 35.47 LIG-0.39  OA
ATOM     25 HG1  THR B1001      11.590  24.189   4.444  1.00 35.47 LIG 0.21  HD
ENDBRANCH 22 24
ENDBRANCH 20 22
ENDBRANCH 16 20
ENDBRANCH 11 13
ENDBRANCH 4 6
ENDBRANCH 1 2
BRANCH 1 26
ATOM     26  C   SER B1004      14.986  19.340  -1.242  1.00 31.12 LIG 0.24  C 
ATOM     27 O    SER B1004      16.105  19.828  -1.171  1.00 31.43 LIG-0.27  OA
ATOM     28  N   PRO B1005      14.749  18.234  -1.957  1.00 32.50 LIG-0.34  N 
ATOM     29  CA  PRO B1005      13.486  17.513  -2.135  1.00 31.67 LIG 0.18  C 
ATOM     30  CD  PRO B1005      15.760  17.744  -2.915  1.00 32.99 LIG 0.13  C 
ATOM     31  CB  PRO B1005      13.560  17.086  -3.587  1.00 32.97 LIG 0.04  C 
ATOM     32  CG  PRO B1005      14.994  16.668  -3.702  1.00 32.33 LIG 0.02  C 
BRANCH 29 33
ATOM     33  C   PRO B1005      13.377  16.302  -1.203  1.00 31.95 LIG 0.24  C 
ATOM     34  N   PHE B1006      12.343  15.487  -1.393  1.00 29.16 LIG-0.34  N 
ATOM     35 H    PHE B1006      11.754  15.587  -2.012  1.00 29.16 LIG 0.16  HD
ATOM     36 O    PRO B1005      14.224  16.113  -0.329  1.00 29.71 LIG-0.27  OA
BRANCH 34 37
ATOM     37  CA  PHE B1006      12.135  14.331  -0.533  1.00 29.49 LIG 0.19  C 
BRANCH 37 38
ATOM     38  CB  PHE B1006      11.038  14.632   0.490  1.00 24.64 LIG 0.07  C 
BRANCH 38 39
ATOM     39  CG  PHE B1006      10.947  13.617   1.591  1.00 23.14 LIG-0.06  A 
ATOM     40  CD2 PHE B1006      12.070  12.903   1.990  1.00 22.25 LIG 0.01  A 
ATOM     41  CE2 PHE B1006      11.986  11.952   3.022  1.00 23.88 LIG 0.00  A 
ATOM     42  CZ  PHE B1006      10.769  11.722   3.652  1.00 22.95 LIG 0.00  A 
ATOM     43  CE1 PHE B1006       9.639  12.438   3.253  1.00 21.15 LIG 0.00  A 
ATOM     44  CD1 PHE B1006       9.735  13.374   2.233  1.00 23.85 LIG 0.01  A 
ENDBRANCH 38 39
ENDBRANCH 37 38
BRANCH 37 45
ATOM     45  C   PHE B1006      11.804  13.052  -1.289  1.00 30.13 LIG 0.20  C 
ATOM     46 O    PHE B1006      12.665  12.147  -1.301  1.00 31.00 LIG-0.65  OA
ATOM     47 OXT  PHE B1006      10.695  12.963  -1.853  1.00 32.43 LIG-0.65  OA
ENDBRANCH 37 45
ENDBRANCH 34 37
ENDBRANCH 29 33
ENDBRANCH 1 26
BRANCH 1 48
ATOM     48  CB  SER B1004      13.992  21.481  -0.384  1.00 35.03 LIG 0.20  C 
BRANCH 48 49
ATOM     49 OG   SER B1004      14.095  21.863   0.974  1.00 42.75 LIG-0.40  OA
ATOM     50 HG   SER B1004      13.554  21.415   1.433  1.00 42.75 LIG 0.21  HD
ENDBRANCH 48 49
ENDBRANCH 1 48
TORSDOF 14
ENDMDL
MODEL 9
USER: ADFR SOLUTION from run 82
USER: SCORE 12.865153 LL:  -3.401 LR: -10.456 RR:   0.000 FEB:  -6.279
USER: RMSD 4.251763
USER: SEED 81
USER: STATUS no improvement in best in 10 clusters for 5 generations
USER: GENES 16
USER: genes 0 Translation |==|  0.47894 0.45165 0.64590
USER: genes 1 Rotation |==|  0.78760 0.55281 0.13079 0.66787
USER: genes 2 Torsion [CB]-CA--N-[C] |==|  0.18601
USER: genes 3 Torsion [N]-C--CA-[N] |==|  0.26755
USER: genes 4 Torsion [N]-C--CA-[N] |==|  0.30932
USER: genes 5 Torsion [N]-C--CA-[N] |==|  0.17326
USER: genes 6 Torsion [C]-CA--CB-[CG2] |==|  0.52604
USER: genes 7 Torsion [CA]-CB--OG1-[HG1] |==|  0.27197
USER: genes 8 Torsion [N]-CA--C-[N] |==|  0.42872
USER: genes 9 Torsion [N]-CA--C-[N] |==|  0.37289
USER: genes 10 Torsion [C]-N--CA-[CB] |==|  0.44079
USER: genes 11 Torsion [N]-CA--CB-[CG] |==|  0.82938
USER: genes 12 Torsion [CA]-CB--CG-[CD1] |==|  0.94478
USER: genes 13 Torsion [N]-CA--C-[O] |==|  0.14230
USER: genes 14 Torsion [N]-CA--CB-[OG] |==|  0.50427
USER: genes 15 Torsion [CA]-CB--OG-[HG] |==|  0.17540
ROOT
ATOM      1  CA  SER B1004      11.591  18.991   1.789  1.00 32.51 LIG 0.20  C 
ENDROOT
BRANCH 1 2
ATOM      2  N   SER B1004      11.989  18.856   0.397  1.00 30.80 LIG-0.34  N 
ATOM      3 H    SER B1004      11.576  19.370  -0.156  1.00 30.80 LIG 0.16  HD
ATOM      4  C   PRO B1003      12.929  17.983   0.064  1.00 29.50 LIG 0.24  C 
ATOM      5 O    PRO B1003      13.495  17.279   0.903  1.00 26.59 LIG-0.27  OA
BRANCH 4 6
ATOM      6  CA  PRO B1003      13.301  17.876  -1.419  1.00 29.25 LIG 0.18  C 
ATOM      7  CB  PRO B1003      13.816  16.475  -1.752  1.00 27.80 LIG 0.04  C 
ATOM      8  CG  PRO B1003      15.046  16.719  -2.583  1.00 32.17 LIG 0.02  C 
ATOM      9  CD  PRO B1003      15.667  17.927  -1.928  1.00 30.31 LIG 0.13  C 
ATOM     10  N   PRO B1003      14.481  18.729  -1.587  1.00 27.10 LIG-0.34  N 
ATOM     11  C   PRO B1002      14.361  20.063  -1.527  1.00 28.33 LIG 0.24  C 
ATOM     12 O    PRO B1002      13.278  20.611  -1.364  1.00 27.60 LIG-0.27  OA
BRANCH 11 13
ATOM     13  CA  PRO B1002      15.638  20.877  -1.690  1.00 29.68 LIG 0.18  C 
ATOM     14  N   PRO B1002      15.742  21.662  -2.921  1.00 30.07 LIG-0.34  N 
ATOM     15  CD  PRO B1002      15.974  23.085  -2.605  1.00 30.93 LIG 0.13  C 
ATOM     16  C   THR B1001      15.710  21.146  -4.185  1.00 31.77 LIG 0.26  C 
ATOM     17  CG  PRO B1002      16.564  23.008  -1.228  1.00 29.32 LIG 0.02  C 
ATOM     18  CB  PRO B1002      15.745  21.937  -0.594  1.00 30.61 LIG 0.04  C 
ATOM     19 O    THR B1001      15.565  19.931  -4.353  1.00 28.08 LIG-0.27  OA
BRANCH 16 20
ATOM     20  CA  THR B1001      15.840  22.123  -5.339  1.00 31.25 LIG 0.43  C 
ATOM     21  N   THR B1001      17.124  22.799  -5.294  1.00 31.78 LIG 0.62  N 
BRANCH 20 22
ATOM     22  CB  THR B1001      15.638  21.388  -6.664  1.00 33.83 LIG 0.16  C 
ATOM     23  CG2 THR B1001      15.989  22.294  -7.834  1.00 26.93 LIG 0.04  C 
BRANCH 22 24
ATOM     24 OG1  THR B1001      16.464  20.217  -6.695  1.00 35.47 LIG-0.39  OA
ATOM     25 HG1  THR B1001      16.007  19.547  -6.479  1.00 35.47 LIG 0.21  HD
ENDBRANCH 22 24
ENDBRANCH 20 22
ENDBRANCH 16 20
ENDBRANCH 11 13
ENDBRANCH 4 6
ENDBRANCH 1 2
BRANCH 1 26
ATOM     26  C   SER B1004      10.376  19.914   1.838  1.00 31.12 LIG 0.24  C 
ATOM     27 O    SER B1004      10.174  20.725   0.945  1.00 31.43 LIG-0.27  OA
ATOM     28  N   PRO B1005       9.534  19.786   2.870  1.00 32.50 LIG-0.34  N 
ATOM     29  CA  PRO B1005       9.613  18.864   4.006  1.00 31.67 LIG 0.18  C 
ATOM     30  CD  PRO B1005       8.504  20.816   3.114  1.00 32.99 LIG 0.13  C 
ATOM     31  CB  PRO B1005       9.115  19.721   5.153  1.00 32.97 LIG 0.04  C 
ATOM     32  CG  PRO B1005       7.972  20.445   4.509  1.00 32.33 LIG 0.02  C 
BRANCH 29 33
ATOM     33  C   PRO B1005       8.729  17.629   3.809  1.00 31.95 LIG 0.24  C 
ATOM     34  N   PHE B1006       9.271  16.448   4.095  1.00 29.16 LIG-0.34  N 
ATOM     35 H    PHE B1006      10.069  16.341   4.399  1.00 29.16 LIG 0.16  HD
ATOM     36 O    PRO B1005       7.571  17.752   3.407  1.00 29.71 LIG-0.27  OA
BRANCH 34 37
ATOM     37  CA  PHE B1006       8.521  15.215   3.903  1.00 29.49 LIG 0.19  C 
BRANCH 37 38
ATOM     38  CB  PHE B1006       9.483  14.032   3.786  1.00 24.64 LIG 0.07  C 
BRANCH 38 39
ATOM     39  CG  PHE B1006      10.420  14.131   2.618  1.00 23.14 LIG-0.06  A 
ATOM     40  CD2 PHE B1006      11.595  13.390   2.589  1.00 22.25 LIG 0.01  A 
ATOM     41  CE2 PHE B1006      12.474  13.481   1.496  1.00 23.88 LIG 0.00  A 
ATOM     42  CZ  PHE B1006      12.166  14.318   0.430  1.00 22.95 LIG 0.00  A 
ATOM     43  CE1 PHE B1006      10.986  15.064   0.456  1.00 21.15 LIG 0.00  A 
ATOM     44  CD1 PHE B1006      10.128  14.965   1.542  1.00 23.85 LIG 0.01  A 
ENDBRANCH 38 39
ENDBRANCH 37 38
BRANCH 37 45
ATOM     45  C   PHE B1006       7.492  14.944   4.992  1.00 30.13 LIG 0.20  C 
ATOM     46 O    PHE B1006       6.690  15.859   5.272  1.00 31.00 LIG-0.65  OA
ATOM     47 OXT  PHE B1006       7.493  13.826   5.547  1.00 32.43 LIG-0.65  OA
ENDBRANCH 37 45
ENDBRANCH 34 37
ENDBRANCH 29 33
ENDBRANCH 1 26
BRANCH 1 48
ATOM     48  CB  SER B1004      12.740  19.572   2.613  1.00 35.03 LIG 0.20  C 
BRANCH 48 49
ATOM     49 OG   SER B1004      12.357  19.668   3.971  1.00 42.75 LIG-0.40  OA
ATOM     50 HG   SER B1004      12.207  18.899   4.275  1.00 42.75 LIG 0.21  HD
ENDBRANCH 48 49
ENDBRANCH 1 48
TORSDOF 14
ENDMDL
MODEL 10
USER: ADFR SOLUTION from run 98
USER: SCORE 14.008299 LL:  -4.242 LR: -10.441 RR:   0.000 FEB:  -6.265
USER: RMSD 6.481287
USER: SEED 97
USER: STATUS no improvement in best in 17 clusters for 5 generations
USER: GENES 16
USER: genes 0 Translation |==|  0.46329 0.20659 0.59892
USER: genes 1 Rotation |==|  0.38324 0.30126 0.73255 0.87787
USER: genes 2 Torsion [CB]-CA--N-[C] |==|  0.51671
USER: genes 3 Torsion [N]-C--CA-[N] |==|  0.05646
USER: genes 4 Torsion [N]-C--CA-[N] |==|  0.88203
USER: genes 5 Torsion [N]-C--CA-[N] |==|  0.40367
USER: genes 6 Torsion [C]-CA--CB-[CG2] |==|  0.91021
USER: genes 7 Torsion [CA]-CB--OG1-[HG1] |==|  0.50280
USER: genes 8 Torsion [N]-CA--C-[N] |==|  0.33738
USER: genes 9 Torsion [N]-CA--C-[N] |==|  0.31986
USER: genes 10 Torsion [C]-N--CA-[CB] |==|  0.47098
USER: genes 11 Torsion [N]-CA--CB-[CG] |==|  0.63175
USER: genes 12 Torsion [CA]-CB--CG-[CD1] |==|  0.40847
USER: genes 13 Torsion [N]-CA--C-[O] |==|  0.05218
USER: genes 14 Torsion [N]-CA--CB-[OG] |==|  0.70768
USER: genes 15 Torsion [CA]-CB--OG-[HG] |==|  0.20312
ROOT
ATOM      1  CA  SER B1004      11.298  13.661   0.978  1.00 32.51 LIG 0.20  C 
ENDROOT
BRANCH 1 2
ATOM      2  N   SER B1004      12.160  14.829   1.064  1.00 30.80 LIG-0.34  N 
ATOM      3 H    SER B1004      12.631  14.991   0.362  1.00 30.80 LIG 0.16  HD
ATOM      4  C   PRO B1003      12.177  15.554   2.173  1.00 29.50 LIG 0.24  C 
ATOM      5 O    PRO B1003      11.471  15.279   3.146  1.00 26.59 LIG-0.27  OA
BRANCH 4 6
ATOM      6  CA  PRO B1003      13.112  16.767   2.210  1.00 29.25 LIG 0.18  C 
ATOM      7  CB  PRO B1003      12.377  18.006   2.724  1.00 27.80 LIG 0.04  C 
ATOM      8  CG  PRO B1003      12.778  19.098   1.769  1.00 32.17 LIG 0.02  C 
ATOM      9  CD  PRO B1003      12.819  18.390   0.438  1.00 30.31 LIG 0.13  C 
ATOM     10  N   PRO B1003      13.392  17.087   0.807  1.00 27.10 LIG-0.34  N 
ATOM     11  C   PRO B1002      14.174  16.278   0.077  1.00 28.33 LIG 0.24  C 
ATOM     12 O    PRO B1002      14.699  15.279   0.551  1.00 27.60 LIG-0.27  OA
BRANCH 11 13
ATOM     13  CA  PRO B1002      14.398  16.668  -1.379  1.00 29.68 LIG 0.18  C 
ATOM     14  N   PRO B1002      13.216  17.139  -2.103  1.00 30.07 LIG-0.34  N 
ATOM     15  CD  PRO B1002      13.461  18.479  -2.670  1.00 30.93 LIG 0.13  C 
ATOM     16  C   THR B1001      12.075  16.413  -2.297  1.00 31.77 LIG 0.26  C 
ATOM     17  CG  PRO B1002      14.959  18.516  -2.751  1.00 29.32 LIG 0.02  C 
ATOM     18  CB  PRO B1002      15.359  17.853  -1.478  1.00 30.61 LIG 0.04  C 
ATOM     19 O    THR B1001      11.979  15.274  -1.829  1.00 28.08 LIG-0.27  OA
BRANCH 16 20
ATOM     20  CA  THR B1001      10.956  17.074  -3.082  1.00 31.25 LIG 0.43  C 
ATOM     21  N   THR B1001      10.247  16.093  -3.885  1.00 31.78 LIG 0.62  N 
BRANCH 20 22
ATOM     22  CB  THR B1001      10.014  17.803  -2.124  1.00 33.83 LIG 0.16  C 
ATOM     23  CG2 THR B1001       9.943  17.073  -0.791  1.00 26.93 LIG 0.04  C 
BRANCH 22 24
ATOM     24 OG1  THR B1001      10.480  19.142  -1.917  1.00 35.47 LIG-0.39  OA
ATOM     25 HG1  THR B1001       9.970  19.537  -1.380  1.00 35.47 LIG 0.21  HD
ENDBRANCH 22 24
ENDBRANCH 20 22
ENDBRANCH 16 20
ENDBRANCH 11 13
ENDBRANCH 4 6
ENDBRANCH 1 2
BRANCH 1 26
ATOM     26  C   SER B1004      11.598  12.771   2.182  1.00 31.12 LIG 0.24  C 
ATOM     27 O    SER B1004      12.732  12.360   2.383  1.00 31.43 LIG-0.27  OA
ATOM     28  N   PRO B1005      10.591  12.484   3.015  1.00 32.50 LIG-0.34  N 
ATOM     29  CA  PRO B1005       9.190  12.904   2.935  1.00 31.67 LIG 0.18  C 
ATOM     30  CD  PRO B1005      10.753  11.424   4.030  1.00 32.99 LIG 0.13  C 
ATOM     31  CB  PRO B1005       8.454  11.668   3.412  1.00 32.97 LIG 0.04  C 
ATOM     32  CG  PRO B1005       9.320  11.227   4.553  1.00 32.33 LIG 0.02  C 
BRANCH 29 33
ATOM     33  C   PRO B1005       8.897  14.109   3.836  1.00 31.95 LIG 0.24  C 
ATOM     34  N   PHE B1006       8.545  15.240   3.233  1.00 29.16 LIG-0.34  N 
ATOM     35 H    PHE B1006       8.453  15.329   2.382  1.00 29.16 LIG 0.16  HD
ATOM     36 O    PRO B1005       8.986  14.004   5.060  1.00 29.71 LIG-0.27  OA
BRANCH 34 37
ATOM     37  CA  PHE B1006       8.283  16.448   4.003  1.00 29.49 LIG 0.19  C 
BRANCH 37 38
ATOM     38  CB  PHE B1006       8.157  17.648   3.064  1.00 24.64 LIG 0.07  C 
BRANCH 38 39
ATOM     39  CG  PHE B1006       8.952  18.843   3.503  1.00 23.14 LIG-0.06  A 
ATOM     40  CD2 PHE B1006       9.143  19.108   4.854  1.00 22.25 LIG 0.01  A 
ATOM     41  CE2 PHE B1006       9.888  20.226   5.267  1.00 23.88 LIG 0.00  A 
ATOM     42  CZ  PHE B1006      10.443  21.075   4.317  1.00 22.95 LIG 0.00  A 
ATOM     43  CE1 PHE B1006      10.254  20.811   2.959  1.00 21.15 LIG 0.00  A 
ATOM     44  CD1 PHE B1006       9.515  19.704   2.565  1.00 23.85 LIG 0.01  A 
ENDBRANCH 38 39
ENDBRANCH 37 38
BRANCH 37 45
ATOM     45  C   PHE B1006       7.054  16.355   4.897  1.00 30.13 LIG 0.20  C 
ATOM     46 O    PHE B1006       6.621  15.216   5.169  1.00 31.00 LIG-0.65  OA
ATOM     47 OXT  PHE B1006       6.543  17.412   5.319  1.00 32.43 LIG-0.65  OA
ENDBRANCH 37 45
ENDBRANCH 34 37
ENDBRANCH 29 33
ENDBRANCH 1 26
BRANCH 1 48
ATOM     48  CB  SER B1004      11.557  12.906  -0.325  1.00 35.03 LIG 0.20  C 
BRANCH 48 49
ATOM     49 OG   SER B1004      10.499  13.139  -1.234  1.00 42.75 LIG-0.40  OA
ATOM     50 HG   SER B1004      10.554  13.921  -1.535  1.00 42.75 LIG 0.21  HD
ENDBRANCH 48 49
ENDBRANCH 1 48
TORSDOF 14
ENDMDL
MODEL 11
USER: ADFR SOLUTION from run 14
USER: SCORE 13.425883 LL:  -3.722 LR: -10.434 RR:   0.000 FEB:  -6.258
USER: RMSD 5.650419
USER: SEED 929729
USER: STATUS no improvement in best in 33 clusters for 5 generations
USER: GENES 16
USER: genes 0 Translation |==|  0.45771 0.20976 0.50625
USER: genes 1 Rotation |==|  0.45731 0.26885 0.86283 0.75120
USER: genes 2 Torsion [CB]-CA--N-[C] |==|  0.83227
USER: genes 3 Torsion [N]-C--CA-[N] |==|  0.60962
USER: genes 4 Torsion [N]-C--CA-[N] |==|  0.89327
USER: genes 5 Torsion [N]-C--CA-[N] |==|  0.16624
USER: genes 6 Torsion [C]-CA--CB-[CG2] |==|  0.38927
USER: genes 7 Torsion [CA]-CB--OG1-[HG1] |==|  0.77263
USER: genes 8 Torsion [N]-CA--C-[N] |==|  0.26668
USER: genes 9 Torsion [N]-CA--C-[N] |==|  0.86351
USER: genes 10 Torsion [C]-N--CA-[CB] |==|  0.84401
USER: genes 11 Torsion [N]-CA--CB-[CG] |==|  0.79119
USER: genes 12 Torsion [CA]-CB--CG-[CD1] |==|  0.64680
USER: genes 13 Torsion [N]-CA--C-[O] |==|  0.08386
USER: genes 14 Torsion [N]-CA--CB-[OG] |==|  0.92326
USER: genes 15 Torsion [CA]-CB--OG-[HG] |==|  0.76911
ROOT
ATOM      1  CA  SER B1004      11.193  13.730  -0.620  1.00 32.51 LIG 0.20  C 
ENDROOT
BRANCH 1 2
ATOM      2  N   SER B1004      10.955  15.164  -0.579  1.00 30.80 LIG-0.34  N 
ATOM      3 H    SER B1004      10.127  15.400  -0.575  1.00 30.80 LIG 0.16  HD
ATOM      4  C   PRO B1003      11.982  16.000  -0.552  1.00 29.50 LIG 0.24  C 
ATOM      5 O    PRO B1003      13.149  15.604  -0.549  1.00 26.59 LIG-0.27  OA
BRANCH 4 6
ATOM      6  CA  PRO B1003      11.672  17.501  -0.520  1.00 29.25 LIG 0.18  C 
ATOM      7  CB  PRO B1003      10.342  17.797  -1.216  1.00 27.80 LIG 0.04  C 
ATOM      8  CG  PRO B1003      10.636  18.986  -2.089  1.00 32.17 LIG 0.02  C 
ATOM      9  CD  PRO B1003      12.031  18.706  -2.589  1.00 30.31 LIG 0.13  C 
ATOM     10  N   PRO B1003      12.668  18.124  -1.396  1.00 27.10 LIG-0.34  N 
ATOM     11  C   PRO B1002      13.950  18.197  -1.012  1.00 28.33 LIG 0.24  C 
ATOM     12 O    PRO B1002      14.327  17.782   0.077  1.00 27.60 LIG-0.27  OA
BRANCH 11 13
ATOM     13  CA  PRO B1002      14.927  18.839  -1.989  1.00 29.68 LIG 0.18  C 
ATOM     14  N   PRO B1002      14.707  18.534  -3.404  1.00 30.07 LIG-0.34  N 
ATOM     15  CD  PRO B1002      14.549  19.780  -4.179  1.00 30.93 LIG 0.13  C 
ATOM     16  C   THR B1001      14.725  17.282  -3.948  1.00 31.77 LIG 0.26  C 
ATOM     17  CG  PRO B1002      15.242  20.783  -3.305  1.00 29.32 LIG 0.02  C 
ATOM     18  CB  PRO B1002      14.813  20.362  -1.942  1.00 30.61 LIG 0.04  C 
ATOM     19 O    THR B1001      14.919  16.297  -3.227  1.00 28.08 LIG-0.27  OA
BRANCH 16 20
ATOM     20  CA  THR B1001      14.481  17.169  -5.442  1.00 31.25 LIG 0.43  C 
ATOM     21  N   THR B1001      15.486  17.912  -6.181  1.00 31.78 LIG 0.62  N 
BRANCH 20 22
ATOM     22  CB  THR B1001      14.457  15.696  -5.852  1.00 33.83 LIG 0.16  C 
ATOM     23  CG2 THR B1001      13.367  15.450  -6.883  1.00 26.93 LIG 0.04  C 
BRANCH 22 24
ATOM     24 OG1  THR B1001      15.730  15.328  -6.396  1.00 35.47 LIG-0.39  OA
ATOM     25 HG1  THR B1001      15.769  15.563  -7.201  1.00 35.47 LIG 0.21  HD
ENDBRANCH 22 24
ENDBRANCH 20 22
ENDBRANCH 16 20
ENDBRANCH 11 13
ENDBRANCH 4 6
ENDBRANCH 1 2
BRANCH 1 26
ATOM     26  C   SER B1004      11.976  13.352   0.635  1.00 31.12 LIG 0.24  C 
ATOM     27 O    SER B1004      13.190  13.491   0.676  1.00 31.43 LIG-0.27  OA
ATOM     28  N   PRO B1005      11.288  12.895   1.687  1.00 32.50 LIG-0.34  N 
ATOM     29  CA  PRO B1005       9.843  12.685   1.815  1.00 31.67 LIG 0.18  C 
ATOM     30  CD  PRO B1005      12.000  12.266   2.818  1.00 32.99 LIG 0.13  C 
ATOM     31  CB  PRO B1005       9.772  11.412   2.634  1.00 32.97 LIG 0.04  C 
ATOM     32  CG  PRO B1005      10.859  11.643   3.639  1.00 32.33 LIG 0.02  C 
BRANCH 29 33
ATOM     33  C   PRO B1005       9.153  13.849   2.535  1.00 31.95 LIG 0.24  C 
ATOM     34  N   PHE B1006       9.694  14.255   3.679  1.00 29.16 LIG-0.34  N 
ATOM     35 H    PHE B1006      10.410  13.924   4.023  1.00 29.16 LIG 0.16  HD
ATOM     36 O    PRO B1005       8.147  14.368   2.050  1.00 29.71 LIG-0.27  OA
BRANCH 34 37
ATOM     37  CA  PHE B1006       9.088  15.329   4.453  1.00 29.49 LIG 0.19  C 
BRANCH 37 38
ATOM     38  CB  PHE B1006       8.948  16.582   3.587  1.00 24.64 LIG 0.07  C 
BRANCH 38 39
ATOM     39  CG  PHE B1006      10.243  17.306   3.362  1.00 23.14 LIG-0.06  A 
ATOM     40  CD2 PHE B1006      11.355  16.631   2.872  1.00 22.25 LIG 0.01  A 
ATOM     41  CE2 PHE B1006      12.568  17.309   2.660  1.00 23.88 LIG 0.00  A 
ATOM     42  CZ  PHE B1006      12.660  18.666   2.941  1.00 22.95 LIG 0.00  A 
ATOM     43  CE1 PHE B1006      11.545  19.347   3.434  1.00 21.15 LIG 0.00  A 
ATOM     44  CD1 PHE B1006      10.352  18.666   3.639  1.00 23.85 LIG 0.01  A 
ENDBRANCH 38 39
ENDBRANCH 37 38
BRANCH 37 45
ATOM     45  C   PHE B1006       7.741  14.965   5.063  1.00 30.13 LIG 0.20  C 
ATOM     46 O    PHE B1006       7.546  13.770   5.366  1.00 31.00 LIG-0.65  OA
ATOM     47 OXT  PHE B1006       6.900  15.872   5.235  1.00 32.43 LIG-0.65  OA
ENDBRANCH 37 45
ENDBRANCH 34 37
ENDBRANCH 29 33
ENDBRANCH 1 26
BRANCH 1 48
ATOM     48  CB  SER B1004      11.983  13.361  -1.876  1.00 35.03 LIG 0.20  C 
BRANCH 48 49
ATOM     49 OG   SER B1004      11.722  14.299  -2.902  1.00 42.75 LIG-0.40  OA
ATOM     50 HG   SER B1004      11.010  14.092  -3.296  1.00 42.75 LIG 0.21  HD
ENDBRANCH 48 49
ENDBRANCH 1 48
TORSDOF 14
ENDMDL
MODEL 12
USER: ADFR SOLUTION from run 45
USER: SCORE 13.470756 LL:  -3.596 LR: -10.408 RR:   0.000 FEB:  -6.232
USER: RMSD 8.708529
USER: SEED 44
USER: STATUS no improvement in best in 36 clusters for 5 generations
USER: GENES 16
USER: genes 0 Translation |==|  0.48667 0.20594 0.70262
USER: genes 1 Rotation |==|  0.76035 0.79697 0.80660 0.50511
USER: genes 2 Torsion [CB]-CA--N-[C] |==|  0.86820
USER: genes 3 Torsion [N]-C--CA-[N] |==|  0.27338
USER: genes 4 Torsion [N]-C--CA-[N] |==|  0.42460
USER: genes 5 Torsion [N]-C--CA-[N] |==|  0.39128
USER: genes 6 Torsion [C]-CA--CB-[CG2] |==|  0.50694
USER: genes 7 Torsion [CA]-CB--OG1-[HG1] |==|  0.69668
USER: genes 8 Torsion [N]-CA--C-[N] |==|  0.31111
USER: genes 9 Torsion [N]-CA--C-[N] |==|  0.72175
USER: genes 10 Torsion [C]-N--CA-[CB] |==|  0.53964
USER: genes 11 Torsion [N]-CA--CB-[CG] |==|  0.83648
USER: genes 12 Torsion [CA]-CB--CG-[CD1] |==|  0.72665
USER: genes 13 Torsion [N]-CA--C-[O] |==|  0.87849
USER: genes 14 Torsion [N]-CA--CB-[OG] |==|  0.88016
USER: genes 15 Torsion [CA]-CB--OG-[HG] |==|  0.75018
ROOT
ATOM      1  CA  SER B1004      11.736  13.647   2.767  1.00 32.51 LIG 0.20  C 
ENDROOT
BRANCH 1 2
ATOM      2  N   SER B1004      10.724  13.966   3.761  1.00 30.80 LIG-0.34  N 
ATOM      3 H    SER B1004      10.944  14.573   4.329  1.00 30.80 LIG 0.16  HD
ATOM      4  C   PRO B1003       9.561  13.331   3.741  1.00 29.50 LIG 0.24  C 
ATOM      5 O    PRO B1003       9.296  12.476   2.894  1.00 26.59 LIG-0.27  OA
BRANCH 4 6
ATOM      6  CA  PRO B1003       8.535  13.701   4.819  1.00 29.25 LIG 0.18  C 
ATOM      7  CB  PRO B1003       7.645  12.504   5.158  1.00 27.80 LIG 0.04  C 
ATOM      8  CG  PRO B1003       6.252  13.072   5.181  1.00 32.17 LIG 0.02  C 
ATOM      9  CD  PRO B1003       6.270  14.067   4.048  1.00 30.31 LIG 0.13  C 
ATOM     10  N   PRO B1003       7.617  14.645   4.175  1.00 27.10 LIG-0.34  N 
ATOM     11  C   PRO B1002       8.026  15.887   3.881  1.00 28.33 LIG 0.24  C 
ATOM     12 O    PRO B1002       9.150  16.285   4.161  1.00 27.60 LIG-0.27  OA
BRANCH 11 13
ATOM     13  CA  PRO B1002       7.019  16.800   3.192  1.00 29.68 LIG 0.18  C 
ATOM     14  N   PRO B1002       7.198  18.235   3.421  1.00 30.07 LIG-0.34  N 
ATOM     15  CD  PRO B1002       7.328  18.947   2.135  1.00 30.93 LIG 0.13  C 
ATOM     16  C   THR B1001       7.168  18.844   4.642  1.00 31.77 LIG 0.26  C 
ATOM     17  CG  PRO B1002       6.657  18.000   1.183  1.00 29.32 LIG 0.02  C 
ATOM     18  CB  PRO B1002       7.128  16.675   1.673  1.00 30.61 LIG 0.04  C 
ATOM     19 O    THR B1001       6.999  18.172   5.665  1.00 28.08 LIG-0.27  OA
BRANCH 16 20
ATOM     20  CA  THR B1001       7.368  20.348   4.674  1.00 31.25 LIG 0.43  C 
ATOM     21  N   THR B1001       6.491  20.960   5.657  1.00 31.78 LIG 0.62  N 
BRANCH 20 22
ATOM     22  CB  THR B1001       8.836  20.669   4.956  1.00 33.83 LIG 0.16  C 
ATOM     23  CG2 THR B1001       9.043  22.172   5.053  1.00 26.93 LIG 0.04  C 
BRANCH 22 24
ATOM     24 OG1  THR B1001       9.237  20.046   6.183  1.00 35.47 LIG-0.39  OA
ATOM     25 HG1  THR B1001       9.348  20.634   6.772  1.00 35.47 LIG 0.21  HD
ENDBRANCH 22 24
ENDBRANCH 20 22
ENDBRANCH 16 20
ENDBRANCH 11 13
ENDBRANCH 4 6
ENDBRANCH 1 2
BRANCH 1 26
ATOM     26  C   SER B1004      11.284  14.239   1.435  1.00 31.12 LIG 0.24  C 
ATOM     27 O    SER B1004      10.291  13.807   0.867  1.00 31.43 LIG-0.27  OA
ATOM     28  N   PRO B1005      11.990  15.258   0.931  1.00 32.50 LIG-0.34  N 
ATOM     29  CA  PRO B1005      13.183  15.906   1.482  1.00 31.67 LIG 0.18  C 
ATOM     30  CD  PRO B1005      11.770  15.690  -0.465  1.00 32.99 LIG 0.13  C 
ATOM     31  CB  PRO B1005      14.003  16.188   0.239  1.00 32.97 LIG 0.04  C 
ATOM     32  CG  PRO B1005      12.944  16.649  -0.717  1.00 32.33 LIG 0.02  C 
BRANCH 29 33
ATOM     33  C   PRO B1005      12.843  17.199   2.230  1.00 31.95 LIG 0.24  C 
ATOM     34  N   PHE B1006      13.040  18.341   1.579  1.00 29.16 LIG-0.34  N 
ATOM     35 H    PHE B1006      13.322  18.395   0.768  1.00 29.16 LIG 0.16  HD
ATOM     36 O    PRO B1005      12.404  17.154   3.380  1.00 29.71 LIG-0.27  OA
BRANCH 34 37
ATOM     37  CA  PHE B1006      12.781  19.622   2.221  1.00 29.49 LIG 0.19  C 
BRANCH 37 38
ATOM     38  CB  PHE B1006      12.743  20.734   1.171  1.00 24.64 LIG 0.07  C 
BRANCH 38 39
ATOM     39  CG  PHE B1006      14.014  20.860   0.382  1.00 23.14 LIG-0.06  A 
ATOM     40  CD2 PHE B1006      14.262  20.021  -0.698  1.00 22.25 LIG 0.01  A 
ATOM     41  CE2 PHE B1006      15.451  20.139  -1.439  1.00 23.88 LIG 0.00  A 
ATOM     42  CZ  PHE B1006      16.388  21.104  -1.091  1.00 22.95 LIG 0.00  A 
ATOM     43  CE1 PHE B1006      16.142  21.948  -0.007  1.00 21.15 LIG 0.00  A 
ATOM     44  CD1 PHE B1006      14.964  21.821   0.717  1.00 23.85 LIG 0.01  A 
ENDBRANCH 38 39
ENDBRANCH 37 38
BRANCH 37 45
ATOM     45  C   PHE B1006      11.507  19.649   3.053  1.00 30.13 LIG 0.20  C 
ATOM     46 O    PHE B1006      10.485  19.124   2.564  1.00 31.00 LIG-0.65  OA
ATOM     47 OXT  PHE B1006      11.541  20.185   4.180  1.00 32.43 LIG-0.65  OA
ENDBRANCH 37 45
ENDBRANCH 34 37
ENDBRANCH 29 33
ENDBRANCH 1 26
BRANCH 1 48
ATOM     48  CB  SER B1004      11.905  12.132   2.651  1.00 35.03 LIG 0.20  C 
BRANCH 48 49
ATOM     49 OG   SER B1004      11.917  11.549   3.939  1.00 42.75 LIG-0.40  OA
ATOM     50 HG   SER B1004      12.706  11.520   4.226  1.00 42.75 LIG 0.21  HD
ENDBRANCH 48 49
ENDBRANCH 1 48
TORSDOF 14
ENDMDL
MODEL 13
USER: ADFR SOLUTION from run 60
USER: SCORE 13.356071 LL:  -3.466 LR: -10.377 RR:   0.000 FEB:  -6.201
USER: RMSD 5.429600
USER: SEED 59
USER: STATUS no improvement in best in 30 clusters for 5 generations
USER: GENES 16
USER: genes 0 Translation |==|  0.48619 0.27213 0.52229
USER: genes 1 Rotation |==|  0.46987 0.27952 0.77485 0.85347
USER: genes 2 Torsion [CB]-CA--N-[C] |==|  0.84669
USER: genes 3 Torsion [N]-C--CA-[N] |==|  0.80891
USER: genes 4 Torsion [N]-C--CA-[N] |==|  0.49819
USER: genes 5 Torsion [N]-C--CA-[N] |==|  0.39225
USER: genes 6 Torsion [C]-CA--CB-[CG2] |==|  0.24175
USER: genes 7 Torsion [CA]-CB--OG1-[HG1] |==|  0.52058
USER: genes 8 Torsion [N]-CA--C-[N] |==|  0.30556
USER: genes 9 Torsion [N]-CA--C-[N] |==|  0.44555
USER: genes 10 Torsion [C]-N--CA-[CB] |==|  0.30481
USER: genes 11 Torsion [N]-CA--CB-[CG] |==|  0.66629
USER: genes 12 Torsion [CA]-CB--CG-[CD1] |==|  0.71834
USER: genes 13 Torsion [N]-CA--C-[O] |==|  0.12222
USER: genes 14 Torsion [N]-CA--CB-[OG] |==|  0.87604
USER: genes 15 Torsion [CA]-CB--OG-[HG] |==|  0.25029
ROOT
ATOM      1  CA  SER B1004      11.727  15.087  -0.344  1.00 32.51 LIG 0.20  C 
ENDROOT
BRANCH 1 2
ATOM      2  N   SER B1004      12.182  16.436  -0.050  1.00 30.80 LIG-0.34  N 
ATOM      3 H    SER B1004      11.582  16.968   0.261  1.00 30.80 LIG 0.16  HD
ATOM      4  C   PRO B1003      13.448  16.765  -0.268  1.00 29.50 LIG 0.24  C 
ATOM      5 O    PRO B1003      14.268  15.956  -0.707  1.00 26.59 LIG-0.27  OA
BRANCH 4 6
ATOM      6  CA  PRO B1003      13.869  18.203   0.050  1.00 29.25 LIG 0.18  C 
ATOM      7  CB  PRO B1003      13.266  18.667   1.377  1.00 27.80 LIG 0.04  C 
ATOM      8  CG  PRO B1003      12.735  20.044   1.083  1.00 32.17 LIG 0.02  C 
ATOM      9  CD  PRO B1003      12.190  19.909  -0.316  1.00 30.31 LIG 0.13  C 
ATOM     10  N   PRO B1003      13.193  19.037  -0.948  1.00 27.10 LIG-0.34  N 
ATOM     11  C   PRO B1002      13.593  19.011  -2.228  1.00 28.33 LIG 0.24  C 
ATOM     12 O    PRO B1002      14.538  18.327  -2.600  1.00 27.60 LIG-0.27  OA
BRANCH 11 13
ATOM     13  CA  PRO B1002      12.824  19.890  -3.207  1.00 29.68 LIG 0.18  C 
ATOM     14  N   PRO B1002      13.289  19.855  -4.596  1.00 30.07 LIG-0.34  N 
ATOM     15  CD  PRO B1002      12.183  19.480  -5.498  1.00 30.93 LIG 0.13  C 
ATOM     16  C   THR B1001      14.544  20.198  -5.011  1.00 31.77 LIG 0.26  C 
ATOM     17  CG  PRO B1002      10.977  19.860  -4.689  1.00 29.32 LIG 0.02  C 
ATOM     18  CB  PRO B1002      11.371  19.432  -3.317  1.00 30.61 LIG 0.04  C 
ATOM     19 O    THR B1001      15.393  20.553  -4.187  1.00 28.08 LIG-0.27  OA
BRANCH 16 20
ATOM     20  CA  THR B1001      14.834  20.103  -6.498  1.00 31.25 LIG 0.43  C 
ATOM     21  N   THR B1001      15.668  21.211  -6.928  1.00 31.78 LIG 0.62  N 
BRANCH 20 22
ATOM     22  CB  THR B1001      15.484  18.755  -6.812  1.00 33.83 LIG 0.16  C 
ATOM     23  CG2 THR B1001      14.421  17.698  -7.064  1.00 26.93 LIG 0.04  C 
BRANCH 22 24
ATOM     24 OG1  THR B1001      16.321  18.884  -7.968  1.00 35.47 LIG-0.39  OA
ATOM     25 HG1  THR B1001      16.597  18.125  -8.200  1.00 35.47 LIG 0.21  HD
ENDBRANCH 22 24
ENDBRANCH 20 22
ENDBRANCH 16 20
ENDBRANCH 11 13
ENDBRANCH 4 6
ENDBRANCH 1 2
BRANCH 1 26
ATOM     26  C   SER B1004      12.445  14.135   0.610  1.00 31.12 LIG 0.24  C 
ATOM     27 O    SER B1004      13.648  13.941   0.506  1.00 31.43 LIG-0.27  OA
ATOM     28  N   PRO B1005      11.722  13.549   1.571  1.00 32.50 LIG-0.34  N 
ATOM     29  CA  PRO B1005      10.290  13.682   1.849  1.00 31.67 LIG 0.18  C 
ATOM     30  CD  PRO B1005      12.293  12.427   2.344  1.00 32.99 LIG 0.13  C 
ATOM     31  CB  PRO B1005       9.906  12.273   2.254  1.00 32.97 LIG 0.04  C 
ATOM     32  CG  PRO B1005      11.075  11.880   3.107  1.00 32.33 LIG 0.02  C 
BRANCH 29 33
ATOM     33  C   PRO B1005      10.010  14.681   2.976  1.00 31.95 LIG 0.24  C 
ATOM     34  N   PHE B1006       8.780  15.181   3.046  1.00 29.16 LIG-0.34  N 
ATOM     35 H    PHE B1006       8.137  14.964   2.518  1.00 29.16 LIG 0.16  HD
ATOM     36 O    PRO B1005      10.902  14.987   3.769  1.00 29.71 LIG-0.27  OA
BRANCH 34 37
ATOM     37  CA  PHE B1006       8.430  16.166   4.060  1.00 29.49 LIG 0.19  C 
BRANCH 37 38
ATOM     38  CB  PHE B1006       8.208  17.531   3.407  1.00 24.64 LIG 0.07  C 
BRANCH 38 39
ATOM     39  CG  PHE B1006       9.132  18.599   3.915  1.00 23.14 LIG-0.06  A 
ATOM     40  CD2 PHE B1006      10.444  18.673   3.462  1.00 22.25 LIG 0.01  A 
ATOM     41  CE2 PHE B1006      11.310  19.674   3.937  1.00 23.88 LIG 0.00  A 
ATOM     42  CZ  PHE B1006      10.853  20.600   4.866  1.00 22.95 LIG 0.00  A 
ATOM     43  CE1 PHE B1006       9.535  20.527   5.323  1.00 21.15 LIG 0.00  A 
ATOM     44  CD1 PHE B1006       8.690  19.535   4.847  1.00 23.85 LIG 0.01  A 
ENDBRANCH 38 39
ENDBRANCH 37 38
BRANCH 37 45
ATOM     45  C   PHE B1006       7.217  15.785   4.897  1.00 30.13 LIG 0.20  C 
ATOM     46 O    PHE B1006       7.142  14.608   5.306  1.00 31.00 LIG-0.65  OA
ATOM     47 OXT  PHE B1006       6.361  16.661   5.139  1.00 32.43 LIG-0.65  OA
ENDBRANCH 37 45
ENDBRANCH 34 37
ENDBRANCH 29 33
ENDBRANCH 1 26
BRANCH 1 48
ATOM     48  CB  SER B1004      12.040  14.727  -1.796  1.00 35.03 LIG 0.20  C 
BRANCH 48 49
ATOM     49 OG   SER B1004      11.694  15.805  -2.644  1.00 42.75 LIG-0.40  OA
ATOM     50 HG   SER B1004      12.355  16.317  -2.730  1.00 42.75 LIG 0.21  HD
ENDBRANCH 48 49
ENDBRANCH 1 48
TORSDOF 14
ENDMDL
MODEL 14
USER: ADFR SOLUTION from run 96
USER: SCORE 12.837481 LL:  -3.756 LR: -10.333 RR:   0.000 FEB:  -6.157
USER: RMSD 6.131205
USER: SEED 95
USER: STATUS no improvement in best in 26 clusters for 5 generations
USER: GENES 16
USER: genes 0 Translation |==|  0.47571 0.16382 0.69074
USER: genes 1 Rotation |==|  0.90893 0.75468 0.50240 0.63381
USER: genes 2 Torsion [CB]-CA--N-[C] |==|  0.50031
USER: genes 3 Torsion [N]-C--CA-[N] |==|  0.54917
USER: genes 4 Torsion [N]-C--CA-[N] |==|  0.29509
USER: genes 5 Torsion [N]-C--CA-[N] |==|  0.18403
USER: genes 6 Torsion [C]-CA--CB-[CG2] |==|  0.45290
USER: genes 7 Torsion [CA]-CB--OG1-[HG1] |==|  0.63275
USER: genes 8 Torsion [N]-CA--C-[N] |==|  0.87415
USER: genes 9 Torsion [N]-CA--C-[N] |==|  0.86674
USER: genes 10 Torsion [C]-N--CA-[CB] |==|  0.81316
USER: genes 11 Torsion [N]-CA--CB-[CG] |==|  0.88400
USER: genes 12 Torsion [CA]-CB--CG-[CD1] |==|  0.89273
USER: genes 13 Torsion [N]-CA--C-[O] |==|  0.08522
USER: genes 14 Torsion [N]-CA--CB-[OG] |==|  0.65975
USER: genes 15 Torsion [CA]-CB--OG-[HG] |==|  0.98690
ROOT
ATOM      1  CA  SER B1004      11.531  12.731   2.562  1.00 32.51 LIG 0.20  C 
ENDROOT
BRANCH 1 2
ATOM      2  N   SER B1004      11.982  14.090   2.813  1.00 30.80 LIG-0.34  N 
ATOM      3 H    SER B1004      11.962  14.339   3.636  1.00 30.80 LIG 0.16  HD
ATOM      4  C   PRO B1003      12.385  14.846   1.801  1.00 29.50 LIG 0.24  C 
ATOM      5 O    PRO B1003      12.402  14.431   0.640  1.00 26.59 LIG-0.27  OA
BRANCH 4 6
ATOM      6  CA  PRO B1003      12.841  16.273   2.123  1.00 29.25 LIG 0.18  C 
ATOM      7  CB  PRO B1003      11.798  17.000   2.973  1.00 27.80 LIG 0.04  C 
ATOM      8  CG  PRO B1003      11.669  18.352   2.326  1.00 32.17 LIG 0.02  C 
ATOM      9  CD  PRO B1003      11.777  18.040   0.855  1.00 30.31 LIG 0.13  C 
ATOM     10  N   PRO B1003      12.808  16.990   0.845  1.00 27.10 LIG-0.34  N 
ATOM     11  C   PRO B1002      13.718  16.719  -0.103  1.00 28.33 LIG 0.24  C 
ATOM     12 O    PRO B1002      14.613  15.901   0.071  1.00 27.60 LIG-0.27  OA
BRANCH 11 13
ATOM     13  CA  PRO B1002      13.601  17.491  -1.410  1.00 29.68 LIG 0.18  C 
ATOM     14  N   PRO B1002      14.602  18.540  -1.624  1.00 30.07 LIG-0.34  N 
ATOM     15  CD  PRO B1002      15.319  18.314  -2.894  1.00 30.93 LIG 0.13  C 
ATOM     16  C   THR B1001      14.793  19.618  -0.808  1.00 31.77 LIG 0.26  C 
ATOM     17  CG  PRO B1002      14.340  17.474  -3.661  1.00 29.32 LIG 0.02  C 
ATOM     18  CB  PRO B1002      13.813  16.564  -2.606  1.00 30.61 LIG 0.04  C 
ATOM     19 O    THR B1001      14.106  19.753   0.210  1.00 28.08 LIG-0.27  OA
BRANCH 16 20
ATOM     20  CA  THR B1001      15.878  20.603  -1.202  1.00 31.25 LIG 0.43  C 
ATOM     21  N   THR B1001      15.531  21.280  -2.438  1.00 31.78 LIG 0.62  N 
BRANCH 20 22
ATOM     22  CB  THR B1001      16.111  21.598  -0.063  1.00 33.83 LIG 0.16  C 
ATOM     23  CG2 THR B1001      17.441  22.312  -0.246  1.00 26.93 LIG 0.04  C 
BRANCH 22 24
ATOM     24 OG1  THR B1001      15.046  22.557  -0.039  1.00 35.47 LIG-0.39  OA
ATOM     25 HG1  THR B1001      15.367  23.330   0.019  1.00 35.47 LIG 0.21  HD
ENDBRANCH 22 24
ENDBRANCH 20 22
ENDBRANCH 16 20
ENDBRANCH 11 13
ENDBRANCH 4 6
ENDBRANCH 1 2
BRANCH 1 26
ATOM     26  C   SER B1004      10.347  12.803   1.600  1.00 31.12 LIG 0.24  C 
ATOM     27 O    SER B1004      10.264  12.029   0.657  1.00 31.43 LIG-0.27  OA
ATOM     28  N   PRO B1005       9.400  13.717   1.841  1.00 32.50 LIG-0.34  N 
ATOM     29  CA  PRO B1005       9.332  14.701   2.924  1.00 31.67 LIG 0.18  C 
ATOM     30  CD  PRO B1005       8.384  14.016   0.811  1.00 32.99 LIG 0.13  C 
ATOM     31  CB  PRO B1005       8.747  15.912   2.225  1.00 32.97 LIG 0.04  C 
ATOM     32  CG  PRO B1005       7.700  15.279   1.359  1.00 32.33 LIG 0.02  C 
BRANCH 29 33
ATOM     33  C   PRO B1005       8.434  14.234   4.073  1.00 31.95 LIG 0.24  C 
ATOM     34  N   PHE B1006       7.238  13.754   3.746  1.00 29.16 LIG-0.34  N 
ATOM     35 H    PHE B1006       6.951  13.673   2.939  1.00 29.16 LIG 0.16  HD
ATOM     36 O    PRO B1005       8.829  14.305   5.238  1.00 29.71 LIG-0.27  OA
BRANCH 34 37
ATOM     37  CA  PHE B1006       6.300  13.321   4.772  1.00 29.49 LIG 0.19  C 
BRANCH 37 38
ATOM     38  CB  PHE B1006       6.838  12.075   5.477  1.00 24.64 LIG 0.07  C 
BRANCH 38 39
ATOM     39  CG  PHE B1006       7.458  11.076   4.545  1.00 23.14 LIG-0.06  A 
ATOM     40  CD2 PHE B1006       8.602  10.378   4.915  1.00 22.25 LIG 0.01  A 
ATOM     41  CE2 PHE B1006       9.184   9.441   4.043  1.00 23.88 LIG 0.00  A 
ATOM     42  CZ  PHE B1006       8.611   9.207   2.800  1.00 22.95 LIG 0.00  A 
ATOM     43  CE1 PHE B1006       7.462   9.906   2.425  1.00 21.15 LIG 0.00  A 
ATOM     44  CD1 PHE B1006       6.897  10.828   3.295  1.00 23.85 LIG 0.01  A 
ENDBRANCH 38 39
ENDBRANCH 37 38
BRANCH 37 45
ATOM     45  C   PHE B1006       5.966  14.396   5.797  1.00 30.13 LIG 0.20  C 
ATOM     46 O    PHE B1006       5.986  15.585   5.417  1.00 31.00 LIG-0.65  OA
ATOM     47 OXT  PHE B1006       5.685  14.043   6.961  1.00 32.43 LIG-0.65  OA
ENDBRANCH 37 45
ENDBRANCH 34 37
ENDBRANCH 29 33
ENDBRANCH 1 26
BRANCH 1 48
ATOM     48  CB  SER B1004      11.116  12.061   3.873  1.00 35.03 LIG 0.20  C 
BRANCH 48 49
ATOM     49 OG   SER B1004      11.869  10.880   4.068  1.00 42.75 LIG-0.40  OA
ATOM     50 HG   SER B1004      12.352  10.741   3.395  1.00 42.75 LIG 0.21  HD
ENDBRANCH 48 49
ENDBRANCH 1 48
TORSDOF 14
ENDMDL
MODEL 15
USER: ADFR SOLUTION from run 25
USER: SCORE 13.477328 LL:  -3.580 LR: -10.333 RR:   0.000 FEB:  -6.156
USER: RMSD 7.314359
USER: SEED 24
USER: STATUS no improvement in best in 38 clusters for 5 generations
USER: GENES 16
USER: genes 0 Translation |==|  0.43833 0.47984 0.67066
USER: genes 1 Rotation |==|  0.58660 0.07367 0.72007 0.61095
USER: genes 2 Torsion [CB]-CA--N-[C] |==|  0.84954
USER: genes 3 Torsion [N]-C--CA-[N] |==|  0.75474
USER: genes 4 Torsion [N]-C--CA-[N] |==|  0.52457
USER: genes 5 Torsion [N]-C--CA-[N] |==|  0.43921
USER: genes 6 Torsion [C]-CA--CB-[CG2] |==|  0.36445
USER: genes 7 Torsion [CA]-CB--OG1-[HG1] |==|  0.54191
USER: genes 8 Torsion [N]-CA--C-[N] |==|  0.31210
USER: genes 9 Torsion [N]-CA--C-[N] |==|  0.99392
USER: genes 10 Torsion [C]-N--CA-[CB] |==|  0.29893
USER: genes 11 Torsion [N]-CA--CB-[CG] |==|  0.88440
USER: genes 12 Torsion [CA]-CB--CG-[CD1] |==|  0.33096
USER: genes 13 Torsion [N]-CA--C-[O] |==|  0.51196
USER: genes 14 Torsion [N]-CA--CB-[OG] |==|  0.35956
USER: genes 15 Torsion [CA]-CB--OG-[HG] |==|  0.76260
ROOT
ATOM      1  CA  SER B1004      10.830  19.604   2.216  1.00 32.51 LIG 0.20  C 
ENDROOT
BRANCH 1 2
ATOM      2  N   SER B1004       9.886  20.050   3.228  1.00 30.80 LIG-0.34  N 
ATOM      3 H    SER B1004       9.057  19.910   3.046  1.00 30.80 LIG 0.16  HD
ATOM      4  C   PRO B1003      10.333  20.625   4.335  1.00 29.50 LIG 0.24  C 
ATOM      5 O    PRO B1003      11.536  20.790   4.548  1.00 26.59 LIG-0.27  OA
BRANCH 4 6
ATOM      6  CA  PRO B1003       9.293  21.084   5.363  1.00 29.25 LIG 0.18  C 
ATOM      7  CB  PRO B1003       7.987  20.304   5.202  1.00 27.80 LIG 0.04  C 
ATOM      8  CG  PRO B1003       6.915  21.357   5.266  1.00 32.17 LIG 0.02  C 
ATOM      9  CD  PRO B1003       7.531  22.517   4.525  1.00 30.31 LIG 0.13  C 
ATOM     10  N   PRO B1003       8.932  22.449   4.970  1.00 27.10 LIG-0.34  N 
ATOM     11  C   PRO B1002       9.806  23.451   5.139  1.00 28.33 LIG 0.24  C 
ATOM     12 O    PRO B1002      10.907  23.275   5.646  1.00 27.60 LIG-0.27  OA
BRANCH 11 13
ATOM     13  CA  PRO B1002       9.363  24.836   4.684  1.00 29.68 LIG 0.18  C 
ATOM     14  N   PRO B1002      10.399  25.872   4.690  1.00 30.07 LIG-0.34  N 
ATOM     15  CD  PRO B1002      10.519  26.485   3.353  1.00 30.93 LIG 0.13  C 
ATOM     16  C   THR B1001      11.099  26.273   5.792  1.00 31.77 LIG 0.26  C 
ATOM     17  CG  PRO B1002       9.175  26.195   2.753  1.00 29.32 LIG 0.02  C 
ATOM     18  CB  PRO B1002       8.913  24.806   3.224  1.00 30.61 LIG 0.04  C 
ATOM     19 O    THR B1001      10.892  25.737   6.885  1.00 28.08 LIG-0.27  OA
BRANCH 16 20
ATOM     20  CA  THR B1001      12.131  27.369   5.598  1.00 31.25 LIG 0.43  C 
ATOM     21  N   THR B1001      12.410  28.036   6.857  1.00 31.78 LIG 0.62  N 
BRANCH 20 22
ATOM     22  CB  THR B1001      13.400  26.781   4.980  1.00 33.83 LIG 0.16  C 
ATOM     23  CG2 THR B1001      13.850  27.619   3.793  1.00 26.93 LIG 0.04  C 
BRANCH 22 24
ATOM     24 OG1  THR B1001      14.439  26.740   5.965  1.00 35.47 LIG-0.39  OA
ATOM     25 HG1  THR B1001      15.179  26.617   5.587  1.00 35.47 LIG 0.21  HD
ENDBRANCH 22 24
ENDBRANCH 20 22
ENDBRANCH 16 20
ENDBRANCH 11 13
ENDBRANCH 4 6
ENDBRANCH 1 2
BRANCH 1 26
ATOM     26  C   SER B1004      11.642  18.457   2.810  1.00 31.12 LIG 0.24  C 
ATOM     27 O    SER B1004      12.408  18.654   3.743  1.00 31.43 LIG-0.27  OA
ATOM     28  N   PRO B1005      11.467  17.234   2.295  1.00 32.50 LIG-0.34  N 
ATOM     29  CA  PRO B1005      10.587  16.820   1.200  1.00 31.67 LIG 0.18  C 
ATOM     30  CD  PRO B1005      12.408  16.148   2.637  1.00 32.99 LIG 0.13  C 
ATOM     31  CB  PRO B1005      11.426  15.779   0.485  1.00 32.97 LIG 0.04  C 
ATOM     32  CG  PRO B1005      12.029  15.039   1.641  1.00 32.33 LIG 0.02  C 
BRANCH 29 33
ATOM     33  C   PRO B1005       9.273  16.221   1.711  1.00 31.95 LIG 0.24  C 
ATOM     34  N   PHE B1006       9.130  16.117   3.029  1.00 29.16 LIG-0.34  N 
ATOM     35 H    PHE B1006       9.714  16.382   3.602  1.00 29.16 LIG 0.16  HD
ATOM     36 O    PRO B1005       8.403  15.863   0.915  1.00 29.71 LIG-0.27  OA
BRANCH 34 37
ATOM     37  CA  PHE B1006       7.932  15.526   3.606  1.00 29.49 LIG 0.19  C 
BRANCH 37 38
ATOM     38  CB  PHE B1006       8.255  14.145   4.180  1.00 24.64 LIG 0.07  C 
BRANCH 38 39
ATOM     39  CG  PHE B1006       9.162  13.328   3.306  1.00 23.14 LIG-0.06  A 
ATOM     40  CD2 PHE B1006       8.777  12.981   2.017  1.00 22.25 LIG 0.01  A 
ATOM     41  CE2 PHE B1006       9.625  12.215   1.197  1.00 23.88 LIG 0.00  A 
ATOM     42  CZ  PHE B1006      10.861  11.802   1.678  1.00 22.95 LIG 0.00  A 
ATOM     43  CE1 PHE B1006      11.251  12.149   2.973  1.00 21.15 LIG 0.00  A 
ATOM     44  CD1 PHE B1006      10.404  12.905   3.772  1.00 23.85 LIG 0.01  A 
ENDBRANCH 38 39
ENDBRANCH 37 38
BRANCH 37 45
ATOM     45  C   PHE B1006       7.270  16.389   4.672  1.00 30.13 LIG 0.20  C 
ATOM     46 O    PHE B1006       6.284  15.914   5.272  1.00 31.00 LIG-0.65  OA
ATOM     47 OXT  PHE B1006       7.742  17.522   4.898  1.00 32.43 LIG-0.65  OA
ENDBRANCH 37 45
ENDBRANCH 34 37
ENDBRANCH 29 33
ENDBRANCH 1 26
BRANCH 1 48
ATOM     48  CB  SER B1004      11.748  20.756   1.805  1.00 35.03 LIG 0.20  C 
BRANCH 48 49
ATOM     49 OG   SER B1004      13.098  20.340   1.869  1.00 42.75 LIG-0.40  OA
ATOM     50 HG   SER B1004      13.385  20.439   2.653  1.00 42.75 LIG 0.21  HD
ENDBRANCH 48 49
ENDBRANCH 1 48
TORSDOF 14
ENDMDL
MODEL 16
USER: ADFR SOLUTION from run 132
USER: SCORE 13.378077 LL:  -4.035 LR: -10.297 RR:   0.000 FEB:  -6.121
USER: RMSD 6.354162
USER: SEED 131
USER: STATUS no improvement in best in 20 clusters for 5 generations
USER: GENES 16
USER: genes 0 Translation |==|  0.51541 0.26215 0.53746
USER: genes 1 Rotation |==|  0.40653 0.40123 0.68104 0.94580
USER: genes 2 Torsion [CB]-CA--N-[C] |==|  0.22946
USER: genes 3 Torsion [N]-C--CA-[N] |==|  0.36682
USER: genes 4 Torsion [N]-C--CA-[N] |==|  0.53719
USER: genes 5 Torsion [N]-C--CA-[N] |==|  0.36833
USER: genes 6 Torsion [C]-CA--CB-[CG2] |==|  0.12638
USER: genes 7 Torsion [CA]-CB--OG1-[HG1] |==|  0.56529
USER: genes 8 Torsion [N]-CA--C-[N] |==|  0.41915
USER: genes 9 Torsion [N]-CA--C-[N] |==|  0.49632
USER: genes 10 Torsion [C]-N--CA-[CB] |==|  0.26918
USER: genes 11 Torsion [N]-CA--CB-[CG] |==|  0.78728
USER: genes 12 Torsion [CA]-CB--CG-[CD1] |==|  0.22329
USER: genes 13 Torsion [N]-CA--C-[O] |==|  0.59481
USER: genes 14 Torsion [N]-CA--CB-[OG] |==|  0.77664
USER: genes 15 Torsion [CA]-CB--OG-[HG] |==|  0.04857
ROOT
ATOM      1  CA  SER B1004      12.275  14.870  -0.082  1.00 32.51 LIG 0.20  C 
ENDROOT
BRANCH 1 2
ATOM      2  N   SER B1004      13.438  15.685  -0.392  1.00 30.80 LIG-0.34  N 
ATOM      3 H    SER B1004      14.199  15.311  -0.246  1.00 30.80 LIG 0.16  HD
ATOM      4  C   PRO B1003      13.274  16.913  -0.862  1.00 29.50 LIG 0.24  C 
ATOM      5 O    PRO B1003      12.156  17.394  -1.061  1.00 26.59 LIG-0.27  OA
BRANCH 4 6
ATOM      6  CA  PRO B1003      14.535  17.730  -1.162  1.00 29.25 LIG 0.18  C 
ATOM      7  CB  PRO B1003      14.611  18.965  -0.262  1.00 27.80 LIG 0.04  C 
ATOM      8  CG  PRO B1003      14.984  20.083  -1.196  1.00 32.17 LIG 0.02  C 
ATOM      9  CD  PRO B1003      14.209  19.755  -2.448  1.00 30.31 LIG 0.13  C 
ATOM     10  N   PRO B1003      14.328  18.289  -2.501  1.00 27.10 LIG-0.34  N 
ATOM     11  C   PRO B1002      14.371  17.491  -3.577  1.00 28.33 LIG 0.24  C 
ATOM     12 O    PRO B1002      14.610  16.293  -3.489  1.00 27.60 LIG-0.27  OA
BRANCH 11 13
ATOM     13  CA  PRO B1002      14.124  18.145  -4.930  1.00 29.68 LIG 0.18  C 
ATOM     14  N   PRO B1002      13.872  17.230  -6.046  1.00 30.07 LIG-0.34  N 
ATOM     15  CD  PRO B1002      12.585  17.551  -6.693  1.00 30.93 LIG 0.13  C 
ATOM     16  C   THR B1001      14.738  16.268  -6.481  1.00 31.77 LIG 0.26  C 
ATOM     17  CG  PRO B1002      12.391  18.988  -6.308  1.00 29.32 LIG 0.02  C 
ATOM     18  CB  PRO B1002      12.858  19.001  -4.893  1.00 30.61 LIG 0.04  C 
ATOM     19 O    THR B1001      15.821  16.105  -5.909  1.00 28.08 LIG-0.27  OA
BRANCH 16 20
ATOM     20  CA  THR B1001      14.298  15.419  -7.660  1.00 31.25 LIG 0.43  C 
ATOM     21  N   THR B1001      15.360  15.327  -8.647  1.00 31.78 LIG 0.62  N 
BRANCH 20 22
ATOM     22  CB  THR B1001      13.866  14.037  -7.169  1.00 33.83 LIG 0.16  C 
ATOM     23  CG2 THR B1001      12.970  14.163  -5.947  1.00 26.93 LIG 0.04  C 
BRANCH 22 24
ATOM     24 OG1  THR B1001      13.164  13.354  -8.215  1.00 35.47 LIG-0.39  OA
ATOM     25 HG1  THR B1001      12.663  12.769  -7.881  1.00 35.47 LIG 0.21  HD
ENDBRANCH 22 24
ENDBRANCH 20 22
ENDBRANCH 16 20
ENDBRANCH 11 13
ENDBRANCH 4 6
ENDBRANCH 1 2
BRANCH 1 26
ATOM     26  C   SER B1004      12.702  13.818   0.938  1.00 31.12 LIG 0.24  C 
ATOM     27 O    SER B1004      13.860  13.426   0.981  1.00 31.43 LIG-0.27  OA
ATOM     28  N   PRO B1005      11.779  13.365   1.794  1.00 32.50 LIG-0.34  N 
ATOM     29  CA  PRO B1005      10.365  13.735   1.895  1.00 31.67 LIG 0.18  C 
ATOM     30  CD  PRO B1005      12.056  12.168   2.614  1.00 32.99 LIG 0.13  C 
ATOM     31  CB  PRO B1005       9.706  12.411   2.229  1.00 32.97 LIG 0.04  C 
ATOM     32  CG  PRO B1005      10.679  11.835   3.213  1.00 32.33 LIG 0.02  C 
BRANCH 29 33
ATOM     33  C   PRO B1005      10.117  14.773   2.994  1.00 31.95 LIG 0.24  C 
ATOM     34  N   PHE B1006       8.866  15.198   3.150  1.00 29.16 LIG-0.34  N 
ATOM     35 H    PHE B1006       8.196  14.913   2.692  1.00 29.16 LIG 0.16  HD
ATOM     36 O    PRO B1005      11.050  15.175   3.690  1.00 29.71 LIG-0.27  OA
BRANCH 34 37
ATOM     37  CA  PHE B1006       8.540  16.211   4.144  1.00 29.49 LIG 0.19  C 
BRANCH 37 38
ATOM     38  CB  PHE B1006       8.483  17.589   3.484  1.00 24.64 LIG 0.07  C 
BRANCH 38 39
ATOM     39  CG  PHE B1006       9.835  18.174   3.194  1.00 23.14 LIG-0.06  A 
ATOM     40  CD2 PHE B1006      10.394  19.120   4.045  1.00 22.25 LIG 0.01  A 
ATOM     41  CE2 PHE B1006      11.660  19.668   3.774  1.00 23.88 LIG 0.00  A 
ATOM     42  CZ  PHE B1006      12.362  19.261   2.647  1.00 22.95 LIG 0.00  A 
ATOM     43  CE1 PHE B1006      11.803  18.311   1.790  1.00 21.15 LIG 0.00  A 
ATOM     44  CD1 PHE B1006      10.552  17.777   2.068  1.00 23.85 LIG 0.01  A 
ENDBRANCH 38 39
ENDBRANCH 37 38
BRANCH 37 45
ATOM     45  C   PHE B1006       7.244  15.941   4.897  1.00 30.13 LIG 0.20  C 
ATOM     46 O    PHE B1006       6.557  16.926   5.237  1.00 31.00 LIG-0.65  OA
ATOM     47 OXT  PHE B1006       6.928  14.757   5.134  1.00 32.43 LIG-0.65  OA
ENDBRANCH 37 45
ENDBRANCH 34 37
ENDBRANCH 29 33
ENDBRANCH 1 26
BRANCH 1 48
ATOM     48  CB  SER B1004      11.744  14.202  -1.350  1.00 35.03 LIG 0.20  C 
BRANCH 48 49
ATOM     49 OG   SER B1004      10.957  15.120  -2.084  1.00 42.75 LIG-0.40  OA
ATOM     50 HG   SER B1004      11.122  15.901  -1.823  1.00 42.75 LIG 0.21  HD
ENDBRANCH 48 49
ENDBRANCH 1 48
TORSDOF 14
ENDMDL
MODEL 17
USER: ADFR SOLUTION from run 57
USER: SCORE 13.019281 LL:  -4.034 LR: -10.264 RR:   0.000 FEB:  -6.088
USER: RMSD 4.157319
USER: SEED 56
USER: STATUS no improvement in best in 19 clusters for 5 generations
USER: GENES 16
USER: genes 0 Translation |==|  0.44385 0.48599 0.64387
USER: genes 1 Rotation |==|  0.36840 0.69901 0.52560 0.93866
USER: genes 2 Torsion [CB]-CA--N-[C] |==|  0.49429
USER: genes 3 Torsion [N]-C--CA-[N] |==|  0.42342
USER: genes 4 Torsion [N]-C--CA-[N] |==|  0.33720
USER: genes 5 Torsion [N]-C--CA-[N] |==|  0.16141
USER: genes 6 Torsion [C]-CA--CB-[CG2] |==|  0.50738
USER: genes 7 Torsion [CA]-CB--OG1-[HG1] |==|  0.18999
USER: genes 8 Torsion [N]-CA--C-[N] |==|  0.86826
USER: genes 9 Torsion [N]-CA--C-[N] |==|  0.89213
USER: genes 10 Torsion [C]-N--CA-[CB] |==|  0.23400
USER: genes 11 Torsion [N]-CA--CB-[CG] |==|  0.06849
USER: genes 12 Torsion [CA]-CB--CG-[CD1] |==|  0.20748
USER: genes 13 Torsion [N]-CA--C-[O] |==|  0.77327
USER: genes 14 Torsion [N]-CA--CB-[OG] |==|  0.99712
USER: genes 15 Torsion [CA]-CB--OG-[HG] |==|  0.18646
ROOT
ATOM      1  CA  SER B1004      10.933  19.738   1.754  1.00 32.51 LIG 0.20  C 
ENDROOT
BRANCH 1 2
ATOM      2  N   SER B1004      11.344  19.268   0.441  1.00 30.80 LIG-0.34  N 
ATOM      3 H    SER B1004      10.702  19.057  -0.092  1.00 30.80 LIG 0.16  HD
ATOM      4  C   PRO B1003      12.633  19.190   0.144  1.00 29.50 LIG 0.24  C 
ATOM      5 O    PRO B1003      13.510  19.517   0.946  1.00 26.59 LIG-0.27  OA
BRANCH 4 6
ATOM      6  CA  PRO B1003      13.007  18.678  -1.251  1.00 29.25 LIG 0.18  C 
ATOM      7  CB  PRO B1003      13.320  17.181  -1.216  1.00 27.80 LIG 0.04  C 
ATOM      8  CG  PRO B1003      14.585  17.047  -2.020  1.00 32.17 LIG 0.02  C 
ATOM      9  CD  PRO B1003      15.364  18.281  -1.641  1.00 30.31 LIG 0.13  C 
ATOM     10  N   PRO B1003      14.301  19.295  -1.559  1.00 27.10 LIG-0.34  N 
ATOM     11  C   PRO B1002      14.374  20.608  -1.823  1.00 28.33 LIG 0.24  C 
ATOM     12 O    PRO B1002      13.379  21.322  -1.848  1.00 27.60 LIG-0.27  OA
BRANCH 11 13
ATOM     13  CA  PRO B1002      15.757  21.177  -2.111  1.00 29.68 LIG 0.18  C 
ATOM     14  N   PRO B1002      15.922  21.826  -3.413  1.00 30.07 LIG-0.34  N 
ATOM     15  CD  PRO B1002      16.404  23.210  -3.239  1.00 30.93 LIG 0.13  C 
ATOM     16  C   THR B1001      15.736  21.218  -4.622  1.00 31.77 LIG 0.26  C 
ATOM     17  CG  PRO B1002      17.048  23.150  -1.886  1.00 29.32 LIG 0.02  C 
ATOM     18  CB  PRO B1002      16.099  22.292  -1.123  1.00 30.61 LIG 0.04  C 
ATOM     19 O    THR B1001      15.382  20.035  -4.671  1.00 28.08 LIG-0.27  OA
BRANCH 16 20
ATOM     20  CA  THR B1001      15.962  22.058  -5.865  1.00 31.25 LIG 0.43  C 
ATOM     21  N   THR B1001      17.313  22.590  -5.884  1.00 31.78 LIG 0.62  N 
BRANCH 20 22
ATOM     22  CB  THR B1001      15.669  21.224  -7.113  1.00 33.83 LIG 0.16  C 
ATOM     23  CG2 THR B1001      15.954  22.031  -8.370  1.00 26.93 LIG 0.04  C 
BRANCH 22 24
ATOM     24 OG1  THR B1001      16.481  20.043  -7.102  1.00 35.47 LIG-0.39  OA
ATOM     25 HG1  THR B1001      16.230  19.536  -6.482  1.00 35.47 LIG 0.21  HD
ENDBRANCH 22 24
ENDBRANCH 20 22
ENDBRANCH 16 20
ENDBRANCH 11 13
ENDBRANCH 4 6
ENDBRANCH 1 2
BRANCH 1 26
ATOM     26  C   SER B1004      11.500  18.773   2.792  1.00 31.12 LIG 0.24  C 
ATOM     27 O    SER B1004      12.057  19.196   3.796  1.00 31.43 LIG-0.27  OA
ATOM     28  N   PRO B1005      11.341  17.462   2.581  1.00 32.50 LIG-0.34  N 
ATOM     29  CA  PRO B1005      10.689  16.790   1.454  1.00 31.67 LIG 0.18  C 
ATOM     30  CD  PRO B1005      12.091  16.486   3.397  1.00 32.99 LIG 0.13  C 
ATOM     31  CB  PRO B1005      11.575  15.578   1.244  1.00 32.97 LIG 0.04  C 
ATOM     32  CG  PRO B1005      11.849  15.160   2.657  1.00 32.33 LIG 0.02  C 
BRANCH 29 33
ATOM     33  C   PRO B1005       9.251  16.377   1.781  1.00 31.95 LIG 0.24  C 
ATOM     34  N   PHE B1006       9.020  15.916   3.007  1.00 29.16 LIG-0.34  N 
ATOM     35 H    PHE B1006       9.617  15.856   3.623  1.00 29.16 LIG 0.16  HD
ATOM     36 O    PRO B1005       8.366  16.483   0.931  1.00 29.71 LIG-0.27  OA
BRANCH 34 37
ATOM     37  CA  PHE B1006       7.693  15.465   3.399  1.00 29.49 LIG 0.19  C 
BRANCH 37 38
ATOM     38  CB  PHE B1006       7.488  14.011   2.969  1.00 24.64 LIG 0.07  C 
BRANCH 38 39
ATOM     39  CG  PHE B1006       8.767  13.242   2.819  1.00 23.14 LIG-0.06  A 
ATOM     40  CD2 PHE B1006       9.268  12.942   1.558  1.00 22.25 LIG 0.01  A 
ATOM     41  CE2 PHE B1006      10.467  12.222   1.415  1.00 23.88 LIG 0.00  A 
ATOM     42  CZ  PHE B1006      11.161  11.805   2.544  1.00 22.95 LIG 0.00  A 
ATOM     43  CE1 PHE B1006      10.660  12.104   3.813  1.00 21.15 LIG 0.00  A 
ATOM     44  CD1 PHE B1006       9.475  12.816   3.940  1.00 23.85 LIG 0.01  A 
ENDBRANCH 38 39
ENDBRANCH 37 38
BRANCH 37 45
ATOM     45  C   PHE B1006       7.404  15.613   4.886  1.00 30.13 LIG 0.20  C 
ATOM     46 O    PHE B1006       7.836  14.726   5.651  1.00 31.00 LIG-0.65  OA
ATOM     47 OXT  PHE B1006       6.760  16.610   5.271  1.00 32.43 LIG-0.65  OA
ENDBRANCH 37 45
ENDBRANCH 34 37
ENDBRANCH 29 33
ENDBRANCH 1 26
BRANCH 1 48
ATOM     48  CB  SER B1004       9.408  19.789   1.845  1.00 35.03 LIG 0.20  C 
BRANCH 48 49
ATOM     49 OG   SER B1004       8.839  19.386   0.614  1.00 42.75 LIG-0.40  OA
ATOM     50 HG   SER B1004       8.999  18.571   0.486  1.00 42.75 LIG 0.21  HD
ENDBRANCH 48 49
ENDBRANCH 1 48
TORSDOF 14
ENDMDL
MODEL 18
USER: ADFR SOLUTION from run 141
USER: SCORE 13.645409 LL:  -3.819 LR: -10.249 RR:   0.000 FEB:  -6.073
USER: RMSD 8.990842
USER: SEED 140
USER: STATUS no improvement in best in 7 clusters for 5 generations
USER: GENES 16
USER: genes 0 Translation |==|  0.43324 0.14558 0.75105
USER: genes 1 Rotation |==|  0.75614 0.85545 0.73263 0.56270
USER: genes 2 Torsion [CB]-CA--N-[C] |==|  0.87140
USER: genes 3 Torsion [N]-C--CA-[N] |==|  0.20612
USER: genes 4 Torsion [N]-C--CA-[N] |==|  0.36987
USER: genes 5 Torsion [N]-C--CA-[N] |==|  0.39348
USER: genes 6 Torsion [C]-CA--CB-[CG2] |==|  0.15793
USER: genes 7 Torsion [CA]-CB--OG1-[HG1] |==|  0.28540
USER: genes 8 Torsion [N]-CA--C-[N] |==|  0.32222
USER: genes 9 Torsion [N]-CA--C-[N] |==|  0.48828
USER: genes 10 Torsion [C]-N--CA-[CB] |==|  0.81667
USER: genes 11 Torsion [N]-CA--CB-[CG] |==|  0.80586
USER: genes 12 Torsion [CA]-CB--CG-[CD1] |==|  0.71027
USER: genes 13 Torsion [N]-CA--C-[O] |==|  0.48521
USER: genes 14 Torsion [N]-CA--CB-[OG] |==|  0.61565
USER: genes 15 Torsion [CA]-CB--OG-[HG] |==|  0.69749
ROOT
ATOM      1  CA  SER B1004      10.734  12.334   3.603  1.00 32.51 LIG 0.20  C 
ENDROOT
BRANCH 1 2
ATOM      2  N   SER B1004       9.737  13.063   4.370  1.00 30.80 LIG-0.34  N 
ATOM      3 H    SER B1004       9.964  13.857   4.609  1.00 30.80 LIG 0.16  HD
ATOM      4  C   PRO B1003       8.576  12.488   4.652  1.00 29.50 LIG 0.24  C 
ATOM      5 O    PRO B1003       8.301  11.348   4.273  1.00 26.59 LIG-0.27  OA
BRANCH 4 6
ATOM      6  CA  PRO B1003       7.567  13.299   5.472  1.00 29.25 LIG 0.18  C 
ATOM      7  CB  PRO B1003       6.347  12.449   5.830  1.00 27.80 LIG 0.04  C 
ATOM      8  CG  PRO B1003       5.173  13.341   5.531  1.00 32.17 LIG 0.02  C 
ATOM      9  CD  PRO B1003       5.603  14.067   4.282  1.00 30.31 LIG 0.13  C 
ATOM     10  N   PRO B1003       7.031  14.303   4.548  1.00 27.10 LIG-0.34  N 
ATOM     11  C   PRO B1002       7.800  15.326   4.145  1.00 28.33 LIG 0.24  C 
ATOM     12 O    PRO B1002       8.946  15.475   4.549  1.00 27.60 LIG-0.27  OA
BRANCH 11 13
ATOM     13  CA  PRO B1002       7.176  16.313   3.168  1.00 29.68 LIG 0.18  C 
ATOM     14  N   PRO B1002       7.364  17.731   3.485  1.00 30.07 LIG-0.34  N 
ATOM     15  CD  PRO B1002       7.999  18.431   2.352  1.00 30.93 LIG 0.13  C 
ATOM     16  C   THR B1001       6.940  18.340   4.632  1.00 31.77 LIG 0.26  C 
ATOM     17  CG  PRO B1002       7.648  17.539   1.197  1.00 29.32 LIG 0.02  C 
ATOM     18  CB  PRO B1002       7.815  16.181   1.786  1.00 30.61 LIG 0.04  C 
ATOM     19 O    THR B1001       6.367  17.682   5.506  1.00 28.08 LIG-0.27  OA
BRANCH 16 20
ATOM     20  CA  THR B1001       7.223  19.824   4.776  1.00 31.25 LIG 0.43  C 
ATOM     21  N   THR B1001       6.105  20.497   5.412  1.00 31.78 LIG 0.62  N 
BRANCH 20 22
ATOM     22  CB  THR B1001       8.521  20.029   5.557  1.00 33.83 LIG 0.16  C 
ATOM     23  CG2 THR B1001       9.673  19.310   4.872  1.00 26.93 LIG 0.04  C 
BRANCH 22 24
ATOM     24 OG1  THR B1001       8.811  21.430   5.647  1.00 35.47 LIG-0.39  OA
ATOM     25 HG1  THR B1001       8.610  21.708   6.413  1.00 35.47 LIG 0.21  HD
ENDBRANCH 22 24
ENDBRANCH 20 22
ENDBRANCH 16 20
ENDBRANCH 11 13
ENDBRANCH 4 6
ENDBRANCH 1 2
BRANCH 1 26
ATOM     26  C   SER B1004      10.272  12.305   2.148  1.00 31.12 LIG 0.24  C 
ATOM     27 O    SER B1004       9.230  11.746   1.837  1.00 31.43 LIG-0.27  OA
ATOM     28  N   PRO B1005      11.028  12.931   1.239  1.00 32.50 LIG-0.34  N 
ATOM     29  CA  PRO B1005      12.284  13.658   1.437  1.00 31.67 LIG 0.18  C 
ATOM     30  CD  PRO B1005      10.784  12.712  -0.202  1.00 32.99 LIG 0.13  C 
ATOM     31  CB  PRO B1005      13.072  13.289   0.196  1.00 32.97 LIG 0.04  C 
ATOM     32  CG  PRO B1005      12.012  13.360  -0.861  1.00 32.33 LIG 0.02  C 
BRANCH 29 33
ATOM     33  C   PRO B1005      12.066  15.172   1.528  1.00 31.95 LIG 0.24  C 
ATOM     34  N   PHE B1006      13.133  15.919   1.795  1.00 29.16 LIG-0.34  N 
ATOM     35 H    PHE B1006      13.930  15.610   1.896  1.00 29.16 LIG 0.16  HD
ATOM     36 O    PRO B1005      10.944  15.649   1.354  1.00 29.71 LIG-0.27  OA
BRANCH 34 37
ATOM     37  CA  PHE B1006      13.017  17.364   1.938  1.00 29.49 LIG 0.19  C 
BRANCH 37 38
ATOM     38  CB  PHE B1006      12.621  17.990   0.601  1.00 24.64 LIG 0.07  C 
BRANCH 38 39
ATOM     39  CG  PHE B1006      13.707  17.939  -0.434  1.00 23.14 LIG-0.06  A 
ATOM     40  CD2 PHE B1006      14.000  16.752  -1.094  1.00 22.25 LIG 0.01  A 
ATOM     41  CE2 PHE B1006      15.017  16.703  -2.064  1.00 23.88 LIG 0.00  A 
ATOM     42  CZ  PHE B1006      15.737  17.851  -2.368  1.00 22.95 LIG 0.00  A 
ATOM     43  CE1 PHE B1006      15.445  19.046  -1.707  1.00 21.15 LIG 0.00  A 
ATOM     44  CD1 PHE B1006      14.439  19.081  -0.751  1.00 23.85 LIG 0.01  A 
ENDBRANCH 38 39
ENDBRANCH 37 38
BRANCH 37 45
ATOM     45  C   PHE B1006      12.045  17.800   3.026  1.00 30.13 LIG 0.20  C 
ATOM     46 O    PHE B1006      11.968  19.020   3.277  1.00 31.00 LIG-0.65  OA
ATOM     47 OXT  PHE B1006      11.371  16.926   3.608  1.00 32.43 LIG-0.65  OA
ENDBRANCH 37 45
ENDBRANCH 34 37
ENDBRANCH 29 33
ENDBRANCH 1 26
BRANCH 1 48
ATOM     48  CB  SER B1004      10.886  10.913   4.146  1.00 35.03 LIG 0.20  C 
BRANCH 48 49
ATOM     49 OG   SER B1004      12.254  10.555   4.181  1.00 42.75 LIG-0.40  OA
ATOM     50 HG   SER B1004      12.409   9.983   3.586  1.00 42.75 LIG 0.21  HD
ENDBRANCH 48 49
ENDBRANCH 1 48
TORSDOF 14
ENDMDL
MODEL 19
USER: ADFR SOLUTION from run 176
USER: SCORE 13.543283 LL:  -3.824 LR: -10.249 RR:   0.000 FEB:  -6.073
USER: RMSD 5.873503
USER: SEED 175
USER: STATUS no improvement in best in 13 clusters for 5 generations
USER: GENES 16
USER: genes 0 Translation |==|  0.45821 0.21107 0.60238
USER: genes 1 Rotation |==|  0.44124 0.26916 0.76796 0.84851
USER: genes 2 Torsion [CB]-CA--N-[C] |==|  0.54018
USER: genes 3 Torsion [N]-C--CA-[N] |==|  0.02443
USER: genes 4 Torsion [N]-C--CA-[N] |==|  0.26946
USER: genes 5 Torsion [N]-C--CA-[N] |==|  0.18171
USER: genes 6 Torsion [C]-CA--CB-[CG2] |==|  0.76538
USER: genes 7 Torsion [CA]-CB--OG1-[HG1] |==|  0.62573
USER: genes 8 Torsion [N]-CA--C-[N] |==|  0.32610
USER: genes 9 Torsion [N]-CA--C-[N] |==|  0.30324
USER: genes 10 Torsion [C]-N--CA-[CB] |==|  0.40835
USER: genes 11 Torsion [N]-CA--CB-[CG] |==|  0.10891
USER: genes 12 Torsion [CA]-CB--CG-[CD1] |==|  0.26115
USER: genes 13 Torsion [N]-CA--C-[O] |==|  0.50771
USER: genes 14 Torsion [N]-CA--CB-[OG] |==|  0.95226
USER: genes 15 Torsion [CA]-CB--OG-[HG] |==|  0.70204
ROOT
ATOM      1  CA  SER B1004      11.202  13.759   1.038  1.00 32.51 LIG 0.20  C 
ENDROOT
BRANCH 1 2
ATOM      2  N   SER B1004      11.704  15.094   1.317  1.00 30.80 LIG-0.34  N 
ATOM      3 H    SER B1004      11.995  15.529   0.634  1.00 30.80 LIG 0.16  HD
ATOM      4  C   PRO B1003      11.690  15.555   2.560  1.00 29.50 LIG 0.24  C 
ATOM      5 O    PRO B1003      11.251  14.890   3.500  1.00 26.59 LIG-0.27  OA
BRANCH 4 6
ATOM      6  CA  PRO B1003      12.241  16.966   2.796  1.00 29.25 LIG 0.18  C 
ATOM      7  CB  PRO B1003      11.168  17.875   3.399  1.00 27.80 LIG 0.04  C 
ATOM      8  CG  PRO B1003      11.272  19.148   2.603  1.00 32.17 LIG 0.02  C 
ATOM      9  CD  PRO B1003      11.553  18.656   1.206  1.00 30.31 LIG 0.13  C 
ATOM     10  N   PRO B1003      12.462  17.527   1.461  1.00 27.10 LIG-0.34  N 
ATOM     11  C   PRO B1002      13.463  17.069   0.695  1.00 28.33 LIG 0.24  C 
ATOM     12 O    PRO B1002      14.235  16.203   1.086  1.00 27.60 LIG-0.27  OA
BRANCH 11 13
ATOM     13  CA  PRO B1002      13.611  17.689  -0.688  1.00 29.68 LIG 0.18  C 
ATOM     14  N   PRO B1002      14.597  18.767  -0.802  1.00 30.07 LIG-0.34  N 
ATOM     15  CD  PRO B1002      15.584  18.450  -1.852  1.00 30.93 LIG 0.13  C 
ATOM     16  C   THR B1001      14.564  19.936  -0.097  1.00 31.77 LIG 0.26  C 
ATOM     17  CG  PRO B1002      14.830  17.475  -2.708  1.00 29.32 LIG 0.02  C 
ATOM     18  CB  PRO B1002      14.115  16.653  -1.692  1.00 30.61 LIG 0.04  C 
ATOM     19 O    THR B1001      13.665  20.137   0.726  1.00 28.08 LIG-0.27  OA
BRANCH 16 20
ATOM     20  CA  THR B1001      15.675  20.936  -0.359  1.00 31.25 LIG 0.43  C 
ATOM     21  N   THR B1001      15.598  21.440  -1.719  1.00 31.78 LIG 0.62  N 
BRANCH 20 22
ATOM     22  CB  THR B1001      15.602  22.070   0.665  1.00 33.83 LIG 0.16  C 
ATOM     23  CG2 THR B1001      14.609  23.129   0.214  1.00 26.93 LIG 0.04  C 
BRANCH 22 24
ATOM     24 OG1  THR B1001      15.203  21.543   1.936  1.00 35.47 LIG-0.39  OA
ATOM     25 HG1  THR B1001      14.612  22.037   2.271  1.00 35.47 LIG 0.21  HD
ENDBRANCH 22 24
ENDBRANCH 20 22
ENDBRANCH 16 20
ENDBRANCH 11 13
ENDBRANCH 4 6
ENDBRANCH 1 2
BRANCH 1 26
ATOM     26  C   SER B1004      11.763  12.819   2.102  1.00 31.12 LIG 0.24  C 
ATOM     27 O    SER B1004      12.970  12.659   2.218  1.00 31.43 LIG-0.27  OA
ATOM     28  N   PRO B1005      10.895  12.203   2.913  1.00 32.50 LIG-0.34  N 
ATOM     29  CA  PRO B1005       9.433  12.293   2.926  1.00 31.67 LIG 0.18  C 
ATOM     30  CD  PRO B1005      11.349  11.090   3.772  1.00 32.99 LIG 0.13  C 
ATOM     31  CB  PRO B1005       9.024  10.869   3.249  1.00 32.97 LIG 0.04  C 
ATOM     32  CG  PRO B1005      10.029  10.502   4.298  1.00 32.33 LIG 0.02  C 
BRANCH 29 33
ATOM     33  C   PRO B1005       8.924  13.273   3.988  1.00 31.95 LIG 0.24  C 
ATOM     34  N   PHE B1006       8.402  14.416   3.552  1.00 29.16 LIG-0.34  N 
ATOM     35 H    PHE B1006       8.315  14.624   2.722  1.00 29.16 LIG 0.16  HD
ATOM     36 O    PRO B1005       9.003  12.988   5.184  1.00 29.71 LIG-0.27  OA
BRANCH 34 37
ATOM     37  CA  PHE B1006       7.926  15.425   4.487  1.00 29.49 LIG 0.19  C 
BRANCH 37 38
ATOM     38  CB  PHE B1006       8.150  16.821   3.907  1.00 24.64 LIG 0.07  C 
BRANCH 38 39
ATOM     39  CG  PHE B1006       7.879  16.912   2.433  1.00 23.14 LIG-0.06  A 
ATOM     40  CD2 PHE B1006       8.870  16.594   1.511  1.00 22.25 LIG 0.01  A 
ATOM     41  CE2 PHE B1006       8.617  16.678   0.131  1.00 23.88 LIG 0.00  A 
ATOM     42  CZ  PHE B1006       7.366  17.079  -0.319  1.00 22.95 LIG 0.00  A 
ATOM     43  CE1 PHE B1006       6.369  17.399   0.604  1.00 21.15 LIG 0.00  A 
ATOM     44  CD1 PHE B1006       6.631  17.313   1.965  1.00 23.85 LIG 0.01  A 
ENDBRANCH 38 39
ENDBRANCH 37 38
BRANCH 37 45
ATOM     45  C   PHE B1006       6.467  15.256   4.888  1.00 30.13 LIG 0.20  C 
ATOM     46 O    PHE B1006       5.972  16.115   5.647  1.00 31.00 LIG-0.65  OA
ATOM     47 OXT  PHE B1006       5.835  14.278   4.439  1.00 32.43 LIG-0.65  OA
ENDBRANCH 37 45
ENDBRANCH 34 37
ENDBRANCH 29 33
ENDBRANCH 1 26
BRANCH 1 48
ATOM     48  CB  SER B1004      11.639  13.310  -0.357  1.00 35.03 LIG 0.20  C 
BRANCH 48 49
ATOM     49 OG   SER B1004      12.050  14.431  -1.116  1.00 42.75 LIG-0.40  OA
ATOM     50 HG   SER B1004      11.470  14.603  -1.699  1.00 42.75 LIG 0.21  HD
ENDBRANCH 48 49
ENDBRANCH 1 48
TORSDOF 14
ENDMDL
MODEL 20
USER: ADFR SOLUTION from run 190
USER: SCORE 12.966571 LL:  -3.374 LR: -10.252 RR:   0.000 FEB:  -6.076
USER: RMSD 4.995226
USER: SEED 189
USER: STATUS no improvement in best in 33 clusters for 5 generations
USER: GENES 16
USER: genes 0 Translation |==|  0.51693 0.38347 0.70123
USER: genes 1 Rotation |==|  0.55718 0.73355 0.36575 0.91732
USER: genes 2 Torsion [CB]-CA--N-[C] |==|  0.21771
USER: genes 3 Torsion [N]-C--CA-[N] |==|  0.54425
USER: genes 4 Torsion [N]-C--CA-[N] |==|  0.29632
USER: genes 5 Torsion [N]-C--CA-[N] |==|  0.14216
USER: genes 6 Torsion [C]-CA--CB-[CG2] |==|  0.51885
USER: genes 7 Torsion [CA]-CB--OG1-[HG1] |==|  0.22050
USER: genes 8 Torsion [N]-CA--C-[N] |==|  0.83643
USER: genes 9 Torsion [N]-CA--C-[N] |==|  0.03142
USER: genes 10 Torsion [C]-N--CA-[CB] |==|  0.85823
USER: genes 11 Torsion [N]-CA--CB-[CG] |==|  0.80890
USER: genes 12 Torsion [CA]-CB--CG-[CD1] |==|  0.90159
USER: genes 13 Torsion [N]-CA--C-[O] |==|  0.12553
USER: genes 14 Torsion [N]-CA--CB-[OG] |==|  0.69857
USER: genes 15 Torsion [CA]-CB--OG-[HG] |==|  0.12979
ROOT
ATOM      1  CA  SER B1004      12.303  17.508   2.743  1.00 32.51 LIG 0.20  C 
ENDROOT
BRANCH 1 2
ATOM      2  N   SER B1004      12.373  17.390   1.296  1.00 30.80 LIG-0.34  N 
ATOM      3 H    SER B1004      11.878  16.776   0.953  1.00 30.80 LIG 0.16  HD
ATOM      4  C   PRO B1003      13.162  18.201   0.607  1.00 29.50 LIG 0.24  C 
ATOM      5 O    PRO B1003      13.842  19.073   1.153  1.00 26.59 LIG-0.27  OA
BRANCH 4 6
ATOM      6  CA  PRO B1003      13.203  18.025  -0.915  1.00 29.25 LIG 0.18  C 
ATOM      7  CB  PRO B1003      13.498  16.571  -1.287  1.00 27.80 LIG 0.04  C 
ATOM      8  CG  PRO B1003      14.544  16.668  -2.364  1.00 32.17 LIG 0.02  C 
ATOM      9  CD  PRO B1003      15.403  17.818  -1.903  1.00 30.31 LIG 0.13  C 
ATOM     10  N   PRO B1003      14.399  18.746  -1.359  1.00 27.10 LIG-0.34  N 
ATOM     11  C   PRO B1002      14.425  20.087  -1.332  1.00 28.33 LIG 0.24  C 
ATOM     12 O    PRO B1002      13.459  20.748  -0.972  1.00 27.60 LIG-0.27  OA
BRANCH 11 13
ATOM     13  CA  PRO B1002      15.713  20.760  -1.789  1.00 29.68 LIG 0.18  C 
ATOM     14  N   PRO B1002      15.661  21.413  -3.099  1.00 30.07 LIG-0.34  N 
ATOM     15  CD  PRO B1002      16.051  22.831  -2.981  1.00 30.93 LIG 0.13  C 
ATOM     16  C   THR B1001      15.373  20.786  -4.277  1.00 31.77 LIG 0.26  C 
ATOM     17  CG  PRO B1002      16.864  22.829  -1.719  1.00 29.32 LIG 0.02  C 
ATOM     18  CB  PRO B1002      16.088  21.903  -0.847  1.00 30.61 LIG 0.04  C 
ATOM     19 O    THR B1001      15.109  19.579  -4.287  1.00 28.08 LIG-0.27  OA
BRANCH 16 20
ATOM     20  CA  THR B1001      15.374  21.635  -5.535  1.00 31.25 LIG 0.43  C 
ATOM     21  N   THR B1001      16.606  22.397  -5.636  1.00 31.78 LIG 0.62  N 
BRANCH 20 22
ATOM     22  CB  THR B1001      15.163  20.744  -6.760  1.00 33.83 LIG 0.16  C 
ATOM     23  CG2 THR B1001      15.328  21.551  -8.039  1.00 26.93 LIG 0.04  C 
BRANCH 22 24
ATOM     24 OG1  THR B1001      16.111  19.669  -6.741  1.00 35.47 LIG-0.39  OA
ATOM     25 HG1  THR B1001      15.850  19.075  -6.209  1.00 35.47 LIG 0.21  HD
ENDBRANCH 22 24
ENDBRANCH 20 22
ENDBRANCH 16 20
ENDBRANCH 11 13
ENDBRANCH 4 6
ENDBRANCH 1 2
BRANCH 1 26
ATOM     26  C   SER B1004      11.733  16.203   3.291  1.00 31.12 LIG 0.24  C 
ATOM     27 O    SER B1004      12.361  15.543   4.106  1.00 31.43 LIG-0.27  OA
ATOM     28  N   PRO B1005      10.520  15.825   2.871  1.00 32.50 LIG-0.34  N 
ATOM     29  CA  PRO B1005       9.630  16.498   1.921  1.00 31.67 LIG 0.18  C 
ATOM     30  CD  PRO B1005      10.035  14.458   3.149  1.00 32.99 LIG 0.13  C 
ATOM     31  CB  PRO B1005       9.024  15.333   1.164  1.00 32.97 LIG 0.04  C 
ATOM     32  CG  PRO B1005       8.776  14.355   2.272  1.00 32.33 LIG 0.02  C 
BRANCH 29 33
ATOM     33  C   PRO B1005       8.551  17.325   2.628  1.00 31.95 LIG 0.24  C 
ATOM     34  N   PHE B1006       8.697  17.513   3.936  1.00 29.16 LIG-0.34  N 
ATOM     35 H    PHE B1006       9.362  17.222   4.397  1.00 29.16 LIG 0.16  HD
ATOM     36 O    PRO B1005       7.604  17.785   1.988  1.00 29.71 LIG-0.27  OA
BRANCH 34 37
ATOM     37  CA  PHE B1006       7.703  18.254   4.700  1.00 29.49 LIG 0.19  C 
BRANCH 37 38
ATOM     38  CB  PHE B1006       7.417  19.594   4.022  1.00 24.64 LIG 0.07  C 
BRANCH 38 39
ATOM     39  CG  PHE B1006       8.565  20.558   4.084  1.00 23.14 LIG-0.06  A 
ATOM     40  CD2 PHE B1006       8.822  21.421   3.026  1.00 22.25 LIG 0.01  A 
ATOM     41  CE2 PHE B1006       9.898  22.325   3.082  1.00 23.88 LIG 0.00  A 
ATOM     42  CZ  PHE B1006      10.713  22.359   4.207  1.00 22.95 LIG 0.00  A 
ATOM     43  CE1 PHE B1006      10.458  21.493   5.272  1.00 21.15 LIG 0.00  A 
ATOM     44  CD1 PHE B1006       9.393  20.605   5.203  1.00 23.85 LIG 0.01  A 
ENDBRANCH 38 39
ENDBRANCH 37 38
BRANCH 37 45
ATOM     45  C   PHE B1006       6.402  17.494   4.920  1.00 30.13 LIG 0.20  C 
ATOM     46 O    PHE B1006       6.482  16.298   5.272  1.00 31.00 LIG-0.65  OA
ATOM     47 OXT  PHE B1006       5.323  18.096   4.746  1.00 32.43 LIG-0.65  OA
ENDBRANCH 37 45
ENDBRANCH 34 37
ENDBRANCH 29 33
ENDBRANCH 1 26
BRANCH 1 48
ATOM     48  CB  SER B1004      11.414  18.689   3.136  1.00 35.03 LIG 0.20  C 
BRANCH 48 49
ATOM     49 OG   SER B1004      12.209  19.738   3.653  1.00 42.75 LIG-0.40  OA
ATOM     50 HG   SER B1004      12.868  19.865   3.149  1.00 42.75 LIG 0.21  HD
ENDBRANCH 48 49
ENDBRANCH 1 48
TORSDOF 14
ENDMDL
MODEL 21
USER: ADFR SOLUTION from run 156
USER: SCORE 12.378667 LL:  -3.465 LR: -10.144 RR:   0.000 FEB:  -5.967
USER: RMSD 7.043655
USER: SEED 155
USER: STATUS no improvement in best in 20 clusters for 5 generations
USER: GENES 16
USER: genes 0 Translation |==|  0.48305 0.40422 0.70731
USER: genes 1 Rotation |==|  0.75994 0.84832 0.74703 0.50852
USER: genes 2 Torsion [CB]-CA--N-[C] |==|  0.41243
USER: genes 3 Torsion [N]-C--CA-[N] |==|  0.61916
USER: genes 4 Torsion [N]-C--CA-[N] |==|  0.49777
USER: genes 5 Torsion [N]-C--CA-[N] |==|  0.43980
USER: genes 6 Torsion [C]-CA--CB-[CG2] |==|  0.35317
USER: genes 7 Torsion [CA]-CB--OG1-[HG1] |==|  0.50723
USER: genes 8 Torsion [N]-CA--C-[N] |==|  0.91755
USER: genes 9 Torsion [N]-CA--C-[N] |==|  0.33571
USER: genes 10 Torsion [C]-N--CA-[CB] |==|  0.32074
USER: genes 11 Torsion [N]-CA--CB-[CG] |==|  0.80495
USER: genes 12 Torsion [CA]-CB--CG-[CD1] |==|  0.94053
USER: genes 13 Torsion [N]-CA--C-[O] |==|  0.02059
USER: genes 14 Torsion [N]-CA--CB-[OG] |==|  0.02118
USER: genes 15 Torsion [CA]-CB--OG-[HG] |==|  0.61600
ROOT
ATOM      1  CA  SER B1004      11.668  17.960   2.848  1.00 32.51 LIG 0.20  C 
ENDROOT
BRANCH 1 2
ATOM      2  N   SER B1004      10.733  18.460   3.843  1.00 30.80 LIG-0.34  N 
ATOM      3 H    SER B1004      10.178  17.879   4.151  1.00 30.80 LIG 0.16  HD
ATOM      4  C   PRO B1003      10.783  19.732   4.211  1.00 29.50 LIG 0.24  C 
ATOM      5 O    PRO B1003      11.610  20.517   3.742  1.00 26.59 LIG-0.27  OA
BRANCH 4 6
ATOM      6  CA  PRO B1003       9.767  20.205   5.256  1.00 29.25 LIG 0.18  C 
ATOM      7  CB  PRO B1003       8.512  19.331   5.232  1.00 27.80 LIG 0.04  C 
ATOM      8  CG  PRO B1003       7.374  20.313   5.272  1.00 32.17 LIG 0.02  C 
ATOM      9  CD  PRO B1003       7.868  21.445   4.408  1.00 30.31 LIG 0.13  C 
ATOM     10  N   PRO B1003       9.291  21.506   4.776  1.00 27.10 LIG-0.34  N 
ATOM     11  C   PRO B1002      10.102  22.574   4.814  1.00 28.33 LIG 0.24  C 
ATOM     12 O    PRO B1002      11.236  22.514   5.271  1.00 27.60 LIG-0.27  OA
BRANCH 11 13
ATOM     13  CA  PRO B1002       9.540  23.884   4.277  1.00 29.68 LIG 0.18  C 
ATOM     14  N   PRO B1002      10.437  25.040   4.346  1.00 30.07 LIG-0.34  N 
ATOM     15  CD  PRO B1002      10.611  25.636   3.008  1.00 30.93 LIG 0.13  C 
ATOM     16  C   THR B1001      10.974  25.547   5.495  1.00 31.77 LIG 0.26  C 
ATOM     17  CG  PRO B1002       9.375  25.170   2.295  1.00 29.32 LIG 0.02  C 
ATOM     18  CB  PRO B1002       9.239  23.770   2.783  1.00 30.61 LIG 0.04  C 
ATOM     19 O    THR B1001      10.729  25.012   6.581  1.00 28.08 LIG-0.27  OA
BRANCH 16 20
ATOM     20  CA  THR B1001      11.880  26.758   5.363  1.00 31.25 LIG 0.43  C 
ATOM     21  N   THR B1001      11.958  27.476   6.623  1.00 31.78 LIG 0.62  N 
BRANCH 20 22
ATOM     22  CB  THR B1001      13.262  26.319   4.880  1.00 33.83 LIG 0.16  C 
ATOM     23  CG2 THR B1001      13.674  27.118   3.653  1.00 26.93 LIG 0.04  C 
BRANCH 22 24
ATOM     24 OG1  THR B1001      14.221  26.513   5.927  1.00 35.47 LIG-0.39  OA
ATOM     25 HG1  THR B1001      14.986  26.306   5.649  1.00 35.47 LIG 0.21  HD
ENDBRANCH 22 24
ENDBRANCH 20 22
ENDBRANCH 16 20
ENDBRANCH 11 13
ENDBRANCH 4 6
ENDBRANCH 1 2
BRANCH 1 26
ATOM     26  C   SER B1004      11.019  18.122   1.476  1.00 31.12 LIG 0.24  C 
ATOM     27 O    SER B1004      11.706  18.277   0.477  1.00 31.43 LIG-0.27  OA
ATOM     28  N   PRO B1005       9.684  18.060   1.404  1.00 32.50 LIG-0.34  N 
ATOM     29  CA  PRO B1005       8.718  17.863   2.487  1.00 31.67 LIG 0.18  C 
ATOM     30  CD  PRO B1005       8.991  18.474   0.167  1.00 32.99 LIG 0.13  C 
ATOM     31  CB  PRO B1005       7.579  18.774   2.076  1.00 32.97 LIG 0.04  C 
ATOM     32  CG  PRO B1005       7.517  18.524   0.599  1.00 32.33 LIG 0.02  C 
BRANCH 29 33
ATOM     33  C   PRO B1005       8.256  16.406   2.590  1.00 31.95 LIG 0.24  C 
ATOM     34  N   PHE B1006       8.478  15.783   3.744  1.00 29.16 LIG-0.34  N 
ATOM     35 H    PHE B1006       8.841  16.150   4.432  1.00 29.16 LIG 0.16  HD
ATOM     36 O    PRO B1005       7.702  15.861   1.634  1.00 29.71 LIG-0.27  OA
BRANCH 34 37
ATOM     37  CA  PHE B1006       8.108  14.386   3.923  1.00 29.49 LIG 0.19  C 
BRANCH 37 38
ATOM     38  CB  PHE B1006       9.361  13.538   4.143  1.00 24.64 LIG 0.07  C 
BRANCH 38 39
ATOM     39  CG  PHE B1006      10.216  13.396   2.918  1.00 23.14 LIG-0.06  A 
ATOM     40  CD2 PHE B1006      11.559  13.058   3.028  1.00 22.25 LIG 0.01  A 
ATOM     41  CE2 PHE B1006      12.361  12.924   1.881  1.00 23.88 LIG 0.00  A 
ATOM     42  CZ  PHE B1006      11.807  13.130   0.623  1.00 22.95 LIG 0.00  A 
ATOM     43  CE1 PHE B1006      10.458  13.470   0.510  1.00 21.15 LIG 0.00  A 
ATOM     44  CD1 PHE B1006       9.677  13.599   1.650  1.00 23.85 LIG 0.01  A 
ENDBRANCH 38 39
ENDBRANCH 37 38
BRANCH 37 45
ATOM     45  C   PHE B1006       7.115  14.151   5.053  1.00 30.13 LIG 0.20  C 
ATOM     46 O    PHE B1006       6.617  15.154   5.604  1.00 31.00 LIG-0.65  OA
ATOM     47 OXT  PHE B1006       6.841  12.975   5.371  1.00 32.43 LIG-0.65  OA
ENDBRANCH 37 45
ENDBRANCH 34 37
ENDBRANCH 29 33
ENDBRANCH 1 26
BRANCH 1 48
ATOM     48  CB  SER B1004      11.992  16.490   3.118  1.00 35.03 LIG 0.20  C 
BRANCH 48 49
ATOM     49 OG   SER B1004      11.159  15.995   4.147  1.00 42.75 LIG-0.40  OA
ATOM     50 HG   SER B1004      11.611  15.513   4.666  1.00 42.75 LIG 0.21  HD
ENDBRANCH 48 49
ENDBRANCH 1 48
TORSDOF 14
ENDMDL
MODEL 22
USER: ADFR SOLUTION from run 147
USER: SCORE 12.900483 LL:  -3.732 LR: -10.137 RR:   0.000 FEB:  -5.961
USER: RMSD 6.327029
USER: SEED 146
USER: STATUS no improvement in best in 21 clusters for 5 generations
USER: GENES 16
USER: genes 0 Translation |==|  0.50250 0.38332 0.61607
USER: genes 1 Rotation |==|  0.85759 0.53712 0.16971 0.60798
USER: genes 2 Torsion [CB]-CA--N-[C] |==|  0.16507
USER: genes 3 Torsion [N]-C--CA-[N] |==|  0.89069
USER: genes 4 Torsion [N]-C--CA-[N] |==|  0.28569
USER: genes 5 Torsion [N]-C--CA-[N] |==|  0.21194
USER: genes 6 Torsion [C]-CA--CB-[CG2] |==|  0.46996
USER: genes 7 Torsion [CA]-CB--OG1-[HG1] |==|  0.47264
USER: genes 8 Torsion [N]-CA--C-[N] |==|  0.50188
USER: genes 9 Torsion [N]-CA--C-[N] |==|  0.39466
USER: genes 10 Torsion [C]-N--CA-[CB] |==|  0.40610
USER: genes 11 Torsion [N]-CA--CB-[CG] |==|  0.87530
USER: genes 12 Torsion [CA]-CB--CG-[CD1] |==|  0.40679
USER: genes 13 Torsion [N]-CA--C-[O] |==|  0.20059
USER: genes 14 Torsion [N]-CA--CB-[OG] |==|  0.65194
USER: genes 15 Torsion [CA]-CB--OG-[HG] |==|  0.36540
ROOT
ATOM      1  CA  SER B1004      12.033  17.505   1.274  1.00 32.51 LIG 0.20  C 
ENDROOT
BRANCH 1 2
ATOM      2  N   SER B1004      12.810  17.526   0.046  1.00 30.80 LIG-0.34  N 
ATOM      3 H    SER B1004      12.600  18.146  -0.512  1.00 30.80 LIG 0.16  HD
ATOM      4  C   PRO B1003      13.763  16.624  -0.144  1.00 29.50 LIG 0.24  C 
ATOM      5 O    PRO B1003      14.027  15.764   0.698  1.00 26.59 LIG-0.27  OA
BRANCH 4 6
ATOM      6  CA  PRO B1003      14.543  16.688  -1.462  1.00 29.25 LIG 0.18  C 
ATOM      7  CB  PRO B1003      15.488  17.891  -1.478  1.00 27.80 LIG 0.04  C 
ATOM      8  CG  PRO B1003      15.280  18.508  -2.834  1.00 32.17 LIG 0.02  C 
ATOM      9  CD  PRO B1003      13.798  18.347  -3.060  1.00 30.31 LIG 0.13  C 
ATOM     10  N   PRO B1003      13.549  17.014  -2.488  1.00 27.10 LIG-0.34  N 
ATOM     11  C   PRO B1002      12.641  16.100  -2.860  1.00 28.33 LIG 0.24  C 
ATOM     12 O    PRO B1002      12.626  14.970  -2.389  1.00 27.60 LIG-0.27  OA
BRANCH 11 13
ATOM     13  CA  PRO B1002      11.629  16.525  -3.916  1.00 29.68 LIG 0.18  C 
ATOM     14  N   PRO B1002      11.873  16.026  -5.271  1.00 30.07 LIG-0.34  N 
ATOM     15  CD  PRO B1002      10.695  15.289  -5.767  1.00 30.93 LIG 0.13  C 
ATOM     16  C   THR B1001      12.997  16.274  -6.007  1.00 31.77 LIG 0.26  C 
ATOM     17  CG  PRO B1002       9.592  15.858  -4.924  1.00 29.32 LIG 0.02  C 
ATOM     18  CB  PRO B1002      10.243  15.971  -3.589  1.00 30.61 LIG 0.04  C 
ATOM     19 O    THR B1001      13.914  16.949  -5.527  1.00 28.08 LIG-0.27  OA
BRANCH 16 20
ATOM     20  CA  THR B1001      13.063  15.673  -7.399  1.00 31.25 LIG 0.43  C 
ATOM     21  N   THR B1001      12.230  16.426  -8.320  1.00 31.78 LIG 0.62  N 
BRANCH 20 22
ATOM     22  CB  THR B1001      14.516  15.619  -7.871  1.00 33.83 LIG 0.16  C 
ATOM     23  CG2 THR B1001      14.634  14.786  -9.137  1.00 26.93 LIG 0.04  C 
BRANCH 22 24
ATOM     24 OG1  THR B1001      14.989  16.949  -8.121  1.00 35.47 LIG-0.39  OA
ATOM     25 HG1  THR B1001      15.818  16.932  -8.249  1.00 35.47 LIG 0.21  HD
ENDBRANCH 22 24
ENDBRANCH 20 22
ENDBRANCH 16 20
ENDBRANCH 11 13
ENDBRANCH 4 6
ENDBRANCH 1 2
BRANCH 1 26
ATOM     26  C   SER B1004      11.022  18.647   1.205  1.00 31.12 LIG 0.24  C 
ATOM     27 O    SER B1004      10.952  19.356   0.211  1.00 31.43 LIG-0.27  OA
ATOM     28  N   PRO B1005      10.203  18.822   2.249  1.00 32.50 LIG-0.34  N 
ATOM     29  CA  PRO B1005      10.139  18.061   3.498  1.00 31.67 LIG 0.18  C 
ATOM     30  CD  PRO B1005       9.400  20.057   2.357  1.00 32.99 LIG 0.13  C 
ATOM     31  CB  PRO B1005       9.852  19.142   4.522  1.00 32.97 LIG 0.04  C 
ATOM     32  CG  PRO B1005       8.851  19.985   3.791  1.00 32.33 LIG 0.02  C 
BRANCH 29 33
ATOM     33  C   PRO B1005       9.027  17.007   3.475  1.00 31.95 LIG 0.24  C 
ATOM     34  N   PHE B1006       9.288  15.842   4.060  1.00 29.16 LIG-0.34  N 
ATOM     35 H    PHE B1006      10.025  15.656   4.464  1.00 29.16 LIG 0.16  HD
ATOM     36 O    PRO B1005       7.947  17.256   2.936  1.00 29.71 LIG-0.27  OA
BRANCH 34 37
ATOM     37  CA  PHE B1006       8.307  14.767   4.056  1.00 29.49 LIG 0.19  C 
BRANCH 37 38
ATOM     38  CB  PHE B1006       9.017  13.414   3.984  1.00 24.64 LIG 0.07  C 
BRANCH 38 39
ATOM     39  CG  PHE B1006      10.125  13.368   2.972  1.00 23.14 LIG-0.06  A 
ATOM     40  CD2 PHE B1006      10.036  14.097   1.793  1.00 22.25 LIG 0.01  A 
ATOM     41  CE2 PHE B1006      11.074  14.056   0.845  1.00 23.88 LIG 0.00  A 
ATOM     42  CZ  PHE B1006      12.201  13.281   1.088  1.00 22.95 LIG 0.00  A 
ATOM     43  CE1 PHE B1006      12.293  12.547   2.272  1.00 21.15 LIG 0.00  A 
ATOM     44  CD1 PHE B1006      11.261  12.596   3.199  1.00 23.85 LIG 0.01  A 
ENDBRANCH 38 39
ENDBRANCH 37 38
BRANCH 37 45
ATOM     45  C   PHE B1006       7.358  14.793   5.246  1.00 30.13 LIG 0.20  C 
ATOM     46 O    PHE B1006       6.487  15.687   5.272  1.00 31.00 LIG-0.65  OA
ATOM     47 OXT  PHE B1006       7.488  13.923   6.131  1.00 32.43 LIG-0.65  OA
ENDBRANCH 37 45
ENDBRANCH 34 37
ENDBRANCH 29 33
ENDBRANCH 1 26
BRANCH 1 48
ATOM     48  CB  SER B1004      12.951  17.676   2.484  1.00 35.03 LIG 0.20  C 
BRANCH 48 49
ATOM     49 OG   SER B1004      12.754  16.609   3.392  1.00 42.75 LIG-0.40  OA
ATOM     50 HG   SER B1004      13.498  16.291   3.616  1.00 42.75 LIG 0.21  HD
ENDBRANCH 48 49
ENDBRANCH 1 48
TORSDOF 14
ENDMDL
MODEL 23
USER: ADFR SOLUTION from run 128
USER: SCORE 12.501399 LL:  -4.089 LR: -10.117 RR:   0.000 FEB:  -5.941
USER: RMSD 4.082560
USER: SEED 127
USER: STATUS no improvement in best in 20 clusters for 5 generations
USER: GENES 16
USER: genes 0 Translation |==|  0.49192 0.47746 0.64686
USER: genes 1 Rotation |==|  0.64003 0.67465 0.29343 0.89651
USER: genes 2 Torsion [CB]-CA--N-[C] |==|  0.35425
USER: genes 3 Torsion [N]-C--CA-[N] |==|  0.35004
USER: genes 4 Torsion [N]-C--CA-[N] |==|  0.36514
USER: genes 5 Torsion [N]-C--CA-[N] |==|  0.86610
USER: genes 6 Torsion [C]-CA--CB-[CG2] |==|  0.65506
USER: genes 7 Torsion [CA]-CB--OG1-[HG1] |==|  0.38607
USER: genes 8 Torsion [N]-CA--C-[N] |==|  0.25107
USER: genes 9 Torsion [N]-CA--C-[N] |==|  0.93014
USER: genes 10 Torsion [C]-N--CA-[CB] |==|  0.21094
USER: genes 11 Torsion [N]-CA--CB-[CG] |==|  0.09144
USER: genes 12 Torsion [CA]-CB--CG-[CD1] |==|  0.18880
USER: genes 13 Torsion [N]-CA--C-[O] |==|  0.43682
USER: genes 14 Torsion [N]-CA--CB-[OG] |==|  0.51992
USER: genes 15 Torsion [CA]-CB--OG-[HG] |==|  0.14677
ROOT
ATOM      1  CA  SER B1004      11.835  19.553   1.805  1.00 32.51 LIG 0.20  C 
ENDROOT
BRANCH 1 2
ATOM      2  N   SER B1004      12.173  19.470   0.394  1.00 30.80 LIG-0.34  N 
ATOM      3 H    SER B1004      11.586  19.795  -0.145  1.00 30.80 LIG 0.16  HD
ATOM      4  C   PRO B1003      13.321  18.920   0.024  1.00 29.50 LIG 0.24  C 
ATOM      5 O    PRO B1003      14.129  18.480   0.844  1.00 26.59 LIG-0.27  OA
BRANCH 4 6
ATOM      6  CA  PRO B1003      13.621  18.851  -1.477  1.00 29.25 LIG 0.18  C 
ATOM      7  CB  PRO B1003      13.862  17.407  -1.919  1.00 27.80 LIG 0.04  C 
ATOM      8  CG  PRO B1003      15.089  17.483  -2.785  1.00 32.17 LIG 0.02  C 
ATOM      9  CD  PRO B1003      15.940  18.511  -2.084  1.00 30.31 LIG 0.13  C 
ATOM     10  N   PRO B1003      14.931  19.488  -1.643  1.00 27.10 LIG-0.34  N 
ATOM     11  C   PRO B1002      15.058  20.814  -1.494  1.00 28.33 LIG 0.24  C 
ATOM     12 O    PRO B1002      14.099  21.536  -1.250  1.00 27.60 LIG-0.27  OA
BRANCH 11 13
ATOM     13  CA  PRO B1002      16.456  21.395  -1.660  1.00 29.68 LIG 0.18  C 
ATOM     14  N   PRO B1002      16.563  22.562  -2.539  1.00 30.07 LIG-0.34  N 
ATOM     15  CD  PRO B1002      17.182  23.691  -1.819  1.00 30.93 LIG 0.13  C 
ATOM     16  C   THR B1001      16.214  22.583  -3.859  1.00 31.77 LIG 0.26  C 
ATOM     17  CG  PRO B1002      17.937  22.991  -0.728  1.00 29.32 LIG 0.02  C 
ATOM     18  CB  PRO B1002      16.986  21.918  -0.326  1.00 30.61 LIG 0.04  C 
ATOM     19 O    THR B1001      15.751  21.570  -4.393  1.00 28.08 LIG-0.27  OA
BRANCH 16 20
ATOM     20  CA  THR B1001      16.404  23.890  -4.607  1.00 31.25 LIG 0.43  C 
ATOM     21  N   THR B1001      15.846  24.997  -3.851  1.00 31.78 LIG 0.62  N 
BRANCH 20 22
ATOM     22  CB  THR B1001      17.888  24.105  -4.904  1.00 33.83 LIG 0.16  C 
ATOM     23  CG2 THR B1001      18.354  25.440  -4.345  1.00 26.93 LIG 0.04  C 
BRANCH 22 24
ATOM     24 OG1  THR B1001      18.653  23.043  -4.320  1.00 35.47 LIG-0.39  OA
ATOM     25 HG1  THR B1001      19.257  22.806  -4.853  1.00 35.47 LIG 0.21  HD
ENDBRANCH 22 24
ENDBRANCH 20 22
ENDBRANCH 16 20
ENDBRANCH 11 13
ENDBRANCH 4 6
ENDBRANCH 1 2
BRANCH 1 26
ATOM     26  C   SER B1004      10.659  18.613   2.058  1.00 31.12 LIG 0.24  C 
ATOM     27 O    SER B1004       9.508  19.005   1.923  1.00 31.43 LIG-0.27  OA
ATOM     28  N   PRO B1005      10.931  17.349   2.402  1.00 32.50 LIG-0.34  N 
ATOM     29  CA  PRO B1005      12.237  16.712   2.589  1.00 31.67 LIG 0.18  C 
ATOM     30  CD  PRO B1005       9.856  16.476   2.917  1.00 32.99 LIG 0.13  C 
ATOM     31  CB  PRO B1005      11.986  15.799   3.772  1.00 32.97 LIG 0.04  C 
ATOM     32  CG  PRO B1005      10.627  15.256   3.446  1.00 32.33 LIG 0.02  C 
BRANCH 29 33
ATOM     33  C   PRO B1005      12.673  15.917   1.354  1.00 31.95 LIG 0.24  C 
ATOM     34  N   PHE B1006      11.709  15.470   0.554  1.00 29.16 LIG-0.34  N 
ATOM     35 H    PHE B1006      10.870  15.618   0.675  1.00 29.16 LIG 0.16  HD
ATOM     36 O    PRO B1005      13.869  15.718   1.134  1.00 29.71 LIG-0.27  OA
BRANCH 34 37
ATOM     37  CA  PHE B1006      12.024  14.673  -0.623  1.00 29.49 LIG 0.19  C 
BRANCH 37 38
ATOM     38  CB  PHE B1006      12.383  13.246  -0.206  1.00 24.64 LIG 0.07  C 
BRANCH 38 39
ATOM     39  CG  PHE B1006      11.639  12.768   1.007  1.00 23.14 LIG-0.06  A 
ATOM     40  CD2 PHE B1006      12.307  12.543   2.204  1.00 22.25 LIG 0.01  A 
ATOM     41  CE2 PHE B1006      11.611  12.096   3.341  1.00 23.88 LIG 0.00  A 
ATOM     42  CZ  PHE B1006      10.241  11.877   3.269  1.00 22.95 LIG 0.00  A 
ATOM     43  CE1 PHE B1006       9.566  12.102   2.068  1.00 21.15 LIG 0.00  A 
ATOM     44  CD1 PHE B1006      10.265  12.543   0.953  1.00 23.85 LIG 0.01  A 
ENDBRANCH 38 39
ENDBRANCH 37 38
BRANCH 37 45
ATOM     45  C   PHE B1006      10.915  14.647  -1.666  1.00 30.13 LIG 0.20  C 
ATOM     46 O    PHE B1006      11.233  14.378  -2.843  1.00 31.00 LIG-0.65  OA
ATOM     47 OXT  PHE B1006       9.747  14.888  -1.299  1.00 32.43 LIG-0.65  OA
ENDBRANCH 37 45
ENDBRANCH 34 37
ENDBRANCH 29 33
ENDBRANCH 1 26
BRANCH 1 48
ATOM     48  CB  SER B1004      11.463  20.988   2.177  1.00 35.03 LIG 0.20  C 
BRANCH 48 49
ATOM     49 OG   SER B1004      11.296  21.094   3.578  1.00 42.75 LIG-0.40  OA
ATOM     50 HG   SER B1004      11.978  20.793   3.965  1.00 42.75 LIG 0.21  HD
ENDBRANCH 48 49
ENDBRANCH 1 48
TORSDOF 14
ENDMDL
MODEL 24
USER: ADFR SOLUTION from run 162
USER: SCORE 13.528697 LL:  -3.519 LR: -10.104 RR:   0.000 FEB:  -5.928
USER: RMSD 4.598943
USER: SEED 161
USER: STATUS no improvement in best in 14 clusters for 5 generations
USER: GENES 16
USER: genes 0 Translation |==|  0.50283 0.30554 0.51059
USER: genes 1 Rotation |==|  0.43028 0.30465 0.76490 0.86987
USER: genes 2 Torsion [CB]-CA--N-[C] |==|  0.86110
USER: genes 3 Torsion [N]-C--CA-[N] |==|  0.75720
USER: genes 4 Torsion [N]-C--CA-[N] |==|  0.28385
USER: genes 5 Torsion [N]-C--CA-[N] |==|  0.18671
USER: genes 6 Torsion [C]-CA--CB-[CG2] |==|  0.80309
USER: genes 7 Torsion [CA]-CB--OG1-[HG1] |==|  0.79778
USER: genes 8 Torsion [N]-CA--C-[N] |==|  0.38809
USER: genes 9 Torsion [N]-CA--C-[N] |==|  0.89812
USER: genes 10 Torsion [C]-N--CA-[CB] |==|  0.85678
USER: genes 11 Torsion [N]-CA--CB-[CG] |==|  0.81710
USER: genes 12 Torsion [CA]-CB--CG-[CD1] |==|  0.58147
USER: genes 13 Torsion [N]-CA--C-[O] |==|  0.59060
USER: genes 14 Torsion [N]-CA--CB-[OG] |==|  0.88488
USER: genes 15 Torsion [CA]-CB--OG-[HG] |==|  0.18072
ROOT
ATOM      1  CA  SER B1004      12.039  15.814  -0.545  1.00 32.51 LIG 0.20  C 
ENDROOT
BRANCH 1 2
ATOM      2  N   SER B1004      12.683  17.114  -0.452  1.00 30.80 LIG-0.34  N 
ATOM      3 H    SER B1004      12.186  17.750  -0.154  1.00 30.80 LIG 0.16  HD
ATOM      4  C   PRO B1003      13.951  17.247  -0.815  1.00 29.50 LIG 0.24  C 
ATOM      5 O    PRO B1003      14.618  16.295  -1.225  1.00 26.59 LIG-0.27  OA
BRANCH 4 6
ATOM      6  CA  PRO B1003      14.574  18.642  -0.704  1.00 29.25 LIG 0.18  C 
ATOM      7  CB  PRO B1003      13.836  19.489   0.334  1.00 27.80 LIG 0.04  C 
ATOM      8  CG  PRO B1003      13.645  20.820  -0.340  1.00 32.17 LIG 0.02  C 
ATOM      9  CD  PRO B1003      13.353  20.441  -1.770  1.00 30.31 LIG 0.13  C 
ATOM     10  N   PRO B1003      14.269  19.308  -1.974  1.00 27.10 LIG-0.34  N 
ATOM     11  C   PRO B1002      14.887  18.923  -3.100  1.00 28.33 LIG 0.24  C 
ATOM     12 O    PRO B1002      15.735  18.040  -3.107  1.00 27.60 LIG-0.27  OA
BRANCH 11 13
ATOM     13  CA  PRO B1002      14.498  19.649  -4.382  1.00 29.68 LIG 0.18  C 
ATOM     14  N   PRO B1002      15.442  20.666  -4.851  1.00 30.07 LIG-0.34  N 
ATOM     15  CD  PRO B1002      15.860  20.377  -6.236  1.00 30.93 LIG 0.13  C 
ATOM     16  C   THR B1001      15.822  21.769  -4.142  1.00 31.77 LIG 0.26  C 
ATOM     17  CG  PRO B1002      14.726  19.532  -6.736  1.00 29.32 LIG 0.02  C 
ATOM     18  CB  PRO B1002      14.429  18.673  -5.556  1.00 30.61 LIG 0.04  C 
ATOM     19 O    THR B1001      15.377  21.957  -3.005  1.00 28.08 LIG-0.27  OA
BRANCH 16 20
ATOM     20  CA  THR B1001      16.809  22.714  -4.802  1.00 31.25 LIG 0.43  C 
ATOM     21  N   THR B1001      16.201  23.369  -5.947  1.00 31.78 LIG 0.62  N 
BRANCH 20 22
ATOM     22  CB  THR B1001      17.317  23.729  -3.778  1.00 33.83 LIG 0.16  C 
ATOM     23  CG2 THR B1001      16.217  24.715  -3.416  1.00 26.93 LIG 0.04  C 
BRANCH 22 24
ATOM     24 OG1  THR B1001      17.758  23.043  -2.600  1.00 35.47 LIG-0.39  OA
ATOM     25 HG1  THR B1001      17.092  22.758  -2.176  1.00 35.47 LIG 0.21  HD
ENDBRANCH 22 24
ENDBRANCH 20 22
ENDBRANCH 16 20
ENDBRANCH 11 13
ENDBRANCH 4 6
ENDBRANCH 1 2
BRANCH 1 26
ATOM     26  C   SER B1004      12.638  14.918   0.536  1.00 31.12 LIG 0.24  C 
ATOM     27 O    SER B1004      13.832  14.968   0.795  1.00 31.43 LIG-0.27  OA
ATOM     28  N   PRO B1005      11.811  14.105   1.204  1.00 32.50 LIG-0.34  N 
ATOM     29  CA  PRO B1005      10.366  13.933   1.038  1.00 31.67 LIG 0.18  C 
ATOM     30  CD  PRO B1005      12.361  13.035   2.061  1.00 32.99 LIG 0.13  C 
ATOM     31  CB  PRO B1005      10.192  12.441   1.243  1.00 32.97 LIG 0.04  C 
ATOM     32  CG  PRO B1005      11.121  12.188   2.391  1.00 32.33 LIG 0.02  C 
BRANCH 29 33
ATOM     33  C   PRO B1005       9.567  14.733   2.072  1.00 31.95 LIG 0.24  C 
ATOM     34  N   PHE B1006      10.079  14.817   3.296  1.00 29.16 LIG-0.34  N 
ATOM     35 H    PHE B1006      10.831  14.472   3.532  1.00 29.16 LIG 0.16  HD
ATOM     36 O    PRO B1005       8.504  15.269   1.755  1.00 29.71 LIG-0.27  OA
BRANCH 34 37
ATOM     37  CA  PHE B1006       9.374  15.525   4.355  1.00 29.49 LIG 0.19  C 
BRANCH 37 38
ATOM     38  CB  PHE B1006       8.988  16.926   3.879  1.00 24.64 LIG 0.07  C 
BRANCH 38 39
ATOM     39  CG  PHE B1006      10.165  17.820   3.621  1.00 23.14 LIG-0.06  A 
ATOM     40  CD2 PHE B1006      11.383  17.287   3.218  1.00 22.25 LIG 0.01  A 
ATOM     41  CE2 PHE B1006      12.487  18.123   2.976  1.00 23.88 LIG 0.00  A 
ATOM     42  CZ  PHE B1006      12.361  19.497   3.139  1.00 22.95 LIG 0.00  A 
ATOM     43  CE1 PHE B1006      11.138  20.036   3.544  1.00 21.15 LIG 0.00  A 
ATOM     44  CD1 PHE B1006      10.057  19.199   3.780  1.00 23.85 LIG 0.01  A 
ENDBRANCH 38 39
ENDBRANCH 37 38
BRANCH 37 45
ATOM     45  C   PHE B1006       8.142  14.793   4.872  1.00 30.13 LIG 0.20  C 
ATOM     46 O    PHE B1006       7.179  15.485   5.261  1.00 31.00 LIG-0.65  OA
ATOM     47 OXT  PHE B1006       8.149  13.545   4.878  1.00 32.43 LIG-0.65  OA
ENDBRANCH 37 45
ENDBRANCH 34 37
ENDBRANCH 29 33
ENDBRANCH 1 26
BRANCH 1 48
ATOM     48  CB  SER B1004      12.269  15.208  -1.930  1.00 35.03 LIG 0.20  C 
BRANCH 48 49
ATOM     49 OG   SER B1004      12.131  16.207  -2.921  1.00 42.75 LIG-0.40  OA
ATOM     50 HG   SER B1004      12.739  16.779  -2.829  1.00 42.75 LIG 0.21  HD
ENDBRANCH 48 49
ENDBRANCH 1 48
TORSDOF 14
ENDMDL
MODEL 25
USER: ADFR SOLUTION from run 137
USER: SCORE 12.119335 LL:  -2.687 LR: -10.069 RR:   0.000 FEB:  -5.892
USER: RMSD 4.457310
USER: SEED 136
USER: STATUS no improvement in best in 4 clusters for 5 generations
USER: GENES 16
USER: genes 0 Translation |==|  0.54735 0.29168 0.62394
USER: genes 1 Rotation |==|  0.64541 0.78079 0.38241 0.86903
USER: genes 2 Torsion [CB]-CA--N-[C] |==|  0.18889
USER: genes 3 Torsion [N]-C--CA-[N] |==|  0.55119
USER: genes 4 Torsion [N]-C--CA-[N] |==|  0.28037
USER: genes 5 Torsion [N]-C--CA-[N] |==|  0.85660
USER: genes 6 Torsion [C]-CA--CB-[CG2] |==|  0.19146
USER: genes 7 Torsion [CA]-CB--OG1-[HG1] |==|  0.68452
USER: genes 8 Torsion [N]-CA--C-[N] |==|  0.84227
USER: genes 9 Torsion [N]-CA--C-[N] |==|  0.07443
USER: genes 10 Torsion [C]-N--CA-[CB] |==|  0.87708
USER: genes 11 Torsion [N]-CA--CB-[CG] |==|  0.75674
USER: genes 12 Torsion [CA]-CB--CG-[CD1] |==|  0.17294
USER: genes 13 Torsion [N]-CA--C-[O] |==|  0.54917
USER: genes 14 Torsion [N]-CA--CB-[OG] |==|  0.71109
USER: genes 15 Torsion [CA]-CB--OG-[HG] |==|  0.84558
ROOT
ATOM      1  CA  SER B1004      12.874  15.512   1.410  1.00 32.51 LIG 0.20  C 
ENDROOT
BRANCH 1 2
ATOM      2  N   SER B1004      12.757  15.974   0.036  1.00 30.80 LIG-0.34  N 
ATOM      3 H    SER B1004      12.231  15.512  -0.464  1.00 30.80 LIG 0.16  HD
ATOM      4  C   PRO B1003      13.439  17.039  -0.359  1.00 29.50 LIG 0.24  C 
ATOM      5 O    PRO B1003      14.172  17.669   0.406  1.00 26.59 LIG-0.27  OA
BRANCH 4 6
ATOM      6  CA  PRO B1003      13.285  17.474  -1.821  1.00 29.25 LIG 0.18  C 
ATOM      7  CB  PRO B1003      13.490  16.289  -2.767  1.00 27.80 LIG 0.04  C 
ATOM      8  CG  PRO B1003      14.397  16.825  -3.841  1.00 32.17 LIG 0.02  C 
ATOM      9  CD  PRO B1003      15.339  17.721  -3.079  1.00 30.31 LIG 0.13  C 
ATOM     10  N   PRO B1003      14.437  18.339  -2.094  1.00 27.10 LIG-0.34  N 
ATOM     11  C   PRO B1002      14.505  19.561  -1.547  1.00 28.33 LIG 0.24  C 
ATOM     12 O    PRO B1002      13.611  20.007  -0.838  1.00 27.60 LIG-0.27  OA
BRANCH 11 13
ATOM     13  CA  PRO B1002      15.745  20.389  -1.861  1.00 29.68 LIG 0.18  C 
ATOM     14  N   PRO B1002      15.581  21.418  -2.890  1.00 30.07 LIG-0.34  N 
ATOM     15  CD  PRO B1002      15.965  22.740  -2.358  1.00 30.93 LIG 0.13  C 
ATOM     16  C   THR B1001      15.204  21.183  -4.181  1.00 31.77 LIG 0.26  C 
ATOM     17  CG  PRO B1002      16.877  22.369  -1.226  1.00 29.32 LIG 0.02  C 
ATOM     18  CB  PRO B1002      16.184  21.190  -0.637  1.00 30.61 LIG 0.04  C 
ATOM     19 O    THR B1001      14.952  20.032  -4.553  1.00 28.08 LIG-0.27  OA
BRANCH 16 20
ATOM     20  CA  THR B1001      15.095  22.384  -5.103  1.00 31.25 LIG 0.43  C 
ATOM     21  N   THR B1001      14.267  23.415  -4.503  1.00 31.78 LIG 0.62  N 
BRANCH 20 22
ATOM     22  CB  THR B1001      16.492  22.909  -5.435  1.00 33.83 LIG 0.16  C 
ATOM     23  CG2 THR B1001      17.236  21.917  -6.316  1.00 26.93 LIG 0.04  C 
BRANCH 22 24
ATOM     24 OG1  THR B1001      16.384  24.169  -6.110  1.00 35.47 LIG-0.39  OA
ATOM     25 HG1  THR B1001      16.656  24.087  -6.900  1.00 35.47 LIG 0.21  HD
ENDBRANCH 22 24
ENDBRANCH 20 22
ENDBRANCH 16 20
ENDBRANCH 11 13
ENDBRANCH 4 6
ENDBRANCH 1 2
BRANCH 1 26
ATOM     26  C   SER B1004      12.162  14.165   1.511  1.00 31.12 LIG 0.24  C 
ATOM     27 O    SER B1004      12.751  13.180   1.933  1.00 31.43 LIG-0.27  OA
ATOM     28  N   PRO B1005      10.874  14.110   1.151  1.00 32.50 LIG-0.34  N 
ATOM     29  CA  PRO B1005      10.018  15.186   0.646  1.00 31.67 LIG 0.18  C 
ATOM     30  CD  PRO B1005      10.214  12.801   0.970  1.00 32.99 LIG 0.13  C 
ATOM     31  CB  PRO B1005       9.181  14.472  -0.397  1.00 32.97 LIG 0.04  C 
ATOM     32  CG  PRO B1005       8.884  13.176   0.297  1.00 32.33 LIG 0.02  C 
BRANCH 29 33
ATOM     33  C   PRO B1005       9.140  15.790   1.747  1.00 31.95 LIG 0.24  C 
ATOM     34  N   PHE B1006       9.599  15.714   2.993  1.00 29.16 LIG-0.34  N 
ATOM     35 H    PHE B1006      10.357  15.370   3.211  1.00 29.16 LIG 0.16  HD
ATOM     36 O    PRO B1005       8.065  16.319   1.462  1.00 29.71 LIG-0.27  OA
BRANCH 34 37
ATOM     37  CA  PHE B1006       8.818  16.226   4.109  1.00 29.49 LIG 0.19  C 
BRANCH 37 38
ATOM     38  CB  PHE B1006       8.231  17.592   3.752  1.00 24.64 LIG 0.07  C 
BRANCH 38 39
ATOM     39  CG  PHE B1006       9.145  18.741   4.061  1.00 23.14 LIG-0.06  A 
ATOM     40  CD2 PHE B1006       8.775  19.711   4.985  1.00 22.25 LIG 0.01  A 
ATOM     41  CE2 PHE B1006       9.632  20.787   5.276  1.00 23.88 LIG 0.00  A 
ATOM     42  CZ  PHE B1006      10.861  20.884   4.636  1.00 22.95 LIG 0.00  A 
ATOM     43  CE1 PHE B1006      11.236  19.912   3.707  1.00 21.15 LIG 0.00  A 
ATOM     44  CD1 PHE B1006      10.381  18.854   3.429  1.00 23.85 LIG 0.01  A 
ENDBRANCH 38 39
ENDBRANCH 37 38
BRANCH 37 45
ATOM     45  C   PHE B1006       7.711  15.288   4.570  1.00 30.13 LIG 0.20  C 
ATOM     46 O    PHE B1006       6.798  15.770   5.272  1.00 31.00 LIG-0.65  OA
ATOM     47 OXT  PHE B1006       7.763  14.090   4.223  1.00 32.43 LIG-0.65  OA
ENDBRANCH 37 45
ENDBRANCH 34 37
ENDBRANCH 29 33
ENDBRANCH 1 26
BRANCH 1 48
ATOM     48  CB  SER B1004      12.242  16.525   2.364  1.00 35.03 LIG 0.20  C 
BRANCH 48 49
ATOM     49 OG   SER B1004      13.254  17.262   3.022  1.00 42.75 LIG-0.40  OA
ATOM     50 HG   SER B1004      13.779  16.733   3.409  1.00 42.75 LIG 0.21  HD
ENDBRANCH 48 49
ENDBRANCH 1 48
TORSDOF 14
ENDMDL
MODEL 26
USER: ADFR SOLUTION from run 161
USER: SCORE 13.658161 LL:  -4.260 LR: -10.069 RR:   0.000 FEB:  -5.893
USER: RMSD 7.390380
USER: SEED 160
USER: STATUS no improvement in best in 3 clusters for 5 generations
USER: GENES 16
USER: genes 0 Translation |==|  0.59908 0.51433 0.54305
USER: genes 1 Rotation |==|  0.74607 0.08192 0.51509 0.62012
USER: genes 2 Torsion [CB]-CA--N-[C] |==|  0.16686
USER: genes 3 Torsion [N]-C--CA-[N] |==|  0.58040
USER: genes 4 Torsion [N]-C--CA-[N] |==|  0.89573
USER: genes 5 Torsion [N]-C--CA-[N] |==|  0.39978
USER: genes 6 Torsion [C]-CA--CB-[CG2] |==|  0.88985
USER: genes 7 Torsion [CA]-CB--OG1-[HG1] |==|  0.51930
USER: genes 8 Torsion [N]-CA--C-[N] |==|  0.20556
USER: genes 9 Torsion [N]-CA--C-[N] |==|  0.57383
USER: genes 10 Torsion [C]-N--CA-[CB] |==|  0.20187
USER: genes 11 Torsion [N]-CA--CB-[CG] |==|  0.51163
USER: genes 12 Torsion [CA]-CB--CG-[CD1] |==|  0.58766
USER: genes 13 Torsion [N]-CA--C-[O] |==|  0.37853
USER: genes 14 Torsion [N]-CA--CB-[OG] |==|  0.08345
USER: genes 15 Torsion [CA]-CB--OG-[HG] |==|  0.73149
ROOT
ATOM      1  CA  SER B1004      13.844  20.355   0.015  1.00 32.51 LIG 0.20  C 
ENDROOT
BRANCH 1 2
ATOM      2  N   SER B1004      13.558  19.522   1.172  1.00 30.80 LIG-0.34  N 
ATOM      3 H    SER B1004      14.048  18.819   1.249  1.00 30.80 LIG 0.16  HD
ATOM      4  C   PRO B1003      12.596  19.874   2.013  1.00 29.50 LIG 0.24  C 
ATOM      5 O    PRO B1003      11.932  20.900   1.855  1.00 26.59 LIG-0.27  OA
BRANCH 4 6
ATOM      6  CA  PRO B1003      12.331  18.953   3.209  1.00 29.25 LIG 0.18  C 
ATOM      7  CB  PRO B1003      12.439  17.483   2.799  1.00 27.80 LIG 0.04  C 
ATOM      8  CG  PRO B1003      11.234  16.834   3.425  1.00 32.17 LIG 0.02  C 
ATOM      9  CD  PRO B1003      10.161  17.882   3.267  1.00 30.31 LIG 0.13  C 
ATOM     10  N   PRO B1003      10.910  19.122   3.525  1.00 27.10 LIG-0.34  N 
ATOM     11  C   PRO B1002      10.475  20.264   4.076  1.00 28.33 LIG 0.24  C 
ATOM     12 O    PRO B1002      11.236  21.180   4.361  1.00 27.60 LIG-0.27  OA
BRANCH 11 13
ATOM     13  CA  PRO B1002       8.981  20.370   4.353  1.00 29.68 LIG 0.18  C 
ATOM     14  N   PRO B1002       8.101  19.762   3.351  1.00 30.07 LIG-0.34  N 
ATOM     15  CD  PRO B1002       7.210  18.772   3.984  1.00 30.93 LIG 0.13  C 
ATOM     16  C   THR B1001       8.053  20.116   2.033  1.00 31.77 LIG 0.26  C 
ATOM     17  CG  PRO B1002       7.194  19.232   5.412  1.00 29.32 LIG 0.02  C 
ATOM     18  CB  PRO B1002       8.615  19.620   5.633  1.00 30.61 LIG 0.04  C 
ATOM     19 O    THR B1001       8.803  20.998   1.601  1.00 28.08 LIG-0.27  OA
BRANCH 16 20
ATOM     20  CA  THR B1001       7.068  19.373   1.150  1.00 31.25 LIG 0.43  C 
ATOM     21  N   THR B1001       6.499  20.266   0.156  1.00 31.78 LIG 0.62  N 
BRANCH 20 22
ATOM     22  CB  THR B1001       7.761  18.176   0.498  1.00 33.83 LIG 0.16  C 
ATOM     23  CG2 THR B1001       9.175  18.544   0.077  1.00 26.93 LIG 0.04  C 
BRANCH 22 24
ATOM     24 OG1  THR B1001       7.802  17.082   1.423  1.00 35.47 LIG-0.39  OA
ATOM     25 HG1  THR B1001       8.264  16.460   1.101  1.00 35.47 LIG 0.21  HD
ENDBRANCH 22 24
ENDBRANCH 20 22
ENDBRANCH 16 20
ENDBRANCH 11 13
ENDBRANCH 4 6
ENDBRANCH 1 2
BRANCH 1 26
ATOM     26  C   SER B1004      14.974  19.692  -0.768  1.00 31.12 LIG 0.24  C 
ATOM     27 O    SER B1004      16.111  20.141  -0.721  1.00 31.43 LIG-0.27  OA
ATOM     28  N   PRO B1005      14.684  18.596  -1.479  1.00 32.50 LIG-0.34  N 
ATOM     29  CA  PRO B1005      13.394  17.919  -1.631  1.00 31.67 LIG 0.18  C 
ATOM     30  CD  PRO B1005      15.657  18.073  -2.460  1.00 32.99 LIG 0.13  C 
ATOM     31  CB  PRO B1005      13.421  17.492  -3.085  1.00 32.97 LIG 0.04  C 
ATOM     32  CG  PRO B1005      14.838  17.025  -3.231  1.00 32.33 LIG 0.02  C 
BRANCH 29 33
ATOM     33  C   PRO B1005      13.263  16.710  -0.698  1.00 31.95 LIG 0.24  C 
ATOM     34  N   PHE B1006      12.448  15.734  -1.088  1.00 29.16 LIG-0.34  N 
ATOM     35 H    PHE B1006      12.014  15.731  -1.831  1.00 29.16 LIG 0.16  HD
ATOM     36 O    PRO B1005      13.898  16.668   0.356  1.00 29.71 LIG-0.27  OA
BRANCH 34 37
ATOM     37  CA  PHE B1006      12.231  14.563  -0.250  1.00 29.49 LIG 0.19  C 
BRANCH 37 38
ATOM     38  CB  PHE B1006      11.368  14.937   0.956  1.00 24.64 LIG 0.07  C 
BRANCH 38 39
ATOM     39  CG  PHE B1006      11.174  13.812   1.930  1.00 23.14 LIG-0.06  A 
ATOM     40  CD2 PHE B1006      12.166  12.856   2.113  1.00 22.25 LIG 0.01  A 
ATOM     41  CE2 PHE B1006      11.986  11.801   3.025  1.00 23.88 LIG 0.00  A 
ATOM     42  CZ  PHE B1006      10.807  11.712   3.753  1.00 22.95 LIG 0.00  A 
ATOM     43  CE1 PHE B1006       9.808  12.671   3.572  1.00 21.15 LIG 0.00  A 
ATOM     44  CD1 PHE B1006       9.998  13.707   2.668  1.00 23.85 LIG 0.01  A 
ENDBRANCH 38 39
ENDBRANCH 37 38
BRANCH 37 45
ATOM     45  C   PHE B1006      11.611  13.384  -0.988  1.00 30.13 LIG 0.20  C 
ATOM     46 O    PHE B1006      12.087  12.250  -0.771  1.00 31.00 LIG-0.65  OA
ATOM     47 OXT  PHE B1006      10.659  13.601  -1.765  1.00 32.43 LIG-0.65  OA
ENDBRANCH 37 45
ENDBRANCH 34 37
ENDBRANCH 29 33
ENDBRANCH 1 26
BRANCH 1 48
ATOM     48  CB  SER B1004      14.252  21.759   0.461  1.00 35.03 LIG 0.20  C 
BRANCH 48 49
ATOM     49 OG   SER B1004      14.890  21.696   1.722  1.00 42.75 LIG-0.40  OA
ATOM     50 HG   SER B1004      14.332  21.863   2.327  1.00 42.75 LIG 0.21  HD
ENDBRANCH 48 49
ENDBRANCH 1 48
TORSDOF 14
ENDMDL
MODEL 27
USER: ADFR SOLUTION from run 84
USER: SCORE 12.458524 LL:  -4.108 LR: -10.055 RR:   0.000 FEB:  -5.879
USER: RMSD 6.281506
USER: SEED 83
USER: STATUS no improvement in best in 31 clusters for 5 generations
USER: GENES 16
USER: genes 0 Translation |==|  0.54023 0.50646 0.65604
USER: genes 1 Rotation |==|  0.52163 0.45155 0.07613 0.75984
USER: genes 2 Torsion [CB]-CA--N-[C] |==|  0.31911
USER: genes 3 Torsion [N]-C--CA-[N] |==|  0.21967
USER: genes 4 Torsion [N]-C--CA-[N] |==|  0.36382
USER: genes 5 Torsion [N]-C--CA-[N] |==|  0.84068
USER: genes 6 Torsion [C]-CA--CB-[CG2] |==|  0.25531
USER: genes 7 Torsion [CA]-CB--OG1-[HG1] |==|  0.71639
USER: genes 8 Torsion [N]-CA--C-[N] |==|  0.20099
USER: genes 9 Torsion [N]-CA--C-[N] |==|  0.58879
USER: genes 10 Torsion [C]-N--CA-[CB] |==|  0.26095
USER: genes 11 Torsion [N]-CA--CB-[CG] |==|  0.66152
USER: genes 12 Torsion [CA]-CB--CG-[CD1] |==|  0.55089
USER: genes 13 Torsion [N]-CA--C-[O] |==|  0.60808
USER: genes 14 Torsion [N]-CA--CB-[OG] |==|  0.56084
USER: genes 15 Torsion [CA]-CB--OG-[HG] |==|  0.08915
ROOT
ATOM      1  CA  SER B1004      12.740  20.184   1.964  1.00 32.51 LIG 0.20  C 
ENDROOT
BRANCH 1 2
ATOM      2  N   SER B1004      12.294  18.946   1.344  1.00 30.80 LIG-0.34  N 
ATOM      3 H    SER B1004      11.889  19.037   0.591  1.00 30.80 LIG 0.16  HD
ATOM      4  C   PRO B1003      12.526  17.789   1.946  1.00 29.50 LIG 0.24  C 
ATOM      5 O    PRO B1003      13.123  17.719   3.022  1.00 26.59 LIG-0.27  OA
BRANCH 4 6
ATOM      6  CA  PRO B1003      12.025  16.518   1.252  1.00 29.25 LIG 0.18  C 
ATOM      7  CB  PRO B1003      12.132  15.309   2.183  1.00 27.80 LIG 0.04  C 
ATOM      8  CG  PRO B1003      12.736  14.231   1.325  1.00 32.17 LIG 0.02  C 
ATOM      9  CD  PRO B1003      13.732  14.984   0.481  1.00 30.31 LIG 0.13  C 
ATOM     10  N   PRO B1003      13.008  16.234   0.202  1.00 27.10 LIG-0.34  N 
ATOM     11  C   PRO B1002      13.077  17.018  -0.884  1.00 28.33 LIG 0.24  C 
ATOM     12 O    PRO B1002      12.317  17.964  -1.053  1.00 27.60 LIG-0.27  OA
BRANCH 11 13
ATOM     13  CA  PRO B1002      14.140  16.669  -1.918  1.00 29.68 LIG 0.18  C 
ATOM     14  N   PRO B1002      13.680  16.599  -3.307  1.00 30.07 LIG-0.34  N 
ATOM     15  CD  PRO B1002      14.473  17.509  -4.156  1.00 30.93 LIG 0.13  C 
ATOM     16  C   THR B1001      12.712  15.755  -3.770  1.00 31.77 LIG 0.26  C 
ATOM     17  CG  PRO B1002      15.736  17.660  -3.361  1.00 29.32 LIG 0.02  C 
ATOM     18  CB  PRO B1002      15.221  17.749  -1.966  1.00 30.61 LIG 0.04  C 
ATOM     19 O    THR B1001      12.138  14.986  -2.992  1.00 28.08 LIG-0.27  OA
BRANCH 16 20
ATOM     20  CA  THR B1001      12.378  15.826  -5.249  1.00 31.25 LIG 0.43  C 
ATOM     21  N   THR B1001      11.970  17.170  -5.617  1.00 31.78 LIG 0.62  N 
BRANCH 20 22
ATOM     22  CB  THR B1001      13.577  15.357  -6.074  1.00 33.83 LIG 0.16  C 
ATOM     23  CG2 THR B1001      13.480  13.866  -6.353  1.00 26.93 LIG 0.04  C 
BRANCH 22 24
ATOM     24 OG1  THR B1001      13.621  16.079  -7.310  1.00 35.47 LIG-0.39  OA
ATOM     25 HG1  THR B1001      13.326  15.594  -7.929  1.00 35.47 LIG 0.21  HD
ENDBRANCH 22 24
ENDBRANCH 20 22
ENDBRANCH 16 20
ENDBRANCH 11 13
ENDBRANCH 4 6
ENDBRANCH 1 2
BRANCH 1 26
ATOM     26  C   SER B1004      11.525  21.097   2.108  1.00 31.12 LIG 0.24  C 
ATOM     27 O    SER B1004      11.386  22.067   1.376  1.00 31.43 LIG-0.27  OA
ATOM     28  N   PRO B1005      10.614  20.784   3.035  1.00 32.50 LIG-0.34  N 
ATOM     29  CA  PRO B1005      10.613  19.660   3.975  1.00 31.67 LIG 0.18  C 
ATOM     30  CD  PRO B1005       9.569  21.761   3.403  1.00 32.99 LIG 0.13  C 
ATOM     31  CB  PRO B1005      10.037  20.286   5.229  1.00 32.97 LIG 0.04  C 
ATOM     32  CG  PRO B1005       8.942  21.137   4.660  1.00 32.33 LIG 0.02  C 
BRANCH 29 33
ATOM     33  C   PRO B1005       9.745  18.497   3.484  1.00 31.95 LIG 0.24  C 
ATOM     34  N   PHE B1006       9.138  17.764   4.412  1.00 29.16 LIG-0.34  N 
ATOM     35 H    PHE B1006       9.186  17.914   5.258  1.00 29.16 LIG 0.16  HD
ATOM     36 O    PRO B1005       9.627  18.277   2.277  1.00 29.71 LIG-0.27  OA
BRANCH 34 37
ATOM     37  CA  PHE B1006       8.322  16.616   4.043  1.00 29.49 LIG 0.19  C 
BRANCH 37 38
ATOM     38  CB  PHE B1006       9.165  15.340   4.091  1.00 24.64 LIG 0.07  C 
BRANCH 38 39
ATOM     39  CG  PHE B1006       9.212  14.601   2.786  1.00 23.14 LIG-0.06  A 
ATOM     40  CD2 PHE B1006       8.873  15.239   1.599  1.00 22.25 LIG 0.01  A 
ATOM     41  CE2 PHE B1006       8.918  14.547   0.376  1.00 23.88 LIG 0.00  A 
ATOM     42  CZ  PHE B1006       9.306  13.213   0.350  1.00 22.95 LIG 0.00  A 
ATOM     43  CE1 PHE B1006       9.647  12.570   1.541  1.00 21.15 LIG 0.00  A 
ATOM     44  CD1 PHE B1006       9.598  13.264   2.742  1.00 23.85 LIG 0.01  A 
ENDBRANCH 38 39
ENDBRANCH 37 38
BRANCH 37 45
ATOM     45  C   PHE B1006       7.073  16.447   4.897  1.00 30.13 LIG 0.20  C 
ATOM     46 O    PHE B1006       6.741  15.286   5.213  1.00 31.00 LIG-0.65  OA
ATOM     47 OXT  PHE B1006       6.445  17.468   5.244  1.00 32.43 LIG-0.65  OA
ENDBRANCH 37 45
ENDBRANCH 34 37
ENDBRANCH 29 33
ENDBRANCH 1 26
BRANCH 1 48
ATOM     48  CB  SER B1004      13.813  20.850   1.102  1.00 35.03 LIG 0.20  C 
BRANCH 48 49
ATOM     49 OG   SER B1004      14.586  21.731   1.894  1.00 42.75 LIG-0.40  OA
ATOM     50 HG   SER B1004      14.638  21.432   2.677  1.00 42.75 LIG 0.21  HD
ENDBRANCH 48 49
ENDBRANCH 1 48
TORSDOF 14
ENDMDL
MODEL 28
USER: ADFR SOLUTION from run 187
USER: SCORE 13.918194 LL:  -4.515 LR: -10.036 RR:   0.000 FEB:  -5.860
USER: RMSD 4.834195
USER: SEED 186
USER: STATUS no improvement in best in 16 clusters for 5 generations
USER: GENES 16
USER: genes 0 Translation |==|  0.47421 0.38397 0.72819
USER: genes 1 Rotation |==|  0.69933 0.73980 0.61354 0.87400
USER: genes 2 Torsion [CB]-CA--N-[C] |==|  0.20159
USER: genes 3 Torsion [N]-C--CA-[N] |==|  0.93677
USER: genes 4 Torsion [N]-C--CA-[N] |==|  0.36507
USER: genes 5 Torsion [N]-C--CA-[N] |==|  0.35946
USER: genes 6 Torsion [C]-CA--CB-[CG2] |==|  0.11338
USER: genes 7 Torsion [CA]-CB--OG1-[HG1] |==|  0.36301
USER: genes 8 Torsion [N]-CA--C-[N] |==|  0.83586
USER: genes 9 Torsion [N]-CA--C-[N] |==|  0.07949
USER: genes 10 Torsion [C]-N--CA-[CB] |==|  0.31994
USER: genes 11 Torsion [N]-CA--CB-[CG] |==|  0.03032
USER: genes 12 Torsion [CA]-CB--CG-[CD1] |==|  0.72426
USER: genes 13 Torsion [N]-CA--C-[O] |==|  0.73084
USER: genes 14 Torsion [N]-CA--CB-[OG] |==|  0.46446
USER: genes 15 Torsion [CA]-CB--OG-[HG] |==|  0.12816
ROOT
ATOM      1  CA  SER B1004      11.502  17.519   3.208  1.00 32.51 LIG 0.20  C 
ENDROOT
BRANCH 1 2
ATOM      2  N   SER B1004      11.458  18.720   2.390  1.00 30.80 LIG-0.34  N 
ATOM      3 H    SER B1004      11.390  18.586   1.543  1.00 30.80 LIG 0.16  HD
ATOM      4  C   PRO B1003      11.524  19.912   2.967  1.00 29.50 LIG 0.24  C 
ATOM      5 O    PRO B1003      11.611  20.043   4.189  1.00 26.59 LIG-0.27  OA
BRANCH 4 6
ATOM      6  CA  PRO B1003      11.483  21.142   2.054  1.00 29.25 LIG 0.18  C 
ATOM      7  CB  PRO B1003      10.041  21.590   1.808  1.00 27.80 LIG 0.04  C 
ATOM      8  CG  PRO B1003       9.978  21.841   0.326  1.00 32.17 LIG 0.02  C 
ATOM      9  CD  PRO B1003      10.836  20.740  -0.244  1.00 30.31 LIG 0.13  C 
ATOM     10  N   PRO B1003      11.927  20.668   0.740  1.00 27.10 LIG-0.34  N 
ATOM     11  C   PRO B1002      13.212  20.339   0.543  1.00 28.33 LIG 0.24  C 
ATOM     12 O    PRO B1002      14.054  20.450   1.425  1.00 27.60 LIG-0.27  OA
BRANCH 11 13
ATOM     13  CA  PRO B1002      13.589  19.834  -0.844  1.00 29.68 LIG 0.18  C 
ATOM     14  N   PRO B1002      14.767  20.455  -1.452  1.00 30.07 LIG-0.34  N 
ATOM     15  CD  PRO B1002      15.759  19.426  -1.819  1.00 30.93 LIG 0.13  C 
ATOM     16  C   THR B1001      14.901  21.788  -1.717  1.00 31.77 LIG 0.26  C 
ATOM     17  CG  PRO B1002      14.905  18.198  -1.941  1.00 29.32 LIG 0.02  C 
ATOM     18  CB  PRO B1002      13.965  18.354  -0.795  1.00 30.61 LIG 0.04  C 
ATOM     19 O    THR B1001      13.993  22.572  -1.422  1.00 28.08 LIG-0.27  OA
BRANCH 16 20
ATOM     20  CA  THR B1001      16.200  22.242  -2.358  1.00 31.25 LIG 0.43  C 
ATOM     21  N   THR B1001      15.934  23.062  -3.526  1.00 31.78 LIG 0.62  N 
BRANCH 20 22
ATOM     22  CB  THR B1001      17.051  22.989  -1.330  1.00 33.83 LIG 0.16  C 
ATOM     23  CG2 THR B1001      16.984  22.293   0.021  1.00 26.93 LIG 0.04  C 
BRANCH 22 24
ATOM     24 OG1  THR B1001      18.410  23.043  -1.779  1.00 35.47 LIG-0.39  OA
ATOM     25 HG1  THR B1001      18.693  23.832  -1.723  1.00 35.47 LIG 0.21  HD
ENDBRANCH 22 24
ENDBRANCH 20 22
ENDBRANCH 16 20
ENDBRANCH 11 13
ENDBRANCH 4 6
ENDBRANCH 1 2
BRANCH 1 26
ATOM     26  C   SER B1004      11.744  16.332   2.280  1.00 31.12 LIG 0.24  C 
ATOM     27 O    SER B1004      12.711  15.601   2.444  1.00 31.43 LIG-0.27  OA
ATOM     28  N   PRO B1005      10.854  16.106   1.308  1.00 32.50 LIG-0.34  N 
ATOM     29  CA  PRO B1005       9.642  16.862   0.983  1.00 31.67 LIG 0.18  C 
ATOM     30  CD  PRO B1005      11.169  15.151   0.225  1.00 32.99 LIG 0.13  C 
ATOM     31  CB  PRO B1005       9.630  16.821  -0.532  1.00 32.97 LIG 0.04  C 
ATOM     32  CG  PRO B1005      10.046  15.405  -0.794  1.00 32.33 LIG 0.02  C 
BRANCH 29 33
ATOM     33  C   PRO B1005       8.383  16.213   1.567  1.00 31.95 LIG 0.24  C 
ATOM     34  N   PHE B1006       8.533  15.504   2.682  1.00 29.16 LIG-0.34  N 
ATOM     35 H    PHE B1006       9.279  15.408   3.100  1.00 29.16 LIG 0.16  HD
ATOM     36 O    PRO B1005       7.294  16.362   1.012  1.00 29.71 LIG-0.27  OA
BRANCH 34 37
ATOM     37  CA  PHE B1006       7.401  14.820   3.291  1.00 29.49 LIG 0.19  C 
BRANCH 37 38
ATOM     38  CB  PHE B1006       7.619  13.307   3.244  1.00 24.64 LIG 0.07  C 
BRANCH 38 39
ATOM     39  CG  PHE B1006       9.010  12.912   2.843  1.00 23.14 LIG-0.06  A 
ATOM     40  CD2 PHE B1006      10.044  12.922   3.771  1.00 22.25 LIG 0.01  A 
ATOM     41  CE2 PHE B1006      11.347  12.551   3.397  1.00 23.88 LIG 0.00  A 
ATOM     42  CZ  PHE B1006      11.607  12.168   2.087  1.00 22.95 LIG 0.00  A 
ATOM     43  CE1 PHE B1006      10.570  12.156   1.152  1.00 21.15 LIG 0.00  A 
ATOM     44  CD1 PHE B1006       9.288  12.525   1.535  1.00 23.85 LIG 0.01  A 
ENDBRANCH 38 39
ENDBRANCH 37 38
BRANCH 37 45
ATOM     45  C   PHE B1006       7.109  15.260   4.719  1.00 30.13 LIG 0.20  C 
ATOM     46 O    PHE B1006       7.570  14.563   5.645  1.00 31.00 LIG-0.65  OA
ATOM     47 OXT  PHE B1006       6.431  16.293   4.897  1.00 32.43 LIG-0.65  OA
ENDBRANCH 37 45
ENDBRANCH 34 37
ENDBRANCH 29 33
ENDBRANCH 1 26
BRANCH 1 48
ATOM     48  CB  SER B1004      10.186  17.348   3.967  1.00 35.03 LIG 0.20  C 
BRANCH 48 49
ATOM     49 OG   SER B1004      10.117  16.049   4.522  1.00 42.75 LIG-0.40  OA
ATOM     50 HG   SER B1004      10.846  15.865   4.897  1.00 42.75 LIG 0.21  HD
ENDBRANCH 48 49
ENDBRANCH 1 48
TORSDOF 14
ENDMDL
MODEL 29
USER: ADFR SOLUTION from run 140
USER: SCORE 13.120565 LL:  -4.527 LR: -10.009 RR:   0.000 FEB:  -5.833
USER: RMSD 6.697700
USER: SEED 139
USER: STATUS no improvement in best in 12 clusters for 5 generations
USER: GENES 16
USER: genes 0 Translation |==|  0.38833 0.53217 0.83809
USER: genes 1 Rotation |==|  0.64973 0.72028 0.74848 0.84251
USER: genes 2 Torsion [CB]-CA--N-[C] |==|  0.38917
USER: genes 3 Torsion [N]-C--CA-[N] |==|  0.73116
USER: genes 4 Torsion [N]-C--CA-[N] |==|  0.45605
USER: genes 5 Torsion [N]-C--CA-[N] |==|  0.35895
USER: genes 6 Torsion [C]-CA--CB-[CG2] |==|  0.04917
USER: genes 7 Torsion [CA]-CB--OG1-[HG1] |==|  0.75383
USER: genes 8 Torsion [N]-CA--C-[N] |==|  0.83434
USER: genes 9 Torsion [N]-CA--C-[N] |==|  0.03751
USER: genes 10 Torsion [C]-N--CA-[CB] |==|  0.37184
USER: genes 11 Torsion [N]-CA--CB-[CG] |==|  0.94817
USER: genes 12 Torsion [CA]-CB--CG-[CD1] |==|  0.25610
USER: genes 13 Torsion [N]-CA--C-[O] |==|  0.07417
USER: genes 14 Torsion [N]-CA--CB-[OG] |==|  0.94677
USER: genes 15 Torsion [CA]-CB--OG-[HG] |==|  0.81718
ROOT
ATOM      1  CA  SER B1004       9.892  20.743   5.104  1.00 32.51 LIG 0.20  C 
ENDROOT
BRANCH 1 2
ATOM      2  N   SER B1004       9.423  21.949   4.441  1.00 30.80 LIG-0.34  N 
ATOM      3 H    SER B1004       8.797  21.831   3.862  1.00 30.80 LIG 0.16  HD
ATOM      4  C   PRO B1003       9.962  23.120   4.748  1.00 29.50 LIG 0.24  C 
ATOM      5 O    PRO B1003      10.851  23.229   5.596  1.00 26.59 LIG-0.27  OA
BRANCH 4 6
ATOM      6  CA  PRO B1003       9.436  24.355   4.011  1.00 29.25 LIG 0.18  C 
ATOM      7  CB  PRO B1003       8.117  24.046   3.301  1.00 27.80 LIG 0.04  C 
ATOM      8  CG  PRO B1003       8.283  24.645   1.931  1.00 32.17 LIG 0.02  C 
ATOM      9  CD  PRO B1003       9.728  24.364   1.608  1.00 30.31 LIG 0.13  C 
ATOM     10  N   PRO B1003      10.377  24.583   2.910  1.00 27.10 LIG-0.34  N 
ATOM     11  C   PRO B1002      11.613  25.037   3.165  1.00 28.33 LIG 0.24  C 
ATOM     12 O    PRO B1002      11.986  25.304   4.300  1.00 27.60 LIG-0.27  OA
BRANCH 11 13
ATOM     13  CA  PRO B1002      12.537  25.225   1.968  1.00 29.68 LIG 0.18  C 
ATOM     14  N   PRO B1002      13.728  26.044   2.205  1.00 30.07 LIG-0.34  N 
ATOM     15  CD  PRO B1002      14.947  25.290   1.855  1.00 30.93 LIG 0.13  C 
ATOM     16  C   THR B1001      13.714  27.347   2.613  1.00 31.77 LIG 0.26  C 
ATOM     17  CG  PRO B1002      14.417  24.267   0.894  1.00 29.32 LIG 0.02  C 
ATOM     18  CB  PRO B1002      13.122  23.886   1.522  1.00 30.61 LIG 0.04  C 
ATOM     19 O    THR B1001      12.640  27.916   2.832  1.00 28.08 LIG-0.27  OA
BRANCH 16 20
ATOM     20  CA  THR B1001      15.057  28.032   2.798  1.00 31.25 LIG 0.43  C 
ATOM     21  N   THR B1001      15.085  29.300   2.091  1.00 31.78 LIG 0.62  N 
BRANCH 20 22
ATOM     22  CB  THR B1001      15.343  28.214   4.289  1.00 33.83 LIG 0.16  C 
ATOM     23  CG2 THR B1001      14.454  27.298   5.116  1.00 26.93 LIG 0.04  C 
BRANCH 22 24
ATOM     24 OG1  THR B1001      16.720  27.918   4.553  1.00 35.47 LIG-0.39  OA
ATOM     25 HG1  THR B1001      16.805  27.098   4.714  1.00 35.47 LIG 0.21  HD
ENDBRANCH 22 24
ENDBRANCH 20 22
ENDBRANCH 16 20
ENDBRANCH 11 13
ENDBRANCH 4 6
ENDBRANCH 1 2
BRANCH 1 26
ATOM     26  C   SER B1004      10.875  20.047   4.166  1.00 31.12 LIG 0.24  C 
ATOM     27 O    SER B1004      12.024  19.825   4.522  1.00 31.43 LIG-0.27  OA
ATOM     28  N   PRO B1005      10.430  19.668   2.962  1.00 32.50 LIG-0.34  N 
ATOM     29  CA  PRO B1005       9.094  19.837   2.386  1.00 31.67 LIG 0.18  C 
ATOM     30  CD  PRO B1005      11.388  19.242   1.922  1.00 32.99 LIG 0.13  C 
ATOM     31  CB  PRO B1005       9.404  20.145   0.934  1.00 32.97 LIG 0.04  C 
ATOM     32  CG  PRO B1005      10.517  19.180   0.657  1.00 32.33 LIG 0.02  C 
BRANCH 29 33
ATOM     33  C   PRO B1005       8.245  18.569   2.517  1.00 31.95 LIG 0.24  C 
ATOM     34  N   PHE B1006       8.691  17.628   3.344  1.00 29.16 LIG-0.34  N 
ATOM     35 H    PHE B1006       9.406  17.697   3.817  1.00 29.16 LIG 0.16  HD
ATOM     36 O    PRO B1005       7.197  18.455   1.879  1.00 29.71 LIG-0.27  OA
BRANCH 34 37
ATOM     37  CA  PHE B1006       7.971  16.373   3.505  1.00 29.49 LIG 0.19  C 
BRANCH 37 38
ATOM     38  CB  PHE B1006       8.949  15.199   3.446  1.00 24.64 LIG 0.07  C 
BRANCH 38 39
ATOM     39  CG  PHE B1006      10.267  15.544   2.814  1.00 23.14 LIG-0.06  A 
ATOM     40  CD2 PHE B1006      10.439  15.444   1.439  1.00 22.25 LIG 0.01  A 
ATOM     41  CE2 PHE B1006      11.672  15.768   0.846  1.00 23.88 LIG 0.00  A 
ATOM     42  CZ  PHE B1006      12.730  16.193   1.640  1.00 22.95 LIG 0.00  A 
ATOM     43  CE1 PHE B1006      12.560  16.293   3.022  1.00 21.15 LIG 0.00  A 
ATOM     44  CD1 PHE B1006      11.337  15.971   3.595  1.00 23.85 LIG 0.01  A 
ENDBRANCH 38 39
ENDBRANCH 37 38
BRANCH 37 45
ATOM     45  C   PHE B1006       7.144  16.296   4.781  1.00 30.13 LIG 0.20  C 
ATOM     46 O    PHE B1006       6.736  17.369   5.272  1.00 31.00 LIG-0.65  OA
ATOM     47 OXT  PHE B1006       6.908  15.173   5.272  1.00 32.43 LIG-0.65  OA
ENDBRANCH 37 45
ENDBRANCH 34 37
ENDBRANCH 29 33
ENDBRANCH 1 26
BRANCH 1 48
ATOM     48  CB  SER B1004       8.714  19.822   5.424  1.00 35.03 LIG 0.20  C 
BRANCH 48 49
ATOM     49 OG   SER B1004       7.507  20.560   5.398  1.00 42.75 LIG-0.40  OA
ATOM     50 HG   SER B1004       7.510  21.122   6.022  1.00 42.75 LIG 0.21  HD
ENDBRANCH 48 49
ENDBRANCH 1 48
TORSDOF 14
ENDMDL
MODEL 30
USER: ADFR SOLUTION from run 88
USER: SCORE 13.351999 LL:  -3.940 LR: -10.003 RR:   0.000 FEB:  -5.827
USER: RMSD 5.665386
USER: SEED 87
USER: STATUS no improvement in best in 30 clusters for 5 generations
USER: GENES 16
USER: genes 0 Translation |==|  0.48459 0.39098 0.65313
USER: genes 1 Rotation |==|  0.69944 0.43918 0.06595 0.63463
USER: genes 2 Torsion [CB]-CA--N-[C] |==|  0.51111
USER: genes 3 Torsion [N]-C--CA-[N] |==|  0.98027
USER: genes 4 Torsion [N]-C--CA-[N] |==|  0.39092
USER: genes 5 Torsion [N]-C--CA-[N] |==|  0.86820
USER: genes 6 Torsion [C]-CA--CB-[CG2] |==|  0.25657
USER: genes 7 Torsion [CA]-CB--OG1-[HG1] |==|  0.55375
USER: genes 8 Torsion [N]-CA--C-[N] |==|  0.37952
USER: genes 9 Torsion [N]-CA--C-[N] |==|  0.21332
USER: genes 10 Torsion [C]-N--CA-[CB] |==|  0.47676
USER: genes 11 Torsion [N]-CA--CB-[CG] |==|  0.14149
USER: genes 12 Torsion [CA]-CB--CG-[CD1] |==|  0.28678
USER: genes 13 Torsion [N]-CA--C-[O] |==|  0.82939
USER: genes 14 Torsion [N]-CA--CB-[OG] |==|  0.79360
USER: genes 15 Torsion [CA]-CB--OG-[HG] |==|  0.71098
ROOT
ATOM      1  CA  SER B1004      11.697  17.672   1.913  1.00 32.51 LIG 0.20  C 
ENDROOT
BRANCH 1 2
ATOM      2  N   SER B1004      11.529  16.925   0.677  1.00 30.80 LIG-0.34  N 
ATOM      3 H    SER B1004      12.258  16.677   0.295  1.00 30.80 LIG 0.16  HD
ATOM      4  C   PRO B1003      10.310  16.677   0.220  1.00 29.50 LIG 0.24  C 
ATOM      5 O    PRO B1003       9.298  17.050   0.817  1.00 26.59 LIG-0.27  OA
BRANCH 4 6
ATOM      6  CA  PRO B1003      10.193  15.895  -1.092  1.00 29.25 LIG 0.18  C 
ATOM      7  CB  PRO B1003       9.771  14.448  -0.829  1.00 27.80 LIG 0.04  C 
ATOM      8  CG  PRO B1003      10.693  13.630  -1.691  1.00 32.17 LIG 0.02  C 
ATOM      9  CD  PRO B1003      12.005  14.366  -1.584  1.00 30.31 LIG 0.13  C 
ATOM     10  N   PRO B1003      11.564  15.770  -1.595  1.00 27.10 LIG-0.34  N 
ATOM     11  C   PRO B1002      12.202  16.845  -2.082  1.00 28.33 LIG 0.24  C 
ATOM     12 O    PRO B1002      11.666  17.943  -2.152  1.00 27.60 LIG-0.27  OA
BRANCH 11 13
ATOM     13  CA  PRO B1002      13.632  16.636  -2.564  1.00 29.68 LIG 0.18  C 
ATOM     14  N   PRO B1002      14.007  17.359  -3.781  1.00 30.07 LIG-0.34  N 
ATOM     15  CD  PRO B1002      15.194  18.200  -3.534  1.00 30.93 LIG 0.13  C 
ATOM     16  C   THR B1001      13.399  17.217  -4.995  1.00 31.77 LIG 0.26  C 
ATOM     17  CG  PRO B1002      15.820  17.518  -2.353  1.00 29.32 LIG 0.02  C 
ATOM     18  CB  PRO B1002      14.631  17.157  -1.531  1.00 30.61 LIG 0.04  C 
ATOM     19 O    THR B1001      12.441  16.447  -5.121  1.00 28.08 LIG-0.27  OA
BRANCH 16 20
ATOM     20  CA  THR B1001      13.936  18.051  -6.144  1.00 31.25 LIG 0.43  C 
ATOM     21  N   THR B1001      14.107  19.434  -5.735  1.00 31.78 LIG 0.62  N 
BRANCH 20 22
ATOM     22  CB  THR B1001      15.248  17.449  -6.650  1.00 33.83 LIG 0.16  C 
ATOM     23  CG2 THR B1001      14.981  16.479  -7.790  1.00 26.93 LIG 0.04  C 
BRANCH 22 24
ATOM     24 OG1  THR B1001      16.115  18.497  -7.100  1.00 35.47 LIG-0.39  OA
ATOM     25 HG1  THR B1001      16.701  18.177  -7.608  1.00 35.47 LIG 0.21  HD
ENDBRANCH 22 24
ENDBRANCH 20 22
ENDBRANCH 16 20
ENDBRANCH 11 13
ENDBRANCH 4 6
ENDBRANCH 1 2
BRANCH 1 26
ATOM     26  C   SER B1004      10.953  18.996   1.763  1.00 31.12 LIG 0.24  C 
ATOM     27 O    SER B1004      11.016  19.630   0.719  1.00 31.43 LIG-0.27  OA
ATOM     28  N   PRO B1005      10.214  19.420   2.795  1.00 32.50 LIG-0.34  N 
ATOM     29  CA  PRO B1005      10.015  18.784   4.099  1.00 31.67 LIG 0.18  C 
ATOM     30  CD  PRO B1005       9.697  20.804   2.814  1.00 32.99 LIG 0.13  C 
ATOM     31  CB  PRO B1005       9.989  19.973   5.039  1.00 32.97 LIG 0.04  C 
ATOM     32  CG  PRO B1005       9.176  20.956   4.252  1.00 32.33 LIG 0.02  C 
BRANCH 29 33
ATOM     33  C   PRO B1005       8.702  17.996   4.162  1.00 31.95 LIG 0.24  C 
ATOM     34  N   PHE B1006       8.680  16.813   3.555  1.00 29.16 LIG-0.34  N 
ATOM     35 H    PHE B1006       9.355  16.461   3.154  1.00 29.16 LIG 0.16  HD
ATOM     36 O    PRO B1005       7.729  18.458   4.758  1.00 29.71 LIG-0.27  OA
BRANCH 34 37
ATOM     37  CA  PHE B1006       7.467  16.009   3.529  1.00 29.49 LIG 0.19  C 
BRANCH 37 38
ATOM     38  CB  PHE B1006       7.656  14.809   2.599  1.00 24.64 LIG 0.07  C 
BRANCH 38 39
ATOM     39  CG  PHE B1006       8.903  14.021   2.879  1.00 23.14 LIG-0.06  A 
ATOM     40  CD2 PHE B1006      10.144  14.494   2.470  1.00 22.25 LIG 0.01  A 
ATOM     41  CE2 PHE B1006      11.313  13.757   2.732  1.00 23.88 LIG 0.00  A 
ATOM     42  CZ  PHE B1006      11.229  12.546   3.407  1.00 22.95 LIG 0.00  A 
ATOM     43  CE1 PHE B1006       9.983  12.068   3.818  1.00 21.15 LIG 0.00  A 
ATOM     44  CD1 PHE B1006       8.837  12.805   3.553  1.00 23.85 LIG 0.01  A 
ENDBRANCH 38 39
ENDBRANCH 37 38
BRANCH 37 45
ATOM     45  C   PHE B1006       7.010  15.536   4.902  1.00 30.13 LIG 0.20  C 
ATOM     46 O    PHE B1006       7.784  14.799   5.547  1.00 31.00 LIG-0.65  OA
ATOM     47 OXT  PHE B1006       5.895  15.908   5.320  1.00 32.43 LIG-0.65  OA
ENDBRANCH 37 45
ENDBRANCH 34 37
ENDBRANCH 29 33
ENDBRANCH 1 26
BRANCH 1 48
ATOM     48  CB  SER B1004      13.181  17.918   2.185  1.00 35.03 LIG 0.20  C 
BRANCH 48 49
ATOM     49 OG   SER B1004      13.795  16.722   2.622  1.00 42.75 LIG-0.40  OA
ATOM     50 HG   SER B1004      13.922  16.759   3.452  1.00 42.75 LIG 0.21  HD
ENDBRANCH 48 49
ENDBRANCH 1 48
TORSDOF 14
ENDMDL
MODEL 31
USER: ADFR SOLUTION from run 123
USER: SCORE 12.558965 LL:  -3.114 LR:  -9.887 RR:   0.000 FEB:  -5.711
USER: RMSD 6.304736
USER: SEED 122
USER: STATUS no improvement in best in 9 clusters for 5 generations
USER: GENES 16
USER: genes 0 Translation |==|  0.44795 0.21029 0.60612
USER: genes 1 Rotation |==|  0.42616 0.28887 0.76157 0.86270
USER: genes 2 Torsion [CB]-CA--N-[C] |==|  0.53889
USER: genes 3 Torsion [N]-C--CA-[N] |==|  0.03527
USER: genes 4 Torsion [N]-C--CA-[N] |==|  0.27746
USER: genes 5 Torsion [N]-C--CA-[N] |==|  0.18275
USER: genes 6 Torsion [C]-CA--CB-[CG2] |==|  0.50942
USER: genes 7 Torsion [CA]-CB--OG1-[HG1] |==|  0.55080
USER: genes 8 Torsion [N]-CA--C-[N] |==|  0.36393
USER: genes 9 Torsion [N]-CA--C-[N] |==|  0.42715
USER: genes 10 Torsion [C]-N--CA-[CB] |==|  0.84241
USER: genes 11 Torsion [N]-CA--CB-[CG] |==|  0.89792
USER: genes 12 Torsion [CA]-CB--CG-[CD1] |==|  0.35183
USER: genes 13 Torsion [N]-CA--C-[O] |==|  0.49845
USER: genes 14 Torsion [N]-CA--CB-[OG] |==|  0.07428
USER: genes 15 Torsion [CA]-CB--OG-[HG] |==|  0.10058
ROOT
ATOM      1  CA  SER B1004      11.010  13.742   1.103  1.00 32.51 LIG 0.20  C 
ENDROOT
BRANCH 1 2
ATOM      2  N   SER B1004      11.635  15.044   1.269  1.00 30.80 LIG-0.34  N 
ATOM      3 H    SER B1004      11.933  15.404   0.547  1.00 30.80 LIG 0.16  HD
ATOM      4  C   PRO B1003      11.712  15.587   2.476  1.00 29.50 LIG 0.24  C 
ATOM      5 O    PRO B1003      11.257  15.027   3.475  1.00 26.59 LIG-0.27  OA
BRANCH 4 6
ATOM      6  CA  PRO B1003      12.390  16.956   2.593  1.00 29.25 LIG 0.18  C 
ATOM      7  CB  PRO B1003      11.457  17.971   3.256  1.00 27.80 LIG 0.04  C 
ATOM      8  CG  PRO B1003      11.575  19.201   2.397  1.00 32.17 LIG 0.02  C 
ATOM      9  CD  PRO B1003      11.675  18.636   1.002  1.00 30.31 LIG 0.13  C 
ATOM     10  N   PRO B1003      12.516  17.448   1.217  1.00 27.10 LIG-0.34  N 
ATOM     11  C   PRO B1002      13.396  16.881   0.379  1.00 28.33 LIG 0.24  C 
ATOM     12 O    PRO B1002      14.136  15.971   0.731  1.00 27.60 LIG-0.27  OA
BRANCH 11 13
ATOM     13  CA  PRO B1002      13.450  17.435  -1.039  1.00 29.68 LIG 0.18  C 
ATOM     14  N   PRO B1002      14.538  18.375  -1.316  1.00 30.07 LIG-0.34  N 
ATOM     15  CD  PRO B1002      15.345  17.905  -2.458  1.00 30.93 LIG 0.13  C 
ATOM     16  C   THR B1001      14.734  19.560  -0.666  1.00 31.77 LIG 0.26  C 
ATOM     17  CG  PRO B1002      14.379  17.007  -3.175  1.00 29.32 LIG 0.02  C 
ATOM     18  CB  PRO B1002      13.697  16.314  -2.047  1.00 30.61 LIG 0.04  C 
ATOM     19 O    THR B1001      13.974  19.899   0.246  1.00 28.08 LIG-0.27  OA
BRANCH 16 20
ATOM     20  CA  THR B1001      15.919  20.404  -1.101  1.00 31.25 LIG 0.43  C 
ATOM     21  N   THR B1001      15.735  20.879  -2.461  1.00 31.78 LIG 0.62  N 
BRANCH 20 22
ATOM     22  CB  THR B1001      16.115  21.563  -0.123  1.00 33.83 LIG 0.16  C 
ATOM     23  CG2 THR B1001      17.246  22.466  -0.590  1.00 26.93 LIG 0.04  C 
BRANCH 22 24
ATOM     24 OG1  THR B1001      14.902  22.318  -0.025  1.00 35.47 LIG-0.39  OA
ATOM     25 HG1  THR B1001      15.068  23.075   0.299  1.00 35.47 LIG 0.21  HD
ENDBRANCH 22 24
ENDBRANCH 20 22
ENDBRANCH 16 20
ENDBRANCH 11 13
ENDBRANCH 4 6
ENDBRANCH 1 2
BRANCH 1 26
ATOM     26  C   SER B1004      11.541  12.826   2.203  1.00 31.12 LIG 0.24  C 
ATOM     27 O    SER B1004      12.740  12.764   2.436  1.00 31.43 LIG-0.27  OA
ATOM     28  N   PRO B1005      10.653  12.123   2.915  1.00 32.50 LIG-0.34  N 
ATOM     29  CA  PRO B1005       9.194  12.092   2.784  1.00 31.67 LIG 0.18  C 
ATOM     30  CD  PRO B1005      11.112  11.031   3.797  1.00 32.99 LIG 0.13  C 
ATOM     31  CB  PRO B1005       8.876  10.633   3.043  1.00 32.97 LIG 0.04  C 
ATOM     32  CG  PRO B1005       9.802  10.325   4.181  1.00 32.33 LIG 0.02  C 
BRANCH 29 33
ATOM     33  C   PRO B1005       8.504  13.003   3.804  1.00 31.95 LIG 0.24  C 
ATOM     34  N   PHE B1006       7.306  13.477   3.475  1.00 29.16 LIG-0.34  N 
ATOM     35 H    PHE B1006       6.893  13.289   2.744  1.00 29.16 LIG 0.16  HD
ATOM     36 O    PRO B1005       9.054  13.263   4.876  1.00 29.71 LIG-0.27  OA
BRANCH 34 37
ATOM     37  CA  PHE B1006       6.589  14.380   4.365  1.00 29.49 LIG 0.19  C 
BRANCH 37 38
ATOM     38  CB  PHE B1006       6.407  13.727   5.735  1.00 24.64 LIG 0.07  C 
BRANCH 38 39
ATOM     39  CG  PHE B1006       6.150  12.250   5.669  1.00 23.14 LIG-0.06  A 
ATOM     40  CD2 PHE B1006       5.125  11.745   4.877  1.00 22.25 LIG 0.01  A 
ATOM     41  CE2 PHE B1006       4.883  10.362   4.814  1.00 23.88 LIG 0.00  A 
ATOM     42  CZ  PHE B1006       5.676   9.488   5.547  1.00 22.95 LIG 0.00  A 
ATOM     43  CE1 PHE B1006       6.707   9.991   6.343  1.00 21.15 LIG 0.00  A 
ATOM     44  CD1 PHE B1006       6.935  11.359   6.397  1.00 23.85 LIG 0.01  A 
ENDBRANCH 38 39
ENDBRANCH 37 38
BRANCH 37 45
ATOM     45  C   PHE B1006       7.249  15.744   4.522  1.00 30.13 LIG 0.20  C 
ATOM     46 O    PHE B1006       6.686  16.577   5.262  1.00 31.00 LIG-0.65  OA
ATOM     47 OXT  PHE B1006       8.316  15.963   3.913  1.00 32.43 LIG-0.65  OA
ENDBRANCH 37 45
ENDBRANCH 34 37
ENDBRANCH 29 33
ENDBRANCH 1 26
BRANCH 1 48
ATOM     48  CB  SER B1004      11.339  13.169  -0.276  1.00 35.03 LIG 0.20  C 
BRANCH 48 49
ATOM     49 OG   SER B1004      12.569  13.696  -0.735  1.00 42.75 LIG-0.40  OA
ATOM     50 HG   SER B1004      13.094  13.785  -0.086  1.00 42.75 LIG 0.21  HD
ENDBRANCH 48 49
ENDBRANCH 1 48
TORSDOF 14
ENDMDL
MODEL 32
USER: ADFR SOLUTION from run 57
USER: SCORE 12.788835 LL:  -4.215 LR:  -9.887 RR:   0.000 FEB:  -5.711
USER: RMSD 9.720379
USER: SEED 56
USER: STATUS no improvement in best in 19 clusters for 5 generations
USER: GENES 16
USER: genes 0 Translation |==|  0.62594 0.35802 0.38351
USER: genes 1 Rotation |==|  0.74605 0.34978 0.90077 0.57920
USER: genes 2 Torsion [CB]-CA--N-[C] |==|  0.48212
USER: genes 3 Torsion [N]-C--CA-[N] |==|  0.41975
USER: genes 4 Torsion [N]-C--CA-[N] |==|  0.28621
USER: genes 5 Torsion [N]-C--CA-[N] |==|  0.24786
USER: genes 6 Torsion [C]-CA--CB-[CG2] |==|  0.31170
USER: genes 7 Torsion [CA]-CB--OG1-[HG1] |==|  0.25131
USER: genes 8 Torsion [N]-CA--C-[N] |==|  0.87053
USER: genes 9 Torsion [N]-CA--C-[N] |==|  0.99554
USER: genes 10 Torsion [C]-N--CA-[CB] |==|  0.18691
USER: genes 11 Torsion [N]-CA--CB-[CG] |==|  0.14910
USER: genes 12 Torsion [CA]-CB--CG-[CD1] |==|  0.71022
USER: genes 13 Torsion [N]-CA--C-[O] |==|  0.07993
USER: genes 14 Torsion [N]-CA--CB-[OG] |==|  0.46887
USER: genes 15 Torsion [CA]-CB--OG-[HG] |==|  0.66166
ROOT
ATOM      1  CA  SER B1004      14.347  16.955  -2.738  1.00 32.51 LIG 0.20  C 
ENDROOT
BRANCH 1 2
ATOM      2  N   SER B1004      13.265  17.311  -1.835  1.00 30.80 LIG-0.34  N 
ATOM      3 H    SER B1004      12.597  17.712  -2.201  1.00 30.80 LIG 0.16  HD
ATOM      4  C   PRO B1003      13.358  17.014  -0.547  1.00 29.50 LIG 0.24  C 
ATOM      5 O    PRO B1003      14.337  16.429  -0.079  1.00 26.59 LIG-0.27  OA
BRANCH 4 6
ATOM      6  CA  PRO B1003      12.191  17.422   0.359  1.00 29.25 LIG 0.18  C 
ATOM      7  CB  PRO B1003      12.488  18.745   1.067  1.00 27.80 LIG 0.04  C 
ATOM      8  CG  PRO B1003      12.086  18.500   2.496  1.00 32.17 LIG 0.02  C 
ATOM      9  CD  PRO B1003      12.516  17.074   2.733  1.00 30.31 LIG 0.13  C 
ATOM     10  N   PRO B1003      12.181  16.441   1.447  1.00 27.10 LIG-0.34  N 
ATOM     11  C   PRO B1002      11.793  15.179   1.211  1.00 28.33 LIG 0.24  C 
ATOM     12 O    PRO B1002      11.411  14.812   0.107  1.00 27.60 LIG-0.27  OA
BRANCH 11 13
ATOM     13  CA  PRO B1002      11.832  14.215   2.390  1.00 29.68 LIG 0.18  C 
ATOM     14  N   PRO B1002      10.539  13.908   3.007  1.00 30.07 LIG-0.34  N 
ATOM     15  CD  PRO B1002      10.307  12.451   3.013  1.00 30.93 LIG 0.13  C 
ATOM     16  C   THR B1001       9.702  14.828   3.570  1.00 31.77 LIG 0.26  C 
ATOM     17  CG  PRO B1002      11.703  11.910   2.921  1.00 29.32 LIG 0.02  C 
ATOM     18  CB  PRO B1002      12.338  12.842   1.948  1.00 30.61 LIG 0.04  C 
ATOM     19 O    THR B1001      10.005  16.025   3.566  1.00 28.08 LIG-0.27  OA
BRANCH 16 20
ATOM     20  CA  THR B1001       8.404  14.313   4.166  1.00 31.25 LIG 0.43  C 
ATOM     21  N   THR B1001       8.590  13.952   5.560  1.00 31.78 LIG 0.62  N 
BRANCH 20 22
ATOM     22  CB  THR B1001       7.306  15.365   4.000  1.00 33.83 LIG 0.16  C 
ATOM     23  CG2 THR B1001       6.248  14.877   3.023  1.00 26.93 LIG 0.04  C 
BRANCH 22 24
ATOM     24 OG1  THR B1001       6.703  15.634   5.272  1.00 35.47 LIG-0.39  OA
ATOM     25 HG1  THR B1001       7.111  16.264   5.647  1.00 35.47 LIG 0.21  HD
ENDBRANCH 22 24
ENDBRANCH 20 22
ENDBRANCH 16 20
ENDBRANCH 11 13
ENDBRANCH 4 6
ENDBRANCH 1 2
BRANCH 1 26
ATOM     26  C   SER B1004      15.573  17.774  -2.341  1.00 31.12 LIG 0.24  C 
ATOM     27 O    SER B1004      16.673  17.246  -2.256  1.00 31.43 LIG-0.27  OA
ATOM     28  N   PRO B1005      15.406  19.083  -2.119  1.00 32.50 LIG-0.34  N 
ATOM     29  CA  PRO B1005      14.175  19.874  -2.193  1.00 31.67 LIG 0.18  C 
ATOM     30  CD  PRO B1005      16.482  19.866  -1.478  1.00 32.99 LIG 0.13  C 
ATOM     31  CB  PRO B1005      14.341  20.840  -1.037  1.00 32.97 LIG 0.04  C 
ATOM     32  CG  PRO B1005      15.790  21.201  -1.156  1.00 32.33 LIG 0.02  C 
BRANCH 29 33
ATOM     33  C   PRO B1005      14.047  20.618  -3.526  1.00 31.95 LIG 0.24  C 
ATOM     34  N   PHE B1006      15.047  20.480  -4.392  1.00 29.16 LIG-0.34  N 
ATOM     35 H    PHE B1006      15.740  19.988  -4.259  1.00 29.16 LIG 0.16  HD
ATOM     36 O    PRO B1005      13.050  21.302  -3.761  1.00 29.71 LIG-0.27  OA
BRANCH 34 37
ATOM     37  CA  PHE B1006      15.031  21.178  -5.669  1.00 29.49 LIG 0.19  C 
BRANCH 37 38
ATOM     38  CB  PHE B1006      15.159  22.685  -5.441  1.00 24.64 LIG 0.07  C 
BRANCH 38 39
ATOM     39  CG  PHE B1006      16.346  23.070  -4.607  1.00 23.14 LIG-0.06  A 
ATOM     40  CD2 PHE B1006      17.625  23.058  -5.150  1.00 22.25 LIG 0.01  A 
ATOM     41  CE2 PHE B1006      18.738  23.418  -4.370  1.00 23.88 LIG 0.00  A 
ATOM     42  CZ  PHE B1006      18.560  23.792  -3.044  1.00 22.95 LIG 0.00  A 
ATOM     43  CE1 PHE B1006      17.276  23.805  -2.496  1.00 21.15 LIG 0.00  A 
ATOM     44  CD1 PHE B1006      16.186  23.446  -3.276  1.00 23.85 LIG 0.01  A 
ENDBRANCH 38 39
ENDBRANCH 37 38
BRANCH 37 45
ATOM     45  C   PHE B1006      16.102  20.707  -6.643  1.00 30.13 LIG 0.20  C 
ATOM     46 O    PHE B1006      16.486  19.522  -6.553  1.00 31.00 LIG-0.65  OA
ATOM     47 OXT  PHE B1006      16.541  21.518  -7.485  1.00 32.43 LIG-0.65  OA
ENDBRANCH 37 45
ENDBRANCH 34 37
ENDBRANCH 29 33
ENDBRANCH 1 26
BRANCH 1 48
ATOM     48  CB  SER B1004      13.950  17.251  -4.184  1.00 35.03 LIG 0.20  C 
BRANCH 48 49
ATOM     49 OG   SER B1004      15.083  17.148  -5.024  1.00 42.75 LIG-0.40  OA
ATOM     50 HG   SER B1004      15.202  17.878  -5.424  1.00 42.75 LIG 0.21  HD
ENDBRANCH 48 49
ENDBRANCH 1 48
TORSDOF 14
ENDMDL
MODEL 33
USER: ADFR SOLUTION from run 164
USER: SCORE 12.936103 LL:  -3.702 LR:  -9.881 RR:   0.000 FEB:  -5.705
USER: RMSD 5.530930
USER: SEED 163
USER: STATUS no improvement in best in 9 clusters for 5 generations
USER: GENES 16
USER: genes 0 Translation |==|  0.51948 0.26448 0.67599
USER: genes 1 Rotation |==|  0.69855 0.81019 0.62920 0.81251
USER: genes 2 Torsion [CB]-CA--N-[C] |==|  0.21109
USER: genes 3 Torsion [N]-C--CA-[N] |==|  0.87706
USER: genes 4 Torsion [N]-C--CA-[N] |==|  0.40558
USER: genes 5 Torsion [N]-C--CA-[N] |==|  0.31881
USER: genes 6 Torsion [C]-CA--CB-[CG2] |==|  0.09554
USER: genes 7 Torsion [CA]-CB--OG1-[HG1] |==|  0.28630
USER: genes 8 Torsion [N]-CA--C-[N] |==|  0.85287
USER: genes 9 Torsion [N]-CA--C-[N] |==|  0.27052
USER: genes 10 Torsion [C]-N--CA-[CB] |==|  0.12658
USER: genes 11 Torsion [N]-CA--CB-[CG] |==|  0.20500
USER: genes 12 Torsion [CA]-CB--CG-[CD1] |==|  0.83236
USER: genes 13 Torsion [N]-CA--C-[O] |==|  0.55032
USER: genes 14 Torsion [N]-CA--CB-[OG] |==|  0.88237
USER: genes 15 Torsion [CA]-CB--OG-[HG] |==|  0.69036
ROOT
ATOM      1  CA  SER B1004      12.351  14.920   2.308  1.00 32.51 LIG 0.20  C 
ENDROOT
BRANCH 1 2
ATOM      2  N   SER B1004      11.817  16.104   1.654  1.00 30.80 LIG-0.34  N 
ATOM      3 H    SER B1004      11.481  15.973   0.872  1.00 30.80 LIG 0.16  HD
ATOM      4  C   PRO B1003      11.874  17.277   2.268  1.00 29.50 LIG 0.24  C 
ATOM      5 O    PRO B1003      12.358  17.403   3.395  1.00 26.59 LIG-0.27  OA
BRANCH 4 6
ATOM      6  CA  PRO B1003      11.304  18.491   1.527  1.00 29.25 LIG 0.18  C 
ATOM      7  CB  PRO B1003       9.787  18.375   1.375  1.00 27.80 LIG 0.04  C 
ATOM      8  CG  PRO B1003       9.528  18.748  -0.059  1.00 32.17 LIG 0.02  C 
ATOM      9  CD  PRO B1003      10.696  18.134  -0.789  1.00 30.31 LIG 0.13  C 
ATOM     10  N   PRO B1003      11.800  18.376   0.152  1.00 27.10 LIG-0.34  N 
ATOM     11  C   PRO B1002      13.096  18.592  -0.115  1.00 28.33 LIG 0.24  C 
ATOM     12 O    PRO B1002      13.894  18.918   0.755  1.00 27.60 LIG-0.27  OA
BRANCH 11 13
ATOM     13  CA  PRO B1002      13.536  18.432  -1.565  1.00 29.68 LIG 0.18  C 
ATOM     14  N   PRO B1002      14.601  19.332  -2.012  1.00 30.07 LIG-0.34  N 
ATOM     15  CD  PRO B1002      15.736  18.558  -2.550  1.00 30.93 LIG 0.13  C 
ATOM     16  C   THR B1001      14.526  20.696  -2.010  1.00 31.77 LIG 0.26  C 
ATOM     17  CG  PRO B1002      15.081  17.262  -2.928  1.00 29.32 LIG 0.02  C 
ATOM     18  CB  PRO B1002      14.137  17.046  -1.796  1.00 30.61 LIG 0.04  C 
ATOM     19 O    THR B1001      13.511  21.259  -1.589  1.00 28.08 LIG-0.27  OA
BRANCH 16 20
ATOM     20  CA  THR B1001      15.735  21.459  -2.520  1.00 31.25 LIG 0.43  C 
ATOM     21  N   THR B1001      15.406  22.184  -3.734  1.00 31.78 LIG 0.62  N 
BRANCH 20 22
ATOM     22  CB  THR B1001      16.253  22.396  -1.429  1.00 33.83 LIG 0.16  C 
ATOM     23  CG2 THR B1001      16.064  21.769  -0.056  1.00 26.93 LIG 0.04  C 
BRANCH 22 24
ATOM     24 OG1  THR B1001      17.643  22.668  -1.649  1.00 35.47 LIG-0.39  OA
ATOM     25 HG1  THR B1001      17.729  23.434  -1.980  1.00 35.47 LIG 0.21  HD
ENDBRANCH 22 24
ENDBRANCH 20 22
ENDBRANCH 16 20
ENDBRANCH 11 13
ENDBRANCH 4 6
ENDBRANCH 1 2
BRANCH 1 26
ATOM     26  C   SER B1004      12.536  13.843   1.243  1.00 31.12 LIG 0.24  C 
ATOM     27 O    SER B1004      13.605  13.261   1.125  1.00 31.43 LIG-0.27  OA
ATOM     28  N   PRO B1005      11.486  13.540   0.470  1.00 32.50 LIG-0.34  N 
ATOM     29  CA  PRO B1005      10.140  14.119   0.488  1.00 31.67 LIG 0.18  C 
ATOM     30  CD  PRO B1005      11.674  12.713  -0.739  1.00 32.99 LIG 0.13  C 
ATOM     31  CB  PRO B1005       9.789  14.167  -0.986  1.00 32.97 LIG 0.04  C 
ATOM     32  CG  PRO B1005      10.324  12.851  -1.463  1.00 32.33 LIG 0.02  C 
BRANCH 29 33
ATOM     33  C   PRO B1005       9.149  13.249   1.268  1.00 31.95 LIG 0.24  C 
ATOM     34  N   PHE B1006       8.912  13.591   2.531  1.00 29.16 LIG-0.34  N 
ATOM     35 H    PHE B1006       9.260  14.273   2.922  1.00 29.16 LIG 0.16  HD
ATOM     36 O    PRO B1005       8.607  12.286   0.724  1.00 29.71 LIG-0.27  OA
BRANCH 34 37
ATOM     37  CA  PHE B1006       8.014  12.803   3.363  1.00 29.49 LIG 0.19  C 
BRANCH 37 38
ATOM     38  CB  PHE B1006       8.320  11.314   3.196  1.00 24.64 LIG 0.07  C 
BRANCH 38 39
ATOM     39  CG  PHE B1006       9.585  10.880   3.878  1.00 23.14 LIG-0.06  A 
ATOM     40  CD2 PHE B1006       9.554   9.912   4.875  1.00 22.25 LIG 0.01  A 
ATOM     41  CE2 PHE B1006      10.737   9.504   5.515  1.00 23.88 LIG 0.00  A 
ATOM     42  CZ  PHE B1006      11.952  10.070   5.147  1.00 22.95 LIG 0.00  A 
ATOM     43  CE1 PHE B1006      11.986  11.043   4.146  1.00 21.15 LIG 0.00  A 
ATOM     44  CD1 PHE B1006      10.810  11.437   3.523  1.00 23.85 LIG 0.01  A 
ENDBRANCH 38 39
ENDBRANCH 37 38
BRANCH 37 45
ATOM     45  C   PHE B1006       8.049  13.180   4.837  1.00 30.13 LIG 0.20  C 
ATOM     46 O    PHE B1006       7.593  12.356   5.657  1.00 31.00 LIG-0.65  OA
ATOM     47 OXT  PHE B1006       8.533  14.285   5.159  1.00 32.43 LIG-0.65  OA
ENDBRANCH 37 45
ENDBRANCH 34 37
ENDBRANCH 29 33
ENDBRANCH 1 26
BRANCH 1 48
ATOM     48  CB  SER B1004      11.392  14.440   3.397  1.00 35.03 LIG 0.20  C 
BRANCH 48 49
ATOM     49 OG   SER B1004      10.896  15.547   4.124  1.00 42.75 LIG-0.40  OA
ATOM     50 HG   SER B1004      11.205  15.530   4.905  1.00 42.75 LIG 0.21  HD
ENDBRANCH 48 49
ENDBRANCH 1 48
TORSDOF 14
ENDMDL
MODEL 34
USER: ADFR SOLUTION from run 117
USER: SCORE 12.689949 LL:  -3.588 LR:  -9.832 RR:   0.000 FEB:  -5.656
USER: RMSD 6.139901
USER: SEED 116
USER: STATUS no improvement in best in 35 clusters for 5 generations
USER: GENES 16
USER: genes 0 Translation |==|  0.67371 0.40211 0.35552
USER: genes 1 Rotation |==|  0.77429 0.91171 0.55622 0.54580
USER: genes 2 Torsion [CB]-CA--N-[C] |==|  0.16667
USER: genes 3 Torsion [N]-C--CA-[N] |==|  0.27767
USER: genes 4 Torsion [N]-C--CA-[N] |==|  0.30601
USER: genes 5 Torsion [N]-C--CA-[N] |==|  0.86905
USER: genes 6 Torsion [C]-CA--CB-[CG2] |==|  0.65746
USER: genes 7 Torsion [CA]-CB--OG1-[HG1] |==|  0.19634
USER: genes 8 Torsion [N]-CA--C-[N] |==|  0.85546
USER: genes 9 Torsion [N]-CA--C-[N] |==|  0.74540
USER: genes 10 Torsion [C]-N--CA-[CB] |==|  0.15985
USER: genes 11 Torsion [N]-CA--CB-[CG] |==|  0.39386
USER: genes 12 Torsion [CA]-CB--CG-[CD1] |==|  0.72983
USER: genes 13 Torsion [N]-CA--C-[O] |==|  0.90506
USER: genes 14 Torsion [N]-CA--CB-[OG] |==|  0.68234
USER: genes 15 Torsion [CA]-CB--OG-[HG] |==|  0.15543
ROOT
ATOM      1  CA  SER B1004      15.243  17.914  -3.220  1.00 32.51 LIG 0.20  C 
ENDROOT
BRANCH 1 2
ATOM      2  N   SER B1004      14.591  19.056  -2.600  1.00 30.80 LIG-0.34  N 
ATOM      3 H    SER B1004      13.754  19.145  -2.781  1.00 30.80 LIG 0.16  HD
ATOM      4  C   PRO B1003      15.289  19.869  -1.821  1.00 29.50 LIG 0.24  C 
ATOM      5 O    PRO B1003      16.486  19.685  -1.589  1.00 26.59 LIG-0.27  OA
BRANCH 4 6
ATOM      6  CA  PRO B1003      14.553  21.061  -1.202  1.00 29.25 LIG 0.18  C 
ATOM      7  CB  PRO B1003      15.496  22.252  -1.024  1.00 27.80 LIG 0.04  C 
ATOM      8  CG  PRO B1003      15.209  22.748   0.367  1.00 32.17 LIG 0.02  C 
ATOM      9  CD  PRO B1003      14.983  21.476   1.144  1.00 30.31 LIG 0.13  C 
ATOM     10  N   PRO B1003      14.241  20.657   0.172  1.00 27.10 LIG-0.34  N 
ATOM     11  C   PRO B1002      13.304  19.726   0.403  1.00 28.33 LIG 0.24  C 
ATOM     12 O    PRO B1002      12.663  19.210  -0.503  1.00 27.60 LIG-0.27  OA
BRANCH 11 13
ATOM     13  CA  PRO B1002      13.056  19.346   1.857  1.00 29.68 LIG 0.18  C 
ATOM     14  N   PRO B1002      11.774  19.776   2.420  1.00 30.07 LIG-0.34  N 
ATOM     15  CD  PRO B1002      11.033  18.618   2.955  1.00 30.93 LIG 0.13  C 
ATOM     16  C   THR B1001      11.354  21.073   2.512  1.00 31.77 LIG 0.26  C 
ATOM     17  CG  PRO B1002      12.135  17.631   3.207  1.00 29.32 LIG 0.02  C 
ATOM     18  CB  PRO B1002      13.010  17.827   2.018  1.00 30.61 LIG 0.04  C 
ATOM     19 O    THR B1001      12.067  21.986   2.083  1.00 28.08 LIG-0.27  OA
BRANCH 16 20
ATOM     20  CA  THR B1001       9.992  21.320   3.133  1.00 31.25 LIG 0.43  C 
ATOM     21  N   THR B1001       9.002  20.420   2.569  1.00 31.78 LIG 0.62  N 
BRANCH 20 22
ATOM     22  CB  THR B1001      10.083  21.173   4.653  1.00 33.83 LIG 0.16  C 
ATOM     23  CG2 THR B1001       9.097  20.125   5.145  1.00 26.93 LIG 0.04  C 
BRANCH 22 24
ATOM     24 OG1  THR B1001      11.415  20.793   5.019  1.00 35.47 LIG-0.39  OA
ATOM     25 HG1  THR B1001      11.935  21.441   4.897  1.00 35.47 LIG 0.21  HD
ENDBRANCH 22 24
ENDBRANCH 20 22
ENDBRANCH 16 20
ENDBRANCH 11 13
ENDBRANCH 4 6
ENDBRANCH 1 2
BRANCH 1 26
ATOM     26  C   SER B1004      14.201  17.184  -4.064  1.00 31.12 LIG 0.24  C 
ATOM     27 O    SER B1004      14.434  16.899  -5.231  1.00 31.43 LIG-0.27  OA
ATOM     28  N   PRO B1005      13.047  16.846  -3.479  1.00 32.50 LIG-0.34  N 
ATOM     29  CA  PRO B1005      12.614  17.090  -2.101  1.00 31.67 LIG 0.18  C 
ATOM     30  CD  PRO B1005      11.909  16.387  -4.301  1.00 32.99 LIG 0.13  C 
ATOM     31  CB  PRO B1005      11.141  17.403  -2.274  1.00 32.97 LIG 0.04  C 
ATOM     32  CG  PRO B1005      10.740  16.387  -3.301  1.00 32.33 LIG 0.02  C 
BRANCH 29 33
ATOM     33  C   PRO B1005      12.821  15.864  -1.205  1.00 31.95 LIG 0.24  C 
ATOM     34  N   PHE B1006      11.802  15.016  -1.100  1.00 29.16 LIG-0.34  N 
ATOM     35 H    PHE B1006      11.054  15.102  -1.515  1.00 29.16 LIG 0.16  HD
ATOM     36 O    PRO B1005      13.894  15.694  -0.624  1.00 29.71 LIG-0.27  OA
BRANCH 34 37
ATOM     37  CA  PHE B1006      11.892  13.843  -0.243  1.00 29.49 LIG 0.19  C 
BRANCH 37 38
ATOM     38  CB  PHE B1006      12.201  14.268   1.193  1.00 24.64 LIG 0.07  C 
BRANCH 38 39
ATOM     39  CG  PHE B1006      11.481  13.455   2.230  1.00 23.14 LIG-0.06  A 
ATOM     40  CD2 PHE B1006      11.986  12.228   2.642  1.00 22.25 LIG 0.01  A 
ATOM     41  CE2 PHE B1006      11.313  11.466   3.613  1.00 23.88 LIG 0.00  A 
ATOM     42  CZ  PHE B1006      10.133  11.943   4.170  1.00 22.95 LIG 0.00  A 
ATOM     43  CE1 PHE B1006       9.624  13.176   3.758  1.00 21.15 LIG 0.00  A 
ATOM     44  CD1 PHE B1006      10.297  13.918   2.798  1.00 23.85 LIG 0.01  A 
ENDBRANCH 38 39
ENDBRANCH 37 38
BRANCH 37 45
ATOM     45  C   PHE B1006      10.650  12.963  -0.269  1.00 30.13 LIG 0.20  C 
ATOM     46 O    PHE B1006       9.544  13.526  -0.404  1.00 31.00 LIG-0.65  OA
ATOM     47 OXT  PHE B1006      10.792  11.727  -0.161  1.00 32.43 LIG-0.65  OA
ENDBRANCH 37 45
ENDBRANCH 34 37
ENDBRANCH 29 33
ENDBRANCH 1 26
BRANCH 1 48
ATOM     48  CB  SER B1004      15.812  16.984  -2.149  1.00 35.03 LIG 0.20  C 
BRANCH 48 49
ATOM     49 OG   SER B1004      17.224  16.966  -2.228  1.00 42.75 LIG-0.40  OA
ATOM     50 HG   SER B1004      17.518  17.750  -2.163  1.00 42.75 LIG 0.21  HD
ENDBRANCH 48 49
ENDBRANCH 1 48
TORSDOF 14
ENDMDL
MODEL 35
USER: ADFR SOLUTION from run 102
USER: SCORE 13.880058 LL:  -4.484 LR:  -9.824 RR:   0.000 FEB:  -5.648
USER: RMSD 6.174451
USER: SEED 101
USER: STATUS no improvement in best in 6 clusters for 5 generations
USER: GENES 16
USER: genes 0 Translation |==|  0.45918 0.17014 0.55909
USER: genes 1 Rotation |==|  0.46189 0.20836 0.86757 0.66848
USER: genes 2 Torsion [CB]-CA--N-[C] |==|  0.80000
USER: genes 3 Torsion [N]-C--CA-[N] |==|  0.63010
USER: genes 4 Torsion [N]-C--CA-[N] |==|  0.88838
USER: genes 5 Torsion [N]-C--CA-[N] |==|  0.31052
USER: genes 6 Torsion [C]-CA--CB-[CG2] |==|  0.18239
USER: genes 7 Torsion [CA]-CB--OG1-[HG1] |==|  0.69674
USER: genes 8 Torsion [N]-CA--C-[N] |==|  0.20283
USER: genes 9 Torsion [N]-CA--C-[N] |==|  0.94300
USER: genes 10 Torsion [C]-N--CA-[CB] |==|  0.81326
USER: genes 11 Torsion [N]-CA--CB-[CG] |==|  0.61044
USER: genes 12 Torsion [CA]-CB--CG-[CD1] |==|  0.75922
USER: genes 13 Torsion [N]-CA--C-[O] |==|  0.11540
USER: genes 14 Torsion [N]-CA--CB-[OG] |==|  0.95163
USER: genes 15 Torsion [CA]-CB--OG-[HG] |==|  0.18389
ROOT
ATOM      1  CA  SER B1004      11.221  12.869   0.291  1.00 32.51 LIG 0.20  C 
ENDROOT
BRANCH 1 2
ATOM      2  N   SER B1004      10.571  14.163   0.420  1.00 30.80 LIG-0.34  N 
ATOM      3 H    SER B1004       9.784  14.215   0.078  1.00 30.80 LIG 0.16  HD
ATOM      4  C   PRO B1003      11.201  15.156   1.033  1.00 29.50 LIG 0.24  C 
ATOM      5 O    PRO B1003      12.327  15.019   1.514  1.00 26.59 LIG-0.27  OA
BRANCH 4 6
ATOM      6  CA  PRO B1003      10.472  16.500   1.131  1.00 29.25 LIG 0.18  C 
ATOM      7  CB  PRO B1003       9.386  16.611   0.059  1.00 27.80 LIG 0.04  C 
ATOM      8  CG  PRO B1003       9.569  17.989  -0.515  1.00 32.17 LIG 0.02  C 
ATOM      9  CD  PRO B1003      11.068  18.156  -0.533  1.00 30.31 LIG 0.13  C 
ATOM     10  N   PRO B1003      11.458  17.508   0.729  1.00 27.10 LIG-0.34  N 
ATOM     11  C   PRO B1002      12.488  17.801   1.538  1.00 28.33 LIG 0.24  C 
ATOM     12 O    PRO B1002      12.624  17.272   2.634  1.00 27.60 LIG-0.27  OA
BRANCH 11 13
ATOM     13  CA  PRO B1002      13.480  18.843   1.038  1.00 29.68 LIG 0.18  C 
ATOM     14  N   PRO B1002      13.824  18.767  -0.384  1.00 30.07 LIG-0.34  N 
ATOM     15  CD  PRO B1002      13.550  20.057  -1.047  1.00 30.93 LIG 0.13  C 
ATOM     16  C   THR B1001      14.392  17.687  -0.996  1.00 31.77 LIG 0.26  C 
ATOM     17  CG  PRO B1002      13.593  21.017   0.105  1.00 29.32 LIG 0.02  C 
ATOM     18  CB  PRO B1002      12.903  20.250   1.180  1.00 30.61 LIG 0.04  C 
ATOM     19 O    THR B1001      14.635  16.665  -0.347  1.00 28.08 LIG-0.27  OA
BRANCH 16 20
ATOM     20  CA  THR B1001      14.680  17.803  -2.482  1.00 31.25 LIG 0.43  C 
ATOM     21  N   THR B1001      16.111  17.830  -2.724  1.00 31.78 LIG 0.62  N 
BRANCH 20 22
ATOM     22  CB  THR B1001      14.005  16.652  -3.230  1.00 33.83 LIG 0.16  C 
ATOM     23  CG2 THR B1001      12.492  16.770  -3.133  1.00 26.93 LIG 0.04  C 
BRANCH 22 24
ATOM     24 OG1  THR B1001      14.405  16.675  -4.606  1.00 35.47 LIG-0.39  OA
ATOM     25 HG1  THR B1001      13.756  16.914  -5.082  1.00 35.47 LIG 0.21  HD
ENDBRANCH 22 24
ENDBRANCH 20 22
ENDBRANCH 16 20
ENDBRANCH 11 13
ENDBRANCH 4 6
ENDBRANCH 1 2
BRANCH 1 26
ATOM     26  C   SER B1004      11.764  12.481   1.664  1.00 31.12 LIG 0.24  C 
ATOM     27 O    SER B1004      12.962  12.543   1.899  1.00 31.43 LIG-0.27  OA
ATOM     28  N   PRO B1005      10.886  12.102   2.600  1.00 32.50 LIG-0.34  N 
ATOM     29  CA  PRO B1005       9.429  11.990   2.497  1.00 31.67 LIG 0.18  C 
ATOM     30  CD  PRO B1005      11.363  11.465   3.845  1.00 32.99 LIG 0.13  C 
ATOM     31  CB  PRO B1005       9.140  10.750   3.319  1.00 32.97 LIG 0.04  C 
ATOM     32  CG  PRO B1005      10.065  10.943   4.482  1.00 32.33 LIG 0.02  C 
BRANCH 29 33
ATOM     33  C   PRO B1005       8.714  13.218   3.070  1.00 31.95 LIG 0.24  C 
ATOM     34  N   PHE B1006       9.401  13.972   3.923  1.00 29.16 LIG-0.34  N 
ATOM     35 H    PHE B1006      10.217  13.826   4.151  1.00 29.16 LIG 0.16  HD
ATOM     36 O    PRO B1005       7.556  13.474   2.736  1.00 29.71 LIG-0.27  OA
BRANCH 34 37
ATOM     37  CA  PHE B1006       8.792  15.137   4.548  1.00 29.49 LIG 0.19  C 
BRANCH 37 38
ATOM     38  CB  PHE B1006       8.517  16.211   3.494  1.00 24.64 LIG 0.07  C 
BRANCH 38 39
ATOM     39  CG  PHE B1006       8.805  17.606   3.966  1.00 23.14 LIG-0.06  A 
ATOM     40  CD2 PHE B1006      10.044  18.190   3.731  1.00 22.25 LIG 0.01  A 
ATOM     41  CE2 PHE B1006      10.315  19.497   4.171  1.00 23.88 LIG 0.00  A 
ATOM     42  CZ  PHE B1006       9.337  20.215   4.848  1.00 22.95 LIG 0.00  A 
ATOM     43  CE1 PHE B1006       8.092  19.631   5.086  1.00 21.15 LIG 0.00  A 
ATOM     44  CD1 PHE B1006       7.836  18.340   4.646  1.00 23.85 LIG 0.01  A 
ENDBRANCH 38 39
ENDBRANCH 37 38
BRANCH 37 45
ATOM     45  C   PHE B1006       7.517  14.828   5.321  1.00 30.13 LIG 0.20  C 
ATOM     46 O    PHE B1006       7.500  13.792   6.018  1.00 31.00 LIG-0.65  OA
ATOM     47 OXT  PHE B1006       6.557  15.619   5.228  1.00 32.43 LIG-0.65  OA
ENDBRANCH 37 45
ENDBRANCH 34 37
ENDBRANCH 29 33
ENDBRANCH 1 26
BRANCH 1 48
ATOM     48  CB  SER B1004      12.354  12.945  -0.732  1.00 35.03 LIG 0.20  C 
BRANCH 48 49
ATOM     49 OG   SER B1004      12.199  14.097  -1.536  1.00 42.75 LIG-0.40  OA
ATOM     50 HG   SER B1004      12.302  14.784  -1.064  1.00 42.75 LIG 0.21  HD
ENDBRANCH 48 49
ENDBRANCH 1 48
TORSDOF 14
ENDMDL
