MODEL 1
USER: ADFR SOLUTION from run 14
USER: SCORE 18.684147 LL:  -6.199 LR: -15.826 RR:   0.000 FEB:  -8.070
USER: RMSD 8.754510
USER: SEED 639921
USER: STATUS searching
USER: GENES 28
USER: genes 0 Translation |==|  0.52453 0.54980 0.59613
USER: genes 1 Rotation |==|  0.60362 0.28282 0.06243 0.52514
USER: genes 2 Torsion [N]-CA--C-[N] |==|  0.04543
USER: genes 3 Torsion [C]-N--CA-[CB] |==|  0.34742
USER: genes 4 Torsion [N]-CA--CB-[CG] |==|  0.79226
USER: genes 5 Torsion [CA]-CB--CG-[CD2] |==|  0.88211
USER: genes 6 Torsion [N]-CA--C-[N] |==|  0.96812
USER: genes 7 Torsion [C]-N--CA-[CB] |==|  0.44604
USER: genes 8 Torsion [N]-CA--C-[N] |==|  0.97222
USER: genes 9 Torsion [C]-N--CA-[C] |==|  0.59129
USER: genes 10 Torsion [N]-CA--C-[O] |==|  0.57545
USER: genes 11 Torsion [N]-CA--CB-[CG] |==|  0.61834
USER: genes 12 Torsion [CA]-CB--CG-[OD1] |==|  0.99371
USER: genes 13 Torsion [N]-CA--CB-[CG] |==|  0.09442
USER: genes 14 Torsion [CA]-CB--CG-[OD1] |==|  0.13753
USER: genes 15 Torsion [C]-CA--CB-[CG] |==|  0.36180
USER: genes 16 Torsion [CA]-CB--CG-[CD2] |==|  0.62789
USER: genes 17 Torsion [C]-CA--N-[C] |==|  0.74104
USER: genes 18 Torsion [N]-C--CA-[N] |==|  0.00935
USER: genes 19 Torsion [C]-CA--CB-[OG] |==|  0.26785
USER: genes 20 Torsion [CA]-CB--OG-[HG] |==|  0.15506
USER: genes 21 Torsion [C]-CA--N-[C] |==|  0.77197
USER: genes 22 Torsion [N]-C--CA-[N] |==|  0.88764
USER: genes 23 Torsion [C]-CA--N-[C] |==|  0.82445
USER: genes 24 Torsion [N]-C--CA-[N] |==|  0.41482
USER: genes 25 Torsion [C]-CA--CB-[CG2] |==|  0.33056
USER: genes 26 Torsion [C]-CA--N-[H2] |==|  0.42922
USER: genes 27 Torsion [C]-CA--CB-[CG2] |==|  0.92592
ROOT
ATOM      1  CA  HIS P   4     -17.117  13.349  11.471  1.00 23.76 LIG 0.18  C 
ENDROOT
BRANCH 1 2
ATOM      2  C   HIS P   4     -15.807  12.569  11.647  1.00 25.01 LIG 0.24  C 
ATOM      3 O    HIS P   4     -14.812  13.105  12.152  1.00 23.35 LIG-0.27  OA
ATOM      4  N   PHE P   5     -15.778  11.328  11.163  1.00 23.15 LIG-0.35  N 
ATOM      5 H    PHE P   5     -16.434  10.973  10.734  1.00 23.15 LIG 0.16  HD
BRANCH 4 6
ATOM      6  CA  PHE P   5     -14.633  10.451  11.313  1.00 24.23 LIG 0.18  C 
BRANCH 6 7
ATOM      7  CB  PHE P   5     -15.102   9.122  11.980  1.00 25.15 LIG 0.07  C 
BRANCH 7 8
ATOM      8  CG  PHE P   5     -15.365   9.313  13.439  1.00 25.22 LIG-0.06  A 
ATOM      9  CD2 PHE P   5     -14.451  10.079  14.155  1.00 26.21 LIG 0.01  A 
ATOM     10  CE2 PHE P   5     -14.582  10.234  15.505  1.00 26.58 LIG 0.00  A 
ATOM     11  CZ  PHE P   5     -15.664   9.669  16.157  1.00 27.68 LIG 0.00  A 
ATOM     12  CE1 PHE P   5     -16.584   8.924  15.462  1.00 26.50 LIG 0.00  A 
ATOM     13  CD1 PHE P   5     -16.433   8.748  14.093  1.00 25.73 LIG 0.01  A 
ENDBRANCH 7 8
ENDBRANCH 6 7
BRANCH 6 14
ATOM     14  C   PHE P   5     -13.875  10.198  10.029  1.00 25.59 LIG 0.24  C 
ATOM     15 O    PHE P   5     -12.793   9.576  10.021  1.00 25.82 LIG-0.27  OA
ATOM     16  N   ASN P   6     -14.463  10.596   8.917  1.00 24.53 LIG-0.35  N 
ATOM     17 H    ASN P   6     -15.222  11.000   8.888  1.00 24.53 LIG 0.16  HD
BRANCH 16 18
ATOM     18  CA  ASN P   6     -13.846  10.369   7.617  1.00 25.84 LIG 0.18  C 
BRANCH 18 19
ATOM     19  C   ASN P   6     -12.660  11.266   7.344  1.00 25.26 LIG 0.24  C 
ATOM     20  N   ASP P   7     -12.431  12.284   8.196  1.00 26.59 LIG-0.34  N 
ATOM     21 H    ASP P   7     -12.928  12.479   8.871  1.00 26.59 LIG 0.16  HD
ATOM     22 O    ASN P   6     -11.966  11.067   6.344  1.00 25.72 LIG-0.27  OA
BRANCH 20 23
ATOM     23  CA  ASP P   7     -11.284  13.144   8.010  1.00 25.93 LIG 0.20  C 
BRANCH 23 24
ATOM     24  C   ASP P   7     -10.763  13.621   9.375  1.00 27.07 LIG 0.20  C 
ATOM     25 O    ASP P   7     -10.182  14.692   9.369  1.00 28.96 LIG-0.65  OA
ATOM     26 OXT  ASP P   7     -11.036  12.907  10.445  1.00 29.63 LIG-0.65  OA
ENDBRANCH 23 24
BRANCH 23 27
ATOM     27  CB  ASP P   7     -11.554  14.409   7.171  1.00 25.41 LIG 0.15  C 
BRANCH 27 28
ATOM     28  CG  ASP P   7     -10.460  14.710   6.179  1.00 25.37 LIG 0.17  C 
ATOM     29 OD1  ASP P   7      -9.414  14.033   6.070  1.00 26.66 LIG-0.65  OA
ATOM     30 OD2  ASP P   7     -10.677  15.702   5.402  1.00 23.76 LIG-0.65  OA
ENDBRANCH 27 28
ENDBRANCH 23 27
ENDBRANCH 20 23
ENDBRANCH 18 19
BRANCH 18 31
ATOM     31  CB  ASN P   6     -14.895  10.470   6.508  1.00 24.75 LIG 0.14  C 
BRANCH 31 32
ATOM     32  CG  ASN P   6     -15.957  11.497   6.832  1.00 27.24 LIG 0.22  C 
ATOM     33  ND2 ASN P   6     -17.173  11.001   6.608  1.00 23.85 LIG-0.37  N 
ATOM     34 21HD ASN P   6     -17.867  11.498   6.718  1.00 23.85 LIG 0.16  HD
ATOM     35 22HD ASN P   6     -17.265  10.185   6.353  1.00 23.85 LIG 0.16  HD
ATOM     36 OD1  ASN P   6     -15.630  12.659   7.208  1.00 24.90 LIG-0.27  OA
ENDBRANCH 31 32
ENDBRANCH 18 31
ENDBRANCH 16 18
ENDBRANCH 6 14
ENDBRANCH 4 6
ENDBRANCH 1 2
BRANCH 1 37
ATOM     37  CB  HIS P   4     -17.378  14.131  12.758  1.00 21.80 LIG 0.10  C 
BRANCH 37 38
ATOM     38  CG  HIS P   4     -17.691  15.579  12.528  1.00 23.01 LIG 0.06  A 
ATOM     39  CD2 HIS P   4     -17.268  16.708  13.095  1.00 23.26 LIG 0.14  A 
ATOM     40 NE2  HIS P   4     -17.741  17.745  12.331  1.00 21.45 LIG-0.25  NA
ATOM     41  CE1 HIS P   4     -18.423  17.270  11.292  1.00 22.12 LIG 0.23  A 
ATOM     42 ND1  HIS P   4     -18.397  15.977  11.373  1.00 22.83 LIG-0.24  NA
ENDBRANCH 37 38
ENDBRANCH 1 37
BRANCH 1 43
ATOM     43  N   HIS P   4     -18.179  12.360  11.137  1.00 22.02 LIG-0.35  N 
ATOM     44  C   SER P   3     -18.441  12.123   9.852  1.00 24.42 LIG 0.24  C 
ATOM     45 O    SER P   3     -17.839  12.734   8.954  1.00 24.72 LIG-0.27  OA
ATOM     46 H    HIS P   4     -18.573  11.989  11.806  1.00 22.02 LIG 0.16  HD
BRANCH 44 47
ATOM     47  CA  SER P   3     -19.570  11.166   9.505  1.00 22.14 LIG 0.20  C 
BRANCH 47 48
ATOM     48  CB  SER P   3     -20.597  11.792   8.539  1.00 23.32 LIG 0.20  C 
BRANCH 48 49
ATOM     49 OG   SER P   3     -20.283  11.397   7.186  1.00 23.11 LIG-0.40  OA
ATOM     50 HG   SER P   3     -20.257  10.559   7.138  1.00 23.11 LIG 0.21  HD
ENDBRANCH 48 49
ENDBRANCH 47 48
BRANCH 47 51
ATOM     51  N   SER P   3     -20.301  10.668  10.672  1.00 22.53 LIG-0.34  N 
ATOM     52 H    SER P   3     -21.034  11.084  10.843  1.00 22.53 LIG 0.16  HD
ATOM     53  C   VAL P   2     -19.834   9.648  11.386  1.00 22.76 LIG 0.24  C 
ATOM     54 O    VAL P   2     -18.688   9.181  11.197  1.00 25.85 LIG-0.27  OA
BRANCH 53 55
ATOM     55  CA  VAL P   2     -20.700   9.193  12.564  1.00 24.07 LIG 0.18  C 
BRANCH 55 56
ATOM     56  N   VAL P   2     -21.269  10.341  13.272  1.00 24.29 LIG-0.35  N 
ATOM     57 H    VAL P   2     -22.127  10.397  13.261  1.00 24.29 LIG 0.16  HD
ATOM     58  C   VAL P   1     -20.438  11.216  13.882  1.00 26.39 LIG 0.25  C 
ATOM     59 O    VAL P   1     -19.182  11.051  13.858  1.00 26.90 LIG-0.27  OA
BRANCH 58 60
ATOM     60  CA  VAL P   1     -21.056  12.380  14.642  1.00 27.40 LIG 0.28  C 
BRANCH 60 61
ATOM     61  CB  VAL P   1     -21.266  13.615  13.708  1.00 27.20 LIG 0.02  C 
ATOM     62  CG2 VAL P   1     -22.764  13.939  13.660  1.00 28.02 LIG 0.01  C 
ATOM     63  CG1 VAL P   1     -20.743  13.154  12.365  1.00 27.17 LIG 0.01  C 
ENDBRANCH 60 61
BRANCH 60 64
ATOM     64  N   VAL P   1     -20.259  12.794  15.753  1.00 29.12 LIG-0.07  N 
ATOM     65 H2   VAL P   1     -20.425  13.649  15.937  1.00 29.12 LIG 0.28  HD
ATOM     66 H1   VAL P   1     -19.397  12.698  15.552  1.00 29.12 LIG 0.28  HD
ATOM     67 H3   VAL P   1     -20.456  12.295  16.463  1.00 29.12 LIG 0.28  HD
ENDBRANCH 60 64
ENDBRANCH 58 60
ENDBRANCH 55 56
BRANCH 55 68
ATOM     68  CB  VAL P   2     -21.760   8.195  12.013  1.00 25.03 LIG 0.01  C 
ATOM     69  CG2 VAL P   2     -22.028   8.504  10.527  1.00 23.99 LIG 0.01  C 
ATOM     70  CG1 VAL P   2     -23.070   8.244  12.779  1.00 25.56 LIG 0.01  C 
ENDBRANCH 55 68
ENDBRANCH 53 55
ENDBRANCH 47 51
ENDBRANCH 44 47
ENDBRANCH 1 43
TORSDOF 26
ENDMDL
MODEL 2
USER: ADFR SOLUTION from run 78
USER: SCORE 19.871399 LL:  -5.631 LR: -15.735 RR:   0.000 FEB:  -7.979
USER: RMSD 8.948607
USER: SEED 77
USER: STATUS no improvement in best in 5 clusters for 5 generations
USER: GENES 28
USER: genes 0 Translation |==|  0.52125 0.35360 0.69853
USER: genes 1 Rotation |==|  0.50796 0.70816 0.06925 0.64513
USER: genes 2 Torsion [N]-CA--C-[N] |==|  0.98984
USER: genes 3 Torsion [C]-N--CA-[CB] |==|  0.82312
USER: genes 4 Torsion [N]-CA--CB-[CG] |==|  0.83201
USER: genes 5 Torsion [CA]-CB--CG-[CD2] |==|  0.43233
USER: genes 6 Torsion [N]-CA--C-[N] |==|  0.75004
USER: genes 7 Torsion [C]-N--CA-[CB] |==|  0.84898
USER: genes 8 Torsion [N]-CA--C-[N] |==|  0.94078
USER: genes 9 Torsion [C]-N--CA-[C] |==|  0.75749
USER: genes 10 Torsion [N]-CA--C-[O] |==|  0.20253
USER: genes 11 Torsion [N]-CA--CB-[CG] |==|  0.58408
USER: genes 12 Torsion [CA]-CB--CG-[OD1] |==|  0.99119
USER: genes 13 Torsion [N]-CA--CB-[CG] |==|  0.74687
USER: genes 14 Torsion [CA]-CB--CG-[OD1] |==|  0.64500
USER: genes 15 Torsion [C]-CA--CB-[CG] |==|  0.23069
USER: genes 16 Torsion [CA]-CB--CG-[CD2] |==|  0.25629
USER: genes 17 Torsion [C]-CA--N-[C] |==|  0.78343
USER: genes 18 Torsion [N]-C--CA-[N] |==|  0.35617
USER: genes 19 Torsion [C]-CA--CB-[OG] |==|  0.44687
USER: genes 20 Torsion [CA]-CB--OG-[HG] |==|  0.60257
USER: genes 21 Torsion [C]-CA--N-[C] |==|  0.74305
USER: genes 22 Torsion [N]-C--CA-[N] |==|  0.88944
USER: genes 23 Torsion [C]-CA--N-[C] |==|  0.84768
USER: genes 24 Torsion [N]-C--CA-[N] |==|  0.47307
USER: genes 25 Torsion [C]-CA--CB-[CG2] |==|  0.19598
USER: genes 26 Torsion [C]-CA--N-[H2] |==|  0.06225
USER: genes 27 Torsion [C]-CA--CB-[CG2] |==|  0.32043
ROOT
ATOM      1  CA  HIS P   4     -17.189   9.965  13.698  1.00 23.76 LIG 0.18  C 
ENDROOT
BRANCH 1 2
ATOM      2  C   HIS P   4     -16.288  10.965  12.961  1.00 25.01 LIG 0.24  C 
ATOM      3 O    HIS P   4     -15.464  11.653  13.580  1.00 23.35 LIG-0.27  OA
ATOM      4  N   PHE P   5     -16.492  11.106  11.653  1.00 23.15 LIG-0.35  N 
ATOM      5 H    PHE P   5     -17.118  10.698  11.226  1.00 23.15 LIG 0.16  HD
BRANCH 4 6
ATOM      6  CA  PHE P   5     -15.676  11.966  10.817  1.00 24.23 LIG 0.18  C 
BRANCH 6 7
ATOM      7  CB  PHE P   5     -15.857  13.442  11.287  1.00 25.15 LIG 0.07  C 
BRANCH 7 8
ATOM      8  CG  PHE P   5     -17.282  13.876  11.168  1.00 25.22 LIG-0.06  A 
ATOM      9  CD2 PHE P   5     -17.701  14.915  11.992  1.00 26.21 LIG 0.01  A 
ATOM     10  CE2 PHE P   5     -19.007  15.316  11.995  1.00 26.58 LIG 0.00  A 
ATOM     11  CZ  PHE P   5     -19.909  14.717  11.133  1.00 27.68 LIG 0.00  A 
ATOM     12  CE1 PHE P   5     -19.508  13.700  10.302  1.00 26.50 LIG 0.00  A 
ATOM     13  CD1 PHE P   5     -18.184  13.280  10.320  1.00 25.73 LIG 0.01  A 
ENDBRANCH 7 8
ENDBRANCH 6 7
BRANCH 6 14
ATOM     14  C   PHE P   5     -14.218  11.570  10.759  1.00 25.59 LIG 0.24  C 
ATOM     15 O    PHE P   5     -13.775  10.837   9.851  1.00 25.82 LIG-0.27  OA
ATOM     16  N   ASN P   6     -13.430  12.110  11.669  1.00 24.53 LIG-0.35  N 
ATOM     17 H    ASN P   6     -13.701  12.642  12.289  1.00 24.53 LIG 0.16  HD
BRANCH 16 18
ATOM     18  CA  ASN P   6     -12.001  11.833  11.687  1.00 25.84 LIG 0.18  C 
BRANCH 18 19
ATOM     19  C   ASN P   6     -11.241  12.490  10.558  1.00 25.26 LIG 0.24  C 
ATOM     20  N   ASP P   7     -11.934  12.856   9.462  1.00 26.59 LIG-0.34  N 
ATOM     21 H    ASP P   7     -12.775  12.719   9.346  1.00 26.59 LIG 0.16  HD
ATOM     22 O    ASN P   6     -10.020  12.637  10.653  1.00 25.72 LIG-0.27  OA
BRANCH 20 23
ATOM     23  CA  ASP P   7     -11.266  13.531   8.372  1.00 25.93 LIG 0.20  C 
BRANCH 23 24
ATOM     24  C   ASP P   7     -11.259  15.047   8.624  1.00 27.07 LIG 0.20  C 
ATOM     25 O    ASP P   7     -10.498  15.430   9.495  1.00 28.96 LIG-0.65  OA
ATOM     26 OXT  ASP P   7     -11.990  15.824   7.856  1.00 29.63 LIG-0.65  OA
ENDBRANCH 23 24
BRANCH 23 27
ATOM     27  CB  ASP P   7     -11.908  13.314   6.987  1.00 25.41 LIG 0.15  C 
BRANCH 27 28
ATOM     28  CG  ASP P   7     -10.914  13.363   5.855  1.00 25.37 LIG 0.17  C 
ATOM     29 OD1  ASP P   7      -9.698  13.616   6.008  1.00 26.66 LIG-0.65  OA
ATOM     30 OD2  ASP P   7     -11.381  13.088   4.698  1.00 23.76 LIG-0.65  OA
ENDBRANCH 27 28
ENDBRANCH 23 27
ENDBRANCH 20 23
ENDBRANCH 18 19
BRANCH 18 31
ATOM     31  CB  ASN P   6     -11.755  10.324  11.729  1.00 24.75 LIG 0.14  C 
BRANCH 31 32
ATOM     32  CG  ASN P   6     -11.648   9.812  13.149  1.00 27.24 LIG 0.22  C 
ATOM     33  ND2 ASN P   6     -12.669  10.248  13.883  1.00 23.85 LIG-0.37  N 
ATOM     34 21HD ASN P   6     -12.709  10.058  14.721  1.00 23.85 LIG 0.16  HD
ATOM     35 22HD ASN P   6     -13.290  10.720  13.520  1.00 23.85 LIG 0.16  HD
ATOM     36 OD1  ASN P   6     -10.655   9.113  13.503  1.00 24.90 LIG-0.27  OA
ENDBRANCH 31 32
ENDBRANCH 18 31
ENDBRANCH 16 18
ENDBRANCH 6 14
ENDBRANCH 4 6
ENDBRANCH 1 2
BRANCH 1 37
ATOM     37  CB  HIS P   4     -16.296   8.887  14.312  1.00 21.80 LIG 0.10  C 
BRANCH 37 38
ATOM     38  CG  HIS P   4     -15.701   9.279  15.631  1.00 23.01 LIG 0.06  A 
ATOM     39  CD2 HIS P   4     -16.086   9.110  16.895  1.00 23.26 LIG 0.14  A 
ATOM     40 NE2  HIS P   4     -15.036   9.494  17.691  1.00 21.45 LIG-0.25  NA
ATOM     41  CE1 HIS P   4     -14.007   9.869  16.937  1.00 22.12 LIG 0.23  A 
ATOM     42 ND1  HIS P   4     -14.368   9.736  15.700  1.00 22.83 LIG-0.24  NA
ENDBRANCH 37 38
ENDBRANCH 1 37
BRANCH 1 43
ATOM     43  N   HIS P   4     -18.172   9.444  12.708  1.00 22.02 LIG-0.35  N 
ATOM     44  C   SER P   3     -19.212  10.214  12.386  1.00 24.42 LIG 0.24  C 
ATOM     45 O    SER P   3     -19.375  11.323  12.920  1.00 24.72 LIG-0.27  OA
ATOM     46 H    HIS P   4     -18.012   8.660  12.393  1.00 22.02 LIG 0.16  HD
BRANCH 44 47
ATOM     47  CA  SER P   3     -20.255   9.661  11.429  1.00 22.14 LIG 0.20  C 
BRANCH 47 48
ATOM     48  CB  SER P   3     -20.204  10.340  10.045  1.00 23.32 LIG 0.20  C 
BRANCH 48 49
ATOM     49 OG   SER P   3     -20.871   9.501   9.076  1.00 23.11 LIG-0.40  OA
ATOM     50 HG   SER P   3     -20.464   9.543   8.343  1.00 23.11 LIG 0.21  HD
ENDBRANCH 48 49
ENDBRANCH 47 48
BRANCH 47 51
ATOM     51  N   SER P   3     -21.628   9.765  11.927  1.00 22.53 LIG-0.34  N 
ATOM     52 H    SER P   3     -22.022  10.508  11.746  1.00 22.53 LIG 0.16  HD
ATOM     53  C   VAL P   2     -22.187   8.767  12.604  1.00 22.76 LIG 0.24  C 
ATOM     54 O    VAL P   2     -21.524   7.775  12.982  1.00 25.85 LIG-0.27  OA
BRANCH 53 55
ATOM     55  CA  VAL P   2     -23.638   8.977  13.046  1.00 24.07 LIG 0.18  C 
BRANCH 55 56
ATOM     56  N   VAL P   2     -23.854  10.351  13.502  1.00 24.29 LIG-0.35  N 
ATOM     57 H    VAL P   2     -24.492  10.776  13.113  1.00 24.29 LIG 0.16  HD
ATOM     58  C   VAL P   1     -23.063  10.853  14.478  1.00 26.39 LIG 0.25  C 
ATOM     59 O    VAL P   1     -22.151  10.151  15.006  1.00 26.90 LIG-0.27  OA
BRANCH 58 60
ATOM     60  CA  VAL P   1     -23.333  12.272  14.959  1.00 27.40 LIG 0.28  C 
BRANCH 60 61
ATOM     61  CB  VAL P   1     -22.990  13.317  13.851  1.00 27.20 LIG 0.02  C 
ATOM     62  CG2 VAL P   1     -24.033  13.201  12.734  1.00 28.02 LIG 0.01  C 
ATOM     63  CG1 VAL P   1     -21.609  12.915  13.379  1.00 27.17 LIG 0.01  C 
ENDBRANCH 60 61
BRANCH 60 64
ATOM     64  N   VAL P   1     -22.585  12.604  16.130  1.00 29.12 LIG-0.07  N 
ATOM     65 H2   VAL P   1     -21.873  12.073  16.189  1.00 29.12 LIG 0.28  HD
ATOM     66 H1   VAL P   1     -23.096  12.494  16.851  1.00 29.12 LIG 0.28  HD
ATOM     67 H3   VAL P   1     -22.318  13.452  16.082  1.00 29.12 LIG 0.28  HD
ENDBRANCH 60 64
ENDBRANCH 58 60
ENDBRANCH 55 56
BRANCH 55 68
ATOM     68  CB  VAL P   2     -24.559   8.545  11.867  1.00 25.03 LIG 0.01  C 
ATOM     69  CG2 VAL P   2     -25.395   7.323  12.296  1.00 23.99 LIG 0.01  C 
ATOM     70  CG1 VAL P   2     -23.783   8.205  10.608  1.00 25.56 LIG 0.01  C 
ENDBRANCH 55 68
ENDBRANCH 53 55
ENDBRANCH 47 51
ENDBRANCH 44 47
ENDBRANCH 1 43
TORSDOF 26
ENDMDL
MODEL 3
USER: ADFR SOLUTION from run 52
USER: SCORE 19.562022 LL:  -5.684 LR: -15.636 RR:   0.000 FEB:  -7.880
USER: RMSD 9.194546
USER: SEED 51
USER: STATUS no improvement in best in 8 clusters for 5 generations
USER: GENES 28
USER: genes 0 Translation |==|  0.52499 0.32060 0.69782
USER: genes 1 Rotation |==|  0.49312 0.81512 0.16471 0.69553
USER: genes 2 Torsion [N]-CA--C-[N] |==|  0.88442
USER: genes 3 Torsion [C]-N--CA-[CB] |==|  0.14271
USER: genes 4 Torsion [N]-CA--CB-[CG] |==|  0.15120
USER: genes 5 Torsion [CA]-CB--CG-[CD2] |==|  0.71762
USER: genes 6 Torsion [N]-CA--C-[N] |==|  0.89900
USER: genes 7 Torsion [C]-N--CA-[CB] |==|  0.82559
USER: genes 8 Torsion [N]-CA--C-[N] |==|  0.28902
USER: genes 9 Torsion [C]-N--CA-[C] |==|  0.20959
USER: genes 10 Torsion [N]-CA--C-[O] |==|  0.10963
USER: genes 11 Torsion [N]-CA--CB-[CG] |==|  0.83146
USER: genes 12 Torsion [CA]-CB--CG-[OD1] |==|  0.22538
USER: genes 13 Torsion [N]-CA--CB-[CG] |==|  0.67590
USER: genes 14 Torsion [CA]-CB--CG-[OD1] |==|  0.90506
USER: genes 15 Torsion [C]-CA--CB-[CG] |==|  0.77934
USER: genes 16 Torsion [CA]-CB--CG-[CD2] |==|  0.15060
USER: genes 17 Torsion [C]-CA--N-[C] |==|  0.83452
USER: genes 18 Torsion [N]-C--CA-[N] |==|  0.39880
USER: genes 19 Torsion [C]-CA--CB-[OG] |==|  0.45901
USER: genes 20 Torsion [CA]-CB--OG-[HG] |==|  0.61985
USER: genes 21 Torsion [C]-CA--N-[C] |==|  0.76837
USER: genes 22 Torsion [N]-C--CA-[N] |==|  0.87359
USER: genes 23 Torsion [C]-CA--N-[C] |==|  0.84998
USER: genes 24 Torsion [N]-C--CA-[N] |==|  0.48673
USER: genes 25 Torsion [C]-CA--CB-[CG2] |==|  0.21300
USER: genes 26 Torsion [C]-CA--N-[H2] |==|  0.74839
USER: genes 27 Torsion [C]-CA--CB-[CG2] |==|  0.34978
ROOT
ATOM      1  CA  HIS P   4     -17.108   9.395  13.683  1.00 23.76 LIG 0.18  C 
ENDROOT
BRANCH 1 2
ATOM      2  C   HIS P   4     -16.653  10.855  13.540  1.00 25.01 LIG 0.24  C 
ATOM      3 O    HIS P   4     -16.616  11.607  14.522  1.00 23.35 LIG-0.27  OA
ATOM      4  N   PHE P   5     -16.382  11.280  12.307  1.00 23.15 LIG-0.35  N 
ATOM      5 H    PHE P   5     -16.486  10.793  11.606  1.00 23.15 LIG 0.16  HD
BRANCH 4 6
ATOM      6  CA  PHE P   5     -15.882  12.613  12.027  1.00 24.23 LIG 0.18  C 
BRANCH 6 7
ATOM      7  CB  PHE P   5     -14.645  12.886  12.936  1.00 25.15 LIG 0.07  C 
BRANCH 7 8
ATOM      8  CG  PHE P   5     -13.611  11.819  12.777  1.00 25.22 LIG-0.06  A 
ATOM      9  CD2 PHE P   5     -13.542  10.847  13.770  1.00 26.21 LIG 0.01  A 
ATOM     10  CE2 PHE P   5     -12.575   9.884  13.734  1.00 26.58 LIG 0.00  A 
ATOM     11  CZ  PHE P   5     -11.688   9.844  12.673  1.00 27.68 LIG 0.00  A 
ATOM     12  CE1 PHE P   5     -11.752  10.786  11.676  1.00 26.50 LIG 0.00  A 
ATOM     13  CD1 PHE P   5     -12.723  11.779  11.730  1.00 25.73 LIG 0.01  A 
ENDBRANCH 7 8
ENDBRANCH 6 7
BRANCH 6 14
ATOM     14  C   PHE P   5     -15.573  12.864  10.568  1.00 25.59 LIG 0.24  C 
ATOM     15 O    PHE P   5     -15.712  13.993  10.055  1.00 25.82 LIG-0.27  OA
ATOM     16  N   ASN P   6     -15.069  11.846   9.895  1.00 24.53 LIG-0.35  N 
ATOM     17 H    ASN P   6     -14.934  11.065  10.229  1.00 24.53 LIG 0.16  HD
BRANCH 16 18
ATOM     18  CA  ASN P   6     -14.696  11.981   8.494  1.00 25.84 LIG 0.18  C 
BRANCH 18 19
ATOM     19  C   ASN P   6     -13.581  12.972   8.256  1.00 25.26 LIG 0.24  C 
ATOM     20  N   ASP P   7     -12.351  12.485   7.998  1.00 26.59 LIG-0.34  N 
ATOM     21 H    ASP P   7     -12.147  11.649   7.985  1.00 26.59 LIG 0.16  HD
ATOM     22 O    ASN P   6     -13.813  14.180   8.339  1.00 25.72 LIG-0.27  OA
BRANCH 20 23
ATOM     23  CA  ASP P   7     -11.257  13.387   7.715  1.00 25.93 LIG 0.20  C 
BRANCH 23 24
ATOM     24  C   ASP P   7     -10.778  14.050   9.016  1.00 27.07 LIG 0.20  C 
ATOM     25 O    ASP P   7     -10.748  13.323   9.994  1.00 28.96 LIG-0.65  OA
ATOM     26 OXT  ASP P   7     -10.367  15.298   8.982  1.00 29.63 LIG-0.65  OA
ENDBRANCH 23 24
BRANCH 23 27
ATOM     27  CB  ASP P   7     -11.596  14.527   6.735  1.00 25.41 LIG 0.15  C 
BRANCH 27 28
ATOM     28  CG  ASP P   7     -12.025  14.036   5.376  1.00 25.37 LIG 0.17  C 
ATOM     29 OD1  ASP P   7     -13.183  13.640   5.114  1.00 26.66 LIG-0.65  OA
ATOM     30 OD2  ASP P   7     -11.131  14.082   4.464  1.00 23.76 LIG-0.65  OA
ENDBRANCH 27 28
ENDBRANCH 23 27
ENDBRANCH 20 23
ENDBRANCH 18 19
BRANCH 18 31
ATOM     31  CB  ASN P   6     -15.929  12.306   7.647  1.00 24.75 LIG 0.14  C 
BRANCH 31 32
ATOM     32  CG  ASN P   6     -16.225  11.211   6.645  1.00 27.24 LIG 0.22  C 
ATOM     33  ND2 ASN P   6     -17.540  11.048   6.504  1.00 23.85 LIG-0.37  N 
ATOM     34 21HD ASN P   6     -17.843  10.430   5.989  1.00 23.85 LIG 0.16  HD
ATOM     35 22HD ASN P   6     -18.085  11.561   6.928  1.00 23.85 LIG 0.16  HD
ATOM     36 OD1  ASN P   6     -15.282  10.562   6.109  1.00 24.90 LIG-0.27  OA
ENDBRANCH 31 32
ENDBRANCH 18 31
ENDBRANCH 16 18
ENDBRANCH 6 14
ENDBRANCH 4 6
ENDBRANCH 1 2
BRANCH 1 37
ATOM     37  CB  HIS P   4     -15.862   8.510  13.679  1.00 21.80 LIG 0.10  C 
BRANCH 37 38
ATOM     38  CG  HIS P   4     -15.306   8.259  12.310  1.00 23.01 LIG 0.06  A 
ATOM     39  CD2 HIS P   4     -14.926   9.060  11.315  1.00 23.26 LIG 0.14  A 
ATOM     40 NE2  HIS P   4     -14.301   8.274  10.381  1.00 21.45 LIG-0.25  NA
ATOM     41  CE1 HIS P   4     -14.269   7.012  10.797  1.00 22.12 LIG 0.23  A 
ATOM     42 ND1  HIS P   4     -14.848   6.973  11.955  1.00 22.83 LIG-0.24  NA
ENDBRANCH 37 38
ENDBRANCH 1 37
BRANCH 1 43
ATOM     43  N   HIS P   4     -18.053   9.116  12.566  1.00 22.02 LIG-0.35  N 
ATOM     44  C   SER P   3     -19.161   9.851  12.477  1.00 24.42 LIG 0.24  C 
ATOM     45 O    SER P   3     -19.416  10.727  13.320  1.00 24.72 LIG-0.27  OA
ATOM     46 H    HIS P   4     -17.827   8.481  12.031  1.00 22.02 LIG 0.16  HD
BRANCH 44 47
ATOM     47  CA  SER P   3     -20.162   9.525  11.381  1.00 22.14 LIG 0.20  C 
BRANCH 47 48
ATOM     48  CB  SER P   3     -19.934  10.363  10.106  1.00 23.32 LIG 0.20  C 
BRANCH 48 49
ATOM     49 OG   SER P   3     -20.670   9.776   9.011  1.00 23.11 LIG-0.40  OA
ATOM     50 HG   SER P   3     -20.190   9.771   8.322  1.00 23.11 LIG 0.21  HD
ENDBRANCH 48 49
ENDBRANCH 47 48
BRANCH 47 51
ATOM     51  N   SER P   3     -21.558   9.698  11.786  1.00 22.53 LIG-0.34  N 
ATOM     52 H    SER P   3     -21.907  10.453  11.564  1.00 22.53 LIG 0.16  HD
ATOM     53  C   VAL P   2     -22.203   8.740  12.445  1.00 22.76 LIG 0.24  C 
ATOM     54 O    VAL P   2     -21.610   7.730  12.886  1.00 25.85 LIG-0.27  OA
BRANCH 53 55
ATOM     55  CA  VAL P   2     -23.668   9.021  12.787  1.00 24.07 LIG 0.18  C 
BRANCH 55 56
ATOM     56  N   VAL P   2     -23.832  10.372  13.327  1.00 24.29 LIG-0.35  N 
ATOM     57 H    VAL P   2     -24.414  10.864  12.929  1.00 24.29 LIG 0.16  HD
ATOM     58  C   VAL P   1     -23.082  10.753  14.386  1.00 26.39 LIG 0.25  C 
ATOM     59 O    VAL P   1     -22.253   9.958  14.920  1.00 26.90 LIG-0.27  OA
BRANCH 58 60
ATOM     60  CA  VAL P   1     -23.298  12.149  14.952  1.00 27.40 LIG 0.28  C 
BRANCH 60 61
ATOM     61  CB  VAL P   1     -22.931  13.245  13.901  1.00 27.20 LIG 0.02  C 
ATOM     62  CG2 VAL P   1     -24.068  13.334  12.876  1.00 28.02 LIG 0.01  C 
ATOM     63  CG1 VAL P   1     -21.646  12.744  13.278  1.00 27.17 LIG 0.01  C 
ENDBRANCH 60 61
BRANCH 60 64
ATOM     64  N   VAL P   1     -22.526  12.388  16.130  1.00 29.12 LIG-0.07  N 
ATOM     65 H2   VAL P   1     -22.999  12.157  16.848  1.00 29.12 LIG 0.28  HD
ATOM     66 H1   VAL P   1     -22.318  13.252  16.179  1.00 29.12 LIG 0.28  HD
ATOM     67 H3   VAL P   1     -21.780  11.904  16.099  1.00 29.12 LIG 0.28  HD
ENDBRANCH 60 64
ENDBRANCH 58 60
ENDBRANCH 55 56
BRANCH 55 68
ATOM     68  CB  VAL P   2     -24.514   8.739  11.510  1.00 25.03 LIG 0.01  C 
ATOM     69  CG2 VAL P   2     -25.637   7.741  11.853  1.00 23.99 LIG 0.01  C 
ATOM     70  CG1 VAL P   2     -23.686   8.189  10.364  1.00 25.56 LIG 0.01  C 
ENDBRANCH 55 68
ENDBRANCH 53 55
ENDBRANCH 47 51
ENDBRANCH 44 47
ENDBRANCH 1 43
TORSDOF 26
ENDMDL
MODEL 4
USER: ADFR SOLUTION from run 179
USER: SCORE 19.124541 LL:  -5.266 LR: -15.442 RR:   0.000 FEB:  -7.686
USER: RMSD 9.319543
USER: SEED 178
USER: STATUS searching
USER: GENES 28
USER: genes 0 Translation |==|  0.51371 0.34525 0.63800
USER: genes 1 Rotation |==|  0.45861 0.68416 0.04985 0.60833
USER: genes 2 Torsion [N]-CA--C-[N] |==|  0.03820
USER: genes 3 Torsion [C]-N--CA-[CB] |==|  0.72800
USER: genes 4 Torsion [N]-CA--CB-[CG] |==|  0.08841
USER: genes 5 Torsion [CA]-CB--CG-[CD2] |==|  0.22940
USER: genes 6 Torsion [N]-CA--C-[N] |==|  0.65604
USER: genes 7 Torsion [C]-N--CA-[CB] |==|  0.83141
USER: genes 8 Torsion [N]-CA--C-[N] |==|  0.29477
USER: genes 9 Torsion [C]-N--CA-[C] |==|  0.65368
USER: genes 10 Torsion [N]-CA--C-[O] |==|  0.46508
USER: genes 11 Torsion [N]-CA--CB-[CG] |==|  0.77699
USER: genes 12 Torsion [CA]-CB--CG-[OD1] |==|  0.16957
USER: genes 13 Torsion [N]-CA--CB-[CG] |==|  0.63622
USER: genes 14 Torsion [CA]-CB--CG-[OD1] |==|  0.92893
USER: genes 15 Torsion [C]-CA--CB-[CG] |==|  0.27349
USER: genes 16 Torsion [CA]-CB--CG-[CD2] |==|  0.80729
USER: genes 17 Torsion [C]-CA--N-[C] |==|  0.74363
USER: genes 18 Torsion [N]-C--CA-[N] |==|  0.38358
USER: genes 19 Torsion [C]-CA--CB-[OG] |==|  0.08118
USER: genes 20 Torsion [CA]-CB--OG-[HG] |==|  0.37232
USER: genes 21 Torsion [C]-CA--N-[C] |==|  0.74063
USER: genes 22 Torsion [N]-C--CA-[N] |==|  0.90479
USER: genes 23 Torsion [C]-CA--N-[C] |==|  0.82406
USER: genes 24 Torsion [N]-C--CA-[N] |==|  0.48082
USER: genes 25 Torsion [C]-CA--CB-[CG2] |==|  0.77109
USER: genes 26 Torsion [C]-CA--N-[H2] |==|  0.40888
USER: genes 27 Torsion [C]-CA--CB-[CG2] |==|  0.33290
ROOT
ATOM      1  CA  HIS P   4     -17.353   9.821  12.381  1.00 23.76 LIG 0.18  C 
ENDROOT
BRANCH 1 2
ATOM      2  C   HIS P   4     -16.575  10.609  11.318  1.00 25.01 LIG 0.24  C 
ATOM      3 O    HIS P   4     -15.443  11.049  11.555  1.00 23.35 LIG-0.27  OA
ATOM      4  N   PHE P   5     -17.209  10.856  10.173  1.00 23.15 LIG-0.35  N 
ATOM      5 H    PHE P   5     -18.026  10.631  10.027  1.00 23.15 LIG 0.16  HD
BRANCH 4 6
ATOM      6  CA  PHE P   5     -16.579  11.532   9.055  1.00 24.23 LIG 0.18  C 
BRANCH 6 7
ATOM      7  CB  PHE P   5     -16.982  13.038   9.087  1.00 25.15 LIG 0.07  C 
BRANCH 7 8
ATOM      8  CG  PHE P   5     -17.184  13.513  10.490  1.00 25.22 LIG-0.06  A 
ATOM      9  CD2 PHE P   5     -16.050  13.885  11.205  1.00 26.21 LIG 0.01  A 
ATOM     10  CE2 PHE P   5     -16.147  14.257  12.515  1.00 26.58 LIG 0.00  A 
ATOM     11  CZ  PHE P   5     -17.389  14.315  13.121  1.00 27.68 LIG 0.00  A 
ATOM     12  CE1 PHE P   5     -18.520  13.965  12.425  1.00 26.50 LIG 0.00  A 
ATOM     13  CD1 PHE P   5     -18.414  13.564  11.099  1.00 25.73 LIG 0.01  A 
ENDBRANCH 7 8
ENDBRANCH 6 7
BRANCH 6 14
ATOM     14  C   PHE P   5     -15.079  11.354   8.989  1.00 25.59 LIG 0.24  C 
ATOM     15 O    PHE P   5     -14.559  10.225   8.875  1.00 25.82 LIG-0.27  OA
ATOM     16  N   ASN P   6     -14.360  12.461   8.974  1.00 24.53 LIG-0.35  N 
ATOM     17 H    ASN P   6     -14.691  13.254   9.021  1.00 24.53 LIG 0.16  HD
BRANCH 16 18
ATOM     18  CA  ASN P   6     -12.908  12.414   8.872  1.00 25.84 LIG 0.18  C 
BRANCH 18 19
ATOM     19  C   ASN P   6     -12.409  11.859   7.558  1.00 25.26 LIG 0.24  C 
ATOM     20  N   ASP P   7     -11.885  12.725   6.668  1.00 26.59 LIG-0.34  N 
ATOM     21 H    ASP P   7     -11.839  13.577   6.782  1.00 26.59 LIG 0.16  HD
ATOM     22 O    ASN P   6     -12.526  10.654   7.324  1.00 25.72 LIG-0.27  OA
BRANCH 20 23
ATOM     23  CA  ASP P   7     -11.349  12.244   5.415  1.00 25.93 LIG 0.20  C 
BRANCH 23 24
ATOM     24  C   ASP P   7      -9.895  12.714   5.255  1.00 27.07 LIG 0.20  C 
ATOM     25 O    ASP P   7      -9.266  12.177   4.361  1.00 28.96 LIG-0.65  OA
ATOM     26 OXT  ASP P   7      -9.456  13.694   6.014  1.00 29.63 LIG-0.65  OA
ENDBRANCH 23 24
BRANCH 23 27
ATOM     27  CB  ASP P   7     -12.110  12.718   4.161  1.00 25.41 LIG 0.15  C 
BRANCH 27 28
ATOM     28  CG  ASP P   7     -13.361  11.924   3.888  1.00 25.37 LIG 0.17  C 
ATOM     29 OD1  ASP P   7     -14.328  11.855   4.679  1.00 26.66 LIG-0.65  OA
ATOM     30 OD2  ASP P   7     -13.405  11.335   2.754  1.00 23.76 LIG-0.65  OA
ENDBRANCH 27 28
ENDBRANCH 23 27
ENDBRANCH 20 23
ENDBRANCH 18 19
BRANCH 18 31
ATOM     31  CB  ASN P   6     -12.319  11.656  10.064  1.00 24.75 LIG 0.14  C 
BRANCH 31 32
ATOM     32  CG  ASN P   6     -11.187  12.424  10.712  1.00 27.24 LIG 0.22  C 
ATOM     33  ND2 ASN P   6     -11.092  12.117  12.005  1.00 23.85 LIG-0.37  N 
ATOM     34 21HD ASN P   6     -10.510  12.513  12.499  1.00 23.85 LIG 0.16  HD
ATOM     35 22HD ASN P   6     -11.613  11.523  12.345  1.00 23.85 LIG 0.16  HD
ATOM     36 OD1  ASN P   6     -10.515  13.260  10.042  1.00 24.90 LIG-0.27  OA
ENDBRANCH 31 32
ENDBRANCH 18 31
ENDBRANCH 16 18
ENDBRANCH 6 14
ENDBRANCH 4 6
ENDBRANCH 1 2
BRANCH 1 37
ATOM     37  CB  HIS P   4     -16.407   8.784  12.987  1.00 21.80 LIG 0.10  C 
BRANCH 37 38
ATOM     38  CG  HIS P   4     -15.802   9.211  14.290  1.00 23.01 LIG 0.06  A 
ATOM     39  CD2 HIS P   4     -14.908  10.141  14.624  1.00 23.26 LIG 0.14  A 
ATOM     40 NE2  HIS P   4     -14.899  10.218  15.994  1.00 21.45 LIG-0.25  NA
ATOM     41  CE1 HIS P   4     -15.789   9.372  16.503  1.00 22.12 LIG 0.23  A 
ATOM     42 ND1  HIS P   4     -16.358   8.766  15.509  1.00 22.83 LIG-0.24  NA
ENDBRANCH 37 38
ENDBRANCH 1 37
BRANCH 1 43
ATOM     43  N   HIS P   4     -18.546   9.234  11.712  1.00 22.02 LIG-0.35  N 
ATOM     44  C   SER P   3     -19.685   9.926  11.728  1.00 24.42 LIG 0.24  C 
ATOM     45 O    SER P   3     -19.760  11.019  12.314  1.00 24.72 LIG-0.27  OA
ATOM     46 H    HIS P   4     -18.433   8.464  11.344  1.00 22.02 LIG 0.16  HD
BRANCH 44 47
ATOM     47  CA  SER P   3     -20.923   9.302  11.107  1.00 22.14 LIG 0.20  C 
BRANCH 47 48
ATOM     48  CB  SER P   3     -21.189   9.818   9.678  1.00 23.32 LIG 0.20  C 
BRANCH 48 49
ATOM     49 OG   SER P   3     -19.935  10.178   9.058  1.00 23.11 LIG-0.40  OA
ATOM     50 HG   SER P   3     -19.907   9.866   8.280  1.00 23.11 LIG 0.21  HD
ENDBRANCH 48 49
ENDBRANCH 47 48
BRANCH 47 51
ATOM     51  N   SER P   3     -22.144   9.505  11.889  1.00 22.53 LIG-0.34  N 
ATOM     52 H    SER P   3     -22.559  10.241  11.725  1.00 22.53 LIG 0.16  HD
ATOM     53  C   VAL P   2     -22.546   8.600  12.776  1.00 22.76 LIG 0.24  C 
ATOM     54 O    VAL P   2     -21.827   7.627  13.096  1.00 25.85 LIG-0.27  OA
BRANCH 53 55
ATOM     55  CA  VAL P   2     -23.853   8.906  13.511  1.00 24.07 LIG 0.18  C 
BRANCH 55 56
ATOM     56  N   VAL P   2     -24.002  10.344  13.742  1.00 24.29 LIG-0.35  N 
ATOM     57 H    VAL P   2     -24.671  10.716  13.352  1.00 24.29 LIG 0.16  HD
ATOM     58  C   VAL P   1     -23.107  10.979  14.532  1.00 26.39 LIG 0.25  C 
ATOM     59 O    VAL P   1     -22.154  10.349  15.079  1.00 26.90 LIG-0.27  OA
BRANCH 58 60
ATOM     60  CA  VAL P   1     -23.306  12.467  14.786  1.00 27.40 LIG 0.28  C 
BRANCH 60 61
ATOM     61  CB  VAL P   1     -23.134  13.291  13.470  1.00 27.20 LIG 0.02  C 
ATOM     62  CG2 VAL P   1     -21.638  13.526  13.236  1.00 28.02 LIG 0.01  C 
ATOM     63  CG1 VAL P   1     -23.874  14.582  13.744  1.00 27.17 LIG 0.01  C 
ENDBRANCH 60 61
BRANCH 60 64
ATOM     64  N   VAL P   1     -22.391  12.983  15.755  1.00 29.12 LIG-0.07  N 
ATOM     65 H2   VAL P   1     -22.191  13.827  15.555  1.00 29.12 LIG 0.28  HD
ATOM     66 H1   VAL P   1     -21.647  12.494  15.752  1.00 29.12 LIG 0.28  HD
ATOM     67 H3   VAL P   1     -22.765  12.951  16.562  1.00 29.12 LIG 0.28  HD
ENDBRANCH 60 64
ENDBRANCH 58 60
ENDBRANCH 55 56
BRANCH 55 68
ATOM     68  CB  VAL P   2     -25.016   8.269  12.694  1.00 25.03 LIG 0.01  C 
ATOM     69  CG2 VAL P   2     -25.751   7.238  13.572  1.00 23.99 LIG 0.01  C 
ATOM     70  CG1 VAL P   2     -24.540   7.593  11.421  1.00 25.56 LIG 0.01  C 
ENDBRANCH 55 68
ENDBRANCH 53 55
ENDBRANCH 47 51
ENDBRANCH 44 47
ENDBRANCH 1 43
TORSDOF 26
ENDMDL
MODEL 5
USER: ADFR SOLUTION from run 135
USER: SCORE 18.917812 LL:  -5.614 LR: -15.349 RR:   0.000 FEB:  -7.594
USER: RMSD 9.248883
USER: SEED 134
USER: STATUS no improvement in best in 7 clusters for 5 generations
USER: GENES 28
USER: genes 0 Translation |==|  0.60421 0.42983 0.46011
USER: genes 1 Rotation |==|  0.44075 0.01201 0.49119 0.59096
USER: genes 2 Torsion [N]-CA--C-[N] |==|  0.05588
USER: genes 3 Torsion [C]-N--CA-[CB] |==|  0.76878
USER: genes 4 Torsion [N]-CA--CB-[CG] |==|  0.98267
USER: genes 5 Torsion [CA]-CB--CG-[CD2] |==|  0.77884
USER: genes 6 Torsion [N]-CA--C-[N] |==|  0.05606
USER: genes 7 Torsion [C]-N--CA-[CB] |==|  0.27116
USER: genes 8 Torsion [N]-CA--C-[N] |==|  0.33630
USER: genes 9 Torsion [C]-N--CA-[C] |==|  0.70296
USER: genes 10 Torsion [N]-CA--C-[O] |==|  0.40173
USER: genes 11 Torsion [N]-CA--CB-[CG] |==|  0.05480
USER: genes 12 Torsion [CA]-CB--CG-[OD1] |==|  0.29883
USER: genes 13 Torsion [N]-CA--CB-[CG] |==|  0.49874
USER: genes 14 Torsion [CA]-CB--CG-[OD1] |==|  0.22686
USER: genes 15 Torsion [C]-CA--CB-[CG] |==|  0.22494
USER: genes 16 Torsion [CA]-CB--CG-[CD2] |==|  0.24167
USER: genes 17 Torsion [C]-CA--N-[C] |==|  0.17808
USER: genes 18 Torsion [N]-C--CA-[N] |==|  0.09482
USER: genes 19 Torsion [C]-CA--CB-[OG] |==|  0.54181
USER: genes 20 Torsion [CA]-CB--OG-[HG] |==|  0.30440
USER: genes 21 Torsion [C]-CA--N-[C] |==|  0.16522
USER: genes 22 Torsion [N]-C--CA-[N] |==|  0.47750
USER: genes 23 Torsion [C]-CA--N-[C] |==|  0.66270
USER: genes 24 Torsion [N]-C--CA-[N] |==|  0.88333
USER: genes 25 Torsion [C]-CA--CB-[CG2] |==|  0.09815
USER: genes 26 Torsion [C]-CA--N-[H2] |==|  0.47835
USER: genes 27 Torsion [C]-CA--CB-[CG2] |==|  0.57082
ROOT
ATOM      1  CA  HIS P   4     -15.385  11.280   8.512  1.00 23.76 LIG 0.18  C 
ENDROOT
BRANCH 1 2
ATOM      2  C   HIS P   4     -13.970  11.452   9.082  1.00 25.01 LIG 0.24  C 
ATOM      3 O    HIS P   4     -12.972  11.239   8.380  1.00 23.35 LIG-0.27  OA
ATOM      4  N   PHE P   5     -13.877  11.762  10.374  1.00 23.15 LIG-0.35  N 
ATOM      5 H    PHE P   5     -14.559  11.829  10.894  1.00 23.15 LIG 0.16  HD
BRANCH 4 6
ATOM      6  CA  PHE P   5     -12.611  12.019  11.033  1.00 24.23 LIG 0.18  C 
BRANCH 6 7
ATOM      7  CB  PHE P   5     -11.974  10.657  11.445  1.00 25.15 LIG 0.07  C 
BRANCH 7 8
ATOM      8  CG  PHE P   5     -12.910   9.521  11.181  1.00 25.22 LIG-0.06  A 
ATOM      9  CD2 PHE P   5     -13.923   9.303  12.108  1.00 26.21 LIG 0.01  A 
ATOM     10  CE2 PHE P   5     -14.769   8.239  11.975  1.00 26.58 LIG 0.00  A 
ATOM     11  CZ  PHE P   5     -14.650   7.402  10.880  1.00 27.68 LIG 0.00  A 
ATOM     12  CE1 PHE P   5     -13.664   7.613   9.947  1.00 26.50 LIG 0.00  A 
ATOM     13  CD1 PHE P   5     -12.791   8.682  10.100  1.00 25.73 LIG 0.01  A 
ENDBRANCH 7 8
ENDBRANCH 6 7
BRANCH 6 14
ATOM     14  C   PHE P   5     -11.653  12.865  10.226  1.00 25.59 LIG 0.24  C 
ATOM     15 O    PHE P   5     -10.419  12.813  10.411  1.00 25.82 LIG-0.27  OA
ATOM     16  N   ASN P   6     -12.187  13.592   9.263  1.00 24.53 LIG-0.35  N 
ATOM     17 H    ASN P   6     -13.029  13.626   9.092  1.00 24.53 LIG 0.16  HD
BRANCH 16 18
ATOM     18  CA  ASN P   6     -11.357  14.416   8.395  1.00 25.84 LIG 0.18  C 
BRANCH 18 19
ATOM     19  C   ASN P   6     -11.920  15.797   8.148  1.00 25.26 LIG 0.24  C 
ATOM     20  N   ASP P   7     -11.167  16.857   8.504  1.00 26.59 LIG-0.34  N 
ATOM     21 H    ASP P   7     -10.399  16.805   8.887  1.00 26.59 LIG 0.16  HD
ATOM     22 O    ASN P   6     -13.050  15.915   7.669  1.00 25.72 LIG-0.27  OA
BRANCH 20 23
ATOM     23  CA  ASP P   7     -11.636  18.200   8.247  1.00 25.93 LIG 0.20  C 
BRANCH 23 24
ATOM     24  C   ASP P   7     -10.838  18.818   7.089  1.00 27.07 LIG 0.20  C 
ATOM     25 O    ASP P   7     -11.469  19.557   6.353  1.00 28.96 LIG-0.65  OA
ATOM     26 OXT  ASP P   7      -9.546  18.585   7.010  1.00 29.63 LIG-0.65  OA
ENDBRANCH 23 24
BRANCH 23 27
ATOM     27  CB  ASP P   7     -11.509  19.167   9.440  1.00 25.41 LIG 0.15  C 
BRANCH 27 28
ATOM     28  CG  ASP P   7     -10.517  18.708  10.478  1.00 25.37 LIG 0.17  C 
ATOM     29 OD1  ASP P   7      -9.399  19.240  10.655  1.00 26.66 LIG-0.65  OA
ATOM     30 OD2  ASP P   7     -10.901  17.739  11.218  1.00 23.76 LIG-0.65  OA
ENDBRANCH 27 28
ENDBRANCH 23 27
ENDBRANCH 20 23
ENDBRANCH 18 19
BRANCH 18 31
ATOM     31  CB  ASN P   6     -11.071  13.682   7.083  1.00 24.75 LIG 0.14  C 
BRANCH 31 32
ATOM     32  CG  ASN P   6     -10.219  14.513   6.149  1.00 27.24 LIG 0.22  C 
ATOM     33  ND2 ASN P   6     -10.971  15.082   5.209  1.00 23.85 LIG-0.37  N 
ATOM     34 21HD ASN P   6     -10.604  15.554   4.591  1.00 23.85 LIG 0.16  HD
ATOM     35 22HD ASN P   6     -11.825  14.978   5.220  1.00 23.85 LIG 0.16  HD
ATOM     36 OD1  ASN P   6      -8.963  14.554   6.295  1.00 24.90 LIG-0.27  OA
ENDBRANCH 31 32
ENDBRANCH 18 31
ENDBRANCH 16 18
ENDBRANCH 6 14
ENDBRANCH 4 6
ENDBRANCH 1 2
BRANCH 1 37
ATOM     37  CB  HIS P   4     -15.390  11.830   7.087  1.00 21.80 LIG 0.10  C 
BRANCH 37 38
ATOM     38  CG  HIS P   4     -14.844  10.874   6.071  1.00 23.01 LIG 0.06  A 
ATOM     39  CD2 HIS P   4     -15.388   9.894   5.350  1.00 23.26 LIG 0.14  A 
ATOM     40 NE2  HIS P   4     -14.450   9.500   4.430  1.00 21.45 LIG-0.25  NA
ATOM     41  CE1 HIS P   4     -13.352  10.240   4.557  1.00 22.12 LIG 0.23  A 
ATOM     42 ND1  HIS P   4     -13.563  11.081   5.519  1.00 22.83 LIG-0.24  NA
ENDBRANCH 37 38
ENDBRANCH 1 37
BRANCH 1 43
ATOM     43  N   HIS P   4     -16.321  11.978   9.436  1.00 22.02 LIG-0.35  N 
ATOM     44  C   SER P   3     -16.208  13.300   9.569  1.00 24.42 LIG 0.24  C 
ATOM     45 O    SER P   3     -15.326  13.930   8.965  1.00 24.72 LIG-0.27  OA
ATOM     46 H    HIS P   4     -16.894  11.480   9.841  1.00 22.02 LIG 0.16  HD
BRANCH 44 47
ATOM     47  CA  SER P   3     -17.115  14.009  10.562  1.00 22.14 LIG 0.20  C 
BRANCH 47 48
ATOM     48  CB  SER P   3     -16.535  15.359  11.030  1.00 23.32 LIG 0.20  C 
BRANCH 48 49
ATOM     49 OG   SER P   3     -17.245  15.802  12.208  1.00 23.11 LIG-0.40  OA
ATOM     50 HG   SER P   3     -16.741  15.745  12.877  1.00 23.11 LIG 0.21  HD
ENDBRANCH 48 49
ENDBRANCH 47 48
BRANCH 47 51
ATOM     51  N   SER P   3     -17.420  13.216  11.755  1.00 22.53 LIG-0.34  N 
ATOM     52 H    SER P   3     -18.257  13.060  11.880  1.00 22.53 LIG 0.16  HD
ATOM     53  C   VAL P   2     -16.450  12.788  12.557  1.00 22.76 LIG 0.24  C 
ATOM     54 O    VAL P   2     -15.267  13.174  12.424  1.00 25.85 LIG-0.27  OA
BRANCH 53 55
ATOM     55  CA  VAL P   2     -16.887  11.941  13.755  1.00 24.07 LIG 0.18  C 
BRANCH 55 56
ATOM     56  N   VAL P   2     -15.728  11.375  14.448  1.00 24.29 LIG-0.35  N 
ATOM     57 H    VAL P   2     -15.159  11.945  14.748  1.00 24.29 LIG 0.16  HD
ATOM     58  C   VAL P   1     -15.627  10.032  14.572  1.00 26.39 LIG 0.25  C 
ATOM     59 O    VAL P   1     -16.521   9.263  14.109  1.00 26.90 LIG-0.27  OA
BRANCH 58 60
ATOM     60  CA  VAL P   1     -14.432   9.471  15.329  1.00 27.40 LIG 0.28  C 
BRANCH 60 61
ATOM     61  CB  VAL P   1     -14.647   9.569  16.873  1.00 27.20 LIG 0.02  C 
ATOM     62  CG2 VAL P   1     -16.132   9.335  17.172  1.00 28.02 LIG 0.01  C 
ATOM     63  CG1 VAL P   1     -14.215  10.978  17.216  1.00 27.17 LIG 0.01  C 
ENDBRANCH 60 61
BRANCH 60 64
ATOM     64  N   VAL P   1     -13.214  10.145  15.006  1.00 29.12 LIG-0.07  N 
ATOM     65 H2   VAL P   1     -12.567   9.865  15.548  1.00 29.12 LIG 0.28  HD
ATOM     66 H1   VAL P   1     -13.325  11.023  15.106  1.00 29.12 LIG 0.28  HD
ATOM     67 H3   VAL P   1     -12.991   9.968  14.163  1.00 29.12 LIG 0.28  HD
ENDBRANCH 60 64
ENDBRANCH 58 60
ENDBRANCH 55 56
BRANCH 55 68
ATOM     68  CB  VAL P   2     -17.797  12.828  14.655  1.00 25.03 LIG 0.01  C 
ATOM     69  CG2 VAL P   2     -17.740  12.310  16.105  1.00 23.99 LIG 0.01  C 
ATOM     70  CG1 VAL P   2     -19.240  12.855  14.188  1.00 25.56 LIG 0.01  C 
ENDBRANCH 55 68
ENDBRANCH 53 55
ENDBRANCH 47 51
ENDBRANCH 44 47
ENDBRANCH 1 43
TORSDOF 26
ENDMDL
MODEL 6
USER: ADFR SOLUTION from run 179
USER: SCORE 18.023766 LL:  -4.454 LR: -15.147 RR:   0.000 FEB:  -7.391
USER: RMSD 8.985589
USER: SEED 178
USER: STATUS searching
USER: GENES 28
USER: genes 0 Translation |==|  0.51623 0.34849 0.65721
USER: genes 1 Rotation |==|  0.49646 0.70039 0.05471 0.60748
USER: genes 2 Torsion [N]-CA--C-[N] |==|  0.48072
USER: genes 3 Torsion [C]-N--CA-[CB] |==|  0.71634
USER: genes 4 Torsion [N]-CA--CB-[CG] |==|  0.13507
USER: genes 5 Torsion [CA]-CB--CG-[CD2] |==|  0.28674
USER: genes 6 Torsion [N]-CA--C-[N] |==|  0.68074
USER: genes 7 Torsion [C]-N--CA-[CB] |==|  0.86667
USER: genes 8 Torsion [N]-CA--C-[N] |==|  0.31824
USER: genes 9 Torsion [C]-N--CA-[C] |==|  0.68766
USER: genes 10 Torsion [N]-CA--C-[O] |==|  0.96694
USER: genes 11 Torsion [N]-CA--CB-[CG] |==|  0.90860
USER: genes 12 Torsion [CA]-CB--CG-[OD1] |==|  0.79094
USER: genes 13 Torsion [N]-CA--CB-[CG] |==|  0.71919
USER: genes 14 Torsion [CA]-CB--CG-[OD1] |==|  0.97943
USER: genes 15 Torsion [C]-CA--CB-[CG] |==|  0.24241
USER: genes 16 Torsion [CA]-CB--CG-[CD2] |==|  0.76062
USER: genes 17 Torsion [C]-CA--N-[C] |==|  0.73219
USER: genes 18 Torsion [N]-C--CA-[N] |==|  0.37426
USER: genes 19 Torsion [C]-CA--CB-[OG] |==|  0.16607
USER: genes 20 Torsion [CA]-CB--OG-[HG] |==|  0.35353
USER: genes 21 Torsion [C]-CA--N-[C] |==|  0.75242
USER: genes 22 Torsion [N]-C--CA-[N] |==|  0.90226
USER: genes 23 Torsion [C]-CA--N-[C] |==|  0.83638
USER: genes 24 Torsion [N]-C--CA-[N] |==|  0.46935
USER: genes 25 Torsion [C]-CA--CB-[CG2] |==|  0.76479
USER: genes 26 Torsion [C]-CA--N-[H2] |==|  0.43153
USER: genes 27 Torsion [C]-CA--CB-[CG2] |==|  0.35606
ROOT
ATOM      1  CA  HIS P   4     -17.298   9.876  12.799  1.00 23.76 LIG 0.18  C 
ENDROOT
BRANCH 1 2
ATOM      2  C   HIS P   4     -16.355  10.709  11.918  1.00 25.01 LIG 0.24  C 
ATOM      3 O    HIS P   4     -16.498  10.741  10.689  1.00 23.35 LIG-0.27  OA
ATOM      4  N   PHE P   5     -15.345  11.321  12.533  1.00 23.15 LIG-0.35  N 
ATOM      5 H    PHE P   5     -15.183  11.237  13.374  1.00 23.15 LIG 0.16  HD
BRANCH 4 6
ATOM      6  CA  PHE P   5     -14.414  12.191  11.841  1.00 24.23 LIG 0.18  C 
BRANCH 6 7
ATOM      7  CB  PHE P   5     -13.087  11.410  11.591  1.00 25.15 LIG 0.07  C 
BRANCH 7 8
ATOM      8  CG  PHE P   5     -13.356  10.064  11.000  1.00 25.22 LIG-0.06  A 
ATOM      9  CD2 PHE P   5     -13.122   9.910   9.637  1.00 26.21 LIG 0.01  A 
ATOM     10  CE2 PHE P   5     -13.416   8.732   9.011  1.00 26.58 LIG 0.00  A 
ATOM     11  CZ  PHE P   5     -13.901   7.667   9.749  1.00 27.68 LIG 0.00  A 
ATOM     12  CE1 PHE P   5     -14.122   7.798  11.098  1.00 26.50 LIG 0.00  A 
ATOM     13  CD1 PHE P   5     -13.845   9.005  11.726  1.00 25.73 LIG 0.01  A 
ENDBRANCH 7 8
ENDBRANCH 6 7
BRANCH 6 14
ATOM     14  C   PHE P   5     -14.960  12.792  10.565  1.00 25.59 LIG 0.24  C 
ATOM     15 O    PHE P   5     -15.867  13.649  10.583  1.00 25.82 LIG-0.27  OA
ATOM     16  N   ASN P   6     -14.366  12.424   9.446  1.00 24.53 LIG-0.35  N 
ATOM     17 H    ASN P   6     -13.719  11.858   9.405  1.00 24.53 LIG 0.16  HD
BRANCH 16 18
ATOM     18  CA  ASN P   6     -14.780  12.968   8.160  1.00 25.84 LIG 0.18  C 
BRANCH 18 19
ATOM     19  C   ASN P   6     -14.259  14.361   7.894  1.00 25.26 LIG 0.24  C 
ATOM     20  N   ASP P   7     -13.385  14.523   6.881  1.00 26.59 LIG-0.34  N 
ATOM     21 H    ASP P   7     -13.080  13.886   6.390  1.00 26.59 LIG 0.16  HD
ATOM     22 O    ASN P   6     -14.612  15.291   8.623  1.00 25.72 LIG-0.27  OA
BRANCH 20 23
ATOM     23  CA  ASP P   7     -12.891  15.841   6.551  1.00 25.93 LIG 0.20  C 
BRANCH 23 24
ATOM     24  C   ASP P   7     -13.426  16.269   5.176  1.00 27.07 LIG 0.20  C 
ATOM     25 O    ASP P   7     -13.953  15.387   4.521  1.00 28.96 LIG-0.65  OA
ATOM     26 OXT  ASP P   7     -13.358  17.537   4.833  1.00 29.63 LIG-0.65  OA
ENDBRANCH 23 24
BRANCH 23 27
ATOM     27  CB  ASP P   7     -11.356  15.959   6.487  1.00 25.41 LIG 0.15  C 
BRANCH 27 28
ATOM     28  CG  ASP P   7     -10.647  15.054   7.462  1.00 25.37 LIG 0.17  C 
ATOM     29 OD1  ASP P   7     -10.580  15.273   8.692  1.00 26.66 LIG-0.65  OA
ATOM     30 OD2  ASP P   7     -10.133  13.997   6.961  1.00 23.76 LIG-0.65  OA
ENDBRANCH 27 28
ENDBRANCH 23 27
ENDBRANCH 20 23
ENDBRANCH 18 19
BRANCH 18 31
ATOM     31  CB  ASN P   6     -16.302  12.900   8.022  1.00 24.75 LIG 0.14  C 
BRANCH 31 32
ATOM     32  CG  ASN P   6     -16.736  11.733   7.161  1.00 27.24 LIG 0.22  C 
ATOM     33  ND2 ASN P   6     -18.056  11.565   7.229  1.00 23.85 LIG-0.37  N 
ATOM     34 21HD ASN P   6     -18.428  10.911   6.813  1.00 23.85 LIG 0.16  HD
ATOM     35 22HD ASN P   6     -18.536  12.111   7.688  1.00 23.85 LIG 0.16  HD
ATOM     36 OD1  ASN P   6     -15.877  11.041   6.543  1.00 24.90 LIG-0.27  OA
ENDBRANCH 31 32
ENDBRANCH 18 31
ENDBRANCH 16 18
ENDBRANCH 6 14
ENDBRANCH 4 6
ENDBRANCH 1 2
BRANCH 1 37
ATOM     37  CB  HIS P   4     -16.490   8.728  13.402  1.00 21.80 LIG 0.10  C 
BRANCH 37 38
ATOM     38  CG  HIS P   4     -15.805   9.084  14.687  1.00 23.01 LIG 0.06  A 
ATOM     39  CD2 HIS P   4     -14.633   9.649  14.974  1.00 23.26 LIG 0.14  A 
ATOM     40 NE2  HIS P   4     -14.633   9.918  16.319  1.00 21.45 LIG-0.25  NA
ATOM     41  CE1 HIS P   4     -15.794   9.553  16.855  1.00 22.12 LIG 0.23  A 
ATOM     42 ND1  HIS P   4     -16.523   9.065  15.901  1.00 22.83 LIG-0.24  NA
ENDBRANCH 37 38
ENDBRANCH 1 37
BRANCH 1 43
ATOM     43  N   HIS P   4     -18.431   9.435  11.939  1.00 22.02 LIG-0.35  N 
ATOM     44  C   SER P   3     -19.555  10.151  11.958  1.00 24.42 LIG 0.24  C 
ATOM     45 O    SER P   3     -19.668  11.143  12.696  1.00 24.72 LIG-0.27  OA
ATOM     46 H    HIS P   4     -18.294   8.727  11.469  1.00 22.02 LIG 0.16  HD
BRANCH 44 47
ATOM     47  CA  SER P   3     -20.738   9.666  11.136  1.00 22.14 LIG 0.20  C 
BRANCH 47 48
ATOM     48  CB  SER P   3     -20.907  10.458   9.823  1.00 23.32 LIG 0.20  C 
BRANCH 48 49
ATOM     49 OG   SER P   3     -19.713  10.318   9.023  1.00 23.11 LIG-0.40  OA
ATOM     50 HG   SER P   3     -19.921  10.057   8.252  1.00 23.11 LIG 0.21  HD
ENDBRANCH 48 49
ENDBRANCH 47 48
BRANCH 47 51
ATOM     51  N   SER P   3     -22.014   9.712  11.852  1.00 22.53 LIG-0.34  N 
ATOM     52 H    SER P   3     -22.452  10.446  11.761  1.00 22.53 LIG 0.16  HD
ATOM     53  C   VAL P   2     -22.428   8.677  12.577  1.00 22.76 LIG 0.24  C 
ATOM     54 O    VAL P   2     -21.685   7.697  12.811  1.00 25.85 LIG-0.27  OA
BRANCH 53 55
ATOM     55  CA  VAL P   2     -23.792   8.827  13.254  1.00 24.07 LIG 0.18  C 
BRANCH 55 56
ATOM     56  N   VAL P   2     -24.015  10.208  13.688  1.00 24.29 LIG-0.35  N 
ATOM     57 H    VAL P   2     -24.706  10.595  13.355  1.00 24.29 LIG 0.16  HD
ATOM     58  C   VAL P   1     -23.147  10.772  14.558  1.00 26.39 LIG 0.25  C 
ATOM     59 O    VAL P   1     -22.157  10.124  15.008  1.00 26.90 LIG-0.27  OA
BRANCH 58 60
ATOM     60  CA  VAL P   1     -23.422  12.196  15.021  1.00 27.40 LIG 0.28  C 
BRANCH 60 61
ATOM     61  CB  VAL P   1     -23.205  13.218  13.859  1.00 27.20 LIG 0.02  C 
ATOM     62  CG2 VAL P   1     -21.716  13.577  13.799  1.00 28.02 LIG 0.01  C 
ATOM     63  CG1 VAL P   1     -24.058  14.405  14.248  1.00 27.17 LIG 0.01  C 
ENDBRANCH 60 61
BRANCH 60 64
ATOM     64  N   VAL P   1     -22.589  12.586  16.115  1.00 29.12 LIG-0.07  N 
ATOM     65 H2   VAL P   1     -22.509  13.472  16.127  1.00 29.12 LIG 0.28  HD
ATOM     66 H1   VAL P   1     -21.784  12.217  16.022  1.00 29.12 LIG 0.28  HD
ATOM     67 H3   VAL P   1     -22.955  12.312  16.879  1.00 29.12 LIG 0.28  HD
ENDBRANCH 60 64
ENDBRANCH 58 60
ENDBRANCH 55 56
BRANCH 55 68
ATOM     68  CB  VAL P   2     -24.871   8.287  12.270  1.00 25.03 LIG 0.01  C 
ATOM     69  CG2 VAL P   2     -25.757   7.258  12.999  1.00 23.99 LIG 0.01  C 
ATOM     70  CG1 VAL P   2     -24.271   7.645  11.033  1.00 25.56 LIG 0.01  C 
ENDBRANCH 55 68
ENDBRANCH 53 55
ENDBRANCH 47 51
ENDBRANCH 44 47
ENDBRANCH 1 43
TORSDOF 26
ENDMDL
MODEL 7
USER: ADFR SOLUTION from run 135
USER: SCORE 19.010433 LL:  -5.859 LR: -15.019 RR:   0.000 FEB:  -7.263
USER: RMSD 9.348691
USER: SEED 134
USER: STATUS no improvement in best in 7 clusters for 5 generations
USER: GENES 28
USER: genes 0 Translation |==|  0.60363 0.43052 0.46175
USER: genes 1 Rotation |==|  0.43877 0.01257 0.49199 0.59271
USER: genes 2 Torsion [N]-CA--C-[N] |==|  0.05731
USER: genes 3 Torsion [C]-N--CA-[CB] |==|  0.76978
USER: genes 4 Torsion [N]-CA--CB-[CG] |==|  0.98182
USER: genes 5 Torsion [CA]-CB--CG-[CD2] |==|  0.77830
USER: genes 6 Torsion [N]-CA--C-[N] |==|  0.05548
USER: genes 7 Torsion [C]-N--CA-[CB] |==|  0.27052
USER: genes 8 Torsion [N]-CA--C-[N] |==|  0.33677
USER: genes 9 Torsion [C]-N--CA-[C] |==|  0.70299
USER: genes 10 Torsion [N]-CA--C-[O] |==|  0.40150
USER: genes 11 Torsion [N]-CA--CB-[CG] |==|  0.05455
USER: genes 12 Torsion [CA]-CB--CG-[OD1] |==|  0.29848
USER: genes 13 Torsion [N]-CA--CB-[CG] |==|  0.49856
USER: genes 14 Torsion [CA]-CB--CG-[OD1] |==|  0.22723
USER: genes 15 Torsion [C]-CA--CB-[CG] |==|  0.22453
USER: genes 16 Torsion [CA]-CB--CG-[CD2] |==|  0.24162
USER: genes 17 Torsion [C]-CA--N-[C] |==|  0.17866
USER: genes 18 Torsion [N]-C--CA-[N] |==|  0.10007
USER: genes 19 Torsion [C]-CA--CB-[OG] |==|  0.54160
USER: genes 20 Torsion [CA]-CB--OG-[HG] |==|  0.30446
USER: genes 21 Torsion [C]-CA--N-[C] |==|  0.16665
USER: genes 22 Torsion [N]-C--CA-[N] |==|  0.01243
USER: genes 23 Torsion [C]-CA--N-[C] |==|  0.70063
USER: genes 24 Torsion [N]-C--CA-[N] |==|  0.49500
USER: genes 25 Torsion [C]-CA--CB-[CG2] |==|  0.22279
USER: genes 26 Torsion [C]-CA--N-[H2] |==|  0.29401
USER: genes 27 Torsion [C]-CA--CB-[CG2] |==|  0.60895
ROOT
ATOM      1  CA  HIS P   4     -15.397  11.291   8.548  1.00 23.76 LIG 0.18  C 
ENDROOT
BRANCH 1 2
ATOM      2  C   HIS P   4     -13.977  11.456   9.106  1.00 25.01 LIG 0.24  C 
ATOM      3 O    HIS P   4     -12.986  11.242   8.395  1.00 23.35 LIG-0.27  OA
ATOM      4  N   PHE P   5     -13.872  11.760  10.399  1.00 23.15 LIG-0.35  N 
ATOM      5 H    PHE P   5     -14.549  11.827  10.925  1.00 23.15 LIG 0.16  HD
BRANCH 4 6
ATOM      6  CA  PHE P   5     -12.599  12.008  11.048  1.00 24.23 LIG 0.18  C 
BRANCH 6 7
ATOM      7  CB  PHE P   5     -11.960  10.641  11.440  1.00 25.15 LIG 0.07  C 
BRANCH 7 8
ATOM      8  CG  PHE P   5     -12.902   9.510  11.180  1.00 25.22 LIG-0.06  A 
ATOM      9  CD2 PHE P   5     -13.900   9.284  12.123  1.00 26.21 LIG 0.01  A 
ATOM     10  CE2 PHE P   5     -14.750   8.223  11.993  1.00 26.58 LIG 0.00  A 
ATOM     11  CZ  PHE P   5     -14.651   7.398  10.888  1.00 27.68 LIG 0.00  A 
ATOM     12  CE1 PHE P   5     -13.681   7.616   9.940  1.00 26.50 LIG 0.00  A 
ATOM     13  CD1 PHE P   5     -12.803   8.682  10.089  1.00 25.73 LIG 0.01  A 
ENDBRANCH 7 8
ENDBRANCH 6 7
BRANCH 6 14
ATOM     14  C   PHE P   5     -11.647  12.861  10.240  1.00 25.59 LIG 0.24  C 
ATOM     15 O    PHE P   5     -10.413  12.809  10.415  1.00 25.82 LIG-0.27  OA
ATOM     16  N   ASN P   6     -12.189  13.596   9.287  1.00 24.53 LIG-0.35  N 
ATOM     17 H    ASN P   6     -13.033  13.630   9.123  1.00 24.53 LIG 0.16  HD
BRANCH 16 18
ATOM     18  CA  ASN P   6     -11.367  14.427   8.418  1.00 25.84 LIG 0.18  C 
BRANCH 18 19
ATOM     19  C   ASN P   6     -11.936  15.807   8.182  1.00 25.26 LIG 0.24  C 
ATOM     20  N   ASP P   7     -11.183  16.867   8.537  1.00 26.59 LIG-0.34  N 
ATOM     21 H    ASP P   7     -10.411  16.816   8.914  1.00 26.59 LIG 0.16  HD
ATOM     22 O    ASN P   6     -13.071  15.924   7.714  1.00 25.72 LIG-0.27  OA
BRANCH 20 23
ATOM     23  CA  ASP P   7     -11.657  18.210   8.290  1.00 25.93 LIG 0.20  C 
BRANCH 23 24
ATOM     24  C   ASP P   7     -10.870  18.835   7.128  1.00 27.07 LIG 0.20  C 
ATOM     25 O    ASP P   7     -11.510  19.575   6.399  1.00 28.96 LIG-0.65  OA
ATOM     26 OXT  ASP P   7      -9.579  18.608   7.038  1.00 29.63 LIG-0.65  OA
ENDBRANCH 23 24
BRANCH 23 27
ATOM     27  CB  ASP P   7     -11.523  19.173   9.486  1.00 25.41 LIG 0.15  C 
BRANCH 27 28
ATOM     28  CG  ASP P   7     -10.523  18.710  10.514  1.00 25.37 LIG 0.17  C 
ATOM     29 OD1  ASP P   7      -9.403  19.242  10.684  1.00 26.66 LIG-0.65  OA
ATOM     30 OD2  ASP P   7     -10.901  17.740  11.255  1.00 23.76 LIG-0.65  OA
ENDBRANCH 27 28
ENDBRANCH 23 27
ENDBRANCH 20 23
ENDBRANCH 18 19
BRANCH 18 31
ATOM     31  CB  ASN P   6     -11.086  13.701   7.101  1.00 24.75 LIG 0.14  C 
BRANCH 31 32
ATOM     32  CG  ASN P   6     -10.243  14.541   6.166  1.00 27.24 LIG 0.22  C 
ATOM     33  ND2 ASN P   6     -11.004  15.114   5.236  1.00 23.85 LIG-0.37  N 
ATOM     34 21HD ASN P   6     -10.642  15.590   4.618  1.00 23.85 LIG 0.16  HD
ATOM     35 22HD ASN P   6     -11.857  15.007   5.252  1.00 23.85 LIG 0.16  HD
ATOM     36 OD1  ASN P   6      -8.986  14.584   6.303  1.00 24.90 LIG-0.27  OA
ENDBRANCH 31 32
ENDBRANCH 18 31
ENDBRANCH 16 18
ENDBRANCH 6 14
ENDBRANCH 4 6
ENDBRANCH 1 2
BRANCH 1 37
ATOM     37  CB  HIS P   4     -15.410  11.837   7.121  1.00 21.80 LIG 0.10  C 
BRANCH 37 38
ATOM     38  CG  HIS P   4     -14.875  10.874   6.104  1.00 23.01 LIG 0.06  A 
ATOM     39  CD2 HIS P   4     -15.429   9.894   5.391  1.00 23.26 LIG 0.14  A 
ATOM     40 NE2  HIS P   4     -14.499   9.493   4.466  1.00 21.45 LIG-0.25  NA
ATOM     41  CE1 HIS P   4     -13.396  10.227   4.582  1.00 22.12 LIG 0.23  A 
ATOM     42 ND1  HIS P   4     -13.597  11.073   5.543  1.00 22.83 LIG-0.24  NA
ENDBRANCH 37 38
ENDBRANCH 1 37
BRANCH 1 43
ATOM     43  N   HIS P   4     -16.321  12.000   9.476  1.00 22.02 LIG-0.35  N 
ATOM     44  C   SER P   3     -16.201  13.322   9.601  1.00 24.42 LIG 0.24  C 
ATOM     45 O    SER P   3     -15.321  13.944   8.984  1.00 24.72 LIG-0.27  OA
ATOM     46 H    HIS P   4     -16.893  11.508   9.889  1.00 22.02 LIG 0.16  HD
BRANCH 44 47
ATOM     47  CA  SER P   3     -17.095  14.041  10.597  1.00 22.14 LIG 0.20  C 
BRANCH 47 48
ATOM     48  CB  SER P   3     -16.525  15.413  11.017  1.00 23.32 LIG 0.20  C 
BRANCH 48 49
ATOM     49 OG   SER P   3     -17.215  15.875  12.199  1.00 23.11 LIG-0.40  OA
ATOM     50 HG   SER P   3     -16.694  15.844  12.857  1.00 23.11 LIG 0.21  HD
ENDBRANCH 48 49
ENDBRANCH 47 48
BRANCH 47 51
ATOM     51  N   SER P   3     -17.356  13.275  11.817  1.00 22.53 LIG-0.34  N 
ATOM     52 H    SER P   3     -18.186  13.103  11.964  1.00 22.53 LIG 0.16  HD
ATOM     53  C   VAL P   2     -16.361  12.892  12.611  1.00 22.76 LIG 0.24  C 
ATOM     54 O    VAL P   2     -15.190  13.303  12.443  1.00 25.85 LIG-0.27  OA
BRANCH 53 55
ATOM     55  CA  VAL P   2     -16.753  12.068  13.840  1.00 24.07 LIG 0.18  C 
BRANCH 55 56
ATOM     56  N   VAL P   2     -18.186  11.771  13.838  1.00 24.29 LIG-0.35  N 
ATOM     57 H    VAL P   2     -18.445  11.191  13.258  1.00 24.29 LIG 0.16  HD
ATOM     58  C   VAL P   1     -18.991  12.405  14.720  1.00 26.39 LIG 0.25  C 
ATOM     59 O    VAL P   1     -18.523  13.239  15.550  1.00 26.90 LIG-0.27  OA
BRANCH 58 60
ATOM     60  CA  VAL P   1     -20.471  12.051  14.722  1.00 27.40 LIG 0.28  C 
BRANCH 60 61
ATOM     61  CB  VAL P   1     -21.126  12.358  13.337  1.00 27.20 LIG 0.02  C 
ATOM     62  CG2 VAL P   1     -20.794  11.209  12.378  1.00 28.02 LIG 0.01  C 
ATOM     63  CG1 VAL P   1     -20.483  13.658  12.906  1.00 27.17 LIG 0.01  C 
ENDBRANCH 60 61
BRANCH 60 64
ATOM     64  N   VAL P   1     -21.202  12.758  15.725  1.00 29.12 LIG-0.07  N 
ATOM     65 H2   VAL P   1     -21.690  13.397  15.343  1.00 29.12 LIG 0.28  HD
ATOM     66 H1   VAL P   1     -20.634  13.127  16.303  1.00 29.12 LIG 0.28  HD
ATOM     67 H3   VAL P   1     -21.739  12.194  16.156  1.00 29.12 LIG 0.28  HD
ENDBRANCH 60 64
ENDBRANCH 58 60
ENDBRANCH 55 56
BRANCH 55 68
ATOM     68  CB  VAL P   2     -15.840  10.807  13.873  1.00 25.03 LIG 0.01  C 
ATOM     69  CG2 VAL P   2     -16.671   9.589  14.322  1.00 23.99 LIG 0.01  C 
ATOM     70  CG1 VAL P   2     -14.647  10.967  14.797  1.00 25.56 LIG 0.01  C 
ENDBRANCH 55 68
ENDBRANCH 53 55
ENDBRANCH 47 51
ENDBRANCH 44 47
ENDBRANCH 1 43
TORSDOF 26
ENDMDL
MODEL 8
USER: ADFR SOLUTION from run 198
USER: SCORE 17.523882 LL:  -5.840 LR: -14.991 RR:   0.000 FEB:  -7.235
USER: RMSD 9.374406
USER: SEED 197
USER: STATUS no improvement in best in 9 clusters for 5 generations
USER: GENES 28
USER: genes 0 Translation |==|  0.56378 0.51763 0.59218
USER: genes 1 Rotation |==|  0.58265 0.30479 0.04842 0.53372
USER: genes 2 Torsion [N]-CA--C-[N] |==|  0.60917
USER: genes 3 Torsion [C]-N--CA-[CB] |==|  0.83822
USER: genes 4 Torsion [N]-CA--CB-[CG] |==|  0.88202
USER: genes 5 Torsion [CA]-CB--CG-[CD2] |==|  0.32641
USER: genes 6 Torsion [N]-CA--C-[N] |==|  0.91644
USER: genes 7 Torsion [C]-N--CA-[CB] |==|  0.46887
USER: genes 8 Torsion [N]-CA--C-[N] |==|  0.69847
USER: genes 9 Torsion [C]-N--CA-[C] |==|  0.18724
USER: genes 10 Torsion [N]-CA--C-[O] |==|  0.57273
USER: genes 11 Torsion [N]-CA--CB-[CG] |==|  0.61287
USER: genes 12 Torsion [CA]-CB--CG-[OD1] |==|  0.08791
USER: genes 13 Torsion [N]-CA--CB-[CG] |==|  0.61223
USER: genes 14 Torsion [CA]-CB--CG-[OD1] |==|  0.27304
USER: genes 15 Torsion [C]-CA--CB-[CG] |==|  0.69253
USER: genes 16 Torsion [CA]-CB--CG-[CD2] |==|  0.28784
USER: genes 17 Torsion [C]-CA--N-[C] |==|  0.62813
USER: genes 18 Torsion [N]-C--CA-[N] |==|  0.17823
USER: genes 19 Torsion [C]-CA--CB-[OG] |==|  0.41676
USER: genes 20 Torsion [CA]-CB--OG-[HG] |==|  0.75114
USER: genes 21 Torsion [C]-CA--N-[C] |==|  0.76034
USER: genes 22 Torsion [N]-C--CA-[N] |==|  0.95885
USER: genes 23 Torsion [C]-CA--N-[C] |==|  0.61111
USER: genes 24 Torsion [N]-C--CA-[N] |==|  0.60436
USER: genes 25 Torsion [C]-CA--CB-[CG2] |==|  0.81910
USER: genes 26 Torsion [C]-CA--N-[H2] |==|  0.59472
USER: genes 27 Torsion [C]-CA--CB-[CG2] |==|  0.87598
ROOT
ATOM      1  CA  HIS P   4     -16.264  12.794  11.385  1.00 23.76 LIG 0.18  C 
ENDROOT
BRANCH 1 2
ATOM      2  C   HIS P   4     -14.939  12.019  11.353  1.00 25.01 LIG 0.24  C 
ATOM      3 O    HIS P   4     -14.761  11.099  10.544  1.00 23.35 LIG-0.27  OA
ATOM      4  N   PHE P   5     -14.037  12.335  12.281  1.00 23.15 LIG-0.35  N 
ATOM      5 H    PHE P   5     -14.181  12.912  12.902  1.00 23.15 LIG 0.16  HD
BRANCH 4 6
ATOM      6  CA  PHE P   5     -12.719  11.733  12.334  1.00 24.23 LIG 0.18  C 
BRANCH 6 7
ATOM      7  CB  PHE P   5     -12.878  10.187  12.469  1.00 25.15 LIG 0.07  C 
BRANCH 7 8
ATOM      8  CG  PHE P   5     -13.956   9.838  13.443  1.00 25.22 LIG-0.06  A 
ATOM      9  CD2 PHE P   5     -15.054   9.138  12.953  1.00 26.21 LIG 0.01  A 
ATOM     10  CE2 PHE P   5     -16.113   8.850  13.765  1.00 26.58 LIG 0.00  A 
ATOM     11  CZ  PHE P   5     -16.070   9.211  15.100  1.00 27.68 LIG 0.00  A 
ATOM     12  CE1 PHE P   5     -14.986   9.888  15.603  1.00 26.50 LIG 0.00  A 
ATOM     13  CD1 PHE P   5     -13.922  10.201  14.767  1.00 25.73 LIG 0.01  A 
ENDBRANCH 7 8
ENDBRANCH 6 7
BRANCH 6 14
ATOM     14  C   PHE P   5     -11.820  12.106  11.176  1.00 25.59 LIG 0.24  C 
ATOM     15 O    PHE P   5     -10.577  12.092  11.283  1.00 25.82 LIG-0.27  OA
ATOM     16  N   ASN P   6     -12.423  12.363  10.031  1.00 24.53 LIG-0.35  N 
ATOM     17 H    ASN P   6     -13.275  12.351   9.918  1.00 24.53 LIG 0.16  HD
BRANCH 16 18
ATOM     18  CA  ASN P   6     -11.657  12.695   8.837  1.00 25.84 LIG 0.18  C 
BRANCH 18 19
ATOM     19  C   ASN P   6     -10.898  13.997   8.945  1.00 25.26 LIG 0.24  C 
ATOM     20  N   ASP P   7     -11.340  15.045   8.221  1.00 26.59 LIG-0.34  N 
ATOM     21 H    ASP P   7     -12.008  15.019   7.679  1.00 26.59 LIG 0.16  HD
ATOM     22 O    ASN P   6      -9.889  14.055   9.651  1.00 25.72 LIG-0.27  OA
BRANCH 20 23
ATOM     23  CA  ASP P   7     -10.680  16.327   8.322  1.00 25.93 LIG 0.20  C 
BRANCH 23 24
ATOM     24  C   ASP P   7      -9.266  16.234   7.730  1.00 27.07 LIG 0.20  C 
ATOM     25 O    ASP P   7      -8.458  17.031   8.174  1.00 28.96 LIG-0.65  OA
ATOM     26 OXT  ASP P   7      -8.998  15.279   6.867  1.00 29.63 LIG-0.65  OA
ENDBRANCH 23 24
BRANCH 23 27
ATOM     27  CB  ASP P   7     -10.526  16.863   9.759  1.00 25.41 LIG 0.15  C 
BRANCH 27 28
ATOM     28  CG  ASP P   7     -10.784  18.343   9.874  1.00 25.37 LIG 0.17  C 
ATOM     29 OD1  ASP P   7     -11.594  18.966   9.151  1.00 26.66 LIG-0.65  OA
ATOM     30 OD2  ASP P   7     -10.143  18.945  10.801  1.00 23.76 LIG-0.65  OA
ENDBRANCH 27 28
ENDBRANCH 23 27
ENDBRANCH 20 23
ENDBRANCH 18 19
BRANCH 18 31
ATOM     31  CB  ASN P   6     -12.563  12.671   7.604  1.00 24.75 LIG 0.14  C 
BRANCH 31 32
ATOM     32  CG  ASN P   6     -11.872  12.047   6.411  1.00 27.24 LIG 0.22  C 
ATOM     33  ND2 ASN P   6     -11.127  12.949   5.775  1.00 23.85 LIG-0.37  N 
ATOM     34 21HD ASN P   6     -10.708  12.731   5.056  1.00 23.85 LIG 0.16  HD
ATOM     35 22HD ASN P   6     -11.064  13.749   6.084  1.00 23.85 LIG 0.16  HD
ATOM     36 OD1  ASN P   6     -12.081  10.836   6.113  1.00 24.90 LIG-0.27  OA
ENDBRANCH 31 32
ENDBRANCH 18 31
ENDBRANCH 16 18
ENDBRANCH 6 14
ENDBRANCH 4 6
ENDBRANCH 1 2
BRANCH 1 37
ATOM     37  CB  HIS P   4     -16.392  13.455  12.757  1.00 21.80 LIG 0.10  C 
BRANCH 37 38
ATOM     38  CG  HIS P   4     -17.469  12.860  13.612  1.00 23.01 LIG 0.06  A 
ATOM     39  CD2 HIS P   4     -17.458  12.030  14.655  1.00 23.26 LIG 0.14  A 
ATOM     40 NE2  HIS P   4     -18.732  12.001  15.162  1.00 21.45 LIG-0.25  NA
ATOM     41  CE1 HIS P   4     -19.516  12.819  14.466  1.00 22.12 LIG 0.23  A 
ATOM     42 ND1  HIS P   4     -18.787  13.360  13.543  1.00 22.83 LIG-0.24  NA
ENDBRANCH 37 38
ENDBRANCH 1 37
BRANCH 1 43
ATOM     43  N   HIS P   4     -17.350  11.824  11.075  1.00 22.02 LIG-0.35  N 
ATOM     44  C   SER P   3     -18.281  12.180  10.190  1.00 24.42 LIG 0.24  C 
ATOM     45 O    SER P   3     -18.263  13.302   9.659  1.00 24.72 LIG-0.27  OA
ATOM     46 H    HIS P   4     -17.317  11.073  11.494  1.00 22.02 LIG 0.16  HD
BRANCH 44 47
ATOM     47  CA  SER P   3     -19.431  11.222   9.921  1.00 22.14 LIG 0.20  C 
BRANCH 47 48
ATOM     48  CB  SER P   3     -20.326  11.689   8.755  1.00 23.32 LIG 0.20  C 
BRANCH 48 49
ATOM     49 OG   SER P   3     -20.896  10.535   8.099  1.00 23.11 LIG-0.40  OA
ATOM     50 HG   SER P   3     -20.383  10.279   7.486  1.00 23.11 LIG 0.21  HD
ENDBRANCH 48 49
ENDBRANCH 47 48
BRANCH 47 51
ATOM     51  N   SER P   3     -20.292  10.993  11.082  1.00 22.53 LIG-0.34  N 
ATOM     52 H    SER P   3     -20.982  11.504  11.126  1.00 22.53 LIG 0.16  HD
ATOM     53  C   VAL P   2     -19.996  10.056  11.978  1.00 22.76 LIG 0.24  C 
ATOM     54 O    VAL P   2     -18.902   9.449  11.960  1.00 25.85 LIG-0.27  OA
BRANCH 53 55
ATOM     55  CA  VAL P   2     -20.988   9.886  13.132  1.00 24.07 LIG 0.18  C 
BRANCH 55 56
ATOM     56  N   VAL P   2     -21.900  11.027  13.214  1.00 24.29 LIG-0.35  N 
ATOM     57 H    VAL P   2     -22.180  11.335  12.462  1.00 24.29 LIG 0.16  HD
ATOM     58  C   VAL P   1     -22.238  11.514  14.430  1.00 26.39 LIG 0.25  C 
ATOM     59 O    VAL P   1     -21.787  10.991  15.492  1.00 26.90 LIG-0.27  OA
BRANCH 58 60
ATOM     60  CA  VAL P   1     -23.217  12.678  14.489  1.00 27.40 LIG 0.28  C 
BRANCH 60 61
ATOM     61  CB  VAL P   1     -23.261  13.446  13.129  1.00 27.20 LIG 0.02  C 
ATOM     62  CG2 VAL P   1     -21.891  14.092  12.893  1.00 28.02 LIG 0.01  C 
ATOM     63  CG1 VAL P   1     -24.348  14.480  13.325  1.00 27.17 LIG 0.01  C 
ENDBRANCH 60 61
BRANCH 60 64
ATOM     64  N   VAL P   1     -22.892  13.615  15.518  1.00 29.12 LIG-0.07  N 
ATOM     65 H2   VAL P   1     -23.640  13.956  15.857  1.00 29.12 LIG 0.28  HD
ATOM     66 H1   VAL P   1     -22.396  14.271  15.176  1.00 29.12 LIG 0.28  HD
ATOM     67 H3   VAL P   1     -22.436  13.203  16.162  1.00 29.12 LIG 0.28  HD
ENDBRANCH 60 64
ENDBRANCH 58 60
ENDBRANCH 55 56
BRANCH 55 68
ATOM     68  CB  VAL P   2     -21.700   8.513  12.945  1.00 25.03 LIG 0.01  C 
ATOM     69  CG2 VAL P   2     -22.107   8.348  11.468  1.00 23.99 LIG 0.01  C 
ATOM     70  CG1 VAL P   2     -22.927   8.362  13.824  1.00 25.56 LIG 0.01  C 
ENDBRANCH 55 68
ENDBRANCH 53 55
ENDBRANCH 47 51
ENDBRANCH 44 47
ENDBRANCH 1 43
TORSDOF 26
ENDMDL
MODEL 9
USER: ADFR SOLUTION from run 196
USER: SCORE 19.396237 LL:  -6.191 LR: -14.965 RR:   0.000 FEB:  -7.209
USER: RMSD 8.368145
USER: SEED 195
USER: STATUS searching
USER: GENES 28
USER: genes 0 Translation |==|  0.52334 0.34557 0.71914
USER: genes 1 Rotation |==|  0.45892 0.68602 0.05768 0.63438
USER: genes 2 Torsion [N]-CA--C-[N] |==|  0.44444
USER: genes 3 Torsion [C]-N--CA-[CB] |==|  0.75393
USER: genes 4 Torsion [N]-CA--CB-[CG] |==|  0.17581
USER: genes 5 Torsion [CA]-CB--CG-[CD2] |==|  0.25209
USER: genes 6 Torsion [N]-CA--C-[N] |==|  0.07776
USER: genes 7 Torsion [C]-N--CA-[CB] |==|  0.24757
USER: genes 8 Torsion [N]-CA--C-[N] |==|  0.48155
USER: genes 9 Torsion [C]-N--CA-[C] |==|  0.57146
USER: genes 10 Torsion [N]-CA--C-[O] |==|  0.12191
USER: genes 11 Torsion [N]-CA--CB-[CG] |==|  0.72596
USER: genes 12 Torsion [CA]-CB--CG-[OD1] |==|  0.90244
USER: genes 13 Torsion [N]-CA--CB-[CG] |==|  0.59367
USER: genes 14 Torsion [CA]-CB--CG-[OD1] |==|  0.04129
USER: genes 15 Torsion [C]-CA--CB-[CG] |==|  0.26120
USER: genes 16 Torsion [CA]-CB--CG-[CD2] |==|  0.27460
USER: genes 17 Torsion [C]-CA--N-[C] |==|  0.80865
USER: genes 18 Torsion [N]-C--CA-[N] |==|  0.37180
USER: genes 19 Torsion [C]-CA--CB-[OG] |==|  0.34061
USER: genes 20 Torsion [CA]-CB--OG-[HG] |==|  0.91178
USER: genes 21 Torsion [C]-CA--N-[C] |==|  0.68334
USER: genes 22 Torsion [N]-C--CA-[N] |==|  0.93485
USER: genes 23 Torsion [C]-CA--N-[C] |==|  0.84348
USER: genes 24 Torsion [N]-C--CA-[N] |==|  0.50594
USER: genes 25 Torsion [C]-CA--CB-[CG2] |==|  0.22270
USER: genes 26 Torsion [C]-CA--N-[H2] |==|  0.67493
USER: genes 27 Torsion [C]-CA--CB-[CG2] |==|  0.27440
ROOT
ATOM      1  CA  HIS P   4     -17.143   9.826  14.146  1.00 23.76 LIG 0.18  C 
ENDROOT
BRANCH 1 2
ATOM      2  C   HIS P   4     -16.413  10.718  13.132  1.00 25.01 LIG 0.24  C 
ATOM      3 O    HIS P   4     -16.460  10.471  11.920  1.00 23.35 LIG-0.27  OA
ATOM      4  N   PHE P   5     -15.674  11.709  13.628  1.00 23.15 LIG-0.35  N 
ATOM      5 H    PHE P   5     -15.563  11.839  14.471  1.00 23.15 LIG 0.16  HD
BRANCH 4 6
ATOM      6  CA  PHE P   5     -14.981  12.668  12.790  1.00 24.23 LIG 0.18  C 
BRANCH 6 7
ATOM      7  CB  PHE P   5     -13.566  12.108  12.450  1.00 25.15 LIG 0.07  C 
BRANCH 7 8
ATOM      8  CG  PHE P   5     -13.661  10.848  11.653  1.00 25.22 LIG-0.06  A 
ATOM      9  CD2 PHE P   5     -13.675  10.971  10.267  1.00 26.21 LIG 0.01  A 
ATOM     10  CE2 PHE P   5     -13.837   9.872   9.474  1.00 26.58 LIG 0.00  A 
ATOM     11  CZ  PHE P   5     -13.934   8.619  10.052  1.00 27.68 LIG 0.00  A 
ATOM     12  CE1 PHE P   5     -13.906   8.478  11.417  1.00 26.50 LIG 0.00  A 
ATOM     13  CD1 PHE P   5     -13.767   9.602  12.221  1.00 25.73 LIG 0.01  A 
ENDBRANCH 7 8
ENDBRANCH 6 7
BRANCH 6 14
ATOM     14  C   PHE P   5     -15.741  13.067  11.545  1.00 25.59 LIG 0.24  C 
ATOM     15 O    PHE P   5     -15.152  13.362  10.485  1.00 25.82 LIG-0.27  OA
ATOM     16  N   ASN P   6     -17.057  13.002  11.620  1.00 24.53 LIG-0.35  N 
ATOM     17 H    ASN P   6     -17.491  12.774  12.327  1.00 24.53 LIG 0.16  HD
BRANCH 16 18
ATOM     18  CA  ASN P   6     -17.893  13.324  10.471  1.00 25.84 LIG 0.18  C 
BRANCH 18 19
ATOM     19  C   ASN P   6     -19.190  14.007  10.836  1.00 25.26 LIG 0.24  C 
ATOM     20  N   ASP P   7     -19.964  14.465   9.832  1.00 26.59 LIG-0.34  N 
ATOM     21 H    ASP P   7     -19.761  14.421   8.998  1.00 26.59 LIG 0.16  HD
ATOM     22 O    ASN P   6     -19.483  14.159  12.024  1.00 25.72 LIG-0.27  OA
BRANCH 20 23
ATOM     23  CA  ASP P   7     -21.237  15.085  10.122  1.00 25.93 LIG 0.20  C 
BRANCH 23 24
ATOM     24  C   ASP P   7     -22.176  14.936   8.914  1.00 27.07 LIG 0.20  C 
ATOM     25 O    ASP P   7     -22.185  13.836   8.390  1.00 28.96 LIG-0.65  OA
ATOM     26 OXT  ASP P   7     -22.947  15.947   8.578  1.00 29.63 LIG-0.65  OA
ENDBRANCH 23 24
BRANCH 23 27
ATOM     27  CB  ASP P   7     -21.165  16.590  10.445  1.00 25.41 LIG 0.15  C 
BRANCH 27 28
ATOM     28  CG  ASP P   7     -21.184  16.884  11.923  1.00 25.37 LIG 0.17  C 
ATOM     29 OD1  ASP P   7     -21.839  16.218  12.756  1.00 26.66 LIG-0.65  OA
ATOM     30 OD2  ASP P   7     -20.446  17.856  12.303  1.00 23.76 LIG-0.65  OA
ENDBRANCH 27 28
ENDBRANCH 23 27
ENDBRANCH 20 23
ENDBRANCH 18 19
BRANCH 18 31
ATOM     31  CB  ASN P   6     -18.134  12.072   9.626  1.00 24.75 LIG 0.14  C 
BRANCH 31 32
ATOM     32  CG  ASN P   6     -18.231  12.401   8.151  1.00 27.24 LIG 0.22  C 
ATOM     33  ND2 ASN P   6     -18.700  11.358   7.468  1.00 23.85 LIG-0.37  N 
ATOM     34 21HD ASN P   6     -18.770  11.402   6.612  1.00 23.85 LIG 0.16  HD
ATOM     35 22HD ASN P   6     -18.934  10.642   7.883  1.00 23.85 LIG 0.16  HD
ATOM     36 OD1  ASN P   6     -17.843  13.525   7.720  1.00 24.90 LIG-0.27  OA
ENDBRANCH 31 32
ENDBRANCH 18 31
ENDBRANCH 16 18
ENDBRANCH 6 14
ENDBRANCH 4 6
ENDBRANCH 1 2
BRANCH 1 37
ATOM     37  CB  HIS P   4     -16.120   8.871  14.760  1.00 21.80 LIG 0.10  C 
BRANCH 37 38
ATOM     38  CG  HIS P   4     -15.528   9.368  16.043  1.00 23.01 LIG 0.06  A 
ATOM     39  CD2 HIS P   4     -15.781   9.115  17.327  1.00 23.26 LIG 0.14  A 
ATOM     40 NE2  HIS P   4     -14.779   9.701  18.059  1.00 21.45 LIG-0.25  NA
ATOM     41  CE1 HIS P   4     -13.904  10.285  17.245  1.00 22.12 LIG 0.23  A 
ATOM     42 ND1  HIS P   4     -14.315  10.090  16.033  1.00 22.83 LIG-0.24  NA
ENDBRANCH 37 38
ENDBRANCH 1 37
BRANCH 1 43
ATOM     43  N   HIS P   4     -18.249   9.143  13.419  1.00 22.02 LIG-0.35  N 
ATOM     44  C   SER P   3     -19.277   9.879  12.998  1.00 24.42 LIG 0.24  C 
ATOM     45 O    SER P   3     -19.330  11.097  13.233  1.00 24.72 LIG-0.27  OA
ATOM     46 H    HIS P   4     -18.161   8.295  13.309  1.00 22.02 LIG 0.16  HD
BRANCH 44 47
ATOM     47  CA  SER P   3     -20.441   9.178  12.316  1.00 22.14 LIG 0.20  C 
BRANCH 47 48
ATOM     48  CB  SER P   3     -20.421   9.358  10.784  1.00 23.32 LIG 0.20  C 
BRANCH 48 49
ATOM     49 OG   SER P   3     -20.393   8.061  10.150  1.00 23.11 LIG-0.40  OA
ATOM     50 HG   SER P   3     -19.975   7.520  10.638  1.00 23.11 LIG 0.21  HD
ENDBRANCH 48 49
ENDBRANCH 47 48
BRANCH 47 51
ATOM     51  N   SER P   3     -21.755   9.606  12.799  1.00 22.53 LIG-0.34  N 
ATOM     52 H    SER P   3     -21.955  10.424  12.623  1.00 22.53 LIG 0.16  HD
ATOM     53  C   VAL P   2     -22.548   8.766  13.456  1.00 22.76 LIG 0.24  C 
ATOM     54 O    VAL P   2     -22.150   7.639  13.829  1.00 25.85 LIG-0.27  OA
BRANCH 53 55
ATOM     55  CA  VAL P   2     -23.911   9.316  13.884  1.00 24.07 LIG 0.18  C 
BRANCH 55 56
ATOM     56  N   VAL P   2     -23.880  10.776  13.985  1.00 24.29 LIG-0.35  N 
ATOM     57 H    VAL P   2     -24.461  11.194  13.509  1.00 24.29 LIG 0.16  HD
ATOM     58  C   VAL P   1     -22.969  11.361  14.795  1.00 26.39 LIG 0.25  C 
ATOM     59 O    VAL P   1     -22.154  10.667  15.471  1.00 26.90 LIG-0.27  OA
BRANCH 58 60
ATOM     60  CA  VAL P   1     -22.982  12.878  14.909  1.00 27.40 LIG 0.28  C 
BRANCH 60 61
ATOM     61  CB  VAL P   1     -22.829  13.550  13.507  1.00 27.20 LIG 0.02  C 
ATOM     62  CG2 VAL P   1     -24.193  13.534  12.809  1.00 28.02 LIG 0.01  C 
ATOM     63  CG1 VAL P   1     -21.816  12.683  12.792  1.00 27.17 LIG 0.01  C 
ENDBRANCH 60 61
BRANCH 60 64
ATOM     64  N   VAL P   1     -21.942  13.373  15.755  1.00 29.12 LIG-0.07  N 
ATOM     65 H2   VAL P   1     -22.301  13.784  16.458  1.00 29.12 LIG 0.28  HD
ATOM     66 H1   VAL P   1     -21.438  13.949  15.300  1.00 29.12 LIG 0.28  HD
ATOM     67 H3   VAL P   1     -21.438  12.694  16.034  1.00 29.12 LIG 0.28  HD
ENDBRANCH 60 64
ENDBRANCH 58 60
ENDBRANCH 55 56
BRANCH 55 68
ATOM     68  CB  VAL P   2     -24.976   8.768  12.889  1.00 25.03 LIG 0.01  C 
ATOM     69  CG2 VAL P   2     -25.681   7.550  13.517  1.00 23.99 LIG 0.01  C 
ATOM     70  CG1 VAL P   2     -24.381   8.368  11.551  1.00 25.56 LIG 0.01  C 
ENDBRANCH 55 68
ENDBRANCH 53 55
ENDBRANCH 47 51
ENDBRANCH 44 47
ENDBRANCH 1 43
TORSDOF 26
ENDMDL
MODEL 10
USER: ADFR SOLUTION from run 85
USER: SCORE 18.389866 LL:  -5.235 LR: -14.918 RR:   0.000 FEB:  -7.162
USER: RMSD 5.666029
USER: SEED 84
USER: STATUS searching
USER: GENES 28
USER: genes 0 Translation |==|  0.52154 0.33130 0.64335
USER: genes 1 Rotation |==|  0.44772 0.52862 0.47752 0.99593
USER: genes 2 Torsion [N]-CA--C-[N] |==|  0.44474
USER: genes 3 Torsion [C]-N--CA-[CB] |==|  0.23374
USER: genes 4 Torsion [N]-CA--CB-[CG] |==|  0.54514
USER: genes 5 Torsion [CA]-CB--CG-[CD2] |==|  0.60336
USER: genes 6 Torsion [N]-CA--C-[N] |==|  0.98776
USER: genes 7 Torsion [C]-N--CA-[CB] |==|  0.77007
USER: genes 8 Torsion [N]-CA--C-[N] |==|  0.16420
USER: genes 9 Torsion [C]-N--CA-[C] |==|  0.19285
USER: genes 10 Torsion [N]-CA--C-[O] |==|  0.61140
USER: genes 11 Torsion [N]-CA--CB-[CG] |==|  0.85902
USER: genes 12 Torsion [CA]-CB--CG-[OD1] |==|  0.24244
USER: genes 13 Torsion [N]-CA--CB-[CG] |==|  0.85218
USER: genes 14 Torsion [CA]-CB--CG-[OD1] |==|  0.16741
USER: genes 15 Torsion [C]-CA--CB-[CG] |==|  0.48362
USER: genes 16 Torsion [CA]-CB--CG-[CD2] |==|  0.84398
USER: genes 17 Torsion [C]-CA--N-[C] |==|  0.59913
USER: genes 18 Torsion [N]-C--CA-[N] |==|  0.91388
USER: genes 19 Torsion [C]-CA--CB-[OG] |==|  0.83720
USER: genes 20 Torsion [CA]-CB--OG-[HG] |==|  0.47295
USER: genes 21 Torsion [C]-CA--N-[C] |==|  0.75236
USER: genes 22 Torsion [N]-C--CA-[N] |==|  0.81939
USER: genes 23 Torsion [C]-CA--N-[C] |==|  0.62906
USER: genes 24 Torsion [N]-C--CA-[N] |==|  0.60011
USER: genes 25 Torsion [C]-CA--CB-[CG2] |==|  0.55880
USER: genes 26 Torsion [C]-CA--N-[H2] |==|  0.66403
USER: genes 27 Torsion [C]-CA--CB-[CG2] |==|  0.73982
ROOT
ATOM      1  CA  HIS P   4     -17.182   9.580  12.498  1.00 23.76 LIG 0.18  C 
ENDROOT
BRANCH 1 2
ATOM      2  C   HIS P   4     -18.296   9.966  11.514  1.00 25.01 LIG 0.24  C 
ATOM      3 O    HIS P   4     -18.073  10.743  10.576  1.00 23.35 LIG-0.27  OA
ATOM      4  N   PHE P   5     -19.512   9.487  11.767  1.00 23.15 LIG-0.35  N 
ATOM      5 H    PHE P   5     -19.699   9.017  12.463  1.00 23.15 LIG 0.16  HD
BRANCH 4 6
ATOM      6  CA  PHE P   5     -20.646   9.715  10.891  1.00 24.23 LIG 0.18  C 
BRANCH 6 7
ATOM      7  CB  PHE P   5     -20.623   8.649   9.754  1.00 25.15 LIG 0.07  C 
BRANCH 7 8
ATOM      8  CG  PHE P   5     -21.509   9.050   8.619  1.00 25.22 LIG-0.06  A 
ATOM      9  CD2 PHE P   5     -22.219   8.040   7.978  1.00 26.21 LIG 0.01  A 
ATOM     10  CE2 PHE P   5     -22.989   8.319   6.885  1.00 26.58 LIG 0.00  A 
ATOM     11  CZ  PHE P   5     -23.106   9.625   6.445  1.00 27.68 LIG 0.00  A 
ATOM     12  CE1 PHE P   5     -22.424  10.636   7.077  1.00 26.50 LIG 0.00  A 
ATOM     13  CD1 PHE P   5     -21.623  10.345   8.173  1.00 25.73 LIG 0.01  A 
ENDBRANCH 7 8
ENDBRANCH 6 7
BRANCH 6 14
ATOM     14  C   PHE P   5     -21.980   9.750  11.602  1.00 25.59 LIG 0.24  C 
ATOM     15 O    PHE P   5     -23.046   9.942  10.982  1.00 25.82 LIG-0.27  OA
ATOM     16  N   ASN P   6     -21.960   9.483  12.894  1.00 24.53 LIG-0.35  N 
ATOM     17 H    ASN P   6     -21.245   9.318  13.343  1.00 24.53 LIG 0.16  HD
BRANCH 16 18
ATOM     18  CA  ASN P   6     -23.189   9.448  13.675  1.00 25.84 LIG 0.18  C 
BRANCH 18 19
ATOM     19  C   ASN P   6     -24.326   8.731  12.986  1.00 25.26 LIG 0.24  C 
ATOM     20  N   ASP P   7     -24.142   7.439  12.646  1.00 26.59 LIG-0.34  N 
ATOM     21 H    ASP P   7     -23.413   7.000  12.769  1.00 26.59 LIG 0.16  HD
ATOM     22 O    ASN P   6     -25.362   9.346  12.723  1.00 25.72 LIG-0.27  OA
BRANCH 20 23
ATOM     23  CA  ASP P   7     -25.213   6.691  12.028  1.00 25.93 LIG 0.20  C 
BRANCH 23 24
ATOM     24  C   ASP P   7     -25.461   7.215  10.605  1.00 27.07 LIG 0.20  C 
ATOM     25 O    ASP P   7     -26.630   7.292  10.271  1.00 28.96 LIG-0.65  OA
ATOM     26 OXT  ASP P   7     -24.435   7.612   9.885  1.00 29.63 LIG-0.65  OA
ENDBRANCH 23 24
BRANCH 23 27
ATOM     27  CB  ASP P   7     -26.562   6.762  12.768  1.00 25.41 LIG 0.15  C 
BRANCH 27 28
ATOM     28  CG  ASP P   7     -26.453   6.445  14.238  1.00 25.37 LIG 0.17  C 
ATOM     29 OD1  ASP P   7     -26.189   7.297  15.115  1.00 26.66 LIG-0.65  OA
ATOM     30 OD2  ASP P   7     -26.688   5.231  14.560  1.00 23.76 LIG-0.65  OA
ENDBRANCH 27 28
ENDBRANCH 23 27
ENDBRANCH 20 23
ENDBRANCH 18 19
BRANCH 18 31
ATOM     31  CB  ASN P   6     -23.588  10.864  14.095  1.00 24.75 LIG 0.14  C 
BRANCH 31 32
ATOM     32  CG  ASN P   6     -22.456  11.582  14.798  1.00 27.24 LIG 0.22  C 
ATOM     33  ND2 ASN P   6     -22.831  11.970  16.016  1.00 23.85 LIG-0.37  N 
ATOM     34 21HD ASN P   6     -22.290  12.422  16.508  1.00 23.85 LIG 0.16  HD
ATOM     35 22HD ASN P   6     -23.614  11.769  16.309  1.00 23.85 LIG 0.16  HD
ATOM     36 OD1  ASN P   6     -21.358  11.781  14.203  1.00 24.90 LIG-0.27  OA
ENDBRANCH 31 32
ENDBRANCH 18 31
ENDBRANCH 16 18
ENDBRANCH 6 14
ENDBRANCH 4 6
ENDBRANCH 1 2
BRANCH 1 37
ATOM     37  CB  HIS P   4     -17.350  10.429  13.758  1.00 21.80 LIG 0.10  C 
BRANCH 37 38
ATOM     38  CG  HIS P   4     -16.410  10.056  14.863  1.00 23.01 LIG 0.06  A 
ATOM     39  CD2 HIS P   4     -16.162   8.917  15.510  1.00 23.26 LIG 0.14  A 
ATOM     40 NE2  HIS P   4     -15.046   9.126  16.281  1.00 21.45 LIG-0.25  NA
ATOM     41  CE1 HIS P   4     -14.592  10.362  16.097  1.00 22.12 LIG 0.23  A 
ATOM     42 ND1  HIS P   4     -15.376  10.938  15.243  1.00 22.83 LIG-0.24  NA
ENDBRANCH 37 38
ENDBRANCH 1 37
BRANCH 1 43
ATOM     43  N   HIS P   4     -15.884   9.784  11.798  1.00 22.02 LIG-0.35  N 
ATOM     44  C   SER P   3     -14.889   8.934  12.052  1.00 24.42 LIG 0.24  C 
ATOM     45 O    SER P   3     -15.028   8.014  12.874  1.00 24.72 LIG-0.27  OA
ATOM     46 H    HIS P   4     -15.847  10.453  11.258  1.00 22.02 LIG 0.16  HD
BRANCH 44 47
ATOM     47  CA  SER P   3     -13.541   9.178  11.393  1.00 22.14 LIG 0.20  C 
BRANCH 47 48
ATOM     48  CB  SER P   3     -12.602  10.033  12.270  1.00 23.32 LIG 0.20  C 
BRANCH 48 49
ATOM     49 OG   SER P   3     -13.232  11.303  12.546  1.00 23.11 LIG-0.40  OA
ATOM     50 HG   SER P   3     -12.788  11.716  13.127  1.00 23.11 LIG 0.21  HD
ENDBRANCH 48 49
ENDBRANCH 47 48
BRANCH 47 51
ATOM     51  N   SER P   3     -13.632   9.820  10.080  1.00 22.53 LIG-0.34  N 
ATOM     52 H    SER P   3     -13.604  10.679  10.096  1.00 22.53 LIG 0.16  HD
ATOM     53  C   VAL P   2     -13.748   9.095   8.972  1.00 22.76 LIG 0.24  C 
ATOM     54 O    VAL P   2     -13.948   7.860   9.011  1.00 25.85 LIG-0.27  OA
BRANCH 53 55
ATOM     55  CA  VAL P   2     -13.803   9.874   7.656  1.00 24.07 LIG 0.18  C 
BRANCH 55 56
ATOM     56  N   VAL P   2     -15.008  10.701   7.583  1.00 24.29 LIG-0.35  N 
ATOM     57 H    VAL P   2     -15.187  11.161   8.287  1.00 24.29 LIG 0.16  HD
ATOM     58  C   VAL P   1     -15.746  10.691   6.450  1.00 26.39 LIG 0.25  C 
ATOM     59 O    VAL P   1     -15.404   9.989   5.453  1.00 26.90 LIG-0.27  OA
BRANCH 58 60
ATOM     60  CA  VAL P   1     -16.974  11.587   6.387  1.00 27.40 LIG 0.28  C 
BRANCH 60 61
ATOM     61  CB  VAL P   1     -17.489  11.938   7.820  1.00 27.20 LIG 0.02  C 
ATOM     62  CG2 VAL P   1     -18.959  12.361   7.717  1.00 28.02 LIG 0.01  C 
ATOM     63  CG1 VAL P   1     -16.601  13.080   8.262  1.00 27.17 LIG 0.01  C 
ENDBRANCH 60 61
BRANCH 60 64
ATOM     64  N   VAL P   1     -18.051  10.990   5.662  1.00 29.12 LIG-0.07  N 
ATOM     65 H2   VAL P   1     -18.272  11.510   4.975  1.00 29.12 LIG 0.28  HD
ATOM     66 H1   VAL P   1     -18.755  10.896   6.200  1.00 29.12 LIG 0.28  HD
ATOM     67 H3   VAL P   1     -17.799  10.191   5.360  1.00 29.12 LIG 0.28  HD
ENDBRANCH 60 64
ENDBRANCH 58 60
ENDBRANCH 55 56
BRANCH 55 68
ATOM     68  CB  VAL P   2     -12.473  10.674   7.525  1.00 25.03 LIG 0.01  C 
ATOM     69  CG2 VAL P   2     -12.674  12.093   8.090  1.00 23.99 LIG 0.01  C 
ATOM     70  CG1 VAL P   2     -11.981  10.770   6.092  1.00 25.56 LIG 0.01  C 
ENDBRANCH 55 68
ENDBRANCH 53 55
ENDBRANCH 47 51
ENDBRANCH 44 47
ENDBRANCH 1 43
TORSDOF 26
ENDMDL
MODEL 11
USER: ADFR SOLUTION from run 77
USER: SCORE 18.928049 LL:  -5.379 LR: -14.881 RR:   0.000 FEB:  -7.125
USER: RMSD 9.044320
USER: SEED 76
USER: STATUS no improvement in best in 4 clusters for 5 generations
USER: GENES 28
USER: genes 0 Translation |==|  0.53128 0.34604 0.63387
USER: genes 1 Rotation |==|  0.44936 0.83818 0.16621 0.64714
USER: genes 2 Torsion [N]-CA--C-[N] |==|  0.99988
USER: genes 3 Torsion [C]-N--CA-[CB] |==|  0.83147
USER: genes 4 Torsion [N]-CA--CB-[CG] |==|  0.92555
USER: genes 5 Torsion [CA]-CB--CG-[CD2] |==|  0.31318
USER: genes 6 Torsion [N]-CA--C-[N] |==|  0.93802
USER: genes 7 Torsion [C]-N--CA-[CB] |==|  0.43730
USER: genes 8 Torsion [N]-CA--C-[N] |==|  0.47719
USER: genes 9 Torsion [C]-N--CA-[C] |==|  0.78507
USER: genes 10 Torsion [N]-CA--C-[O] |==|  0.92171
USER: genes 11 Torsion [N]-CA--CB-[CG] |==|  0.95689
USER: genes 12 Torsion [CA]-CB--CG-[OD1] |==|  0.21266
USER: genes 13 Torsion [N]-CA--CB-[CG] |==|  0.66929
USER: genes 14 Torsion [CA]-CB--CG-[OD1] |==|  0.86045
USER: genes 15 Torsion [C]-CA--CB-[CG] |==|  0.14872
USER: genes 16 Torsion [CA]-CB--CG-[CD2] |==|  0.15020
USER: genes 17 Torsion [C]-CA--N-[C] |==|  0.75219
USER: genes 18 Torsion [N]-C--CA-[N] |==|  0.46666
USER: genes 19 Torsion [C]-CA--CB-[OG] |==|  0.16685
USER: genes 20 Torsion [CA]-CB--OG-[HG] |==|  0.32044
USER: genes 21 Torsion [C]-CA--N-[C] |==|  0.78633
USER: genes 22 Torsion [N]-C--CA-[N] |==|  0.91474
USER: genes 23 Torsion [C]-CA--N-[C] |==|  0.80588
USER: genes 24 Torsion [N]-C--CA-[N] |==|  0.51587
USER: genes 25 Torsion [C]-CA--CB-[CG2] |==|  0.25452
USER: genes 26 Torsion [C]-CA--N-[H2] |==|  0.76921
USER: genes 27 Torsion [C]-CA--CB-[CG2] |==|  0.74242
ROOT
ATOM      1  CA  HIS P   4     -16.971   9.834  12.292  1.00 23.76 LIG 0.18  C 
ENDROOT
BRANCH 1 2
ATOM      2  C   HIS P   4     -16.547  11.284  12.019  1.00 25.01 LIG 0.24  C 
ATOM      3 O    HIS P   4     -15.595  11.793  12.625  1.00 23.35 LIG-0.27  OA
ATOM      4  N   PHE P   5     -17.299  11.978  11.165  1.00 23.15 LIG-0.35  N 
ATOM      5 H    PHE P   5     -18.013  11.665  10.803  1.00 23.15 LIG 0.16  HD
BRANCH 4 6
ATOM      6  CA  PHE P   5     -16.984  13.335  10.763  1.00 24.23 LIG 0.18  C 
BRANCH 6 7
ATOM      7  CB  PHE P   5     -16.985  14.247  12.027  1.00 25.15 LIG 0.07  C 
BRANCH 7 8
ATOM      8  CG  PHE P   5     -17.883  13.698  13.089  1.00 25.22 LIG-0.06  A 
ATOM      9  CD2 PHE P   5     -17.281  13.237  14.255  1.00 26.21 LIG 0.01  A 
ATOM     10  CE2 PHE P   5     -18.027  12.651  15.237  1.00 26.58 LIG 0.00  A 
ATOM     11  CZ  PHE P   5     -19.400  12.564  15.094  1.00 27.68 LIG 0.00  A 
ATOM     12  CE1 PHE P   5     -20.012  13.029  13.955  1.00 26.50 LIG 0.00  A 
ATOM     13  CD1 PHE P   5     -19.246  13.601  12.948  1.00 25.73 LIG 0.01  A 
ENDBRANCH 7 8
ENDBRANCH 6 7
BRANCH 6 14
ATOM     14  C   PHE P   5     -15.698  13.466   9.978  1.00 25.59 LIG 0.24  C 
ATOM     15 O    PHE P   5     -15.455  14.474   9.284  1.00 25.82 LIG-0.27  OA
ATOM     16  N   ASN P   6     -14.817  12.496  10.136  1.00 24.53 LIG-0.35  N 
ATOM     17 H    ASN P   6     -14.944  11.803  10.630  1.00 24.53 LIG 0.16  HD
BRANCH 16 18
ATOM     18  CA  ASN P   6     -13.527  12.534   9.461  1.00 25.84 LIG 0.18  C 
BRANCH 18 19
ATOM     19  C   ASN P   6     -13.599  12.181   7.993  1.00 25.26 LIG 0.24  C 
ATOM     20  N   ASP P   7     -12.488  12.353   7.250  1.00 26.59 LIG-0.34  N 
ATOM     21 H    ASP P   7     -11.746  12.675   7.544  1.00 26.59 LIG 0.16  HD
ATOM     22 O    ASN P   6     -14.665  11.788   7.515  1.00 25.72 LIG-0.27  OA
BRANCH 20 23
ATOM     23  CA  ASP P   7     -12.486  11.988   5.852  1.00 25.93 LIG 0.20  C 
BRANCH 23 24
ATOM     24  C   ASP P   7     -12.358  10.463   5.712  1.00 27.07 LIG 0.20  C 
ATOM     25 O    ASP P   7     -11.768   9.901   6.619  1.00 28.96 LIG-0.65  OA
ATOM     26 OXT  ASP P   7     -12.942   9.865   4.697  1.00 29.63 LIG-0.65  OA
ENDBRANCH 23 24
BRANCH 23 27
ATOM     27  CB  ASP P   7     -11.343  12.607   5.023  1.00 25.41 LIG 0.15  C 
BRANCH 27 28
ATOM     28  CG  ASP P   7     -10.661  13.758   5.717  1.00 25.37 LIG 0.17  C 
ATOM     29 OD1  ASP P   7      -9.838  13.619   6.649  1.00 26.66 LIG-0.65  OA
ATOM     30 OD2  ASP P   7     -10.944  14.920   5.267  1.00 23.76 LIG-0.65  OA
ENDBRANCH 27 28
ENDBRANCH 23 27
ENDBRANCH 20 23
ENDBRANCH 18 19
BRANCH 18 31
ATOM     31  CB  ASN P   6     -12.516  11.656  10.202  1.00 24.75 LIG 0.14  C 
BRANCH 31 32
ATOM     32  CG  ASN P   6     -11.336  12.460  10.703  1.00 27.24 LIG 0.22  C 
ATOM     33  ND2 ASN P   6     -11.146  12.254  12.005  1.00 23.85 LIG-0.37  N 
ATOM     34 21HD ASN P   6     -10.527  12.681  12.422  1.00 23.85 LIG 0.16  HD
ATOM     35 22HD ASN P   6     -11.642  11.694  12.429  1.00 23.85 LIG 0.16  HD
ATOM     36 OD1  ASN P   6     -10.713  13.235   9.922  1.00 24.90 LIG-0.27  OA
ENDBRANCH 31 32
ENDBRANCH 18 31
ENDBRANCH 16 18
ENDBRANCH 6 14
ENDBRANCH 4 6
ENDBRANCH 1 2
BRANCH 1 37
ATOM     37  CB  HIS P   4     -15.789   8.926  11.955  1.00 21.80 LIG 0.10  C 
BRANCH 37 38
ATOM     38  CG  HIS P   4     -14.518   9.310  12.651  1.00 23.01 LIG 0.06  A 
ATOM     39  CD2 HIS P   4     -14.198   9.511  13.929  1.00 23.26 LIG 0.14  A 
ATOM     40 NE2  HIS P   4     -12.833   9.637  13.988  1.00 21.45 LIG-0.25  NA
ATOM     41  CE1 HIS P   4     -12.311   9.490  12.774  1.00 22.12 LIG 0.23  A 
ATOM     42 ND1  HIS P   4     -13.291   9.277  11.955  1.00 22.83 LIG-0.24  NA
ENDBRANCH 37 38
ENDBRANCH 1 37
BRANCH 1 43
ATOM     43  N   HIS P   4     -18.189   9.569  11.478  1.00 22.02 LIG-0.35  N 
ATOM     44  C   SER P   3     -19.379   9.836  12.017  1.00 24.42 LIG 0.24  C 
ATOM     45 O    SER P   3     -19.473  10.264  13.178  1.00 24.72 LIG-0.27  OA
ATOM     46 H    HIS P   4     -18.056   9.252  10.690  1.00 22.02 LIG 0.16  HD
BRANCH 44 47
ATOM     47  CA  SER P   3     -20.629   9.503  11.218  1.00 22.14 LIG 0.20  C 
BRANCH 47 48
ATOM     48  CB  SER P   3     -20.798  10.413   9.983  1.00 23.32 LIG 0.20  C 
BRANCH 48 49
ATOM     49 OG   SER P   3     -19.657  10.255   9.113  1.00 23.11 LIG-0.40  OA
ATOM     50 HG   SER P   3     -19.905   9.919   8.384  1.00 23.11 LIG 0.21  HD
ENDBRANCH 48 49
ENDBRANCH 47 48
BRANCH 47 51
ATOM     51  N   SER P   3     -21.865   9.574  11.998  1.00 22.53 LIG-0.34  N 
ATOM     52 H    SER P   3     -22.339  10.279  11.860  1.00 22.53 LIG 0.16  HD
ATOM     53  C   VAL P   2     -22.196   8.603  12.844  1.00 22.76 LIG 0.24  C 
ATOM     54 O    VAL P   2     -21.401   7.679  13.130  1.00 25.85 LIG-0.27  OA
BRANCH 53 55
ATOM     55  CA  VAL P   2     -23.528   8.771  13.580  1.00 24.07 LIG 0.18  C 
BRANCH 55 56
ATOM     56  N   VAL P   2     -23.836  10.186  13.794  1.00 24.29 LIG-0.35  N 
ATOM     57 H    VAL P   2     -24.491  10.497  13.333  1.00 24.29 LIG 0.16  HD
ATOM     58  C   VAL P   1     -23.095  10.895  14.675  1.00 26.39 LIG 0.25  C 
ATOM     59 O    VAL P   1     -22.151  10.352  15.322  1.00 26.90 LIG-0.27  OA
BRANCH 58 60
ATOM     60  CA  VAL P   1     -23.459  12.355  14.905  1.00 27.40 LIG 0.28  C 
BRANCH 60 61
ATOM     61  CB  VAL P   1     -23.533  13.136  13.555  1.00 27.20 LIG 0.02  C 
ATOM     62  CG2 VAL P   1     -24.976  13.080  13.040  1.00 28.02 LIG 0.01  C 
ATOM     63  CG1 VAL P   1     -22.579  12.393  12.646  1.00 27.17 LIG 0.01  C 
ENDBRANCH 60 61
BRANCH 60 64
ATOM     64  N   VAL P   1     -22.526  13.024  15.755  1.00 29.12 LIG-0.07  N 
ATOM     65 H2   VAL P   1     -22.728  12.861  16.606  1.00 29.12 LIG 0.28  HD
ATOM     66 H1   VAL P   1     -22.564  13.901  15.605  1.00 29.12 LIG 0.28  HD
ATOM     67 H3   VAL P   1     -21.704  12.729  15.584  1.00 29.12 LIG 0.28  HD
ENDBRANCH 60 64
ENDBRANCH 58 60
ENDBRANCH 55 56
BRANCH 55 68
ATOM     68  CB  VAL P   2     -24.613   7.996  12.776  1.00 25.03 LIG 0.01  C 
ATOM     69  CG2 VAL P   2     -25.295   8.958  11.783  1.00 23.99 LIG 0.01  C 
ATOM     70  CG1 VAL P   2     -25.667   7.365  13.666  1.00 25.56 LIG 0.01  C 
ENDBRANCH 55 68
ENDBRANCH 53 55
ENDBRANCH 47 51
ENDBRANCH 44 47
ENDBRANCH 1 43
TORSDOF 26
ENDMDL
MODEL 12
USER: ADFR SOLUTION from run 190
USER: SCORE 19.487460 LL:  -5.897 LR: -14.826 RR:   0.000 FEB:  -7.070
USER: RMSD 7.479169
USER: SEED 189
USER: STATUS no improvement in best in 4 clusters for 5 generations
USER: GENES 28
USER: genes 0 Translation |==|  0.38583 0.56457 0.58540
USER: genes 1 Rotation |==|  0.61693 0.33159 0.14606 0.78757
USER: genes 2 Torsion [N]-CA--C-[N] |==|  0.40423
USER: genes 3 Torsion [C]-N--CA-[CB] |==|  0.85499
USER: genes 4 Torsion [N]-CA--CB-[CG] |==|  0.81035
USER: genes 5 Torsion [CA]-CB--CG-[CD2] |==|  0.43924
USER: genes 6 Torsion [N]-CA--C-[N] |==|  0.85556
USER: genes 7 Torsion [C]-N--CA-[CB] |==|  0.78840
USER: genes 8 Torsion [N]-CA--C-[N] |==|  0.21775
USER: genes 9 Torsion [C]-N--CA-[C] |==|  0.61208
USER: genes 10 Torsion [N]-CA--C-[O] |==|  0.84697
USER: genes 11 Torsion [N]-CA--CB-[CG] |==|  0.81368
USER: genes 12 Torsion [CA]-CB--CG-[OD1] |==|  0.26507
USER: genes 13 Torsion [N]-CA--CB-[CG] |==|  0.90483
USER: genes 14 Torsion [CA]-CB--CG-[OD1] |==|  0.18200
USER: genes 15 Torsion [C]-CA--CB-[CG] |==|  0.64236
USER: genes 16 Torsion [CA]-CB--CG-[CD2] |==|  0.33294
USER: genes 17 Torsion [C]-CA--N-[C] |==|  0.73748
USER: genes 18 Torsion [N]-C--CA-[N] |==|  0.93736
USER: genes 19 Torsion [C]-CA--CB-[OG] |==|  0.48636
USER: genes 20 Torsion [CA]-CB--OG-[HG] |==|  0.28388
USER: genes 21 Torsion [C]-CA--N-[C] |==|  0.82984
USER: genes 22 Torsion [N]-C--CA-[N] |==|  0.53901
USER: genes 23 Torsion [C]-CA--N-[C] |==|  0.67728
USER: genes 24 Torsion [N]-C--CA-[N] |==|  0.31372
USER: genes 25 Torsion [C]-CA--CB-[CG2] |==|  0.45870
USER: genes 26 Torsion [C]-CA--N-[H2] |==|  0.78656
USER: genes 27 Torsion [C]-CA--CB-[CG2] |==|  0.82482
ROOT
ATOM      1  CA  HIS P   4     -20.134  13.604  11.237  1.00 23.76 LIG 0.18  C 
ENDROOT
BRANCH 1 2
ATOM      2  C   HIS P   4     -18.839  14.346  10.877  1.00 25.01 LIG 0.24  C 
ATOM      3 O    HIS P   4     -17.753  14.000  11.361  1.00 23.35 LIG-0.27  OA
ATOM      4  N   PHE P   5     -18.959  15.414  10.091  1.00 23.15 LIG-0.35  N 
ATOM      5 H    PHE P   5     -19.717  15.717   9.817  1.00 23.15 LIG 0.16  HD
BRANCH 4 6
ATOM      6  CA  PHE P   5     -17.819  16.174   9.617  1.00 24.23 LIG 0.18  C 
BRANCH 6 7
ATOM      7  CB  PHE P   5     -16.933  16.566  10.839  1.00 25.15 LIG 0.07  C 
BRANCH 7 8
ATOM      8  CG  PHE P   5     -17.629  17.557  11.715  1.00 25.22 LIG-0.06  A 
ATOM      9  CD2 PHE P   5     -17.203  17.648  13.036  1.00 26.21 LIG 0.01  A 
ATOM     10  CE2 PHE P   5     -17.841  18.475  13.916  1.00 26.58 LIG 0.00  A 
ATOM     11  CZ  PHE P   5     -18.886  19.268  13.476  1.00 27.68 LIG 0.00  A 
ATOM     12  CE1 PHE P   5     -19.309  19.201  12.171  1.00 26.50 LIG 0.00  A 
ATOM     13  CD1 PHE P   5     -18.673  18.341  11.286  1.00 25.73 LIG 0.01  A 
ENDBRANCH 7 8
ENDBRANCH 6 7
BRANCH 6 14
ATOM     14  C   PHE P   5     -17.015  15.479   8.541  1.00 25.59 LIG 0.24  C 
ATOM     15 O    PHE P   5     -16.675  16.068   7.495  1.00 25.82 LIG-0.27  OA
ATOM     16  N   ASN P   6     -16.625  14.247   8.810  1.00 24.53 LIG-0.35  N 
ATOM     17 H    ASN P   6     -16.818  13.825   9.533  1.00 24.53 LIG 0.16  HD
BRANCH 16 18
ATOM     18  CA  ASN P   6     -15.812  13.493   7.865  1.00 25.84 LIG 0.18  C 
BRANCH 18 19
ATOM     19  C   ASN P   6     -14.602  14.248   7.367  1.00 25.26 LIG 0.24  C 
ATOM     20  N   ASP P   7     -13.528  14.323   8.179  1.00 26.59 LIG-0.34  N 
ATOM     21 H    ASP P   7     -13.491  13.995   8.973  1.00 26.59 LIG 0.16  HD
ATOM     22 O    ASN P   6     -14.641  14.798   6.264  1.00 25.72 LIG-0.27  OA
BRANCH 20 23
ATOM     23  CA  ASP P   7     -12.327  14.992   7.735  1.00 25.93 LIG 0.20  C 
BRANCH 23 24
ATOM     24  C   ASP P   7     -11.091  14.201   8.190  1.00 27.07 LIG 0.20  C 
ATOM     25 O    ASP P   7     -11.023  13.978   9.387  1.00 28.96 LIG-0.65  OA
ATOM     26 OXT  ASP P   7     -10.249  13.756   7.283  1.00 29.63 LIG-0.65  OA
ENDBRANCH 23 24
BRANCH 23 27
ATOM     27  CB  ASP P   7     -12.154  16.429   8.264  1.00 25.41 LIG 0.15  C 
BRANCH 27 28
ATOM     28  CG  ASP P   7     -13.179  17.392   7.722  1.00 25.37 LIG 0.17  C 
ATOM     29 OD1  ASP P   7     -14.237  17.691   8.319  1.00 26.66 LIG-0.65  OA
ATOM     30 OD2  ASP P   7     -12.888  17.935   6.602  1.00 23.76 LIG-0.65  OA
ENDBRANCH 27 28
ENDBRANCH 23 27
ENDBRANCH 20 23
ENDBRANCH 18 19
BRANCH 18 31
ATOM     31  CB  ASN P   6     -16.677  12.988   6.708  1.00 24.75 LIG 0.14  C 
BRANCH 31 32
ATOM     32  CG  ASN P   6     -18.076  12.638   7.165  1.00 27.24 LIG 0.22  C 
ATOM     33  ND2 ASN P   6     -18.318  11.341   6.986  1.00 23.85 LIG-0.37  N 
ATOM     34 21HD ASN P   6     -19.093  11.018   7.172  1.00 23.85 LIG 0.16  HD
ATOM     35 22HD ASN P   6     -17.698  10.826   6.684  1.00 23.85 LIG 0.16  HD
ATOM     36 OD1  ASN P   6     -18.853  13.539   7.594  1.00 24.90 LIG-0.27  OA
ENDBRANCH 31 32
ENDBRANCH 18 31
ENDBRANCH 16 18
ENDBRANCH 6 14
ENDBRANCH 4 6
ENDBRANCH 1 2
BRANCH 1 37
ATOM     37  CB  HIS P   4     -20.676  14.201  12.536  1.00 21.80 LIG 0.10  C 
BRANCH 37 38
ATOM     38  CG  HIS P   4     -20.986  13.177  13.585  1.00 23.01 LIG 0.06  A 
ATOM     39  CD2 HIS P   4     -20.536  12.967  14.821  1.00 23.26 LIG 0.14  A 
ATOM     40 NE2  HIS P   4     -21.337  12.006  15.385  1.00 21.45 LIG-0.25  NA
ATOM     41  CE1 HIS P   4     -22.285  11.644  14.525  1.00 22.12 LIG 0.23  A 
ATOM     42 ND1  HIS P   4     -22.112  12.338  13.446  1.00 22.83 LIG-0.24  NA
ENDBRANCH 37 38
ENDBRANCH 1 37
BRANCH 1 43
ATOM     43  N   HIS P   4     -19.802  12.155  11.329  1.00 22.02 LIG-0.35  N 
ATOM     44  C   SER P   3     -19.992  11.394  10.251  1.00 24.42 LIG 0.24  C 
ATOM     45 O    SER P   3     -20.464  11.872   9.207  1.00 24.72 LIG-0.27  OA
ATOM     46 H    HIS P   4     -19.500  11.884  12.088  1.00 22.02 LIG 0.16  HD
BRANCH 44 47
ATOM     47  CA  SER P   3     -19.720   9.902  10.360  1.00 22.14 LIG 0.20  C 
BRANCH 47 48
ATOM     48  CB  SER P   3     -21.012   9.080  10.542  1.00 23.32 LIG 0.20  C 
BRANCH 48 49
ATOM     49 OG   SER P   3     -20.690   7.672  10.521  1.00 23.11 LIG-0.40  OA
ATOM     50 HG   SER P   3     -20.687   7.373  11.306  1.00 23.11 LIG 0.21  HD
ENDBRANCH 48 49
ENDBRANCH 47 48
BRANCH 47 51
ATOM     51  N   SER P   3     -18.806   9.546  11.446  1.00 22.53 LIG-0.34  N 
ATOM     52 H    SER P   3     -19.143   9.029  12.046  1.00 22.53 LIG 0.16  HD
ATOM     53  C   VAL P   2     -17.559  10.005  11.468  1.00 22.76 LIG 0.24  C 
ATOM     54 O    VAL P   2     -17.164  10.879  10.664  1.00 25.85 LIG-0.27  OA
BRANCH 53 55
ATOM     55  CA  VAL P   2     -16.686   9.539  12.636  1.00 24.07 LIG 0.18  C 
BRANCH 55 56
ATOM     56  N   VAL P   2     -15.472  10.349  12.742  1.00 24.29 LIG-0.35  N 
ATOM     57 H    VAL P   2     -15.594  11.181  12.922  1.00 24.29 LIG 0.16  HD
ATOM     58  C   VAL P   1     -14.269   9.760  12.555  1.00 26.39 LIG 0.25  C 
ATOM     59 O    VAL P   1     -14.179   8.522  12.303  1.00 26.90 LIG-0.27  OA
BRANCH 58 60
ATOM     60  CA  VAL P   1     -13.021  10.618  12.706  1.00 27.40 LIG 0.28  C 
BRANCH 60 61
ATOM     61  CB  VAL P   1     -12.120  10.530  11.432  1.00 27.20 LIG 0.02  C 
ATOM     62  CG2 VAL P   1     -11.099  11.673  11.481  1.00 28.02 LIG 0.01  C 
ATOM     63  CG1 VAL P   1     -13.091  10.688  10.283  1.00 27.17 LIG 0.01  C 
ENDBRANCH 60 61
BRANCH 60 64
ATOM     64  N   VAL P   1     -12.230  10.240  13.835  1.00 29.12 LIG-0.07  N 
ATOM     65 H2   VAL P   1     -12.608  10.548  14.579  1.00 29.12 LIG 0.28  HD
ATOM     66 H1   VAL P   1     -11.413  10.584  13.754  1.00 29.12 LIG 0.28  HD
ATOM     67 H3   VAL P   1     -12.177   9.352  13.876  1.00 29.12 LIG 0.28  HD
ENDBRANCH 60 64
ENDBRANCH 58 60
ENDBRANCH 55 56
BRANCH 55 68
ATOM     68  CB  VAL P   2     -17.570   9.545  13.919  1.00 25.03 LIG 0.01  C 
ATOM     69  CG2 VAL P   2     -18.026  10.987  14.215  1.00 23.99 LIG 0.01  C 
ATOM     70  CG1 VAL P   2     -16.850   8.987  15.133  1.00 25.56 LIG 0.01  C 
ENDBRANCH 55 68
ENDBRANCH 53 55
ENDBRANCH 47 51
ENDBRANCH 44 47
ENDBRANCH 1 43
TORSDOF 26
ENDMDL
MODEL 13
USER: ADFR SOLUTION from run 198
USER: SCORE 17.289863 LL:  -5.228 LR: -14.823 RR:   0.000 FEB:  -7.067
USER: RMSD 9.329782
USER: SEED 197
USER: STATUS no improvement in best in 9 clusters for 5 generations
USER: GENES 28
USER: genes 0 Translation |==|  0.61327 0.54250 0.65256
USER: genes 1 Rotation |==|  0.41405 0.41344 0.96496 0.63761
USER: genes 2 Torsion [N]-CA--C-[N] |==|  0.45150
USER: genes 3 Torsion [C]-N--CA-[CB] |==|  0.83210
USER: genes 4 Torsion [N]-CA--CB-[CG] |==|  0.92218
USER: genes 5 Torsion [CA]-CB--CG-[CD2] |==|  0.37715
USER: genes 6 Torsion [N]-CA--C-[N] |==|  0.80969
USER: genes 7 Torsion [C]-N--CA-[CB] |==|  0.50802
USER: genes 8 Torsion [N]-CA--C-[N] |==|  0.71200
USER: genes 9 Torsion [C]-N--CA-[C] |==|  0.22640
USER: genes 10 Torsion [N]-CA--C-[O] |==|  0.55598
USER: genes 11 Torsion [N]-CA--CB-[CG] |==|  0.58379
USER: genes 12 Torsion [CA]-CB--CG-[OD1] |==|  0.08999
USER: genes 13 Torsion [N]-CA--CB-[CG] |==|  0.60850
USER: genes 14 Torsion [CA]-CB--CG-[OD1] |==|  0.33873
USER: genes 15 Torsion [C]-CA--CB-[CG] |==|  0.73776
USER: genes 16 Torsion [CA]-CB--CG-[CD2] |==|  0.64959
USER: genes 17 Torsion [C]-CA--N-[C] |==|  0.54726
USER: genes 18 Torsion [N]-C--CA-[N] |==|  0.33334
USER: genes 19 Torsion [C]-CA--CB-[OG] |==|  0.43830
USER: genes 20 Torsion [CA]-CB--OG-[HG] |==|  0.99133
USER: genes 21 Torsion [C]-CA--N-[C] |==|  0.55793
USER: genes 22 Torsion [N]-C--CA-[N] |==|  0.93475
USER: genes 23 Torsion [C]-CA--N-[C] |==|  0.79886
USER: genes 24 Torsion [N]-C--CA-[N] |==|  0.93092
USER: genes 25 Torsion [C]-CA--CB-[CG2] |==|  0.18136
USER: genes 26 Torsion [C]-CA--N-[H2] |==|  0.96026
USER: genes 27 Torsion [C]-CA--CB-[CG2] |==|  0.87301
ROOT
ATOM      1  CA  HIS P   4     -15.187  13.223  12.698  1.00 23.76 LIG 0.18  C 
ENDROOT
BRANCH 1 2
ATOM      2  C   HIS P   4     -14.173  12.467  11.829  1.00 25.01 LIG 0.24  C 
ATOM      3 O    HIS P   4     -14.488  12.040  10.710  1.00 23.35 LIG-0.27  OA
ATOM      4  N   PHE P   5     -12.978  12.232  12.369  1.00 23.15 LIG-0.35  N 
ATOM      5 H    PHE P   5     -12.774  12.448  13.177  1.00 23.15 LIG 0.16  HD
BRANCH 4 6
ATOM      6  CA  PHE P   5     -11.900  11.587  11.645  1.00 24.23 LIG 0.18  C 
BRANCH 6 7
ATOM      7  CB  PHE P   5     -12.365  10.162  11.217  1.00 25.15 LIG 0.07  C 
BRANCH 7 8
ATOM      8  CG  PHE P   5     -13.386   9.619  12.165  1.00 25.22 LIG-0.06  A 
ATOM      9  CD2 PHE P   5     -14.497   8.992  11.612  1.00 26.21 LIG 0.01  A 
ATOM     10  CE2 PHE P   5     -15.508   8.540  12.410  1.00 26.58 LIG 0.00  A 
ATOM     11  CZ  PHE P   5     -15.401   8.659  13.784  1.00 27.68 LIG 0.00  A 
ATOM     12  CE1 PHE P   5     -14.303   9.261  14.347  1.00 26.50 LIG 0.00  A 
ATOM     13  CD1 PHE P   5     -13.288   9.742  13.529  1.00 25.73 LIG 0.01  A 
ENDBRANCH 7 8
ENDBRANCH 6 7
BRANCH 6 14
ATOM     14  C   PHE P   5     -11.379  12.384  10.470  1.00 25.59 LIG 0.24  C 
ATOM     15 O    PHE P   5     -10.211  12.822  10.443  1.00 25.82 LIG-0.27  OA
ATOM     16  N   ASN P   6     -12.201  12.515   9.445  1.00 24.53 LIG-0.35  N 
ATOM     17 H    ASN P   6     -13.000  12.200   9.422  1.00 24.53 LIG 0.16  HD
BRANCH 16 18
ATOM     18  CA  ASN P   6     -11.794  13.228   8.242  1.00 25.84 LIG 0.18  C 
BRANCH 18 19
ATOM     19  C   ASN P   6     -11.218  14.599   8.514  1.00 25.26 LIG 0.24  C 
ATOM     20  N   ASP P   7     -11.998  15.670   8.266  1.00 26.59 LIG-0.34  N 
ATOM     21 H    ASP P   7     -12.793  15.632   7.939  1.00 26.59 LIG 0.16  HD
ATOM     22 O    ASN P   6     -10.056  14.701   8.913  1.00 25.72 LIG-0.27  OA
BRANCH 20 23
ATOM     23  CA  ASP P   7     -11.515  17.002   8.553  1.00 25.93 LIG 0.20  C 
BRANCH 23 24
ATOM     24  C   ASP P   7     -10.617  17.489   7.405  1.00 27.07 LIG 0.20  C 
ATOM     25 O    ASP P   7      -9.859  18.401   7.684  1.00 28.96 LIG-0.65  OA
ATOM     26 OXT  ASP P   7     -10.660  16.859   6.252  1.00 29.63 LIG-0.65  OA
ENDBRANCH 23 24
BRANCH 23 27
ATOM     27  CB  ASP P   7     -10.688  17.125   9.847  1.00 25.41 LIG 0.15  C 
BRANCH 27 28
ATOM     28  CG  ASP P   7     -10.805  18.477  10.504  1.00 25.37 LIG 0.17  C 
ATOM     29 OD1  ASP P   7     -11.838  19.182  10.464  1.00 26.66 LIG-0.65  OA
ATOM     30 OD2  ASP P   7      -9.778  18.865  11.156  1.00 23.76 LIG-0.65  OA
ENDBRANCH 27 28
ENDBRANCH 23 27
ENDBRANCH 20 23
ENDBRANCH 18 19
BRANCH 18 31
ATOM     31  CB  ASN P   6     -12.955  13.293   7.247  1.00 24.75 LIG 0.14  C 
BRANCH 31 32
ATOM     32  CG  ASN P   6     -12.482  13.106   5.821  1.00 27.24 LIG 0.22  C 
ATOM     33  ND2 ASN P   6     -11.619  14.063   5.484  1.00 23.85 LIG-0.37  N 
ATOM     34 21HD ASN P   6     -11.302  14.094   4.685  1.00 23.85 LIG 0.16  HD
ATOM     35 22HD ASN P   6     -11.380  14.651   6.065  1.00 23.85 LIG 0.16  HD
ATOM     36 OD1  ASN P   6     -12.945  12.167   5.112  1.00 24.90 LIG-0.27  OA
ENDBRANCH 31 32
ENDBRANCH 18 31
ENDBRANCH 16 18
ENDBRANCH 6 14
ENDBRANCH 4 6
ENDBRANCH 1 2
BRANCH 1 37
ATOM     37  CB  HIS P   4     -15.703  12.261  13.768  1.00 21.80 LIG 0.10  C 
BRANCH 37 38
ATOM     38  CG  HIS P   4     -16.976  11.568  13.390  1.00 23.01 LIG 0.06  A 
ATOM     39  CD2 HIS P   4     -18.164  11.447  13.981  1.00 23.26 LIG 0.14  A 
ATOM     40 NE2  HIS P   4     -19.013  10.875  13.069  1.00 21.45 LIG-0.25  NA
ATOM     41  CE1 HIS P   4     -18.374  10.668  11.921  1.00 22.12 LIG 0.23  A 
ATOM     42 ND1  HIS P   4     -17.158  11.087  12.076  1.00 22.83 LIG-0.24  NA
ENDBRANCH 37 38
ENDBRANCH 1 37
BRANCH 1 43
ATOM     43  N   HIS P   4     -16.247  13.743  11.790  1.00 22.02 LIG-0.35  N 
ATOM     44  C   SER P   3     -17.046  14.710  12.239  1.00 24.42 LIG 0.24  C 
ATOM     45 O    SER P   3     -16.933  15.146  13.396  1.00 24.72 LIG-0.27  OA
ATOM     46 H    HIS P   4     -16.285  13.382  11.009  1.00 22.02 LIG 0.16  HD
BRANCH 44 47
ATOM     47  CA  SER P   3     -18.173  15.196  11.342  1.00 22.14 LIG 0.20  C 
BRANCH 47 48
ATOM     48  CB  SER P   3     -18.016  16.680  10.952  1.00 23.32 LIG 0.20  C 
BRANCH 48 49
ATOM     49 OG   SER P   3     -18.761  16.937   9.741  1.00 23.11 LIG-0.40  OA
ATOM     50 HG   SER P   3     -19.098  16.220   9.462  1.00 23.11 LIG 0.21  HD
ENDBRANCH 48 49
ENDBRANCH 47 48
BRANCH 47 51
ATOM     51  N   SER P   3     -19.506  15.024  11.921  1.00 22.53 LIG-0.34  N 
ATOM     52 H    SER P   3     -19.519  14.942  12.778  1.00 22.53 LIG 0.16  HD
ATOM     53  C   VAL P   2     -20.589  15.003  11.150  1.00 22.76 LIG 0.24  C 
ATOM     54 O    VAL P   2     -20.508  14.964   9.902  1.00 25.85 LIG-0.27  OA
BRANCH 53 55
ATOM     55  CA  VAL P   2     -21.930  14.851  11.871  1.00 24.07 LIG 0.18  C 
BRANCH 55 56
ATOM     56  N   VAL P   2     -21.755  14.218  13.179  1.00 24.29 LIG-0.35  N 
ATOM     57 H    VAL P   2     -21.851  14.735  13.859  1.00 24.29 LIG 0.16  HD
ATOM     58  C   VAL P   1     -21.463  12.898  13.239  1.00 26.39 LIG 0.25  C 
ATOM     59 O    VAL P   1     -21.351  12.206  12.184  1.00 26.90 LIG-0.27  OA
BRANCH 58 60
ATOM     60  CA  VAL P   1     -21.323  12.257  14.612  1.00 27.40 LIG 0.28  C 
BRANCH 60 61
ATOM     61  CB  VAL P   1     -22.652  11.561  15.047  1.00 27.20 LIG 0.02  C 
ATOM     62  CG2 VAL P   1     -22.922  10.391  14.094  1.00 28.02 LIG 0.01  C 
ATOM     63  CG1 VAL P   1     -23.696  12.648  14.919  1.00 27.17 LIG 0.01  C 
ENDBRANCH 60 61
BRANCH 60 64
ATOM     64  N   VAL P   1     -20.964  13.201  15.623  1.00 29.12 LIG-0.07  N 
ATOM     65 H2   VAL P   1     -20.686  13.955  15.240  1.00 29.12 LIG 0.28  HD
ATOM     66 H1   VAL P   1     -20.310  12.865  16.125  1.00 29.12 LIG 0.28  HD
ATOM     67 H3   VAL P   1     -21.672  13.373  16.133  1.00 29.12 LIG 0.28  HD
ENDBRANCH 60 64
ENDBRANCH 58 60
ENDBRANCH 55 56
BRANCH 55 68
ATOM     68  CB  VAL P   2     -22.599  16.256  11.928  1.00 25.03 LIG 0.01  C 
ATOM     69  CG2 VAL P   2     -21.554  17.300  12.367  1.00 23.99 LIG 0.01  C 
ATOM     70  CG1 VAL P   2     -23.786  16.306  12.872  1.00 25.56 LIG 0.01  C 
ENDBRANCH 55 68
ENDBRANCH 53 55
ENDBRANCH 47 51
ENDBRANCH 44 47
ENDBRANCH 1 43
TORSDOF 26
ENDMDL
MODEL 14
USER: ADFR SOLUTION from run 179
USER: SCORE 19.173905 LL:  -5.865 LR: -14.702 RR:   0.000 FEB:  -6.946
USER: RMSD 8.533670
USER: SEED 178
USER: STATUS searching
USER: GENES 28
USER: genes 0 Translation |==|  0.50796 0.36257 0.64783
USER: genes 1 Rotation |==|  0.44080 0.73825 0.09124 0.65050
USER: genes 2 Torsion [N]-CA--C-[N] |==|  0.49824
USER: genes 3 Torsion [C]-N--CA-[CB] |==|  0.82031
USER: genes 4 Torsion [N]-CA--CB-[CG] |==|  0.89532
USER: genes 5 Torsion [CA]-CB--CG-[CD2] |==|  0.34328
USER: genes 6 Torsion [N]-CA--C-[N] |==|  0.11787
USER: genes 7 Torsion [C]-N--CA-[CB] |==|  0.84165
USER: genes 8 Torsion [N]-CA--C-[N] |==|  0.40413
USER: genes 9 Torsion [C]-N--CA-[C] |==|  0.57246
USER: genes 10 Torsion [N]-CA--C-[O] |==|  0.12204
USER: genes 11 Torsion [N]-CA--CB-[CG] |==|  0.64740
USER: genes 12 Torsion [CA]-CB--CG-[OD1] |==|  0.03502
USER: genes 13 Torsion [N]-CA--CB-[CG] |==|  0.77336
USER: genes 14 Torsion [CA]-CB--CG-[OD1] |==|  0.02952
USER: genes 15 Torsion [C]-CA--CB-[CG] |==|  0.27858
USER: genes 16 Torsion [CA]-CB--CG-[CD2] |==|  0.69624
USER: genes 17 Torsion [C]-CA--N-[C] |==|  0.79443
USER: genes 18 Torsion [N]-C--CA-[N] |==|  0.37513
USER: genes 19 Torsion [C]-CA--CB-[OG] |==|  0.10545
USER: genes 20 Torsion [CA]-CB--OG-[HG] |==|  0.37261
USER: genes 21 Torsion [C]-CA--N-[C] |==|  0.73961
USER: genes 22 Torsion [N]-C--CA-[N] |==|  0.88717
USER: genes 23 Torsion [C]-CA--N-[C] |==|  0.84991
USER: genes 24 Torsion [N]-C--CA-[N] |==|  0.44771
USER: genes 25 Torsion [C]-CA--CB-[CG2] |==|  0.75796
USER: genes 26 Torsion [C]-CA--N-[H2] |==|  0.43153
USER: genes 27 Torsion [C]-CA--CB-[CG2] |==|  0.34995
ROOT
ATOM      1  CA  HIS P   4     -17.478  10.119  12.595  1.00 23.76 LIG 0.18  C 
ENDROOT
BRANCH 1 2
ATOM      2  C   HIS P   4     -16.955  11.284  11.742  1.00 25.01 LIG 0.24  C 
ATOM      3 O    HIS P   4     -17.407  11.493  10.608  1.00 23.35 LIG-0.27  OA
ATOM      4  N   PHE P   5     -15.951  11.996  12.250  1.00 23.15 LIG-0.35  N 
ATOM      5 H    PHE P   5     -15.571  11.809  12.999  1.00 23.15 LIG 0.16  HD
BRANCH 4 6
ATOM      6  CA  PHE P   5     -15.399  13.162  11.588  1.00 24.23 LIG 0.18  C 
BRANCH 6 7
ATOM      7  CB  PHE P   5     -14.744  12.714  10.246  1.00 25.15 LIG 0.07  C 
BRANCH 7 8
ATOM      8  CG  PHE P   5     -14.062  11.392  10.392  1.00 25.22 LIG-0.06  A 
ATOM      9  CD2 PHE P   5     -14.457  10.373   9.532  1.00 26.21 LIG 0.01  A 
ATOM     10  CE2 PHE P   5     -13.934   9.118   9.655  1.00 26.58 LIG 0.00  A 
ATOM     11  CZ  PHE P   5     -12.965   8.871  10.611  1.00 27.68 LIG 0.00  A 
ATOM     12  CE1 PHE P   5     -12.553   9.869  11.459  1.00 26.50 LIG 0.00  A 
ATOM     13  CD1 PHE P   5     -13.105  11.139  11.345  1.00 25.73 LIG 0.01  A 
ENDBRANCH 7 8
ENDBRANCH 6 7
BRANCH 6 14
ATOM     14  C   PHE P   5     -16.391  14.284  11.380  1.00 25.59 LIG 0.24  C 
ATOM     15 O    PHE P   5     -16.494  14.872  10.284  1.00 25.82 LIG-0.27  OA
ATOM     16  N   ASN P   6     -17.195  14.546  12.394  1.00 24.53 LIG-0.35  N 
ATOM     17 H    ASN P   6     -17.168  14.138  13.151  1.00 24.53 LIG 0.16  HD
BRANCH 16 18
ATOM     18  CA  ASN P   6     -18.217  15.579  12.296  1.00 25.84 LIG 0.18  C 
BRANCH 18 19
ATOM     19  C   ASN P   6     -19.344  15.230  11.351  1.00 25.26 LIG 0.24  C 
ATOM     20  N   ASP P   7     -20.583  15.659  11.665  1.00 26.59 LIG-0.34  N 
ATOM     21 H    ASP P   7     -20.785  16.094  12.378  1.00 26.59 LIG 0.16  HD
ATOM     22 O    ASN P   6     -19.111  14.542  10.355  1.00 25.72 LIG-0.27  OA
BRANCH 20 23
ATOM     23  CA  ASP P   7     -21.690  15.395  10.773  1.00 25.93 LIG 0.20  C 
BRANCH 23 24
ATOM     24  C   ASP P   7     -22.779  16.463  10.964  1.00 27.07 LIG 0.20  C 
ATOM     25 O    ASP P   7     -22.378  17.611  11.047  1.00 28.96 LIG-0.65  OA
ATOM     26 OXT  ASP P   7     -24.041  16.096  10.946  1.00 29.63 LIG-0.65  OA
ENDBRANCH 23 24
BRANCH 23 27
ATOM     27  CB  ASP P   7     -22.370  14.027  10.975  1.00 25.41 LIG 0.15  C 
BRANCH 27 28
ATOM     28  CG  ASP P   7     -22.469  13.217   9.707  1.00 25.37 LIG 0.17  C 
ATOM     29 OD1  ASP P   7     -21.854  13.497   8.654  1.00 26.66 LIG-0.65  OA
ATOM     30 OD2  ASP P   7     -23.207  12.176   9.773  1.00 23.76 LIG-0.65  OA
ENDBRANCH 27 28
ENDBRANCH 23 27
ENDBRANCH 20 23
ENDBRANCH 18 19
BRANCH 18 31
ATOM     31  CB  ASN P   6     -17.579  16.923  11.939  1.00 24.75 LIG 0.14  C 
BRANCH 31 32
ATOM     32  CG  ASN P   6     -17.002  17.611  13.157  1.00 27.24 LIG 0.22  C 
ATOM     33  ND2 ASN P   6     -16.610  18.848  12.856  1.00 23.85 LIG-0.37  N 
ATOM     34 21HD ASN P   6     -16.230  19.336  13.454  1.00 23.85 LIG 0.16  HD
ATOM     35 22HD ASN P   6     -16.738  19.159  12.064  1.00 23.85 LIG 0.16  HD
ATOM     36 OD1  ASN P   6     -16.901  16.990  14.254  1.00 24.90 LIG-0.27  OA
ENDBRANCH 31 32
ENDBRANCH 18 31
ENDBRANCH 16 18
ENDBRANCH 6 14
ENDBRANCH 4 6
ENDBRANCH 1 2
BRANCH 1 37
ATOM     37  CB  HIS P   4     -16.307   9.179  12.879  1.00 21.80 LIG 0.10  C 
BRANCH 37 38
ATOM     38  CG  HIS P   4     -15.710   9.356  14.242  1.00 23.01 LIG 0.06  A 
ATOM     39  CD2 HIS P   4     -14.552   9.854  14.676  1.00 23.26 LIG 0.14  A 
ATOM     40 NE2  HIS P   4     -14.643   9.954  16.041  1.00 21.45 LIG-0.25  NA
ATOM     41  CE1 HIS P   4     -15.844   9.552  16.447  1.00 22.12 LIG 0.23  A 
ATOM     42 ND1  HIS P   4     -16.511   9.204  15.393  1.00 22.83 LIG-0.24  NA
ENDBRANCH 37 38
ENDBRANCH 1 37
BRANCH 1 43
ATOM     43  N   HIS P   4     -18.595   9.486  11.842  1.00 22.02 LIG-0.35  N 
ATOM     44  C   SER P   3     -19.762  10.128  11.784  1.00 24.42 LIG 0.24  C 
ATOM     45 O    SER P   3     -19.926  11.210  12.370  1.00 24.72 LIG-0.27  OA
ATOM     46 H    HIS P   4     -18.422   8.726  11.478  1.00 22.02 LIG 0.16  HD
BRANCH 44 47
ATOM     47  CA  SER P   3     -20.926   9.455  11.075  1.00 22.14 LIG 0.20  C 
BRANCH 47 48
ATOM     48  CB  SER P   3     -21.164  10.024   9.661  1.00 23.32 LIG 0.20  C 
BRANCH 48 49
ATOM     49 OG   SER P   3     -19.891  10.308   9.040  1.00 23.11 LIG-0.40  OA
ATOM     50 HG   SER P   3     -19.892  10.015   8.254  1.00 23.11 LIG 0.21  HD
ENDBRANCH 48 49
ENDBRANCH 47 48
BRANCH 47 51
ATOM     51  N   SER P   3     -22.191   9.536  11.808  1.00 22.53 LIG-0.34  N 
ATOM     52 H    SER P   3     -22.646  10.252  11.664  1.00 22.53 LIG 0.16  HD
ATOM     53  C   VAL P   2     -22.572   8.558  12.624  1.00 22.76 LIG 0.24  C 
ATOM     54 O    VAL P   2     -21.806   7.616  12.926  1.00 25.85 LIG-0.27  OA
BRANCH 53 55
ATOM     55  CA  VAL P   2     -23.928   8.739  13.311  1.00 24.07 LIG 0.18  C 
BRANCH 55 56
ATOM     56  N   VAL P   2     -24.117  10.124  13.746  1.00 24.29 LIG-0.35  N 
ATOM     57 H    VAL P   2     -24.836  10.506  13.470  1.00 24.29 LIG 0.16  HD
ATOM     58  C   VAL P   1     -23.179  10.701  14.530  1.00 26.39 LIG 0.25  C 
ATOM     59 O    VAL P   1     -22.151  10.060  14.900  1.00 26.90 LIG-0.27  OA
BRANCH 58 60
ATOM     60  CA  VAL P   1     -23.417  12.129  14.999  1.00 27.40 LIG 0.28  C 
BRANCH 60 61
ATOM     61  CB  VAL P   1     -23.114  13.154  13.858  1.00 27.20 LIG 0.02  C 
ATOM     62  CG2 VAL P   1     -21.622  13.502  13.902  1.00 28.02 LIG 0.01  C 
ATOM     63  CG1 VAL P   1     -23.983  14.346  14.194  1.00 27.17 LIG 0.01  C 
ENDBRANCH 60 61
BRANCH 60 64
ATOM     64  N   VAL P   1     -22.615  12.475  16.130  1.00 29.12 LIG-0.07  N 
ATOM     65 H2   VAL P   1     -22.501  13.358  16.155  1.00 29.12 LIG 0.28  HD
ATOM     66 H1   VAL P   1     -21.822  12.076  16.065  1.00 29.12 LIG 0.28  HD
ATOM     67 H3   VAL P   1     -23.022  12.208  16.875  1.00 29.12 LIG 0.28  HD
ENDBRANCH 60 64
ENDBRANCH 58 60
ENDBRANCH 55 56
BRANCH 55 68
ATOM     68  CB  VAL P   2     -25.025   8.223  12.333  1.00 25.03 LIG 0.01  C 
ATOM     69  CG2 VAL P   2     -25.895   7.173  13.052  1.00 23.99 LIG 0.01  C 
ATOM     70  CG1 VAL P   2     -24.449   7.616  11.068  1.00 25.56 LIG 0.01  C 
ENDBRANCH 55 68
ENDBRANCH 53 55
ENDBRANCH 47 51
ENDBRANCH 44 47
ENDBRANCH 1 43
TORSDOF 26
ENDMDL
MODEL 15
USER: ADFR SOLUTION from run 100
USER: SCORE 19.564756 LL:  -5.787 LR: -14.652 RR:   0.000 FEB:  -6.896
USER: RMSD 8.779100
USER: SEED 99
USER: STATUS no improvement in best in 6 clusters for 5 generations
USER: GENES 28
USER: genes 0 Translation |==|  0.52104 0.35328 0.72132
USER: genes 1 Rotation |==|  0.50570 0.72581 0.08544 0.66467
USER: genes 2 Torsion [N]-CA--C-[N] |==|  0.93780
USER: genes 3 Torsion [C]-N--CA-[CB] |==|  0.23857
USER: genes 4 Torsion [N]-CA--CB-[CG] |==|  0.14381
USER: genes 5 Torsion [CA]-CB--CG-[CD2] |==|  0.28824
USER: genes 6 Torsion [N]-CA--C-[N] |==|  0.95244
USER: genes 7 Torsion [C]-N--CA-[CB] |==|  0.83796
USER: genes 8 Torsion [N]-CA--C-[N] |==|  0.37349
USER: genes 9 Torsion [C]-N--CA-[C] |==|  0.52057
USER: genes 10 Torsion [N]-CA--C-[O] |==|  0.34243
USER: genes 11 Torsion [N]-CA--CB-[CG] |==|  0.67628
USER: genes 12 Torsion [CA]-CB--CG-[OD1] |==|  0.96382
USER: genes 13 Torsion [N]-CA--CB-[CG] |==|  0.63011
USER: genes 14 Torsion [CA]-CB--CG-[OD1] |==|  0.07099
USER: genes 15 Torsion [C]-CA--CB-[CG] |==|  0.21734
USER: genes 16 Torsion [CA]-CB--CG-[CD2] |==|  0.24864
USER: genes 17 Torsion [C]-CA--N-[C] |==|  0.81781
USER: genes 18 Torsion [N]-C--CA-[N] |==|  0.34401
USER: genes 19 Torsion [C]-CA--CB-[OG] |==|  0.44373
USER: genes 20 Torsion [CA]-CB--OG-[HG] |==|  0.52032
USER: genes 21 Torsion [C]-CA--N-[C] |==|  0.72536
USER: genes 22 Torsion [N]-C--CA-[N] |==|  0.90461
USER: genes 23 Torsion [C]-CA--N-[C] |==|  0.84950
USER: genes 24 Torsion [N]-C--CA-[N] |==|  0.48532
USER: genes 25 Torsion [C]-CA--CB-[CG2] |==|  0.21789
USER: genes 26 Torsion [C]-CA--N-[H2] |==|  0.05168
USER: genes 27 Torsion [C]-CA--CB-[CG2] |==|  0.33392
ROOT
ATOM      1  CA  HIS P   4     -17.193   9.959  14.194  1.00 23.76 LIG 0.18  C 
ENDROOT
BRANCH 1 2
ATOM      2  C   HIS P   4     -16.386  11.096  13.552  1.00 25.01 LIG 0.24  C 
ATOM      3 O    HIS P   4     -15.909  12.005  14.243  1.00 23.35 LIG-0.27  OA
ATOM      4  N   PHE P   5     -16.296  11.091  12.223  1.00 23.15 LIG-0.35  N 
ATOM      5 H    PHE P   5     -16.694  10.514  11.724  1.00 23.15 LIG 0.16  HD
BRANCH 4 6
ATOM      6  CA  PHE P   5     -15.514  12.063  11.483  1.00 24.23 LIG 0.18  C 
BRANCH 6 7
ATOM      7  CB  PHE P   5     -14.039  11.564  11.401  1.00 25.15 LIG 0.07  C 
BRANCH 7 8
ATOM      8  CG  PHE P   5     -13.972  10.161  10.889  1.00 25.22 LIG-0.06  A 
ATOM      9  CD2 PHE P   5     -13.572   9.985   9.568  1.00 26.21 LIG 0.01  A 
ATOM     10  CE2 PHE P   5     -13.559   8.740   9.007  1.00 26.58 LIG 0.00  A 
ATOM     11  CZ  PHE P   5     -13.897   7.639   9.774  1.00 27.68 LIG 0.00  A 
ATOM     12  CE1 PHE P   5     -14.279   7.795  11.084  1.00 26.50 LIG 0.00  A 
ATOM     13  CD1 PHE P   5     -14.314   9.065  11.644  1.00 25.73 LIG 0.01  A 
ENDBRANCH 7 8
ENDBRANCH 6 7
BRANCH 6 14
ATOM     14  C   PHE P   5     -16.071  12.396  10.117  1.00 25.59 LIG 0.24  C 
ATOM     15 O    PHE P   5     -15.657  13.375   9.464  1.00 25.82 LIG-0.27  OA
ATOM     16  N   ASN P   6     -16.953  11.547   9.625  1.00 24.53 LIG-0.35  N 
ATOM     17 H    ASN P   6     -17.235  10.848  10.039  1.00 24.53 LIG 0.16  HD
BRANCH 16 18
ATOM     18  CA  ASN P   6     -17.528  11.743   8.301  1.00 25.84 LIG 0.18  C 
BRANCH 18 19
ATOM     19  C   ASN P   6     -16.534  11.571   7.176  1.00 25.26 LIG 0.24  C 
ATOM     20  N   ASP P   7     -16.911  10.836   6.111  1.00 26.59 LIG-0.34  N 
ATOM     21 H    ASP P   7     -17.668  10.433   6.036  1.00 26.59 LIG 0.16  HD
ATOM     22 O    ASN P   6     -15.411  12.069   7.276  1.00 25.72 LIG-0.27  OA
BRANCH 20 23
ATOM     23  CA  ASP P   7     -16.018  10.678   4.985  1.00 25.93 LIG 0.20  C 
BRANCH 23 24
ATOM     24  C   ASP P   7     -16.747   9.959   3.839  1.00 27.07 LIG 0.20  C 
ATOM     25 O    ASP P   7     -16.773  10.558   2.777  1.00 28.96 LIG-0.65  OA
ATOM     26 OXT  ASP P   7     -17.214   8.747   4.042  1.00 29.63 LIG-0.65  OA
ENDBRANCH 23 24
BRANCH 23 27
ATOM     27  CB  ASP P   7     -14.744   9.864   5.280  1.00 25.41 LIG 0.15  C 
BRANCH 27 28
ATOM     28  CG  ASP P   7     -13.476  10.666   5.131  1.00 25.37 LIG 0.17  C 
ATOM     29 OD1  ASP P   7     -13.424  11.789   4.581  1.00 26.66 LIG-0.65  OA
ATOM     30 OD2  ASP P   7     -12.428  10.143   5.642  1.00 23.76 LIG-0.65  OA
ENDBRANCH 27 28
ENDBRANCH 23 27
ENDBRANCH 20 23
ENDBRANCH 18 19
BRANCH 18 31
ATOM     31  CB  ASN P   6     -18.235  13.098   8.227  1.00 24.75 LIG 0.14  C 
BRANCH 31 32
ATOM     32  CG  ASN P   6     -19.607  12.982   7.600  1.00 27.24 LIG 0.22  C 
ATOM     33  ND2 ASN P   6     -19.993  14.152   7.095  1.00 23.85 LIG-0.37  N 
ATOM     34 21HD ASN P   6     -20.773  14.231   6.741  1.00 23.85 LIG 0.16  HD
ATOM     35 22HD ASN P   6     -19.462  14.829   7.123  1.00 23.85 LIG 0.16  HD
ATOM     36 OD1  ASN P   6     -20.242  11.889   7.649  1.00 24.90 LIG-0.27  OA
ENDBRANCH 31 32
ENDBRANCH 18 31
ENDBRANCH 16 18
ENDBRANCH 6 14
ENDBRANCH 4 6
ENDBRANCH 1 2
BRANCH 1 37
ATOM     37  CB  HIS P   4     -16.207   8.919  14.724  1.00 21.80 LIG 0.10  C 
BRANCH 37 38
ATOM     38  CG  HIS P   4     -15.566   9.306  16.022  1.00 23.01 LIG 0.06  A 
ATOM     39  CD2 HIS P   4     -15.896   9.115  17.299  1.00 23.26 LIG 0.14  A 
ATOM     40 NE2  HIS P   4     -14.822   9.507  18.057  1.00 21.45 LIG-0.25  NA
ATOM     41  CE1 HIS P   4     -13.831   9.910  17.266  1.00 22.12 LIG 0.23  A 
ATOM     42 ND1  HIS P   4     -14.239   9.786  16.043  1.00 22.83 LIG-0.24  NA
ENDBRANCH 37 38
ENDBRANCH 1 37
BRANCH 1 43
ATOM     43  N   HIS P   4     -18.124   9.437  13.155  1.00 22.02 LIG-0.35  N 
ATOM     44  C   SER P   3     -19.088  10.242  12.708  1.00 24.42 LIG 0.24  C 
ATOM     45 O    SER P   3     -19.229  11.387  13.168  1.00 24.72 LIG-0.27  OA
ATOM     46 H    HIS P   4     -17.986   8.628  12.896  1.00 22.02 LIG 0.16  HD
BRANCH 44 47
ATOM     47  CA  SER P   3     -20.083   9.692  11.699  1.00 22.14 LIG 0.20  C 
BRANCH 47 48
ATOM     48  CB  SER P   3     -19.954  10.365  10.317  1.00 23.32 LIG 0.20  C 
BRANCH 48 49
ATOM     49 OG   SER P   3     -20.550   9.515   9.314  1.00 23.11 LIG-0.40  OA
ATOM     50 HG   SER P   3     -20.393   9.829   8.551  1.00 23.11 LIG 0.21  HD
ENDBRANCH 48 49
ENDBRANCH 47 48
BRANCH 47 51
ATOM     51  N   SER P   3     -21.480   9.807  12.123  1.00 22.53 LIG-0.34  N 
ATOM     52 H    SER P   3     -21.832  10.581  11.996  1.00 22.53 LIG 0.16  HD
ATOM     53  C   VAL P   2     -22.118   8.772  12.659  1.00 22.76 LIG 0.24  C 
ATOM     54 O    VAL P   2     -21.520   7.719  12.973  1.00 25.85 LIG-0.27  OA
BRANCH 53 55
ATOM     55  CA  VAL P   2     -23.585   9.002  13.034  1.00 24.07 LIG 0.18  C 
BRANCH 55 56
ATOM     56  N   VAL P   2     -23.801  10.374  13.495  1.00 24.29 LIG-0.35  N 
ATOM     57 H    VAL P   2     -24.419  10.811  13.086  1.00 24.29 LIG 0.16  HD
ATOM     58  C   VAL P   1     -23.041  10.858  14.503  1.00 26.39 LIG 0.25  C 
ATOM     59 O    VAL P   1     -22.158  10.140  15.058  1.00 26.90 LIG-0.27  OA
BRANCH 58 60
ATOM     60  CA  VAL P   1     -23.311  12.275  14.987  1.00 27.40 LIG 0.28  C 
BRANCH 60 61
ATOM     61  CB  VAL P   1     -23.018  13.320  13.863  1.00 27.20 LIG 0.02  C 
ATOM     62  CG2 VAL P   1     -24.199  13.324  12.886  1.00 28.02 LIG 0.01  C 
ATOM     63  CG1 VAL P   1     -21.748  12.815  13.213  1.00 27.17 LIG 0.01  C 
ENDBRANCH 60 61
BRANCH 60 64
ATOM     64  N   VAL P   1     -22.526  12.622  16.130  1.00 29.12 LIG-0.07  N 
ATOM     65 H2   VAL P   1     -21.836  12.065  16.197  1.00 29.12 LIG 0.28  HD
ATOM     66 H1   VAL P   1     -23.027  12.563  16.864  1.00 29.12 LIG 0.28  HD
ATOM     67 H3   VAL P   1     -22.226  13.455  16.042  1.00 29.12 LIG 0.28  HD
ENDBRANCH 60 64
ENDBRANCH 58 60
ENDBRANCH 55 56
BRANCH 55 68
ATOM     68  CB  VAL P   2     -24.455   8.596  11.808  1.00 25.03 LIG 0.01  C 
ATOM     69  CG2 VAL P   2     -25.417   7.464  12.218  1.00 23.99 LIG 0.01  C 
ATOM     70  CG1 VAL P   2     -23.626   8.144  10.620  1.00 25.56 LIG 0.01  C 
ENDBRANCH 55 68
ENDBRANCH 53 55
ENDBRANCH 47 51
ENDBRANCH 44 47
ENDBRANCH 1 43
TORSDOF 26
ENDMDL
MODEL 16
USER: ADFR SOLUTION from run 85
USER: SCORE 18.027014 LL:  -5.017 LR: -14.639 RR:   0.000 FEB:  -6.883
USER: RMSD 5.259541
USER: SEED 84
USER: STATUS searching
USER: GENES 28
USER: genes 0 Translation |==|  0.53111 0.33621 0.63809
USER: genes 1 Rotation |==|  0.43184 0.53193 0.50382 0.99429
USER: genes 2 Torsion [N]-CA--C-[N] |==|  0.46515
USER: genes 3 Torsion [C]-N--CA-[CB] |==|  0.26475
USER: genes 4 Torsion [N]-CA--CB-[CG] |==|  0.52270
USER: genes 5 Torsion [CA]-CB--CG-[CD2] |==|  0.61435
USER: genes 6 Torsion [N]-CA--C-[N] |==|  0.95012
USER: genes 7 Torsion [C]-N--CA-[CB] |==|  0.77756
USER: genes 8 Torsion [N]-CA--C-[N] |==|  0.16786
USER: genes 9 Torsion [C]-N--CA-[C] |==|  0.66555
USER: genes 10 Torsion [N]-CA--C-[O] |==|  0.64297
USER: genes 11 Torsion [N]-CA--CB-[CG] |==|  0.67507
USER: genes 12 Torsion [CA]-CB--CG-[OD1] |==|  0.10645
USER: genes 13 Torsion [N]-CA--CB-[CG] |==|  0.89320
USER: genes 14 Torsion [CA]-CB--CG-[OD1] |==|  0.22033
USER: genes 15 Torsion [C]-CA--CB-[CG] |==|  0.47519
USER: genes 16 Torsion [CA]-CB--CG-[CD2] |==|  0.74503
USER: genes 17 Torsion [C]-CA--N-[C] |==|  0.59848
USER: genes 18 Torsion [N]-C--CA-[N] |==|  0.94680
USER: genes 19 Torsion [C]-CA--CB-[OG] |==|  0.76501
USER: genes 20 Torsion [CA]-CB--OG-[HG] |==|  0.43948
USER: genes 21 Torsion [C]-CA--N-[C] |==|  0.73736
USER: genes 22 Torsion [N]-C--CA-[N] |==|  0.39106
USER: genes 23 Torsion [C]-CA--N-[C] |==|  0.68240
USER: genes 24 Torsion [N]-C--CA-[N] |==|  0.76926
USER: genes 25 Torsion [C]-CA--CB-[CG2] |==|  0.49701
USER: genes 26 Torsion [C]-CA--N-[H2] |==|  0.40872
USER: genes 27 Torsion [C]-CA--CB-[CG2] |==|  0.65291
ROOT
ATOM      1  CA  HIS P   4     -16.974   9.665  12.383  1.00 23.76 LIG 0.18  C 
ENDROOT
BRANCH 1 2
ATOM      2  C   HIS P   4     -18.146   9.873  11.414  1.00 25.01 LIG 0.24  C 
ATOM      3 O    HIS P   4     -17.993  10.502  10.358  1.00 23.35 LIG-0.27  OA
ATOM      4  N   PHE P   5     -19.335   9.414  11.802  1.00 23.15 LIG-0.35  N 
ATOM      5 H    PHE P   5     -19.473   9.051  12.569  1.00 23.15 LIG 0.16  HD
BRANCH 4 6
ATOM      6  CA  PHE P   5     -20.516   9.482  10.964  1.00 24.23 LIG 0.18  C 
BRANCH 6 7
ATOM      7  CB  PHE P   5     -20.674   8.127  10.208  1.00 25.15 LIG 0.07  C 
BRANCH 7 8
ATOM      8  CG  PHE P   5     -21.759   8.204   9.183  1.00 25.22 LIG-0.06  A 
ATOM      9  CD2 PHE P   5     -22.602   7.104   9.065  1.00 26.21 LIG 0.01  A 
ATOM     10  CE2 PHE P   5     -23.568   7.069   8.100  1.00 26.58 LIG 0.00  A 
ATOM     11  CZ  PHE P   5     -23.743   8.160   7.267  1.00 27.68 LIG 0.00  A 
ATOM     12  CE1 PHE P   5     -22.929   9.260   7.380  1.00 26.50 LIG 0.00  A 
ATOM     13  CD1 PHE P   5     -21.932   9.281   8.347  1.00 25.73 LIG 0.01  A 
ENDBRANCH 7 8
ENDBRANCH 6 7
BRANCH 6 14
ATOM     14  C   PHE P   5     -21.779   9.862  11.704  1.00 25.59 LIG 0.24  C 
ATOM     15 O    PHE P   5     -22.813  10.208  11.098  1.00 25.82 LIG-0.27  OA
ATOM     16  N   ASN P   6     -21.749   9.725  13.016  1.00 24.53 LIG-0.35  N 
ATOM     17 H    ASN P   6     -21.061   9.461  13.460  1.00 24.53 LIG 0.16  HD
BRANCH 16 18
ATOM     18  CA  ASN P   6     -22.919  10.024  13.831  1.00 25.84 LIG 0.18  C 
BRANCH 18 19
ATOM     19  C   ASN P   6     -24.202   9.438  13.288  1.00 25.26 LIG 0.24  C 
ATOM     20  N   ASP P   7     -24.277   8.098  13.160  1.00 26.59 LIG-0.34  N 
ATOM     21 H    ASP P   7     -23.637   7.552  13.339  1.00 26.59 LIG 0.16  HD
ATOM     22 O    ASN P   6     -25.117  10.191  12.947  1.00 25.72 LIG-0.27  OA
BRANCH 20 23
ATOM     23  CA  ASP P   7     -25.497   7.480  12.691  1.00 25.93 LIG 0.20  C 
BRANCH 23 24
ATOM     24  C   ASP P   7     -26.031   6.509  13.754  1.00 27.07 LIG 0.20  C 
ATOM     25 O    ASP P   7     -26.284   5.384  13.357  1.00 28.96 LIG-0.65  OA
ATOM     26 OXT  ASP P   7     -26.105   6.910  15.004  1.00 29.63 LIG-0.65  OA
ENDBRANCH 23 24
BRANCH 23 27
ATOM     27  CB  ASP P   7     -25.353   6.674  11.385  1.00 25.41 LIG 0.15  C 
BRANCH 27 28
ATOM     28  CG  ASP P   7     -26.169   7.231  10.247  1.00 25.37 LIG 0.17  C 
ATOM     29 OD1  ASP P   7     -26.321   8.455  10.035  1.00 26.66 LIG-0.65  OA
ATOM     30 OD2  ASP P   7     -26.684   6.365   9.461  1.00 23.76 LIG-0.65  OA
ENDBRANCH 27 28
ENDBRANCH 23 27
ENDBRANCH 20 23
ENDBRANCH 18 19
BRANCH 18 31
ATOM     31  CB  ASN P   6     -23.039  11.533  14.052  1.00 24.75 LIG 0.14  C 
BRANCH 31 32
ATOM     32  CG  ASN P   6     -21.686  12.179  14.260  1.00 27.24 LIG 0.22  C 
ATOM     33  ND2 ASN P   6     -21.488  12.449  15.549  1.00 23.85 LIG-0.37  N 
ATOM     34 21HD ASN P   6     -20.770  12.852  15.798  1.00 23.85 LIG 0.16  HD
ATOM     35 22HD ASN P   6     -22.078  12.222  16.132  1.00 23.85 LIG 0.16  HD
ATOM     36 OD1  ASN P   6     -20.940  12.433  13.271  1.00 24.90 LIG-0.27  OA
ENDBRANCH 31 32
ENDBRANCH 18 31
ENDBRANCH 16 18
ENDBRANCH 6 14
ENDBRANCH 4 6
ENDBRANCH 1 2
BRANCH 1 37
ATOM     37  CB  HIS P   4     -17.201  10.563  13.599  1.00 21.80 LIG 0.10  C 
BRANCH 37 38
ATOM     38  CG  HIS P   4     -16.244  10.307  14.723  1.00 23.01 LIG 0.06  A 
ATOM     39  CD2 HIS P   4     -16.282   9.518  15.796  1.00 23.26 LIG 0.14  A 
ATOM     40 NE2  HIS P   4     -15.031   9.540  16.358  1.00 21.45 LIG-0.25  NA
ATOM     41  CE1 HIS P   4     -14.221  10.307  15.633  1.00 22.12 LIG 0.23  A 
ATOM     42 ND1  HIS P   4     -14.913  10.767  14.640  1.00 22.83 LIG-0.24  NA
ENDBRANCH 37 38
ENDBRANCH 1 37
BRANCH 1 43
ATOM     43  N   HIS P   4     -15.722   9.963  11.634  1.00 22.02 LIG-0.35  N 
ATOM     44  C   SER P   3     -14.635   9.242  11.908  1.00 24.42 LIG 0.24  C 
ATOM     45 O    SER P   3     -14.654   8.365  12.786  1.00 24.72 LIG-0.27  OA
ATOM     46 H    HIS P   4     -15.771  10.597  11.055  1.00 22.02 LIG 0.16  HD
BRANCH 44 47
ATOM     47  CA  SER P   3     -13.337   9.588  11.196  1.00 22.14 LIG 0.20  C 
BRANCH 47 48
ATOM     48  CB  SER P   3     -12.351  10.350  12.106  1.00 23.32 LIG 0.20  C 
BRANCH 48 49
ATOM     49 OG   SER P   3     -12.667  11.759  12.078  1.00 23.11 LIG-0.40  OA
ATOM     50 HG   SER P   3     -12.357  12.130  12.764  1.00 23.11 LIG 0.21  HD
ENDBRANCH 48 49
ENDBRANCH 47 48
BRANCH 47 51
ATOM     51  N   SER P   3     -13.524  10.379   9.978  1.00 22.53 LIG-0.34  N 
ATOM     52 H    SER P   3     -13.577  11.228  10.104  1.00 22.53 LIG 0.16  HD
ATOM     53  C   VAL P   2     -13.601   9.793   8.788  1.00 22.76 LIG 0.24  C 
ATOM     54 O    VAL P   2     -13.681   8.549   8.670  1.00 25.85 LIG-0.27  OA
BRANCH 53 55
ATOM     55  CA  VAL P   2     -13.764  10.724   7.583  1.00 24.07 LIG 0.18  C 
BRANCH 55 56
ATOM     56  N   VAL P   2     -12.973  10.253   6.445  1.00 24.29 LIG-0.35  N 
ATOM     57 H    VAL P   2     -13.219   9.502   6.106  1.00 24.29 LIG 0.16  HD
ATOM     58  C   VAL P   1     -11.937  11.005   6.007  1.00 26.39 LIG 0.25  C 
ATOM     59 O    VAL P   1     -11.651  12.108   6.559  1.00 26.90 LIG-0.27  OA
BRANCH 58 60
ATOM     60  CA  VAL P   1     -11.155  10.511   4.799  1.00 27.40 LIG 0.28  C 
BRANCH 60 61
ATOM     61  CB  VAL P   1     -12.103   9.863   3.740  1.00 27.20 LIG 0.02  C 
ATOM     62  CG2 VAL P   1     -11.258   9.413   2.543  1.00 28.02 LIG 0.01  C 
ATOM     63  CG1 VAL P   1     -13.060  10.976   3.372  1.00 27.17 LIG 0.01  C 
ENDBRANCH 60 61
BRANCH 60 64
ATOM     64  N   VAL P   1     -10.157   9.549   5.148  1.00 29.12 LIG-0.07  N 
ATOM     65 H2   VAL P   1     -10.064   8.963   4.485  1.00 29.12 LIG 0.28  HD
ATOM     66 H1   VAL P   1     -10.404   9.121   5.889  1.00 29.12 LIG 0.28  HD
ATOM     67 H3   VAL P   1      -9.382   9.964   5.289  1.00 29.12 LIG 0.28  HD
ENDBRANCH 60 64
ENDBRANCH 58 60
ENDBRANCH 55 56
BRANCH 55 68
ATOM     68  CB  VAL P   2     -15.287  10.855   7.291  1.00 25.03 LIG 0.01  C 
ATOM     69  CG2 VAL P   2     -15.559  10.469   5.823  1.00 23.99 LIG 0.01  C 
ATOM     70  CG1 VAL P   2     -15.819  12.253   7.548  1.00 25.56 LIG 0.01  C 
ENDBRANCH 55 68
ENDBRANCH 53 55
ENDBRANCH 47 51
ENDBRANCH 44 47
ENDBRANCH 1 43
TORSDOF 26
ENDMDL
MODEL 17
USER: ADFR SOLUTION from run 60
USER: SCORE 18.589655 LL:  -5.604 LR: -14.601 RR:   0.000 FEB:  -6.845
USER: RMSD 8.291780
USER: SEED 59
USER: STATUS no improvement in best in 2 clusters for 5 generations
USER: GENES 28
USER: genes 0 Translation |==|  0.64473 0.44291 0.61024
USER: genes 1 Rotation |==|  0.22862 0.62531 0.09932 0.51050
USER: genes 2 Torsion [N]-CA--C-[N] |==|  0.97946
USER: genes 3 Torsion [C]-N--CA-[CB] |==|  0.72841
USER: genes 4 Torsion [N]-CA--CB-[CG] |==|  0.04007
USER: genes 5 Torsion [CA]-CB--CG-[CD2] |==|  0.72727
USER: genes 6 Torsion [N]-CA--C-[N] |==|  0.17445
USER: genes 7 Torsion [C]-N--CA-[CB] |==|  0.75703
USER: genes 8 Torsion [N]-CA--C-[N] |==|  0.17778
USER: genes 9 Torsion [C]-N--CA-[C] |==|  0.77203
USER: genes 10 Torsion [N]-CA--C-[O] |==|  0.57378
USER: genes 11 Torsion [N]-CA--CB-[CG] |==|  0.10370
USER: genes 12 Torsion [CA]-CB--CG-[OD1] |==|  0.88098
USER: genes 13 Torsion [N]-CA--CB-[CG] |==|  0.13947
USER: genes 14 Torsion [CA]-CB--CG-[OD1] |==|  0.23664
USER: genes 15 Torsion [C]-CA--CB-[CG] |==|  0.82311
USER: genes 16 Torsion [CA]-CB--CG-[CD2] |==|  0.34294
USER: genes 17 Torsion [C]-CA--N-[C] |==|  0.71576
USER: genes 18 Torsion [N]-C--CA-[N] |==|  0.73622
USER: genes 19 Torsion [C]-CA--CB-[OG] |==|  0.76914
USER: genes 20 Torsion [CA]-CB--OG-[HG] |==|  0.71548
USER: genes 21 Torsion [C]-CA--N-[C] |==|  0.72186
USER: genes 22 Torsion [N]-C--CA-[N] |==|  0.06388
USER: genes 23 Torsion [C]-CA--N-[C] |==|  0.69191
USER: genes 24 Torsion [N]-C--CA-[N] |==|  0.78380
USER: genes 25 Torsion [C]-CA--CB-[CG2] |==|  0.10734
USER: genes 26 Torsion [C]-CA--N-[H2] |==|  0.38875
USER: genes 27 Torsion [C]-CA--CB-[CG2] |==|  0.70934
ROOT
ATOM      1  CA  HIS P   4     -14.503  11.505  11.778  1.00 23.76 LIG 0.18  C 
ENDROOT
BRANCH 1 2
ATOM      2  C   HIS P   4     -15.090  11.771  10.384  1.00 25.01 LIG 0.24  C 
ATOM      3 O    HIS P   4     -14.480  12.466   9.560  1.00 23.35 LIG-0.27  OA
ATOM      4  N   PHE P   5     -16.307  11.287  10.144  1.00 23.15 LIG-0.35  N 
ATOM      5 H    PHE P   5     -16.778  10.876  10.736  1.00 23.15 LIG 0.16  HD
BRANCH 4 6
ATOM      6  CA  PHE P   5     -16.961  11.404   8.855  1.00 24.23 LIG 0.18  C 
BRANCH 6 7
ATOM      7  CB  PHE P   5     -17.935  12.621   8.895  1.00 25.15 LIG 0.07  C 
BRANCH 7 8
ATOM      8  CG  PHE P   5     -17.661  13.493  10.077  1.00 25.22 LIG-0.06  A 
ATOM      9  CD2 PHE P   5     -18.467  13.317  11.198  1.00 26.21 LIG 0.01  A 
ATOM     10  CE2 PHE P   5     -18.328  14.127  12.288  1.00 26.58 LIG 0.00  A 
ATOM     11  CZ  PHE P   5     -17.342  15.098  12.298  1.00 27.68 LIG 0.00  A 
ATOM     12  CE1 PHE P   5     -16.528  15.275  11.206  1.00 26.50 LIG 0.00  A 
ATOM     13  CD1 PHE P   5     -16.689  14.464  10.090  1.00 25.73 LIG 0.01  A 
ENDBRANCH 7 8
ENDBRANCH 6 7
BRANCH 6 14
ATOM     14  C   PHE P   5     -16.008  11.486   7.683  1.00 25.59 LIG 0.24  C 
ATOM     15 O    PHE P   5     -15.904  12.523   6.996  1.00 25.82 LIG-0.27  OA
ATOM     16  N   ASN P   6     -15.238  10.433   7.483  1.00 24.53 LIG-0.35  N 
ATOM     17 H    ASN P   6     -15.266   9.716   7.957  1.00 24.53 LIG 0.16  HD
BRANCH 16 18
ATOM     18  CA  ASN P   6     -14.255  10.413   6.409  1.00 25.84 LIG 0.18  C 
BRANCH 18 19
ATOM     19  C   ASN P   6     -13.548  11.734   6.208  1.00 25.26 LIG 0.24  C 
ATOM     20  N   ASP P   7     -12.776  12.194   7.212  1.00 26.59 LIG-0.34  N 
ATOM     21 H    ASP P   7     -12.677  11.804   7.972  1.00 26.59 LIG 0.16  HD
ATOM     22 O    ASN P   6     -13.724  12.364   5.162  1.00 25.72 LIG-0.27  OA
BRANCH 20 23
ATOM     23  CA  ASP P   7     -12.040  13.428   7.056  1.00 25.93 LIG 0.20  C 
BRANCH 23 24
ATOM     24  C   ASP P   7     -10.733  13.162   6.293  1.00 27.07 LIG 0.20  C 
ATOM     25 O    ASP P   7      -9.825  13.942   6.521  1.00 28.96 LIG-0.65  OA
ATOM     26 OXT  ASP P   7     -10.649  12.098   5.526  1.00 29.63 LIG-0.65  OA
ENDBRANCH 23 24
BRANCH 23 27
ATOM     27  CB  ASP P   7     -11.650  14.120   8.377  1.00 25.41 LIG 0.15  C 
BRANCH 27 28
ATOM     28  CG  ASP P   7     -11.266  13.152   9.466  1.00 25.37 LIG 0.17  C 
ATOM     29 OD1  ASP P   7     -11.890  12.094   9.708  1.00 26.66 LIG-0.65  OA
ATOM     30 OD2  ASP P   7     -10.217  13.454  10.129  1.00 23.76 LIG-0.65  OA
ENDBRANCH 27 28
ENDBRANCH 23 27
ENDBRANCH 20 23
ENDBRANCH 18 19
BRANCH 18 31
ATOM     31  CB  ASN P   6     -14.897   9.915   5.113  1.00 24.75 LIG 0.14  C 
BRANCH 31 32
ATOM     32  CG  ASN P   6     -16.182  10.652   4.804  1.00 27.24 LIG 0.22  C 
ATOM     33  ND2 ASN P   6     -17.236   9.950   5.216  1.00 23.85 LIG-0.37  N 
ATOM     34 21HD ASN P   6     -18.032  10.241   5.068  1.00 23.85 LIG 0.16  HD
ATOM     35 22HD ASN P   6     -17.121   9.205   5.631  1.00 23.85 LIG 0.16  HD
ATOM     36 OD1  ASN P   6     -16.154  11.755   4.187  1.00 24.90 LIG-0.27  OA
ENDBRANCH 31 32
ENDBRANCH 18 31
ENDBRANCH 16 18
ENDBRANCH 6 14
ENDBRANCH 4 6
ENDBRANCH 1 2
BRANCH 1 37
ATOM     37  CB  HIS P   4     -13.266  10.624  11.609  1.00 21.80 LIG 0.10  C 
BRANCH 37 38
ATOM     38  CG  HIS P   4     -13.565   9.269  11.043  1.00 23.01 LIG 0.06  A 
ATOM     39  CD2 HIS P   4     -13.126   8.605   9.975  1.00 23.26 LIG 0.14  A 
ATOM     40 NE2  HIS P   4     -13.593   7.320  10.078  1.00 21.45 LIG-0.25  NA
ATOM     41  CE1 HIS P   4     -14.287   7.178  11.203  1.00 22.12 LIG 0.23  A 
ATOM     42 ND1  HIS P   4     -14.275   8.322  11.811  1.00 22.83 LIG-0.24  NA
ENDBRANCH 37 38
ENDBRANCH 1 37
BRANCH 1 43
ATOM     43  N   HIS P   4     -15.580  10.887  12.600  1.00 22.02 LIG-0.35  N 
ATOM     44  C   SER P   3     -16.218  11.652  13.485  1.00 24.42 LIG 0.24  C 
ATOM     45 O    SER P   3     -15.903  12.843  13.644  1.00 24.72 LIG-0.27  OA
ATOM     46 H    HIS P   4     -15.733  10.052  12.455  1.00 22.02 LIG 0.16  HD
BRANCH 44 47
ATOM     47  CA  SER P   3     -17.270  11.010  14.375  1.00 22.14 LIG 0.20  C 
BRANCH 47 48
ATOM     48  CB  SER P   3     -16.996   9.513  14.624  1.00 23.32 LIG 0.20  C 
BRANCH 48 49
ATOM     49 OG   SER P   3     -17.509   8.742  13.515  1.00 23.11 LIG-0.40  OA
ATOM     50 HG   SER P   3     -18.237   8.385  13.735  1.00 23.11 LIG 0.21  HD
ENDBRANCH 48 49
ENDBRANCH 47 48
BRANCH 47 51
ATOM     51  N   SER P   3     -18.635  11.135  13.861  1.00 22.53 LIG-0.34  N 
ATOM     52 H    SER P   3     -18.841  10.572  13.244  1.00 22.53 LIG 0.16  HD
ATOM     53  C   VAL P   2     -19.462  12.061  14.336  1.00 22.76 LIG 0.24  C 
ATOM     54 O    VAL P   2     -19.068  12.960  15.114  1.00 25.85 LIG-0.27  OA
BRANCH 53 55
ATOM     55  CA  VAL P   2     -20.874  12.076  13.745  1.00 24.07 LIG 0.18  C 
BRANCH 55 56
ATOM     56  N   VAL P   2     -21.221  10.771  13.180  1.00 24.29 LIG-0.35  N 
ATOM     57 H    VAL P   2     -21.331  10.136  13.750  1.00 24.29 LIG 0.16  HD
ATOM     58  C   VAL P   1     -21.344  10.645  11.839  1.00 26.39 LIG 0.25  C 
ATOM     59 O    VAL P   1     -21.175  11.638  11.072  1.00 26.90 LIG-0.27  OA
BRANCH 58 60
ATOM     60  CA  VAL P   1     -21.741   9.286  11.281  1.00 27.40 LIG 0.28  C 
BRANCH 60 61
ATOM     61  CB  VAL P   1     -22.895   8.648  12.119  1.00 27.20 LIG 0.02  C 
ATOM     62  CG2 VAL P   1     -23.872   9.758  12.524  1.00 28.02 LIG 0.01  C 
ATOM     63  CG1 VAL P   1     -22.191   8.049  13.317  1.00 27.17 LIG 0.01  C 
ENDBRANCH 60 61
BRANCH 60 64
ATOM     64  N   VAL P   1     -20.649   8.365  11.255  1.00 29.12 LIG-0.07  N 
ATOM     65 H2   VAL P   1     -20.936   7.558  11.496  1.00 29.12 LIG 0.28  HD
ATOM     66 H1   VAL P   1     -20.018   8.636  11.821  1.00 29.12 LIG 0.28  HD
ATOM     67 H3   VAL P   1     -20.313   8.326  10.431  1.00 29.12 LIG 0.28  HD
ENDBRANCH 60 64
ENDBRANCH 58 60
ENDBRANCH 55 56
BRANCH 55 68
ATOM     68  CB  VAL P   2     -21.846  12.568  14.857  1.00 25.03 LIG 0.01  C 
ATOM     69  CG2 VAL P   2     -22.638  11.366  15.410  1.00 23.99 LIG 0.01  C 
ATOM     70  CG1 VAL P   2     -22.818  13.624  14.365  1.00 25.56 LIG 0.01  C 
ENDBRANCH 55 68
ENDBRANCH 53 55
ENDBRANCH 47 51
ENDBRANCH 44 47
ENDBRANCH 1 43
TORSDOF 26
ENDMDL
MODEL 18
USER: ADFR SOLUTION from run 192
USER: SCORE 18.021678 LL:  -4.251 LR: -14.601 RR:   0.000 FEB:  -6.846
USER: RMSD 9.195585
USER: SEED 191
USER: STATUS searching
USER: GENES 28
USER: genes 0 Translation |==|  0.50150 0.63177 0.62259
USER: genes 1 Rotation |==|  0.39238 0.17458 0.14661 0.58741
USER: genes 2 Torsion [N]-CA--C-[N] |==|  0.01971
USER: genes 3 Torsion [C]-N--CA-[CB] |==|  0.52909
USER: genes 4 Torsion [N]-CA--CB-[CG] |==|  0.71341
USER: genes 5 Torsion [CA]-CB--CG-[CD2] |==|  0.48501
USER: genes 6 Torsion [N]-CA--C-[N] |==|  0.36395
USER: genes 7 Torsion [C]-N--CA-[CB] |==|  0.85667
USER: genes 8 Torsion [N]-CA--C-[N] |==|  0.36570
USER: genes 9 Torsion [C]-N--CA-[C] |==|  0.71304
USER: genes 10 Torsion [N]-CA--C-[O] |==|  0.91221
USER: genes 11 Torsion [N]-CA--CB-[CG] |==|  0.87000
USER: genes 12 Torsion [CA]-CB--CG-[OD1] |==|  0.66992
USER: genes 13 Torsion [N]-CA--CB-[CG] |==|  0.80255
USER: genes 14 Torsion [CA]-CB--CG-[OD1] |==|  0.44877
USER: genes 15 Torsion [C]-CA--CB-[CG] |==|  0.51041
USER: genes 16 Torsion [CA]-CB--CG-[CD2] |==|  0.93416
USER: genes 17 Torsion [C]-CA--N-[C] |==|  0.75512
USER: genes 18 Torsion [N]-C--CA-[N] |==|  0.47222
USER: genes 19 Torsion [C]-CA--CB-[OG] |==|  0.18792
USER: genes 20 Torsion [CA]-CB--OG-[HG] |==|  0.33146
USER: genes 21 Torsion [C]-CA--N-[C] |==|  0.55204
USER: genes 22 Torsion [N]-C--CA-[N] |==|  0.11311
USER: genes 23 Torsion [C]-CA--N-[C] |==|  0.15991
USER: genes 24 Torsion [N]-C--CA-[N] |==|  0.81208
USER: genes 25 Torsion [C]-CA--CB-[CG2] |==|  0.50975
USER: genes 26 Torsion [C]-CA--N-[H2] |==|  0.03664
USER: genes 27 Torsion [C]-CA--CB-[CG2] |==|  0.54761
ROOT
ATOM      1  CA  HIS P   4     -17.618  14.763  12.046  1.00 23.76 LIG 0.18  C 
ENDROOT
BRANCH 1 2
ATOM      2  C   HIS P   4     -16.555  13.673  11.855  1.00 25.01 LIG 0.24  C 
ATOM      3 O    HIS P   4     -15.613  13.836  11.068  1.00 23.35 LIG-0.27  OA
ATOM      4  N   PHE P   5     -16.742  12.530  12.512  1.00 23.15 LIG-0.35  N 
ATOM      5 H    PHE P   5     -17.437  12.371  12.994  1.00 23.15 LIG 0.16  HD
BRANCH 4 6
ATOM      6  CA  PHE P   5     -15.790  11.437  12.478  1.00 24.23 LIG 0.18  C 
BRANCH 6 7
ATOM      7  CB  PHE P   5     -16.445  10.180  13.127  1.00 25.15 LIG 0.07  C 
BRANCH 7 8
ATOM      8  CG  PHE P   5     -15.930   9.956  14.512  1.00 25.22 LIG-0.06  A 
ATOM      9  CD2 PHE P   5     -16.515   8.934  15.252  1.00 26.21 LIG 0.01  A 
ATOM     10  CE2 PHE P   5     -16.151   8.719  16.550  1.00 26.58 LIG 0.00  A 
ATOM     11  CZ  PHE P   5     -15.153   9.491  17.118  1.00 27.68 LIG 0.00  A 
ATOM     12  CE1 PHE P   5     -14.554  10.494  16.396  1.00 26.50 LIG 0.00  A 
ATOM     13  CD1 PHE P   5     -14.945  10.725  15.084  1.00 25.73 LIG 0.01  A 
ENDBRANCH 7 8
ENDBRANCH 6 7
BRANCH 6 14
ATOM     14  C   PHE P   5     -15.241  11.136  11.101  1.00 25.59 LIG 0.24  C 
ATOM     15 O    PHE P   5     -15.984  11.077  10.100  1.00 25.82 LIG-0.27  OA
ATOM     16  N   ASN P   6     -13.929  11.025  11.008  1.00 24.53 LIG-0.35  N 
ATOM     17 H    ASN P   6     -13.389  11.090  11.675  1.00 24.53 LIG 0.16  HD
BRANCH 16 18
ATOM     18  CA  ASN P   6     -13.285  10.776   9.726  1.00 25.84 LIG 0.18  C 
BRANCH 18 19
ATOM     19  C   ASN P   6     -13.248  11.984   8.820  1.00 25.26 LIG 0.24  C 
ATOM     20  N   ASP P   7     -12.074  12.299   8.238  1.00 26.59 LIG-0.34  N 
ATOM     21 H    ASP P   7     -11.335  11.877   8.366  1.00 26.59 LIG 0.16  HD
ATOM     22 O    ASN P   6     -14.268  12.661   8.669  1.00 25.72 LIG-0.27  OA
BRANCH 20 23
ATOM     23  CA  ASP P   7     -11.992  13.416   7.324  1.00 25.93 LIG 0.20  C 
BRANCH 23 24
ATOM     24  C   ASP P   7     -11.942  12.903   5.877  1.00 27.07 LIG 0.20  C 
ATOM     25 O    ASP P   7     -11.394  11.825   5.721  1.00 28.96 LIG-0.65  OA
ATOM     26 OXT  ASP P   7     -12.543  13.595   4.935  1.00 29.63 LIG-0.65  OA
ENDBRANCH 23 24
BRANCH 23 27
ATOM     27  CB  ASP P   7     -10.759  14.321   7.518  1.00 25.41 LIG 0.15  C 
BRANCH 27 28
ATOM     28  CG  ASP P   7     -10.511  14.690   8.958  1.00 25.37 LIG 0.17  C 
ATOM     29 OD1  ASP P   7     -10.522  15.866   9.386  1.00 26.66 LIG-0.65  OA
ATOM     30 OD2  ASP P   7     -10.321  13.710   9.755  1.00 23.76 LIG-0.65  OA
ENDBRANCH 27 28
ENDBRANCH 23 27
ENDBRANCH 20 23
ENDBRANCH 18 19
BRANCH 18 31
ATOM     31  CB  ASN P   6     -13.929   9.572   9.035  1.00 24.75 LIG 0.14  C 
BRANCH 31 32
ATOM     32  CG  ASN P   6     -13.580   8.273   9.729  1.00 27.24 LIG 0.22  C 
ATOM     33  ND2 ASN P   6     -12.477   8.415  10.462  1.00 23.85 LIG-0.37  N 
ATOM     34 21HD ASN P   6     -12.149   7.739  10.880  1.00 23.85 LIG 0.16  HD
ATOM     35 22HD ASN P   6     -12.093   9.183  10.518  1.00 23.85 LIG 0.16  HD
ATOM     36 OD1  ASN P   6     -14.275   7.236   9.531  1.00 24.90 LIG-0.27  OA
ENDBRANCH 31 32
ENDBRANCH 18 31
ENDBRANCH 16 18
ENDBRANCH 6 14
ENDBRANCH 4 6
ENDBRANCH 1 2
BRANCH 1 37
ATOM     37  CB  HIS P   4     -16.901  16.069  12.387  1.00 21.80 LIG 0.10  C 
BRANCH 37 38
ATOM     38  CG  HIS P   4     -17.831  17.205  12.688  1.00 23.01 LIG 0.06  A 
ATOM     39  CD2 HIS P   4     -19.096  17.465  12.359  1.00 23.26 LIG 0.14  A 
ATOM     40 NE2  HIS P   4     -19.489  18.552  13.097  1.00 21.45 LIG-0.25  NA
ATOM     41  CE1 HIS P   4     -18.498  18.946  13.891  1.00 22.12 LIG 0.23  A 
ATOM     42 ND1  HIS P   4     -17.498  18.149  13.682  1.00 22.83 LIG-0.24  NA
ENDBRANCH 37 38
ENDBRANCH 1 37
BRANCH 1 43
ATOM     43  N   HIS P   4     -18.550  14.289  13.107  1.00 22.02 LIG-0.35  N 
ATOM     44  C   SER P   3     -19.596  13.547  12.744  1.00 24.42 LIG 0.24  C 
ATOM     45 O    SER P   3     -19.807  13.281  11.550  1.00 24.72 LIG-0.27  OA
ATOM     46 H    HIS P   4     -18.359  14.527  13.911  1.00 22.02 LIG 0.16  HD
BRANCH 44 47
ATOM     47  CA  SER P   3     -20.588  13.118  13.813  1.00 22.14 LIG 0.20  C 
BRANCH 47 48
ATOM     48  CB  SER P   3     -19.973  12.129  14.825  1.00 23.32 LIG 0.20  C 
BRANCH 48 49
ATOM     49 OG   SER P   3     -18.968  12.809  15.608  1.00 23.11 LIG-0.40  OA
ATOM     50 HG   SER P   3     -19.185  12.789  16.419  1.00 23.11 LIG 0.21  HD
ENDBRANCH 48 49
ENDBRANCH 47 48
BRANCH 47 51
ATOM     51  N   SER P   3     -21.807  12.510  13.278  1.00 22.53 LIG-0.34  N 
ATOM     52 H    SER P   3     -21.743  12.226  12.468  1.00 22.53 LIG 0.16  HD
ATOM     53  C   VAL P   2     -22.908  12.421  14.018  1.00 22.76 LIG 0.24  C 
ATOM     54 O    VAL P   2     -23.003  12.991  15.128  1.00 25.85 LIG-0.27  OA
BRANCH 53 55
ATOM     55  CA  VAL P   2     -24.111  11.737  13.363  1.00 24.07 LIG 0.18  C 
BRANCH 55 56
ATOM     56  N   VAL P   2     -23.693  10.564  12.593  1.00 24.29 LIG-0.35  N 
ATOM     57 H    VAL P   2     -23.907  10.570  11.760  1.00 24.29 LIG 0.16  HD
ATOM     58  C   VAL P   1     -23.018   9.573  13.218  1.00 26.39 LIG 0.25  C 
ATOM     59 O    VAL P   1     -22.734   9.651  14.449  1.00 26.90 LIG-0.27  OA
BRANCH 58 60
ATOM     60  CA  VAL P   1     -22.564   8.382  12.387  1.00 27.40 LIG 0.28  C 
BRANCH 60 61
ATOM     61  CB  VAL P   1     -21.732   8.843  11.147  1.00 27.20 LIG 0.02  C 
ATOM     62  CG2 VAL P   1     -21.383   7.608  10.310  1.00 28.02 LIG 0.01  C 
ATOM     63  CG1 VAL P   1     -20.501   9.486  11.748  1.00 27.17 LIG 0.01  C 
ENDBRANCH 60 61
BRANCH 60 64
ATOM     64  N   VAL P   1     -23.659   7.592  11.918  1.00 29.12 LIG-0.07  N 
ATOM     65 H2   VAL P   1     -24.419   8.040  12.033  1.00 29.12 LIG 0.28  HD
ATOM     66 H1   VAL P   1     -23.692   6.829  12.375  1.00 29.12 LIG 0.28  HD
ATOM     67 H3   VAL P   1     -23.548   7.415  11.052  1.00 29.12 LIG 0.28  HD
ENDBRANCH 60 64
ENDBRANCH 58 60
ENDBRANCH 55 56
BRANCH 55 68
ATOM     68  CB  VAL P   2     -25.146  11.428  14.484  1.00 25.03 LIG 0.01  C 
ATOM     69  CG2 VAL P   2     -26.154  10.380  13.972  1.00 23.99 LIG 0.01  C 
ATOM     70  CG1 VAL P   2     -25.899  12.661  14.948  1.00 25.56 LIG 0.01  C 
ENDBRANCH 55 68
ENDBRANCH 53 55
ENDBRANCH 47 51
ENDBRANCH 44 47
ENDBRANCH 1 43
TORSDOF 26
ENDMDL
MODEL 19
USER: ADFR SOLUTION from run 59
USER: SCORE 17.751529 LL:  -4.746 LR: -14.545 RR:   0.000 FEB:  -6.790
USER: RMSD 6.101284
USER: SEED 58
USER: STATUS no improvement in best in 6 clusters for 5 generations
USER: GENES 28
USER: genes 0 Translation |==|  0.52764 0.59238 0.62780
USER: genes 1 Rotation |==|  0.19906 0.56782 0.70572 0.83544
USER: genes 2 Torsion [N]-CA--C-[N] |==|  0.07803
USER: genes 3 Torsion [C]-N--CA-[CB] |==|  0.65670
USER: genes 4 Torsion [N]-CA--CB-[CG] |==|  0.18052
USER: genes 5 Torsion [CA]-CB--CG-[CD2] |==|  0.40492
USER: genes 6 Torsion [N]-CA--C-[N] |==|  0.23141
USER: genes 7 Torsion [C]-N--CA-[CB] |==|  0.86564
USER: genes 8 Torsion [N]-CA--C-[N] |==|  0.34188
USER: genes 9 Torsion [C]-N--CA-[C] |==|  0.66036
USER: genes 10 Torsion [N]-CA--C-[O] |==|  0.49833
USER: genes 11 Torsion [N]-CA--CB-[CG] |==|  0.90812
USER: genes 12 Torsion [CA]-CB--CG-[OD1] |==|  0.69551
USER: genes 13 Torsion [N]-CA--CB-[CG] |==|  0.77214
USER: genes 14 Torsion [CA]-CB--CG-[OD1] |==|  0.16498
USER: genes 15 Torsion [C]-CA--CB-[CG] |==|  0.48261
USER: genes 16 Torsion [CA]-CB--CG-[CD2] |==|  0.31788
USER: genes 17 Torsion [C]-CA--N-[C] |==|  0.17958
USER: genes 18 Torsion [N]-C--CA-[N] |==|  0.09400
USER: genes 19 Torsion [C]-CA--CB-[OG] |==|  0.71614
USER: genes 20 Torsion [CA]-CB--OG-[HG] |==|  0.41065
USER: genes 21 Torsion [C]-CA--N-[C] |==|  0.69563
USER: genes 22 Torsion [N]-C--CA-[N] |==|  0.87219
USER: genes 23 Torsion [C]-CA--N-[C] |==|  0.66632
USER: genes 24 Torsion [N]-C--CA-[N] |==|  0.55352
USER: genes 25 Torsion [C]-CA--CB-[CG2] |==|  0.81039
USER: genes 26 Torsion [C]-CA--N-[H2] |==|  0.49570
USER: genes 27 Torsion [C]-CA--CB-[CG2] |==|  0.65439
ROOT
ATOM      1  CA  HIS P   4     -17.050  14.084  12.160  1.00 23.76 LIG 0.18  C 
ENDROOT
BRANCH 1 2
ATOM      2  C   HIS P   4     -17.737  12.716  12.273  1.00 25.01 LIG 0.24  C 
ATOM      3 O    HIS P   4     -18.704  12.551  13.030  1.00 23.35 LIG-0.27  OA
ATOM      4  N   PHE P   5     -17.196  11.713  11.583  1.00 23.15 LIG-0.35  N 
ATOM      5 H    PHE P   5     -16.474  11.793  11.122  1.00 23.15 LIG 0.16  HD
BRANCH 4 6
ATOM      6  CA  PHE P   5     -17.772  10.383  11.543  1.00 24.23 LIG 0.18  C 
BRANCH 6 7
ATOM      7  CB  PHE P   5     -16.702   9.357  12.025  1.00 25.15 LIG 0.07  C 
BRANCH 7 8
ATOM      8  CG  PHE P   5     -16.348   9.579  13.460  1.00 25.22 LIG-0.06  A 
ATOM      9  CD2 PHE P   5     -16.043   8.455  14.221  1.00 26.21 LIG 0.01  A 
ATOM     10  CE2 PHE P   5     -15.785   8.570  15.557  1.00 26.58 LIG 0.00  A 
ATOM     11  CZ  PHE P   5     -15.774   9.822  16.147  1.00 27.68 LIG 0.00  A 
ATOM     12  CE1 PHE P   5     -16.057  10.943  15.406  1.00 26.50 LIG 0.00  A 
ATOM     13  CD1 PHE P   5     -16.343  10.818  14.053  1.00 25.73 LIG 0.01  A 
ENDBRANCH 7 8
ENDBRANCH 6 7
BRANCH 6 14
ATOM     14  C   PHE P   5     -19.067  10.246  12.313  1.00 25.59 LIG 0.24  C 
ATOM     15 O    PHE P   5     -19.083   9.879  13.505  1.00 25.82 LIG-0.27  OA
ATOM     16  N   ASN P   6     -20.163  10.618  11.679  1.00 24.53 LIG-0.35  N 
ATOM     17 H    ASN P   6     -20.181  10.903  10.868  1.00 24.53 LIG 0.16  HD
BRANCH 16 18
ATOM     18  CA  ASN P   6     -21.464  10.568  12.333  1.00 25.84 LIG 0.18  C 
BRANCH 18 19
ATOM     19  C   ASN P   6     -21.706  11.711  13.291  1.00 25.26 LIG 0.24  C 
ATOM     20  N   ASP P   7     -22.790  12.485  13.086  1.00 26.59 LIG-0.34  N 
ATOM     21 H    ASP P   7     -23.341  12.393  12.432  1.00 26.59 LIG 0.16  HD
ATOM     22 O    ASN P   6     -20.899  11.924  14.199  1.00 25.72 LIG-0.27  OA
BRANCH 20 23
ATOM     23  CA  ASP P   7     -23.097  13.563  13.999  1.00 25.93 LIG 0.20  C 
BRANCH 23 24
ATOM     24  C   ASP P   7     -24.504  13.366  14.584  1.00 27.07 LIG 0.20  C 
ATOM     25 O    ASP P   7     -24.864  14.216  15.380  1.00 28.96 LIG-0.65  OA
ATOM     26 OXT  ASP P   7     -25.242  12.371  14.145  1.00 29.63 LIG-0.65  OA
ENDBRANCH 23 24
BRANCH 23 27
ATOM     27  CB  ASP P   7     -23.070  14.970  13.370  1.00 25.41 LIG 0.15  C 
BRANCH 27 28
ATOM     28  CG  ASP P   7     -22.047  15.113  12.272  1.00 25.37 LIG 0.17  C 
ATOM     29 OD1  ASP P   7     -21.003  15.795  12.380  1.00 26.66 LIG-0.65  OA
ATOM     30 OD2  ASP P   7     -22.286  14.454  11.205  1.00 23.76 LIG-0.65  OA
ENDBRANCH 27 28
ENDBRANCH 23 27
ENDBRANCH 20 23
ENDBRANCH 18 19
BRANCH 18 31
ATOM     31  CB  ASN P   6     -21.662   9.211  13.013  1.00 24.75 LIG 0.14  C 
BRANCH 31 32
ATOM     32  CG  ASN P   6     -22.127   8.155  12.033  1.00 27.24 LIG 0.22  C 
ATOM     33  ND2 ASN P   6     -23.275   7.615  12.436  1.00 23.85 LIG-0.37  N 
ATOM     34 21HD ASN P   6     -23.630   6.974  11.985  1.00 23.85 LIG 0.16  HD
ATOM     35 22HD ASN P   6     -23.663   7.907  13.146  1.00 23.85 LIG 0.16  HD
ATOM     36 OD1  ASN P   6     -21.420   7.862  11.027  1.00 24.90 LIG-0.27  OA
ENDBRANCH 31 32
ENDBRANCH 18 31
ENDBRANCH 16 18
ENDBRANCH 6 14
ENDBRANCH 4 6
ENDBRANCH 1 2
BRANCH 1 37
ATOM     37  CB  HIS P   4     -18.110  15.164  12.367  1.00 21.80 LIG 0.10  C 
BRANCH 37 38
ATOM     38  CG  HIS P   4     -17.550  16.553  12.430  1.00 23.01 LIG 0.06  A 
ATOM     39  CD2 HIS P   4     -17.669  17.624  11.647  1.00 23.26 LIG 0.14  A 
ATOM     40 NE2  HIS P   4     -17.100  18.678  12.316  1.00 21.45 LIG-0.25  NA
ATOM     41  CE1 HIS P   4     -16.660  18.277  13.505  1.00 22.12 LIG 0.23  A 
ATOM     42 ND1  HIS P   4     -16.928  17.014  13.609  1.00 22.83 LIG-0.24  NA
ENDBRANCH 37 38
ENDBRANCH 1 37
BRANCH 1 43
ATOM     43  N   HIS P   4     -16.385  14.135  10.828  1.00 22.02 LIG-0.35  N 
ATOM     44  C   SER P   3     -17.151  14.101   9.738  1.00 24.42 LIG 0.24  C 
ATOM     45 O    SER P   3     -18.385  13.998   9.827  1.00 24.72 LIG-0.27  OA
ATOM     46 H    HIS P   4     -15.526  14.184  10.836  1.00 22.02 LIG 0.16  HD
BRANCH 44 47
ATOM     47  CA  SER P   3     -16.475  14.084   8.376  1.00 22.14 LIG 0.20  C 
BRANCH 47 48
ATOM     48  CB  SER P   3     -17.377  13.484   7.278  1.00 23.32 LIG 0.20  C 
BRANCH 48 49
ATOM     49 OG   SER P   3     -16.959  12.130   7.003  1.00 23.11 LIG-0.40  OA
ATOM     50 HG   SER P   3     -17.626  11.669   6.784  1.00 23.11 LIG 0.21  HD
ENDBRANCH 48 49
ENDBRANCH 47 48
BRANCH 47 51
ATOM     51  N   SER P   3     -15.205  13.356   8.357  1.00 22.53 LIG-0.34  N 
ATOM     52 H    SER P   3     -15.277  12.503   8.437  1.00 22.53 LIG 0.16  HD
ATOM     53  C   VAL P   2     -14.050  14.001   8.224  1.00 22.76 LIG 0.24  C 
ATOM     54 O    VAL P   2     -13.983  15.250   8.273  1.00 25.85 LIG-0.27  OA
BRANCH 53 55
ATOM     55  CA  VAL P   2     -12.790  13.133   8.184  1.00 24.07 LIG 0.18  C 
BRANCH 55 56
ATOM     56  N   VAL P   2     -12.815  12.122   9.242  1.00 24.29 LIG-0.35  N 
ATOM     57 H    VAL P   2     -13.474  11.570   9.215  1.00 24.29 LIG 0.16  HD
ATOM     58  C   VAL P   1     -11.831  12.115  10.170  1.00 26.39 LIG 0.25  C 
ATOM     59 O    VAL P   1     -10.888  12.960  10.129  1.00 26.90 LIG-0.27  OA
BRANCH 58 60
ATOM     60  CA  VAL P   1     -11.860  11.031  11.237  1.00 27.40 LIG 0.28  C 
BRANCH 60 61
ATOM     61  CB  VAL P   1     -13.320  10.756  11.721  1.00 27.20 LIG 0.02  C 
ATOM     62  CG2 VAL P   1     -13.816  11.986  12.490  1.00 28.02 LIG 0.01  C 
ATOM     63  CG1 VAL P   1     -13.190   9.544  12.617  1.00 27.17 LIG 0.01  C 
ENDBRANCH 60 61
BRANCH 60 64
ATOM     64  N   VAL P   1     -11.070  11.366  12.380  1.00 29.12 LIG-0.07  N 
ATOM     65 H2   VAL P   1     -11.134  10.717  12.986  1.00 29.12 LIG 0.28  HD
ATOM     66 H1   VAL P   1     -11.365  12.129  12.732  1.00 29.12 LIG 0.28  HD
ATOM     67 H3   VAL P   1     -10.220  11.460  12.135  1.00 29.12 LIG 0.28  HD
ENDBRANCH 60 64
ENDBRANCH 58 60
ENDBRANCH 55 56
BRANCH 55 68
ATOM     68  CB  VAL P   2     -12.664  12.548   6.747  1.00 25.03 LIG 0.01  C 
ATOM     69  CG2 VAL P   2     -12.581  11.011   6.827  1.00 23.99 LIG 0.01  C 
ATOM     70  CG1 VAL P   2     -11.454  13.077   5.999  1.00 25.56 LIG 0.01  C 
ENDBRANCH 55 68
ENDBRANCH 53 55
ENDBRANCH 47 51
ENDBRANCH 44 47
ENDBRANCH 1 43
TORSDOF 26
ENDMDL
MODEL 20
USER: ADFR SOLUTION from run 78
USER: SCORE 18.881880 LL:  -6.477 LR: -14.543 RR:   0.000 FEB:  -6.787
USER: RMSD 8.082952
USER: SEED 77
USER: STATUS no improvement in best in 5 clusters for 5 generations
USER: GENES 28
USER: genes 0 Translation |==|  0.49851 0.36974 0.70849
USER: genes 1 Rotation |==|  0.47328 0.78259 0.10538 0.61706
USER: genes 2 Torsion [N]-CA--C-[N] |==|  0.63398
USER: genes 3 Torsion [C]-N--CA-[CB] |==|  0.52451
USER: genes 4 Torsion [N]-CA--CB-[CG] |==|  0.15572
USER: genes 5 Torsion [CA]-CB--CG-[CD2] |==|  0.78621
USER: genes 6 Torsion [N]-CA--C-[N] |==|  0.25955
USER: genes 7 Torsion [C]-N--CA-[CB] |==|  0.20358
USER: genes 8 Torsion [N]-CA--C-[N] |==|  0.82118
USER: genes 9 Torsion [C]-N--CA-[C] |==|  0.72077
USER: genes 10 Torsion [N]-CA--C-[O] |==|  0.58993
USER: genes 11 Torsion [N]-CA--CB-[CG] |==|  0.95239
USER: genes 12 Torsion [CA]-CB--CG-[OD1] |==|  0.35872
USER: genes 13 Torsion [N]-CA--CB-[CG] |==|  0.71652
USER: genes 14 Torsion [CA]-CB--CG-[OD1] |==|  0.77940
USER: genes 15 Torsion [C]-CA--CB-[CG] |==|  0.22451
USER: genes 16 Torsion [CA]-CB--CG-[CD2] |==|  0.68278
USER: genes 17 Torsion [C]-CA--N-[C] |==|  0.16431
USER: genes 18 Torsion [N]-C--CA-[N] |==|  0.02756
USER: genes 19 Torsion [C]-CA--CB-[OG] |==|  0.44157
USER: genes 20 Torsion [CA]-CB--OG-[HG] |==|  0.56152
USER: genes 21 Torsion [C]-CA--N-[C] |==|  0.74903
USER: genes 22 Torsion [N]-C--CA-[N] |==|  0.92966
USER: genes 23 Torsion [C]-CA--N-[C] |==|  0.79449
USER: genes 24 Torsion [N]-C--CA-[N] |==|  0.42089
USER: genes 25 Torsion [C]-CA--CB-[CG2] |==|  0.16442
USER: genes 26 Torsion [C]-CA--N-[H2] |==|  0.65376
USER: genes 27 Torsion [C]-CA--CB-[CG2] |==|  0.30725
ROOT
ATOM      1  CA  HIS P   4     -17.683  10.243  13.915  1.00 23.76 LIG 0.18  C 
ENDROOT
BRANCH 1 2
ATOM      2  C   HIS P   4     -16.965  11.444  13.283  1.00 25.01 LIG 0.24  C 
ATOM      3 O    HIS P   4     -17.599  12.442  12.916  1.00 23.35 LIG-0.27  OA
ATOM      4  N   PHE P   5     -15.654  11.322  13.084  1.00 23.15 LIG-0.35  N 
ATOM      5 H    PHE P   5     -15.215  10.602  13.255  1.00 23.15 LIG 0.16  HD
BRANCH 4 6
ATOM      6  CA  PHE P   5     -14.834  12.396  12.557  1.00 24.23 LIG 0.18  C 
BRANCH 6 7
ATOM      7  CB  PHE P   5     -13.412  11.836  12.247  1.00 25.15 LIG 0.07  C 
BRANCH 7 8
ATOM      8  CG  PHE P   5     -13.482  10.671  11.313  1.00 25.22 LIG-0.06  A 
ATOM      9  CD2 PHE P   5     -13.879   9.450  11.848  1.00 26.21 LIG 0.01  A 
ATOM     10  CE2 PHE P   5     -13.893   8.324  11.075  1.00 26.58 LIG 0.00  A 
ATOM     11  CZ  PHE P   5     -13.560   8.410   9.735  1.00 27.68 LIG 0.00  A 
ATOM     12  CE1 PHE P   5     -13.181   9.612   9.187  1.00 26.50 LIG 0.00  A 
ATOM     13  CD1 PHE P   5     -13.145  10.749   9.984  1.00 25.73 LIG 0.01  A 
ENDBRANCH 7 8
ENDBRANCH 6 7
BRANCH 6 14
ATOM     14  C   PHE P   5     -15.433  13.102  11.361  1.00 25.59 LIG 0.24  C 
ATOM     15 O    PHE P   5     -15.323  12.640  10.207  1.00 25.82 LIG-0.27  OA
ATOM     16  N   ASN P   6     -16.146  14.182  11.618  1.00 24.53 LIG-0.35  N 
ATOM     17 H    ASN P   6     -16.264  14.508  12.406  1.00 24.53 LIG 0.16  HD
BRANCH 16 18
ATOM     18  CA  ASN P   6     -16.803  14.921  10.550  1.00 25.84 LIG 0.18  C 
BRANCH 18 19
ATOM     19  C   ASN P   6     -17.168  16.338  10.927  1.00 25.26 LIG 0.24  C 
ATOM     20  N   ASP P   7     -18.078  16.514  11.907  1.00 26.59 LIG-0.34  N 
ATOM     21 H    ASP P   7     -18.487  15.877  12.315  1.00 26.59 LIG 0.16  HD
ATOM     22 O    ASN P   6     -16.661  17.280  10.314  1.00 25.72 LIG-0.27  OA
BRANCH 20 23
ATOM     23  CA  ASP P   7     -18.429  17.847  12.341  1.00 25.93 LIG 0.20  C 
BRANCH 23 24
ATOM     24  C   ASP P   7     -17.688  18.184  13.644  1.00 27.07 LIG 0.20  C 
ATOM     25 O    ASP P   7     -18.285  18.916  14.413  1.00 28.96 LIG-0.65  OA
ATOM     26 OXT  ASP P   7     -16.526  17.616  13.880  1.00 29.63 LIG-0.65  OA
ENDBRANCH 23 24
BRANCH 23 27
ATOM     27  CB  ASP P   7     -19.931  18.062  12.616  1.00 25.41 LIG 0.15  C 
BRANCH 27 28
ATOM     28  CG  ASP P   7     -20.807  16.999  12.006  1.00 25.37 LIG 0.17  C 
ATOM     29 OD1  ASP P   7     -21.682  16.370  12.641  1.00 26.66 LIG-0.65  OA
ATOM     30 OD2  ASP P   7     -20.633  16.789  10.757  1.00 23.76 LIG-0.65  OA
ENDBRANCH 27 28
ENDBRANCH 23 27
ENDBRANCH 20 23
ENDBRANCH 18 19
BRANCH 18 31
ATOM     31  CB  ASN P   6     -18.017  14.144  10.037  1.00 24.75 LIG 0.14  C 
BRANCH 31 32
ATOM     32  CG  ASN P   6     -17.722  13.441   8.730  1.00 27.24 LIG 0.22  C 
ATOM     33  ND2 ASN P   6     -17.417  12.163   8.943  1.00 23.85 LIG-0.37  N 
ATOM     34 21HD ASN P   6     -17.192  11.658   8.283  1.00 23.85 LIG 0.16  HD
ATOM     35 22HD ASN P   6     -17.445  11.841   9.740  1.00 23.85 LIG 0.16  HD
ATOM     36 OD1  ASN P   6     -17.738  14.084   7.641  1.00 24.90 LIG-0.27  OA
ENDBRANCH 31 32
ENDBRANCH 18 31
ENDBRANCH 16 18
ENDBRANCH 6 14
ENDBRANCH 4 6
ENDBRANCH 1 2
BRANCH 1 37
ATOM     37  CB  HIS P   4     -16.696   9.078  13.972  1.00 21.80 LIG 0.10  C 
BRANCH 37 38
ATOM     38  CG  HIS P   4     -15.749   9.149  15.131  1.00 23.01 LIG 0.06  A 
ATOM     39  CD2 HIS P   4     -14.430   9.313  15.227  1.00 23.26 LIG 0.14  A 
ATOM     40 NE2  HIS P   4     -14.143   9.510  16.554  1.00 21.45 LIG-0.25  NA
ATOM     41  CE1 HIS P   4     -15.265   9.495  17.268  1.00 22.12 LIG 0.23  A 
ATOM     42 ND1  HIS P   4     -16.244   9.298  16.443  1.00 22.83 LIG-0.24  NA
ENDBRANCH 37 38
ENDBRANCH 1 37
BRANCH 1 43
ATOM     43  N   HIS P   4     -18.895   9.971  13.092  1.00 22.02 LIG-0.35  N 
ATOM     44  C   SER P   3     -18.731   9.689  11.800  1.00 24.42 LIG 0.24  C 
ATOM     45 O    SER P   3     -17.601   9.683  11.285  1.00 24.72 LIG-0.27  OA
ATOM     46 H    HIS P   4     -19.649  10.012  13.505  1.00 22.02 LIG 0.16  HD
BRANCH 44 47
ATOM     47  CA  SER P   3     -19.967   9.478  10.941  1.00 22.14 LIG 0.20  C 
BRANCH 47 48
ATOM     48  CB  SER P   3     -19.901  10.257   9.611  1.00 23.32 LIG 0.20  C 
BRANCH 48 49
ATOM     49 OG   SER P   3     -20.808   9.658   8.660  1.00 23.11 LIG-0.40  OA
ATOM     50 HG   SER P   3     -20.571   9.860   7.881  1.00 23.11 LIG 0.21  HD
ENDBRANCH 48 49
ENDBRANCH 47 48
BRANCH 47 51
ATOM     51  N   SER P   3     -21.219   9.840  11.608  1.00 22.53 LIG-0.34  N 
ATOM     52 H    SER P   3     -21.460  10.659  11.504  1.00 22.53 LIG 0.16  HD
ATOM     53  C   VAL P   2     -21.902   8.943  12.312  1.00 22.76 LIG 0.24  C 
ATOM     54 O    VAL P   2     -21.433   7.811  12.570  1.00 25.85 LIG-0.27  OA
BRANCH 53 55
ATOM     55  CA  VAL P   2     -23.213   9.428  12.938  1.00 24.07 LIG 0.18  C 
BRANCH 55 56
ATOM     56  N   VAL P   2     -23.188  10.875  13.155  1.00 24.29 LIG-0.35  N 
ATOM     57 H    VAL P   2     -23.664  11.341  12.611  1.00 24.29 LIG 0.16  HD
ATOM     58  C   VAL P   1     -22.441  11.377  14.164  1.00 26.39 LIG 0.25  C 
ATOM     59 O    VAL P   1     -21.776  10.615  14.927  1.00 26.90 LIG-0.27  OA
BRANCH 58 60
ATOM     60  CA  VAL P   1     -22.461  12.882  14.391  1.00 27.40 LIG 0.28  C 
BRANCH 60 61
ATOM     61  CB  VAL P   1     -21.389  13.598  13.509  1.00 27.20 LIG 0.02  C 
ATOM     62  CG2 VAL P   1     -21.686  13.290  12.037  1.00 28.02 LIG 0.01  C 
ATOM     63  CG1 VAL P   1     -20.077  12.994  13.960  1.00 27.17 LIG 0.01  C 
ENDBRANCH 60 61
BRANCH 60 64
ATOM     64  N   VAL P   1     -22.221  13.233  15.755  1.00 29.12 LIG-0.07  N 
ATOM     65 H2   VAL P   1     -22.889  13.740  16.053  1.00 29.12 LIG 0.28  HD
ATOM     66 H1   VAL P   1     -21.456  13.686  15.815  1.00 29.12 LIG 0.28  HD
ATOM     67 H3   VAL P   1     -22.168  12.493  16.247  1.00 29.12 LIG 0.28  HD
ENDBRANCH 60 64
ENDBRANCH 58 60
ENDBRANCH 55 56
BRANCH 55 68
ATOM     68  CB  VAL P   2     -24.379   8.940  12.029  1.00 25.03 LIG 0.01  C 
ATOM     69  CG2 VAL P   2     -25.180   7.850  12.769  1.00 23.99 LIG 0.01  C 
ATOM     70  CG1 VAL P   2     -23.900   8.393  10.697  1.00 25.56 LIG 0.01  C 
ENDBRANCH 55 68
ENDBRANCH 53 55
ENDBRANCH 47 51
ENDBRANCH 44 47
ENDBRANCH 1 43
TORSDOF 26
ENDMDL
MODEL 21
USER: ADFR SOLUTION from run 174
USER: SCORE 17.048523 LL:  -4.994 LR: -14.506 RR:   0.000 FEB:  -6.750
USER: RMSD 10.009612
USER: SEED 173
USER: STATUS no improvement in best in 15 clusters for 5 generations
USER: GENES 28
USER: genes 0 Translation |==|  0.52194 0.35420 0.63133
USER: genes 1 Rotation |==|  0.49458 0.70655 0.05721 0.60604
USER: genes 2 Torsion [N]-CA--C-[N] |==|  0.80562
USER: genes 3 Torsion [C]-N--CA-[CB] |==|  0.19444
USER: genes 4 Torsion [N]-CA--CB-[CG] |==|  0.56442
USER: genes 5 Torsion [CA]-CB--CG-[CD2] |==|  0.05240
USER: genes 6 Torsion [N]-CA--C-[N] |==|  0.39516
USER: genes 7 Torsion [C]-N--CA-[CB] |==|  0.26071
USER: genes 8 Torsion [N]-CA--C-[N] |==|  0.97883
USER: genes 9 Torsion [C]-N--CA-[C] |==|  0.72231
USER: genes 10 Torsion [N]-CA--C-[O] |==|  0.24478
USER: genes 11 Torsion [N]-CA--CB-[CG] |==|  0.76554
USER: genes 12 Torsion [CA]-CB--CG-[OD1] |==|  0.23593
USER: genes 13 Torsion [N]-CA--CB-[CG] |==|  0.07686
USER: genes 14 Torsion [CA]-CB--CG-[OD1] |==|  0.13011
USER: genes 15 Torsion [C]-CA--CB-[CG] |==|  0.23101
USER: genes 16 Torsion [CA]-CB--CG-[CD2] |==|  0.24634
USER: genes 17 Torsion [C]-CA--N-[C] |==|  0.67730
USER: genes 18 Torsion [N]-C--CA-[N] |==|  0.43311
USER: genes 19 Torsion [C]-CA--CB-[OG] |==|  0.10955
USER: genes 20 Torsion [CA]-CB--OG-[HG] |==|  0.33499
USER: genes 21 Torsion [C]-CA--N-[C] |==|  0.77934
USER: genes 22 Torsion [N]-C--CA-[N] |==|  0.87033
USER: genes 23 Torsion [C]-CA--N-[C] |==|  0.82932
USER: genes 24 Torsion [N]-C--CA-[N] |==|  0.48185
USER: genes 25 Torsion [C]-CA--CB-[CG2] |==|  0.77890
USER: genes 26 Torsion [C]-CA--N-[H2] |==|  0.02268
USER: genes 27 Torsion [C]-CA--CB-[CG2] |==|  0.37937
ROOT
ATOM      1  CA  HIS P   4     -17.174   9.975  12.237  1.00 23.76 LIG 0.18  C 
ENDROOT
BRANCH 1 2
ATOM      2  C   HIS P   4     -16.244  10.828  11.363  1.00 25.01 LIG 0.24  C 
ATOM      3 O    HIS P   4     -16.188  12.057  11.506  1.00 23.35 LIG-0.27  OA
ATOM      4  N   PHE P   5     -15.571  10.193  10.405  1.00 23.15 LIG-0.35  N 
ATOM      5 H    PHE P   5     -15.665   9.354  10.238  1.00 23.15 LIG 0.16  HD
BRANCH 4 6
ATOM      6  CA  PHE P   5     -14.609  10.857   9.546  1.00 24.23 LIG 0.18  C 
BRANCH 6 7
ATOM      7  CB  PHE P   5     -13.353  11.229  10.392  1.00 25.15 LIG 0.07  C 
BRANCH 7 8
ATOM      8  CG  PHE P   5     -12.598  12.359   9.769  1.00 25.22 LIG-0.06  A 
ATOM      9  CD2 PHE P   5     -13.276  13.144   8.843  1.00 26.21 LIG 0.01  A 
ATOM     10  CE2 PHE P   5     -12.631  14.145   8.176  1.00 26.58 LIG 0.00  A 
ATOM     11  CZ  PHE P   5     -11.304  14.415   8.463  1.00 27.68 LIG 0.00  A 
ATOM     12  CE1 PHE P   5     -10.624  13.659   9.386  1.00 26.50 LIG 0.00  A 
ATOM     13  CD1 PHE P   5     -11.279  12.626  10.044  1.00 25.73 LIG 0.01  A 
ENDBRANCH 7 8
ENDBRANCH 6 7
BRANCH 6 14
ATOM     14  C   PHE P   5     -14.239  10.071   8.308  1.00 25.59 LIG 0.24  C 
ATOM     15 O    PHE P   5     -14.185   8.824   8.317  1.00 25.82 LIG-0.27  OA
ATOM     16  N   ASN P   6     -14.061  10.772   7.204  1.00 24.53 LIG-0.35  N 
ATOM     17 H    ASN P   6     -14.120  11.629   7.160  1.00 24.53 LIG 0.16  HD
BRANCH 16 18
ATOM     18  CA  ASN P   6     -13.740  10.120   5.942  1.00 25.84 LIG 0.18  C 
BRANCH 18 19
ATOM     19  C   ASN P   6     -12.712  10.861   5.119  1.00 25.26 LIG 0.24  C 
ATOM     20  N   ASP P   7     -12.330  12.083   5.541  1.00 26.59 LIG-0.34  N 
ATOM     21 H    ASP P   7     -12.650  12.485   6.231  1.00 26.59 LIG 0.16  HD
ATOM     22 O    ASN P   6     -12.284  10.352   4.081  1.00 25.72 LIG-0.27  OA
BRANCH 20 23
ATOM     23  CA  ASP P   7     -11.316  12.817   4.819  1.00 25.93 LIG 0.20  C 
BRANCH 23 24
ATOM     24  C   ASP P   7      -9.963  12.675   5.533  1.00 27.07 LIG 0.20  C 
ATOM     25 O    ASP P   7      -9.295  11.710   5.204  1.00 28.96 LIG-0.65  OA
ATOM     26 OXT  ASP P   7      -9.583  13.616   6.370  1.00 29.63 LIG-0.65  OA
ENDBRANCH 23 24
BRANCH 23 27
ATOM     27  CB  ASP P   7     -11.587  14.327   4.677  1.00 25.41 LIG 0.15  C 
BRANCH 27 28
ATOM     28  CG  ASP P   7     -12.480  14.666   3.511  1.00 25.37 LIG 0.17  C 
ATOM     29 OD1  ASP P   7     -13.730  14.640   3.562  1.00 26.66 LIG-0.65  OA
ATOM     30 OD2  ASP P   7     -11.880  15.028   2.443  1.00 23.76 LIG-0.65  OA
ENDBRANCH 27 28
ENDBRANCH 23 27
ENDBRANCH 20 23
ENDBRANCH 18 19
BRANCH 18 31
ATOM     31  CB  ASN P   6     -15.018   9.857   5.143  1.00 24.75 LIG 0.14  C 
BRANCH 31 32
ATOM     32  CG  ASN P   6     -16.103  10.859   5.473  1.00 27.24 LIG 0.22  C 
ATOM     33  ND2 ASN P   6     -17.275  10.247   5.630  1.00 23.85 LIG-0.37  N 
ATOM     34 21HD ASN P   6     -17.984  10.709   5.786  1.00 23.85 LIG 0.16  HD
ATOM     35 22HD ASN P   6     -17.323   9.390   5.577  1.00 23.85 LIG 0.16  HD
ATOM     36 OD1  ASN P   6     -15.839  12.095   5.518  1.00 24.90 LIG-0.27  OA
ENDBRANCH 31 32
ENDBRANCH 18 31
ENDBRANCH 16 18
ENDBRANCH 6 14
ENDBRANCH 4 6
ENDBRANCH 1 2
BRANCH 1 37
ATOM     37  CB  HIS P   4     -16.358   8.812  12.800  1.00 21.80 LIG 0.10  C 
BRANCH 37 38
ATOM     38  CG  HIS P   4     -15.577   9.165  14.029  1.00 23.01 LIG 0.06  A 
ATOM     39  CD2 HIS P   4     -15.859   9.142  15.331  1.00 23.26 LIG 0.14  A 
ATOM     40 NE2  HIS P   4     -14.686   9.374  16.003  1.00 21.45 LIG-0.25  NA
ATOM     41  CE1 HIS P   4     -13.686   9.512  15.136  1.00 22.12 LIG 0.23  A 
ATOM     42 ND1  HIS P   4     -14.185   9.376  13.949  1.00 22.83 LIG-0.24  NA
ENDBRANCH 37 38
ENDBRANCH 1 37
BRANCH 1 43
ATOM     43  N   HIS P   4     -18.319   9.554  11.383  1.00 22.02 LIG-0.35  N 
ATOM     44  C   SER P   3     -19.539   9.986  11.704  1.00 24.42 LIG 0.24  C 
ATOM     45 O    SER P   3     -19.722  10.694  12.707  1.00 24.72 LIG-0.27  OA
ATOM     46 H    HIS P   4     -18.126   9.045  10.716  1.00 22.02 LIG 0.16  HD
BRANCH 44 47
ATOM     47  CA  SER P   3     -20.720   9.504  10.877  1.00 22.14 LIG 0.20  C 
BRANCH 47 48
ATOM     48  CB  SER P   3     -20.883  10.297   9.564  1.00 23.32 LIG 0.20  C 
BRANCH 48 49
ATOM     49 OG   SER P   3     -19.579  10.562   9.001  1.00 23.11 LIG-0.40  OA
ATOM     50 HG   SER P   3     -19.531  10.222   8.234  1.00 23.11 LIG 0.21  HD
ENDBRANCH 48 49
ENDBRANCH 47 48
BRANCH 47 51
ATOM     51  N   SER P   3     -21.998   9.552  11.589  1.00 22.53 LIG-0.34  N 
ATOM     52 H    SER P   3     -22.494  10.228  11.395  1.00 22.53 LIG 0.16  HD
ATOM     53  C   VAL P   2     -22.330   8.605  12.461  1.00 22.76 LIG 0.24  C 
ATOM     54 O    VAL P   2     -21.513   7.732  12.830  1.00 25.85 LIG-0.27  OA
BRANCH 53 55
ATOM     55  CA  VAL P   2     -23.705   8.743  13.120  1.00 24.07 LIG 0.18  C 
BRANCH 55 56
ATOM     56  N   VAL P   2     -23.926  10.111  13.594  1.00 24.29 LIG-0.35  N 
ATOM     57 H    VAL P   2     -24.589  10.526  13.238  1.00 24.29 LIG 0.16  HD
ATOM     58  C   VAL P   1     -23.100  10.622  14.535  1.00 26.39 LIG 0.25  C 
ATOM     59 O    VAL P   1     -22.151   9.935  15.016  1.00 26.90 LIG-0.27  OA
BRANCH 58 60
ATOM     60  CA  VAL P   1     -23.373  12.033  15.037  1.00 27.40 LIG 0.28  C 
BRANCH 60 61
ATOM     61  CB  VAL P   1     -23.177  13.084  13.898  1.00 27.20 LIG 0.02  C 
ATOM     62  CG2 VAL P   1     -21.677  13.355  13.740  1.00 28.02 LIG 0.01  C 
ATOM     63  CG1 VAL P   1     -23.924  14.304  14.390  1.00 27.17 LIG 0.01  C 
ENDBRANCH 60 61
BRANCH 60 64
ATOM     64  N   VAL P   1     -22.526  12.399  16.129  1.00 29.12 LIG-0.07  N 
ATOM     65 H2   VAL P   1     -21.904  11.773  16.246  1.00 29.12 LIG 0.28  HD
ATOM     66 H1   VAL P   1     -23.014  12.474  16.870  1.00 29.12 LIG 0.28  HD
ATOM     67 H3   VAL P   1     -22.133  13.177  15.951  1.00 29.12 LIG 0.28  HD
ENDBRANCH 60 64
ENDBRANCH 58 60
ENDBRANCH 55 56
BRANCH 55 68
ATOM     68  CB  VAL P   2     -24.771   8.243  12.100  1.00 25.03 LIG 0.01  C 
ATOM     69  CG2 VAL P   2     -25.802   7.362  12.832  1.00 23.99 LIG 0.01  C 
ATOM     70  CG1 VAL P   2     -24.164   7.458  10.952  1.00 25.56 LIG 0.01  C 
ENDBRANCH 55 68
ENDBRANCH 53 55
ENDBRANCH 47 51
ENDBRANCH 44 47
ENDBRANCH 1 43
TORSDOF 26
ENDMDL
MODEL 22
USER: ADFR SOLUTION from run 78
USER: SCORE 17.997609 LL:  -5.274 LR: -14.514 RR:   0.000 FEB:  -6.758
USER: RMSD 8.651862
USER: SEED 77
USER: STATUS no improvement in best in 5 clusters for 5 generations
USER: GENES 28
USER: genes 0 Translation |==|  0.49384 0.37552 0.71680
USER: genes 1 Rotation |==|  0.51335 0.78214 0.10261 0.61088
USER: genes 2 Torsion [N]-CA--C-[N] |==|  0.02599
USER: genes 3 Torsion [C]-N--CA-[CB] |==|  0.79427
USER: genes 4 Torsion [N]-CA--CB-[CG] |==|  0.71263
USER: genes 5 Torsion [CA]-CB--CG-[CD2] |==|  0.05858
USER: genes 6 Torsion [N]-CA--C-[N] |==|  0.29246
USER: genes 7 Torsion [C]-N--CA-[CB] |==|  0.27952
USER: genes 8 Torsion [N]-CA--C-[N] |==|  0.41509
USER: genes 9 Torsion [C]-N--CA-[C] |==|  0.69263
USER: genes 10 Torsion [N]-CA--C-[O] |==|  0.63794
USER: genes 11 Torsion [N]-CA--CB-[CG] |==|  0.98887
USER: genes 12 Torsion [CA]-CB--CG-[OD1] |==|  0.16336
USER: genes 13 Torsion [N]-CA--CB-[CG] |==|  0.70024
USER: genes 14 Torsion [CA]-CB--CG-[OD1] |==|  0.99459
USER: genes 15 Torsion [C]-CA--CB-[CG] |==|  0.16754
USER: genes 16 Torsion [CA]-CB--CG-[CD2] |==|  0.68604
USER: genes 17 Torsion [C]-CA--N-[C] |==|  0.18784
USER: genes 18 Torsion [N]-C--CA-[N] |==|  0.98341
USER: genes 19 Torsion [C]-CA--CB-[OG] |==|  0.45788
USER: genes 20 Torsion [CA]-CB--OG-[HG] |==|  0.67921
USER: genes 21 Torsion [C]-CA--N-[C] |==|  0.75037
USER: genes 22 Torsion [N]-C--CA-[N] |==|  0.92963
USER: genes 23 Torsion [C]-CA--N-[C] |==|  0.81527
USER: genes 24 Torsion [N]-C--CA-[N] |==|  0.42864
USER: genes 25 Torsion [C]-CA--CB-[CG2] |==|  0.16466
USER: genes 26 Torsion [C]-CA--N-[H2] |==|  0.65367
USER: genes 27 Torsion [C]-CA--CB-[CG2] |==|  0.31464
ROOT
ATOM      1  CA  HIS P   4     -17.785  10.343  14.095  1.00 23.76 LIG 0.18  C 
ENDROOT
BRANCH 1 2
ATOM      2  C   HIS P   4     -16.871  11.468  13.590  1.00 25.01 LIG 0.24  C 
ATOM      3 O    HIS P   4     -15.792  11.708  14.149  1.00 23.35 LIG-0.27  OA
ATOM      4  N   PHE P   5     -17.331  12.208  12.584  1.00 23.15 LIG-0.35  N 
ATOM      5 H    PHE P   5     -18.114  12.107  12.243  1.00 23.15 LIG 0.16  HD
BRANCH 4 6
ATOM      6  CA  PHE P   5     -16.553  13.262  11.962  1.00 24.23 LIG 0.18  C 
BRANCH 6 7
ATOM      7  CB  PHE P   5     -16.501  14.485  12.928  1.00 25.15 LIG 0.07  C 
BRANCH 7 8
ATOM      8  CG  PHE P   5     -17.429  15.567  12.480  1.00 25.22 LIG-0.06  A 
ATOM      9  CD2 PHE P   5     -18.469  15.203  11.631  1.00 26.21 LIG 0.01  A 
ATOM     10  CE2 PHE P   5     -19.312  16.147  11.119  1.00 26.58 LIG 0.00  A 
ATOM     11  CZ  PHE P   5     -19.161  17.472  11.489  1.00 27.68 LIG 0.00  A 
ATOM     12  CE1 PHE P   5     -18.149  17.847  12.338  1.00 26.50 LIG 0.00  A 
ATOM     13  CD1 PHE P   5     -17.280  16.885  12.837  1.00 25.73 LIG 0.01  A 
ENDBRANCH 7 8
ENDBRANCH 6 7
BRANCH 6 14
ATOM     14  C   PHE P   5     -15.170  12.835  11.524  1.00 25.59 LIG 0.24  C 
ATOM     15 O    PHE P   5     -14.270  12.583  12.351  1.00 25.82 LIG-0.27  OA
ATOM     16  N   ASN P   6     -14.997  12.662  10.227  1.00 24.53 LIG-0.35  N 
ATOM     17 H    ASN P   6     -15.606  12.799   9.635  1.00 24.53 LIG 0.16  HD
BRANCH 16 18
ATOM     18  CA  ASN P   6     -13.719  12.213   9.692  1.00 25.84 LIG 0.18  C 
BRANCH 18 19
ATOM     19  C   ASN P   6     -13.242  13.017   8.504  1.00 25.26 LIG 0.24  C 
ATOM     20  N   ASP P   7     -11.912  13.146   8.325  1.00 26.59 LIG-0.34  N 
ATOM     21 H    ASP P   7     -11.313  12.827   8.853  1.00 26.59 LIG 0.16  HD
ATOM     22 O    ASN P   6     -14.068  13.555   7.763  1.00 25.72 LIG-0.27  OA
BRANCH 20 23
ATOM     23  CA  ASP P   7     -11.400  13.864   7.179  1.00 25.93 LIG 0.20  C 
BRANCH 23 24
ATOM     24  C   ASP P   7     -10.723  12.882   6.210  1.00 27.07 LIG 0.20  C 
ATOM     25 O    ASP P   7      -9.607  13.200   5.838  1.00 28.96 LIG-0.65  OA
ATOM     26 OXT  ASP P   7     -11.334  11.757   5.913  1.00 29.63 LIG-0.65  OA
ENDBRANCH 23 24
BRANCH 23 27
ATOM     27  CB  ASP P   7     -10.359  14.951   7.510  1.00 25.41 LIG 0.15  C 
BRANCH 27 28
ATOM     28  CG  ASP P   7     -10.135  15.132   8.989  1.00 25.37 LIG 0.17  C 
ATOM     29 OD1  ASP P   7      -9.748  14.217   9.751  1.00 26.66 LIG-0.65  OA
ATOM     30 OD2  ASP P   7     -10.331  16.312   9.437  1.00 23.76 LIG-0.65  OA
ENDBRANCH 27 28
ENDBRANCH 23 27
ENDBRANCH 20 23
ENDBRANCH 18 19
BRANCH 18 31
ATOM     31  CB  ASN P   6     -13.774  10.718   9.375  1.00 24.75 LIG 0.14  C 
BRANCH 31 32
ATOM     32  CG  ASN P   6     -12.963   9.905  10.361  1.00 27.24 LIG 0.22  C 
ATOM     33  ND2 ASN P   6     -13.104   8.602  10.123  1.00 23.85 LIG-0.37  N 
ATOM     34 21HD ASN P   6     -12.722   8.028  10.637  1.00 23.85 LIG 0.16  HD
ATOM     35 22HD ASN P   6     -13.576   8.335   9.455  1.00 23.85 LIG 0.16  HD
ATOM     36 OD1  ASN P   6     -12.315  10.479  11.283  1.00 24.90 LIG-0.27  OA
ENDBRANCH 31 32
ENDBRANCH 18 31
ENDBRANCH 16 18
ENDBRANCH 6 14
ENDBRANCH 4 6
ENDBRANCH 1 2
BRANCH 1 37
ATOM     37  CB  HIS P   4     -16.946   9.072  14.222  1.00 21.80 LIG 0.10  C 
BRANCH 37 38
ATOM     38  CG  HIS P   4     -15.801   9.200  15.180  1.00 23.01 LIG 0.06  A 
ATOM     39  CD2 HIS P   4     -14.477   9.202  15.031  1.00 23.26 LIG 0.14  A 
ATOM     40 NE2  HIS P   4     -13.935   9.567  16.237  1.00 21.45 LIG-0.25  NA
ATOM     41  CE1 HIS P   4     -14.903   9.815  17.114  1.00 22.12 LIG 0.23  A 
ATOM     42 ND1  HIS P   4     -16.031   9.621  16.507  1.00 22.83 LIG-0.24  NA
ENDBRANCH 37 38
ENDBRANCH 1 37
BRANCH 1 43
ATOM     43  N   HIS P   4     -18.917  10.228  13.134  1.00 22.02 LIG-0.35  N 
ATOM     44  C   SER P   3     -18.658   9.791  11.902  1.00 24.42 LIG 0.24  C 
ATOM     45 O    SER P   3     -17.499   9.516  11.552  1.00 24.72 LIG-0.27  OA
ATOM     46 H    HIS P   4     -19.691  10.456  13.433  1.00 22.02 LIG 0.16  HD
BRANCH 44 47
ATOM     47  CA  SER P   3     -19.796   9.738  10.897  1.00 22.14 LIG 0.20  C 
BRANCH 47 48
ATOM     48  CB  SER P   3     -19.565  10.676   9.694  1.00 23.32 LIG 0.20  C 
BRANCH 48 49
ATOM     49 OG   SER P   3     -20.476  10.323   8.630  1.00 23.11 LIG-0.40  OA
ATOM     50 HG   SER P   3     -20.039  10.047   7.968  1.00 23.11 LIG 0.21  HD
ENDBRANCH 48 49
ENDBRANCH 47 48
BRANCH 47 51
ATOM     51  N   SER P   3     -21.105  10.059  11.469  1.00 22.53 LIG-0.34  N 
ATOM     52 H    SER P   3     -21.316  10.892  11.441  1.00 22.53 LIG 0.16  HD
ATOM     53  C   VAL P   2     -21.879   9.107  11.982  1.00 22.76 LIG 0.24  C 
ATOM     54 O    VAL P   2     -21.463   7.938  12.146  1.00 25.85 LIG-0.27  OA
BRANCH 53 55
ATOM     55  CA  VAL P   2     -23.239   9.557  12.521  1.00 24.07 LIG 0.18  C 
BRANCH 55 56
ATOM     56  N   VAL P   2     -23.207  10.967  12.916  1.00 24.29 LIG-0.35  N 
ATOM     57 H    VAL P   2     -23.694  11.496  12.445  1.00 24.29 LIG 0.16  HD
ATOM     58  C   VAL P   1     -22.439  11.340  13.965  1.00 26.39 LIG 0.25  C 
ATOM     59 O    VAL P   1     -21.759  10.490  14.612  1.00 26.90 LIG-0.27  OA
BRANCH 58 60
ATOM     60  CA  VAL P   1     -22.452  12.805  14.377  1.00 27.40 LIG 0.28  C 
BRANCH 60 61
ATOM     61  CB  VAL P   1     -21.448  13.640  13.521  1.00 27.20 LIG 0.02  C 
ATOM     62  CG2 VAL P   1     -21.845  13.513  12.046  1.00 28.02 LIG 0.01  C 
ATOM     63  CG1 VAL P   1     -20.105  13.002  13.802  1.00 27.17 LIG 0.01  C 
ENDBRANCH 60 61
BRANCH 60 64
ATOM     64  N   VAL P   1     -22.121  12.988  15.755  1.00 29.12 LIG-0.07  N 
ATOM     65 H2   VAL P   1     -22.770  13.445  16.158  1.00 29.12 LIG 0.28  HD
ATOM     66 H1   VAL P   1     -21.357  13.441  15.819  1.00 29.12 LIG 0.28  HD
ATOM     67 H3   VAL P   1     -22.031  12.194  16.147  1.00 29.12 LIG 0.28  HD
ENDBRANCH 60 64
ENDBRANCH 58 60
ENDBRANCH 55 56
BRANCH 55 68
ATOM     68  CB  VAL P   2     -24.310   9.222  11.442  1.00 25.03 LIG 0.01  C 
ATOM     69  CG2 VAL P   2     -25.250   8.125  11.981  1.00 23.99 LIG 0.01  C 
ATOM     70  CG1 VAL P   2     -23.701   8.761  10.131  1.00 25.56 LIG 0.01  C 
ENDBRANCH 55 68
ENDBRANCH 53 55
ENDBRANCH 47 51
ENDBRANCH 44 47
ENDBRANCH 1 43
TORSDOF 26
ENDMDL
MODEL 23
USER: ADFR SOLUTION from run 89
USER: SCORE 19.142246 LL:  -5.222 LR: -14.502 RR:   0.000 FEB:  -6.747
USER: RMSD 8.912437
USER: SEED 88
USER: STATUS no improvement in best in 14 clusters for 5 generations
USER: GENES 28
USER: genes 0 Translation |==|  0.50615 0.50180 0.71469
USER: genes 1 Rotation |==|  0.43620 0.45946 0.99138 0.55324
USER: genes 2 Torsion [N]-CA--C-[N] |==|  0.39104
USER: genes 3 Torsion [C]-N--CA-[CB] |==|  0.80433
USER: genes 4 Torsion [N]-CA--CB-[CG] |==|  0.32426
USER: genes 5 Torsion [CA]-CB--CG-[CD2] |==|  0.72755
USER: genes 6 Torsion [N]-CA--C-[N] |==|  0.40038
USER: genes 7 Torsion [C]-N--CA-[CB] |==|  0.54658
USER: genes 8 Torsion [N]-CA--C-[N] |==|  0.39668
USER: genes 9 Torsion [C]-N--CA-[C] |==|  0.72987
USER: genes 10 Torsion [N]-CA--C-[O] |==|  0.05514
USER: genes 11 Torsion [N]-CA--CB-[CG] |==|  0.90198
USER: genes 12 Torsion [CA]-CB--CG-[OD1] |==|  0.72263
USER: genes 13 Torsion [N]-CA--CB-[CG] |==|  0.87871
USER: genes 14 Torsion [CA]-CB--CG-[OD1] |==|  0.20490
USER: genes 15 Torsion [C]-CA--CB-[CG] |==|  0.00573
USER: genes 16 Torsion [CA]-CB--CG-[CD2] |==|  0.26548
USER: genes 17 Torsion [C]-CA--N-[C] |==|  0.83244
USER: genes 18 Torsion [N]-C--CA-[N] |==|  0.96280
USER: genes 19 Torsion [C]-CA--CB-[OG] |==|  0.92770
USER: genes 20 Torsion [CA]-CB--OG-[HG] |==|  0.11621
USER: genes 21 Torsion [C]-CA--N-[C] |==|  0.81904
USER: genes 22 Torsion [N]-C--CA-[N] |==|  0.93265
USER: genes 23 Torsion [C]-CA--N-[C] |==|  0.85537
USER: genes 24 Torsion [N]-C--CA-[N] |==|  0.49210
USER: genes 25 Torsion [C]-CA--CB-[CG2] |==|  0.19634
USER: genes 26 Torsion [C]-CA--N-[H2] |==|  0.62446
USER: genes 27 Torsion [C]-CA--CB-[CG2] |==|  0.23430
ROOT
ATOM      1  CA  HIS P   4     -17.517  12.521  14.050  1.00 23.76 LIG 0.18  C 
ENDROOT
BRANCH 1 2
ATOM      2  C   HIS P   4     -16.359  11.935  13.230  1.00 25.01 LIG 0.24  C 
ATOM      3 O    HIS P   4     -16.513  10.908  12.557  1.00 23.35 LIG-0.27  OA
ATOM      4  N   PHE P   5     -15.177  12.540  13.345  1.00 23.15 LIG-0.35  N 
ATOM      5 H    PHE P   5     -15.035  13.202  13.875  1.00 23.15 LIG 0.16  HD
BRANCH 4 6
ATOM      6  CA  PHE P   5     -14.010  12.138  12.584  1.00 24.23 LIG 0.18  C 
BRANCH 6 7
ATOM      7  CB  PHE P   5     -13.516  10.757  13.114  1.00 25.15 LIG 0.07  C 
BRANCH 7 8
ATOM      8  CG  PHE P   5     -13.614   9.706  12.056  1.00 25.22 LIG-0.06  A 
ATOM      9  CD2 PHE P   5     -14.730   8.875  12.086  1.00 26.21 LIG 0.01  A 
ATOM     10  CE2 PHE P   5     -14.852   7.844  11.200  1.00 26.58 LIG 0.00  A 
ATOM     11  CZ  PHE P   5     -13.883   7.656  10.230  1.00 27.68 LIG 0.00  A 
ATOM     12  CE1 PHE P   5     -12.783   8.477  10.177  1.00 26.50 LIG 0.00  A 
ATOM     13  CD1 PHE P   5     -12.651   9.510  11.096  1.00 25.73 LIG 0.01  A 
ENDBRANCH 7 8
ENDBRANCH 6 7
BRANCH 6 14
ATOM     14  C   PHE P   5     -14.223  12.121  11.087  1.00 25.59 LIG 0.24  C 
ATOM     15 O    PHE P   5     -15.335  11.851  10.587  1.00 25.82 LIG-0.27  OA
ATOM     16  N   ASN P   6     -13.194  12.490  10.347  1.00 24.53 LIG-0.35  N 
ATOM     17 H    ASN P   6     -12.425  12.710  10.663  1.00 24.53 LIG 0.16  HD
BRANCH 16 18
ATOM     18  CA  ASN P   6     -13.294  12.551   8.896  1.00 25.84 LIG 0.18  C 
BRANCH 18 19
ATOM     19  C   ASN P   6     -14.139  11.449   8.299  1.00 25.26 LIG 0.24  C 
ATOM     20  N   ASP P   7     -14.914  11.754   7.239  1.00 26.59 LIG-0.34  N 
ATOM     21 H    ASP P   7     -14.984  12.538   6.893  1.00 26.59 LIG 0.16  HD
ATOM     22 O    ASN P   6     -14.125  10.327   8.812  1.00 25.72 LIG-0.27  OA
BRANCH 20 23
ATOM     23  CA  ASP P   7     -15.706  10.728   6.599  1.00 25.93 LIG 0.20  C 
BRANCH 23 24
ATOM     24  C   ASP P   7     -14.963  10.189   5.367  1.00 27.07 LIG 0.20  C 
ATOM     25 O    ASP P   7     -13.762  10.396   5.347  1.00 28.96 LIG-0.65  OA
ATOM     26 OXT  ASP P   7     -15.630   9.490   4.476  1.00 29.63 LIG-0.65  OA
ENDBRANCH 23 24
BRANCH 23 27
ATOM     27  CB  ASP P   7     -17.093  11.191   6.113  1.00 25.41 LIG 0.15  C 
BRANCH 27 28
ATOM     28  CG  ASP P   7     -17.732  12.212   7.020  1.00 25.37 LIG 0.17  C 
ATOM     29 OD1  ASP P   7     -18.609  11.936   7.869  1.00 26.66 LIG-0.65  OA
ATOM     30 OD2  ASP P   7     -17.294  13.407   6.902  1.00 23.76 LIG-0.65  OA
ENDBRANCH 27 28
ENDBRANCH 23 27
ENDBRANCH 20 23
ENDBRANCH 18 19
BRANCH 18 31
ATOM     31  CB  ASN P   6     -11.899  12.592   8.270  1.00 24.75 LIG 0.14  C 
BRANCH 31 32
ATOM     32  CG  ASN P   6     -10.981  13.542   9.009  1.00 27.24 LIG 0.22  C 
ATOM     33  ND2 ASN P   6     -10.743  14.629   8.276  1.00 23.85 LIG-0.37  N 
ATOM     34 21HD ASN P   6     -10.204  15.234   8.567  1.00 23.85 LIG 0.16  HD
ATOM     35 22HD ASN P   6     -11.127  14.726   7.513  1.00 23.85 LIG 0.16  HD
ATOM     36 OD1  ASN P   6     -10.514  13.229  10.142  1.00 24.90 LIG-0.27  OA
ENDBRANCH 31 32
ENDBRANCH 18 31
ENDBRANCH 16 18
ENDBRANCH 6 14
ENDBRANCH 4 6
ENDBRANCH 1 2
BRANCH 1 37
ATOM     37  CB  HIS P   4     -17.627  11.725  15.349  1.00 21.80 LIG 0.10  C 
BRANCH 37 38
ATOM     38  CG  HIS P   4     -16.582  10.660  15.492  1.00 23.01 LIG 0.06  A 
ATOM     39  CD2 HIS P   4     -15.396  10.616  16.098  1.00 23.26 LIG 0.14  A 
ATOM     40 NE2  HIS P   4     -14.979   9.310  16.075  1.00 21.45 LIG-0.25  NA
ATOM     41  CE1 HIS P   4     -15.900   8.549  15.489  1.00 22.12 LIG 0.23  A 
ATOM     42 ND1  HIS P   4     -16.878   9.325  15.144  1.00 22.83 LIG-0.24  NA
ENDBRANCH 37 38
ENDBRANCH 1 37
BRANCH 1 43
ATOM     43  N   HIS P   4     -18.736  12.460  13.197  1.00 22.02 LIG-0.35  N 
ATOM     44  C   SER P   3     -18.732  13.122  12.040  1.00 24.42 LIG 0.24  C 
ATOM     45 O    SER P   3     -17.751  13.800  11.695  1.00 24.72 LIG-0.27  OA
ATOM     46 H    HIS P   4     -19.389  11.991  13.504  1.00 22.02 LIG 0.16  HD
BRANCH 44 47
ATOM     47  CA  SER P   3     -19.998  13.120  11.198  1.00 22.14 LIG 0.20  C 
BRANCH 47 48
ATOM     48  CB  SER P   3     -20.695  14.496  11.178  1.00 23.32 LIG 0.20  C 
BRANCH 48 49
ATOM     49 OG   SER P   3     -20.355  15.221  12.380  1.00 23.11 LIG-0.40  OA
ATOM     50 HG   SER P   3     -19.540  15.117  12.550  1.00 23.11 LIG 0.21  HD
ENDBRANCH 48 49
ENDBRANCH 47 48
BRANCH 47 51
ATOM     51  N   SER P   3     -20.986  12.126  11.619  1.00 22.53 LIG-0.34  N 
ATOM     52 H    SER P   3     -21.722  12.454  11.920  1.00 22.53 LIG 0.16  HD
ATOM     53  C   VAL P   2     -20.728  10.825  11.528  1.00 22.76 LIG 0.24  C 
ATOM     54 O    VAL P   2     -19.587  10.398  11.238  1.00 25.85 LIG-0.27  OA
BRANCH 53 55
ATOM     55  CA  VAL P   2     -21.849   9.879  11.968  1.00 24.07 LIG 0.18  C 
BRANCH 55 56
ATOM     56  N   VAL P   2     -22.751  10.538  12.914  1.00 24.29 LIG-0.35  N 
ATOM     57 H    VAL P   2     -23.587  10.501  12.718  1.00 24.29 LIG 0.16  HD
ATOM     58  C   VAL P   1     -22.232  11.145  14.006  1.00 26.39 LIG 0.25  C 
ATOM     59 O    VAL P   1     -20.984  11.141  14.224  1.00 26.90 LIG-0.27  OA
BRANCH 58 60
ATOM     60  CA  VAL P   1     -23.194  11.790  14.992  1.00 27.40 LIG 0.28  C 
BRANCH 60 61
ATOM     61  CB  VAL P   1     -24.014  12.934  14.313  1.00 27.20 LIG 0.02  C 
ATOM     62  CG2 VAL P   1     -25.009  12.302  13.333  1.00 28.02 LIG 0.01  C 
ATOM     63  CG1 VAL P   1     -22.968  13.764  13.601  1.00 27.17 LIG 0.01  C 
ENDBRANCH 60 61
BRANCH 60 64
ATOM     64  N   VAL P   1     -22.526  12.339  16.130  1.00 29.12 LIG-0.07  N 
ATOM     65 H2   VAL P   1     -22.967  12.115  16.870  1.00 29.12 LIG 0.28  HD
ATOM     66 H1   VAL P   1     -22.497  13.226  16.059  1.00 29.12 LIG 0.28  HD
ATOM     67 H3   VAL P   1     -21.697  12.017  16.171  1.00 29.12 LIG 0.28  HD
ENDBRANCH 60 64
ENDBRANCH 58 60
ENDBRANCH 55 56
BRANCH 55 68
ATOM     68  CB  VAL P   2     -22.550   9.348  10.684  1.00 25.03 LIG 0.01  C 
ATOM     69  CG2 VAL P   2     -21.767   8.137  10.140  1.00 23.99 LIG 0.01  C 
ATOM     70  CG1 VAL P   2     -22.665  10.400   9.597  1.00 25.56 LIG 0.01  C 
ENDBRANCH 55 68
ENDBRANCH 53 55
ENDBRANCH 47 51
ENDBRANCH 44 47
ENDBRANCH 1 43
TORSDOF 26
ENDMDL
MODEL 24
USER: ADFR SOLUTION from run 127
USER: SCORE 19.019205 LL:  -5.642 LR: -14.483 RR:   0.000 FEB:  -6.727
USER: RMSD 8.938171
USER: SEED 126
USER: STATUS no improvement in best in 13 clusters for 5 generations
USER: GENES 28
USER: genes 0 Translation |==|  0.54000 0.48926 0.67790
USER: genes 1 Rotation |==|  0.32431 0.36149 0.92453 0.64043
USER: genes 2 Torsion [N]-CA--C-[N] |==|  0.36806
USER: genes 3 Torsion [C]-N--CA-[CB] |==|  0.75166
USER: genes 4 Torsion [N]-CA--CB-[CG] |==|  0.95276
USER: genes 5 Torsion [CA]-CB--CG-[CD2] |==|  0.28091
USER: genes 6 Torsion [N]-CA--C-[N] |==|  0.23174
USER: genes 7 Torsion [C]-N--CA-[CB] |==|  0.18790
USER: genes 8 Torsion [N]-CA--C-[N] |==|  0.65781
USER: genes 9 Torsion [C]-N--CA-[C] |==|  0.19407
USER: genes 10 Torsion [N]-CA--C-[O] |==|  0.58069
USER: genes 11 Torsion [N]-CA--CB-[CG] |==|  0.67296
USER: genes 12 Torsion [CA]-CB--CG-[OD1] |==|  0.07612
USER: genes 13 Torsion [N]-CA--CB-[CG] |==|  0.64264
USER: genes 14 Torsion [CA]-CB--CG-[OD1] |==|  0.70622
USER: genes 15 Torsion [C]-CA--CB-[CG] |==|  0.76495
USER: genes 16 Torsion [CA]-CB--CG-[CD2] |==|  0.13833
USER: genes 17 Torsion [C]-CA--N-[C] |==|  0.78260
USER: genes 18 Torsion [N]-C--CA-[N] |==|  0.11474
USER: genes 19 Torsion [C]-CA--CB-[OG] |==|  0.34377
USER: genes 20 Torsion [CA]-CB--OG-[HG] |==|  0.62120
USER: genes 21 Torsion [C]-CA--N-[C] |==|  0.16032
USER: genes 22 Torsion [N]-C--CA-[N] |==|  0.34252
USER: genes 23 Torsion [C]-CA--N-[C] |==|  0.84265
USER: genes 24 Torsion [N]-C--CA-[N] |==|  0.77863
USER: genes 25 Torsion [C]-CA--CB-[CG2] |==|  0.48808
USER: genes 26 Torsion [C]-CA--N-[H2] |==|  0.96132
USER: genes 27 Torsion [C]-CA--CB-[CG2] |==|  0.12678
ROOT
ATOM      1  CA  HIS P   4     -16.781  12.305  13.249  1.00 23.76 LIG 0.18  C 
ENDROOT
BRANCH 1 2
ATOM      2  C   HIS P   4     -15.540  11.541  12.765  1.00 25.01 LIG 0.24  C 
ATOM      3 O    HIS P   4     -15.597  10.802  11.774  1.00 23.35 LIG-0.27  OA
ATOM      4  N   PHE P   5     -14.439  11.655  13.506  1.00 23.15 LIG-0.35  N 
ATOM      5 H    PHE P   5     -14.410  12.096  14.244  1.00 23.15 LIG 0.16  HD
BRANCH 4 6
ATOM      6  CA  PHE P   5     -13.177  11.044  13.138  1.00 24.23 LIG 0.18  C 
BRANCH 6 7
ATOM      7  CB  PHE P   5     -13.120   9.607  13.742  1.00 25.15 LIG 0.07  C 
BRANCH 7 8
ATOM      8  CG  PHE P   5     -14.138   9.434  14.822  1.00 25.22 LIG-0.06  A 
ATOM      9  CD2 PHE P   5     -15.308   8.758  14.491  1.00 26.21 LIG 0.01  A 
ATOM     10  CE2 PHE P   5     -16.316   8.627  15.403  1.00 26.58 LIG 0.00  A 
ATOM     11  CZ  PHE P   5     -16.151   9.127  16.683  1.00 27.68 LIG 0.00  A 
ATOM     12  CE1 PHE P   5     -14.996   9.783  17.030  1.00 26.50 LIG 0.00  A 
ATOM     13  CD1 PHE P   5     -13.983   9.935  16.092  1.00 25.73 LIG 0.01  A 
ENDBRANCH 7 8
ENDBRANCH 6 7
BRANCH 6 14
ATOM     14  C   PHE P   5     -12.901  11.039  11.651  1.00 25.59 LIG 0.24  C 
ATOM     15 O    PHE P   5     -13.223  10.074  10.929  1.00 25.82 LIG-0.27  OA
ATOM     16  N   ASN P   6     -12.379  12.144  11.152  1.00 24.53 LIG-0.35  N 
ATOM     17 H    ASN P   6     -12.173  12.836  11.619  1.00 24.53 LIG 0.16  HD
BRANCH 16 18
ATOM     18  CA  ASN P   6     -12.107  12.270   9.727  1.00 25.84 LIG 0.18  C 
BRANCH 18 19
ATOM     19  C   ASN P   6     -11.221  13.444   9.379  1.00 25.26 LIG 0.24  C 
ATOM     20  N   ASP P   7     -11.694  14.349   8.499  1.00 26.59 LIG-0.34  N 
ATOM     21 H    ASP P   7     -12.453  14.294   8.100  1.00 26.59 LIG 0.16  HD
ATOM     22 O    ASN P   6     -10.093  13.521   9.872  1.00 25.72 LIG-0.27  OA
BRANCH 20 23
ATOM     23  CA  ASP P   7     -10.908  15.517   8.167  1.00 25.93 LIG 0.20  C 
BRANCH 23 24
ATOM     24  C   ASP P   7      -9.683  15.101   7.338  1.00 27.07 LIG 0.20  C 
ATOM     25 O    ASP P   7      -8.703  15.817   7.457  1.00 28.96 LIG-0.65  OA
ATOM     26 OXT  ASP P   7      -9.734  13.990   6.637  1.00 29.63 LIG-0.65  OA
ENDBRANCH 23 24
BRANCH 23 27
ATOM     27  CB  ASP P   7     -10.378  16.306   9.379  1.00 25.41 LIG 0.15  C 
BRANCH 27 28
ATOM     28  CG  ASP P   7     -10.906  17.716   9.451  1.00 25.37 LIG 0.17  C 
ATOM     29 OD1  ASP P   7     -12.007  18.071   8.972  1.00 26.66 LIG-0.65  OA
ATOM     30 OD2  ASP P   7     -10.169  18.551  10.076  1.00 23.76 LIG-0.65  OA
ENDBRANCH 27 28
ENDBRANCH 23 27
ENDBRANCH 20 23
ENDBRANCH 18 19
BRANCH 18 31
ATOM     31  CB  ASN P   6     -13.418  12.300   8.938  1.00 24.75 LIG 0.14  C 
BRANCH 31 32
ATOM     32  CG  ASN P   6     -13.417  11.292   7.810  1.00 27.24 LIG 0.22  C 
ATOM     33  ND2 ASN P   6     -13.512  10.052   8.288  1.00 23.85 LIG-0.37  N 
ATOM     34 21HD ASN P   6     -13.486   9.381   7.751  1.00 23.85 LIG 0.16  HD
ATOM     35 22HD ASN P   6     -13.600   9.923   9.134  1.00 23.85 LIG 0.16  HD
ATOM     36 OD1  ASN P   6     -13.285  11.673   6.611  1.00 24.90 LIG-0.27  OA
ENDBRANCH 31 32
ENDBRANCH 18 31
ENDBRANCH 16 18
ENDBRANCH 6 14
ENDBRANCH 4 6
ENDBRANCH 1 2
BRANCH 1 37
ATOM     37  CB  HIS P   4     -17.742  11.296  13.878  1.00 21.80 LIG 0.10  C 
BRANCH 37 38
ATOM     38  CG  HIS P   4     -18.630  10.611  12.884  1.00 23.01 LIG 0.06  A 
ATOM     39  CD2 HIS P   4     -18.400   9.984  11.730  1.00 23.26 LIG 0.14  A 
ATOM     40 NE2  HIS P   4     -19.571   9.371  11.364  1.00 21.45 LIG-0.25  NA
ATOM     41  CE1 HIS P   4     -20.505   9.589  12.286  1.00 22.12 LIG 0.23  A 
ATOM     42 ND1  HIS P   4     -19.968  10.313  13.215  1.00 22.83 LIG-0.24  NA
ENDBRANCH 37 38
ENDBRANCH 1 37
BRANCH 1 43
ATOM     43  N   HIS P   4     -17.343  13.025  12.073  1.00 22.02 LIG-0.35  N 
ATOM     44  C   SER P   3     -16.751  14.153  11.681  1.00 24.42 LIG 0.24  C 
ATOM     45 O    SER P   3     -15.776  14.611  12.298  1.00 24.72 LIG-0.27  OA
ATOM     46 H    HIS P   4     -18.033  12.666  11.705  1.00 22.02 LIG 0.16  HD
BRANCH 44 47
ATOM     47  CA  SER P   3     -17.361  14.928  10.525  1.00 22.14 LIG 0.20  C 
BRANCH 47 48
ATOM     48  CB  SER P   3     -16.824  16.372  10.435  1.00 23.32 LIG 0.20  C 
BRANCH 48 49
ATOM     49 OG   SER P   3     -16.259  16.590   9.123  1.00 23.11 LIG-0.40  OA
ATOM     50 HG   SER P   3     -15.530  17.000   9.197  1.00 23.11 LIG 0.21  HD
ENDBRANCH 48 49
ENDBRANCH 47 48
BRANCH 47 51
ATOM     51  N   SER P   3     -18.823  14.998  10.566  1.00 22.53 LIG-0.34  N 
ATOM     52 H    SER P   3     -19.219  14.683   9.870  1.00 22.53 LIG 0.16  HD
ATOM     53  C   VAL P   2     -19.453  15.516  11.616  1.00 22.76 LIG 0.24  C 
ATOM     54 O    VAL P   2     -18.835  16.107  12.529  1.00 25.85 LIG-0.27  OA
BRANCH 53 55
ATOM     55  CA  VAL P   2     -20.983  15.506  11.560  1.00 24.07 LIG 0.18  C 
BRANCH 55 56
ATOM     56  N   VAL P   2     -21.546  14.804  12.715  1.00 24.29 LIG-0.35  N 
ATOM     57 H    VAL P   2     -22.098  15.258  13.193  1.00 24.29 LIG 0.16  HD
ATOM     58  C   VAL P   1     -21.176  13.525  12.952  1.00 26.39 LIG 0.25  C 
ATOM     59 O    VAL P   1     -20.363  12.927  12.188  1.00 26.90 LIG-0.27  OA
BRANCH 58 60
ATOM     60  CA  VAL P   1     -21.804  12.807  14.138  1.00 27.40 LIG 0.28  C 
BRANCH 60 61
ATOM     61  CB  VAL P   1     -23.332  13.119  14.242  1.00 27.20 LIG 0.02  C 
ATOM     62  CG2 VAL P   1     -23.921  12.285  15.384  1.00 28.02 LIG 0.01  C 
ATOM     63  CG1 VAL P   1     -23.885  12.706  12.895  1.00 27.17 LIG 0.01  C 
ENDBRANCH 60 61
BRANCH 60 64
ATOM     64  N   VAL P   1     -21.193  13.162  15.380  1.00 29.12 LIG-0.07  N 
ATOM     65 H2   VAL P   1     -20.426  13.585  15.224  1.00 29.12 LIG 0.28  HD
ATOM     66 H1   VAL P   1     -21.034  12.426  15.855  1.00 29.12 LIG 0.28  HD
ATOM     67 H3   VAL P   1     -21.739  13.698  15.837  1.00 29.12 LIG 0.28  HD
ENDBRANCH 60 64
ENDBRANCH 58 60
ENDBRANCH 55 56
BRANCH 55 68
ATOM     68  CB  VAL P   2     -21.461  16.981  11.416  1.00 25.03 LIG 0.01  C 
ATOM     69  CG2 VAL P   2     -20.612  17.689  10.342  1.00 23.99 LIG 0.01  C 
ATOM     70  CG1 VAL P   2     -21.374  17.758  12.717  1.00 25.56 LIG 0.01  C 
ENDBRANCH 55 68
ENDBRANCH 53 55
ENDBRANCH 47 51
ENDBRANCH 44 47
ENDBRANCH 1 43
TORSDOF 26
ENDMDL
MODEL 25
USER: ADFR SOLUTION from run 85
USER: SCORE 18.765440 LL:  -6.095 LR: -14.455 RR:   0.000 FEB:  -6.699
USER: RMSD 5.922036
USER: SEED 84
USER: STATUS searching
USER: GENES 28
USER: genes 0 Translation |==|  0.52795 0.33088 0.64477
USER: genes 1 Rotation |==|  0.41943 0.53667 0.48917 0.99198
USER: genes 2 Torsion [N]-CA--C-[N] |==|  0.46335
USER: genes 3 Torsion [C]-N--CA-[CB] |==|  0.25164
USER: genes 4 Torsion [N]-CA--CB-[CG] |==|  0.54308
USER: genes 5 Torsion [CA]-CB--CG-[CD2] |==|  0.59938
USER: genes 6 Torsion [N]-CA--C-[N] |==|  0.94452
USER: genes 7 Torsion [C]-N--CA-[CB] |==|  0.77638
USER: genes 8 Torsion [N]-CA--C-[N] |==|  0.16797
USER: genes 9 Torsion [C]-N--CA-[C] |==|  0.66310
USER: genes 10 Torsion [N]-CA--C-[O] |==|  0.64472
USER: genes 11 Torsion [N]-CA--CB-[CG] |==|  0.67296
USER: genes 12 Torsion [CA]-CB--CG-[OD1] |==|  0.10664
USER: genes 13 Torsion [N]-CA--CB-[CG] |==|  0.90878
USER: genes 14 Torsion [CA]-CB--CG-[OD1] |==|  0.22750
USER: genes 15 Torsion [C]-CA--CB-[CG] |==|  0.80415
USER: genes 16 Torsion [CA]-CB--CG-[CD2] |==|  0.82902
USER: genes 17 Torsion [C]-CA--N-[C] |==|  0.56147
USER: genes 18 Torsion [N]-C--CA-[N] |==|  0.97327
USER: genes 19 Torsion [C]-CA--CB-[OG] |==|  0.76519
USER: genes 20 Torsion [CA]-CB--OG-[HG] |==|  0.46008
USER: genes 21 Torsion [C]-CA--N-[C] |==|  0.74705
USER: genes 22 Torsion [N]-C--CA-[N] |==|  0.83523
USER: genes 23 Torsion [C]-CA--N-[C] |==|  0.66070
USER: genes 24 Torsion [N]-C--CA-[N] |==|  0.58827
USER: genes 25 Torsion [C]-CA--CB-[CG2] |==|  0.58230
USER: genes 26 Torsion [C]-CA--N-[H2] |==|  0.91973
USER: genes 27 Torsion [C]-CA--CB-[CG2] |==|  0.72848
ROOT
ATOM      1  CA  HIS P   4     -17.043   9.573  12.529  1.00 23.76 LIG 0.18  C 
ENDROOT
BRANCH 1 2
ATOM      2  C   HIS P   4     -18.213   9.795  11.560  1.00 25.01 LIG 0.24  C 
ATOM      3 O    HIS P   4     -18.040  10.368  10.476  1.00 23.35 LIG-0.27  OA
ATOM      4  N   PHE P   5     -19.419   9.415  11.979  1.00 23.15 LIG-0.35  N 
ATOM      5 H    PHE P   5     -19.567   9.095  12.763  1.00 23.15 LIG 0.16  HD
BRANCH 4 6
ATOM      6  CA  PHE P   5     -20.605   9.504  11.148  1.00 24.23 LIG 0.18  C 
BRANCH 6 7
ATOM      7  CB  PHE P   5     -20.770   8.167  10.364  1.00 25.15 LIG 0.07  C 
BRANCH 7 8
ATOM      8  CG  PHE P   5     -21.733   8.321   9.231  1.00 25.22 LIG-0.06  A 
ATOM      9  CD2 PHE P   5     -22.551   7.234   8.940  1.00 26.21 LIG 0.01  A 
ATOM     10  CE2 PHE P   5     -23.402   7.271   7.872  1.00 26.58 LIG 0.00  A 
ATOM     11  CZ  PHE P   5     -23.488   8.420   7.106  1.00 27.68 LIG 0.00  A 
ATOM     12  CE1 PHE P   5     -22.699   9.507   7.390  1.00 26.50 LIG 0.00  A 
ATOM     13  CD1 PHE P   5     -21.818   9.456   8.462  1.00 25.73 LIG 0.01  A 
ENDBRANCH 7 8
ENDBRANCH 6 7
BRANCH 6 14
ATOM     14  C   PHE P   5     -21.863   9.872  11.903  1.00 25.59 LIG 0.24  C 
ATOM     15 O    PHE P   5     -22.887  10.270  11.311  1.00 25.82 LIG-0.27  OA
ATOM     16  N   ASN P   6     -21.841   9.668  13.206  1.00 24.53 LIG-0.35  N 
ATOM     17 H    ASN P   6     -21.161   9.368  13.638  1.00 24.53 LIG 0.16  HD
BRANCH 16 18
ATOM     18  CA  ASN P   6     -23.008   9.948  14.031  1.00 25.84 LIG 0.18  C 
BRANCH 18 19
ATOM     19  C   ASN P   6     -24.302   9.426  13.450  1.00 25.26 LIG 0.24  C 
ATOM     20  N   ASP P   7     -24.409   8.098  13.246  1.00 26.59 LIG-0.34  N 
ATOM     21 H    ASP P   7     -23.784   7.527  13.397  1.00 26.59 LIG 0.16  HD
ATOM     22 O    ASN P   6     -25.196  10.219  13.148  1.00 25.72 LIG-0.27  OA
BRANCH 20 23
ATOM     23  CA  ASP P   7     -25.641   7.538  12.737  1.00 25.93 LIG 0.20  C 
BRANCH 23 24
ATOM     24  C   ASP P   7     -26.194   6.505  13.732  1.00 27.07 LIG 0.20  C 
ATOM     25 O    ASP P   7     -26.457   5.413  13.260  1.00 28.96 LIG-0.65  OA
ATOM     26 OXT  ASP P   7     -26.271   6.825  15.004  1.00 29.63 LIG-0.65  OA
ENDBRANCH 23 24
BRANCH 23 27
ATOM     27  CB  ASP P   7     -25.512   6.821  11.379  1.00 25.41 LIG 0.15  C 
BRANCH 27 28
ATOM     28  CG  ASP P   7     -26.332   7.461  10.287  1.00 25.37 LIG 0.17  C 
ATOM     29 OD1  ASP P   7     -26.475   8.697  10.159  1.00 26.66 LIG-0.65  OA
ATOM     30 OD2  ASP P   7     -26.861   6.654   9.449  1.00 23.76 LIG-0.65  OA
ENDBRANCH 27 28
ENDBRANCH 23 27
ENDBRANCH 20 23
ENDBRANCH 18 19
BRANCH 18 31
ATOM     31  CB  ASN P   6     -23.093  11.445  14.338  1.00 24.75 LIG 0.14  C 
BRANCH 31 32
ATOM     32  CG  ASN P   6     -21.720  12.072  14.453  1.00 27.24 LIG 0.22  C 
ATOM     33  ND2 ASN P   6     -21.381  12.225  15.732  1.00 23.85 LIG-0.37  N 
ATOM     34 21HD ASN P   6     -20.637  12.606  15.937  1.00 23.85 LIG 0.16  HD
ATOM     35 22HD ASN P   6     -21.905  11.944  16.353  1.00 23.85 LIG 0.16  HD
ATOM     36 OD1  ASN P   6     -21.085  12.417  13.415  1.00 24.90 LIG-0.27  OA
ENDBRANCH 31 32
ENDBRANCH 18 31
ENDBRANCH 16 18
ENDBRANCH 6 14
ENDBRANCH 4 6
ENDBRANCH 1 2
BRANCH 1 37
ATOM     37  CB  HIS P   4     -17.203  10.547  13.695  1.00 21.80 LIG 0.10  C 
BRANCH 37 38
ATOM     38  CG  HIS P   4     -16.951  11.976  13.323  1.00 23.01 LIG 0.06  A 
ATOM     39  CD2 HIS P   4     -15.886  12.627  12.854  1.00 23.26 LIG 0.14  A 
ATOM     40 NE2  HIS P   4     -16.305  13.884  12.500  1.00 21.45 LIG-0.25  NA
ATOM     41  CE1 HIS P   4     -17.611  14.006  12.719  1.00 22.12 LIG 0.23  A 
ATOM     42 ND1  HIS P   4     -18.029  12.877  13.196  1.00 22.83 LIG-0.24  NA
ENDBRANCH 37 38
ENDBRANCH 1 37
BRANCH 1 43
ATOM     43  N   HIS P   4     -15.786   9.758  11.753  1.00 22.02 LIG-0.35  N 
ATOM     44  C   SER P   3     -14.668   9.199  12.217  1.00 24.42 LIG 0.24  C 
ATOM     45 O    SER P   3     -14.667   8.566  13.285  1.00 24.72 LIG-0.27  OA
ATOM     46 H    HIS P   4     -15.851  10.225  11.033  1.00 22.02 LIG 0.16  HD
BRANCH 44 47
ATOM     47  CA  SER P   3     -13.369   9.442  11.466  1.00 22.14 LIG 0.20  C 
BRANCH 47 48
ATOM     48  CB  SER P   3     -12.364  10.279  12.284  1.00 23.32 LIG 0.20  C 
BRANCH 48 49
ATOM     49 OG   SER P   3     -12.656  11.683  12.107  1.00 23.11 LIG-0.40  OA
ATOM     50 HG   SER P   3     -12.250  12.129  12.691  1.00 23.11 LIG 0.21  HD
ENDBRANCH 48 49
ENDBRANCH 47 48
BRANCH 47 51
ATOM     51  N   SER P   3     -13.549  10.100  10.171  1.00 22.53 LIG-0.34  N 
ATOM     52 H    SER P   3     -13.540  10.960  10.199  1.00 22.53 LIG 0.16  HD
ATOM     53  C   VAL P   2     -13.713   9.389   9.060  1.00 22.76 LIG 0.24  C 
ATOM     54 O    VAL P   2     -13.882   8.149   9.090  1.00 25.85 LIG-0.27  OA
BRANCH 53 55
ATOM     55  CA  VAL P   2     -13.860  10.186   7.761  1.00 24.07 LIG 0.18  C 
BRANCH 55 56
ATOM     56  N   VAL P   2     -15.012  11.086   7.824  1.00 24.29 LIG-0.35  N 
ATOM     57 H    VAL P   2     -15.005  11.656   8.469  1.00 24.29 LIG 0.16  HD
ATOM     58  C   VAL P   1     -15.988  10.973   6.894  1.00 26.39 LIG 0.25  C 
ATOM     59 O    VAL P   1     -15.913  10.111   5.970  1.00 26.90 LIG-0.27  OA
BRANCH 58 60
ATOM     60  CA  VAL P   1     -17.157  11.945   6.961  1.00 27.40 LIG 0.28  C 
BRANCH 60 61
ATOM     61  CB  VAL P   1     -17.384  12.454   8.420  1.00 27.20 LIG 0.02  C 
ATOM     62  CG2 VAL P   1     -18.873  12.771   8.598  1.00 28.02 LIG 0.01  C 
ATOM     63  CG1 VAL P   1     -16.526  13.697   8.515  1.00 27.17 LIG 0.01  C 
ENDBRANCH 60 61
BRANCH 60 64
ATOM     64  N   VAL P   1     -18.378  11.365   6.498  1.00 29.12 LIG-0.07  N 
ATOM     65 H2   VAL P   1     -18.199  10.738   5.892  1.00 29.12 LIG 0.28  HD
ATOM     66 H1   VAL P   1     -18.886  11.997   6.130  1.00 29.12 LIG 0.28  HD
ATOM     67 H3   VAL P   1     -18.811  10.998   7.184  1.00 29.12 LIG 0.28  HD
ENDBRANCH 60 64
ENDBRANCH 58 60
ENDBRANCH 55 56
BRANCH 55 68
ATOM     68  CB  VAL P   2     -12.504  10.904   7.491  1.00 25.03 LIG 0.01  C 
ATOM     69  CG2 VAL P   2     -12.590  12.359   7.992  1.00 23.99 LIG 0.01  C 
ATOM     70  CG1 VAL P   2     -12.117  10.900   6.024  1.00 25.56 LIG 0.01  C 
ENDBRANCH 55 68
ENDBRANCH 53 55
ENDBRANCH 47 51
ENDBRANCH 44 47
ENDBRANCH 1 43
TORSDOF 26
ENDMDL
MODEL 26
USER: ADFR SOLUTION from run 111
USER: SCORE 18.133739 LL:  -5.014 LR: -14.438 RR:   0.000 FEB:  -6.682
USER: RMSD 9.541918
USER: SEED 110
USER: STATUS no improvement in best in 20 clusters for 5 generations
USER: GENES 28
USER: genes 0 Translation |==|  0.68615 0.45074 0.57395
USER: genes 1 Rotation |==|  0.68140 0.42824 0.94111 0.63179
USER: genes 2 Torsion [N]-CA--C-[N] |==|  0.37336
USER: genes 3 Torsion [C]-N--CA-[CB] |==|  0.78331
USER: genes 4 Torsion [N]-CA--CB-[CG] |==|  0.56919
USER: genes 5 Torsion [CA]-CB--CG-[CD2] |==|  0.78785
USER: genes 6 Torsion [N]-CA--C-[N] |==|  0.77293
USER: genes 7 Torsion [C]-N--CA-[CB] |==|  0.87114
USER: genes 8 Torsion [N]-CA--C-[N] |==|  0.35023
USER: genes 9 Torsion [C]-N--CA-[C] |==|  0.54219
USER: genes 10 Torsion [N]-CA--C-[O] |==|  0.47984
USER: genes 11 Torsion [N]-CA--CB-[CG] |==|  0.67721
USER: genes 12 Torsion [CA]-CB--CG-[OD1] |==|  0.92751
USER: genes 13 Torsion [N]-CA--CB-[CG] |==|  0.47057
USER: genes 14 Torsion [CA]-CB--CG-[OD1] |==|  0.68027
USER: genes 15 Torsion [C]-CA--CB-[CG] |==|  0.90305
USER: genes 16 Torsion [CA]-CB--CG-[CD2] |==|  0.24755
USER: genes 17 Torsion [C]-CA--N-[C] |==|  0.83746
USER: genes 18 Torsion [N]-C--CA-[N] |==|  0.89010
USER: genes 19 Torsion [C]-CA--CB-[OG] |==|  0.66249
USER: genes 20 Torsion [CA]-CB--OG-[HG] |==|  0.30589
USER: genes 21 Torsion [C]-CA--N-[C] |==|  0.75751
USER: genes 22 Torsion [N]-C--CA-[N] |==|  0.09562
USER: genes 23 Torsion [C]-CA--N-[C] |==|  0.14995
USER: genes 24 Torsion [N]-C--CA-[N] |==|  0.32900
USER: genes 25 Torsion [C]-CA--CB-[CG2] |==|  0.12592
USER: genes 26 Torsion [C]-CA--N-[H2] |==|  0.71715
USER: genes 27 Torsion [C]-CA--CB-[CG2] |==|  0.56256
ROOT
ATOM      1  CA  HIS P   4     -13.602  11.640  10.988  1.00 23.76 LIG 0.18  C 
ENDROOT
BRANCH 1 2
ATOM      2  C   HIS P   4     -13.839  11.308   9.509  1.00 25.01 LIG 0.24  C 
ATOM      3 O    HIS P   4     -14.721  10.507   9.171  1.00 23.35 LIG-0.27  OA
ATOM      4  N   PHE P   5     -13.004  11.859   8.629  1.00 23.15 LIG-0.35  N 
ATOM      5 H    PHE P   5     -12.334  12.349   8.856  1.00 23.15 LIG 0.16  HD
BRANCH 4 6
ATOM      6  CA  PHE P   5     -13.145  11.687   7.196  1.00 24.23 LIG 0.18  C 
BRANCH 6 7
ATOM      7  CB  PHE P   5     -12.603  10.279   6.804  1.00 25.15 LIG 0.07  C 
BRANCH 7 8
ATOM      8  CG  PHE P   5     -12.159  10.248   5.377  1.00 25.22 LIG-0.06  A 
ATOM      9  CD2 PHE P   5     -13.150  10.184   4.404  1.00 26.21 LIG 0.01  A 
ATOM     10  CE2 PHE P   5     -12.820  10.076   3.083  1.00 26.58 LIG 0.00  A 
ATOM     11  CZ  PHE P   5     -11.489  10.084   2.707  1.00 27.68 LIG 0.00  A 
ATOM     12  CE1 PHE P   5     -10.498  10.163   3.654  1.00 26.50 LIG 0.00  A 
ATOM     13  CD1 PHE P   5     -10.838  10.248   4.999  1.00 25.73 LIG 0.01  A 
ENDBRANCH 7 8
ENDBRANCH 6 7
BRANCH 6 14
ATOM     14  C   PHE P   5     -14.548  11.912   6.680  1.00 25.59 LIG 0.24  C 
ATOM     15 O    PHE P   5     -14.870  12.971   6.103  1.00 25.82 LIG-0.27  OA
ATOM     16  N   ASN P   6     -15.383  10.897   6.799  1.00 24.53 LIG-0.35  N 
ATOM     17 H    ASN P   6     -15.182  10.145   7.165  1.00 24.53 LIG 0.16  HD
BRANCH 16 18
ATOM     18  CA  ASN P   6     -16.749  10.985   6.302  1.00 25.84 LIG 0.18  C 
BRANCH 18 19
ATOM     19  C   ASN P   6     -16.867  10.772   4.810  1.00 25.26 LIG 0.24  C 
ATOM     20  N   ASP P   7     -17.724   9.827   4.375  1.00 26.59 LIG-0.34  N 
ATOM     21 H    ASP P   7     -18.190   9.316   4.886  1.00 26.59 LIG 0.16  HD
ATOM     22 O    ASN P   6     -16.160  11.432   4.045  1.00 25.72 LIG-0.27  OA
BRANCH 20 23
ATOM     23  CA  ASP P   7     -17.912   9.615   2.957  1.00 25.93 LIG 0.20  C 
BRANCH 23 24
ATOM     24  C   ASP P   7     -19.181   8.781   2.719  1.00 27.07 LIG 0.20  C 
ATOM     25 O    ASP P   7     -19.515   8.656   1.554  1.00 28.96 LIG-0.65  OA
ATOM     26 OXT  ASP P   7     -19.765   8.203   3.746  1.00 29.63 LIG-0.65  OA
ENDBRANCH 23 24
BRANCH 23 27
ATOM     27  CB  ASP P   7     -16.756   8.875   2.256  1.00 25.41 LIG 0.15  C 
BRANCH 27 28
ATOM     28  CG  ASP P   7     -16.056   9.712   1.217  1.00 25.37 LIG 0.17  C 
ATOM     29 OD1  ASP P   7     -16.600  10.658   0.604  1.00 26.66 LIG-0.65  OA
ATOM     30 OD2  ASP P   7     -14.828   9.424   1.011  1.00 23.76 LIG-0.65  OA
ENDBRANCH 27 28
ENDBRANCH 23 27
ENDBRANCH 20 23
ENDBRANCH 18 19
BRANCH 18 31
ATOM     31  CB  ASN P   6     -17.386  12.306   6.735  1.00 24.75 LIG 0.14  C 
BRANCH 31 32
ATOM     32  CG  ASN P   6     -18.703  12.552   6.030  1.00 27.24 LIG 0.22  C 
ATOM     33  ND2 ASN P   6     -19.585  11.604   6.342  1.00 23.85 LIG-0.37  N 
ATOM     34 21HD ASN P   6     -20.365  11.606   5.978  1.00 23.85 LIG 0.16  HD
ATOM     35 22HD ASN P   6     -19.376  10.990   6.906  1.00 23.85 LIG 0.16  HD
ATOM     36 OD1  ASN P   6     -18.830  13.524   5.231  1.00 24.90 LIG-0.27  OA
ENDBRANCH 31 32
ENDBRANCH 18 31
ENDBRANCH 16 18
ENDBRANCH 6 14
ENDBRANCH 4 6
ENDBRANCH 1 2
BRANCH 1 37
ATOM     37  CB  HIS P   4     -12.908  10.443  11.637  1.00 21.80 LIG 0.10  C 
BRANCH 37 38
ATOM     38  CG  HIS P   4     -13.350   9.121  11.087  1.00 23.01 LIG 0.06  A 
ATOM     39  CD2 HIS P   4     -12.931   8.364  10.074  1.00 23.26 LIG 0.14  A 
ATOM     40 NE2  HIS P   4     -13.578   7.159  10.175  1.00 21.45 LIG-0.25  NA
ATOM     41  CE1 HIS P   4     -14.365   7.155  11.247  1.00 22.12 LIG 0.23  A 
ATOM     42 ND1  HIS P   4     -14.239   8.309  11.822  1.00 22.83 LIG-0.24  NA
ENDBRANCH 37 38
ENDBRANCH 1 37
BRANCH 1 43
ATOM     43  N   HIS P   4     -14.927  11.968  11.585  1.00 22.02 LIG-0.35  N 
ATOM     44  C   SER P   3     -15.625  12.974  11.057  1.00 24.42 LIG 0.24  C 
ATOM     45 O    SER P   3     -15.172  13.642  10.114  1.00 24.72 LIG-0.27  OA
ATOM     46 H    HIS P   4     -15.173  11.481  12.250  1.00 22.02 LIG 0.16  HD
BRANCH 44 47
ATOM     47  CA  SER P   3     -16.946  13.358  11.705  1.00 22.14 LIG 0.20  C 
BRANCH 47 48
ATOM     48  CB  SER P   3     -16.759  14.300  12.911  1.00 23.32 LIG 0.20  C 
BRANCH 48 49
ATOM     49 OG   SER P   3     -17.327  13.687  14.089  1.00 23.11 LIG-0.40  OA
ATOM     50 HG   SER P   3     -16.711  13.465  14.615  1.00 23.11 LIG 0.21  HD
ENDBRANCH 48 49
ENDBRANCH 47 48
BRANCH 47 51
ATOM     51  N   SER P   3     -17.740  12.212  12.152  1.00 22.53 LIG-0.34  N 
ATOM     52 H    SER P   3     -17.611  11.982  12.971  1.00 22.53 LIG 0.16  HD
ATOM     53  C   VAL P   2     -18.583  11.600  11.326  1.00 22.76 LIG 0.24  C 
ATOM     54 O    VAL P   2     -18.617  11.866  10.104  1.00 25.85 LIG-0.27  OA
BRANCH 53 55
ATOM     55  CA  VAL P   2     -19.382  10.435  11.915  1.00 24.07 LIG 0.18  C 
BRANCH 55 56
ATOM     56  N   VAL P   2     -19.710  10.679  13.321  1.00 24.29 LIG-0.35  N 
ATOM     57 H    VAL P   2     -19.475  10.061  13.870  1.00 24.29 LIG 0.16  HD
ATOM     58  C   VAL P   1     -20.342  11.825  13.660  1.00 26.39 LIG 0.25  C 
ATOM     59 O    VAL P   1     -20.643  12.690  12.785  1.00 26.90 LIG-0.27  OA
BRANCH 58 60
ATOM     60  CA  VAL P   1     -20.638  12.071  15.132  1.00 27.40 LIG 0.28  C 
BRANCH 60 61
ATOM     61  CB  VAL P   1     -22.173  12.227  15.380  1.00 27.20 LIG 0.02  C 
ATOM     62  CG2 VAL P   1     -22.903  11.118  14.613  1.00 28.02 LIG 0.01  C 
ATOM     63  CG1 VAL P   1     -22.497  13.600  14.834  1.00 27.17 LIG 0.01  C 
ENDBRANCH 60 61
BRANCH 60 64
ATOM     64  N   VAL P   1     -19.987  13.240  15.634  1.00 29.12 LIG-0.07  N 
ATOM     65 H2   VAL P   1     -19.267  13.003  16.100  1.00 29.12 LIG 0.28  HD
ATOM     66 H1   VAL P   1     -20.547  13.689  16.162  1.00 29.12 LIG 0.28  HD
ATOM     67 H3   VAL P   1     -19.741  13.758  14.953  1.00 29.12 LIG 0.28  HD
ENDBRANCH 60 64
ENDBRANCH 58 60
ENDBRANCH 55 56
BRANCH 55 68
ATOM     68  CB  VAL P   2     -20.623  10.205  11.003  1.00 25.03 LIG 0.01  C 
ATOM     69  CG2 VAL P   2     -21.719   9.477  11.807  1.00 23.99 LIG 0.01  C 
ATOM     70  CG1 VAL P   2     -20.298   9.401   9.757  1.00 25.56 LIG 0.01  C 
ENDBRANCH 55 68
ENDBRANCH 53 55
ENDBRANCH 47 51
ENDBRANCH 44 47
ENDBRANCH 1 43
TORSDOF 26
ENDMDL
MODEL 27
USER: ADFR SOLUTION from run 119
USER: SCORE 18.750486 LL:  -6.244 LR: -14.437 RR:   0.000 FEB:  -6.681
USER: RMSD 7.603332
USER: SEED 118
USER: STATUS no improvement in best in 3 clusters for 5 generations
USER: GENES 28
USER: genes 0 Translation |==|  0.62871 0.43826 0.65618
USER: genes 1 Rotation |==|  0.69739 0.38266 0.93019 0.61046
USER: genes 2 Torsion [N]-CA--C-[N] |==|  0.39551
USER: genes 3 Torsion [C]-N--CA-[CB] |==|  0.84253
USER: genes 4 Torsion [N]-CA--CB-[CG] |==|  0.60177
USER: genes 5 Torsion [CA]-CB--CG-[CD2] |==|  0.68440
USER: genes 6 Torsion [N]-CA--C-[N] |==|  0.93154
USER: genes 7 Torsion [C]-N--CA-[CB] |==|  0.19447
USER: genes 8 Torsion [N]-CA--C-[N] |==|  0.30580
USER: genes 9 Torsion [C]-N--CA-[C] |==|  0.80287
USER: genes 10 Torsion [N]-CA--C-[O] |==|  0.45809
USER: genes 11 Torsion [N]-CA--CB-[CG] |==|  0.83937
USER: genes 12 Torsion [CA]-CB--CG-[OD1] |==|  0.77088
USER: genes 13 Torsion [N]-CA--CB-[CG] |==|  0.07487
USER: genes 14 Torsion [CA]-CB--CG-[OD1] |==|  0.14093
USER: genes 15 Torsion [C]-CA--CB-[CG] |==|  0.99250
USER: genes 16 Torsion [CA]-CB--CG-[CD2] |==|  0.23257
USER: genes 17 Torsion [C]-CA--N-[C] |==|  0.81660
USER: genes 18 Torsion [N]-C--CA-[N] |==|  0.79842
USER: genes 19 Torsion [C]-CA--CB-[OG] |==|  0.58777
USER: genes 20 Torsion [CA]-CB--OG-[HG] |==|  0.68636
USER: genes 21 Torsion [C]-CA--N-[C] |==|  0.62437
USER: genes 22 Torsion [N]-C--CA-[N] |==|  0.94550
USER: genes 23 Torsion [C]-CA--N-[C] |==|  0.71733
USER: genes 24 Torsion [N]-C--CA-[N] |==|  0.89134
USER: genes 25 Torsion [C]-CA--CB-[CG2] |==|  0.16908
USER: genes 26 Torsion [C]-CA--N-[H2] |==|  0.47299
USER: genes 27 Torsion [C]-CA--CB-[CG2] |==|  0.01023
ROOT
ATOM      1  CA  HIS P   4     -14.852  11.425  12.777  1.00 23.76 LIG 0.18  C 
ENDROOT
BRANCH 1 2
ATOM      2  C   HIS P   4     -15.105  11.414  11.263  1.00 25.01 LIG 0.24  C 
ATOM      3 O    HIS P   4     -16.077  10.813  10.786  1.00 23.35 LIG-0.27  OA
ATOM      4  N   PHE P   5     -14.193  12.011  10.498  1.00 23.15 LIG-0.35  N 
ATOM      5 H    PHE P   5     -13.469  12.358  10.809  1.00 23.15 LIG 0.16  HD
BRANCH 4 6
ATOM      6  CA  PHE P   5     -14.331  12.135   9.060  1.00 24.23 LIG 0.18  C 
BRANCH 6 7
ATOM      7  CB  PHE P   5     -14.509  10.713   8.448  1.00 25.15 LIG 0.07  C 
BRANCH 7 8
ATOM      8  CG  PHE P   5     -13.815  10.601   7.128  1.00 25.22 LIG-0.06  A 
ATOM      9  CD2 PHE P   5     -14.613  10.427   6.003  1.00 26.21 LIG 0.01  A 
ATOM     10  CE2 PHE P   5     -14.049  10.240   4.773  1.00 26.58 LIG 0.00  A 
ATOM     11  CZ  PHE P   5     -12.673  10.278   4.639  1.00 27.68 LIG 0.00  A 
ATOM     12  CE1 PHE P   5     -11.871  10.465   5.738  1.00 26.50 LIG 0.00  A 
ATOM     13  CD1 PHE P   5     -12.449  10.629   6.990  1.00 25.73 LIG 0.01  A 
ENDBRANCH 7 8
ENDBRANCH 6 7
BRANCH 6 14
ATOM     14  C   PHE P   5     -15.431  13.077   8.622  1.00 25.59 LIG 0.24  C 
ATOM     15 O    PHE P   5     -15.443  13.582   7.481  1.00 25.82 LIG-0.27  OA
ATOM     16  N   ASN P   6     -16.414  13.263   9.482  1.00 24.53 LIG-0.35  N 
ATOM     17 H    ASN P   6     -16.448  12.906  10.264  1.00 24.53 LIG 0.16  HD
BRANCH 16 18
ATOM     18  CA  ASN P   6     -17.547  14.117   9.154  1.00 25.84 LIG 0.18  C 
BRANCH 18 19
ATOM     19  C   ASN P   6     -18.367  14.527  10.356  1.00 25.26 LIG 0.24  C 
ATOM     20  N   ASP P   7     -18.314  15.817  10.744  1.00 26.59 LIG-0.34  N 
ATOM     21 H    ASP P   7     -17.825  16.420  10.373  1.00 26.59 LIG 0.16  HD
ATOM     22 O    ASN P   6     -19.022  13.677  10.963  1.00 25.72 LIG-0.27  OA
BRANCH 20 23
ATOM     23  CA  ASP P   7     -19.114  16.274  11.858  1.00 25.93 LIG 0.20  C 
BRANCH 23 24
ATOM     24  C   ASP P   7     -20.597  16.303  11.457  1.00 27.07 LIG 0.20  C 
ATOM     25 O    ASP P   7     -21.387  16.393  12.380  1.00 28.96 LIG-0.65  OA
ATOM     26 OXT  ASP P   7     -20.911  16.312  10.180  1.00 29.63 LIG-0.65  OA
ENDBRANCH 23 24
BRANCH 23 27
ATOM     27  CB  ASP P   7     -18.764  17.686  12.368  1.00 25.41 LIG 0.15  C 
BRANCH 27 28
ATOM     28  CG  ASP P   7     -17.326  17.824  12.800  1.00 25.37 LIG 0.17  C 
ATOM     29 OD1  ASP P   7     -16.901  17.476  13.924  1.00 26.66 LIG-0.65  OA
ATOM     30 OD2  ASP P   7     -16.529  18.296  11.920  1.00 23.76 LIG-0.65  OA
ENDBRANCH 27 28
ENDBRANCH 23 27
ENDBRANCH 20 23
ENDBRANCH 18 19
BRANCH 18 31
ATOM     31  CB  ASN P   6     -18.415  13.457   8.080  1.00 24.75 LIG 0.14  C 
BRANCH 31 32
ATOM     32  CG  ASN P   6     -18.300  11.948   8.116  1.00 27.24 LIG 0.22  C 
ATOM     33  ND2 ASN P   6     -18.087  11.465   6.894  1.00 23.85 LIG-0.37  N 
ATOM     34 21HD ASN P   6     -18.039  10.615   6.770  1.00 23.85 LIG 0.16  HD
ATOM     35 22HD ASN P   6     -17.996  12.002   6.228  1.00 23.85 LIG 0.16  HD
ATOM     36 OD1  ASN P   6     -18.456  11.321   9.203  1.00 24.90 LIG-0.27  OA
ENDBRANCH 31 32
ENDBRANCH 18 31
ENDBRANCH 16 18
ENDBRANCH 6 14
ENDBRANCH 4 6
ENDBRANCH 1 2
BRANCH 1 37
ATOM     37  CB  HIS P   4     -14.143  10.123  13.147  1.00 21.80 LIG 0.10  C 
BRANCH 37 38
ATOM     38  CG  HIS P   4     -13.952   9.192  11.988  1.00 23.01 LIG 0.06  A 
ATOM     39  CD2 HIS P   4     -13.033   9.102  11.027  1.00 23.26 LIG 0.14  A 
ATOM     40 NE2  HIS P   4     -13.255   7.921  10.365  1.00 21.45 LIG-0.25  NA
ATOM     41  CE1 HIS P   4     -14.276   7.275  10.920  1.00 22.12 LIG 0.23  A 
ATOM     42 ND1  HIS P   4     -14.704   8.001  11.903  1.00 22.83 LIG-0.24  NA
ENDBRANCH 37 38
ENDBRANCH 1 37
BRANCH 1 43
ATOM     43  N   HIS P   4     -16.170  11.608  13.444  1.00 22.02 LIG-0.35  N 
ATOM     44  C   SER P   3     -16.811  12.763  13.271  1.00 24.42 LIG 0.24  C 
ATOM     45 O    SER P   3     -16.309  13.678  12.598  1.00 24.72 LIG-0.27  OA
ATOM     46 H    HIS P   4     -16.451  10.944  13.914  1.00 22.02 LIG 0.16  HD
BRANCH 44 47
ATOM     47  CA  SER P   3     -18.124  12.982  14.005  1.00 22.14 LIG 0.20  C 
BRANCH 47 48
ATOM     48  CB  SER P   3     -18.017  12.669  15.512  1.00 23.32 LIG 0.20  C 
BRANCH 48 49
ATOM     49 OG   SER P   3     -19.286  12.171  15.989  1.00 23.11 LIG-0.40  OA
ATOM     50 HG   SER P   3     -19.623  12.727  16.521  1.00 23.11 LIG 0.21  HD
ENDBRANCH 48 49
ENDBRANCH 47 48
BRANCH 47 51
ATOM     51  N   SER P   3     -19.240  12.202  13.466  1.00 22.53 LIG-0.34  N 
ATOM     52 H    SER P   3     -19.054  11.379  13.293  1.00 22.53 LIG 0.16  HD
ATOM     53  C   VAL P   2     -20.432  12.757  13.272  1.00 22.76 LIG 0.24  C 
ATOM     54 O    VAL P   2     -20.610  13.991  13.385  1.00 25.85 LIG-0.27  OA
BRANCH 53 55
ATOM     55  CA  VAL P   2     -21.529  11.835  12.734  1.00 24.07 LIG 0.18  C 
BRANCH 55 56
ATOM     56  N   VAL P   2     -20.954  10.645  12.106  1.00 24.29 LIG-0.35  N 
ATOM     57 H    VAL P   2     -20.685  10.032  12.645  1.00 24.29 LIG 0.16  HD
ATOM     58  C   VAL P   1     -20.884  10.582  10.757  1.00 26.39 LIG 0.25  C 
ATOM     59 O    VAL P   1     -21.315  11.529  10.035  1.00 26.90 LIG-0.27  OA
BRANCH 58 60
ATOM     60  CA  VAL P   1     -20.315   9.318  10.127  1.00 27.40 LIG 0.28  C 
BRANCH 60 61
ATOM     61  CB  VAL P   1     -21.402   8.200  10.030  1.00 27.20 LIG 0.02  C 
ATOM     62  CG2 VAL P   1     -22.546   8.710   9.147  1.00 28.02 LIG 0.01  C 
ATOM     63  CG1 VAL P   1     -21.844   7.990  11.462  1.00 27.17 LIG 0.01  C 
ENDBRANCH 60 61
BRANCH 60 64
ATOM     64  N   VAL P   1     -19.204   8.795  10.858  1.00 29.12 LIG-0.07  N 
ATOM     65 H2   VAL P   1     -18.993   7.990  10.543  1.00 29.12 LIG 0.28  HD
ATOM     66 H1   VAL P   1     -19.419   8.729  11.719  1.00 29.12 LIG 0.28  HD
ATOM     67 H3   VAL P   1     -18.506   9.340  10.767  1.00 29.12 LIG 0.28  HD
ENDBRANCH 60 64
ENDBRANCH 58 60
ENDBRANCH 55 56
BRANCH 55 68
ATOM     68  CB  VAL P   2     -22.505  11.527  13.908  1.00 25.03 LIG 0.01  C 
ATOM     69  CG2 VAL P   2     -22.074  12.327  15.153  1.00 23.99 LIG 0.01  C 
ATOM     70  CG1 VAL P   2     -22.562  10.051  14.255  1.00 25.56 LIG 0.01  C 
ENDBRANCH 55 68
ENDBRANCH 53 55
ENDBRANCH 47 51
ENDBRANCH 44 47
ENDBRANCH 1 43
TORSDOF 26
ENDMDL
MODEL 28
USER: ADFR SOLUTION from run 177
USER: SCORE 17.768081 LL:  -5.193 LR: -14.406 RR:   0.000 FEB:  -6.651
USER: RMSD 9.054080
USER: SEED 176
USER: STATUS no improvement in best in 12 clusters for 5 generations
USER: GENES 28
USER: genes 0 Translation |==|  0.52667 0.59293 0.60871
USER: genes 1 Rotation |==|  0.45262 0.76370 0.91607 0.57144
USER: genes 2 Torsion [N]-CA--C-[N] |==|  0.61937
USER: genes 3 Torsion [C]-N--CA-[CB] |==|  0.83815
USER: genes 4 Torsion [N]-CA--CB-[CG] |==|  0.67739
USER: genes 5 Torsion [CA]-CB--CG-[CD2] |==|  0.43977
USER: genes 6 Torsion [N]-CA--C-[N] |==|  0.88827
USER: genes 7 Torsion [C]-N--CA-[CB] |==|  0.20945
USER: genes 8 Torsion [N]-CA--C-[N] |==|  0.47090
USER: genes 9 Torsion [C]-N--CA-[C] |==|  0.60413
USER: genes 10 Torsion [N]-CA--C-[O] |==|  0.05132
USER: genes 11 Torsion [N]-CA--CB-[CG] |==|  0.04981
USER: genes 12 Torsion [CA]-CB--CG-[OD1] |==|  0.71374
USER: genes 13 Torsion [N]-CA--CB-[CG] |==|  0.11068
USER: genes 14 Torsion [CA]-CB--CG-[OD1] |==|  0.05969
USER: genes 15 Torsion [C]-CA--CB-[CG] |==|  0.49370
USER: genes 16 Torsion [CA]-CB--CG-[CD2] |==|  0.67668
USER: genes 17 Torsion [C]-CA--N-[C] |==|  0.71050
USER: genes 18 Torsion [N]-C--CA-[N] |==|  0.89881
USER: genes 19 Torsion [C]-CA--CB-[OG] |==|  0.84603
USER: genes 20 Torsion [CA]-CB--OG-[HG] |==|  0.30122
USER: genes 21 Torsion [C]-CA--N-[C] |==|  0.83502
USER: genes 22 Torsion [N]-C--CA-[N] |==|  0.89086
USER: genes 23 Torsion [C]-CA--N-[C] |==|  0.85555
USER: genes 24 Torsion [N]-C--CA-[N] |==|  0.50702
USER: genes 25 Torsion [C]-CA--CB-[CG2] |==|  0.22997
USER: genes 26 Torsion [C]-CA--N-[H2] |==|  0.39739
USER: genes 27 Torsion [C]-CA--CB-[CG2] |==|  0.57177
ROOT
ATOM      1  CA  HIS P   4     -17.071  14.093  11.745  1.00 23.76 LIG 0.18  C 
ENDROOT
BRANCH 1 2
ATOM      2  C   HIS P   4     -16.255  12.830  12.057  1.00 25.01 LIG 0.24  C 
ATOM      3 O    HIS P   4     -16.464  11.773  11.448  1.00 23.35 LIG-0.27  OA
ATOM      4  N   PHE P   5     -15.380  12.914  13.057  1.00 23.15 LIG-0.35  N 
ATOM      5 H    PHE P   5     -15.286  13.617  13.545  1.00 23.15 LIG 0.16  HD
BRANCH 4 6
ATOM      6  CA  PHE P   5     -14.497  11.824  13.423  1.00 24.23 LIG 0.18  C 
BRANCH 6 7
ATOM      7  CB  PHE P   5     -15.360  10.575  13.778  1.00 25.15 LIG 0.07  C 
BRANCH 7 8
ATOM      8  CG  PHE P   5     -15.190  10.191  15.213  1.00 25.22 LIG-0.06  A 
ATOM      9  CD2 PHE P   5     -16.199   9.428  15.791  1.00 26.21 LIG 0.01  A 
ATOM     10  CE2 PHE P   5     -16.151   9.102  17.116  1.00 26.58 LIG 0.00  A 
ATOM     11  CZ  PHE P   5     -15.063   9.490  17.877  1.00 27.68 LIG 0.00  A 
ATOM     12  CE1 PHE P   5     -14.051  10.230  17.318  1.00 26.50 LIG 0.00  A 
ATOM     13  CD1 PHE P   5     -14.116  10.580  15.975  1.00 25.73 LIG 0.01  A 
ENDBRANCH 7 8
ENDBRANCH 6 7
BRANCH 6 14
ATOM     14  C   PHE P   5     -13.446  11.503  12.384  1.00 25.59 LIG 0.24  C 
ATOM     15 O    PHE P   5     -12.295  11.146  12.707  1.00 25.82 LIG-0.27  OA
ATOM     16  N   ASN P   6     -13.841  11.540  11.126  1.00 24.53 LIG-0.35  N 
ATOM     17 H    ASN P   6     -14.634  11.754  10.873  1.00 24.53 LIG 0.16  HD
BRANCH 16 18
ATOM     18  CA  ASN P   6     -12.926  11.211  10.041  1.00 25.84 LIG 0.18  C 
BRANCH 18 19
ATOM     19  C   ASN P   6     -13.341  11.779   8.703  1.00 25.26 LIG 0.24  C 
ATOM     20  N   ASP P   7     -12.455  11.713   7.690  1.00 26.59 LIG-0.34  N 
ATOM     21 H    ASP P   7     -11.659  11.394   7.755  1.00 26.59 LIG 0.16  HD
ATOM     22 O    ASN P   6     -14.446  12.313   8.587  1.00 25.72 LIG-0.27  OA
BRANCH 20 23
ATOM     23  CA  ASP P   7     -12.816  12.198   6.377  1.00 25.93 LIG 0.20  C 
BRANCH 23 24
ATOM     24  C   ASP P   7     -12.210  11.285   5.299  1.00 27.07 LIG 0.20  C 
ATOM     25 O    ASP P   7     -11.865  10.181   5.681  1.00 28.96 LIG-0.65  OA
ATOM     26 OXT  ASP P   7     -12.175  11.706   4.054  1.00 29.63 LIG-0.65  OA
ENDBRANCH 23 24
BRANCH 23 27
ATOM     27  CB  ASP P   7     -12.341  13.630   6.064  1.00 25.41 LIG 0.15  C 
BRANCH 27 28
ATOM     28  CG  ASP P   7     -11.242  14.107   6.979  1.00 25.37 LIG 0.17  C 
ATOM     29 OD1  ASP P   7     -11.425  14.903   7.928  1.00 26.66 LIG-0.65  OA
ATOM     30 OD2  ASP P   7     -10.085  13.615   6.756  1.00 23.76 LIG-0.65  OA
ENDBRANCH 27 28
ENDBRANCH 23 27
ENDBRANCH 20 23
ENDBRANCH 18 19
BRANCH 18 31
ATOM     31  CB  ASN P   6     -12.715   9.697   9.968  1.00 24.75 LIG 0.14  C 
BRANCH 31 32
ATOM     32  CG  ASN P   6     -14.001   8.938  10.213  1.00 27.24 LIG 0.22  C 
ATOM     33  ND2 ASN P   6     -13.744   7.675  10.550  1.00 23.85 LIG-0.37  N 
ATOM     34 21HD ASN P   6     -14.392   7.125  10.681  1.00 23.85 LIG 0.16  HD
ATOM     35 22HD ASN P   6     -12.930   7.410  10.636  1.00 23.85 LIG 0.16  HD
ATOM     36 OD1  ASN P   6     -15.119   9.503  10.043  1.00 24.90 LIG-0.27  OA
ENDBRANCH 31 32
ENDBRANCH 18 31
ENDBRANCH 16 18
ENDBRANCH 6 14
ENDBRANCH 4 6
ENDBRANCH 1 2
BRANCH 1 37
ATOM     37  CB  HIS P   4     -16.905  15.064  12.913  1.00 21.80 LIG 0.10  C 
BRANCH 37 38
ATOM     38  CG  HIS P   4     -17.611  16.371  12.713  1.00 23.01 LIG 0.06  A 
ATOM     39  CD2 HIS P   4     -17.191  17.631  12.602  1.00 23.26 LIG 0.14  A 
ATOM     40 NE2  HIS P   4     -18.272  18.384  12.220  1.00 21.45 LIG-0.25  NA
ATOM     41  CE1 HIS P   4     -19.339  17.604  12.070  1.00 22.12 LIG 0.23  A 
ATOM     42 ND1  HIS P   4     -18.972  16.392  12.342  1.00 22.83 LIG-0.24  NA
ENDBRANCH 37 38
ENDBRANCH 1 37
BRANCH 1 43
ATOM     43  N   HIS P   4     -18.477  13.663  11.509  1.00 22.02 LIG-0.35  N 
ATOM     44  C   SER P   3     -18.925  13.626  10.255  1.00 24.42 LIG 0.24  C 
ATOM     45 O    SER P   3     -18.201  13.971   9.307  1.00 24.72 LIG-0.27  OA
ATOM     46 H    HIS P   4     -18.932  13.459  12.211  1.00 22.02 LIG 0.16  HD
BRANCH 44 47
ATOM     47  CA  SER P   3     -20.380  13.255  10.014  1.00 22.14 LIG 0.20  C 
BRANCH 47 48
ATOM     48  CB  SER P   3     -21.320  14.475  10.097  1.00 23.32 LIG 0.20  C 
BRANCH 48 49
ATOM     49 OG   SER P   3     -21.142  15.130  11.372  1.00 23.11 LIG-0.40  OA
ATOM     50 HG   SER P   3     -20.744  15.860  11.258  1.00 23.11 LIG 0.21  HD
ENDBRANCH 48 49
ENDBRANCH 47 48
BRANCH 47 51
ATOM     51  N   SER P   3     -20.889  12.235  10.932  1.00 22.53 LIG-0.34  N 
ATOM     52 H    SER P   3     -21.563  12.481  11.407  1.00 22.53 LIG 0.16  HD
ATOM     53  C   VAL P   2     -20.326  11.033  10.998  1.00 22.76 LIG 0.24  C 
ATOM     54 O    VAL P   2     -19.252  10.775  10.409  1.00 25.85 LIG-0.27  OA
BRANCH 53 55
ATOM     55  CA  VAL P   2     -20.964  10.038  11.971  1.00 24.07 LIG 0.18  C 
BRANCH 55 56
ATOM     56  N   VAL P   2     -21.376  10.704  13.208  1.00 24.29 LIG-0.35  N 
ATOM     57 H    VAL P   2     -22.191  10.571  13.448  1.00 24.29 LIG 0.16  HD
ATOM     58  C   VAL P   1     -20.480  11.464  13.877  1.00 26.39 LIG 0.25  C 
ATOM     59 O    VAL P   1     -19.293  11.597  13.456  1.00 26.90 LIG-0.27  OA
BRANCH 58 60
ATOM     60  CA  VAL P   1     -20.924  12.115  15.179  1.00 27.40 LIG 0.28  C 
BRANCH 60 61
ATOM     61  CB  VAL P   1     -22.194  12.999  14.962  1.00 27.20 LIG 0.02  C 
ATOM     62  CG2 VAL P   1     -23.428  12.091  15.001  1.00 28.02 LIG 0.01  C 
ATOM     63  CG1 VAL P   1     -21.986  13.614  13.596  1.00 27.17 LIG 0.01  C 
ENDBRANCH 60 61
BRANCH 60 64
ATOM     64  N   VAL P   1     -19.905  12.935  15.755  1.00 29.12 LIG-0.07  N 
ATOM     65 H2   VAL P   1     -20.277  13.654  16.126  1.00 29.12 LIG 0.28  HD
ATOM     66 H1   VAL P   1     -19.335  13.191  15.121  1.00 29.12 LIG 0.28  HD
ATOM     67 H3   VAL P   1     -19.469  12.473  16.378  1.00 29.12 LIG 0.28  HD
ENDBRANCH 60 64
ENDBRANCH 58 60
ENDBRANCH 55 56
BRANCH 55 68
ATOM     68  CB  VAL P   2     -22.122   9.317  11.219  1.00 25.03 LIG 0.01  C 
ATOM     69  CG2 VAL P   2     -23.168   8.830  12.241  1.00 23.99 LIG 0.01  C 
ATOM     70  CG1 VAL P   2     -21.643   8.139  10.391  1.00 25.56 LIG 0.01  C 
ENDBRANCH 55 68
ENDBRANCH 53 55
ENDBRANCH 47 51
ENDBRANCH 44 47
ENDBRANCH 1 43
TORSDOF 26
ENDMDL
MODEL 29
USER: ADFR SOLUTION from run 95
USER: SCORE 18.060007 LL:  -6.222 LR: -14.405 RR:   0.000 FEB:  -6.649
USER: RMSD 8.856049
USER: SEED 94
USER: STATUS no improvement in best in 9 clusters for 5 generations
USER: GENES 28
USER: genes 0 Translation |==|  0.60384 0.53184 0.66253
USER: genes 1 Rotation |==|  0.40244 0.39404 0.95768 0.64064
USER: genes 2 Torsion [N]-CA--C-[N] |==|  0.44594
USER: genes 3 Torsion [C]-N--CA-[CB] |==|  0.75511
USER: genes 4 Torsion [N]-CA--CB-[CG] |==|  0.99250
USER: genes 5 Torsion [CA]-CB--CG-[CD2] |==|  0.80331
USER: genes 6 Torsion [N]-CA--C-[N] |==|  0.74797
USER: genes 7 Torsion [C]-N--CA-[CB] |==|  0.50585
USER: genes 8 Torsion [N]-CA--C-[N] |==|  0.42792
USER: genes 9 Torsion [C]-N--CA-[C] |==|  0.64999
USER: genes 10 Torsion [N]-CA--C-[O] |==|  0.49441
USER: genes 11 Torsion [N]-CA--CB-[CG] |==|  0.95926
USER: genes 12 Torsion [CA]-CB--CG-[OD1] |==|  0.71242
USER: genes 13 Torsion [N]-CA--CB-[CG] |==|  0.21266
USER: genes 14 Torsion [CA]-CB--CG-[OD1] |==|  0.81111
USER: genes 15 Torsion [C]-CA--CB-[CG] |==|  0.75856
USER: genes 16 Torsion [CA]-CB--CG-[CD2] |==|  0.63130
USER: genes 17 Torsion [C]-CA--N-[C] |==|  0.57669
USER: genes 18 Torsion [N]-C--CA-[N] |==|  0.22905
USER: genes 19 Torsion [C]-CA--CB-[OG] |==|  0.68866
USER: genes 20 Torsion [CA]-CB--OG-[HG] |==|  0.62078
USER: genes 21 Torsion [C]-CA--N-[C] |==|  0.75790
USER: genes 22 Torsion [N]-C--CA-[N] |==|  0.78896
USER: genes 23 Torsion [C]-CA--N-[C] |==|  0.19506
USER: genes 24 Torsion [N]-C--CA-[N] |==|  0.40674
USER: genes 25 Torsion [C]-CA--CB-[CG2] |==|  0.20333
USER: genes 26 Torsion [C]-CA--N-[H2] |==|  0.52441
USER: genes 27 Torsion [C]-CA--CB-[CG2] |==|  0.49328
ROOT
ATOM      1  CA  HIS P   4     -15.392  13.039  12.915  1.00 23.76 LIG 0.18  C 
ENDROOT
BRANCH 1 2
ATOM      2  C   HIS P   4     -14.330  12.326  12.067  1.00 25.01 LIG 0.24  C 
ATOM      3 O    HIS P   4     -14.585  11.946  10.917  1.00 23.35 LIG-0.27  OA
ATOM      4  N   PHE P   5     -13.163  12.073  12.657  1.00 23.15 LIG-0.35  N 
ATOM      5 H    PHE P   5     -13.001  12.255  13.482  1.00 23.15 LIG 0.16  HD
BRANCH 4 6
ATOM      6  CA  PHE P   5     -12.045  11.465  11.961  1.00 24.23 LIG 0.18  C 
BRANCH 6 7
ATOM      7  CB  PHE P   5     -12.170   9.914  12.070  1.00 25.15 LIG 0.07  C 
BRANCH 7 8
ATOM      8  CG  PHE P   5     -13.349   9.524  12.901  1.00 25.22 LIG-0.06  A 
ATOM      9  CD2 PHE P   5     -13.271   9.764  14.269  1.00 26.21 LIG 0.01  A 
ATOM     10  CE2 PHE P   5     -14.276   9.366  15.103  1.00 26.58 LIG 0.00  A 
ATOM     11  CZ  PHE P   5     -15.406   8.766  14.576  1.00 27.68 LIG 0.00  A 
ATOM     12  CE1 PHE P   5     -15.506   8.537  13.225  1.00 26.50 LIG 0.00  A 
ATOM     13  CD1 PHE P   5     -14.470   8.921  12.384  1.00 25.73 LIG 0.01  A 
ENDBRANCH 7 8
ENDBRANCH 6 7
BRANCH 6 14
ATOM     14  C   PHE P   5     -11.889  11.916  10.526  1.00 25.59 LIG 0.24  C 
ATOM     15 O    PHE P   5     -11.141  12.867  10.218  1.00 25.82 LIG-0.27  OA
ATOM     16  N   ASN P   6     -12.519  11.196   9.617  1.00 24.53 LIG-0.35  N 
ATOM     17 H    ASN P   6     -13.017  10.519   9.796  1.00 24.53 LIG 0.16  HD
BRANCH 16 18
ATOM     18  CA  ASN P   6     -12.409  11.513   8.200  1.00 25.84 LIG 0.18  C 
BRANCH 18 19
ATOM     19  C   ASN P   6     -12.710  12.958   7.875  1.00 25.26 LIG 0.24  C 
ATOM     20  N   ASP P   7     -12.150  13.483   6.767  1.00 26.59 LIG-0.34  N 
ATOM     21 H    ASP P   7     -11.611  13.064   6.244  1.00 26.59 LIG 0.16  HD
ATOM     22 O    ASN P   6     -13.417  13.618   8.639  1.00 25.72 LIG-0.27  OA
BRANCH 20 23
ATOM     23  CA  ASP P   7     -12.441  14.846   6.383  1.00 25.93 LIG 0.20  C 
BRANCH 23 24
ATOM     24  C   ASP P   7     -12.946  14.882   4.932  1.00 27.07 LIG 0.20  C 
ATOM     25 O    ASP P   7     -13.260  15.983   4.513  1.00 28.96 LIG-0.65  OA
ATOM     26 OXT  ASP P   7     -12.934  13.773   4.226  1.00 29.63 LIG-0.65  OA
ENDBRANCH 23 24
BRANCH 23 27
ATOM     27  CB  ASP P   7     -11.240  15.809   6.458  1.00 25.41 LIG 0.15  C 
BRANCH 27 28
ATOM     28  CG  ASP P   7     -10.079  15.254   7.243  1.00 25.37 LIG 0.17  C 
ATOM     29 OD1  ASP P   7      -9.796  15.606   8.409  1.00 26.66 LIG-0.65  OA
ATOM     30 OD2  ASP P   7      -9.397  14.348   6.653  1.00 23.76 LIG-0.65  OA
ENDBRANCH 27 28
ENDBRANCH 23 27
ENDBRANCH 20 23
ENDBRANCH 18 19
BRANCH 18 31
ATOM     31  CB  ASN P   6     -13.276  10.558   7.376  1.00 24.75 LIG 0.14  C 
BRANCH 31 32
ATOM     32  CG  ASN P   6     -14.744  10.920   7.459  1.00 27.24 LIG 0.22  C 
ATOM     33  ND2 ASN P   6     -15.172  11.413   6.298  1.00 23.85 LIG-0.37  N 
ATOM     34 21HD ASN P   6     -15.982  11.693   6.222  1.00 23.85 LIG 0.16  HD
ATOM     35 22HD ASN P   6     -14.638  11.452   5.625  1.00 23.85 LIG 0.16  HD
ATOM     36 OD1  ASN P   6     -15.375  10.784   8.546  1.00 24.90 LIG-0.27  OA
ENDBRANCH 31 32
ENDBRANCH 18 31
ENDBRANCH 16 18
ENDBRANCH 6 14
ENDBRANCH 4 6
ENDBRANCH 1 2
BRANCH 1 37
ATOM     37  CB  HIS P   4     -15.990  12.017  13.881  1.00 21.80 LIG 0.10  C 
BRANCH 37 38
ATOM     38  CG  HIS P   4     -17.137  11.244  13.304  1.00 23.01 LIG 0.06  A 
ATOM     39  CD2 HIS P   4     -18.351  10.932  13.757  1.00 23.26 LIG 0.14  A 
ATOM     40 NE2  HIS P   4     -19.045  10.386  12.707  1.00 21.45 LIG-0.25  NA
ATOM     41  CE1 HIS P   4     -18.286  10.381  11.614  1.00 22.12 LIG 0.23  A 
ATOM     42 ND1  HIS P   4     -17.145  10.903  11.935  1.00 22.83 LIG-0.24  NA
ENDBRANCH 37 38
ENDBRANCH 1 37
BRANCH 1 43
ATOM     43  N   HIS P   4     -16.381  13.635  11.974  1.00 22.02 LIG-0.35  N 
ATOM     44  C   SER P   3     -17.047  14.722  12.363  1.00 24.42 LIG 0.24  C 
ATOM     45 O    SER P   3     -16.873  15.209  13.491  1.00 24.72 LIG-0.27  OA
ATOM     46 H    HIS P   4     -16.470  13.236  11.218  1.00 22.02 LIG 0.16  HD
BRANCH 44 47
ATOM     47  CA  SER P   3     -18.107  15.294  11.435  1.00 22.14 LIG 0.20  C 
BRANCH 47 48
ATOM     48  CB  SER P   3     -18.341  16.801  11.665  1.00 23.32 LIG 0.20  C 
BRANCH 48 49
ATOM     49 OG   SER P   3     -19.659  17.001  12.220  1.00 23.11 LIG-0.40  OA
ATOM     50 HG   SER P   3     -20.028  17.652  11.838  1.00 23.11 LIG 0.21  HD
ENDBRANCH 48 49
ENDBRANCH 47 48
BRANCH 47 51
ATOM     51  N   SER P   3     -19.404  14.621  11.533  1.00 22.53 LIG-0.34  N 
ATOM     52 H    SER P   3     -19.955  14.980  12.088  1.00 22.53 LIG 0.16  HD
ATOM     53  C   VAL P   2     -19.670  13.541  10.805  1.00 22.76 LIG 0.24  C 
ATOM     54 O    VAL P   2     -18.785  12.962  10.136  1.00 25.85 LIG-0.27  OA
BRANCH 53 55
ATOM     55  CA  VAL P   2     -21.070  12.942  10.969  1.00 24.07 LIG 0.18  C 
BRANCH 55 56
ATOM     56  N   VAL P   2     -21.182  12.201  12.226  1.00 24.29 LIG-0.35  N 
ATOM     57 H    VAL P   2     -21.239  11.347  12.151  1.00 24.29 LIG 0.16  HD
ATOM     58  C   VAL P   1     -21.188  12.884  13.394  1.00 26.39 LIG 0.25  C 
ATOM     59 O    VAL P   1     -21.088  14.146  13.414  1.00 26.90 LIG-0.27  OA
BRANCH 58 60
ATOM     60  CA  VAL P   1     -21.268  12.087  14.688  1.00 27.40 LIG 0.28  C 
BRANCH 60 61
ATOM     61  CB  VAL P   1     -22.750  11.908  15.148  1.00 27.20 LIG 0.02  C 
ATOM     62  CG2 VAL P   1     -23.426  10.890  14.224  1.00 28.02 LIG 0.01  C 
ATOM     63  CG1 VAL P   1     -23.350  13.290  15.003  1.00 27.17 LIG 0.01  C 
ENDBRANCH 60 61
BRANCH 60 64
ATOM     64  N   VAL P   1     -20.543  12.702  15.755  1.00 29.12 LIG-0.07  N 
ATOM     65 H2   VAL P   1     -20.509  12.147  16.450  1.00 29.12 LIG 0.28  HD
ATOM     66 H1   VAL P   1     -20.952  13.455  15.997  1.00 29.12 LIG 0.28  HD
ATOM     67 H3   VAL P   1     -19.716  12.887  15.484  1.00 29.12 LIG 0.28  HD
ENDBRANCH 60 64
ENDBRANCH 58 60
ENDBRANCH 55 56
BRANCH 55 68
ATOM     68  CB  VAL P   2     -22.100  14.101  10.818  1.00 25.03 LIG 0.01  C 
ATOM     69  CG2 VAL P   2     -23.528  13.529  10.916  1.00 23.99 LIG 0.01  C 
ATOM     70  CG1 VAL P   2     -21.950  14.856   9.510  1.00 25.56 LIG 0.01  C 
ENDBRANCH 55 68
ENDBRANCH 53 55
ENDBRANCH 47 51
ENDBRANCH 44 47
ENDBRANCH 1 43
TORSDOF 26
ENDMDL
MODEL 30
USER: ADFR SOLUTION from run 11
USER: SCORE 17.918568 LL:  -5.173 LR: -14.384 RR:   0.000 FEB:  -6.629
USER: RMSD 8.916431
USER: SEED 176966
USER: STATUS no improvement in best in 10 clusters for 5 generations
USER: GENES 28
USER: genes 0 Translation |==|  0.48518 0.49366 0.74094
USER: genes 1 Rotation |==|  0.43807 0.58152 0.01287 0.54718
USER: genes 2 Torsion [N]-CA--C-[N] |==|  0.94916
USER: genes 3 Torsion [C]-N--CA-[CB] |==|  0.72700
USER: genes 4 Torsion [N]-CA--CB-[CG] |==|  0.18352
USER: genes 5 Torsion [CA]-CB--CG-[CD2] |==|  0.77637
USER: genes 6 Torsion [N]-CA--C-[N] |==|  0.27429
USER: genes 7 Torsion [C]-N--CA-[CB] |==|  0.53889
USER: genes 8 Torsion [N]-CA--C-[N] |==|  0.91819
USER: genes 9 Torsion [C]-N--CA-[C] |==|  0.55559
USER: genes 10 Torsion [N]-CA--C-[O] |==|  0.93389
USER: genes 11 Torsion [N]-CA--CB-[CG] |==|  0.64853
USER: genes 12 Torsion [CA]-CB--CG-[OD1] |==|  0.05953
USER: genes 13 Torsion [N]-CA--CB-[CG] |==|  0.07575
USER: genes 14 Torsion [CA]-CB--CG-[OD1] |==|  0.17413
USER: genes 15 Torsion [C]-CA--CB-[CG] |==|  0.90378
USER: genes 16 Torsion [CA]-CB--CG-[CD2] |==|  0.83041
USER: genes 17 Torsion [C]-CA--N-[C] |==|  0.77237
USER: genes 18 Torsion [N]-C--CA-[N] |==|  0.90993
USER: genes 19 Torsion [C]-CA--CB-[OG] |==|  0.81807
USER: genes 20 Torsion [CA]-CB--OG-[HG] |==|  0.31158
USER: genes 21 Torsion [C]-CA--N-[C] |==|  0.77254
USER: genes 22 Torsion [N]-C--CA-[N] |==|  0.21621
USER: genes 23 Torsion [C]-CA--N-[C] |==|  0.75615
USER: genes 24 Torsion [N]-C--CA-[N] |==|  0.19432
USER: genes 25 Torsion [C]-CA--CB-[CG2] |==|  0.56873
USER: genes 26 Torsion [C]-CA--N-[H2] |==|  0.22026
USER: genes 27 Torsion [C]-CA--CB-[CG2] |==|  0.14626
ROOT
ATOM      1  CA  HIS P   4     -17.973  12.381  14.620  1.00 23.76 LIG 0.18  C 
ENDROOT
BRANCH 1 2
ATOM      2  C   HIS P   4     -17.190  12.448  13.302  1.00 25.01 LIG 0.24  C 
ATOM      3 O    HIS P   4     -16.238  13.229  13.168  1.00 23.35 LIG-0.27  OA
ATOM      4  N   PHE P   5     -17.635  11.691  12.301  1.00 23.15 LIG-0.35  N 
ATOM      5 H    PHE P   5     -18.346  11.209  12.352  1.00 23.15 LIG 0.16  HD
BRANCH 4 6
ATOM      6  CA  PHE P   5     -16.960  11.604  11.020  1.00 24.23 LIG 0.18  C 
BRANCH 6 7
ATOM      7  CB  PHE P   5     -17.670  12.558  10.012  1.00 25.15 LIG 0.07  C 
BRANCH 7 8
ATOM      8  CG  PHE P   5     -17.502  13.989  10.413  1.00 25.22 LIG-0.06  A 
ATOM      9  CD2 PHE P   5     -18.345  14.474  11.406  1.00 26.21 LIG 0.01  A 
ATOM     10  CE2 PHE P   5     -18.303  15.790  11.771  1.00 26.58 LIG 0.00  A 
ATOM     11  CZ  PHE P   5     -17.377  16.634  11.185  1.00 27.68 LIG 0.00  A 
ATOM     12  CE1 PHE P   5     -16.527  16.166  10.213  1.00 26.50 LIG 0.00  A 
ATOM     13  CD1 PHE P   5     -16.590  14.833   9.828  1.00 25.73 LIG 0.01  A 
ENDBRANCH 7 8
ENDBRANCH 6 7
BRANCH 6 14
ATOM     14  C   PHE P   5     -15.471  11.863  11.085  1.00 25.59 LIG 0.24  C 
ATOM     15 O    PHE P   5     -15.013  13.019  11.190  1.00 25.82 LIG-0.27  OA
ATOM     16  N   ASN P   6     -14.695  10.796  11.111  1.00 24.53 LIG-0.35  N 
ATOM     17 H    ASN P   6     -14.982   9.987  11.070  1.00 24.53 LIG 0.16  HD
BRANCH 16 18
ATOM     18  CA  ASN P   6     -13.247  10.923  11.213  1.00 25.84 LIG 0.18  C 
BRANCH 18 19
ATOM     19  C   ASN P   6     -12.677  12.057  10.392  1.00 25.26 LIG 0.24  C 
ATOM     20  N   ASP P   7     -13.331  12.410   9.268  1.00 26.59 LIG-0.34  N 
ATOM     21 H    ASP P   7     -14.035  12.019   8.967  1.00 26.59 LIG 0.16  HD
ATOM     22 O    ASN P   6     -11.626  12.595  10.748  1.00 25.72 LIG-0.27  OA
BRANCH 20 23
ATOM     23  CA  ASP P   7     -12.856  13.518   8.470  1.00 25.93 LIG 0.20  C 
BRANCH 23 24
ATOM     24  C   ASP P   7     -13.989  14.034   7.569  1.00 27.07 LIG 0.20  C 
ATOM     25 O    ASP P   7     -14.869  13.228   7.321  1.00 28.96 LIG-0.65  OA
ATOM     26 OXT  ASP P   7     -13.984  15.295   7.198  1.00 29.63 LIG-0.65  OA
ENDBRANCH 23 24
BRANCH 23 27
ATOM     27  CB  ASP P   7     -11.669  13.187   7.545  1.00 25.41 LIG 0.15  C 
BRANCH 27 28
ATOM     28  CG  ASP P   7     -10.496  14.117   7.725  1.00 25.37 LIG 0.17  C 
ATOM     29 OD1  ASP P   7     -10.300  14.797   8.756  1.00 26.66 LIG-0.65  OA
ATOM     30 OD2  ASP P   7      -9.663  14.149   6.756  1.00 23.76 LIG-0.65  OA
ENDBRANCH 27 28
ENDBRANCH 23 27
ENDBRANCH 20 23
ENDBRANCH 18 19
BRANCH 18 31
ATOM     31  CB  ASN P   6     -12.575   9.590  10.876  1.00 24.75 LIG 0.14  C 
BRANCH 31 32
ATOM     32  CG  ASN P   6     -13.420   8.756   9.938  1.00 27.24 LIG 0.22  C 
ATOM     33  ND2 ASN P   6     -13.738   7.592  10.502  1.00 23.85 LIG-0.37  N 
ATOM     34 21HD ASN P   6     -14.187   7.008  10.059  1.00 23.85 LIG 0.16  HD
ATOM     35 22HD ASN P   6     -13.494   7.425  11.310  1.00 23.85 LIG 0.16  HD
ATOM     36 OD1  ASN P   6     -13.689   9.176   8.776  1.00 24.90 LIG-0.27  OA
ENDBRANCH 31 32
ENDBRANCH 18 31
ENDBRANCH 16 18
ENDBRANCH 6 14
ENDBRANCH 4 6
ENDBRANCH 1 2
BRANCH 1 37
ATOM     37  CB  HIS P   4     -17.156  11.555  15.613  1.00 21.80 LIG 0.10  C 
BRANCH 37 38
ATOM     38  CG  HIS P   4     -16.390  10.435  14.976  1.00 23.01 LIG 0.06  A 
ATOM     39  CD2 HIS P   4     -16.752   9.357  14.282  1.00 23.26 LIG 0.14  A 
ATOM     40 NE2  HIS P   4     -15.606   8.803  13.771  1.00 21.45 LIG-0.25  NA
ATOM     41  CE1 HIS P   4     -14.553   9.537  14.118  1.00 22.12 LIG 0.23  A 
ATOM     42 ND1  HIS P   4     -14.991  10.529  14.825  1.00 22.83 LIG-0.24  NA
ENDBRANCH 37 38
ENDBRANCH 1 37
BRANCH 1 43
ATOM     43  N   HIS P   4     -19.312  11.806  14.310  1.00 22.02 LIG-0.35  N 
ATOM     44  C   SER P   3     -20.252  12.618  13.829  1.00 24.42 LIG 0.24  C 
ATOM     45 O    SER P   3     -20.031  13.830  13.672  1.00 24.72 LIG-0.27  OA
ATOM     46 H    HIS P   4     -19.405  10.964  14.462  1.00 22.02 LIG 0.16  HD
BRANCH 44 47
ATOM     47  CA  SER P   3     -21.640  12.051  13.576  1.00 22.14 LIG 0.20  C 
BRANCH 47 48
ATOM     48  CB  SER P   3     -22.565  12.186  14.803  1.00 23.32 LIG 0.20  C 
BRANCH 48 49
ATOM     49 OG   SER P   3     -22.054  11.368  15.878  1.00 23.11 LIG-0.40  OA
ATOM     50 HG   SER P   3     -21.781  11.861  16.500  1.00 23.11 LIG 0.21  HD
ENDBRANCH 48 49
ENDBRANCH 47 48
BRANCH 47 51
ATOM     51  N   SER P   3     -21.639  10.645  13.170  1.00 22.53 LIG-0.34  N 
ATOM     52 H    SER P   3     -21.797  10.086  13.805  1.00 22.53 LIG 0.16  HD
ATOM     53  C   VAL P   2     -21.408  10.298  11.907  1.00 22.76 LIG 0.24  C 
ATOM     54 O    VAL P   2     -21.025  11.131  11.055  1.00 25.85 LIG-0.27  OA
BRANCH 53 55
ATOM     55  CA  VAL P   2     -21.464   8.800  11.595  1.00 24.07 LIG 0.18  C 
BRANCH 55 56
ATOM     56  N   VAL P   2     -22.849   8.336  11.496  1.00 24.29 LIG-0.35  N 
ATOM     57 H    VAL P   2     -23.190   8.348  10.707  1.00 24.29 LIG 0.16  HD
ATOM     58  C   VAL P   1     -23.488   7.928  12.616  1.00 26.39 LIG 0.25  C 
ATOM     59 O    VAL P   1     -22.905   7.933  13.740  1.00 26.90 LIG-0.27  OA
BRANCH 58 60
ATOM     60  CA  VAL P   1     -24.914   7.416  12.480  1.00 27.40 LIG 0.28  C 
BRANCH 60 61
ATOM     61  CB  VAL P   1     -25.593   7.260  13.879  1.00 27.20 LIG 0.02  C 
ATOM     62  CG2 VAL P   1     -26.706   6.213  13.764  1.00 28.02 LIG 0.01  C 
ATOM     63  CG1 VAL P   1     -26.141   8.638  14.178  1.00 27.17 LIG 0.01  C 
ENDBRANCH 60 61
BRANCH 60 64
ATOM     64  N   VAL P   1     -24.981   6.154  11.812  1.00 29.12 LIG-0.07  N 
ATOM     65 H2   VAL P   1     -24.770   5.504  12.381  1.00 29.12 LIG 0.28  HD
ATOM     66 H1   VAL P   1     -24.408   6.148  11.130  1.00 29.12 LIG 0.28  HD
ATOM     67 H3   VAL P   1     -25.807   6.023  11.506  1.00 29.12 LIG 0.28  HD
ENDBRANCH 60 64
ENDBRANCH 58 60
ENDBRANCH 55 56
BRANCH 55 68
ATOM     68  CB  VAL P   2     -20.616   8.553  10.313  1.00 25.03 LIG 0.01  C 
ATOM     69  CG2 VAL P   2     -19.213   9.161  10.505  1.00 23.99 LIG 0.01  C 
ATOM     70  CG1 VAL P   2     -21.250   9.138   9.065  1.00 25.56 LIG 0.01  C 
ENDBRANCH 55 68
ENDBRANCH 53 55
ENDBRANCH 47 51
ENDBRANCH 44 47
ENDBRANCH 1 43
TORSDOF 26
ENDMDL
MODEL 31
USER: ADFR SOLUTION from run 27
USER: SCORE 19.323330 LL:  -5.260 LR: -14.380 RR:   0.000 FEB:  -6.624
USER: RMSD 8.949583
USER: SEED 26
USER: STATUS searching
USER: GENES 28
USER: genes 0 Translation |==|  0.49628 0.50106 0.69283
USER: genes 1 Rotation |==|  0.44689 0.48705 0.99557 0.53773
USER: genes 2 Torsion [N]-CA--C-[N] |==|  0.37865
USER: genes 3 Torsion [C]-N--CA-[CB] |==|  0.80627
USER: genes 4 Torsion [N]-CA--CB-[CG] |==|  0.32570
USER: genes 5 Torsion [CA]-CB--CG-[CD2] |==|  0.70942
USER: genes 6 Torsion [N]-CA--C-[N] |==|  0.34011
USER: genes 7 Torsion [C]-N--CA-[CB] |==|  0.14474
USER: genes 8 Torsion [N]-CA--C-[N] |==|  0.11323
USER: genes 9 Torsion [C]-N--CA-[C] |==|  0.71064
USER: genes 10 Torsion [N]-CA--C-[O] |==|  0.10521
USER: genes 11 Torsion [N]-CA--CB-[CG] |==|  0.00530
USER: genes 12 Torsion [CA]-CB--CG-[OD1] |==|  0.13027
USER: genes 13 Torsion [N]-CA--CB-[CG] |==|  0.66029
USER: genes 14 Torsion [CA]-CB--CG-[OD1] |==|  0.98456
USER: genes 15 Torsion [C]-CA--CB-[CG] |==|  0.00240
USER: genes 16 Torsion [CA]-CB--CG-[CD2] |==|  0.26903
USER: genes 17 Torsion [C]-CA--N-[C] |==|  0.84034
USER: genes 18 Torsion [N]-C--CA-[N] |==|  0.96479
USER: genes 19 Torsion [C]-CA--CB-[OG] |==|  0.42029
USER: genes 20 Torsion [CA]-CB--OG-[HG] |==|  0.93901
USER: genes 21 Torsion [C]-CA--N-[C] |==|  0.82356
USER: genes 22 Torsion [N]-C--CA-[N] |==|  0.92192
USER: genes 23 Torsion [C]-CA--N-[C] |==|  0.85385
USER: genes 24 Torsion [N]-C--CA-[N] |==|  0.47084
USER: genes 25 Torsion [C]-CA--CB-[CG2] |==|  0.20567
USER: genes 26 Torsion [C]-CA--N-[H2] |==|  0.99592
USER: genes 27 Torsion [C]-CA--CB-[CG2] |==|  0.50631
ROOT
ATOM      1  CA  HIS P   4     -17.732  12.508  13.574  1.00 23.76 LIG 0.18  C 
ENDROOT
BRANCH 1 2
ATOM      2  C   HIS P   4     -16.583  11.890  12.764  1.00 25.01 LIG 0.24  C 
ATOM      3 O    HIS P   4     -16.683  10.752  12.288  1.00 23.35 LIG-0.27  OA
ATOM      4  N   PHE P   5     -15.463  12.605  12.671  1.00 23.15 LIG-0.35  N 
ATOM      5 H    PHE P   5     -15.350  13.359  13.069  1.00 23.15 LIG 0.16  HD
BRANCH 4 6
ATOM      6  CA  PHE P   5     -14.320  12.178  11.887  1.00 24.23 LIG 0.18  C 
BRANCH 6 7
ATOM      7  CB  PHE P   5     -13.664  10.948  12.584  1.00 25.15 LIG 0.07  C 
BRANCH 7 8
ATOM      8  CG  PHE P   5     -13.728   9.735  11.712  1.00 25.22 LIG-0.06  A 
ATOM      9  CD2 PHE P   5     -14.666   8.762  12.043  1.00 26.21 LIG 0.01  A 
ATOM     10  CE2 PHE P   5     -14.731   7.594  11.340  1.00 26.58 LIG 0.00  A 
ATOM     11  CZ  PHE P   5     -13.893   7.398  10.256  1.00 27.68 LIG 0.00  A 
ATOM     12  CE1 PHE P   5     -12.972   8.355   9.907  1.00 26.50 LIG 0.00  A 
ATOM     13  CD1 PHE P   5     -12.893   9.532  10.641  1.00 25.73 LIG 0.01  A 
ENDBRANCH 7 8
ENDBRANCH 6 7
BRANCH 6 14
ATOM     14  C   PHE P   5     -14.636  11.898  10.434  1.00 25.59 LIG 0.24  C 
ATOM     15 O    PHE P   5     -15.550  11.116  10.103  1.00 25.82 LIG-0.27  OA
ATOM     16  N   ASN P   6     -13.950  12.591   9.545  1.00 24.53 LIG-0.35  N 
ATOM     17 H    ASN P   6     -13.335  13.159   9.743  1.00 24.53 LIG 0.16  HD
BRANCH 16 18
ATOM     18  CA  ASN P   6     -14.195  12.435   8.118  1.00 25.84 LIG 0.18  C 
BRANCH 18 19
ATOM     19  C   ASN P   6     -13.345  13.337   7.253  1.00 25.26 LIG 0.24  C 
ATOM     20  N   ASP P   7     -12.053  13.505   7.598  1.00 26.59 LIG-0.34  N 
ATOM     21 H    ASP P   7     -11.682  13.157   8.292  1.00 26.59 LIG 0.16  HD
ATOM     22 O    ASN P   6     -13.858  13.915   6.292  1.00 25.72 LIG-0.27  OA
BRANCH 20 23
ATOM     23  CA  ASP P   7     -11.183  14.318   6.780  1.00 25.93 LIG 0.20  C 
BRANCH 23 24
ATOM     24  C   ASP P   7     -10.253  13.417   5.952  1.00 27.07 LIG 0.20  C 
ATOM     25 O    ASP P   7     -10.758  12.393   5.526  1.00 28.96 LIG-0.65  OA
ATOM     26 OXT  ASP P   7      -9.031  13.829   5.694  1.00 29.63 LIG-0.65  OA
ENDBRANCH 23 24
BRANCH 23 27
ATOM     27  CB  ASP P   7     -10.278  15.288   7.565  1.00 25.41 LIG 0.15  C 
BRANCH 27 28
ATOM     28  CG  ASP P   7     -10.438  15.175   9.059  1.00 25.37 LIG 0.17  C 
ATOM     29 OD1  ASP P   7     -10.451  14.087   9.677  1.00 26.66 LIG-0.65  OA
ATOM     30 OD2  ASP P   7     -10.526  16.283   9.691  1.00 23.76 LIG-0.65  OA
ENDBRANCH 27 28
ENDBRANCH 23 27
ENDBRANCH 20 23
ENDBRANCH 18 19
BRANCH 18 31
ATOM     31  CB  ASN P   6     -15.685  12.605   7.816  1.00 24.75 LIG 0.14  C 
BRANCH 31 32
ATOM     32  CG  ASN P   6     -16.262  11.384   7.131  1.00 27.24 LIG 0.22  C 
ATOM     33  ND2 ASN P   6     -17.587  11.482   7.036  1.00 23.85 LIG-0.37  N 
ATOM     34 21HD ASN P   6     -18.042  10.835   6.698  1.00 23.85 LIG 0.16  HD
ATOM     35 22HD ASN P   6     -17.987  12.192   7.311  1.00 23.85 LIG 0.16  HD
ATOM     36 OD1  ASN P   6     -15.508  10.430   6.783  1.00 24.90 LIG-0.27  OA
ENDBRANCH 31 32
ENDBRANCH 18 31
ENDBRANCH 16 18
ENDBRANCH 6 14
ENDBRANCH 4 6
ENDBRANCH 1 2
BRANCH 1 37
ATOM     37  CB  HIS P   4     -17.736  11.861  14.959  1.00 21.80 LIG 0.10  C 
BRANCH 37 38
ATOM     38  CG  HIS P   4     -16.645  10.852  15.153  1.00 23.01 LIG 0.06  A 
ATOM     39  CD2 HIS P   4     -15.433  10.907  15.704  1.00 23.26 LIG 0.14  A 
ATOM     40 NE2  HIS P   4     -14.968   9.619  15.786  1.00 21.45 LIG-0.25  NA
ATOM     41  CE1 HIS P   4     -15.883   8.775  15.320  1.00 22.12 LIG 0.23  A 
ATOM     42 ND1  HIS P   4     -16.904   9.480  14.949  1.00 22.83 LIG-0.24  NA
ENDBRANCH 37 38
ENDBRANCH 1 37
BRANCH 1 43
ATOM     43  N   HIS P   4     -18.985  12.290  12.800  1.00 22.02 LIG-0.35  N 
ATOM     44  C   SER P   3     -19.051  12.766  11.557  1.00 24.42 LIG 0.24  C 
ATOM     45 O    SER P   3     -18.105  13.403  11.065  1.00 24.72 LIG-0.27  OA
ATOM     46 H    HIS P   4     -19.610  11.861  13.207  1.00 22.02 LIG 0.16  HD
BRANCH 44 47
ATOM     47  CA  SER P   3     -20.352  12.607  10.787  1.00 22.14 LIG 0.20  C 
BRANCH 47 48
ATOM     48  CB  SER P   3     -21.079  13.951  10.574  1.00 23.32 LIG 0.20  C 
BRANCH 48 49
ATOM     49 OG   SER P   3     -21.856  13.887   9.358  1.00 23.11 LIG-0.40  OA
ATOM     50 HG   SER P   3     -21.546  13.286   8.859  1.00 23.11 LIG 0.21  HD
ENDBRANCH 48 49
ENDBRANCH 47 48
BRANCH 47 51
ATOM     51  N   SER P   3     -21.299  11.681  11.411  1.00 22.53 LIG-0.34  N 
ATOM     52 H    SER P   3     -22.037  12.039  11.669  1.00 22.53 LIG 0.16  HD
ATOM     53  C   VAL P   2     -21.003  10.393  11.551  1.00 22.76 LIG 0.24  C 
ATOM     54 O    VAL P   2     -19.857   9.950  11.311  1.00 25.85 LIG-0.27  OA
BRANCH 53 55
ATOM     55  CA  VAL P   2     -22.083   9.515  12.189  1.00 24.07 LIG 0.18  C 
BRANCH 55 56
ATOM     56  N   VAL P   2     -22.926  10.295  13.096  1.00 24.29 LIG-0.35  N 
ATOM     57 H    VAL P   2     -23.773  10.238  12.959  1.00 24.29 LIG 0.16  HD
ATOM     58  C   VAL P   1     -22.342  11.035  14.066  1.00 26.39 LIG 0.25  C 
ATOM     59 O    VAL P   1     -21.083  11.053  14.205  1.00 26.90 LIG-0.27  OA
BRANCH 58 60
ATOM     60  CA  VAL P   1     -23.243  11.808  15.018  1.00 27.40 LIG 0.28  C 
BRANCH 60 61
ATOM     61  CB  VAL P   1     -23.961  12.985  14.284  1.00 27.20 LIG 0.02  C 
ATOM     62  CG2 VAL P   1     -25.066  12.400  13.397  1.00 28.02 LIG 0.01  C 
ATOM     63  CG1 VAL P   1     -22.865  13.634  13.468  1.00 27.17 LIG 0.01  C 
ENDBRANCH 60 61
BRANCH 60 64
ATOM     64  N   VAL P   1     -22.527  12.350  16.130  1.00 29.12 LIG-0.07  N 
ATOM     65 H2   VAL P   1     -21.670  12.116  16.075  1.00 29.12 LIG 0.28  HD
ATOM     66 H1   VAL P   1     -22.872  12.034  16.888  1.00 29.12 LIG 0.28  HD
ATOM     67 H3   VAL P   1     -22.592  13.238  16.121  1.00 29.12 LIG 0.28  HD
ENDBRANCH 60 64
ENDBRANCH 58 60
ENDBRANCH 55 56
BRANCH 55 68
ATOM     68  CB  VAL P   2     -22.863   8.815  11.038  1.00 25.03 LIG 0.01  C 
ATOM     69  CG2 VAL P   2     -24.000   7.964  11.637  1.00 23.99 LIG 0.01  C 
ATOM     70  CG1 VAL P   2     -21.978   7.934  10.176  1.00 25.56 LIG 0.01  C 
ENDBRANCH 55 68
ENDBRANCH 53 55
ENDBRANCH 47 51
ENDBRANCH 44 47
ENDBRANCH 1 43
TORSDOF 26
ENDMDL
MODEL 32
USER: ADFR SOLUTION from run 191
USER: SCORE 17.184532 LL:  -5.829 LR: -14.357 RR:   0.000 FEB:  -6.601
USER: RMSD 6.094478
USER: SEED 190
USER: STATUS no improvement in best in 6 clusters for 5 generations
USER: GENES 28
USER: genes 0 Translation |==|  0.58873 0.39788 0.68143
USER: genes 1 Rotation |==|  0.44237 0.74809 0.38366 0.91424
USER: genes 2 Torsion [N]-CA--C-[N] |==|  0.85650
USER: genes 3 Torsion [C]-N--CA-[CB] |==|  0.50556
USER: genes 4 Torsion [N]-CA--CB-[CG] |==|  0.58117
USER: genes 5 Torsion [CA]-CB--CG-[CD2] |==|  0.71832
USER: genes 6 Torsion [N]-CA--C-[N] |==|  0.45948
USER: genes 7 Torsion [C]-N--CA-[CB] |==|  0.15759
USER: genes 8 Torsion [N]-CA--C-[N] |==|  0.56908
USER: genes 9 Torsion [C]-N--CA-[C] |==|  0.61443
USER: genes 10 Torsion [N]-CA--C-[O] |==|  0.46221
USER: genes 11 Torsion [N]-CA--CB-[CG] |==|  0.62068
USER: genes 12 Torsion [CA]-CB--CG-[OD1] |==|  0.86243
USER: genes 13 Torsion [N]-CA--CB-[CG] |==|  0.18258
USER: genes 14 Torsion [CA]-CB--CG-[OD1] |==|  0.25381
USER: genes 15 Torsion [C]-CA--CB-[CG] |==|  0.57198
USER: genes 16 Torsion [CA]-CB--CG-[CD2] |==|  0.75915
USER: genes 17 Torsion [C]-CA--N-[C] |==|  0.58714
USER: genes 18 Torsion [N]-C--CA-[N] |==|  0.00094
USER: genes 19 Torsion [C]-CA--CB-[OG] |==|  0.22180
USER: genes 20 Torsion [CA]-CB--OG-[HG] |==|  0.71287
USER: genes 21 Torsion [C]-CA--N-[C] |==|  0.21049
USER: genes 22 Torsion [N]-C--CA-[N] |==|  0.11522
USER: genes 23 Torsion [C]-CA--N-[C] |==|  0.76378
USER: genes 24 Torsion [N]-C--CA-[N] |==|  0.52530
USER: genes 25 Torsion [C]-CA--CB-[CG2] |==|  0.83032
USER: genes 26 Torsion [C]-CA--N-[H2] |==|  0.94061
USER: genes 27 Torsion [C]-CA--CB-[CG2] |==|  0.56239
ROOT
ATOM      1  CA  HIS P   4     -15.721  10.728  13.326  1.00 23.76 LIG 0.18  C 
ENDROOT
BRANCH 1 2
ATOM      2  C   HIS P   4     -16.889  11.720  13.425  1.00 25.01 LIG 0.24  C 
ATOM      3 O    HIS P   4     -17.895  11.451  14.096  1.00 23.35 LIG-0.27  OA
ATOM      4  N   PHE P   5     -16.796  12.831  12.697  1.00 23.15 LIG-0.35  N 
ATOM      5 H    PHE P   5     -16.143  12.991  12.160  1.00 23.15 LIG 0.16  HD
BRANCH 4 6
ATOM      6  CA  PHE P   5     -17.791  13.885  12.739  1.00 24.23 LIG 0.18  C 
BRANCH 6 7
ATOM      7  CB  PHE P   5     -17.384  15.000  11.728  1.00 25.15 LIG 0.07  C 
BRANCH 7 8
ATOM      8  CG  PHE P   5     -17.879  16.339  12.172  1.00 25.22 LIG-0.06  A 
ATOM      9  CD2 PHE P   5     -19.021  16.833  11.551  1.00 26.21 LIG 0.01  A 
ATOM     10  CE2 PHE P   5     -19.489  18.081  11.849  1.00 26.58 LIG 0.00  A 
ATOM     11  CZ  PHE P   5     -18.851  18.839  12.814  1.00 27.68 LIG 0.00  A 
ATOM     12  CE1 PHE P   5     -17.731  18.359  13.448  1.00 26.50 LIG 0.00  A 
ATOM     13  CD1 PHE P   5     -17.244  17.099  13.124  1.00 25.73 LIG 0.01  A 
ENDBRANCH 7 8
ENDBRANCH 6 7
BRANCH 6 14
ATOM     14  C   PHE P   5     -19.208  13.409  12.510  1.00 25.59 LIG 0.24  C 
ATOM     15 O    PHE P   5     -19.452  12.250  12.117  1.00 25.82 LIG-0.27  OA
ATOM     16  N   ASN P   6     -20.167  14.258  12.829  1.00 24.53 LIG-0.35  N 
ATOM     17 H    ASN P   6     -20.030  15.052  13.130  1.00 24.53 LIG 0.16  HD
BRANCH 16 18
ATOM     18  CA  ASN P   6     -21.570  13.894  12.689  1.00 25.84 LIG 0.18  C 
BRANCH 18 19
ATOM     19  C   ASN P   6     -22.525  15.013  13.035  1.00 25.26 LIG 0.24  C 
ATOM     20  N   ASP P   7     -23.768  14.679  13.433  1.00 26.59 LIG-0.34  N 
ATOM     21 H    ASP P   7     -24.068  13.874  13.479  1.00 26.59 LIG 0.16  HD
ATOM     22 O    ASN P   6     -22.159  16.184  12.911  1.00 25.72 LIG-0.27  OA
BRANCH 20 23
ATOM     23  CA  ASP P   7     -24.708  15.706  13.823  1.00 25.93 LIG 0.20  C 
BRANCH 23 24
ATOM     24  C   ASP P   7     -25.491  15.253  15.064  1.00 27.07 LIG 0.20  C 
ATOM     25 O    ASP P   7     -26.121  16.127  15.635  1.00 28.96 LIG-0.65  OA
ATOM     26 OXT  ASP P   7     -25.501  13.977  15.380  1.00 29.63 LIG-0.65  OA
ENDBRANCH 23 24
BRANCH 23 27
ATOM     27  CB  ASP P   7     -25.751  16.069  12.747  1.00 25.41 LIG 0.15  C 
BRANCH 27 28
ATOM     28  CG  ASP P   7     -25.973  17.554  12.610  1.00 25.37 LIG 0.17  C 
ATOM     29 OD1  ASP P   7     -26.194  18.316  13.577  1.00 26.66 LIG-0.65  OA
ATOM     30 OD2  ASP P   7     -25.885  18.017  11.422  1.00 23.76 LIG-0.65  OA
ENDBRANCH 27 28
ENDBRANCH 23 27
ENDBRANCH 20 23
ENDBRANCH 18 19
BRANCH 18 31
ATOM     31  CB  ASN P   6     -21.872  12.627  13.492  1.00 24.75 LIG 0.14  C 
BRANCH 31 32
ATOM     32  CG  ASN P   6     -21.719  12.857  14.980  1.00 27.24 LIG 0.22  C 
ATOM     33  ND2 ASN P   6     -20.479  12.573  15.374  1.00 23.85 LIG-0.37  N 
ATOM     34 21HD ASN P   6     -20.269  12.627  16.206  1.00 23.85 LIG 0.16  HD
ATOM     35 22HD ASN P   6     -19.888  12.336  14.796  1.00 23.85 LIG 0.16  HD
ATOM     36 OD1  ASN P   6     -22.711  13.219  15.676  1.00 24.90 LIG-0.27  OA
ENDBRANCH 31 32
ENDBRANCH 18 31
ENDBRANCH 16 18
ENDBRANCH 6 14
ENDBRANCH 4 6
ENDBRANCH 1 2
BRANCH 1 37
ATOM     37  CB  HIS P   4     -14.522  11.337  14.051  1.00 21.80 LIG 0.10  C 
BRANCH 37 38
ATOM     38  CG  HIS P   4     -13.200  10.838  13.552  1.00 23.01 LIG 0.06  A 
ATOM     39  CD2 HIS P   4     -12.445   9.783  13.856  1.00 23.26 LIG 0.14  A 
ATOM     40 NE2  HIS P   4     -11.440   9.724  12.924  1.00 21.45 LIG-0.25  NA
ATOM     41  CE1 HIS P   4     -11.582  10.708  12.040  1.00 22.12 LIG 0.23  A 
ATOM     42 ND1  HIS P   4     -12.634  11.382  12.379  1.00 22.83 LIG-0.24  NA
ENDBRANCH 37 38
ENDBRANCH 1 37
BRANCH 1 43
ATOM     43  N   HIS P   4     -15.485  10.467  11.879  1.00 22.02 LIG-0.35  N 
ATOM     44  C   SER P   3     -15.030   9.266  11.520  1.00 24.42 LIG 0.24  C 
ATOM     45 O    SER P   3     -14.778   8.398  12.371  1.00 24.72 LIG-0.27  OA
ATOM     46 H    HIS P   4     -15.659  11.118  11.344  1.00 22.02 LIG 0.16  HD
BRANCH 44 47
ATOM     47  CA  SER P   3     -14.722   9.016  10.053  1.00 22.14 LIG 0.20  C 
BRANCH 47 48
ATOM     48  CB  SER P   3     -13.266   8.562   9.825  1.00 23.32 LIG 0.20  C 
BRANCH 48 49
ATOM     49 OG   SER P   3     -13.151   7.155  10.130  1.00 23.11 LIG-0.40  OA
ATOM     50 HG   SER P   3     -12.783   7.059  10.879  1.00 23.11 LIG 0.21  HD
ENDBRANCH 48 49
ENDBRANCH 47 48
BRANCH 47 51
ATOM     51  N   SER P   3     -14.968  10.175   9.192  1.00 22.53 LIG-0.34  N 
ATOM     52 H    SER P   3     -15.684  10.126   8.717  1.00 22.53 LIG 0.16  HD
ATOM     53  C   VAL P   2     -14.126  11.203   9.173  1.00 22.76 LIG 0.24  C 
ATOM     54 O    VAL P   2     -13.019  11.159   9.756  1.00 25.85 LIG-0.27  OA
BRANCH 53 55
ATOM     55  CA  VAL P   2     -14.504  12.371   8.258  1.00 24.07 LIG 0.18  C 
BRANCH 55 56
ATOM     56  N   VAL P   2     -15.937  12.660   8.339  1.00 24.29 LIG-0.35  N 
ATOM     57 H    VAL P   2     -16.162  13.278   8.892  1.00 24.29 LIG 0.16  HD
ATOM     58  C   VAL P   1     -16.794  11.959   7.562  1.00 26.39 LIG 0.25  C 
ATOM     59 O    VAL P   1     -16.375  11.070   6.763  1.00 26.90 LIG-0.27  OA
BRANCH 58 60
ATOM     60  CA  VAL P   1     -18.274  12.304   7.638  1.00 27.40 LIG 0.28  C 
BRANCH 60 61
ATOM     61  CB  VAL P   1     -18.764  12.360   9.120  1.00 27.20 LIG 0.02  C 
ATOM     62  CG2 VAL P   1     -18.559  10.978   9.752  1.00 28.02 LIG 0.01  C 
ATOM     63  CG1 VAL P   1     -20.230  12.720   9.011  1.00 27.17 LIG 0.01  C 
ENDBRANCH 60 61
BRANCH 60 64
ATOM     64  N   VAL P   1     -19.092  11.365   6.936  1.00 29.12 LIG-0.07  N 
ATOM     65 H2   VAL P   1     -18.599  10.934   6.334  1.00 29.12 LIG 0.28  HD
ATOM     66 H1   VAL P   1     -19.752  11.797   6.523  1.00 29.12 LIG 0.28  HD
ATOM     67 H3   VAL P   1     -19.435  10.780   7.512  1.00 29.12 LIG 0.28  HD
ENDBRANCH 60 64
ENDBRANCH 58 60
ENDBRANCH 55 56
BRANCH 55 68
ATOM     68  CB  VAL P   2     -13.590  13.576   8.628  1.00 25.03 LIG 0.01  C 
ATOM     69  CG2 VAL P   2     -14.266  14.886   8.177  1.00 23.99 LIG 0.01  C 
ATOM     70  CG1 VAL P   2     -12.210  13.483   8.004  1.00 25.56 LIG 0.01  C 
ENDBRANCH 55 68
ENDBRANCH 53 55
ENDBRANCH 47 51
ENDBRANCH 44 47
ENDBRANCH 1 43
TORSDOF 26
ENDMDL
MODEL 33
USER: ADFR SOLUTION from run 85
USER: SCORE 18.244075 LL:  -5.162 LR: -14.341 RR:   0.000 FEB:  -6.585
USER: RMSD 5.285548
USER: SEED 84
USER: STATUS searching
USER: GENES 28
USER: genes 0 Translation |==|  0.53066 0.30837 0.63355
USER: genes 1 Rotation |==|  0.54468 0.52933 0.47685 0.99660
USER: genes 2 Torsion [N]-CA--C-[N] |==|  0.48177
USER: genes 3 Torsion [C]-N--CA-[CB] |==|  0.22222
USER: genes 4 Torsion [N]-CA--CB-[CG] |==|  0.64361
USER: genes 5 Torsion [CA]-CB--CG-[CD2] |==|  0.65757
USER: genes 6 Torsion [N]-CA--C-[N] |==|  0.01949
USER: genes 7 Torsion [C]-N--CA-[CB] |==|  0.77973
USER: genes 8 Torsion [N]-CA--C-[N] |==|  0.16787
USER: genes 9 Torsion [C]-N--CA-[C] |==|  0.21215
USER: genes 10 Torsion [N]-CA--C-[O] |==|  0.63686
USER: genes 11 Torsion [N]-CA--CB-[CG] |==|  0.84170
USER: genes 12 Torsion [CA]-CB--CG-[OD1] |==|  0.29364
USER: genes 13 Torsion [N]-CA--CB-[CG] |==|  0.92889
USER: genes 14 Torsion [CA]-CB--CG-[OD1] |==|  0.22689
USER: genes 15 Torsion [C]-CA--CB-[CG] |==|  0.87690
USER: genes 16 Torsion [CA]-CB--CG-[CD2] |==|  0.81585
USER: genes 17 Torsion [C]-CA--N-[C] |==|  0.57659
USER: genes 18 Torsion [N]-C--CA-[N] |==|  0.90831
USER: genes 19 Torsion [C]-CA--CB-[OG] |==|  0.68418
USER: genes 20 Torsion [CA]-CB--OG-[HG] |==|  0.45563
USER: genes 21 Torsion [C]-CA--N-[C] |==|  0.76695
USER: genes 22 Torsion [N]-C--CA-[N] |==|  0.39774
USER: genes 23 Torsion [C]-CA--N-[C] |==|  0.63969
USER: genes 24 Torsion [N]-C--CA-[N] |==|  0.77885
USER: genes 25 Torsion [C]-CA--CB-[CG2] |==|  0.49566
USER: genes 26 Torsion [C]-CA--N-[H2] |==|  0.42259
USER: genes 27 Torsion [C]-CA--CB-[CG2] |==|  0.68539
ROOT
ATOM      1  CA  HIS P   4     -16.984   9.184  12.285  1.00 23.76 LIG 0.18  C 
ENDROOT
BRANCH 1 2
ATOM      2  C   HIS P   4     -18.069   9.944  11.508  1.00 25.01 LIG 0.24  C 
ATOM      3 O    HIS P   4     -17.771  10.867  10.739  1.00 23.35 LIG-0.27  OA
ATOM      4  N   PHE P   5     -19.333   9.611  11.763  1.00 23.15 LIG-0.35  N 
ATOM      5 H    PHE P   5     -19.558   9.031  12.358  1.00 23.15 LIG 0.16  HD
BRANCH 4 6
ATOM      6  CA  PHE P   5     -20.459  10.196  11.061  1.00 24.23 LIG 0.18  C 
BRANCH 6 7
ATOM      7  CB  PHE P   5     -20.611   9.489   9.680  1.00 25.15 LIG 0.07  C 
BRANCH 7 8
ATOM      8  CG  PHE P   5     -20.677  10.485   8.567  1.00 25.22 LIG-0.06  A 
ATOM      9  CD2 PHE P   5     -21.793  10.441   7.739  1.00 26.21 LIG 0.01  A 
ATOM     10  CE2 PHE P   5     -21.888  11.268   6.656  1.00 26.58 LIG 0.00  A 
ATOM     11  CZ  PHE P   5     -20.888  12.193   6.412  1.00 27.68 LIG 0.00  A 
ATOM     12  CE1 PHE P   5     -19.787  12.259   7.229  1.00 26.50 LIG 0.00  A 
ATOM     13  CD1 PHE P   5     -19.683  11.400   8.315  1.00 25.73 LIG 0.01  A 
ENDBRANCH 7 8
ENDBRANCH 6 7
BRANCH 6 14
ATOM     14  C   PHE P   5     -21.752  10.183  11.844  1.00 25.59 LIG 0.24  C 
ATOM     15 O    PHE P   5     -22.844  10.459  11.307  1.00 25.82 LIG-0.27  OA
ATOM     16  N   ASN P   6     -21.670   9.783  13.099  1.00 24.53 LIG-0.35  N 
ATOM     17 H    ASN P   6     -20.936   9.559  13.488  1.00 24.53 LIG 0.16  HD
BRANCH 16 18
ATOM     18  CA  ASN P   6     -22.856   9.693  13.939  1.00 25.84 LIG 0.18  C 
BRANCH 18 19
ATOM     19  C   ASN P   6     -24.021   8.998  13.272  1.00 25.26 LIG 0.24  C 
ATOM     20  N   ASP P   7     -23.850   7.720  12.880  1.00 26.59 LIG-0.34  N 
ATOM     21 H    ASP P   7     -23.116   7.277  12.956  1.00 26.59 LIG 0.16  HD
ATOM     22 O    ASN P   6     -25.066   9.620  13.074  1.00 25.72 LIG-0.27  OA
BRANCH 20 23
ATOM     23  CA  ASP P   7     -24.945   6.992  12.279  1.00 25.93 LIG 0.20  C 
BRANCH 23 24
ATOM     24  C   ASP P   7     -25.139   7.447  10.825  1.00 27.07 LIG 0.20  C 
ATOM     25 O    ASP P   7     -26.282   7.731  10.512  1.00 28.96 LIG-0.65  OA
ATOM     26 OXT  ASP P   7     -24.083   7.577  10.052  1.00 29.63 LIG-0.65  OA
ENDBRANCH 23 24
BRANCH 23 27
ATOM     27  CB  ASP P   7     -26.304   7.171  12.985  1.00 25.41 LIG 0.15  C 
BRANCH 27 28
ATOM     28  CG  ASP P   7     -26.274   6.788  14.443  1.00 25.37 LIG 0.17  C 
ATOM     29 OD1  ASP P   7     -26.283   7.617  15.380  1.00 26.66 LIG-0.65  OA
ATOM     30 OD2  ASP P   7     -26.276   5.533  14.684  1.00 23.76 LIG-0.65  OA
ENDBRANCH 27 28
ENDBRANCH 23 27
ENDBRANCH 20 23
ENDBRANCH 18 19
BRANCH 18 31
ATOM     31  CB  ASN P   6     -23.247  11.079  14.454  1.00 24.75 LIG 0.14  C 
BRANCH 31 32
ATOM     32  CG  ASN P   6     -22.058  12.013  14.509  1.00 27.24 LIG 0.22  C 
ATOM     33  ND2 ASN P   6     -21.597  12.113  15.755  1.00 23.85 LIG-0.37  N 
ATOM     34 21HD ASN P   6     -20.942  12.643  15.930  1.00 23.85 LIG 0.16  HD
ATOM     35 22HD ASN P   6     -21.953  11.647  16.384  1.00 23.85 LIG 0.16  HD
ATOM     36 OD1  ASN P   6     -21.665  12.611  13.466  1.00 24.90 LIG-0.27  OA
ENDBRANCH 31 32
ENDBRANCH 18 31
ENDBRANCH 16 18
ENDBRANCH 6 14
ENDBRANCH 4 6
ENDBRANCH 1 2
BRANCH 1 37
ATOM     37  CB  HIS P   4     -17.158   9.499  13.770  1.00 21.80 LIG 0.10  C 
BRANCH 37 38
ATOM     38  CG  HIS P   4     -17.403  10.950  14.052  1.00 23.01 LIG 0.06  A 
ATOM     39  CD2 HIS P   4     -16.659  12.048  13.918  1.00 23.26 LIG 0.14  A 
ATOM     40 NE2  HIS P   4     -17.483  13.123  14.137  1.00 21.45 LIG-0.25  NA
ATOM     41  CE1 HIS P   4     -18.722  12.704  14.376  1.00 22.12 LIG 0.23  A 
ATOM     42 ND1  HIS P   4     -18.710  11.410  14.316  1.00 22.83 LIG-0.24  NA
ENDBRANCH 37 38
ENDBRANCH 1 37
BRANCH 1 43
ATOM     43  N   HIS P   4     -15.668   9.602  11.727  1.00 22.02 LIG-0.35  N 
ATOM     44  C   SER P   3     -14.650   8.745  11.801  1.00 24.42 LIG 0.24  C 
ATOM     45 O    SER P   3     -14.784   7.639  12.349  1.00 24.72 LIG-0.27  OA
ATOM     46 H    HIS P   4     -15.637  10.389  11.381  1.00 22.02 LIG 0.16  HD
BRANCH 44 47
ATOM     47  CA  SER P   3     -13.287   9.192  11.296  1.00 22.14 LIG 0.20  C 
BRANCH 47 48
ATOM     48  CB  SER P   3     -12.440   9.860  12.398  1.00 23.32 LIG 0.20  C 
BRANCH 48 49
ATOM     49 OG   SER P   3     -12.249  11.254  12.074  1.00 23.11 LIG-0.40  OA
ATOM     50 HG   SER P   3     -11.986  11.667  12.757  1.00 23.11 LIG 0.21  HD
ENDBRANCH 48 49
ENDBRANCH 47 48
BRANCH 47 51
ATOM     51  N   SER P   3     -13.351  10.114  10.161  1.00 22.53 LIG-0.34  N 
ATOM     52 H    SER P   3     -13.300  10.947  10.370  1.00 22.53 LIG 0.16  HD
ATOM     53  C   VAL P   2     -13.480   9.660   8.918  1.00 22.76 LIG 0.24  C 
ATOM     54 O    VAL P   2     -13.713   8.455   8.677  1.00 25.85 LIG-0.27  OA
BRANCH 53 55
ATOM     55  CA  VAL P   2     -13.503  10.717   7.810  1.00 24.07 LIG 0.18  C 
BRANCH 55 56
ATOM     56  N   VAL P   2     -12.806  10.240   6.614  1.00 24.29 LIG-0.35  N 
ATOM     57 H    VAL P   2     -13.041   9.463   6.332  1.00 24.29 LIG 0.16  HD
ATOM     58  C   VAL P   1     -11.865  11.026   6.044  1.00 26.39 LIG 0.25  C 
ATOM     59 O    VAL P   1     -11.588  12.166   6.521  1.00 26.90 LIG-0.27  OA
BRANCH 58 60
ATOM     60  CA  VAL P   1     -11.181  10.523   4.781  1.00 27.40 LIG 0.28  C 
BRANCH 60 61
ATOM     61  CB  VAL P   1     -12.209   9.856   3.812  1.00 27.20 LIG 0.02  C 
ATOM     62  CG2 VAL P   1     -11.465   9.409   2.548  1.00 28.02 LIG 0.01  C 
ATOM     63  CG1 VAL P   1     -13.208  10.955   3.520  1.00 27.17 LIG 0.01  C 
ENDBRANCH 60 61
BRANCH 60 64
ATOM     64  N   VAL P   1     -10.151   9.572   5.058  1.00 29.12 LIG-0.07  N 
ATOM     65 H2   VAL P   1     -10.059   9.023   4.364  1.00 29.12 LIG 0.28  HD
ATOM     66 H1   VAL P   1     -10.368   9.101   5.782  1.00 29.12 LIG 0.28  HD
ATOM     67 H3   VAL P   1      -9.383   9.999   5.200  1.00 29.12 LIG 0.28  HD
ENDBRANCH 60 64
ENDBRANCH 58 60
ENDBRANCH 55 56
BRANCH 55 68
ATOM     68  CB  VAL P   2     -14.989  11.113   7.566  1.00 25.03 LIG 0.01  C 
ATOM     69  CG2 VAL P   2     -15.416  10.647   6.160  1.00 23.99 LIG 0.01  C 
ATOM     70  CG1 VAL P   2     -15.230  12.606   7.694  1.00 25.56 LIG 0.01  C 
ENDBRANCH 55 68
ENDBRANCH 53 55
ENDBRANCH 47 51
ENDBRANCH 44 47
ENDBRANCH 1 43
TORSDOF 26
ENDMDL
MODEL 34
USER: ADFR SOLUTION from run 78
USER: SCORE 18.431737 LL:  -6.342 LR: -14.306 RR:   0.000 FEB:  -6.550
USER: RMSD 8.509618
USER: SEED 77
USER: STATUS no improvement in best in 5 clusters for 5 generations
USER: GENES 28
USER: genes 0 Translation |==|  0.50230 0.38634 0.68663
USER: genes 1 Rotation |==|  0.48353 0.79326 0.10940 0.60564
USER: genes 2 Torsion [N]-CA--C-[N] |==|  0.02380
USER: genes 3 Torsion [C]-N--CA-[CB] |==|  0.83607
USER: genes 4 Torsion [N]-CA--CB-[CG] |==|  0.72565
USER: genes 5 Torsion [CA]-CB--CG-[CD2] |==|  0.02637
USER: genes 6 Torsion [N]-CA--C-[N] |==|  0.95883
USER: genes 7 Torsion [C]-N--CA-[CB] |==|  0.36379
USER: genes 8 Torsion [N]-CA--C-[N] |==|  0.24319
USER: genes 9 Torsion [C]-N--CA-[C] |==|  0.69470
USER: genes 10 Torsion [N]-CA--C-[O] |==|  0.60127
USER: genes 11 Torsion [N]-CA--CB-[CG] |==|  0.98880
USER: genes 12 Torsion [CA]-CB--CG-[OD1] |==|  0.76898
USER: genes 13 Torsion [N]-CA--CB-[CG] |==|  0.79629
USER: genes 14 Torsion [CA]-CB--CG-[OD1] |==|  0.77310
USER: genes 15 Torsion [C]-CA--CB-[CG] |==|  0.18195
USER: genes 16 Torsion [CA]-CB--CG-[CD2] |==|  0.22792
USER: genes 17 Torsion [C]-CA--N-[C] |==|  0.18531
USER: genes 18 Torsion [N]-C--CA-[N] |==|  0.98927
USER: genes 19 Torsion [C]-CA--CB-[OG] |==|  0.44483
USER: genes 20 Torsion [CA]-CB--OG-[HG] |==|  0.67316
USER: genes 21 Torsion [C]-CA--N-[C] |==|  0.72831
USER: genes 22 Torsion [N]-C--CA-[N] |==|  0.93665
USER: genes 23 Torsion [C]-CA--N-[C] |==|  0.82672
USER: genes 24 Torsion [N]-C--CA-[N] |==|  0.39643
USER: genes 25 Torsion [C]-CA--CB-[CG2] |==|  0.13964
USER: genes 26 Torsion [C]-CA--N-[H2] |==|  0.65376
USER: genes 27 Torsion [C]-CA--CB-[CG2] |==|  0.30227
ROOT
ATOM      1  CA  HIS P   4     -17.601  10.529  13.439  1.00 23.76 LIG 0.18  C 
ENDROOT
BRANCH 1 2
ATOM      2  C   HIS P   4     -16.816  11.717  12.864  1.00 25.01 LIG 0.24  C 
ATOM      3 O    HIS P   4     -15.702  12.018  13.312  1.00 23.35 LIG-0.27  OA
ATOM      4  N   PHE P   5     -17.425  12.441  11.927  1.00 23.15 LIG-0.35  N 
ATOM      5 H    PHE P   5     -18.232  12.295  11.668  1.00 23.15 LIG 0.16  HD
BRANCH 4 6
ATOM      6  CA  PHE P   5     -16.783  13.551  11.249  1.00 24.23 LIG 0.18  C 
BRANCH 6 7
ATOM      7  CB  PHE P   5     -16.359  14.610  12.311  1.00 25.15 LIG 0.07  C 
BRANCH 7 8
ATOM      8  CG  PHE P   5     -17.353  15.724  12.390  1.00 25.22 LIG-0.06  A 
ATOM      9  CD2 PHE P   5     -18.550  15.558  11.701  1.00 26.21 LIG 0.01  A 
ATOM     10  CE2 PHE P   5     -19.475  16.563  11.664  1.00 26.58 LIG 0.00  A 
ATOM     11  CZ  PHE P   5     -19.241  17.734  12.361  1.00 27.68 LIG 0.00  A 
ATOM     12  CE1 PHE P   5     -18.071  17.907  13.060  1.00 26.50 LIG 0.00  A 
ATOM     13  CD1 PHE P   5     -17.123  16.892  13.075  1.00 25.73 LIG 0.01  A 
ENDBRANCH 7 8
ENDBRANCH 6 7
BRANCH 6 14
ATOM     14  C   PHE P   5     -15.626  13.149  10.363  1.00 25.59 LIG 0.24  C 
ATOM     15 O    PHE P   5     -15.101  13.955   9.567  1.00 25.82 LIG-0.27  OA
ATOM     16  N   ASN P   6     -15.151  11.930  10.540  1.00 24.53 LIG-0.35  N 
ATOM     17 H    ASN P   6     -15.472  11.363  11.101  1.00 24.53 LIG 0.16  HD
BRANCH 16 18
ATOM     18  CA  ASN P   6     -14.012  11.447   9.772  1.00 25.84 LIG 0.18  C 
BRANCH 18 19
ATOM     19  C   ASN P   6     -14.391  10.511   8.648  1.00 25.26 LIG 0.24  C 
ATOM     20  N   ASP P   7     -14.703  11.053   7.454  1.00 26.59 LIG-0.34  N 
ATOM     21 H    ASP P   7     -14.728  11.898   7.292  1.00 26.59 LIG 0.16  HD
ATOM     22 O    ASN P   6     -14.441   9.297   8.860  1.00 25.72 LIG-0.27  OA
BRANCH 20 23
ATOM     23  CA  ASP P   7     -15.026  10.202   6.332  1.00 25.93 LIG 0.20  C 
BRANCH 23 24
ATOM     24  C   ASP P   7     -13.899  10.264   5.289  1.00 27.07 LIG 0.20  C 
ATOM     25 O    ASP P   7     -14.259  10.219   4.126  1.00 28.96 LIG-0.65  OA
ATOM     26 OXT  ASP P   7     -12.662  10.436   5.699  1.00 29.63 LIG-0.65  OA
ENDBRANCH 23 24
BRANCH 23 27
ATOM     27  CB  ASP P   7     -16.331  10.569   5.597  1.00 25.41 LIG 0.15  C 
BRANCH 27 28
ATOM     28  CG  ASP P   7     -17.085  11.700   6.250  1.00 25.37 LIG 0.17  C 
ATOM     29 OD1  ASP P   7     -17.863  11.549   7.218  1.00 26.66 LIG-0.65  OA
ATOM     30 OD2  ASP P   7     -16.855  12.863   5.775  1.00 23.76 LIG-0.65  OA
ENDBRANCH 27 28
ENDBRANCH 23 27
ENDBRANCH 20 23
ENDBRANCH 18 19
BRANCH 18 31
ATOM     31  CB  ASN P   6     -12.973  10.819  10.703  1.00 24.75 LIG 0.14  C 
BRANCH 31 32
ATOM     32  CG  ASN P   6     -12.227  11.867  11.499  1.00 27.24 LIG 0.22  C 
ATOM     33  ND2 ASN P   6     -12.780  12.026  12.701  1.00 23.85 LIG-0.37  N 
ATOM     34 21HD ASN P   6     -12.472  12.620  13.241  1.00 23.85 LIG 0.16  HD
ATOM     35 22HD ASN P   6     -13.445  11.533  12.937  1.00 23.85 LIG 0.16  HD
ATOM     36 OD1  ASN P   6     -11.255  12.490  10.984  1.00 24.90 LIG-0.27  OA
ENDBRANCH 31 32
ENDBRANCH 18 31
ENDBRANCH 16 18
ENDBRANCH 6 14
ENDBRANCH 4 6
ENDBRANCH 1 2
BRANCH 1 37
ATOM     37  CB  HIS P   4     -16.682   9.308  13.433  1.00 21.80 LIG 0.10  C 
BRANCH 37 38
ATOM     38  CG  HIS P   4     -15.506   9.436  14.353  1.00 23.01 LIG 0.06  A 
ATOM     39  CD2 HIS P   4     -15.342   9.246  15.661  1.00 23.26 LIG 0.14  A 
ATOM     40 NE2  HIS P   4     -13.995   9.309  15.913  1.00 21.45 LIG-0.25  NA
ATOM     41  CE1 HIS P   4     -13.330   9.507  14.778  1.00 22.12 LIG 0.23  A 
ATOM     42 ND1  HIS P   4     -14.205   9.571  13.825  1.00 22.83 LIG-0.24  NA
ENDBRANCH 37 38
ENDBRANCH 1 37
BRANCH 1 43
ATOM     43  N   HIS P   4     -18.828  10.369  12.612  1.00 22.02 LIG-0.35  N 
ATOM     44  C   SER P   3     -18.689   9.992  11.341  1.00 24.42 LIG 0.24  C 
ATOM     45 O    SER P   3     -17.564   9.810  10.848  1.00 24.72 LIG-0.27  OA
ATOM     46 H    HIS P   4     -19.575  10.532  13.007  1.00 22.02 LIG 0.16  HD
BRANCH 44 47
ATOM     47  CA  SER P   3     -19.932   9.893  10.472  1.00 22.14 LIG 0.20  C 
BRANCH 47 48
ATOM     48  CB  SER P   3     -19.883  10.848   9.262  1.00 23.32 LIG 0.20  C 
BRANCH 48 49
ATOM     49 OG   SER P   3     -20.817  10.395   8.257  1.00 23.11 LIG-0.40  OA
ATOM     50 HG   SER P   3     -20.400  10.196   7.557  1.00 23.11 LIG 0.21  HD
ENDBRANCH 48 49
ENDBRANCH 47 48
BRANCH 47 51
ATOM     51  N   SER P   3     -21.179  10.152  11.195  1.00 22.53 LIG-0.34  N 
ATOM     52 H    SER P   3     -21.373  10.984  11.293  1.00 22.53 LIG 0.16  HD
ATOM     53  C   VAL P   2     -21.927   9.150  11.648  1.00 22.76 LIG 0.24  C 
ATOM     54 O    VAL P   2     -21.525   7.965  11.623  1.00 25.85 LIG-0.27  OA
BRANCH 53 55
ATOM     55  CA  VAL P   2     -23.224   9.541  12.359  1.00 24.07 LIG 0.18  C 
BRANCH 55 56
ATOM     56  N   VAL P   2     -23.149  10.909  12.876  1.00 24.29 LIG-0.35  N 
ATOM     57 H    VAL P   2     -23.717  11.463  12.545  1.00 24.29 LIG 0.16  HD
ATOM     58  C   VAL P   1     -22.221  11.208  13.813  1.00 26.39 LIG 0.25  C 
ATOM     59 O    VAL P   1     -21.429  10.325  14.254  1.00 26.90 LIG-0.27  OA
BRANCH 58 60
ATOM     60  CA  VAL P   1     -22.188  12.628  14.359  1.00 27.40 LIG 0.28  C 
BRANCH 60 61
ATOM     61  CB  VAL P   1     -21.130  13.497  13.606  1.00 27.20 LIG 0.02  C 
ATOM     62  CG2 VAL P   1     -21.358  13.341  12.099  1.00 28.02 LIG 0.01  C 
ATOM     63  CG1 VAL P   1     -19.802  12.918  14.041  1.00 27.17 LIG 0.01  C 
ENDBRANCH 60 61
BRANCH 60 64
ATOM     64  N   VAL P   1     -21.886  12.671  15.755  1.00 29.12 LIG-0.07  N 
ATOM     65 H2   VAL P   1     -22.526  13.114  16.185  1.00 29.12 LIG 0.28  HD
ATOM     66 H1   VAL P   1     -21.106  13.084  15.878  1.00 29.12 LIG 0.28  HD
ATOM     67 H3   VAL P   1     -21.835  11.841  16.073  1.00 29.12 LIG 0.28  HD
ENDBRANCH 60 64
ENDBRANCH 58 60
ENDBRANCH 55 56
BRANCH 55 68
ATOM     68  CB  VAL P   2     -24.399   9.299  11.366  1.00 25.03 LIG 0.01  C 
ATOM     69  CG2 VAL P   2     -25.219   8.080  11.835  1.00 23.99 LIG 0.01  C 
ATOM     70  CG1 VAL P   2     -23.929   9.069   9.942  1.00 25.56 LIG 0.01  C 
ENDBRANCH 55 68
ENDBRANCH 53 55
ENDBRANCH 47 51
ENDBRANCH 44 47
ENDBRANCH 1 43
TORSDOF 26
ENDMDL
MODEL 35
USER: ADFR SOLUTION from run 85
USER: SCORE 18.208904 LL:  -5.967 LR: -14.282 RR:   0.000 FEB:  -6.527
USER: RMSD 4.782356
USER: SEED 84
USER: STATUS searching
USER: GENES 28
USER: genes 0 Translation |==|  0.53865 0.33591 0.65890
USER: genes 1 Rotation |==|  0.40382 0.56006 0.48148 0.98662
USER: genes 2 Torsion [N]-CA--C-[N] |==|  0.50367
USER: genes 3 Torsion [C]-N--CA-[CB] |==|  0.18985
USER: genes 4 Torsion [N]-CA--CB-[CG] |==|  0.60832
USER: genes 5 Torsion [CA]-CB--CG-[CD2] |==|  0.57302
USER: genes 6 Torsion [N]-CA--C-[N] |==|  0.53300
USER: genes 7 Torsion [C]-N--CA-[CB] |==|  0.76650
USER: genes 8 Torsion [N]-CA--C-[N] |==|  0.20682
USER: genes 9 Torsion [C]-N--CA-[C] |==|  0.77137
USER: genes 10 Torsion [N]-CA--C-[O] |==|  0.89219
USER: genes 11 Torsion [N]-CA--CB-[CG] |==|  0.89684
USER: genes 12 Torsion [CA]-CB--CG-[OD1] |==|  0.17048
USER: genes 13 Torsion [N]-CA--CB-[CG] |==|  0.97204
USER: genes 14 Torsion [CA]-CB--CG-[OD1] |==|  0.24885
USER: genes 15 Torsion [C]-CA--CB-[CG] |==|  0.82886
USER: genes 16 Torsion [CA]-CB--CG-[CD2] |==|  0.81960
USER: genes 17 Torsion [C]-CA--N-[C] |==|  0.53541
USER: genes 18 Torsion [N]-C--CA-[N] |==|  0.99834
USER: genes 19 Torsion [C]-CA--CB-[OG] |==|  0.79677
USER: genes 20 Torsion [CA]-CB--OG-[HG] |==|  0.41700
USER: genes 21 Torsion [C]-CA--N-[C] |==|  0.73104
USER: genes 22 Torsion [N]-C--CA-[N] |==|  0.85000
USER: genes 23 Torsion [C]-CA--N-[C] |==|  0.62852
USER: genes 24 Torsion [N]-C--CA-[N] |==|  0.62089
USER: genes 25 Torsion [C]-CA--CB-[CG2] |==|  0.63494
USER: genes 26 Torsion [C]-CA--N-[H2] |==|  0.84777
USER: genes 27 Torsion [C]-CA--CB-[CG2] |==|  0.74170
ROOT
ATOM      1  CA  HIS P   4     -16.810   9.659  12.836  1.00 23.76 LIG 0.18  C 
ENDROOT
BRANCH 1 2
ATOM      2  C   HIS P   4     -18.055   9.872  11.962  1.00 25.01 LIG 0.24  C 
ATOM      3 O    HIS P   4     -17.947  10.110  10.752  1.00 23.35 LIG-0.27  OA
ATOM      4  N   PHE P   5     -19.232   9.864  12.584  1.00 23.15 LIG-0.35  N 
ATOM      5 H    PHE P   5     -19.316   9.785  13.436  1.00 23.15 LIG 0.16  HD
BRANCH 4 6
ATOM      6  CA  PHE P   5     -20.495   9.987  11.880  1.00 24.23 LIG 0.18  C 
BRANCH 6 7
ATOM      7  CB  PHE P   5     -20.724   8.700  11.031  1.00 25.15 LIG 0.07  C 
BRANCH 7 8
ATOM      8  CG  PHE P   5     -21.331   9.028   9.705  1.00 25.22 LIG-0.06  A 
ATOM      9  CD2 PHE P   5     -22.090   8.038   9.090  1.00 26.21 LIG 0.01  A 
ATOM     10  CE2 PHE P   5     -22.613   8.236   7.844  1.00 26.58 LIG 0.00  A 
ATOM     11  CZ  PHE P   5     -22.429   9.452   7.210  1.00 27.68 LIG 0.00  A 
ATOM     12  CE1 PHE P   5     -21.695  10.446   7.810  1.00 26.50 LIG 0.00  A 
ATOM     13  CD1 PHE P   5     -21.145  10.230   9.067  1.00 25.73 LIG 0.01  A 
ENDBRANCH 7 8
ENDBRANCH 6 7
BRANCH 6 14
ATOM     14  C   PHE P   5     -21.676  10.288  12.775  1.00 25.59 LIG 0.24  C 
ATOM     15 O    PHE P   5     -21.523  10.701  13.943  1.00 25.82 LIG-0.27  OA
ATOM     16  N   ASN P   6     -22.869  10.169  12.224  1.00 24.53 LIG-0.35  N 
ATOM     17 H    ASN P   6     -23.006   9.916  11.414  1.00 24.53 LIG 0.16  HD
BRANCH 16 18
ATOM     18  CA  ASN P   6     -24.078  10.471  12.978  1.00 25.84 LIG 0.18  C 
BRANCH 18 19
ATOM     19  C   ASN P   6     -23.969  11.715  13.829  1.00 25.26 LIG 0.24  C 
ATOM     20  N   ASP P   7     -24.012  12.909  13.207  1.00 26.59 LIG-0.34  N 
ATOM     21 H    ASP P   7     -24.070  13.016  12.355  1.00 26.59 LIG 0.16  HD
ATOM     22 O    ASN P   6     -23.809  11.605  15.047  1.00 25.72 LIG-0.27  OA
BRANCH 20 23
ATOM     23  CA  ASP P   7     -23.960  14.132  13.976  1.00 25.93 LIG 0.20  C 
BRANCH 23 24
ATOM     24  C   ASP P   7     -25.359  14.469  14.515  1.00 27.07 LIG 0.20  C 
ATOM     25 O    ASP P   7     -26.282  14.246  13.751  1.00 28.96 LIG-0.65  OA
ATOM     26 OXT  ASP P   7     -25.480  14.888  15.755  1.00 29.63 LIG-0.65  OA
ENDBRANCH 23 24
BRANCH 23 27
ATOM     27  CB  ASP P   7     -23.475  15.368  13.194  1.00 25.41 LIG 0.15  C 
BRANCH 27 28
ATOM     28  CG  ASP P   7     -22.383  15.056  12.203  1.00 25.37 LIG 0.17  C 
ATOM     29 OD1  ASP P   7     -22.523  14.272  11.238  1.00 26.66 LIG-0.65  OA
ATOM     30 OD2  ASP P   7     -21.282  15.680  12.380  1.00 23.76 LIG-0.65  OA
ENDBRANCH 27 28
ENDBRANCH 23 27
ENDBRANCH 20 23
ENDBRANCH 18 19
BRANCH 18 31
ATOM     31  CB  ASN P   6     -24.502   9.256  13.807  1.00 24.75 LIG 0.14  C 
BRANCH 31 32
ATOM     32  CG  ASN P   6     -23.711   8.021  13.436  1.00 27.24 LIG 0.22  C 
ATOM     33  ND2 ASN P   6     -24.352   7.315  12.505  1.00 23.85 LIG-0.37  N 
ATOM     34 21HD ASN P   6     -24.025   6.568  12.232  1.00 23.85 LIG 0.16  HD
ATOM     35 22HD ASN P   6     -25.091   7.607  12.177  1.00 23.85 LIG 0.16  HD
ATOM     36 OD1  ASN P   6     -22.625   7.755  14.026  1.00 24.90 LIG-0.27  OA
ENDBRANCH 31 32
ENDBRANCH 18 31
ENDBRANCH 16 18
ENDBRANCH 6 14
ENDBRANCH 4 6
ENDBRANCH 1 2
BRANCH 1 37
ATOM     37  CB  HIS P   4     -16.826  10.711  13.945  1.00 21.80 LIG 0.10  C 
BRANCH 37 38
ATOM     38  CG  HIS P   4     -16.766  12.120  13.437  1.00 23.01 LIG 0.06  A 
ATOM     39  CD2 HIS P   4     -15.841  12.817  12.777  1.00 23.26 LIG 0.14  A 
ATOM     40 NE2  HIS P   4     -16.423  13.998  12.394  1.00 21.45 LIG-0.25  NA
ATOM     41  CE1 HIS P   4     -17.694  14.026  12.783  1.00 22.12 LIG 0.23  A 
ATOM     42 ND1  HIS P   4     -17.934  12.910  13.395  1.00 22.83 LIG-0.24  NA
ENDBRANCH 37 38
ENDBRANCH 1 37
BRANCH 1 43
ATOM     43  N   HIS P   4     -15.623   9.740  11.941  1.00 22.02 LIG-0.35  N 
ATOM     44  C   SER P   3     -14.445   9.334  12.416  1.00 24.42 LIG 0.24  C 
ATOM     45 O    SER P   3     -14.333   8.928  13.584  1.00 24.72 LIG-0.27  OA
ATOM     46 H    HIS P   4     -15.765  10.051  11.152  1.00 22.02 LIG 0.16  HD
BRANCH 44 47
ATOM     47  CA  SER P   3     -13.218   9.478  11.531  1.00 22.14 LIG 0.20  C 
BRANCH 47 48
ATOM     48  CB  SER P   3     -12.113  10.330  12.189  1.00 23.32 LIG 0.20  C 
BRANCH 48 49
ATOM     49 OG   SER P   3     -12.510  11.718  12.178  1.00 23.11 LIG-0.40  OA
ATOM     50 HG   SER P   3     -12.174  12.112  12.839  1.00 23.11 LIG 0.21  HD
ENDBRANCH 48 49
ENDBRANCH 47 48
BRANCH 47 51
ATOM     51  N   SER P   3     -13.502  10.054  10.215  1.00 22.53 LIG-0.34  N 
ATOM     52 H    SER P   3     -13.540  10.913  10.199  1.00 22.53 LIG 0.16  HD
ATOM     53  C   VAL P   2     -13.682   9.276   9.153  1.00 22.76 LIG 0.24  C 
ATOM     54 O    VAL P   2     -13.778   8.032   9.255  1.00 25.85 LIG-0.27  OA
BRANCH 53 55
ATOM     55  CA  VAL P   2     -13.940   9.992   7.825  1.00 24.07 LIG 0.18  C 
BRANCH 55 56
ATOM     56  N   VAL P   2     -15.062  10.926   7.941  1.00 24.29 LIG-0.35  N 
ATOM     57 H    VAL P   2     -15.054  11.433   8.635  1.00 24.29 LIG 0.16  HD
ATOM     58  C   VAL P   1     -16.013  10.934   6.980  1.00 26.39 LIG 0.25  C 
ATOM     59 O    VAL P   1     -15.941  10.158   5.982  1.00 26.90 LIG-0.27  OA
BRANCH 58 60
ATOM     60  CA  VAL P   1     -17.149  11.940   7.105  1.00 27.40 LIG 0.28  C 
BRANCH 60 61
ATOM     61  CB  VAL P   1     -17.210  12.544   8.545  1.00 27.20 LIG 0.02  C 
ATOM     62  CG2 VAL P   1     -18.658  12.469   9.042  1.00 28.02 LIG 0.01  C 
ATOM     63  CG1 VAL P   1     -16.746  13.973   8.364  1.00 27.17 LIG 0.01  C 
ENDBRANCH 60 61
BRANCH 60 64
ATOM     64  N   VAL P   1     -18.424  11.365   6.811  1.00 29.12 LIG-0.07  N 
ATOM     65 H2   VAL P   1     -18.401  10.988   6.005  1.00 29.12 LIG 0.28  HD
ATOM     66 H1   VAL P   1     -19.046  12.002   6.822  1.00 29.12 LIG 0.28  HD
ATOM     67 H3   VAL P   1     -18.619  10.747   7.422  1.00 29.12 LIG 0.28  HD
ENDBRANCH 60 64
ENDBRANCH 58 60
ENDBRANCH 55 56
BRANCH 55 68
ATOM     68  CB  VAL P   2     -12.604  10.654   7.377  1.00 25.03 LIG 0.01  C 
ATOM     69  CG2 VAL P   2     -12.558  12.107   7.890  1.00 23.99 LIG 0.01  C 
ATOM     70  CG1 VAL P   2     -12.419  10.648   5.871  1.00 25.56 LIG 0.01  C 
ENDBRANCH 55 68
ENDBRANCH 53 55
ENDBRANCH 47 51
ENDBRANCH 44 47
ENDBRANCH 1 43
TORSDOF 26
ENDMDL
MODEL 36
USER: ADFR SOLUTION from run 80
USER: SCORE 16.895857 LL:  -5.698 LR: -14.235 RR:   0.000 FEB:  -6.479
USER: RMSD 8.336378
USER: SEED 79
USER: STATUS no improvement in best in 6 clusters for 5 generations
USER: GENES 28
USER: genes 0 Translation |==|  0.53518 0.35104 0.72604
USER: genes 1 Rotation |==|  0.51581 0.71762 0.08294 0.66868
USER: genes 2 Torsion [N]-CA--C-[N] |==|  0.16744
USER: genes 3 Torsion [C]-N--CA-[CB] |==|  0.23665
USER: genes 4 Torsion [N]-CA--CB-[CG] |==|  0.79935
USER: genes 5 Torsion [CA]-CB--CG-[CD2] |==|  0.32440
USER: genes 6 Torsion [N]-CA--C-[N] |==|  0.67714
USER: genes 7 Torsion [C]-N--CA-[CB] |==|  0.29014
USER: genes 8 Torsion [N]-CA--C-[N] |==|  0.42548
USER: genes 9 Torsion [C]-N--CA-[C] |==|  0.72294
USER: genes 10 Torsion [N]-CA--C-[O] |==|  0.23128
USER: genes 11 Torsion [N]-CA--CB-[CG] |==|  0.82508
USER: genes 12 Torsion [CA]-CB--CG-[OD1] |==|  0.57849
USER: genes 13 Torsion [N]-CA--CB-[CG] |==|  0.63753
USER: genes 14 Torsion [CA]-CB--CG-[OD1] |==|  0.04828
USER: genes 15 Torsion [C]-CA--CB-[CG] |==|  0.21970
USER: genes 16 Torsion [CA]-CB--CG-[CD2] |==|  0.24359
USER: genes 17 Torsion [C]-CA--N-[C] |==|  0.77778
USER: genes 18 Torsion [N]-C--CA-[N] |==|  0.39155
USER: genes 19 Torsion [C]-CA--CB-[OG] |==|  0.75093
USER: genes 20 Torsion [CA]-CB--OG-[HG] |==|  0.80122
USER: genes 21 Torsion [C]-CA--N-[C] |==|  0.72389
USER: genes 22 Torsion [N]-C--CA-[N] |==|  0.90659
USER: genes 23 Torsion [C]-CA--N-[C] |==|  0.84386
USER: genes 24 Torsion [N]-C--CA-[N] |==|  0.43695
USER: genes 25 Torsion [C]-CA--CB-[CG2] |==|  0.11678
USER: genes 26 Torsion [C]-CA--N-[H2] |==|  0.13571
USER: genes 27 Torsion [C]-CA--CB-[CG2] |==|  0.32207
ROOT
ATOM      1  CA  HIS P   4     -16.886   9.920  14.296  1.00 23.76 LIG 0.18  C 
ENDROOT
BRANCH 1 2
ATOM      2  C   HIS P   4     -16.036  11.038  13.676  1.00 25.01 LIG 0.24  C 
ATOM      3 O    HIS P   4     -14.799  10.995  13.721  1.00 23.35 LIG-0.27  OA
ATOM      4  N   PHE P   5     -16.693  12.078  13.165  1.00 23.15 LIG-0.35  N 
ATOM      5 H    PHE P   5     -17.549  12.161  13.204  1.00 23.15 LIG 0.16  HD
BRANCH 4 6
ATOM      6  CA  PHE P   5     -16.028  13.176  12.490  1.00 24.23 LIG 0.18  C 
BRANCH 6 7
ATOM      7  CB  PHE P   5     -15.815  12.791  10.994  1.00 25.15 LIG 0.07  C 
BRANCH 7 8
ATOM      8  CG  PHE P   5     -14.749  11.753  10.850  1.00 25.22 LIG-0.06  A 
ATOM      9  CD2 PHE P   5     -15.128  10.519  10.332  1.00 26.21 LIG 0.01  A 
ATOM     10  CE2 PHE P   5     -14.227   9.497  10.241  1.00 26.58 LIG 0.00  A 
ATOM     11  CZ  PHE P   5     -12.913   9.708  10.618  1.00 27.68 LIG 0.00  A 
ATOM     12  CE1 PHE P   5     -12.518  10.925  11.117  1.00 26.50 LIG 0.00  A 
ATOM     13  CD1 PHE P   5     -13.444  11.954  11.230  1.00 25.73 LIG 0.01  A 
ENDBRANCH 7 8
ENDBRANCH 6 7
BRANCH 6 14
ATOM     14  C   PHE P   5     -16.730  14.507  12.633  1.00 25.59 LIG 0.24  C 
ATOM     15 O    PHE P   5     -16.799  15.096  13.731  1.00 25.82 LIG-0.27  OA
ATOM     16  N   ASN P   6     -17.188  15.047  11.519  1.00 24.53 LIG-0.35  N 
ATOM     17 H    ASN P   6     -17.130  14.680  10.744  1.00 24.53 LIG 0.16  HD
BRANCH 16 18
ATOM     18  CA  ASN P   6     -17.847  16.345  11.528  1.00 25.84 LIG 0.18  C 
BRANCH 18 19
ATOM     19  C   ASN P   6     -19.182  16.354  10.820  1.00 25.26 LIG 0.24  C 
ATOM     20  N   ASP P   7     -20.097  17.263  11.212  1.00 26.59 LIG-0.34  N 
ATOM     21 H    ASP P   7     -19.987  17.822  11.856  1.00 26.59 LIG 0.16  HD
ATOM     22 O    ASN P   6     -19.409  15.519   9.941  1.00 25.72 LIG-0.27  OA
BRANCH 20 23
ATOM     23  CA  ASP P   7     -21.373  17.348  10.537  1.00 25.93 LIG 0.20  C 
BRANCH 23 24
ATOM     24  C   ASP P   7     -21.352  18.506   9.528  1.00 27.07 LIG 0.20  C 
ATOM     25 O    ASP P   7     -20.859  18.248   8.444  1.00 28.96 LIG-0.65  OA
ATOM     26 OXT  ASP P   7     -21.921  19.645   9.854  1.00 29.63 LIG-0.65  OA
ENDBRANCH 23 24
BRANCH 23 27
ATOM     27  CB  ASP P   7     -22.580  17.588  11.465  1.00 25.41 LIG 0.15  C 
BRANCH 27 28
ATOM     28  CG  ASP P   7     -22.810  16.468  12.447  1.00 25.37 LIG 0.17  C 
ATOM     29 OD1  ASP P   7     -23.931  16.176  12.918  1.00 26.66 LIG-0.65  OA
ATOM     30 OD2  ASP P   7     -21.775  15.784  12.757  1.00 23.76 LIG-0.65  OA
ENDBRANCH 27 28
ENDBRANCH 23 27
ENDBRANCH 20 23
ENDBRANCH 18 19
BRANCH 18 31
ATOM     31  CB  ASN P   6     -16.909  17.419  10.975  1.00 24.75 LIG 0.14  C 
BRANCH 31 32
ATOM     32  CG  ASN P   6     -16.839  18.626  11.885  1.00 27.24 LIG 0.22  C 
ATOM     33  ND2 ASN P   6     -16.288  19.660  11.252  1.00 23.85 LIG-0.37  N 
ATOM     34 21HD ASN P   6     -16.156  20.400  11.670  1.00 23.85 LIG 0.16  HD
ATOM     35 22HD ASN P   6     -16.064  19.588  10.424  1.00 23.85 LIG 0.16  HD
ATOM     36 OD1  ASN P   6     -17.228  18.545  13.086  1.00 24.90 LIG-0.27  OA
ENDBRANCH 31 32
ENDBRANCH 18 31
ENDBRANCH 16 18
ENDBRANCH 6 14
ENDBRANCH 4 6
ENDBRANCH 1 2
BRANCH 1 37
ATOM     37  CB  HIS P   4     -15.937   8.883  14.895  1.00 21.80 LIG 0.10  C 
BRANCH 37 38
ATOM     38  CG  HIS P   4     -15.376   9.280  16.227  1.00 23.01 LIG 0.06  A 
ATOM     39  CD2 HIS P   4     -15.800   9.128  17.482  1.00 23.26 LIG 0.14  A 
ATOM     40 NE2  HIS P   4     -14.769   9.505  18.304  1.00 21.45 LIG-0.25  NA
ATOM     41  CE1 HIS P   4     -13.714   9.859  17.577  1.00 22.12 LIG 0.23  A 
ATOM     42 ND1  HIS P   4     -14.040   9.719  16.331  1.00 22.83 LIG-0.24  NA
ENDBRANCH 37 38
ENDBRANCH 1 37
BRANCH 1 43
ATOM     43  N   HIS P   4     -17.767   9.386  13.221  1.00 22.02 LIG-0.35  N 
ATOM     44  C   SER P   3     -18.872  10.066  12.914  1.00 24.42 LIG 0.24  C 
ATOM     45 O    SER P   3     -19.177  11.100  13.529  1.00 24.72 LIG-0.27  OA
ATOM     46 H    HIS P   4     -17.509   8.654  12.850  1.00 22.02 LIG 0.16  HD
BRANCH 44 47
ATOM     47  CA  SER P   3     -19.810   9.490  11.865  1.00 22.14 LIG 0.20  C 
BRANCH 47 48
ATOM     48  CB  SER P   3     -19.558  10.080  10.462  1.00 23.32 LIG 0.20  C 
BRANCH 48 49
ATOM     49 OG   SER P   3     -20.372  11.260  10.288  1.00 23.11 LIG-0.40  OA
ATOM     50 HG   SER P   3     -21.177  11.036  10.207  1.00 23.11 LIG 0.21  HD
ENDBRANCH 48 49
ENDBRANCH 47 48
BRANCH 47 51
ATOM     51  N   SER P   3     -21.228   9.671  12.178  1.00 22.53 LIG-0.34  N 
ATOM     52 H    SER P   3     -21.543  10.449  11.990  1.00 22.53 LIG 0.16  HD
ATOM     53  C   VAL P   2     -21.942   8.684  12.712  1.00 22.76 LIG 0.24  C 
ATOM     54 O    VAL P   2     -21.406   7.628  13.116  1.00 25.85 LIG-0.27  OA
BRANCH 53 55
ATOM     55  CA  VAL P   2     -23.422   8.979  12.966  1.00 24.07 LIG 0.18  C 
BRANCH 55 56
ATOM     56  N   VAL P   2     -23.624  10.383  13.330  1.00 24.29 LIG-0.35  N 
ATOM     57 H    VAL P   2     -24.175  10.820  12.836  1.00 24.29 LIG 0.16  HD
ATOM     58  C   VAL P   1     -22.951  10.892  14.387  1.00 26.39 LIG 0.25  C 
ATOM     59 O    VAL P   1     -22.163  10.172  15.069  1.00 26.90 LIG-0.27  OA
BRANCH 58 60
ATOM     60  CA  VAL P   1     -23.206  12.343  14.766  1.00 27.40 LIG 0.28  C 
BRANCH 60 61
ATOM     61  CB  VAL P   1     -22.380  13.315  13.864  1.00 27.20 LIG 0.02  C 
ATOM     62  CG2 VAL P   1     -22.445  12.808  12.419  1.00 28.02 LIG 0.01  C 
ATOM     63  CG1 VAL P   1     -20.978  13.238  14.428  1.00 27.17 LIG 0.01  C 
ENDBRANCH 60 61
BRANCH 60 64
ATOM     64  N   VAL P   1     -22.880  12.618  16.130  1.00 29.12 LIG-0.07  N 
ATOM     65 H2   VAL P   1     -22.070  12.298  16.312  1.00 29.12 LIG 0.28  HD
ATOM     66 H1   VAL P   1     -23.478  12.230  16.663  1.00 29.12 LIG 0.28  HD
ATOM     67 H3   VAL P   1     -22.888  13.498  16.266  1.00 29.12 LIG 0.28  HD
ENDBRANCH 60 64
ENDBRANCH 58 60
ENDBRANCH 55 56
BRANCH 55 68
ATOM     68  CB  VAL P   2     -24.217   8.528  11.705  1.00 25.03 LIG 0.01  C 
ATOM     69  CG2 VAL P   2     -25.168   7.377  12.087  1.00 23.99 LIG 0.01  C 
ATOM     70  CG1 VAL P   2     -23.316   8.078  10.570  1.00 25.56 LIG 0.01  C 
ENDBRANCH 55 68
ENDBRANCH 53 55
ENDBRANCH 47 51
ENDBRANCH 44 47
ENDBRANCH 1 43
TORSDOF 26
ENDMDL
MODEL 37
USER: ADFR SOLUTION from run 179
USER: SCORE 19.319701 LL:  -5.815 LR: -14.201 RR:   0.000 FEB:  -6.446
USER: RMSD 8.896290
USER: SEED 178
USER: STATUS searching
USER: GENES 28
USER: genes 0 Translation |==|  0.49708 0.36398 0.63755
USER: genes 1 Rotation |==|  0.44530 0.70034 0.06379 0.62881
USER: genes 2 Torsion [N]-CA--C-[N] |==|  0.96743
USER: genes 3 Torsion [C]-N--CA-[CB] |==|  0.84742
USER: genes 4 Torsion [N]-CA--CB-[CG] |==|  0.86632
USER: genes 5 Torsion [CA]-CB--CG-[CD2] |==|  0.36401
USER: genes 6 Torsion [N]-CA--C-[N] |==|  0.86111
USER: genes 7 Torsion [C]-N--CA-[CB] |==|  0.78789
USER: genes 8 Torsion [N]-CA--C-[N] |==|  0.19195
USER: genes 9 Torsion [C]-N--CA-[C] |==|  0.69282
USER: genes 10 Torsion [N]-CA--C-[O] |==|  0.44931
USER: genes 11 Torsion [N]-CA--CB-[CG] |==|  0.89194
USER: genes 12 Torsion [CA]-CB--CG-[OD1] |==|  0.78739
USER: genes 13 Torsion [N]-CA--CB-[CG] |==|  0.78532
USER: genes 14 Torsion [CA]-CB--CG-[OD1] |==|  0.93756
USER: genes 15 Torsion [C]-CA--CB-[CG] |==|  0.28161
USER: genes 16 Torsion [CA]-CB--CG-[CD2] |==|  0.86911
USER: genes 17 Torsion [C]-CA--N-[C] |==|  0.78210
USER: genes 18 Torsion [N]-C--CA-[N] |==|  0.34902
USER: genes 19 Torsion [C]-CA--CB-[OG] |==|  0.12592
USER: genes 20 Torsion [CA]-CB--OG-[HG] |==|  0.37192
USER: genes 21 Torsion [C]-CA--N-[C] |==|  0.73946
USER: genes 22 Torsion [N]-C--CA-[N] |==|  0.88697
USER: genes 23 Torsion [C]-CA--N-[C] |==|  0.84984
USER: genes 24 Torsion [N]-C--CA-[N] |==|  0.44767
USER: genes 25 Torsion [C]-CA--CB-[CG2] |==|  0.75796
USER: genes 26 Torsion [C]-CA--N-[H2] |==|  0.42936
USER: genes 27 Torsion [C]-CA--CB-[CG2] |==|  0.35691
ROOT
ATOM      1  CA  HIS P   4     -17.715  10.144  12.372  1.00 23.76 LIG 0.18  C 
ENDROOT
BRANCH 1 2
ATOM      2  C   HIS P   4     -17.062  11.081  11.346  1.00 25.01 LIG 0.24  C 
ATOM      3 O    HIS P   4     -16.264  11.958  11.704  1.00 23.35 LIG-0.27  OA
ATOM      4  N   PHE P   5     -17.455  10.952  10.080  1.00 23.15 LIG-0.35  N 
ATOM      5 H    PHE P   5     -18.071  10.406   9.830  1.00 23.15 LIG 0.16  HD
BRANCH 4 6
ATOM      6  CA  PHE P   5     -16.881  11.724   8.995  1.00 24.23 LIG 0.18  C 
BRANCH 6 7
ATOM      7  CB  PHE P   5     -16.998  13.240   9.340  1.00 25.15 LIG 0.07  C 
BRANCH 7 8
ATOM      8  CG  PHE P   5     -18.378  13.584   9.798  1.00 25.22 LIG-0.06  A 
ATOM      9  CD2 PHE P   5     -18.493  14.324  10.970  1.00 26.21 LIG 0.01  A 
ATOM     10  CE2 PHE P   5     -19.721  14.612  11.493  1.00 26.58 LIG 0.00  A 
ATOM     11  CZ  PHE P   5     -20.862  14.209  10.822  1.00 27.68 LIG 0.00  A 
ATOM     12  CE1 PHE P   5     -20.766  13.491   9.655  1.00 26.50 LIG 0.00  A 
ATOM     13  CD1 PHE P   5     -19.514  13.180   9.140  1.00 25.73 LIG 0.01  A 
ENDBRANCH 7 8
ENDBRANCH 6 7
BRANCH 6 14
ATOM     14  C   PHE P   5     -15.462  11.336   8.643  1.00 25.59 LIG 0.24  C 
ATOM     15 O    PHE P   5     -15.103  11.175   7.459  1.00 25.82 LIG-0.27  OA
ATOM     16  N   ASN P   6     -14.611  11.262   9.649  1.00 24.53 LIG-0.35  N 
ATOM     17 H    ASN P   6     -14.822  11.396  10.472  1.00 24.53 LIG 0.16  HD
BRANCH 16 18
ATOM     18  CA  ASN P   6     -13.210  10.936   9.427  1.00 25.84 LIG 0.18  C 
BRANCH 18 19
ATOM     19  C   ASN P   6     -12.557  11.766   8.345  1.00 25.26 LIG 0.24  C 
ATOM     20  N   ASP P   7     -12.355  13.075   8.593  1.00 26.59 LIG-0.34  N 
ATOM     21 H    ASP P   7     -12.595  13.481   9.313  1.00 26.59 LIG 0.16  HD
ATOM     22 O    ASN P   6     -12.266  11.240   7.269  1.00 25.72 LIG-0.27  OA
BRANCH 20 23
ATOM     23  CA  ASP P   7     -11.693  13.906   7.613  1.00 25.93 LIG 0.20  C 
BRANCH 23 24
ATOM     24  C   ASP P   7     -10.305  14.316   8.130  1.00 27.07 LIG 0.20  C 
ATOM     25 O    ASP P   7      -9.525  14.713   7.281  1.00 28.96 LIG-0.65  OA
ATOM     26 OXT  ASP P   7     -10.075  14.292   9.424  1.00 29.63 LIG-0.65  OA
ENDBRANCH 23 24
BRANCH 23 27
ATOM     27  CB  ASP P   7     -12.437  15.208   7.260  1.00 25.41 LIG 0.15  C 
BRANCH 27 28
ATOM     28  CG  ASP P   7     -13.933  15.036   7.177  1.00 25.37 LIG 0.17  C 
ATOM     29 OD1  ASP P   7     -14.518  14.501   6.210  1.00 26.66 LIG-0.65  OA
ATOM     30 OD2  ASP P   7     -14.592  15.443   8.193  1.00 23.76 LIG-0.65  OA
ENDBRANCH 27 28
ENDBRANCH 23 27
ENDBRANCH 20 23
ENDBRANCH 18 19
BRANCH 18 31
ATOM     31  CB  ASN P   6     -13.051   9.438   9.160  1.00 24.75 LIG 0.14  C 
BRANCH 31 32
ATOM     32  CG  ASN P   6     -13.136   8.628  10.436  1.00 27.24 LIG 0.22  C 
ATOM     33  ND2 ASN P   6     -13.532   7.383  10.176  1.00 23.85 LIG-0.37  N 
ATOM     34 21HD ASN P   6     -13.656   6.828  10.821  1.00 23.85 LIG 0.16  HD
ATOM     35 22HD ASN P   6     -13.663   7.134   9.363  1.00 23.85 LIG 0.16  HD
ATOM     36 OD1  ASN P   6     -12.895   9.169  11.553  1.00 24.90 LIG-0.27  OA
ENDBRANCH 31 32
ENDBRANCH 18 31
ENDBRANCH 16 18
ENDBRANCH 6 14
ENDBRANCH 4 6
ENDBRANCH 1 2
BRANCH 1 37
ATOM     37  CB  HIS P   4     -16.648   9.167  12.866  1.00 21.80 LIG 0.10  C 
BRANCH 37 38
ATOM     38  CG  HIS P   4     -16.086   9.520  14.210  1.00 23.01 LIG 0.06  A 
ATOM     39  CD2 HIS P   4     -15.634  10.654  14.744  1.00 23.26 LIG 0.14  A 
ATOM     40 NE2  HIS P   4     -15.442  10.421  16.082  1.00 21.45 LIG-0.25  NA
ATOM     41  CE1 HIS P   4     -15.794   9.174  16.381  1.00 22.12 LIG 0.23  A 
ATOM     42 ND1  HIS P   4     -16.199   8.615  15.285  1.00 22.83 LIG-0.24  NA
ENDBRANCH 37 38
ENDBRANCH 1 37
BRANCH 1 43
ATOM     43  N   HIS P   4     -18.870   9.489  11.699  1.00 22.02 LIG-0.35  N 
ATOM     44  C   SER P   3     -19.999  10.185  11.561  1.00 24.42 LIG 0.24  C 
ATOM     45 O    SER P   3     -20.097  11.338  12.010  1.00 24.72 LIG-0.27  OA
ATOM     46 H    HIS P   4     -18.743   8.681  11.431  1.00 22.02 LIG 0.16  HD
BRANCH 44 47
ATOM     47  CA  SER P   3     -21.203   9.498  10.937  1.00 22.14 LIG 0.20  C 
BRANCH 47 48
ATOM     48  CB  SER P   3     -21.554  10.071   9.549  1.00 23.32 LIG 0.20  C 
BRANCH 48 49
ATOM     49 OG   SER P   3     -20.345  10.214   8.771  1.00 23.11 LIG-0.40  OA
ATOM     50 HG   SER P   3     -20.471   9.909   7.999  1.00 23.11 LIG 0.21  HD
ENDBRANCH 48 49
ENDBRANCH 47 48
BRANCH 47 51
ATOM     51  N   SER P   3     -22.411   9.558  11.763  1.00 22.53 LIG-0.34  N 
ATOM     52 H    SER P   3     -22.885  10.268  11.658  1.00 22.53 LIG 0.16  HD
ATOM     53  C   VAL P   2     -22.716   8.570  12.599  1.00 22.76 LIG 0.24  C 
ATOM     54 O    VAL P   2     -21.916   7.637  12.836  1.00 25.85 LIG-0.27  OA
BRANCH 53 55
ATOM     55  CA  VAL P   2     -24.019   8.728  13.386  1.00 24.07 LIG 0.18  C 
BRANCH 55 56
ATOM     56  N   VAL P   2     -24.193  10.107  13.845  1.00 24.29 LIG-0.35  N 
ATOM     57 H    VAL P   2     -24.935  10.481  13.626  1.00 24.29 LIG 0.16  HD
ATOM     58  C   VAL P   1     -23.206  10.691  14.562  1.00 26.39 LIG 0.25  C 
ATOM     59 O    VAL P   1     -22.146  10.061  14.850  1.00 26.90 LIG-0.27  OA
BRANCH 58 60
ATOM     60  CA  VAL P   1     -23.427  12.113  15.058  1.00 27.40 LIG 0.28  C 
BRANCH 60 61
ATOM     61  CB  VAL P   1     -23.223  13.149  13.907  1.00 27.20 LIG 0.02  C 
ATOM     62  CG2 VAL P   1     -21.736  13.517  13.843  1.00 28.02 LIG 0.01  C 
ATOM     63  CG1 VAL P   1     -24.080  14.327  14.315  1.00 27.17 LIG 0.01  C 
ENDBRANCH 60 61
BRANCH 60 64
ATOM     64  N   VAL P   1     -22.548  12.462  16.130  1.00 29.12 LIG-0.07  N 
ATOM     65 H2   VAL P   1     -22.435  13.344  16.147  1.00 29.12 LIG 0.28  HD
ATOM     66 H1   VAL P   1     -21.760  12.065  16.009  1.00 29.12 LIG 0.28  HD
ATOM     67 H3   VAL P   1     -22.901  12.193  16.902  1.00 29.12 LIG 0.28  HD
ENDBRANCH 60 64
ENDBRANCH 58 60
ENDBRANCH 55 56
BRANCH 55 68
ATOM     68  CB  VAL P   2     -25.179   8.204  12.490  1.00 25.03 LIG 0.01  C 
ATOM     69  CG2 VAL P   2     -26.017   7.184  13.285  1.00 23.99 LIG 0.01  C 
ATOM     70  CG1 VAL P   2     -24.688   7.558  11.207  1.00 25.56 LIG 0.01  C 
ENDBRANCH 55 68
ENDBRANCH 53 55
ENDBRANCH 47 51
ENDBRANCH 44 47
ENDBRANCH 1 43
TORSDOF 26
ENDMDL
MODEL 38
USER: ADFR SOLUTION from run 52
USER: SCORE 19.338534 LL:  -5.916 LR: -14.169 RR:   0.000 FEB:  -6.413
USER: RMSD 9.334075
USER: SEED 51
USER: STATUS no improvement in best in 8 clusters for 5 generations
USER: GENES 28
USER: genes 0 Translation |==|  0.52509 0.32367 0.69798
USER: genes 1 Rotation |==|  0.48732 0.80666 0.15505 0.69186
USER: genes 2 Torsion [N]-CA--C-[N] |==|  0.88441
USER: genes 3 Torsion [C]-N--CA-[CB] |==|  0.13810
USER: genes 4 Torsion [N]-CA--CB-[CG] |==|  0.14960
USER: genes 5 Torsion [CA]-CB--CG-[CD2] |==|  0.72204
USER: genes 6 Torsion [N]-CA--C-[N] |==|  0.12120
USER: genes 7 Torsion [C]-N--CA-[CB] |==|  0.84440
USER: genes 8 Torsion [N]-CA--C-[N] |==|  0.46617
USER: genes 9 Torsion [C]-N--CA-[C] |==|  0.81396
USER: genes 10 Torsion [N]-CA--C-[O] |==|  0.44881
USER: genes 11 Torsion [N]-CA--CB-[CG] |==|  0.90251
USER: genes 12 Torsion [CA]-CB--CG-[OD1] |==|  0.44331
USER: genes 13 Torsion [N]-CA--CB-[CG] |==|  0.56877
USER: genes 14 Torsion [CA]-CB--CG-[OD1] |==|  0.21719
USER: genes 15 Torsion [C]-CA--CB-[CG] |==|  0.78422
USER: genes 16 Torsion [CA]-CB--CG-[CD2] |==|  0.16046
USER: genes 17 Torsion [C]-CA--N-[C] |==|  0.83623
USER: genes 18 Torsion [N]-C--CA-[N] |==|  0.39167
USER: genes 19 Torsion [C]-CA--CB-[OG] |==|  0.45980
USER: genes 20 Torsion [CA]-CB--OG-[HG] |==|  0.61922
USER: genes 21 Torsion [C]-CA--N-[C] |==|  0.76233
USER: genes 22 Torsion [N]-C--CA-[N] |==|  0.87814
USER: genes 23 Torsion [C]-CA--N-[C] |==|  0.84689
USER: genes 24 Torsion [N]-C--CA-[N] |==|  0.48604
USER: genes 25 Torsion [C]-CA--CB-[CG2] |==|  0.21298
USER: genes 26 Torsion [C]-CA--N-[H2] |==|  0.74555
USER: genes 27 Torsion [C]-CA--CB-[CG2] |==|  0.34914
ROOT
ATOM      1  CA  HIS P   4     -17.105   9.448  13.686  1.00 23.76 LIG 0.18  C 
ENDROOT
BRANCH 1 2
ATOM      2  C   HIS P   4     -16.639  10.893  13.456  1.00 25.01 LIG 0.24  C 
ATOM      3 O    HIS P   4     -16.583  11.699  14.394  1.00 23.35 LIG-0.27  OA
ATOM      4  N   PHE P   5     -16.377  11.245  12.199  1.00 23.15 LIG-0.35  N 
ATOM      5 H    PHE P   5     -16.494  10.721  11.527  1.00 23.15 LIG 0.16  HD
BRANCH 4 6
ATOM      6  CA  PHE P   5     -15.867  12.555  11.839  1.00 24.23 LIG 0.18  C 
BRANCH 6 7
ATOM      7  CB  PHE P   5     -14.644  12.884  12.747  1.00 25.15 LIG 0.07  C 
BRANCH 7 8
ATOM      8  CG  PHE P   5     -13.618  11.799  12.686  1.00 25.22 LIG-0.06  A 
ATOM      9  CD2 PHE P   5     -13.598  10.883  13.733  1.00 26.21 LIG 0.01  A 
ATOM     10  CE2 PHE P   5     -12.641   9.910  13.786  1.00 26.58 LIG 0.00  A 
ATOM     11  CZ  PHE P   5     -11.717   9.802  12.762  1.00 27.68 LIG 0.00  A 
ATOM     12  CE1 PHE P   5     -11.733  10.688  11.714  1.00 26.50 LIG 0.00  A 
ATOM     13  CD1 PHE P   5     -12.692  11.692  11.676  1.00 25.73 LIG 0.01  A 
ENDBRANCH 7 8
ENDBRANCH 6 7
BRANCH 6 14
ATOM     14  C   PHE P   5     -15.535  12.707  10.371  1.00 25.59 LIG 0.24  C 
ATOM     15 O    PHE P   5     -14.453  13.201   9.994  1.00 25.82 LIG-0.27  OA
ATOM     16  N   ASN P   6     -16.415  12.214   9.520  1.00 24.53 LIG-0.35  N 
ATOM     17 H    ASN P   6     -17.155  11.842   9.750  1.00 24.53 LIG 0.16  HD
BRANCH 16 18
ATOM     18  CA  ASN P   6     -16.183  12.268   8.083  1.00 25.84 LIG 0.18  C 
BRANCH 18 19
ATOM     19  C   ASN P   6     -15.078  11.351   7.612  1.00 25.26 LIG 0.24  C 
ATOM     20  N   ASP P   7     -14.957  11.142   6.285  1.00 26.59 LIG-0.34  N 
ATOM     21 H    ASP P   7     -15.480  11.472   5.688  1.00 26.59 LIG 0.16  HD
ATOM     22 O    ASN P   6     -14.352  10.797   8.441  1.00 25.72 LIG-0.27  OA
BRANCH 20 23
ATOM     23  CA  ASP P   7     -13.889  10.312   5.775  1.00 25.93 LIG 0.20  C 
BRANCH 23 24
ATOM     24  C   ASP P   7     -12.535  10.995   6.022  1.00 27.07 LIG 0.20  C 
ATOM     25 O    ASP P   7     -11.561  10.265   5.963  1.00 28.96 LIG-0.65  OA
ATOM     26 OXT  ASP P   7     -12.501  12.298   6.197  1.00 29.63 LIG-0.65  OA
ENDBRANCH 23 24
BRANCH 23 27
ATOM     27  CB  ASP P   7     -13.967  10.014   4.265  1.00 25.41 LIG 0.15  C 
BRANCH 27 28
ATOM     28  CG  ASP P   7     -15.379   9.864   3.759  1.00 25.37 LIG 0.17  C 
ATOM     29 OD1  ASP P   7     -15.704   9.987   2.557  1.00 26.66 LIG-0.65  OA
ATOM     30 OD2  ASP P   7     -16.251   9.557   4.641  1.00 23.76 LIG-0.65  OA
ENDBRANCH 27 28
ENDBRANCH 23 27
ENDBRANCH 20 23
ENDBRANCH 18 19
BRANCH 18 31
ATOM     31  CB  ASN P   6     -15.943  13.712   7.640  1.00 24.75 LIG 0.14  C 
BRANCH 31 32
ATOM     32  CG  ASN P   6     -16.290  13.916   6.181  1.00 27.24 LIG 0.22  C 
ATOM     33  ND2 ASN P   6     -15.184  13.994   5.442  1.00 23.85 LIG-0.37  N 
ATOM     34 21HD ASN P   6     -15.242  14.146   4.598  1.00 23.85 LIG 0.16  HD
ATOM     35 22HD ASN P   6     -14.414  13.892   5.810  1.00 23.85 LIG 0.16  HD
ATOM     36 OD1  ASN P   6     -17.497  14.037   5.821  1.00 24.90 LIG-0.27  OA
ENDBRANCH 31 32
ENDBRANCH 18 31
ENDBRANCH 16 18
ENDBRANCH 6 14
ENDBRANCH 4 6
ENDBRANCH 1 2
BRANCH 1 37
ATOM     37  CB  HIS P   4     -15.868   8.552  13.719  1.00 21.80 LIG 0.10  C 
BRANCH 37 38
ATOM     38  CG  HIS P   4     -15.306   8.253  12.362  1.00 23.01 LIG 0.06  A 
ATOM     39  CD2 HIS P   4     -14.856   9.018  11.369  1.00 23.26 LIG 0.14  A 
ATOM     40 NE2  HIS P   4     -14.268   8.184  10.452  1.00 21.45 LIG-0.25  NA
ATOM     41  CE1 HIS P   4     -14.326   6.926  10.879  1.00 22.12 LIG 0.23  A 
ATOM     42 ND1  HIS P   4     -14.927   6.936  12.026  1.00 22.83 LIG-0.24  NA
ENDBRANCH 37 38
ENDBRANCH 1 37
BRANCH 1 43
ATOM     43  N   HIS P   4     -18.066   9.116  12.598  1.00 22.02 LIG-0.35  N 
ATOM     44  C   SER P   3     -19.161   9.865  12.471  1.00 24.42 LIG 0.24  C 
ATOM     45 O    SER P   3     -19.393  10.796  13.259  1.00 24.72 LIG-0.27  OA
ATOM     46 H    HIS P   4     -17.856   8.445  12.101  1.00 22.02 LIG 0.16  HD
BRANCH 44 47
ATOM     47  CA  SER P   3     -20.179   9.488  11.407  1.00 22.14 LIG 0.20  C 
BRANCH 47 48
ATOM     48  CB  SER P   3     -19.987  10.285  10.100  1.00 23.32 LIG 0.20  C 
BRANCH 48 49
ATOM     49 OG   SER P   3     -20.740   9.656   9.041  1.00 23.11 LIG-0.40  OA
ATOM     50 HG   SER P   3     -20.277   9.635   8.341  1.00 23.11 LIG 0.21  HD
ENDBRANCH 48 49
ENDBRANCH 47 48
BRANCH 47 51
ATOM     51  N   SER P   3     -21.569   9.656  11.832  1.00 22.53 LIG-0.34  N 
ATOM     52 H    SER P   3     -21.924  10.410  11.618  1.00 22.53 LIG 0.16  HD
ATOM     53  C   VAL P   2     -22.201   8.694  12.498  1.00 22.76 LIG 0.24  C 
ATOM     54 O    VAL P   2     -21.598   7.685  12.928  1.00 25.85 LIG-0.27  OA
BRANCH 53 55
ATOM     55  CA  VAL P   2     -23.662   8.969  12.862  1.00 24.07 LIG 0.18  C 
BRANCH 55 56
ATOM     56  N   VAL P   2     -23.829  10.331  13.373  1.00 24.29 LIG-0.35  N 
ATOM     57 H    VAL P   2     -24.413  10.812  12.965  1.00 24.29 LIG 0.16  HD
ATOM     58  C   VAL P   1     -23.078  10.738  14.421  1.00 26.39 LIG 0.25  C 
ATOM     59 O    VAL P   1     -22.245   9.957  14.971  1.00 26.90 LIG-0.27  OA
BRANCH 58 60
ATOM     60  CA  VAL P   1     -23.297  12.146  14.955  1.00 27.40 LIG 0.28  C 
BRANCH 60 61
ATOM     61  CB  VAL P   1     -22.929  13.219  13.882  1.00 27.20 LIG 0.02  C 
ATOM     62  CG2 VAL P   1     -24.063  13.284  12.852  1.00 28.02 LIG 0.01  C 
ATOM     63  CG1 VAL P   1     -21.642  12.706  13.273  1.00 27.17 LIG 0.01  C 
ENDBRANCH 60 61
BRANCH 60 64
ATOM     64  N   VAL P   1     -22.527  12.411  16.130  1.00 29.12 LIG-0.07  N 
ATOM     65 H2   VAL P   1     -23.007  12.210  16.852  1.00 29.12 LIG 0.28  HD
ATOM     66 H1   VAL P   1     -22.307  13.274  16.152  1.00 29.12 LIG 0.28  HD
ATOM     67 H3   VAL P   1     -21.787  11.917  16.118  1.00 29.12 LIG 0.28  HD
ENDBRANCH 60 64
ENDBRANCH 58 60
ENDBRANCH 55 56
BRANCH 55 68
ATOM     68  CB  VAL P   2     -24.530   8.647  11.610  1.00 25.03 LIG 0.01  C 
ATOM     69  CG2 VAL P   2     -25.632   7.642  11.999  1.00 23.99 LIG 0.01  C 
ATOM     70  CG1 VAL P   2     -23.718   8.082  10.460  1.00 25.56 LIG 0.01  C 
ENDBRANCH 55 68
ENDBRANCH 53 55
ENDBRANCH 47 51
ENDBRANCH 44 47
ENDBRANCH 1 43
TORSDOF 26
ENDMDL
MODEL 39
USER: ADFR SOLUTION from run 186
USER: SCORE 18.370035 LL:  -5.597 LR: -14.153 RR:   0.000 FEB:  -6.397
USER: RMSD 8.958768
USER: SEED 185
USER: STATUS no improvement in best in 3 clusters for 5 generations
USER: GENES 28
USER: genes 0 Translation |==|  0.68705 0.42206 0.65111
USER: genes 1 Rotation |==|  0.73752 0.30037 0.89125 0.52561
USER: genes 2 Torsion [N]-CA--C-[N] |==|  0.96544
USER: genes 3 Torsion [C]-N--CA-[CB] |==|  0.83330
USER: genes 4 Torsion [N]-CA--CB-[CG] |==|  0.82682
USER: genes 5 Torsion [CA]-CB--CG-[CD2] |==|  0.65264
USER: genes 6 Torsion [N]-CA--C-[N] |==|  0.40530
USER: genes 7 Torsion [C]-N--CA-[CB] |==|  0.51111
USER: genes 8 Torsion [N]-CA--C-[N] |==|  0.44741
USER: genes 9 Torsion [C]-N--CA-[C] |==|  0.20226
USER: genes 10 Torsion [N]-CA--C-[O] |==|  0.60950
USER: genes 11 Torsion [N]-CA--CB-[CG] |==|  0.84625
USER: genes 12 Torsion [CA]-CB--CG-[OD1] |==|  0.25900
USER: genes 13 Torsion [N]-CA--CB-[CG] |==|  0.56503
USER: genes 14 Torsion [CA]-CB--CG-[OD1] |==|  0.79065
USER: genes 15 Torsion [C]-CA--CB-[CG] |==|  0.86300
USER: genes 16 Torsion [CA]-CB--CG-[CD2] |==|  0.29803
USER: genes 17 Torsion [C]-CA--N-[C] |==|  0.58030
USER: genes 18 Torsion [N]-C--CA-[N] |==|  0.95909
USER: genes 19 Torsion [C]-CA--CB-[OG] |==|  0.28140
USER: genes 20 Torsion [CA]-CB--OG-[HG] |==|  0.67608
USER: genes 21 Torsion [C]-CA--N-[C] |==|  0.77458
USER: genes 22 Torsion [N]-C--CA-[N] |==|  0.37985
USER: genes 23 Torsion [C]-CA--N-[C] |==|  0.65375
USER: genes 24 Torsion [N]-C--CA-[N] |==|  0.85105
USER: genes 25 Torsion [C]-CA--CB-[CG2] |==|  0.78959
USER: genes 26 Torsion [C]-CA--N-[H2] |==|  0.09705
USER: genes 27 Torsion [C]-CA--CB-[CG2] |==|  0.64376
ROOT
ATOM      1  CA  HIS P   4     -13.583  11.146  12.667  1.00 23.76 LIG 0.18  C 
ENDROOT
BRANCH 1 2
ATOM      2  C   HIS P   4     -13.961  11.802  11.332  1.00 25.01 LIG 0.24  C 
ATOM      3 O    HIS P   4     -13.137  12.477  10.700  1.00 23.35 LIG-0.27  OA
ATOM      4  N   PHE P   5     -15.227  11.674  10.937  1.00 23.15 LIG-0.35  N 
ATOM      5 H    PHE P   5     -15.830  11.282  11.408  1.00 23.15 LIG 0.16  HD
BRANCH 4 6
ATOM      6  CA  PHE P   5     -15.712  12.185   9.670  1.00 24.23 LIG 0.18  C 
BRANCH 6 7
ATOM      7  CB  PHE P   5     -15.492  13.729   9.634  1.00 25.15 LIG 0.07  C 
BRANCH 7 8
ATOM      8  CG  PHE P   5     -16.273  14.411  10.711  1.00 25.22 LIG-0.06  A 
ATOM      9  CD2 PHE P   5     -17.140  15.427  10.321  1.00 26.21 LIG 0.01  A 
ATOM     10  CE2 PHE P   5     -17.830  16.147  11.254  1.00 26.58 LIG 0.00  A 
ATOM     11  CZ  PHE P   5     -17.705  15.828  12.595  1.00 27.68 LIG 0.00  A 
ATOM     12  CE1 PHE P   5     -16.866  14.817  12.994  1.00 26.50 LIG 0.00  A 
ATOM     13  CD1 PHE P   5     -16.147  14.104  12.044  1.00 25.73 LIG 0.01  A 
ENDBRANCH 7 8
ENDBRANCH 6 7
BRANCH 6 14
ATOM     14  C   PHE P   5     -15.116  11.505   8.458  1.00 25.59 LIG 0.24  C 
ATOM     15 O    PHE P   5     -13.964  11.025   8.479  1.00 25.82 LIG-0.27  OA
ATOM     16  N   ASN P   6     -15.911  11.374   7.413  1.00 24.53 LIG-0.35  N 
ATOM     17 H    ASN P   6     -16.718  11.668   7.379  1.00 24.53 LIG 0.16  HD
BRANCH 16 18
ATOM     18  CA  ASN P   6     -15.458  10.700   6.204  1.00 25.84 LIG 0.18  C 
BRANCH 18 19
ATOM     19  C   ASN P   6     -14.124  11.195   5.696  1.00 25.26 LIG 0.24  C 
ATOM     20  N   ASP P   7     -13.442  10.404   4.844  1.00 26.59 LIG-0.34  N 
ATOM     21 H    ASP P   7     -13.698   9.624   4.588  1.00 26.59 LIG 0.16  HD
ATOM     22 O    ASN P   6     -13.684  12.275   6.097  1.00 25.72 LIG-0.27  OA
BRANCH 20 23
ATOM     23  CA  ASP P   7     -12.183  10.848   4.290  1.00 25.93 LIG 0.20  C 
BRANCH 23 24
ATOM     24  C   ASP P   7     -11.093  10.805   5.372  1.00 27.07 LIG 0.20  C 
ATOM     25 O    ASP P   7     -10.304  11.734   5.360  1.00 28.96 LIG-0.65  OA
ATOM     26 OXT  ASP P   7     -11.123   9.843   6.268  1.00 29.63 LIG-0.65  OA
ENDBRANCH 23 24
BRANCH 23 27
ATOM     27  CB  ASP P   7     -12.194  12.284   3.729  1.00 25.41 LIG 0.15  C 
BRANCH 27 28
ATOM     28  CG  ASP P   7     -13.264  12.509   2.691  1.00 25.37 LIG 0.17  C 
ATOM     29 OD1  ASP P   7     -14.403  12.956   2.953  1.00 26.66 LIG-0.65  OA
ATOM     30 OD2  ASP P   7     -12.928  12.249   1.486  1.00 23.76 LIG-0.65  OA
ENDBRANCH 27 28
ENDBRANCH 23 27
ENDBRANCH 20 23
ENDBRANCH 18 19
BRANCH 18 31
ATOM     31  CB  ASN P   6     -16.536  10.776   5.121  1.00 24.75 LIG 0.14  C 
BRANCH 31 32
ATOM     32  CG  ASN P   6     -16.389   9.665   4.104  1.00 27.24 LIG 0.22  C 
ATOM     33  ND2 ASN P   6     -17.277   8.699   4.332  1.00 23.85 LIG-0.37  N 
ATOM     34 21HD ASN P   6     -17.276   7.990   3.845  1.00 23.85 LIG 0.16  HD
ATOM     35 22HD ASN P   6     -17.852   8.785   4.965  1.00 23.85 LIG 0.16  HD
ATOM     36 OD1  ASN P   6     -15.478   9.717   3.228  1.00 24.90 LIG-0.27  OA
ENDBRANCH 31 32
ENDBRANCH 18 31
ENDBRANCH 16 18
ENDBRANCH 6 14
ENDBRANCH 4 6
ENDBRANCH 1 2
BRANCH 1 37
ATOM     37  CB  HIS P   4     -12.659   9.965  12.368  1.00 21.80 LIG 0.10  C 
BRANCH 37 38
ATOM     38  CG  HIS P   4     -13.179   9.051  11.300  1.00 23.01 LIG 0.06  A 
ATOM     39  CD2 HIS P   4     -12.829   8.829  10.034  1.00 23.26 LIG 0.14  A 
ATOM     40 NE2  HIS P   4     -13.526   7.726   9.609  1.00 21.45 LIG-0.25  NA
ATOM     41  CE1 HIS P   4     -14.276   7.253  10.601  1.00 22.12 LIG 0.23  A 
ATOM     42 ND1  HIS P   4     -14.078   8.014  11.630  1.00 22.83 LIG-0.24  NA
ENDBRANCH 37 38
ENDBRANCH 1 37
BRANCH 1 43
ATOM     43  N   HIS P   4     -14.852  10.765  13.347  1.00 22.02 LIG-0.35  N 
ATOM     44  C   SER P   3     -14.869  10.732  14.679  1.00 24.42 LIG 0.24  C 
ATOM     45 O    SER P   3     -13.846  10.981  15.338  1.00 24.72 LIG-0.27  OA
ATOM     46 H    HIS P   4     -15.517  10.584  12.832  1.00 22.02 LIG 0.16  HD
BRANCH 44 47
ATOM     47  CA  SER P   3     -16.141  10.278  15.378  1.00 22.14 LIG 0.20  C 
BRANCH 47 48
ATOM     48  CB  SER P   3     -15.996   8.882  16.017  1.00 23.32 LIG 0.20  C 
BRANCH 48 49
ATOM     49 OG   SER P   3     -15.780   9.027  17.438  1.00 23.11 LIG-0.40  OA
ATOM     50 HG   SER P   3     -15.023   8.725  17.639  1.00 23.11 LIG 0.21  HD
ENDBRANCH 48 49
ENDBRANCH 47 48
BRANCH 47 51
ATOM     51  N   SER P   3     -17.316  10.250  14.505  1.00 22.53 LIG-0.34  N 
ATOM     52 H    SER P   3     -17.515   9.474  14.193  1.00 22.53 LIG 0.16  HD
ATOM     53  C   VAL P   2     -17.996  11.361  14.239  1.00 22.76 LIG 0.24  C 
ATOM     54 O    VAL P   2     -17.576  12.489  14.582  1.00 25.85 LIG-0.27  OA
BRANCH 53 55
ATOM     55  CA  VAL P   2     -19.225  11.203  13.340  1.00 24.07 LIG 0.18  C 
BRANCH 55 56
ATOM     56  N   VAL P   2     -20.355  11.981  13.853  1.00 24.29 LIG-0.35  N 
ATOM     57 H    VAL P   2     -20.205  12.819  13.975  1.00 24.29 LIG 0.16  HD
ATOM     58  C   VAL P   1     -21.528  11.355  14.098  1.00 26.39 LIG 0.25  C 
ATOM     59 O    VAL P   1     -21.665  10.115  13.880  1.00 26.90 LIG-0.27  OA
BRANCH 58 60
ATOM     60  CA  VAL P   1     -22.697  12.193  14.596  1.00 27.40 LIG 0.28  C 
BRANCH 60 61
ATOM     61  CB  VAL P   1     -23.196  13.177  13.490  1.00 27.20 LIG 0.02  C 
ATOM     62  CG2 VAL P   1     -22.200  14.338  13.387  1.00 28.02 LIG 0.01  C 
ATOM     63  CG1 VAL P   1     -24.550  13.635  13.988  1.00 27.17 LIG 0.01  C 
ENDBRANCH 60 61
BRANCH 60 64
ATOM     64  N   VAL P   1     -22.365  12.961  15.755  1.00 29.12 LIG-0.07  N 
ATOM     65 H2   VAL P   1     -21.517  13.227  15.703  1.00 29.12 LIG 0.28  HD
ATOM     66 H1   VAL P   1     -22.474  12.461  16.484  1.00 29.12 LIG 0.28  HD
ATOM     67 H3   VAL P   1     -22.897  13.673  15.801  1.00 29.12 LIG 0.28  HD
ENDBRANCH 60 64
ENDBRANCH 58 60
ENDBRANCH 55 56
BRANCH 55 68
ATOM     68  CB  VAL P   2     -18.801  11.577  11.889  1.00 25.03 LIG 0.01  C 
ATOM     69  CG2 VAL P   2     -19.783  12.622  11.325  1.00 23.99 LIG 0.01  C 
ATOM     70  CG1 VAL P   2     -18.757  10.377  10.961  1.00 25.56 LIG 0.01  C 
ENDBRANCH 55 68
ENDBRANCH 53 55
ENDBRANCH 47 51
ENDBRANCH 44 47
ENDBRANCH 1 43
TORSDOF 26
ENDMDL
MODEL 40
USER: ADFR SOLUTION from run 27
USER: SCORE 19.798516 LL:  -6.127 LR: -14.141 RR:   0.000 FEB:  -6.385
USER: RMSD 8.064774
USER: SEED 26
USER: STATUS searching
USER: GENES 28
USER: genes 0 Translation |==|  0.50846 0.50713 0.70330
USER: genes 1 Rotation |==|  0.43049 0.43397 0.98108 0.59680
USER: genes 2 Torsion [N]-CA--C-[N] |==|  0.34414
USER: genes 3 Torsion [C]-N--CA-[CB] |==|  0.79185
USER: genes 4 Torsion [N]-CA--CB-[CG] |==|  0.31314
USER: genes 5 Torsion [CA]-CB--CG-[CD2] |==|  0.72166
USER: genes 6 Torsion [N]-CA--C-[N] |==|  0.34833
USER: genes 7 Torsion [C]-N--CA-[CB] |==|  0.12928
USER: genes 8 Torsion [N]-CA--C-[N] |==|  0.11917
USER: genes 9 Torsion [C]-N--CA-[C] |==|  0.70159
USER: genes 10 Torsion [N]-CA--C-[O] |==|  0.09121
USER: genes 11 Torsion [N]-CA--CB-[CG] |==|  0.98918
USER: genes 12 Torsion [CA]-CB--CG-[OD1] |==|  0.13821
USER: genes 13 Torsion [N]-CA--CB-[CG] |==|  0.64918
USER: genes 14 Torsion [CA]-CB--CG-[OD1] |==|  0.97494
USER: genes 15 Torsion [C]-CA--CB-[CG] |==|  0.05216
USER: genes 16 Torsion [CA]-CB--CG-[CD2] |==|  0.22409
USER: genes 17 Torsion [C]-CA--N-[C] |==|  0.73697
USER: genes 18 Torsion [N]-C--CA-[N] |==|  0.88000
USER: genes 19 Torsion [C]-CA--CB-[OG] |==|  0.28020
USER: genes 20 Torsion [CA]-CB--OG-[HG] |==|  0.07763
USER: genes 21 Torsion [C]-CA--N-[C] |==|  0.81212
USER: genes 22 Torsion [N]-C--CA-[N] |==|  0.91668
USER: genes 23 Torsion [C]-CA--N-[C] |==|  0.79508
USER: genes 24 Torsion [N]-C--CA-[N] |==|  0.32793
USER: genes 25 Torsion [C]-CA--CB-[CG2] |==|  0.44977
USER: genes 26 Torsion [C]-CA--N-[H2] |==|  0.08827
USER: genes 27 Torsion [C]-CA--CB-[CG2] |==|  0.50190
ROOT
ATOM      1  CA  HIS P   4     -17.467  12.613  13.802  1.00 23.76 LIG 0.18  C 
ENDROOT
BRANCH 1 2
ATOM      2  C   HIS P   4     -16.391  11.947  12.932  1.00 25.01 LIG 0.24  C 
ATOM      3 O    HIS P   4     -16.607  10.864  12.373  1.00 23.35 LIG-0.27  OA
ATOM      4  N   PHE P   5     -15.205  12.551  12.878  1.00 23.15 LIG-0.35  N 
ATOM      5 H    PHE P   5     -15.014  13.258  13.330  1.00 23.15 LIG 0.16  HD
BRANCH 4 6
ATOM      6  CA  PHE P   5     -14.116  12.074  12.049  1.00 24.23 LIG 0.18  C 
BRANCH 6 7
ATOM      7  CB  PHE P   5     -13.496  10.807  12.714  1.00 25.15 LIG 0.07  C 
BRANCH 7 8
ATOM      8  CG  PHE P   5     -13.749   9.586  11.890  1.00 25.22 LIG-0.06  A 
ATOM      9  CD2 PHE P   5     -14.788   8.753  12.289  1.00 26.21 LIG 0.01  A 
ATOM     10  CE2 PHE P   5     -15.030   7.580  11.632  1.00 26.58 LIG 0.00  A 
ATOM     11  CZ  PHE P   5     -14.268   7.245  10.528  1.00 27.68 LIG 0.00  A 
ATOM     12  CE1 PHE P   5     -13.248   8.064  10.111  1.00 26.50 LIG 0.00  A 
ATOM     13  CD1 PHE P   5     -12.990   9.244  10.797  1.00 25.73 LIG 0.01  A 
ENDBRANCH 7 8
ENDBRANCH 6 7
BRANCH 6 14
ATOM     14  C   PHE P   5     -14.500  11.821  10.608  1.00 25.59 LIG 0.24  C 
ATOM     15 O    PHE P   5     -15.495  11.131  10.308  1.00 25.82 LIG-0.27  OA
ATOM     16  N   ASN P   6     -13.774  12.438   9.694  1.00 24.53 LIG-0.35  N 
ATOM     17 H    ASN P   6     -13.101  12.943   9.871  1.00 24.53 LIG 0.16  HD
BRANCH 16 18
ATOM     18  CA  ASN P   6     -14.075  12.300   8.276  1.00 25.84 LIG 0.18  C 
BRANCH 18 19
ATOM     19  C   ASN P   6     -13.255  13.210   7.390  1.00 25.26 LIG 0.24  C 
ATOM     20  N   ASP P   7     -11.940  13.333   7.661  1.00 26.59 LIG-0.34  N 
ATOM     21 H    ASP P   7     -11.538  12.953   8.318  1.00 26.59 LIG 0.16  HD
ATOM     22 O    ASN P   6     -13.809  13.833   6.482  1.00 25.72 LIG-0.27  OA
BRANCH 20 23
ATOM     23  CA  ASP P   7     -11.099  14.152   6.817  1.00 25.93 LIG 0.20  C 
BRANCH 23 24
ATOM     24  C   ASP P   7     -10.188  13.257   5.964  1.00 27.07 LIG 0.20  C 
ATOM     25 O    ASP P   7     -10.666  12.186   5.633  1.00 28.96 LIG-0.65  OA
ATOM     26 OXT  ASP P   7      -9.016  13.717   5.586  1.00 29.63 LIG-0.65  OA
ENDBRANCH 23 24
BRANCH 23 27
ATOM     27  CB  ASP P   7     -10.179  15.129   7.575  1.00 25.41 LIG 0.15  C 
BRANCH 27 28
ATOM     28  CG  ASP P   7     -10.394  15.114   9.067  1.00 25.37 LIG 0.17  C 
ATOM     29 OD1  ASP P   7     -10.426  14.069   9.755  1.00 26.66 LIG-0.65  OA
ATOM     30 OD2  ASP P   7     -10.510  16.261   9.619  1.00 23.76 LIG-0.65  OA
ENDBRANCH 27 28
ENDBRANCH 23 27
ENDBRANCH 20 23
ENDBRANCH 18 19
BRANCH 18 31
ATOM     31  CB  ASN P   6     -15.575  12.481   8.034  1.00 24.75 LIG 0.14  C 
BRANCH 31 32
ATOM     32  CG  ASN P   6     -16.164  11.314   7.271  1.00 27.24 LIG 0.22  C 
ATOM     33  ND2 ASN P   6     -17.495  11.367   7.287  1.00 23.85 LIG-0.37  N 
ATOM     34 21HD ASN P   6     -17.955  10.740   6.919  1.00 23.85 LIG 0.16  HD
ATOM     35 22HD ASN P   6     -17.895  12.028   7.666  1.00 23.85 LIG 0.16  HD
ATOM     36 OD1  ASN P   6     -15.410  10.432   6.768  1.00 24.90 LIG-0.27  OA
ENDBRANCH 31 32
ENDBRANCH 18 31
ENDBRANCH 16 18
ENDBRANCH 6 14
ENDBRANCH 4 6
ENDBRANCH 1 2
BRANCH 1 37
ATOM     37  CB  HIS P   4     -17.749  11.695  14.990  1.00 21.80 LIG 0.10  C 
BRANCH 37 38
ATOM     38  CG  HIS P   4     -16.665  10.692  15.245  1.00 23.01 LIG 0.06  A 
ATOM     39  CD2 HIS P   4     -15.485  10.755  15.862  1.00 23.26 LIG 0.14  A 
ATOM     40 NE2  HIS P   4     -15.018   9.470  15.971  1.00 21.45 LIG-0.25  NA
ATOM     41  CE1 HIS P   4     -15.901   8.620  15.457  1.00 22.12 LIG 0.23  A 
ATOM     42 ND1  HIS P   4     -16.905   9.318  15.030  1.00 22.83 LIG-0.24  NA
ENDBRANCH 37 38
ENDBRANCH 1 37
BRANCH 1 43
ATOM     43  N   HIS P   4     -18.650  12.857  12.931  1.00 22.02 LIG-0.35  N 
ATOM     44  C   SER P   3     -18.774  14.053  12.354  1.00 24.42 LIG 0.24  C 
ATOM     45 O    SER P   3     -17.943  14.952  12.562  1.00 24.72 LIG-0.27  OA
ATOM     46 H    HIS P   4     -19.199  12.200  12.846  1.00 22.02 LIG 0.16  HD
BRANCH 44 47
ATOM     47  CA  SER P   3     -20.014  14.331  11.520  1.00 22.14 LIG 0.20  C 
BRANCH 47 48
ATOM     48  CB  SER P   3     -21.240  14.685  12.387  1.00 23.32 LIG 0.20  C 
BRANCH 48 49
ATOM     49 OG   SER P   3     -21.431  16.117  12.382  1.00 23.11 LIG-0.40  OA
ATOM     50 HG   SER P   3     -21.131  16.437  11.667  1.00 23.11 LIG 0.21  HD
ENDBRANCH 48 49
ENDBRANCH 47 48
BRANCH 47 51
ATOM     51  N   SER P   3     -20.394  13.225  10.640  1.00 22.53 LIG-0.34  N 
ATOM     52 H    SER P   3     -21.133  12.836  10.847  1.00 22.53 LIG 0.16  HD
ATOM     53  C   VAL P   2     -19.630  12.878   9.609  1.00 22.76 LIG 0.24  C 
ATOM     54 O    VAL P   2     -18.488  13.365   9.442  1.00 25.85 LIG-0.27  OA
BRANCH 53 55
ATOM     55  CA  VAL P   2     -20.145  11.728   8.740  1.00 24.07 LIG 0.18  C 
BRANCH 55 56
ATOM     56  N   VAL P   2     -20.946  10.791   9.529  1.00 24.29 LIG-0.35  N 
ATOM     57 H    VAL P   2     -21.795  10.824   9.397  1.00 24.29 LIG 0.16  HD
ATOM     58  C   VAL P   1     -20.322   9.956  10.391  1.00 26.39 LIG 0.25  C 
ATOM     59 O    VAL P   1     -19.062   9.967  10.515  1.00 26.90 LIG-0.27  OA
BRANCH 58 60
ATOM     60  CA  VAL P   1     -21.175   8.967  11.172  1.00 27.40 LIG 0.28  C 
BRANCH 60 61
ATOM     61  CB  VAL P   1     -21.020   9.183  12.711  1.00 27.20 LIG 0.02  C 
ATOM     62  CG2 VAL P   1     -22.200   8.504  13.417  1.00 28.02 LIG 0.01  C 
ATOM     63  CG1 VAL P   1     -21.051  10.687  12.877  1.00 27.17 LIG 0.01  C 
ENDBRANCH 60 61
BRANCH 60 64
ATOM     64  N   VAL P   1     -20.843   7.608  10.879  1.00 29.12 LIG-0.07  N 
ATOM     65 H2   VAL P   1     -19.976   7.548  10.688  1.00 29.12 LIG 0.28  HD
ATOM     66 H1   VAL P   1     -21.320   7.329  10.181  1.00 29.12 LIG 0.28  HD
ATOM     67 H3   VAL P   1     -21.027   7.098  11.586  1.00 29.12 LIG 0.28  HD
ENDBRANCH 60 64
ENDBRANCH 58 60
ENDBRANCH 55 56
BRANCH 55 68
ATOM     68  CB  VAL P   2     -20.902  12.352   7.530  1.00 25.03 LIG 0.01  C 
ATOM     69  CG2 VAL P   2     -21.453  11.224   6.637  1.00 23.99 LIG 0.01  C 
ATOM     70  CG1 VAL P   2     -20.026  13.270   6.697  1.00 25.56 LIG 0.01  C 
ENDBRANCH 55 68
ENDBRANCH 53 55
ENDBRANCH 47 51
ENDBRANCH 44 47
ENDBRANCH 1 43
TORSDOF 26
ENDMDL
MODEL 41
USER: ADFR SOLUTION from run 155
USER: SCORE 19.330438 LL:  -6.529 LR: -14.129 RR:   0.000 FEB:  -6.373
USER: RMSD 8.088265
USER: SEED 154
USER: STATUS no improvement in best in 3 clusters for 5 generations
USER: GENES 28
USER: genes 0 Translation |==|  0.38112 0.53626 0.71525
USER: genes 1 Rotation |==|  0.25081 0.45076 0.92944 0.53260
USER: genes 2 Torsion [N]-CA--C-[N] |==|  0.98706
USER: genes 3 Torsion [C]-N--CA-[CB] |==|  0.19004
USER: genes 4 Torsion [N]-CA--CB-[CG] |==|  0.64950
USER: genes 5 Torsion [CA]-CB--CG-[CD2] |==|  0.43366
USER: genes 6 Torsion [N]-CA--C-[N] |==|  0.42367
USER: genes 7 Torsion [C]-N--CA-[CB] |==|  0.84957
USER: genes 8 Torsion [N]-CA--C-[N] |==|  0.40522
USER: genes 9 Torsion [C]-N--CA-[C] |==|  0.76495
USER: genes 10 Torsion [N]-CA--C-[O] |==|  0.92111
USER: genes 11 Torsion [N]-CA--CB-[CG] |==|  0.88790
USER: genes 12 Torsion [CA]-CB--CG-[OD1] |==|  0.11989
USER: genes 13 Torsion [N]-CA--CB-[CG] |==|  0.81261
USER: genes 14 Torsion [CA]-CB--CG-[OD1] |==|  0.20778
USER: genes 15 Torsion [C]-CA--CB-[CG] |==|  0.54630
USER: genes 16 Torsion [CA]-CB--CG-[CD2] |==|  0.29179
USER: genes 17 Torsion [C]-CA--N-[C] |==|  0.65033
USER: genes 18 Torsion [N]-C--CA-[N] |==|  0.93691
USER: genes 19 Torsion [C]-CA--CB-[OG] |==|  0.76684
USER: genes 20 Torsion [CA]-CB--OG-[HG] |==|  0.66788
USER: genes 21 Torsion [C]-CA--N-[C] |==|  0.82466
USER: genes 22 Torsion [N]-C--CA-[N] |==|  0.93307
USER: genes 23 Torsion [C]-CA--N-[C] |==|  0.82483
USER: genes 24 Torsion [N]-C--CA-[N] |==|  0.29428
USER: genes 25 Torsion [C]-CA--CB-[CG2] |==|  0.79569
USER: genes 26 Torsion [C]-CA--N-[H2] |==|  0.30366
USER: genes 27 Torsion [C]-CA--CB-[CG2] |==|  0.30170
ROOT
ATOM      1  CA  HIS P   4     -20.237  13.115  14.062  1.00 23.76 LIG 0.18  C 
ENDROOT
BRANCH 1 2
ATOM      2  C   HIS P   4     -18.848  12.518  14.329  1.00 25.01 LIG 0.24  C 
ATOM      3 O    HIS P   4     -18.319  12.616  15.444  1.00 23.35 LIG-0.27  OA
ATOM      4  N   PHE P   5     -18.222  11.967  13.291  1.00 23.15 LIG-0.35  N 
ATOM      5 H    PHE P   5     -18.541  11.969  12.492  1.00 23.15 LIG 0.16  HD
BRANCH 4 6
ATOM      6  CA  PHE P   5     -16.935  11.308  13.406  1.00 24.23 LIG 0.18  C 
BRANCH 6 7
ATOM      7  CB  PHE P   5     -17.116   9.996  14.229  1.00 25.15 LIG 0.07  C 
BRANCH 7 8
ATOM      8  CG  PHE P   5     -16.170   9.949  15.385  1.00 25.22 LIG-0.06  A 
ATOM      9  CD2 PHE P   5     -16.526   9.149  16.466  1.00 26.21 LIG 0.01  A 
ATOM     10  CE2 PHE P   5     -15.750   9.115  17.590  1.00 26.58 LIG 0.00  A 
ATOM     11  CZ  PHE P   5     -14.573   9.841  17.632  1.00 27.68 LIG 0.00  A 
ATOM     12  CE1 PHE P   5     -14.200  10.623  16.567  1.00 26.50 LIG 0.00  A 
ATOM     13  CD1 PHE P   5     -15.004  10.674  15.436  1.00 25.73 LIG 0.01  A 
ENDBRANCH 7 8
ENDBRANCH 6 7
BRANCH 6 14
ATOM     14  C   PHE P   5     -16.250  11.051  12.083  1.00 25.59 LIG 0.24  C 
ATOM     15 O    PHE P   5     -16.894  10.977  11.017  1.00 25.82 LIG-0.27  OA
ATOM     16  N   ASN P   6     -14.932  10.996  12.110  1.00 24.53 LIG-0.35  N 
ATOM     17 H    ASN P   6     -14.459  11.073  12.824  1.00 24.53 LIG 0.16  HD
BRANCH 16 18
ATOM     18  CA  ASN P   6     -14.162  10.793  10.891  1.00 25.84 LIG 0.18  C 
BRANCH 18 19
ATOM     19  C   ASN P   6     -14.145  11.995   9.976  1.00 25.26 LIG 0.24  C 
ATOM     20  N   ASP P   7     -13.024  12.228   9.263  1.00 26.59 LIG-0.34  N 
ATOM     21 H    ASP P   7     -12.307  11.756   9.311  1.00 26.59 LIG 0.16  HD
ATOM     22 O    ASN P   6     -15.126  12.741   9.935  1.00 25.72 LIG-0.27  OA
BRANCH 20 23
ATOM     23  CA  ASP P   7     -12.969  13.336   8.337  1.00 25.93 LIG 0.20  C 
BRANCH 23 24
ATOM     24  C   ASP P   7     -13.569  12.917   6.986  1.00 27.07 LIG 0.20  C 
ATOM     25 O    ASP P   7     -13.475  11.732   6.717  1.00 28.96 LIG-0.65  OA
ATOM     26 OXT  ASP P   7     -14.197  13.816   6.261  1.00 29.63 LIG-0.65  OA
ENDBRANCH 23 24
BRANCH 23 27
ATOM     27  CB  ASP P   7     -11.552  13.868   8.049  1.00 25.41 LIG 0.15  C 
BRANCH 27 28
ATOM     28  CG  ASP P   7     -10.676  13.925   9.274  1.00 25.37 LIG 0.17  C 
ATOM     29 OD1  ASP P   7     -10.619  13.015  10.131  1.00 26.66 LIG-0.65  OA
ATOM     30 OD2  ASP P   7      -9.941  14.965   9.380  1.00 23.76 LIG-0.65  OA
ENDBRANCH 27 28
ENDBRANCH 23 27
ENDBRANCH 20 23
ENDBRANCH 18 19
BRANCH 18 31
ATOM     31  CB  ASN P   6     -14.647   9.538  10.162  1.00 24.75 LIG 0.14  C 
BRANCH 31 32
ATOM     32  CG  ASN P   6     -14.333   8.279  10.941  1.00 27.24 LIG 0.22  C 
ATOM     33  ND2 ASN P   6     -13.350   7.598  10.356  1.00 23.85 LIG-0.37  N 
ATOM     34 21HD ASN P   6     -13.099   6.841  10.680  1.00 23.85 LIG 0.16  HD
ATOM     35 22HD ASN P   6     -12.966   7.914   9.654  1.00 23.85 LIG 0.16  HD
ATOM     36 OD1  ASN P   6     -15.007   7.978  11.968  1.00 24.90 LIG-0.27  OA
ENDBRANCH 31 32
ENDBRANCH 18 31
ENDBRANCH 16 18
ENDBRANCH 6 14
ENDBRANCH 4 6
ENDBRANCH 1 2
BRANCH 1 37
ATOM     37  CB  HIS P   4     -21.249  12.361  14.922  1.00 21.80 LIG 0.10  C 
BRANCH 37 38
ATOM     38  CG  HIS P   4     -22.670  12.555  14.487  1.00 23.01 LIG 0.06  A 
ATOM     39  CD2 HIS P   4     -23.544  11.783  13.842  1.00 23.26 LIG 0.14  A 
ATOM     40 NE2  HIS P   4     -24.763  12.409  13.910  1.00 21.45 LIG-0.25  NA
ATOM     41  CE1 HIS P   4     -24.656  13.537  14.607  1.00 22.12 LIG 0.23  A 
ATOM     42 ND1  HIS P   4     -23.420  13.644  14.979  1.00 22.83 LIG-0.24  NA
ENDBRANCH 37 38
ENDBRANCH 1 37
BRANCH 1 43
ATOM     43  N   HIS P   4     -20.488  13.011  12.598  1.00 22.02 LIG-0.35  N 
ATOM     44  C   SER P   3     -20.817  14.118  11.932  1.00 24.42 LIG 0.24  C 
ATOM     45 O    SER P   3     -20.942  15.204  12.521  1.00 24.72 LIG-0.27  OA
ATOM     46 H    HIS P   4     -20.406  12.226  12.255  1.00 22.02 LIG 0.16  HD
BRANCH 44 47
ATOM     47  CA  SER P   3     -21.142  14.005  10.452  1.00 22.14 LIG 0.20  C 
BRANCH 47 48
ATOM     48  CB  SER P   3     -22.660  13.996  10.181  1.00 23.32 LIG 0.20  C 
BRANCH 48 49
ATOM     49 OG   SER P   3     -23.167  12.653  10.343  1.00 23.11 LIG-0.40  OA
ATOM     50 HG   SER P   3     -23.505  12.392   9.620  1.00 23.11 LIG 0.21  HD
ENDBRANCH 48 49
ENDBRANCH 47 48
BRANCH 47 51
ATOM     51  N   SER P   3     -20.567  12.822   9.809  1.00 22.53 LIG-0.34  N 
ATOM     52 H    SER P   3     -21.143  12.265   9.497  1.00 22.53 LIG 0.16  HD
ATOM     53  C   VAL P   2     -19.250  12.658   9.734  1.00 22.76 LIG 0.24  C 
ATOM     54 O    VAL P   2     -18.456  13.411  10.342  1.00 25.85 LIG-0.27  OA
BRANCH 53 55
ATOM     55  CA  VAL P   2     -18.764  11.399   9.011  1.00 24.07 LIG 0.18  C 
BRANCH 55 56
ATOM     56  N   VAL P   2     -19.788  10.352   9.033  1.00 24.29 LIG-0.35  N 
ATOM     57 H    VAL P   2     -20.093  10.114   8.265  1.00 24.29 LIG 0.16  HD
ATOM     58  C   VAL P   1     -20.178   9.839  10.222  1.00 26.39 LIG 0.25  C 
ATOM     59 O    VAL P   1     -19.666  10.242  11.307  1.00 26.90 LIG-0.27  OA
BRANCH 58 60
ATOM     60  CA  VAL P   1     -21.217   8.727  10.214  1.00 27.40 LIG 0.28  C 
BRANCH 60 61
ATOM     61  CB  VAL P   1     -22.347   9.005  11.256  1.00 27.20 LIG 0.02  C 
ATOM     62  CG2 VAL P   1     -21.785   8.757  12.661  1.00 28.02 LIG 0.01  C 
ATOM     63  CG1 VAL P   1     -23.432   8.013  10.898  1.00 27.17 LIG 0.01  C 
ENDBRANCH 60 61
BRANCH 60 64
ATOM     64  N   VAL P   1     -20.651   7.447  10.505  1.00 29.12 LIG-0.07  N 
ATOM     65 H2   VAL P   1     -20.915   7.182  11.312  1.00 29.12 LIG 0.28  HD
ATOM     66 H1   VAL P   1     -19.762   7.505  10.488  1.00 29.12 LIG 0.28  HD
ATOM     67 H3   VAL P   1     -20.922   6.857   9.896  1.00 29.12 LIG 0.28  HD
ENDBRANCH 60 64
ENDBRANCH 58 60
ENDBRANCH 55 56
BRANCH 55 68
ATOM     68  CB  VAL P   2     -18.314  11.819   7.580  1.00 25.03 LIG 0.01  C 
ATOM     69  CG2 VAL P   2     -16.778  11.740   7.486  1.00 23.99 LIG 0.01  C 
ATOM     70  CG1 VAL P   2     -18.768  13.218   7.207  1.00 25.56 LIG 0.01  C 
ENDBRANCH 55 68
ENDBRANCH 53 55
ENDBRANCH 47 51
ENDBRANCH 44 47
ENDBRANCH 1 43
TORSDOF 26
ENDMDL
MODEL 42
USER: ADFR SOLUTION from run 69
USER: SCORE 17.250995 LL:  -5.574 LR: -14.133 RR:   0.000 FEB:  -6.377
USER: RMSD 6.047764
USER: SEED 68
USER: STATUS searching
USER: GENES 28
USER: genes 0 Translation |==|  0.67679 0.34562 0.57632
USER: genes 1 Rotation |==|  0.46137 0.78194 0.68238 0.86845
USER: genes 2 Torsion [N]-CA--C-[N] |==|  0.95432
USER: genes 3 Torsion [C]-N--CA-[CB] |==|  0.18948
USER: genes 4 Torsion [N]-CA--CB-[CG] |==|  0.16861
USER: genes 5 Torsion [CA]-CB--CG-[CD2] |==|  0.30762
USER: genes 6 Torsion [N]-CA--C-[N] |==|  0.50704
USER: genes 7 Torsion [C]-N--CA-[CB] |==|  0.20701
USER: genes 8 Torsion [N]-CA--C-[N] |==|  0.53486
USER: genes 9 Torsion [C]-N--CA-[C] |==|  0.21360
USER: genes 10 Torsion [N]-CA--C-[O] |==|  0.07421
USER: genes 11 Torsion [N]-CA--CB-[CG] |==|  0.66851
USER: genes 12 Torsion [CA]-CB--CG-[OD1] |==|  0.10883
USER: genes 13 Torsion [N]-CA--CB-[CG] |==|  0.60975
USER: genes 14 Torsion [CA]-CB--CG-[OD1] |==|  0.73315
USER: genes 15 Torsion [C]-CA--CB-[CG] |==|  0.52605
USER: genes 16 Torsion [CA]-CB--CG-[CD2] |==|  0.67480
USER: genes 17 Torsion [C]-CA--N-[C] |==|  0.67494
USER: genes 18 Torsion [N]-C--CA-[N] |==|  0.32112
USER: genes 19 Torsion [C]-CA--CB-[OG] |==|  0.62785
USER: genes 20 Torsion [CA]-CB--OG-[HG] |==|  0.78533
USER: genes 21 Torsion [C]-CA--N-[C] |==|  0.74150
USER: genes 22 Torsion [N]-C--CA-[N] |==|  0.03629
USER: genes 23 Torsion [C]-CA--N-[C] |==|  0.65803
USER: genes 24 Torsion [N]-C--CA-[N] |==|  0.50846
USER: genes 25 Torsion [C]-CA--CB-[CG2] |==|  0.23430
USER: genes 26 Torsion [C]-CA--N-[H2] |==|  0.05524
USER: genes 27 Torsion [C]-CA--CB-[CG2] |==|  0.22398
ROOT
ATOM      1  CA  HIS P   4     -13.806   9.827  11.040  1.00 23.76 LIG 0.18  C 
ENDROOT
BRANCH 1 2
ATOM      2  C   HIS P   4     -15.005   9.186  11.752  1.00 25.01 LIG 0.24  C 
ATOM      3 O    HIS P   4     -14.844   8.269  12.568  1.00 23.35 LIG-0.27  OA
ATOM      4  N   PHE P   5     -16.215   9.612  11.391  1.00 23.15 LIG-0.35  N 
ATOM      5 H    PHE P   5     -16.345  10.187  10.764  1.00 23.15 LIG 0.16  HD
BRANCH 4 6
ATOM      6  CA  PHE P   5     -17.434   9.145  12.021  1.00 24.23 LIG 0.18  C 
BRANCH 6 7
ATOM      7  CB  PHE P   5     -17.478   9.678  13.486  1.00 25.15 LIG 0.07  C 
BRANCH 7 8
ATOM      8  CG  PHE P   5     -17.472  11.172  13.518  1.00 25.22 LIG-0.06  A 
ATOM      9  CD2 PHE P   5     -18.640  11.804  13.934  1.00 26.21 LIG 0.01  A 
ATOM     10  CE2 PHE P   5     -18.736  13.166  13.917  1.00 26.58 LIG 0.00  A 
ATOM     11  CZ  PHE P   5     -17.645  13.925  13.534  1.00 27.68 LIG 0.00  A 
ATOM     12  CE1 PHE P   5     -16.480  13.317  13.136  1.00 26.50 LIG 0.00  A 
ATOM     13  CD1 PHE P   5     -16.394  11.930  13.131  1.00 25.73 LIG 0.01  A 
ENDBRANCH 7 8
ENDBRANCH 6 7
BRANCH 6 14
ATOM     14  C   PHE P   5     -18.695   9.490  11.261  1.00 25.59 LIG 0.24  C 
ATOM     15 O    PHE P   5     -18.654  10.013  10.129  1.00 25.82 LIG-0.27  OA
ATOM     16  N   ASN P   6     -19.833   9.129  11.825  1.00 24.53 LIG-0.35  N 
ATOM     17 H    ASN P   6     -19.892   8.741  12.590  1.00 24.53 LIG 0.16  HD
BRANCH 16 18
ATOM     18  CA  ASN P   6     -21.109   9.374  11.167  1.00 25.84 LIG 0.18  C 
BRANCH 18 19
ATOM     19  C   ASN P   6     -22.290   9.368  12.110  1.00 25.26 LIG 0.24  C 
ATOM     20  N   ASP P   7     -23.525   9.326  11.572  1.00 26.59 LIG-0.34  N 
ATOM     21 H    ASP P   7     -23.692   9.330  10.728  1.00 26.59 LIG 0.16  HD
ATOM     22 O    ASN P   6     -22.096   9.439  13.326  1.00 25.72 LIG-0.27  OA
BRANCH 20 23
ATOM     23  CA  ASP P   7     -24.688   9.271  12.427  1.00 25.93 LIG 0.20  C 
BRANCH 23 24
ATOM     24  C   ASP P   7     -24.969  10.662  13.016  1.00 27.07 LIG 0.20  C 
ATOM     25 O    ASP P   7     -24.577  11.603  12.347  1.00 28.96 LIG-0.65  OA
ATOM     26 OXT  ASP P   7     -25.662  10.755  14.129  1.00 29.63 LIG-0.65  OA
ENDBRANCH 23 24
BRANCH 23 27
ATOM     27  CB  ASP P   7     -24.569   8.300  13.619  1.00 25.41 LIG 0.15  C 
BRANCH 27 28
ATOM     28  CG  ASP P   7     -25.605   7.205  13.602  1.00 25.37 LIG 0.17  C 
ATOM     29 OD1  ASP P   7     -25.982   6.622  12.562  1.00 26.66 LIG-0.65  OA
ATOM     30 OD2  ASP P   7     -26.067   6.865  14.743  1.00 23.76 LIG-0.65  OA
ENDBRANCH 27 28
ENDBRANCH 23 27
ENDBRANCH 20 23
ENDBRANCH 18 19
BRANCH 18 31
ATOM     31  CB  ASN P   6     -21.306   8.390  10.012  1.00 24.75 LIG 0.14  C 
BRANCH 31 32
ATOM     32  CG  ASN P   6     -21.942   9.055   8.810  1.00 27.24 LIG 0.22  C 
ATOM     33  ND2 ASN P   6     -21.026   9.708   8.096  1.00 23.85 LIG-0.37  N 
ATOM     34 21HD ASN P   6     -21.263  10.161   7.405  1.00 23.85 LIG 0.16  HD
ATOM     35 22HD ASN P   6     -20.198   9.676   8.327  1.00 23.85 LIG 0.16  HD
ATOM     36 OD1  ASN P   6     -23.191   8.985   8.627  1.00 24.90 LIG-0.27  OA
ENDBRANCH 31 32
ENDBRANCH 18 31
ENDBRANCH 16 18
ENDBRANCH 6 14
ENDBRANCH 4 6
ENDBRANCH 1 2
BRANCH 1 37
ATOM     37  CB  HIS P   4     -13.119  10.771  12.026  1.00 21.80 LIG 0.10  C 
BRANCH 37 38
ATOM     38  CG  HIS P   4     -12.065  11.632  11.400  1.00 23.01 LIG 0.06  A 
ATOM     39  CD2 HIS P   4     -10.748  11.740  11.574  1.00 23.26 LIG 0.14  A 
ATOM     40 NE2  HIS P   4     -10.273  12.547  10.572  1.00 21.45 LIG-0.25  NA
ATOM     41  CE1 HIS P   4     -11.271  12.913   9.772  1.00 22.12 LIG 0.23  A 
ATOM     42 ND1  HIS P   4     -12.352  12.368  10.231  1.00 22.83 LIG-0.24  NA
ENDBRANCH 37 38
ENDBRANCH 1 37
BRANCH 1 43
ATOM     43  N   HIS P   4     -14.326  10.501   9.818  1.00 22.02 LIG-0.35  N 
ATOM     44  C   SER P   3     -13.907  10.066   8.630  1.00 24.42 LIG 0.24  C 
ATOM     45 O    SER P   3     -13.081   9.143   8.542  1.00 24.72 LIG-0.27  OA
ATOM     46 H    HIS P   4     -14.878  11.147   9.949  1.00 22.02 LIG 0.16  HD
BRANCH 44 47
ATOM     47  CA  SER P   3     -14.381  10.794   7.382  1.00 22.14 LIG 0.20  C 
BRANCH 47 48
ATOM     48  CB  SER P   3     -15.134   9.865   6.408  1.00 23.32 LIG 0.20  C 
BRANCH 48 49
ATOM     49 OG   SER P   3     -14.649  10.087   5.065  1.00 23.11 LIG-0.40  OA
ATOM     50 HG   SER P   3     -14.982  10.796   4.761  1.00 23.11 LIG 0.21  HD
ENDBRANCH 48 49
ENDBRANCH 47 48
BRANCH 47 51
ATOM     51  N   SER P   3     -13.304  11.447   6.635  1.00 22.53 LIG-0.34  N 
ATOM     52 H    SER P   3     -12.908  10.945   6.060  1.00 22.53 LIG 0.16  HD
ATOM     53  C   VAL P   2     -12.994  12.721   6.857  1.00 22.76 LIG 0.24  C 
ATOM     54 O    VAL P   2     -13.487  13.362   7.812  1.00 25.85 LIG-0.27  OA
BRANCH 53 55
ATOM     55  CA  VAL P   2     -11.873  13.305   5.993  1.00 24.07 LIG 0.18  C 
BRANCH 55 56
ATOM     56  N   VAL P   2     -11.562  12.422   4.868  1.00 24.29 LIG-0.35  N 
ATOM     57 H    VAL P   2     -12.222  12.234   4.349  1.00 24.29 LIG 0.16  HD
ATOM     58  C   VAL P   1     -10.297  11.969   4.717  1.00 26.39 LIG 0.25  C 
ATOM     59 O    VAL P   1      -9.381  12.305   5.524  1.00 26.90 LIG-0.27  OA
BRANCH 58 60
ATOM     60  CA  VAL P   1      -9.993  11.082   3.518  1.00 27.40 LIG 0.28  C 
BRANCH 60 61
ATOM     61  CB  VAL P   1     -10.936   9.837   3.484  1.00 27.20 LIG 0.02  C 
ATOM     62  CG2 VAL P   1     -12.247  10.241   2.800  1.00 28.02 LIG 0.01  C 
ATOM     63  CG1 VAL P   1     -11.142   9.491   4.942  1.00 27.17 LIG 0.01  C 
ENDBRANCH 60 61
BRANCH 60 64
ATOM     64  N   VAL P   1      -8.642  10.615   3.511  1.00 29.12 LIG-0.07  N 
ATOM     65 H2   VAL P   1      -8.301  10.679   4.331  1.00 29.12 LIG 0.28  HD
ATOM     66 H1   VAL P   1      -8.159  11.110   2.950  1.00 29.12 LIG 0.28  HD
ATOM     67 H3   VAL P   1      -8.623   9.765   3.248  1.00 29.12 LIG 0.28  HD
ENDBRANCH 60 64
ENDBRANCH 58 60
ENDBRANCH 55 56
BRANCH 55 68
ATOM     68  CB  VAL P   2     -12.299  14.743   5.575  1.00 25.03 LIG 0.01  C 
ATOM     69  CG2 VAL P   2     -12.010  15.717   6.735  1.00 23.99 LIG 0.01  C 
ATOM     70  CG1 VAL P   2     -13.765  14.837   5.196  1.00 25.56 LIG 0.01  C 
ENDBRANCH 55 68
ENDBRANCH 53 55
ENDBRANCH 47 51
ENDBRANCH 44 47
ENDBRANCH 1 43
TORSDOF 26
ENDMDL
MODEL 43
USER: ADFR SOLUTION from run 127
USER: SCORE 19.751052 LL:  -6.814 LR: -14.106 RR:   0.000 FEB:  -6.350
USER: RMSD 8.082105
USER: SEED 126
USER: STATUS no improvement in best in 13 clusters for 5 generations
USER: GENES 28
USER: genes 0 Translation |==|  0.55405 0.51632 0.69172
USER: genes 1 Rotation |==|  0.37117 0.42889 0.95364 0.65019
USER: genes 2 Torsion [N]-CA--C-[N] |==|  0.41800
USER: genes 3 Torsion [C]-N--CA-[CB] |==|  0.76074
USER: genes 4 Torsion [N]-CA--CB-[CG] |==|  0.95318
USER: genes 5 Torsion [CA]-CB--CG-[CD2] |==|  0.30735
USER: genes 6 Torsion [N]-CA--C-[N] |==|  0.22544
USER: genes 7 Torsion [C]-N--CA-[CB] |==|  0.17469
USER: genes 8 Torsion [N]-CA--C-[N] |==|  0.63826
USER: genes 9 Torsion [C]-N--CA-[C] |==|  0.19485
USER: genes 10 Torsion [N]-CA--C-[O] |==|  0.59002
USER: genes 11 Torsion [N]-CA--CB-[CG] |==|  0.69257
USER: genes 12 Torsion [CA]-CB--CG-[OD1] |==|  0.00902
USER: genes 13 Torsion [N]-CA--CB-[CG] |==|  0.63834
USER: genes 14 Torsion [CA]-CB--CG-[OD1] |==|  0.67764
USER: genes 15 Torsion [C]-CA--CB-[CG] |==|  0.62140
USER: genes 16 Torsion [CA]-CB--CG-[CD2] |==|  0.70679
USER: genes 17 Torsion [C]-CA--N-[C] |==|  0.64758
USER: genes 18 Torsion [N]-C--CA-[N] |==|  0.99977
USER: genes 19 Torsion [C]-CA--CB-[OG] |==|  0.76880
USER: genes 20 Torsion [CA]-CB--OG-[HG] |==|  0.55036
USER: genes 21 Torsion [C]-CA--N-[C] |==|  0.75605
USER: genes 22 Torsion [N]-C--CA-[N] |==|  0.85770
USER: genes 23 Torsion [C]-CA--N-[C] |==|  0.82653
USER: genes 24 Torsion [N]-C--CA-[N] |==|  0.61205
USER: genes 25 Torsion [C]-CA--CB-[CG2] |==|  0.57471
USER: genes 26 Torsion [C]-CA--N-[H2] |==|  0.93981
USER: genes 27 Torsion [C]-CA--CB-[CG2] |==|  0.76382
ROOT
ATOM      1  CA  HIS P   4     -16.475  12.772  13.550  1.00 23.76 LIG 0.18  C 
ENDROOT
BRANCH 1 2
ATOM      2  C   HIS P   4     -15.437  11.846  12.901  1.00 25.01 LIG 0.24  C 
ATOM      3 O    HIS P   4     -15.722  11.173  11.902  1.00 23.35 LIG-0.27  OA
ATOM      4  N   PHE P   5     -14.256  11.749  13.510  1.00 23.15 LIG-0.35  N 
ATOM      5 H    PHE P   5     -14.074  12.144  14.253  1.00 23.15 LIG 0.16  HD
BRANCH 4 6
ATOM      6  CA  PHE P   5     -13.158  10.965  12.979  1.00 24.23 LIG 0.18  C 
BRANCH 6 7
ATOM      7  CB  PHE P   5     -13.315   9.490  13.462  1.00 25.15 LIG 0.07  C 
BRANCH 7 8
ATOM      8  CG  PHE P   5     -14.262   9.397  14.615  1.00 25.22 LIG-0.06  A 
ATOM      9  CD2 PHE P   5     -15.486   8.778  14.384  1.00 26.21 LIG 0.01  A 
ATOM     10  CE2 PHE P   5     -16.433   8.723  15.366  1.00 26.58 LIG 0.00  A 
ATOM     11  CZ  PHE P   5     -16.151   9.240  16.618  1.00 27.68 LIG 0.00  A 
ATOM     12  CE1 PHE P   5     -14.941   9.841  16.867  1.00 26.50 LIG 0.00  A 
ATOM     13  CD1 PHE P   5     -13.991   9.916  15.857  1.00 25.73 LIG 0.01  A 
ENDBRANCH 7 8
ENDBRANCH 6 7
BRANCH 6 14
ATOM     14  C   PHE P   5     -13.006  11.050  11.477  1.00 25.59 LIG 0.24  C 
ATOM     15 O    PHE P   5     -13.520  10.203  10.718  1.00 25.82 LIG-0.27  OA
ATOM     16  N   ASN P   6     -12.374  12.113  11.015  1.00 24.53 LIG-0.35  N 
ATOM     17 H    ASN P   6     -12.035  12.728  11.511  1.00 24.53 LIG 0.16  HD
BRANCH 16 18
ATOM     18  CA  ASN P   6     -12.203  12.322   9.584  1.00 25.84 LIG 0.18  C 
BRANCH 18 19
ATOM     19  C   ASN P   6     -11.276  13.467   9.244  1.00 25.26 LIG 0.24  C 
ATOM     20  N   ASP P   7     -11.706  14.381   8.351  1.00 26.59 LIG-0.34  N 
ATOM     21 H    ASP P   7     -12.460  14.346   7.939  1.00 26.59 LIG 0.16  HD
ATOM     22 O    ASN P   6     -10.155  13.513   9.756  1.00 25.72 LIG-0.27  OA
BRANCH 20 23
ATOM     23  CA  ASP P   7     -10.880  15.521   8.025  1.00 25.93 LIG 0.20  C 
BRANCH 23 24
ATOM     24  C   ASP P   7      -9.657  15.065   7.215  1.00 27.07 LIG 0.20  C 
ATOM     25 O    ASP P   7      -8.639  15.712   7.393  1.00 28.96 LIG-0.65  OA
ATOM     26 OXT  ASP P   7      -9.756  13.990   6.464  1.00 29.63 LIG-0.65  OA
ENDBRANCH 23 24
BRANCH 23 27
ATOM     27  CB  ASP P   7     -10.341  16.298   9.243  1.00 25.41 LIG 0.15  C 
BRANCH 27 28
ATOM     28  CG  ASP P   7     -10.956  17.666   9.397  1.00 25.37 LIG 0.17  C 
ATOM     29 OD1  ASP P   7     -11.860  18.110   8.654  1.00 26.66 LIG-0.65  OA
ATOM     30 OD2  ASP P   7     -10.521  18.359  10.378  1.00 23.76 LIG-0.65  OA
ENDBRANCH 27 28
ENDBRANCH 23 27
ENDBRANCH 20 23
ENDBRANCH 18 19
BRANCH 18 31
ATOM     31  CB  ASN P   6     -13.565  12.480   8.905  1.00 24.75 LIG 0.14  C 
BRANCH 31 32
ATOM     32  CG  ASN P   6     -13.695  11.581   7.694  1.00 27.24 LIG 0.22  C 
ATOM     33  ND2 ASN P   6     -13.592  10.301   8.046  1.00 23.85 LIG-0.37  N 
ATOM     34 21HD ASN P   6     -13.613   9.686   7.445  1.00 23.85 LIG 0.16  HD
ATOM     35 22HD ASN P   6     -13.505  10.089   8.875  1.00 23.85 LIG 0.16  HD
ATOM     36 OD1  ASN P   6     -13.828  12.079   6.539  1.00 24.90 LIG-0.27  OA
ENDBRANCH 31 32
ENDBRANCH 18 31
ENDBRANCH 16 18
ENDBRANCH 6 14
ENDBRANCH 4 6
ENDBRANCH 1 2
BRANCH 1 37
ATOM     37  CB  HIS P   4     -17.230  11.967  14.608  1.00 21.80 LIG 0.10  C 
BRANCH 37 38
ATOM     38  CG  HIS P   4     -18.712  12.191  14.589  1.00 23.01 LIG 0.06  A 
ATOM     39  CD2 HIS P   4     -19.546  12.865  15.380  1.00 23.26 LIG 0.14  A 
ATOM     40 NE2  HIS P   4     -20.765  12.892  14.751  1.00 21.45 LIG-0.25  NA
ATOM     41  CE1 HIS P   4     -20.685  12.271  13.578  1.00 22.12 LIG 0.23  A 
ATOM     42 ND1  HIS P   4     -19.466  11.855  13.445  1.00 22.83 LIG-0.24  NA
ENDBRANCH 37 38
ENDBRANCH 1 37
BRANCH 1 43
ATOM     43  N   HIS P   4     -17.340  13.299  12.458  1.00 22.02 LIG-0.35  N 
ATOM     44  C   SER P   3     -17.497  14.619  12.358  1.00 24.42 LIG 0.24  C 
ATOM     45 O    SER P   3     -16.963  15.389  13.172  1.00 24.72 LIG-0.27  OA
ATOM     46 H    HIS P   4     -17.698  12.710  11.942  1.00 22.02 LIG 0.16  HD
BRANCH 44 47
ATOM     47  CA  SER P   3     -18.433  15.159  11.289  1.00 22.14 LIG 0.20  C 
BRANCH 47 48
ATOM     48  CB  SER P   3     -19.554  16.040  11.878  1.00 23.32 LIG 0.20  C 
BRANCH 48 49
ATOM     49 OG   SER P   3     -20.630  15.195  12.344  1.00 23.11 LIG-0.40  OA
ATOM     50 HG   SER P   3     -21.328  15.654  12.432  1.00 23.11 LIG 0.21  HD
ENDBRANCH 48 49
ENDBRANCH 47 48
BRANCH 47 51
ATOM     51  N   SER P   3     -19.064  14.118  10.475  1.00 22.53 LIG-0.34  N 
ATOM     52 H    SER P   3     -19.828  13.849  10.763  1.00 22.53 LIG 0.16  HD
ATOM     53  C   VAL P   2     -18.468  13.651   9.382  1.00 22.76 LIG 0.24  C 
ATOM     54 O    VAL P   2     -17.289  13.955   9.093  1.00 25.85 LIG-0.27  OA
BRANCH 53 55
ATOM     55  CA  VAL P   2     -19.237  12.588   8.594  1.00 24.07 LIG 0.18  C 
BRANCH 55 56
ATOM     56  N   VAL P   2     -19.677  11.500   9.469  1.00 24.29 LIG-0.35  N 
ATOM     57 H    VAL P   2     -20.528  11.394   9.532  1.00 24.29 LIG 0.16  HD
ATOM     58  C   VAL P   1     -18.749  10.751  10.105  1.00 26.39 LIG 0.25  C 
ATOM     59 O    VAL P   1     -17.511  10.969   9.946  1.00 26.90 LIG-0.27  OA
BRANCH 58 60
ATOM     60  CA  VAL P   1     -19.232   9.603  10.980  1.00 27.40 LIG 0.28  C 
BRANCH 60 61
ATOM     61  CB  VAL P   1     -20.740   9.773  11.350  1.00 27.20 LIG 0.02  C 
ATOM     62  CG2 VAL P   1     -20.996   9.062  12.684  1.00 28.02 LIG 0.01  C 
ATOM     63  CG1 VAL P   1     -21.477   9.112  10.206  1.00 27.17 LIG 0.01  C 
ENDBRANCH 60 61
BRANCH 60 64
ATOM     64  N   VAL P   1     -18.487   9.490  12.195  1.00 29.12 LIG-0.07  N 
ATOM     65 H2   VAL P   1     -17.696   9.886  12.097  1.00 29.12 LIG 0.28  HD
ATOM     66 H1   VAL P   1     -18.365   8.630  12.390  1.00 29.12 LIG 0.28  HD
ATOM     67 H3   VAL P   1     -18.935   9.883  12.856  1.00 29.12 LIG 0.28  HD
ENDBRANCH 60 64
ENDBRANCH 58 60
ENDBRANCH 55 56
BRANCH 55 68
ATOM     68  CB  VAL P   2     -20.394  13.305   7.837  1.00 25.03 LIG 0.01  C 
ATOM     69  CG2 VAL P   2     -21.610  13.439   8.775  1.00 23.99 LIG 0.01  C 
ATOM     70  CG1 VAL P   2     -20.814  12.576   6.574  1.00 25.56 LIG 0.01  C 
ENDBRANCH 55 68
ENDBRANCH 53 55
ENDBRANCH 47 51
ENDBRANCH 44 47
ENDBRANCH 1 43
TORSDOF 26
ENDMDL
MODEL 44
USER: ADFR SOLUTION from run 52
USER: SCORE 19.024710 LL:  -6.780 LR: -14.056 RR:   0.000 FEB:  -6.300
USER: RMSD 8.485867
USER: SEED 51
USER: STATUS no improvement in best in 8 clusters for 5 generations
USER: GENES 28
USER: genes 0 Translation |==|  0.52465 0.34019 0.72538
USER: genes 1 Rotation |==|  0.44091 0.78530 0.14587 0.69927
USER: genes 2 Torsion [N]-CA--C-[N] |==|  0.90842
USER: genes 3 Torsion [C]-N--CA-[CB] |==|  0.47983
USER: genes 4 Torsion [N]-CA--CB-[CG] |==|  0.79266
USER: genes 5 Torsion [CA]-CB--CG-[CD2] |==|  0.89400
USER: genes 6 Torsion [N]-CA--C-[N] |==|  0.46891
USER: genes 7 Torsion [C]-N--CA-[CB] |==|  0.47269
USER: genes 8 Torsion [N]-CA--C-[N] |==|  0.44989
USER: genes 9 Torsion [C]-N--CA-[C] |==|  0.82341
USER: genes 10 Torsion [N]-CA--C-[O] |==|  0.42058
USER: genes 11 Torsion [N]-CA--CB-[CG] |==|  0.66743
USER: genes 12 Torsion [CA]-CB--CG-[OD1] |==|  0.15722
USER: genes 13 Torsion [N]-CA--CB-[CG] |==|  0.59926
USER: genes 14 Torsion [CA]-CB--CG-[OD1] |==|  0.21979
USER: genes 15 Torsion [C]-CA--CB-[CG] |==|  0.81005
USER: genes 16 Torsion [CA]-CB--CG-[CD2] |==|  0.27616
USER: genes 17 Torsion [C]-CA--N-[C] |==|  0.84894
USER: genes 18 Torsion [N]-C--CA-[N] |==|  0.42359
USER: genes 19 Torsion [C]-CA--CB-[OG] |==|  0.38580
USER: genes 20 Torsion [CA]-CB--OG-[HG] |==|  0.87802
USER: genes 21 Torsion [C]-CA--N-[C] |==|  0.73000
USER: genes 22 Torsion [N]-C--CA-[N] |==|  0.89755
USER: genes 23 Torsion [C]-CA--N-[C] |==|  0.85556
USER: genes 24 Torsion [N]-C--CA-[N] |==|  0.48129
USER: genes 25 Torsion [C]-CA--CB-[CG2] |==|  0.20350
USER: genes 26 Torsion [C]-CA--N-[H2] |==|  0.76086
USER: genes 27 Torsion [C]-CA--CB-[CG2] |==|  0.31638
ROOT
ATOM      1  CA  HIS P   4     -17.115   9.733  14.282  1.00 23.76 LIG 0.18  C 
ENDROOT
BRANCH 1 2
ATOM      2  C   HIS P   4     -16.853  11.169  13.804  1.00 25.01 LIG 0.24  C 
ATOM      3 O    HIS P   4     -16.680  12.087  14.617  1.00 23.35 LIG-0.27  OA
ATOM      4  N   PHE P   5     -16.898  11.381  12.490  1.00 23.15 LIG-0.35  N 
ATOM      5 H    PHE P   5     -17.102  10.770  11.920  1.00 23.15 LIG 0.16  HD
BRANCH 4 6
ATOM      6  CA  PHE P   5     -16.608  12.669  11.891  1.00 24.23 LIG 0.18  C 
BRANCH 6 7
ATOM      7  CB  PHE P   5     -16.577  12.506  10.341  1.00 25.15 LIG 0.07  C 
BRANCH 7 8
ATOM      8  CG  PHE P   5     -15.326  11.819   9.895  1.00 25.22 LIG-0.06  A 
ATOM      9  CD2 PHE P   5     -14.151  12.140  10.565  1.00 26.21 LIG 0.01  A 
ATOM     10  CE2 PHE P   5     -12.957  11.612  10.166  1.00 26.58 LIG 0.00  A 
ATOM     11  CZ  PHE P   5     -12.924  10.709   9.118  1.00 27.68 LIG 0.00  A 
ATOM     12  CE1 PHE P   5     -14.078  10.370   8.455  1.00 26.50 LIG 0.00  A 
ATOM     13  CD1 PHE P   5     -15.287  10.928   8.850  1.00 25.73 LIG 0.01  A 
ENDBRANCH 7 8
ENDBRANCH 6 7
BRANCH 6 14
ATOM     14  C   PHE P   5     -17.545  13.777  12.320  1.00 25.59 LIG 0.24  C 
ATOM     15 O    PHE P   5     -18.553  13.546  13.018  1.00 25.82 LIG-0.27  OA
ATOM     16  N   ASN P   6     -17.189  15.003  11.986  1.00 24.53 LIG-0.35  N 
ATOM     17 H    ASN P   6     -16.485  15.196  11.531  1.00 24.53 LIG 0.16  HD
BRANCH 16 18
ATOM     18  CA  ASN P   6     -17.992  16.152  12.379  1.00 25.84 LIG 0.18  C 
BRANCH 18 19
ATOM     19  C   ASN P   6     -19.376  16.161  11.774  1.00 25.26 LIG 0.24  C 
ATOM     20  N   ASP P   7     -20.308  16.950  12.345  1.00 26.59 LIG-0.34  N 
ATOM     21 H    ASP P   7     -20.180  17.430  13.048  1.00 26.59 LIG 0.16  HD
ATOM     22 O    ASN P   6     -19.623  15.430  10.812  1.00 25.72 LIG-0.27  OA
BRANCH 20 23
ATOM     23  CA  ASP P   7     -21.635  17.034  11.779  1.00 25.93 LIG 0.20  C 
BRANCH 23 24
ATOM     24  C   ASP P   7     -21.563  17.638  10.368  1.00 27.07 LIG 0.20  C 
ATOM     25 O    ASP P   7     -22.441  17.285   9.601  1.00 28.96 LIG-0.65  OA
ATOM     26 OXT  ASP P   7     -20.636  18.533  10.106  1.00 29.63 LIG-0.65  OA
ENDBRANCH 23 24
BRANCH 23 27
ATOM     27  CB  ASP P   7     -22.627  17.898  12.582  1.00 25.41 LIG 0.15  C 
BRANCH 27 28
ATOM     28  CG  ASP P   7     -23.832  17.131  13.064  1.00 25.37 LIG 0.17  C 
ATOM     29 OD1  ASP P   7     -23.763  16.103  13.774  1.00 26.66 LIG-0.65  OA
ATOM     30 OD2  ASP P   7     -24.966  17.619  12.732  1.00 23.76 LIG-0.65  OA
ENDBRANCH 27 28
ENDBRANCH 23 27
ENDBRANCH 20 23
ENDBRANCH 18 19
BRANCH 18 31
ATOM     31  CB  ASN P   6     -17.239  17.451  12.082  1.00 24.75 LIG 0.14  C 
BRANCH 31 32
ATOM     32  CG  ASN P   6     -17.506  18.507  13.133  1.00 27.24 LIG 0.22  C 
ATOM     33  ND2 ASN P   6     -18.361  19.419  12.673  1.00 23.85 LIG-0.37  N 
ATOM     34 21HD ASN P   6     -18.570  20.097  13.161  1.00 23.85 LIG 0.16  HD
ATOM     35 22HD ASN P   6     -18.705  19.331  11.890  1.00 23.85 LIG 0.16  HD
ATOM     36 OD1  ASN P   6     -16.907  18.468  14.246  1.00 24.90 LIG-0.27  OA
ENDBRANCH 31 32
ENDBRANCH 18 31
ENDBRANCH 16 18
ENDBRANCH 6 14
ENDBRANCH 4 6
ENDBRANCH 1 2
BRANCH 1 37
ATOM     37  CB  HIS P   4     -15.774   9.002  14.341  1.00 21.80 LIG 0.10  C 
BRANCH 37 38
ATOM     38  CG  HIS P   4     -15.163   8.758  12.994  1.00 23.01 LIG 0.06  A 
ATOM     39  CD2 HIS P   4     -14.212   9.376  12.294  1.00 23.26 LIG 0.14  A 
ATOM     40 NE2  HIS P   4     -13.923   8.579  11.215  1.00 21.45 LIG-0.25  NA
ATOM     41  CE1 HIS P   4     -14.661   7.474  11.257  1.00 22.12 LIG 0.23  A 
ATOM     42 ND1  HIS P   4     -15.401   7.543  12.317  1.00 22.83 LIG-0.24  NA
ENDBRANCH 37 38
ENDBRANCH 1 37
BRANCH 1 43
ATOM     43  N   HIS P   4     -18.095   9.126  13.340  1.00 22.02 LIG-0.35  N 
ATOM     44  C   SER P   3     -19.246   9.764  13.128  1.00 24.42 LIG 0.24  C 
ATOM     45 O    SER P   3     -19.511  10.821  13.725  1.00 24.72 LIG-0.27  OA
ATOM     46 H    HIS P   4     -17.860   8.383  12.977  1.00 22.02 LIG 0.16  HD
BRANCH 44 47
ATOM     47  CA  SER P   3     -20.279   9.115  12.221  1.00 22.14 LIG 0.20  C 
BRANCH 47 48
ATOM     48  CB  SER P   3     -20.027   9.418  10.730  1.00 23.32 LIG 0.20  C 
BRANCH 48 49
ATOM     49 OG   SER P   3     -20.260   8.222   9.954  1.00 23.11 LIG-0.40  OA
ATOM     50 HG   SER P   3     -19.909   7.565  10.340  1.00 23.11 LIG 0.21  HD
ENDBRANCH 48 49
ENDBRANCH 47 48
BRANCH 47 51
ATOM     51  N   SER P   3     -21.659   9.498  12.528  1.00 22.53 LIG-0.34  N 
ATOM     52 H    SER P   3     -21.910  10.246  12.185  1.00 22.53 LIG 0.16  HD
ATOM     53  C   VAL P   2     -22.432   8.723  13.282  1.00 22.76 LIG 0.24  C 
ATOM     54 O    VAL P   2     -21.975   7.729  13.890  1.00 25.85 LIG-0.27  OA
BRANCH 53 55
ATOM     55  CA  VAL P   2     -23.865   9.210  13.508  1.00 24.07 LIG 0.18  C 
BRANCH 55 56
ATOM     56  N   VAL P   2     -23.910  10.667  13.642  1.00 24.29 LIG-0.35  N 
ATOM     57 H    VAL P   2     -24.471  11.071  13.132  1.00 24.29 LIG 0.16  HD
ATOM     58  C   VAL P   1     -23.092  11.271  14.534  1.00 26.39 LIG 0.25  C 
ATOM     59 O    VAL P   1     -22.300  10.597  15.256  1.00 26.90 LIG-0.27  OA
BRANCH 58 60
ATOM     60  CA  VAL P   1     -23.184  12.783  14.680  1.00 27.40 LIG 0.28  C 
BRANCH 60 61
ATOM     61  CB  VAL P   1     -22.736  13.504  13.369  1.00 27.20 LIG 0.02  C 
ATOM     62  CG2 VAL P   1     -23.835  13.322  12.315  1.00 28.02 LIG 0.01  C 
ATOM     63  CG1 VAL P   1     -21.456  12.799  12.979  1.00 27.17 LIG 0.01  C 
ENDBRANCH 60 61
BRANCH 60 64
ATOM     64  N   VAL P   1     -22.383  13.279  15.755  1.00 29.12 LIG-0.07  N 
ATOM     65 H2   VAL P   1     -22.846  13.239  16.514  1.00 29.12 LIG 0.28  HD
ATOM     66 H1   VAL P   1     -22.156  14.124  15.591  1.00 29.12 LIG 0.28  HD
ATOM     67 H3   VAL P   1     -21.648  12.783  15.830  1.00 29.12 LIG 0.28  HD
ENDBRANCH 60 64
ENDBRANCH 58 60
ENDBRANCH 55 56
BRANCH 55 68
ATOM     68  CB  VAL P   2     -24.743   8.650  12.350  1.00 25.03 LIG 0.01  C 
ATOM     69  CG2 VAL P   2     -25.760   7.644  12.922  1.00 23.99 LIG 0.01  C 
ATOM     70  CG1 VAL P   2     -23.925   7.975  11.264  1.00 25.56 LIG 0.01  C 
ENDBRANCH 55 68
ENDBRANCH 53 55
ENDBRANCH 47 51
ENDBRANCH 44 47
ENDBRANCH 1 43
TORSDOF 26
ENDMDL
MODEL 45
USER: ADFR SOLUTION from run 188
USER: SCORE 17.358165 LL:  -6.362 LR: -14.062 RR:   0.000 FEB:  -6.306
USER: RMSD 9.556266
USER: SEED 187
USER: STATUS no improvement in best in 6 clusters for 5 generations
USER: GENES 28
USER: genes 0 Translation |==|  0.70527 0.41826 0.68008
USER: genes 1 Rotation |==|  0.70260 0.25203 0.88113 0.54698
USER: genes 2 Torsion [N]-CA--C-[N] |==|  0.53643
USER: genes 3 Torsion [C]-N--CA-[CB] |==|  0.42320
USER: genes 4 Torsion [N]-CA--CB-[CG] |==|  0.56759
USER: genes 5 Torsion [CA]-CB--CG-[CD2] |==|  0.47030
USER: genes 6 Torsion [N]-CA--C-[N] |==|  0.85568
USER: genes 7 Torsion [C]-N--CA-[CB] |==|  0.86841
USER: genes 8 Torsion [N]-CA--C-[N] |==|  0.90181
USER: genes 9 Torsion [C]-N--CA-[C] |==|  0.68608
USER: genes 10 Torsion [N]-CA--C-[O] |==|  0.88098
USER: genes 11 Torsion [N]-CA--CB-[CG] |==|  0.97095
USER: genes 12 Torsion [CA]-CB--CG-[OD1] |==|  0.18034
USER: genes 13 Torsion [N]-CA--CB-[CG] |==|  0.40170
USER: genes 14 Torsion [CA]-CB--CG-[OD1] |==|  0.23028
USER: genes 15 Torsion [C]-CA--CB-[CG] |==|  0.85180
USER: genes 16 Torsion [CA]-CB--CG-[CD2] |==|  0.30705
USER: genes 17 Torsion [C]-CA--N-[C] |==|  0.50326
USER: genes 18 Torsion [N]-C--CA-[N] |==|  0.01104
USER: genes 19 Torsion [C]-CA--CB-[OG] |==|  0.95737
USER: genes 20 Torsion [CA]-CB--OG-[HG] |==|  0.17409
USER: genes 21 Torsion [C]-CA--N-[C] |==|  0.18377
USER: genes 22 Torsion [N]-C--CA-[N] |==|  0.96430
USER: genes 23 Torsion [C]-CA--N-[C] |==|  0.67932
USER: genes 24 Torsion [N]-C--CA-[N] |==|  0.90251
USER: genes 25 Torsion [C]-CA--CB-[CG2] |==|  0.17331
USER: genes 26 Torsion [C]-CA--N-[H2] |==|  0.80819
USER: genes 27 Torsion [C]-CA--CB-[CG2] |==|  0.76153
ROOT
ATOM      1  CA  HIS P   4     -13.186  11.080  13.297  1.00 23.76 LIG 0.18  C 
ENDROOT
BRANCH 1 2
ATOM      2  C   HIS P   4     -13.312  11.948  12.037  1.00 25.01 LIG 0.24  C 
ATOM      3 O    HIS P   4     -14.379  12.511  11.757  1.00 23.35 LIG-0.27  OA
ATOM      4  N   PHE P   5     -12.250  11.998  11.235  1.00 23.15 LIG-0.35  N 
ATOM      5 H    PHE P   5     -11.533  11.544  11.372  1.00 23.15 LIG 0.16  HD
BRANCH 4 6
ATOM      6  CA  PHE P   5     -12.201  12.826  10.045  1.00 24.23 LIG 0.18  C 
BRANCH 6 7
ATOM      7  CB  PHE P   5     -10.716  13.205   9.759  1.00 25.15 LIG 0.07  C 
BRANCH 7 8
ATOM      8  CG  PHE P   5     -10.624  14.467   8.963  1.00 25.22 LIG-0.06  A 
ATOM      9  CD2 PHE P   5      -9.366  15.045   8.830  1.00 26.21 LIG 0.01  A 
ATOM     10  CE2 PHE P   5      -9.214  16.238   8.183  1.00 26.58 LIG 0.00  A 
ATOM     11  CZ  PHE P   5     -10.314  16.851   7.610  1.00 27.68 LIG 0.00  A 
ATOM     12  CE1 PHE P   5     -11.561  16.285   7.719  1.00 26.50 LIG 0.00  A 
ATOM     13  CD1 PHE P   5     -11.714  15.084   8.399  1.00 25.73 LIG 0.01  A 
ENDBRANCH 7 8
ENDBRANCH 6 7
BRANCH 6 14
ATOM     14  C   PHE P   5     -12.867  12.212   8.835  1.00 25.59 LIG 0.24  C 
ATOM     15 O    PHE P   5     -13.670  12.859   8.131  1.00 25.82 LIG-0.27  OA
ATOM     16  N   ASN P   6     -12.487  10.988   8.519  1.00 24.53 LIG-0.35  N 
ATOM     17 H    ASN P   6     -11.915  10.528   8.967  1.00 24.53 LIG 0.16  HD
BRANCH 16 18
ATOM     18  CA  ASN P   6     -13.031  10.310   7.351  1.00 25.84 LIG 0.18  C 
BRANCH 18 19
ATOM     19  C   ASN P   6     -12.406  10.749   6.047  1.00 25.26 LIG 0.24  C 
ATOM     20  N   ASP P   7     -12.051  12.044   5.925  1.00 26.59 LIG-0.34  N 
ATOM     21 H    ASP P   7     -12.179  12.646   6.525  1.00 26.59 LIG 0.16  HD
ATOM     22 O    ASN P   6     -12.274   9.934   5.131  1.00 25.72 LIG-0.27  OA
BRANCH 20 23
ATOM     23  CA  ASP P   7     -11.406  12.509   4.718  1.00 25.93 LIG 0.20  C 
BRANCH 23 24
ATOM     24  C   ASP P   7      -9.959  12.923   5.027  1.00 27.07 LIG 0.20  C 
ATOM     25 O    ASP P   7      -9.804  13.563   6.052  1.00 28.96 LIG-0.65  OA
ATOM     26 OXT  ASP P   7      -8.995  12.506   4.236  1.00 29.63 LIG-0.65  OA
ENDBRANCH 23 24
BRANCH 23 27
ATOM     27  CB  ASP P   7     -12.082  13.723   4.050  1.00 25.41 LIG 0.15  C 
BRANCH 27 28
ATOM     28  CG  ASP P   7     -13.432  14.050   4.636  1.00 25.37 LIG 0.17  C 
ATOM     29 OD1  ASP P   7     -13.604  14.437   5.813  1.00 26.66 LIG-0.65  OA
ATOM     30 OD2  ASP P   7     -14.421  13.946   3.834  1.00 23.76 LIG-0.65  OA
ENDBRANCH 27 28
ENDBRANCH 23 27
ENDBRANCH 20 23
ENDBRANCH 18 19
BRANCH 18 31
ATOM     31  CB  ASN P   6     -14.555  10.448   7.320  1.00 24.75 LIG 0.14  C 
BRANCH 31 32
ATOM     32  CG  ASN P   6     -15.078  10.578   5.906  1.00 27.24 LIG 0.22  C 
ATOM     33  ND2 ASN P   6     -15.325  11.854   5.612  1.00 23.85 LIG-0.37  N 
ATOM     34 21HD ASN P   6     -15.662  12.062   4.849  1.00 23.85 LIG 0.16  HD
ATOM     35 22HD ASN P   6     -15.147  12.469   6.186  1.00 23.85 LIG 0.16  HD
ATOM     36 OD1  ASN P   6     -15.269   9.548   5.197  1.00 24.90 LIG-0.27  OA
ENDBRANCH 31 32
ENDBRANCH 18 31
ENDBRANCH 16 18
ENDBRANCH 6 14
ENDBRANCH 4 6
ENDBRANCH 1 2
BRANCH 1 37
ATOM     37  CB  HIS P   4     -12.512   9.767  12.900  1.00 21.80 LIG 0.10  C 
BRANCH 37 38
ATOM     38  CG  HIS P   4     -13.187   9.065  11.761  1.00 23.01 LIG 0.06  A 
ATOM     39  CD2 HIS P   4     -12.842   8.835  10.494  1.00 23.26 LIG 0.14  A 
ATOM     40 NE2  HIS P   4     -13.763   7.959   9.978  1.00 21.45 LIG-0.25  NA
ATOM     41  CE1 HIS P   4     -14.648   7.628  10.913  1.00 22.12 LIG 0.23  A 
ATOM     42 ND1  HIS P   4     -14.321   8.261  11.995  1.00 22.83 LIG-0.24  NA
ENDBRANCH 37 38
ENDBRANCH 1 37
BRANCH 1 43
ATOM     43  N   HIS P   4     -14.556  10.913  13.857  1.00 22.02 LIG-0.35  N 
ATOM     44  C   SER P   3     -14.699  10.208  14.979  1.00 24.42 LIG 0.24  C 
ATOM     45 O    SER P   3     -13.720   9.676  15.528  1.00 24.72 LIG-0.27  OA
ATOM     46 H    HIS P   4     -15.193  11.288  13.416  1.00 22.02 LIG 0.16  HD
BRANCH 44 47
ATOM     47  CA  SER P   3     -16.101   9.976  15.517  1.00 22.14 LIG 0.20  C 
BRANCH 47 48
ATOM     48  CB  SER P   3     -16.397   8.483  15.768  1.00 23.32 LIG 0.20  C 
BRANCH 48 49
ATOM     49 OG   SER P   3     -15.404   7.679  15.093  1.00 23.11 LIG-0.40  OA
ATOM     50 HG   SER P   3     -14.646   7.842  15.415  1.00 23.11 LIG 0.21  HD
ENDBRANCH 48 49
ENDBRANCH 47 48
BRANCH 47 51
ATOM     51  N   SER P   3     -17.160  10.502  14.653  1.00 22.53 LIG-0.34  N 
ATOM     52 H    SER P   3     -17.609  11.154  14.989  1.00 22.53 LIG 0.16  HD
ATOM     53  C   VAL P   2     -17.379   9.985  13.448  1.00 22.76 LIG 0.24  C 
ATOM     54 O    VAL P   2     -16.810   8.937  13.068  1.00 25.85 LIG-0.27  OA
BRANCH 53 55
ATOM     55  CA  VAL P   2     -18.490  10.637  12.623  1.00 24.07 LIG 0.18  C 
BRANCH 55 56
ATOM     56  N   VAL P   2     -19.307  11.526  13.450  1.00 24.29 LIG-0.35  N 
ATOM     57 H    VAL P   2     -18.901  12.212  13.773  1.00 24.29 LIG 0.16  HD
ATOM     58  C   VAL P   1     -20.610  11.226  13.651  1.00 26.39 LIG 0.25  C 
ATOM     59 O    VAL P   1     -21.133  10.198  13.127  1.00 26.90 LIG-0.27  OA
BRANCH 58 60
ATOM     60  CA  VAL P   1     -21.446  12.186  14.485  1.00 27.40 LIG 0.28  C 
BRANCH 60 61
ATOM     61  CB  VAL P   1     -22.035  13.333  13.603  1.00 27.20 LIG 0.02  C 
ATOM     62  CG2 VAL P   1     -22.967  12.711  12.557  1.00 28.02 LIG 0.01  C 
ATOM     63  CG1 VAL P   1     -20.819  13.971  12.968  1.00 27.17 LIG 0.01  C 
ENDBRANCH 60 61
BRANCH 60 64
ATOM     64  N   VAL P   1     -20.698  12.782  15.547  1.00 29.12 LIG-0.07  N 
ATOM     65 H2   VAL P   1     -20.503  12.164  16.157  1.00 29.12 LIG 0.28  HD
ATOM     66 H1   VAL P   1     -21.181  13.428  15.925  1.00 29.12 LIG 0.28  HD
ATOM     67 H3   VAL P   1     -19.944  13.126  15.222  1.00 29.12 LIG 0.28  HD
ENDBRANCH 60 64
ENDBRANCH 58 60
ENDBRANCH 55 56
BRANCH 55 68
ATOM     68  CB  VAL P   2     -17.824  11.337  11.402  1.00 25.03 LIG 0.01  C 
ATOM     69  CG2 VAL P   2     -17.371  12.753  11.811  1.00 23.99 LIG 0.01  C 
ATOM     70  CG1 VAL P   2     -18.747  11.433  10.201  1.00 25.56 LIG 0.01  C 
ENDBRANCH 55 68
ENDBRANCH 53 55
ENDBRANCH 47 51
ENDBRANCH 44 47
ENDBRANCH 1 43
TORSDOF 26
ENDMDL
MODEL 46
USER: ADFR SOLUTION from run 164
USER: SCORE 18.031765 LL:  -6.076 LR: -14.027 RR:   0.000 FEB:  -6.271
USER: RMSD 9.132114
USER: SEED 163
USER: STATUS no improvement in best in 7 clusters for 5 generations
USER: GENES 28
USER: genes 0 Translation |==|  0.49416 0.56502 0.68166
USER: genes 1 Rotation |==|  0.57871 0.51998 0.00812 0.53822
USER: genes 2 Torsion [N]-CA--C-[N] |==|  0.97199
USER: genes 3 Torsion [C]-N--CA-[CB] |==|  0.18766
USER: genes 4 Torsion [N]-CA--CB-[CG] |==|  0.30439
USER: genes 5 Torsion [CA]-CB--CG-[CD2] |==|  0.73517
USER: genes 6 Torsion [N]-CA--C-[N] |==|  0.41812
USER: genes 7 Torsion [C]-N--CA-[CB] |==|  0.19791
USER: genes 8 Torsion [N]-CA--C-[N] |==|  0.66416
USER: genes 9 Torsion [C]-N--CA-[C] |==|  0.20045
USER: genes 10 Torsion [N]-CA--C-[O] |==|  0.04513
USER: genes 11 Torsion [N]-CA--CB-[CG] |==|  0.79426
USER: genes 12 Torsion [CA]-CB--CG-[OD1] |==|  0.46798
USER: genes 13 Torsion [N]-CA--CB-[CG] |==|  0.55911
USER: genes 14 Torsion [CA]-CB--CG-[OD1] |==|  0.77238
USER: genes 15 Torsion [C]-CA--CB-[CG] |==|  0.84182
USER: genes 16 Torsion [CA]-CB--CG-[CD2] |==|  0.90674
USER: genes 17 Torsion [C]-CA--N-[C] |==|  0.79957
USER: genes 18 Torsion [N]-C--CA-[N] |==|  0.02003
USER: genes 19 Torsion [C]-CA--CB-[OG] |==|  0.72626
USER: genes 20 Torsion [CA]-CB--OG-[HG] |==|  0.37271
USER: genes 21 Torsion [C]-CA--N-[C] |==|  0.78889
USER: genes 22 Torsion [N]-C--CA-[N] |==|  0.91838
USER: genes 23 Torsion [C]-CA--N-[C] |==|  0.84302
USER: genes 24 Torsion [N]-C--CA-[N] |==|  0.50631
USER: genes 25 Torsion [C]-CA--CB-[CG2] |==|  0.78464
USER: genes 26 Torsion [C]-CA--N-[H2] |==|  0.92391
USER: genes 27 Torsion [C]-CA--CB-[CG2] |==|  0.29454
ROOT
ATOM      1  CA  HIS P   4     -17.778  13.612  13.331  1.00 23.76 LIG 0.18  C 
ENDROOT
BRANCH 1 2
ATOM      2  C   HIS P   4     -16.414  13.367  12.670  1.00 25.01 LIG 0.24  C 
ATOM      3 O    HIS P   4     -15.401  13.959  13.067  1.00 23.35 LIG-0.27  OA
ATOM      4  N   PHE P   5     -16.396  12.557  11.613  1.00 23.15 LIG-0.35  N 
ATOM      5 H    PHE P   5     -17.105  12.207  11.274  1.00 23.15 LIG 0.16  HD
BRANCH 4 6
ATOM      6  CA  PHE P   5     -15.174  12.184  10.928  1.00 24.23 LIG 0.18  C 
BRANCH 6 7
ATOM      7  CB  PHE P   5     -14.317  11.293  11.879  1.00 25.15 LIG 0.07  C 
BRANCH 7 8
ATOM      8  CG  PHE P   5     -14.284   9.875  11.406  1.00 25.22 LIG-0.06  A 
ATOM      9  CD2 PHE P   5     -15.205   8.996  11.966  1.00 26.21 LIG 0.01  A 
ATOM     10  CE2 PHE P   5     -15.186   7.670  11.641  1.00 26.58 LIG 0.00  A 
ATOM     11  CZ  PHE P   5     -14.276   7.207  10.707  1.00 27.68 LIG 0.00  A 
ATOM     12  CE1 PHE P   5     -13.370   8.065  10.134  1.00 26.50 LIG 0.00  A 
ATOM     13  CD1 PHE P   5     -13.377   9.409  10.486  1.00 25.73 LIG 0.01  A 
ENDBRANCH 7 8
ENDBRANCH 6 7
BRANCH 6 14
ATOM     14  C   PHE P   5     -15.393  11.523   9.586  1.00 25.59 LIG 0.24  C 
ATOM     15 O    PHE P   5     -16.450  10.913   9.323  1.00 25.82 LIG-0.27  OA
ATOM     16  N   ASN P   6     -14.444  11.702   8.686  1.00 24.53 LIG-0.35  N 
ATOM     17 H    ASN P   6     -13.719  12.142   8.828  1.00 24.53 LIG 0.16  HD
BRANCH 16 18
ATOM     18  CA  ASN P   6     -14.565  11.145   7.346  1.00 25.84 LIG 0.18  C 
BRANCH 18 19
ATOM     19  C   ASN P   6     -13.255  11.078   6.596  1.00 25.26 LIG 0.24  C 
ATOM     20  N   ASP P   7     -13.164  11.744   5.427  1.00 26.59 LIG-0.34  N 
ATOM     21 H    ASP P   7     -13.807  12.184   5.062  1.00 26.59 LIG 0.16  HD
ATOM     22 O    ASN P   6     -12.331  10.397   7.046  1.00 25.72 LIG-0.27  OA
BRANCH 20 23
ATOM     23  CA  ASP P   7     -11.919  11.754   4.692  1.00 25.93 LIG 0.20  C 
BRANCH 23 24
ATOM     24  C   ASP P   7     -11.675  10.373   4.063  1.00 27.07 LIG 0.20  C 
ATOM     25 O    ASP P   7     -12.649   9.641   4.011  1.00 28.96 LIG-0.65  OA
ATOM     26 OXT  ASP P   7     -10.490  10.102   3.562  1.00 29.63 LIG-0.65  OA
ENDBRANCH 23 24
BRANCH 23 27
ATOM     27  CB  ASP P   7     -10.672  12.084   5.535  1.00 25.41 LIG 0.15  C 
BRANCH 27 28
ATOM     28  CG  ASP P   7     -10.574  13.542   5.907  1.00 25.37 LIG 0.17  C 
ATOM     29 OD1  ASP P   7      -9.767  13.990   6.752  1.00 26.66 LIG-0.65  OA
ATOM     30 OD2  ASP P   7     -11.354  14.328   5.271  1.00 23.76 LIG-0.65  OA
ENDBRANCH 27 28
ENDBRANCH 23 27
ENDBRANCH 20 23
ENDBRANCH 18 19
BRANCH 18 31
ATOM     31  CB  ASN P   6     -15.630  11.904   6.551  1.00 24.75 LIG 0.14  C 
BRANCH 31 32
ATOM     32  CG  ASN P   6     -16.156  11.085   5.393  1.00 27.24 LIG 0.22  C 
ATOM     33  ND2 ASN P   6     -17.275  10.450   5.737  1.00 23.85 LIG-0.37  N 
ATOM     34 21HD ASN P   6     -17.658   9.919   5.179  1.00 23.85 LIG 0.16  HD
ATOM     35 22HD ASN P   6     -17.616  10.571   6.518  1.00 23.85 LIG 0.16  HD
ATOM     36 OD1  ASN P   6     -15.517  11.034   4.303  1.00 24.90 LIG-0.27  OA
ENDBRANCH 31 32
ENDBRANCH 18 31
ENDBRANCH 16 18
ENDBRANCH 6 14
ENDBRANCH 4 6
ENDBRANCH 1 2
BRANCH 1 37
ATOM     37  CB  HIS P   4     -17.747  12.985  14.725  1.00 21.80 LIG 0.10  C 
BRANCH 37 38
ATOM     38  CG  HIS P   4     -17.419  11.523  14.719  1.00 23.01 LIG 0.06  A 
ATOM     39  CD2 HIS P   4     -17.681  10.529  13.871  1.00 23.26 LIG 0.14  A 
ATOM     40 NE2  HIS P   4     -16.948   9.445  14.282  1.00 21.45 LIG-0.25  NA
ATOM     41  CE1 HIS P   4     -16.223   9.765  15.350  1.00 22.12 LIG 0.23  A 
ATOM     42 ND1  HIS P   4     -16.470  11.005  15.626  1.00 22.83 LIG-0.24  NA
ENDBRANCH 37 38
ENDBRANCH 1 37
BRANCH 1 43
ATOM     43  N   HIS P   4     -18.815  13.035  12.431  1.00 22.02 LIG-0.35  N 
ATOM     44  C   SER P   3     -19.080  13.666  11.287  1.00 24.42 LIG 0.24  C 
ATOM     45 O    SER P   3     -18.502  14.725  10.992  1.00 24.72 LIG-0.27  OA
ATOM     46 H    HIS P   4     -19.193  12.312  12.704  1.00 22.02 LIG 0.16  HD
BRANCH 44 47
ATOM     47  CA  SER P   3     -20.185  13.121  10.397  1.00 22.14 LIG 0.20  C 
BRANCH 47 48
ATOM     48  CB  SER P   3     -21.185  14.213   9.963  1.00 23.32 LIG 0.20  C 
BRANCH 48 49
ATOM     49 OG   SER P   3     -22.351  14.158  10.813  1.00 23.11 LIG-0.40  OA
ATOM     50 HG   SER P   3     -22.556  14.934  11.059  1.00 23.11 LIG 0.21  HD
ENDBRANCH 48 49
ENDBRANCH 47 48
BRANCH 47 51
ATOM     51  N   SER P   3     -20.950  12.031  11.005  1.00 22.53 LIG-0.34  N 
ATOM     52 H    SER P   3     -21.730  12.254  11.292  1.00 22.53 LIG 0.16  HD
ATOM     53  C   VAL P   2     -20.444  10.805  11.088  1.00 22.76 LIG 0.24  C 
ATOM     54 O    VAL P   2     -19.249  10.565  10.805  1.00 25.85 LIG-0.27  OA
BRANCH 53 55
ATOM     55  CA  VAL P   2     -21.348   9.740  11.714  1.00 24.07 LIG 0.18  C 
BRANCH 55 56
ATOM     56  N   VAL P   2     -22.261  10.335  12.692  1.00 24.29 LIG-0.35  N 
ATOM     57 H    VAL P   2     -23.098  10.197  12.551  1.00 24.29 LIG 0.16  HD
ATOM     58  C   VAL P   1     -21.750  11.043  13.725  1.00 26.39 LIG 0.25  C 
ATOM     59 O    VAL P   1     -20.500  11.188  13.862  1.00 26.90 LIG-0.27  OA
BRANCH 58 60
ATOM     60  CA  VAL P   1     -22.719  11.619  14.747  1.00 27.40 LIG 0.28  C 
BRANCH 60 61
ATOM     61  CB  VAL P   1     -23.783  12.534  14.060  1.00 27.20 LIG 0.02  C 
ATOM     62  CG2 VAL P   1     -23.130  13.884  13.742  1.00 28.02 LIG 0.01  C 
ATOM     63  CG1 VAL P   1     -24.879  12.666  15.095  1.00 27.17 LIG 0.01  C 
ENDBRANCH 60 61
BRANCH 60 64
ATOM     64  N   VAL P   1     -22.059  12.387  15.755  1.00 29.12 LIG-0.07  N 
ATOM     65 H2   VAL P   1     -21.226  12.090  15.857  1.00 29.12 LIG 0.28  HD
ATOM     66 H1   VAL P   1     -22.498  12.307  16.525  1.00 29.12 LIG 0.28  HD
ATOM     67 H3   VAL P   1     -22.039  13.243  15.512  1.00 29.12 LIG 0.28  HD
ENDBRANCH 60 64
ENDBRANCH 58 60
ENDBRANCH 55 56
BRANCH 55 68
ATOM     68  CB  VAL P   2     -22.061   8.984  10.555  1.00 25.03 LIG 0.01  C 
ATOM     69  CG2 VAL P   2     -21.433   7.585  10.397  1.00 23.99 LIG 0.01  C 
ATOM     70  CG1 VAL P   2     -21.979   9.722   9.232  1.00 25.56 LIG 0.01  C 
ENDBRANCH 55 68
ENDBRANCH 53 55
ENDBRANCH 47 51
ENDBRANCH 44 47
ENDBRANCH 1 43
TORSDOF 26
ENDMDL
MODEL 47
USER: ADFR SOLUTION from run 179
USER: SCORE 18.828201 LL:  -5.132 LR: -14.019 RR:   0.000 FEB:  -6.263
USER: RMSD 8.533419
USER: SEED 178
USER: STATUS searching
USER: GENES 28
USER: genes 0 Translation |==|  0.50750 0.34678 0.62455
USER: genes 1 Rotation |==|  0.40727 0.73844 0.09066 0.63035
USER: genes 2 Torsion [N]-CA--C-[N] |==|  0.45706
USER: genes 3 Torsion [C]-N--CA-[CB] |==|  0.82129
USER: genes 4 Torsion [N]-CA--CB-[CG] |==|  0.89661
USER: genes 5 Torsion [CA]-CB--CG-[CD2] |==|  0.34223
USER: genes 6 Torsion [N]-CA--C-[N] |==|  0.43424
USER: genes 7 Torsion [C]-N--CA-[CB] |==|  0.85685
USER: genes 8 Torsion [N]-CA--C-[N] |==|  0.37382
USER: genes 9 Torsion [C]-N--CA-[C] |==|  0.58984
USER: genes 10 Torsion [N]-CA--C-[O] |==|  0.96351
USER: genes 11 Torsion [N]-CA--CB-[CG] |==|  0.95613
USER: genes 12 Torsion [CA]-CB--CG-[OD1] |==|  0.69036
USER: genes 13 Torsion [N]-CA--CB-[CG] |==|  0.60571
USER: genes 14 Torsion [CA]-CB--CG-[OD1] |==|  0.64441
USER: genes 15 Torsion [C]-CA--CB-[CG] |==|  0.28977
USER: genes 16 Torsion [CA]-CB--CG-[CD2] |==|  0.72664
USER: genes 17 Torsion [C]-CA--N-[C] |==|  0.79381
USER: genes 18 Torsion [N]-C--CA-[N] |==|  0.39812
USER: genes 19 Torsion [C]-CA--CB-[OG] |==|  0.05551
USER: genes 20 Torsion [CA]-CB--OG-[HG] |==|  0.37876
USER: genes 21 Torsion [C]-CA--N-[C] |==|  0.74518
USER: genes 22 Torsion [N]-C--CA-[N] |==|  0.88851
USER: genes 23 Torsion [C]-CA--N-[C] |==|  0.82493
USER: genes 24 Torsion [N]-C--CA-[N] |==|  0.47274
USER: genes 25 Torsion [C]-CA--CB-[CG2] |==|  0.78247
USER: genes 26 Torsion [C]-CA--N-[H2] |==|  0.41745
USER: genes 27 Torsion [C]-CA--CB-[CG2] |==|  0.35834
ROOT
ATOM      1  CA  HIS P   4     -17.488   9.847  12.089  1.00 23.76 LIG 0.18  C 
ENDROOT
BRANCH 1 2
ATOM      2  C   HIS P   4     -17.098  10.964  11.110  1.00 25.01 LIG 0.24  C 
ATOM      3 O    HIS P   4     -17.514  10.960   9.944  1.00 23.35 LIG-0.27  OA
ATOM      4  N   PHE P   5     -16.240  11.879  11.556  1.00 23.15 LIG-0.35  N 
ATOM      5 H    PHE P   5     -15.876  11.846  12.335  1.00 23.15 LIG 0.16  HD
BRANCH 4 6
ATOM      6  CA  PHE P   5     -15.831  13.025  10.767  1.00 24.23 LIG 0.18  C 
BRANCH 6 7
ATOM      7  CB  PHE P   5     -15.053  12.521   9.514  1.00 25.15 LIG 0.07  C 
BRANCH 7 8
ATOM      8  CG  PHE P   5     -14.203  11.337   9.846  1.00 25.22 LIG-0.06  A 
ATOM      9  CD2 PHE P   5     -14.414  10.176   9.111  1.00 26.21 LIG 0.01  A 
ATOM     10  CE2 PHE P   5     -13.729   9.032   9.407  1.00 26.58 LIG 0.00  A 
ATOM     11  CZ  PHE P   5     -12.780   9.044  10.413  1.00 27.68 LIG 0.00  A 
ATOM     12  CE1 PHE P   5     -12.548  10.187  11.138  1.00 26.50 LIG 0.00  A 
ATOM     13  CD1 PHE P   5     -13.264  11.341  10.849  1.00 25.73 LIG 0.01  A 
ENDBRANCH 7 8
ENDBRANCH 6 7
BRANCH 6 14
ATOM     14  C   PHE P   5     -16.965  13.952  10.389  1.00 25.59 LIG 0.24  C 
ATOM     15 O    PHE P   5     -18.154  13.574  10.412  1.00 25.82 LIG-0.27  OA
ATOM     16  N   ASN P   6     -16.631  15.200  10.117  1.00 24.53 LIG-0.35  N 
ATOM     17 H    ASN P   6     -15.824  15.497  10.121  1.00 24.53 LIG 0.16  HD
BRANCH 16 18
ATOM     18  CA  ASN P   6     -17.643  16.192   9.779  1.00 25.84 LIG 0.18  C 
BRANCH 18 19
ATOM     19  C   ASN P   6     -18.449  16.666  10.965  1.00 25.26 LIG 0.24  C 
ATOM     20  N   ASP P   7     -18.660  17.991  11.094  1.00 26.59 LIG-0.34  N 
ATOM     21 H    ASP P   7     -18.346  18.591  10.564  1.00 26.59 LIG 0.16  HD
ATOM     22 O    ASN P   6     -18.855  15.844  11.791  1.00 25.72 LIG-0.27  OA
BRANCH 20 23
ATOM     23  CA  ASP P   7     -19.465  18.496  12.184  1.00 25.93 LIG 0.20  C 
BRANCH 23 24
ATOM     24  C   ASP P   7     -20.214  19.760  11.736  1.00 27.07 LIG 0.20  C 
ATOM     25 O    ASP P   7     -19.832  20.253  10.689  1.00 28.96 LIG-0.65  OA
ATOM     26 OXT  ASP P   7     -21.241  20.176  12.443  1.00 29.63 LIG-0.65  OA
ENDBRANCH 23 24
BRANCH 23 27
ATOM     27  CB  ASP P   7     -18.673  18.874  13.451  1.00 25.41 LIG 0.15  C 
BRANCH 27 28
ATOM     28  CG  ASP P   7     -17.276  18.308  13.472  1.00 25.37 LIG 0.17  C 
ATOM     29 OD1  ASP P   7     -16.900  17.415  14.263  1.00 26.66 LIG-0.65  OA
ATOM     30 OD2  ASP P   7     -16.479  18.773  12.589  1.00 23.76 LIG-0.65  OA
ENDBRANCH 27 28
ENDBRANCH 23 27
ENDBRANCH 20 23
ENDBRANCH 18 19
BRANCH 18 31
ATOM     31  CB  ASN P   6     -18.543  15.668   8.658  1.00 24.75 LIG 0.14  C 
BRANCH 31 32
ATOM     32  CG  ASN P   6     -18.919  16.763   7.683  1.00 27.24 LIG 0.22  C 
ATOM     33  ND2 ASN P   6     -17.836  17.432   7.290  1.00 23.85 LIG-0.37  N 
ATOM     34 21HD ASN P   6     -17.916  18.106   6.761  1.00 23.85 LIG 0.16  HD
ATOM     35 22HD ASN P   6     -17.058  17.191   7.565  1.00 23.85 LIG 0.16  HD
ATOM     36 OD1  ASN P   6     -20.131  16.967   7.386  1.00 24.90 LIG-0.27  OA
ENDBRANCH 31 32
ENDBRANCH 18 31
ENDBRANCH 16 18
ENDBRANCH 6 14
ENDBRANCH 4 6
ENDBRANCH 1 2
BRANCH 1 37
ATOM     37  CB  HIS P   4     -16.287   8.914  12.244  1.00 21.80 LIG 0.10  C 
BRANCH 37 38
ATOM     38  CG  HIS P   4     -15.551   9.091  13.537  1.00 23.01 LIG 0.06  A 
ATOM     39  CD2 HIS P   4     -14.447   9.755  13.879  1.00 23.26 LIG 0.14  A 
ATOM     40 NE2  HIS P   4     -14.370   9.731  15.249  1.00 21.45 LIG-0.25  NA
ATOM     41  CE1 HIS P   4     -15.421   9.089  15.752  1.00 22.12 LIG 0.23  A 
ATOM     42 ND1  HIS P   4     -16.154   8.708  14.754  1.00 22.83 LIG-0.24  NA
ENDBRANCH 37 38
ENDBRANCH 1 37
BRANCH 1 43
ATOM     43  N   HIS P   4     -18.704   9.184  11.541  1.00 22.02 LIG-0.35  N 
ATOM     44  C   SER P   3     -19.868   9.828  11.628  1.00 24.42 LIG 0.24  C 
ATOM     45 O    SER P   3     -19.945  10.937  12.180  1.00 24.72 LIG-0.27  OA
ATOM     46 H    HIS P   4     -18.585   8.407  11.192  1.00 22.02 LIG 0.16  HD
BRANCH 44 47
ATOM     47  CA  SER P   3     -21.123   9.127  11.134  1.00 22.14 LIG 0.20  C 
BRANCH 47 48
ATOM     48  CB  SER P   3     -21.455   9.479   9.669  1.00 23.32 LIG 0.20  C 
BRANCH 48 49
ATOM     49 OG   SER P   3     -20.270   9.987   9.019  1.00 23.11 LIG-0.40  OA
ATOM     50 HG   SER P   3     -20.201   9.646   8.254  1.00 23.11 LIG 0.21  HD
ENDBRANCH 48 49
ENDBRANCH 47 48
BRANCH 47 51
ATOM     51  N   SER P   3     -22.312   9.406  11.940  1.00 22.53 LIG-0.34  N 
ATOM     52 H    SER P   3     -22.756  10.103  11.700  1.00 22.53 LIG 0.16  HD
ATOM     53  C   VAL P   2     -22.647   8.620  12.959  1.00 22.76 LIG 0.24  C 
ATOM     54 O    VAL P   2     -21.886   7.716  13.371  1.00 25.85 LIG-0.27  OA
BRANCH 53 55
ATOM     55  CA  VAL P   2     -23.928   8.992  13.709  1.00 24.07 LIG 0.18  C 
BRANCH 55 56
ATOM     56  N   VAL P   2     -24.039  10.443  13.874  1.00 24.29 LIG-0.35  N 
ATOM     57 H    VAL P   2     -24.711  10.811  13.485  1.00 24.29 LIG 0.16  HD
ATOM     58  C   VAL P   1     -23.106  11.095  14.604  1.00 26.39 LIG 0.25  C 
ATOM     59 O    VAL P   1     -22.151  10.470  15.153  1.00 26.90 LIG-0.27  OA
BRANCH 58 60
ATOM     60  CA  VAL P   1     -23.265  12.597  14.790  1.00 27.40 LIG 0.28  C 
BRANCH 60 61
ATOM     61  CB  VAL P   1     -23.043  13.358  13.444  1.00 27.20 LIG 0.02  C 
ATOM     62  CG2 VAL P   1     -21.536  13.448  13.180  1.00 28.02 LIG 0.01  C 
ATOM     63  CG1 VAL P   1     -23.658  14.719  13.684  1.00 27.17 LIG 0.01  C 
ENDBRANCH 60 61
BRANCH 60 64
ATOM     64  N   VAL P   1     -22.354  13.128  15.755  1.00 29.12 LIG-0.07  N 
ATOM     65 H2   VAL P   1     -22.159  13.971  15.548  1.00 29.12 LIG 0.28  HD
ATOM     66 H1   VAL P   1     -21.607  12.644  15.757  1.00 29.12 LIG 0.28  HD
ATOM     67 H3   VAL P   1     -22.728  13.101  16.563  1.00 29.12 LIG 0.28  HD
ENDBRANCH 60 64
ENDBRANCH 58 60
ENDBRANCH 55 56
BRANCH 55 68
ATOM     68  CB  VAL P   2     -25.125   8.344  12.952  1.00 25.03 LIG 0.01  C 
ATOM     69  CG2 VAL P   2     -25.995   7.557  13.952  1.00 23.99 LIG 0.01  C 
ATOM     70  CG1 VAL P   2     -24.683   7.418  11.834  1.00 25.56 LIG 0.01  C 
ENDBRANCH 55 68
ENDBRANCH 53 55
ENDBRANCH 47 51
ENDBRANCH 44 47
ENDBRANCH 1 43
TORSDOF 26
ENDMDL
MODEL 48
USER: ADFR SOLUTION from run 51
USER: SCORE 18.375330 LL:  -5.769 LR: -14.021 RR:   0.000 FEB:  -6.265
USER: RMSD 9.234326
USER: SEED 50
USER: STATUS no improvement in best in 6 clusters for 5 generations
USER: GENES 28
USER: genes 0 Translation |==|  0.70063 0.42193 0.51825
USER: genes 1 Rotation |==|  0.68601 0.46351 0.94789 0.61604
USER: genes 2 Torsion [N]-CA--C-[N] |==|  0.30196
USER: genes 3 Torsion [C]-N--CA-[CB] |==|  0.81017
USER: genes 4 Torsion [N]-CA--CB-[CG] |==|  0.72102
USER: genes 5 Torsion [CA]-CB--CG-[CD2] |==|  0.11347
USER: genes 6 Torsion [N]-CA--C-[N] |==|  0.42100
USER: genes 7 Torsion [C]-N--CA-[CB] |==|  0.83889
USER: genes 8 Torsion [N]-CA--C-[N] |==|  0.75833
USER: genes 9 Torsion [C]-N--CA-[C] |==|  0.63907
USER: genes 10 Torsion [N]-CA--C-[O] |==|  0.40852
USER: genes 11 Torsion [N]-CA--CB-[CG] |==|  0.83875
USER: genes 12 Torsion [CA]-CB--CG-[OD1] |==|  0.81592
USER: genes 13 Torsion [N]-CA--CB-[CG] |==|  0.57110
USER: genes 14 Torsion [CA]-CB--CG-[OD1] |==|  0.27468
USER: genes 15 Torsion [C]-CA--CB-[CG] |==|  0.79046
USER: genes 16 Torsion [CA]-CB--CG-[CD2] |==|  0.79538
USER: genes 17 Torsion [C]-CA--N-[C] |==|  0.77551
USER: genes 18 Torsion [N]-C--CA-[N] |==|  0.07401
USER: genes 19 Torsion [C]-CA--CB-[OG] |==|  0.53851
USER: genes 20 Torsion [CA]-CB--OG-[HG] |==|  0.16490
USER: genes 21 Torsion [C]-CA--N-[C] |==|  0.16118
USER: genes 22 Torsion [N]-C--CA-[N] |==|  0.90901
USER: genes 23 Torsion [C]-CA--N-[C] |==|  0.84295
USER: genes 24 Torsion [N]-C--CA-[N] |==|  0.39322
USER: genes 25 Torsion [C]-CA--CB-[CG2] |==|  0.11163
USER: genes 26 Torsion [C]-CA--N-[H2] |==|  0.51238
USER: genes 27 Torsion [C]-CA--CB-[CG2] |==|  0.68289
ROOT
ATOM      1  CA  HIS P   4     -13.287  11.143   9.777  1.00 23.76 LIG 0.18  C 
ENDROOT
BRANCH 1 2
ATOM      2  C   HIS P   4     -13.525  10.636   8.348  1.00 25.01 LIG 0.24  C 
ATOM      3 O    HIS P   4     -13.905   9.476   8.140  1.00 23.35 LIG-0.27  OA
ATOM      4  N   PHE P   5     -13.229  11.475   7.357  1.00 23.15 LIG-0.35  N 
ATOM      5 H    PHE P   5     -12.884  12.253   7.483  1.00 23.15 LIG 0.16  HD
BRANCH 4 6
ATOM      6  CA  PHE P   5     -13.462  11.158   5.961  1.00 24.23 LIG 0.18  C 
BRANCH 6 7
ATOM      7  CB  PHE P   5     -12.487  10.018   5.535  1.00 25.15 LIG 0.07  C 
BRANCH 7 8
ATOM      8  CG  PHE P   5     -11.313  10.563   4.787  1.00 25.22 LIG-0.06  A 
ATOM      9  CD2 PHE P   5     -10.753  11.746   5.256  1.00 26.21 LIG 0.01  A 
ATOM     10  CE2 PHE P   5      -9.728  12.345   4.581  1.00 26.58 LIG 0.00  A 
ATOM     11  CZ  PHE P   5      -9.208  11.741   3.450  1.00 27.68 LIG 0.00  A 
ATOM     12  CE1 PHE P   5      -9.739  10.564   2.983  1.00 26.50 LIG 0.00  A 
ATOM     13  CD1 PHE P   5     -10.798   9.972   3.659  1.00 25.73 LIG 0.01  A 
ENDBRANCH 7 8
ENDBRANCH 6 7
BRANCH 6 14
ATOM     14  C   PHE P   5     -14.899  10.818   5.634  1.00 25.59 LIG 0.24  C 
ATOM     15 O    PHE P   5     -15.682  10.384   6.504  1.00 25.82 LIG-0.27  OA
ATOM     16  N   ASN P   6     -15.297  11.086   4.405  1.00 24.53 LIG-0.35  N 
ATOM     17 H    ASN P   6     -14.789  11.413   3.792  1.00 24.53 LIG 0.16  HD
BRANCH 16 18
ATOM     18  CA  ASN P   6     -16.670  10.838   3.987  1.00 25.84 LIG 0.18  C 
BRANCH 18 19
ATOM     19  C   ASN P   6     -17.679  11.747   4.649  1.00 25.26 LIG 0.24  C 
ATOM     20  N   ASP P   7     -18.181  11.369   5.841  1.00 26.59 LIG-0.34  N 
ATOM     21 H    ASP P   7     -17.989  10.633   6.242  1.00 26.59 LIG 0.16  HD
ATOM     22 O    ASN P   6     -18.040  12.776   4.072  1.00 25.72 LIG-0.27  OA
BRANCH 20 23
ATOM     23  CA  ASP P   7     -19.114  12.223   6.541  1.00 25.93 LIG 0.20  C 
BRANCH 23 24
ATOM     24  C   ASP P   7     -18.658  12.413   7.995  1.00 27.07 LIG 0.20  C 
ATOM     25 O    ASP P   7     -18.917  13.497   8.489  1.00 28.96 LIG-0.65  OA
ATOM     26 OXT  ASP P   7     -18.106  11.400   8.626  1.00 29.63 LIG-0.65  OA
ENDBRANCH 23 24
BRANCH 23 27
ATOM     27  CB  ASP P   7     -20.560  11.693   6.594  1.00 25.41 LIG 0.15  C 
BRANCH 27 28
ATOM     28  CG  ASP P   7     -21.159  11.453   5.232  1.00 25.37 LIG 0.17  C 
ATOM     29 OD1  ASP P   7     -21.406  12.364   4.411  1.00 26.66 LIG-0.65  OA
ATOM     30 OD2  ASP P   7     -21.373  10.230   4.931  1.00 23.76 LIG-0.65  OA
ENDBRANCH 27 28
ENDBRANCH 23 27
ENDBRANCH 20 23
ENDBRANCH 18 19
BRANCH 18 31
ATOM     31  CB  ASN P   6     -17.025   9.363   4.187  1.00 24.75 LIG 0.14  C 
BRANCH 31 32
ATOM     32  CG  ASN P   6     -18.127   8.920   3.249  1.00 27.24 LIG 0.22  C 
ATOM     33  ND2 ASN P   6     -19.322   9.228   3.751  1.00 23.85 LIG-0.37  N 
ATOM     34 21HD ASN P   6     -20.037   8.997   3.332  1.00 23.85 LIG 0.16  HD
ATOM     35 22HD ASN P   6     -19.379   9.658   4.494  1.00 23.85 LIG 0.16  HD
ATOM     36 OD1  ASN P   6     -17.849   8.301   2.182  1.00 24.90 LIG-0.27  OA
ENDBRANCH 31 32
ENDBRANCH 18 31
ENDBRANCH 16 18
ENDBRANCH 6 14
ENDBRANCH 4 6
ENDBRANCH 1 2
BRANCH 1 37
ATOM     37  CB  HIS P   4     -12.438  10.106  10.511  1.00 21.80 LIG 0.10  C 
BRANCH 37 38
ATOM     38  CG  HIS P   4     -13.203   8.884  10.919  1.00 23.01 LIG 0.06  A 
ATOM     39  CD2 HIS P   4     -14.106   8.643  11.869  1.00 23.26 LIG 0.14  A 
ATOM     40 NE2  HIS P   4     -14.616   7.391  11.633  1.00 21.45 LIG-0.25  NA
ATOM     41  CE1 HIS P   4     -14.060   6.873  10.542  1.00 22.12 LIG 0.23  A 
ATOM     42 ND1  HIS P   4     -13.223   7.748  10.083  1.00 22.83 LIG-0.24  NA
ENDBRANCH 37 38
ENDBRANCH 1 37
BRANCH 1 43
ATOM     43  N   HIS P   4     -14.624  11.377  10.391  1.00 22.02 LIG-0.35  N 
ATOM     44  C   SER P   3     -15.261  12.512  10.103  1.00 24.42 LIG 0.24  C 
ATOM     45 O    SER P   3     -14.743  13.368   9.369  1.00 24.72 LIG-0.27  OA
ATOM     46 H    HIS P   4     -14.916  10.754  10.908  1.00 22.02 LIG 0.16  HD
BRANCH 44 47
ATOM     47  CA  SER P   3     -16.594  12.787  10.781  1.00 22.14 LIG 0.20  C 
BRANCH 47 48
ATOM     48  CB  SER P   3     -16.850  14.294  10.987  1.00 23.32 LIG 0.20  C 
BRANCH 48 49
ATOM     49 OG   SER P   3     -17.949  14.470  11.908  1.00 23.11 LIG-0.40  OA
ATOM     50 HG   SER P   3     -17.761  14.107  12.642  1.00 23.11 LIG 0.21  HD
ENDBRANCH 48 49
ENDBRANCH 47 48
BRANCH 47 51
ATOM     51  N   SER P   3     -16.745  12.126  12.079  1.00 22.53 LIG-0.34  N 
ATOM     52 H    SER P   3     -17.421  11.598  12.138  1.00 22.53 LIG 0.16  HD
ATOM     53  C   VAL P   2     -15.882  12.352  13.064  1.00 22.76 LIG 0.24  C 
ATOM     54 O    VAL P   2     -15.011  13.247  12.986  1.00 25.85 LIG-0.27  OA
BRANCH 53 55
ATOM     55  CA  VAL P   2     -16.122  11.580  14.364  1.00 24.07 LIG 0.18  C 
BRANCH 55 56
ATOM     56  N   VAL P   2     -17.551  11.363  14.590  1.00 24.29 LIG-0.35  N 
ATOM     57 H    VAL P   2     -17.793  10.543  14.686  1.00 24.29 LIG 0.16  HD
ATOM     58  C   VAL P   1     -18.381  12.430  14.633  1.00 26.39 LIG 0.25  C 
ATOM     59 O    VAL P   1     -17.938  13.608  14.492  1.00 26.90 LIG-0.27  OA
BRANCH 58 60
ATOM     60  CA  VAL P   1     -19.857  12.179  14.906  1.00 27.40 LIG 0.28  C 
BRANCH 60 61
ATOM     61  CB  VAL P   1     -20.675  12.132  13.576  1.00 27.20 LIG 0.02  C 
ATOM     62  CG2 VAL P   1     -19.853  11.376  12.526  1.00 28.02 LIG 0.01  C 
ATOM     63  CG1 VAL P   1     -20.863  13.588  13.207  1.00 27.17 LIG 0.01  C 
ENDBRANCH 60 61
BRANCH 60 64
ATOM     64  N   VAL P   1     -20.436  13.178  15.748  1.00 29.12 LIG-0.07  N 
ATOM     65 H2   VAL P   1     -21.278  12.959  15.934  1.00 29.12 LIG 0.28  HD
ATOM     66 H1   VAL P   1     -20.419  13.964  15.331  1.00 29.12 LIG 0.28  HD
ATOM     67 H3   VAL P   1     -19.971  13.234  16.505  1.00 29.12 LIG 0.28  HD
ENDBRANCH 60 64
ENDBRANCH 58 60
ENDBRANCH 55 56
BRANCH 55 68
ATOM     68  CB  VAL P   2     -15.280  10.271  14.300  1.00 25.03 LIG 0.01  C 
ATOM     69  CG2 VAL P   2     -16.229   9.058  14.254  1.00 23.99 LIG 0.01  C 
ATOM     70  CG1 VAL P   2     -14.331  10.122  15.474  1.00 25.56 LIG 0.01  C 
ENDBRANCH 55 68
ENDBRANCH 53 55
ENDBRANCH 47 51
ENDBRANCH 44 47
ENDBRANCH 1 43
TORSDOF 26
ENDMDL
MODEL 49
USER: ADFR SOLUTION from run 52
USER: SCORE 18.050459 LL:  -5.986 LR: -14.005 RR:   0.000 FEB:  -6.249
USER: RMSD 8.399928
USER: SEED 51
USER: STATUS no improvement in best in 8 clusters for 5 generations
USER: GENES 28
USER: genes 0 Translation |==|  0.52813 0.34793 0.69862
USER: genes 1 Rotation |==|  0.41771 0.76459 0.11711 0.66313
USER: genes 2 Torsion [N]-CA--C-[N] |==|  0.94999
USER: genes 3 Torsion [C]-N--CA-[CB] |==|  0.41101
USER: genes 4 Torsion [N]-CA--CB-[CG] |==|  0.74761
USER: genes 5 Torsion [CA]-CB--CG-[CD2] |==|  0.94560
USER: genes 6 Torsion [N]-CA--C-[N] |==|  0.52364
USER: genes 7 Torsion [C]-N--CA-[CB] |==|  0.83839
USER: genes 8 Torsion [N]-CA--C-[N] |==|  0.40137
USER: genes 9 Torsion [C]-N--CA-[C] |==|  0.14793
USER: genes 10 Torsion [N]-CA--C-[O] |==|  0.20160
USER: genes 11 Torsion [N]-CA--CB-[CG] |==|  0.83228
USER: genes 12 Torsion [CA]-CB--CG-[OD1] |==|  0.38668
USER: genes 13 Torsion [N]-CA--CB-[CG] |==|  0.37971
USER: genes 14 Torsion [CA]-CB--CG-[OD1] |==|  0.77367
USER: genes 15 Torsion [C]-CA--CB-[CG] |==|  0.84329
USER: genes 16 Torsion [CA]-CB--CG-[CD2] |==|  0.20385
USER: genes 17 Torsion [C]-CA--N-[C] |==|  0.82200
USER: genes 18 Torsion [N]-C--CA-[N] |==|  0.43097
USER: genes 19 Torsion [C]-CA--CB-[OG] |==|  0.68163
USER: genes 20 Torsion [CA]-CB--OG-[HG] |==|  0.91106
USER: genes 21 Torsion [C]-CA--N-[C] |==|  0.68916
USER: genes 22 Torsion [N]-C--CA-[N] |==|  0.92601
USER: genes 23 Torsion [C]-CA--N-[C] |==|  0.84994
USER: genes 24 Torsion [N]-C--CA-[N] |==|  0.49509
USER: genes 25 Torsion [C]-CA--CB-[CG2] |==|  0.19968
USER: genes 26 Torsion [C]-CA--N-[H2] |==|  0.69469
USER: genes 27 Torsion [C]-CA--CB-[CG2] |==|  0.31653
ROOT
ATOM      1  CA  HIS P   4     -17.039   9.867  13.700  1.00 23.76 LIG 0.18  C 
ENDROOT
BRANCH 1 2
ATOM      2  C   HIS P   4     -16.722  11.167  12.947  1.00 25.01 LIG 0.24  C 
ATOM      3 O    HIS P   4     -16.137  12.100  13.511  1.00 23.35 LIG-0.27  OA
ATOM      4  N   PHE P   5     -17.175  11.262  11.698  1.00 23.15 LIG-0.35  N 
ATOM      5 H    PHE P   5     -17.657  10.656  11.323  1.00 23.15 LIG 0.16  HD
BRANCH 4 6
ATOM      6  CA  PHE P   5     -16.898  12.402  10.845  1.00 24.23 LIG 0.18  C 
BRANCH 6 7
ATOM      7  CB  PHE P   5     -16.815  11.914   9.367  1.00 25.15 LIG 0.07  C 
BRANCH 7 8
ATOM      8  CG  PHE P   5     -15.414  11.544   8.998  1.00 25.22 LIG-0.06  A 
ATOM      9  CD2 PHE P   5     -14.391  12.055   9.790  1.00 26.21 LIG 0.01  A 
ATOM     10  CE2 PHE P   5     -13.084  11.823   9.471  1.00 26.58 LIG 0.00  A 
ATOM     11  CZ  PHE P   5     -12.776  11.030   8.380  1.00 27.68 LIG 0.00  A 
ATOM     12  CE1 PHE P   5     -13.774  10.505   7.597  1.00 26.50 LIG 0.00  A 
ATOM     13  CD1 PHE P   5     -15.102  10.763   7.911  1.00 25.73 LIG 0.01  A 
ENDBRANCH 7 8
ENDBRANCH 6 7
BRANCH 6 14
ATOM     14  C   PHE P   5     -17.873  13.546  11.005  1.00 25.59 LIG 0.24  C 
ATOM     15 O    PHE P   5     -18.678  13.591  11.958  1.00 25.82 LIG-0.27  OA
ATOM     16  N   ASN P   6     -17.766  14.529  10.131  1.00 24.53 LIG-0.35  N 
ATOM     17 H    ASN P   6     -17.203  14.541   9.482  1.00 24.53 LIG 0.16  HD
BRANCH 16 18
ATOM     18  CA  ASN P   6     -18.626  15.702  10.210  1.00 25.84 LIG 0.18  C 
BRANCH 18 19
ATOM     19  C   ASN P   6     -18.359  16.571  11.417  1.00 25.26 LIG 0.24  C 
ATOM     20  N   ASP P   7     -18.485  17.905  11.272  1.00 26.59 LIG-0.34  N 
ATOM     21 H    ASP P   7     -18.681  18.302  10.535  1.00 26.59 LIG 0.16  HD
ATOM     22 O    ASN P   6     -18.001  16.048  12.475  1.00 25.72 LIG-0.27  OA
BRANCH 20 23
ATOM     23  CA  ASP P   7     -18.288  18.781  12.406  1.00 25.93 LIG 0.20  C 
BRANCH 23 24
ATOM     24  C   ASP P   7     -16.928  18.490  13.058  1.00 27.07 LIG 0.20  C 
ATOM     25 O    ASP P   7     -15.953  18.866  12.430  1.00 28.96 LIG-0.65  OA
ATOM     26 OXT  ASP P   7     -16.899  17.943  14.254  1.00 29.63 LIG-0.65  OA
ENDBRANCH 23 24
BRANCH 23 27
ATOM     27  CB  ASP P   7     -19.350  18.650  13.516  1.00 25.41 LIG 0.15  C 
BRANCH 27 28
ATOM     28  CG  ASP P   7     -20.746  18.963  13.044  1.00 25.37 LIG 0.17  C 
ATOM     29 OD1  ASP P   7     -21.758  18.311  13.386  1.00 26.66 LIG-0.65  OA
ATOM     30 OD2  ASP P   7     -20.857  19.983  12.282  1.00 23.76 LIG-0.65  OA
ENDBRANCH 27 28
ENDBRANCH 23 27
ENDBRANCH 20 23
ENDBRANCH 18 19
BRANCH 18 31
ATOM     31  CB  ASN P   6     -20.096  15.287  10.129  1.00 24.75 LIG 0.14  C 
BRANCH 31 32
ATOM     32  CG  ASN P   6     -20.945  16.030  11.139  1.00 27.24 LIG 0.22  C 
ATOM     33  ND2 ASN P   6     -21.521  17.091  10.577  1.00 23.85 LIG-0.37  N 
ATOM     34 21HD ASN P   6     -22.002  17.622  11.053  1.00 23.85 LIG 0.16  HD
ATOM     35 22HD ASN P   6     -21.411  17.247   9.738  1.00 23.85 LIG 0.16  HD
ATOM     36 OD1  ASN P   6     -20.992  15.644  12.342  1.00 24.90 LIG-0.27  OA
ENDBRANCH 31 32
ENDBRANCH 18 31
ENDBRANCH 16 18
ENDBRANCH 6 14
ENDBRANCH 4 6
ENDBRANCH 1 2
BRANCH 1 37
ATOM     37  CB  HIS P   4     -15.759   9.034  13.765  1.00 21.80 LIG 0.10  C 
BRANCH 37 38
ATOM     38  CG  HIS P   4     -15.162   8.744  12.421  1.00 23.01 LIG 0.06  A 
ATOM     39  CD2 HIS P   4     -14.499   9.485  11.534  1.00 23.26 LIG 0.14  A 
ATOM     40 NE2  HIS P   4     -14.013   8.631  10.578  1.00 21.45 LIG-0.25  NA
ATOM     41  CE1 HIS P   4     -14.343   7.378  10.878  1.00 22.12 LIG 0.23  A 
ATOM     42 ND1  HIS P   4     -15.017   7.411  11.983  1.00 22.83 LIG-0.24  NA
ENDBRANCH 37 38
ENDBRANCH 1 37
BRANCH 1 43
ATOM     43  N   HIS P   4     -18.160   9.201  12.979  1.00 22.02 LIG-0.35  N 
ATOM     44  C   SER P   3     -19.339   9.820  12.935  1.00 24.42 LIG 0.24  C 
ATOM     45 O    SER P   3     -19.511  10.909  13.506  1.00 24.72 LIG-0.27  OA
ATOM     46 H    HIS P   4     -17.980   8.438  12.625  1.00 22.02 LIG 0.16  HD
BRANCH 44 47
ATOM     47  CA  SER P   3     -20.504   9.114  12.261  1.00 22.14 LIG 0.20  C 
BRANCH 47 48
ATOM     48  CB  SER P   3     -20.482   9.275  10.727  1.00 23.32 LIG 0.20  C 
BRANCH 48 49
ATOM     49 OG   SER P   3     -21.631  10.045  10.310  1.00 23.11 LIG-0.40  OA
ATOM     50 HG   SER P   3     -22.273   9.893  10.829  1.00 23.11 LIG 0.21  HD
ENDBRANCH 48 49
ENDBRANCH 47 48
BRANCH 47 51
ATOM     51  N   SER P   3     -21.817   9.554  12.737  1.00 22.53 LIG-0.34  N 
ATOM     52 H    SER P   3     -22.026  10.361  12.525  1.00 22.53 LIG 0.16  HD
ATOM     53  C   VAL P   2     -22.597   8.738  13.439  1.00 22.76 LIG 0.24  C 
ATOM     54 O    VAL P   2     -22.186   7.633  13.860  1.00 25.85 LIG-0.27  OA
BRANCH 53 55
ATOM     55  CA  VAL P   2     -23.960   9.297  13.855  1.00 24.07 LIG 0.18  C 
BRANCH 55 56
ATOM     56  N   VAL P   2     -23.920  10.756  13.962  1.00 24.29 LIG-0.35  N 
ATOM     57 H    VAL P   2     -24.514  11.179  13.505  1.00 24.29 LIG 0.16  HD
ATOM     58  C   VAL P   1     -22.983  11.334  14.746  1.00 26.39 LIG 0.25  C 
ATOM     59 O    VAL P   1     -22.151  10.633  15.395  1.00 26.90 LIG-0.27  OA
BRANCH 58 60
ATOM     60  CA  VAL P   1     -22.986  12.851  14.868  1.00 27.40 LIG 0.28  C 
BRANCH 60 61
ATOM     61  CB  VAL P   1     -22.772  13.528  13.476  1.00 27.20 LIG 0.02  C 
ATOM     62  CG2 VAL P   1     -24.048  13.344  12.646  1.00 28.02 LIG 0.01  C 
ATOM     63  CG1 VAL P   1     -21.598  12.783  12.880  1.00 27.17 LIG 0.01  C 
ENDBRANCH 60 61
BRANCH 60 64
ATOM     64  N   VAL P   1     -21.974  13.331  15.755  1.00 29.12 LIG-0.07  N 
ATOM     65 H2   VAL P   1     -22.353  13.650  16.494  1.00 29.12 LIG 0.28  HD
ATOM     66 H1   VAL P   1     -21.512  13.980  15.356  1.00 29.12 LIG 0.28  HD
ATOM     67 H3   VAL P   1     -21.425  12.664  15.968  1.00 29.12 LIG 0.28  HD
ENDBRANCH 60 64
ENDBRANCH 58 60
ENDBRANCH 55 56
BRANCH 55 68
ATOM     68  CB  VAL P   2     -25.019   8.760  12.847  1.00 25.03 LIG 0.01  C 
ATOM     69  CG2 VAL P   2     -25.988   7.813  13.581  1.00 23.99 LIG 0.01  C 
ATOM     70  CG1 VAL P   2     -24.396   8.028  11.673  1.00 25.56 LIG 0.01  C 
ENDBRANCH 55 68
ENDBRANCH 53 55
ENDBRANCH 47 51
ENDBRANCH 44 47
ENDBRANCH 1 43
TORSDOF 26
ENDMDL
MODEL 50
USER: ADFR SOLUTION from run 197
USER: SCORE 20.030808 LL:  -6.780 LR: -13.993 RR:   0.000 FEB:  -6.237
USER: RMSD 7.227101
USER: SEED 196
USER: STATUS 1 or 2 clusters left
USER: GENES 28
USER: genes 0 Translation |==|  0.49413 0.52740 0.70922
USER: genes 1 Rotation |==|  0.34608 0.41286 0.95158 0.62163
USER: genes 2 Torsion [N]-CA--C-[N] |==|  0.29697
USER: genes 3 Torsion [C]-N--CA-[CB] |==|  0.74919
USER: genes 4 Torsion [N]-CA--CB-[CG] |==|  0.13678
USER: genes 5 Torsion [CA]-CB--CG-[CD2] |==|  0.22384
USER: genes 6 Torsion [N]-CA--C-[N] |==|  0.53866
USER: genes 7 Torsion [C]-N--CA-[CB] |==|  0.84122
USER: genes 8 Torsion [N]-CA--C-[N] |==|  0.94444
USER: genes 9 Torsion [C]-N--CA-[C] |==|  0.18280
USER: genes 10 Torsion [N]-CA--C-[O] |==|  0.58109
USER: genes 11 Torsion [N]-CA--CB-[CG] |==|  0.78225
USER: genes 12 Torsion [CA]-CB--CG-[OD1] |==|  0.58435
USER: genes 13 Torsion [N]-CA--CB-[CG] |==|  0.76790
USER: genes 14 Torsion [CA]-CB--CG-[OD1] |==|  0.32049
USER: genes 15 Torsion [C]-CA--CB-[CG] |==|  0.62876
USER: genes 16 Torsion [CA]-CB--CG-[CD2] |==|  0.76607
USER: genes 17 Torsion [C]-CA--N-[C] |==|  0.75158
USER: genes 18 Torsion [N]-C--CA-[N] |==|  0.93379
USER: genes 19 Torsion [C]-CA--CB-[OG] |==|  0.82755
USER: genes 20 Torsion [CA]-CB--OG-[HG] |==|  0.63461
USER: genes 21 Torsion [C]-CA--N-[C] |==|  0.83812
USER: genes 22 Torsion [N]-C--CA-[N] |==|  0.38930
USER: genes 23 Torsion [C]-CA--N-[C] |==|  0.84276
USER: genes 24 Torsion [N]-C--CA-[N] |==|  0.94216
USER: genes 25 Torsion [C]-CA--CB-[CG2] |==|  0.85625
USER: genes 26 Torsion [C]-CA--N-[H2] |==|  0.99266
USER: genes 27 Torsion [C]-CA--CB-[CG2] |==|  0.84064
ROOT
ATOM      1  CA  HIS P   4     -17.779  12.963  13.931  1.00 23.76 LIG 0.18  C 
ENDROOT
BRANCH 1 2
ATOM      2  C   HIS P   4     -16.575  12.153  13.427  1.00 25.01 LIG 0.24  C 
ATOM      3 O    HIS P   4     -16.714  10.987  13.033  1.00 23.35 LIG-0.27  OA
ATOM      4  N   PHE P   5     -15.382  12.738  13.510  1.00 23.15 LIG-0.35  N 
ATOM      5 H    PHE P   5     -15.260  13.514  13.861  1.00 23.15 LIG 0.16  HD
BRANCH 4 6
ATOM      6  CA  PHE P   5     -14.166  12.121  13.015  1.00 24.23 LIG 0.18  C 
BRANCH 6 7
ATOM      7  CB  PHE P   5     -13.525  11.283  14.163  1.00 25.15 LIG 0.07  C 
BRANCH 7 8
ATOM      8  CG  PHE P   5     -14.535  10.391  14.810  1.00 25.22 LIG-0.06  A 
ATOM      9  CD2 PHE P   5     -14.836   9.197  14.163  1.00 26.21 LIG 0.01  A 
ATOM     10  CE2 PHE P   5     -15.803   8.367  14.653  1.00 26.58 LIG 0.00  A 
ATOM     11  CZ  PHE P   5     -16.451   8.691  15.832  1.00 27.68 LIG 0.00  A 
ATOM     12  CE1 PHE P   5     -16.155   9.858  16.491  1.00 26.50 LIG 0.00  A 
ATOM     13  CD1 PHE P   5     -15.187  10.712  15.976  1.00 25.73 LIG 0.01  A 
ENDBRANCH 7 8
ENDBRANCH 6 7
BRANCH 6 14
ATOM     14  C   PHE P   5     -14.356  11.300  11.759  1.00 25.59 LIG 0.24  C 
ATOM     15 O    PHE P   5     -15.363  11.437  11.035  1.00 25.82 LIG-0.27  OA
ATOM     16  N   ASN P   6     -13.361  10.496  11.432  1.00 24.53 LIG-0.35  N 
ATOM     17 H    ASN P   6     -12.643  10.402  11.895  1.00 24.53 LIG 0.16  HD
BRANCH 16 18
ATOM     18  CA  ASN P   6     -13.415   9.687  10.223  1.00 25.84 LIG 0.18  C 
BRANCH 18 19
ATOM     19  C   ASN P   6     -13.331  10.493   8.948  1.00 25.26 LIG 0.24  C 
ATOM     20  N   ASP P   7     -13.629  11.806   9.012  1.00 26.59 LIG-0.34  N 
ATOM     21 H    ASP P   7     -13.891  12.214   9.723  1.00 26.59 LIG 0.16  HD
ATOM     22 O    ASN P   6     -13.033   9.930   7.892  1.00 25.72 LIG-0.27  OA
BRANCH 20 23
ATOM     23  CA  ASP P   7     -13.519  12.635   7.833  1.00 25.93 LIG 0.20  C 
BRANCH 23 24
ATOM     24  C   ASP P   7     -14.555  12.194   6.788  1.00 27.07 LIG 0.20  C 
ATOM     25 O    ASP P   7     -14.241  12.385   5.626  1.00 28.96 LIG-0.65  OA
ATOM     26 OXT  ASP P   7     -15.647  11.583   7.192  1.00 29.63 LIG-0.65  OA
ENDBRANCH 23 24
BRANCH 23 27
ATOM     27  CB  ASP P   7     -12.143  12.592   7.140  1.00 25.41 LIG 0.15  C 
BRANCH 27 28
ATOM     28  CG  ASP P   7     -11.101  13.433   7.832  1.00 25.37 LIG 0.17  C 
ATOM     29 OD1  ASP P   7     -10.151  13.991   7.238  1.00 26.66 LIG-0.65  OA
ATOM     30 OD2  ASP P   7     -11.259  13.584   9.090  1.00 23.76 LIG-0.65  OA
ENDBRANCH 27 28
ENDBRANCH 23 27
ENDBRANCH 20 23
ENDBRANCH 18 19
BRANCH 18 31
ATOM     31  CB  ASN P   6     -14.655   8.790  10.241  1.00 24.75 LIG 0.14  C 
BRANCH 31 32
ATOM     32  CG  ASN P   6     -14.416   7.519  11.027  1.00 27.24 LIG 0.22  C 
ATOM     33  ND2 ASN P   6     -13.526   6.745  10.408  1.00 23.85 LIG-0.37  N 
ATOM     34 21HD ASN P   6     -13.327   5.974  10.732  1.00 23.85 LIG 0.16  HD
ATOM     35 22HD ASN P   6     -13.149   7.017   9.684  1.00 23.85 LIG 0.16  HD
ATOM     36 OD1  ASN P   6     -15.065   7.291  12.088  1.00 24.90 LIG-0.27  OA
ENDBRANCH 31 32
ENDBRANCH 18 31
ENDBRANCH 16 18
ENDBRANCH 6 14
ENDBRANCH 4 6
ENDBRANCH 1 2
BRANCH 1 37
ATOM     37  CB  HIS P   4     -18.576  12.078  14.888  1.00 21.80 LIG 0.10  C 
BRANCH 37 38
ATOM     38  CG  HIS P   4     -20.053  12.100  14.637  1.00 23.01 LIG 0.06  A 
ATOM     39  CD2 HIS P   4     -21.035  12.917  15.018  1.00 23.26 LIG 0.14  A 
ATOM     40 NE2  HIS P   4     -22.154  12.559  14.310  1.00 21.45 LIG-0.25  NA
ATOM     41  CE1 HIS P   4     -21.869  11.557  13.485  1.00 22.12 LIG 0.23  A 
ATOM     42 ND1  HIS P   4     -20.616  11.270  13.645  1.00 22.83 LIG-0.24  NA
ENDBRANCH 37 38
ENDBRANCH 1 37
BRANCH 1 43
ATOM     43  N   HIS P   4     -18.546  13.405  12.733  1.00 22.02 LIG-0.35  N 
ATOM     44  C   SER P   3     -18.223  14.569  12.170  1.00 24.42 LIG 0.24  C 
ATOM     45 O    SER P   3     -17.327  15.284  12.649  1.00 24.72 LIG-0.27  OA
ATOM     46 H    HIS P   4     -19.168  12.874  12.466  1.00 22.02 LIG 0.16  HD
BRANCH 44 47
ATOM     47  CA  SER P   3     -19.047  15.058  10.991  1.00 22.14 LIG 0.20  C 
BRANCH 47 48
ATOM     48  CB  SER P   3     -20.107  16.100  11.404  1.00 23.32 LIG 0.20  C 
BRANCH 48 49
ATOM     49 OG   SER P   3     -21.038  15.494  12.327  1.00 23.11 LIG-0.40  OA
ATOM     50 HG   SER P   3     -21.824  15.661  12.084  1.00 23.11 LIG 0.21  HD
ENDBRANCH 48 49
ENDBRANCH 47 48
BRANCH 47 51
ATOM     51  N   SER P   3     -19.732  13.987  10.264  1.00 22.53 LIG-0.34  N 
ATOM     52 H    SER P   3     -20.588  14.069  10.224  1.00 22.53 LIG 0.16  HD
ATOM     53  C   VAL P   2     -19.049  12.984   9.723  1.00 22.76 LIG 0.24  C 
ATOM     54 O    VAL P   2     -17.828  12.822   9.945  1.00 25.85 LIG-0.27  OA
BRANCH 53 55
ATOM     55  CA  VAL P   2     -19.870  11.940   8.960  1.00 24.07 LIG 0.18  C 
BRANCH 55 56
ATOM     56  N   VAL P   2     -19.177  11.514   7.743  1.00 24.29 LIG-0.35  N 
ATOM     57 H    VAL P   2     -19.031  10.669   7.674  1.00 24.29 LIG 0.16  HD
ATOM     58  C   VAL P   1     -18.820  12.445   6.829  1.00 26.39 LIG 0.25  C 
ATOM     59 O    VAL P   1     -19.085  13.670   7.006  1.00 26.90 LIG-0.27  OA
BRANCH 58 60
ATOM     60  CA  VAL P   1     -18.134  11.971   5.556  1.00 27.40 LIG 0.28  C 
BRANCH 60 61
ATOM     61  CB  VAL P   1     -19.141  11.913   4.362  1.00 27.20 LIG 0.02  C 
ATOM     62  CG2 VAL P   1     -20.365  11.100   4.799  1.00 28.02 LIG 0.01  C 
ATOM     63  CG1 VAL P   1     -18.367  11.221   3.261  1.00 27.17 LIG 0.01  C 
ENDBRANCH 60 61
BRANCH 60 64
ATOM     64  N   VAL P   1     -17.542  10.679   5.701  1.00 29.12 LIG-0.07  N 
ATOM     65 H2   VAL P   1     -17.651  10.394   6.537  1.00 29.12 LIG 0.28  HD
ATOM     66 H1   VAL P   1     -16.673  10.728   5.515  1.00 29.12 LIG 0.28  HD
ATOM     67 H3   VAL P   1     -17.934  10.108   5.141  1.00 29.12 LIG 0.28  HD
ENDBRANCH 60 64
ENDBRANCH 58 60
ENDBRANCH 55 56
BRANCH 55 68
ATOM     68  CB  VAL P   2     -20.194  10.780   9.947  1.00 25.03 LIG 0.01  C 
ATOM     69  CG2 VAL P   2     -18.879  10.206  10.509  1.00 23.99 LIG 0.01  C 
ATOM     70  CG1 VAL P   2     -20.994   9.664   9.303  1.00 25.56 LIG 0.01  C 
ENDBRANCH 55 68
ENDBRANCH 53 55
ENDBRANCH 47 51
ENDBRANCH 44 47
ENDBRANCH 1 43
TORSDOF 26
ENDMDL
MODEL 51
USER: ADFR SOLUTION from run 52
USER: SCORE 18.612304 LL:  -6.653 LR: -13.979 RR:   0.000 FEB:  -6.223
USER: RMSD 8.489205
USER: SEED 51
USER: STATUS no improvement in best in 8 clusters for 5 generations
USER: GENES 28
USER: genes 0 Translation |==|  0.52420 0.32463 0.70392
USER: genes 1 Rotation |==|  0.47418 0.82917 0.18726 0.70779
USER: genes 2 Torsion [N]-CA--C-[N] |==|  0.90463
USER: genes 3 Torsion [C]-N--CA-[CB] |==|  0.17735
USER: genes 4 Torsion [N]-CA--CB-[CG] |==|  0.13603
USER: genes 5 Torsion [CA]-CB--CG-[CD2] |==|  0.68554
USER: genes 6 Torsion [N]-CA--C-[N] |==|  0.08478
USER: genes 7 Torsion [C]-N--CA-[CB] |==|  0.35802
USER: genes 8 Torsion [N]-CA--C-[N] |==|  0.12338
USER: genes 9 Torsion [C]-N--CA-[C] |==|  0.78403
USER: genes 10 Torsion [N]-CA--C-[O] |==|  0.40033
USER: genes 11 Torsion [N]-CA--CB-[CG] |==|  0.86322
USER: genes 12 Torsion [CA]-CB--CG-[OD1] |==|  0.14580
USER: genes 13 Torsion [N]-CA--CB-[CG] |==|  0.75914
USER: genes 14 Torsion [CA]-CB--CG-[OD1] |==|  0.07110
USER: genes 15 Torsion [C]-CA--CB-[CG] |==|  0.75616
USER: genes 16 Torsion [CA]-CB--CG-[CD2] |==|  0.13140
USER: genes 17 Torsion [C]-CA--N-[C] |==|  0.85359
USER: genes 18 Torsion [N]-C--CA-[N] |==|  0.40718
USER: genes 19 Torsion [C]-CA--CB-[OG] |==|  0.46073
USER: genes 20 Torsion [CA]-CB--OG-[HG] |==|  0.61931
USER: genes 21 Torsion [C]-CA--N-[C] |==|  0.76192
USER: genes 22 Torsion [N]-C--CA-[N] |==|  0.88165
USER: genes 23 Torsion [C]-CA--N-[C] |==|  0.84996
USER: genes 24 Torsion [N]-C--CA-[N] |==|  0.48570
USER: genes 25 Torsion [C]-CA--CB-[CG2] |==|  0.21298
USER: genes 26 Torsion [C]-CA--N-[H2] |==|  0.74555
USER: genes 27 Torsion [C]-CA--CB-[CG2] |==|  0.34926
ROOT
ATOM      1  CA  HIS P   4     -17.125   9.465  13.815  1.00 23.76 LIG 0.18  C 
ENDROOT
BRANCH 1 2
ATOM      2  C   HIS P   4     -16.846  10.973  13.754  1.00 25.01 LIG 0.24  C 
ATOM      3 O    HIS P   4     -16.716  11.638  14.791  1.00 23.35 LIG-0.27  OA
ATOM      4  N   PHE P   5     -16.831  11.532  12.545  1.00 23.15 LIG-0.35  N 
ATOM      5 H    PHE P   5     -17.005  11.098  11.822  1.00 23.15 LIG 0.16  HD
BRANCH 4 6
ATOM      6  CA  PHE P   5     -16.518  12.931  12.328  1.00 24.23 LIG 0.18  C 
BRANCH 6 7
ATOM      7  CB  PHE P   5     -15.045  13.191  12.769  1.00 25.15 LIG 0.07  C 
BRANCH 7 8
ATOM      8  CG  PHE P   5     -14.119  12.176  12.181  1.00 25.22 LIG-0.06  A 
ATOM      9  CD2 PHE P   5     -13.502  11.293  13.061  1.00 26.21 LIG 0.01  A 
ATOM     10  CE2 PHE P   5     -12.585  10.388  12.608  1.00 26.58 LIG 0.00  A 
ATOM     11  CZ  PHE P   5     -12.307  10.314  11.255  1.00 27.68 LIG 0.00  A 
ATOM     12  CE1 PHE P   5     -12.919  11.168  10.371  1.00 26.50 LIG 0.00  A 
ATOM     13  CD1 PHE P   5     -13.833  12.103  10.839  1.00 25.73 LIG 0.01  A 
ENDBRANCH 7 8
ENDBRANCH 6 7
BRANCH 6 14
ATOM     14  C   PHE P   5     -16.775  13.412  10.918  1.00 25.59 LIG 0.24  C 
ATOM     15 O    PHE P   5     -16.048  14.270  10.377  1.00 25.82 LIG-0.27  OA
ATOM     16  N   ASN P   6     -17.755  12.813  10.268  1.00 24.53 LIG-0.35  N 
ATOM     17 H    ASN P   6     -18.255  12.198  10.603  1.00 24.53 LIG 0.16  HD
BRANCH 16 18
ATOM     18  CA  ASN P   6     -18.069  13.165   8.890  1.00 25.84 LIG 0.18  C 
BRANCH 18 19
ATOM     19  C   ASN P   6     -19.319  14.002   8.746  1.00 25.26 LIG 0.24  C 
ATOM     20  N   ASP P   7     -19.492  15.027   9.604  1.00 26.59 LIG-0.34  N 
ATOM     21 H    ASP P   7     -18.955  15.224  10.246  1.00 26.59 LIG 0.16  HD
ATOM     22 O    ASN P   6     -20.152  13.707   7.886  1.00 25.72 LIG-0.27  OA
BRANCH 20 23
ATOM     23  CA  ASP P   7     -20.646  15.890   9.482  1.00 25.93 LIG 0.20  C 
BRANCH 23 24
ATOM     24  C   ASP P   7     -20.433  16.885   8.331  1.00 27.07 LIG 0.20  C 
ATOM     25 O    ASP P   7     -21.431  17.163   7.688  1.00 28.96 LIG-0.65  OA
ATOM     26 OXT  ASP P   7     -19.245  17.421   8.164  1.00 29.63 LIG-0.65  OA
ENDBRANCH 23 24
BRANCH 23 27
ATOM     27  CB  ASP P   7     -20.964  16.725  10.738  1.00 25.41 LIG 0.15  C 
BRANCH 27 28
ATOM     28  CG  ASP P   7     -20.992  15.909  12.005  1.00 25.37 LIG 0.17  C 
ATOM     29 OD1  ASP P   7     -20.063  15.153  12.367  1.00 26.66 LIG-0.65  OA
ATOM     30 OD2  ASP P   7     -22.030  16.059  12.735  1.00 23.76 LIG-0.65  OA
ENDBRANCH 27 28
ENDBRANCH 23 27
ENDBRANCH 20 23
ENDBRANCH 18 19
BRANCH 18 31
ATOM     31  CB  ASN P   6     -18.132  11.906   8.023  1.00 24.75 LIG 0.14  C 
BRANCH 31 32
ATOM     32  CG  ASN P   6     -16.768  11.524   7.490  1.00 27.24 LIG 0.22  C 
ATOM     33  ND2 ASN P   6     -16.885  10.780   6.390  1.00 23.85 LIG-0.37  N 
ATOM     34 21HD ASN P   6     -16.182  10.466   6.007  1.00 23.85 LIG 0.16  HD
ATOM     35 22HD ASN P   6     -17.663  10.616   6.064  1.00 23.85 LIG 0.16  HD
ATOM     36 OD1  ASN P   6     -15.720  11.868   8.108  1.00 24.90 LIG-0.27  OA
ENDBRANCH 31 32
ENDBRANCH 18 31
ENDBRANCH 16 18
ENDBRANCH 6 14
ENDBRANCH 4 6
ENDBRANCH 1 2
BRANCH 1 37
ATOM     37  CB  HIS P   4     -15.788   8.733  13.703  1.00 21.80 LIG 0.10  C 
BRANCH 37 38
ATOM     38  CG  HIS P   4     -15.369   8.460  12.290  1.00 23.01 LIG 0.06  A 
ATOM     39  CD2 HIS P   4     -15.319   9.209  11.189  1.00 23.26 LIG 0.14  A 
ATOM     40 NE2  HIS P   4     -14.651   8.482  10.237  1.00 21.45 LIG-0.25  NA
ATOM     41  CE1 HIS P   4     -14.268   7.313  10.743  1.00 22.12 LIG 0.23  A 
ATOM     42 ND1  HIS P   4     -14.669   7.277  11.974  1.00 22.83 LIG-0.24  NA
ENDBRANCH 37 38
ENDBRANCH 1 37
BRANCH 1 43
ATOM     43  N   HIS P   4     -18.083   9.148  12.721  1.00 22.02 LIG-0.35  N 
ATOM     44  C   SER P   3     -19.212   9.853  12.645  1.00 24.42 LIG 0.24  C 
ATOM     45 O    SER P   3     -19.474  10.731  13.483  1.00 24.72 LIG-0.27  OA
ATOM     46 H    HIS P   4     -17.851   8.514  12.187  1.00 22.02 LIG 0.16  HD
BRANCH 44 47
ATOM     47  CA  SER P   3     -20.225   9.489  11.572  1.00 22.14 LIG 0.20  C 
BRANCH 47 48
ATOM     48  CB  SER P   3     -19.997  10.265  10.258  1.00 23.32 LIG 0.20  C 
BRANCH 48 49
ATOM     49 OG   SER P   3     -20.759   9.645   9.199  1.00 23.11 LIG-0.40  OA
ATOM     50 HG   SER P   3     -20.290   9.602   8.504  1.00 23.11 LIG 0.21  HD
ENDBRANCH 48 49
ENDBRANCH 47 48
BRANCH 47 51
ATOM     51  N   SER P   3     -21.616   9.697  11.978  1.00 22.53 LIG-0.34  N 
ATOM     52 H    SER P   3     -21.948  10.457  11.751  1.00 22.53 LIG 0.16  HD
ATOM     53  C   VAL P   2     -22.281   8.758  12.645  1.00 22.76 LIG 0.24  C 
ATOM     54 O    VAL P   2     -21.710   7.738  13.093  1.00 25.85 LIG-0.27  OA
BRANCH 53 55
ATOM     55  CA  VAL P   2     -23.739   9.075  12.988  1.00 24.07 LIG 0.18  C 
BRANCH 55 56
ATOM     56  N   VAL P   2     -23.881  10.455  13.454  1.00 24.29 LIG-0.35  N 
ATOM     57 H    VAL P   2     -24.463  10.931  13.036  1.00 24.29 LIG 0.16  HD
ATOM     58  C   VAL P   1     -23.115  10.885  14.481  1.00 26.39 LIG 0.25  C 
ATOM     59 O    VAL P   1     -22.288  10.112  15.049  1.00 26.90 LIG-0.27  OA
BRANCH 58 60
ATOM     60  CA  VAL P   1     -23.309  12.313  14.971  1.00 27.40 LIG 0.28  C 
BRANCH 60 61
ATOM     61  CB  VAL P   1     -22.933  13.345  13.859  1.00 27.20 LIG 0.02  C 
ATOM     62  CG2 VAL P   1     -24.075  13.393  12.837  1.00 28.02 LIG 0.01  C 
ATOM     63  CG1 VAL P   1     -21.659  12.793  13.259  1.00 27.17 LIG 0.01  C 
ENDBRANCH 60 61
BRANCH 60 64
ATOM     64  N   VAL P   1     -22.526  12.606  16.130  1.00 29.12 LIG-0.07  N 
ATOM     65 H2   VAL P   1     -23.003  12.435  16.862  1.00 29.12 LIG 0.28  HD
ATOM     66 H1   VAL P   1     -22.293  13.465  16.122  1.00 29.12 LIG 0.28  HD
ATOM     67 H3   VAL P   1     -21.794  12.100  16.129  1.00 29.12 LIG 0.28  HD
ENDBRANCH 60 64
ENDBRANCH 58 60
ENDBRANCH 55 56
BRANCH 55 68
ATOM     68  CB  VAL P   2     -24.603   8.732  11.738  1.00 25.03 LIG 0.01  C 
ATOM     69  CG2 VAL P   2     -25.729   7.763  12.148  1.00 23.99 LIG 0.01  C 
ATOM     70  CG1 VAL P   2     -23.794   8.113  10.614  1.00 25.56 LIG 0.01  C 
ENDBRANCH 55 68
ENDBRANCH 53 55
ENDBRANCH 47 51
ENDBRANCH 44 47
ENDBRANCH 1 43
TORSDOF 26
ENDMDL
MODEL 52
USER: ADFR SOLUTION from run 35
USER: SCORE 19.435907 LL:  -7.444 LR: -13.979 RR:   0.000 FEB:  -6.223
USER: RMSD 4.665407
USER: SEED 34
USER: STATUS 1 or 2 clusters left
USER: GENES 28
USER: genes 0 Translation |==|  0.65650 0.30939 0.70573
USER: genes 1 Rotation |==|  0.39263 0.62327 0.52758 0.97171
USER: genes 2 Torsion [N]-CA--C-[N] |==|  0.66718
USER: genes 3 Torsion [C]-N--CA-[CB] |==|  0.50728
USER: genes 4 Torsion [N]-CA--CB-[CG] |==|  0.21156
USER: genes 5 Torsion [CA]-CB--CG-[CD2] |==|  0.31007
USER: genes 6 Torsion [N]-CA--C-[N] |==|  0.37989
USER: genes 7 Torsion [C]-N--CA-[CB] |==|  0.48696
USER: genes 8 Torsion [N]-CA--C-[N] |==|  0.47152
USER: genes 9 Torsion [C]-N--CA-[C] |==|  0.77290
USER: genes 10 Torsion [N]-CA--C-[O] |==|  0.88893
USER: genes 11 Torsion [N]-CA--CB-[CG] |==|  0.72522
USER: genes 12 Torsion [CA]-CB--CG-[OD1] |==|  0.33623
USER: genes 13 Torsion [N]-CA--CB-[CG] |==|  0.13939
USER: genes 14 Torsion [CA]-CB--CG-[OD1] |==|  0.25620
USER: genes 15 Torsion [C]-CA--CB-[CG] |==|  0.24483
USER: genes 16 Torsion [CA]-CB--CG-[CD2] |==|  0.36962
USER: genes 17 Torsion [C]-CA--N-[C] |==|  0.18206
USER: genes 18 Torsion [N]-C--CA-[N] |==|  0.39643
USER: genes 19 Torsion [C]-CA--CB-[OG] |==|  0.84629
USER: genes 20 Torsion [CA]-CB--OG-[HG] |==|  0.29477
USER: genes 21 Torsion [C]-CA--N-[C] |==|  0.81430
USER: genes 22 Torsion [N]-C--CA-[N] |==|  0.43078
USER: genes 23 Torsion [C]-CA--N-[C] |==|  0.80832
USER: genes 24 Torsion [N]-C--CA-[N] |==|  0.01237
USER: genes 25 Torsion [C]-CA--CB-[CG2] |==|  0.86613
USER: genes 26 Torsion [C]-CA--N-[H2] |==|  0.23460
USER: genes 27 Torsion [C]-CA--CB-[CG2] |==|  0.74707
ROOT
ATOM      1  CA  HIS P   4     -14.247   9.202  13.855  1.00 23.76 LIG 0.18  C 
ENDROOT
BRANCH 1 2
ATOM      2  C   HIS P   4     -15.705   9.215  13.375  1.00 25.01 LIG 0.24  C 
ATOM      3 O    HIS P   4     -16.095   8.425  12.505  1.00 23.35 LIG-0.27  OA
ATOM      4  N   PHE P   5     -16.495  10.159  13.883  1.00 23.15 LIG-0.35  N 
ATOM      5 H    PHE P   5     -16.216  10.768  14.424  1.00 23.15 LIG 0.16  HD
BRANCH 4 6
ATOM      6  CA  PHE P   5     -17.909  10.254  13.573  1.00 24.23 LIG 0.18  C 
BRANCH 6 7
ATOM      7  CB  PHE P   5     -18.496  11.510  14.287  1.00 25.15 LIG 0.07  C 
BRANCH 7 8
ATOM      8  CG  PHE P   5     -18.110  12.766  13.575  1.00 25.22 LIG-0.06  A 
ATOM      9  CD2 PHE P   5     -19.123  13.471  12.933  1.00 26.21 LIG 0.01  A 
ATOM     10  CE2 PHE P   5     -18.836  14.585  12.199  1.00 26.58 LIG 0.00  A 
ATOM     11  CZ  PHE P   5     -17.534  15.048  12.137  1.00 27.68 LIG 0.00  A 
ATOM     12  CE1 PHE P   5     -16.524  14.373  12.778  1.00 26.50 LIG 0.00  A 
ATOM     13  CD1 PHE P   5     -16.817  13.225  13.503  1.00 25.73 LIG 0.01  A 
ENDBRANCH 7 8
ENDBRANCH 6 7
BRANCH 6 14
ATOM     14  C   PHE P   5     -18.219  10.253  12.093  1.00 25.59 LIG 0.24  C 
ATOM     15 O    PHE P   5     -17.501  10.862  11.274  1.00 25.82 LIG-0.27  OA
ATOM     16  N   ASN P   6     -19.238   9.506  11.711  1.00 24.53 LIG-0.35  N 
ATOM     17 H    ASN P   6     -19.733   9.052  12.248  1.00 24.53 LIG 0.16  HD
BRANCH 16 18
ATOM     18  CA  ASN P   6     -19.605   9.397  10.307  1.00 25.84 LIG 0.18  C 
BRANCH 18 19
ATOM     19  C   ASN P   6     -19.940  10.721   9.661  1.00 25.26 LIG 0.24  C 
ATOM     20  N   ASP P   7     -20.085  10.750   8.321  1.00 26.59 LIG-0.34  N 
ATOM     21 H    ASP P   7     -19.975  10.073   7.802  1.00 26.59 LIG 0.16  HD
ATOM     22 O    ASN P   6     -20.033  11.732  10.362  1.00 25.72 LIG-0.27  OA
BRANCH 20 23
ATOM     23  CA  ASP P   7     -20.452  11.980   7.656  1.00 25.93 LIG 0.20  C 
BRANCH 23 24
ATOM     24  C   ASP P   7     -21.972  12.186   7.742  1.00 27.07 LIG 0.20  C 
ATOM     25 O    ASP P   7     -22.646  11.181   7.594  1.00 28.96 LIG-0.65  OA
ATOM     26 OXT  ASP P   7     -22.437  13.378   8.042  1.00 29.63 LIG-0.65  OA
ENDBRANCH 23 24
BRANCH 23 27
ATOM     27  CB  ASP P   7     -20.079  12.043   6.162  1.00 25.41 LIG 0.15  C 
BRANCH 27 28
ATOM     28  CG  ASP P   7     -18.804  12.802   5.897  1.00 25.37 LIG 0.17  C 
ATOM     29 OD1  ASP P   7     -17.803  12.305   5.334  1.00 26.66 LIG-0.65  OA
ATOM     30 OD2  ASP P   7     -18.808  14.029   6.253  1.00 23.76 LIG-0.65  OA
ENDBRANCH 27 28
ENDBRANCH 23 27
ENDBRANCH 20 23
ENDBRANCH 18 19
BRANCH 18 31
ATOM     31  CB  ASN P   6     -20.739   8.384  10.133  1.00 24.75 LIG 0.14  C 
BRANCH 31 32
ATOM     32  CG  ASN P   6     -21.883   8.654  11.086  1.00 27.24 LIG 0.22  C 
ATOM     33  ND2 ASN P   6     -21.709   7.992  12.229  1.00 23.85 LIG-0.37  N 
ATOM     34 21HD ASN P   6     -22.309   8.031  12.844  1.00 23.85 LIG 0.16  HD
ATOM     35 22HD ASN P   6     -20.997   7.526  12.352  1.00 23.85 LIG 0.16  HD
ATOM     36 OD1  ASN P   6     -22.853   9.383  10.730  1.00 24.90 LIG-0.27  OA
ENDBRANCH 31 32
ENDBRANCH 18 31
ENDBRANCH 16 18
ENDBRANCH 6 14
ENDBRANCH 4 6
ENDBRANCH 1 2
BRANCH 1 37
ATOM     37  CB  HIS P   4     -14.089  10.289  14.916  1.00 21.80 LIG 0.10  C 
BRANCH 37 38
ATOM     38  CG  HIS P   4     -14.398   9.822  16.306  1.00 23.01 LIG 0.06  A 
ATOM     39  CD2 HIS P   4     -13.776   9.955  17.477  1.00 23.26 LIG 0.14  A 
ATOM     40 NE2  HIS P   4     -14.635   9.500  18.445  1.00 21.45 LIG-0.25  NA
ATOM     41  CE1 HIS P   4     -15.781   9.115  17.890  1.00 22.12 LIG 0.23  A 
ATOM     42 ND1  HIS P   4     -15.677   9.311  16.614  1.00 22.83 LIG-0.24  NA
ENDBRANCH 37 38
ENDBRANCH 1 37
BRANCH 1 43
ATOM     43  N   HIS P   4     -13.386   9.396  12.655  1.00 22.02 LIG-0.35  N 
ATOM     44  C   SER P   3     -13.455  10.561  12.010  1.00 24.42 LIG 0.24  C 
ATOM     45 O    SER P   3     -14.239  11.450  12.378  1.00 24.72 LIG-0.27  OA
ATOM     46 H    HIS P   4     -12.882   8.733  12.440  1.00 22.02 LIG 0.16  HD
BRANCH 44 47
ATOM     47  CA  SER P   3     -12.631  10.740  10.745  1.00 22.14 LIG 0.20  C 
BRANCH 47 48
ATOM     48  CB  SER P   3     -11.266  11.405  11.021  1.00 23.32 LIG 0.20  C 
BRANCH 48 49
ATOM     49 OG   SER P   3     -11.476  12.660  11.704  1.00 23.11 LIG-0.40  OA
ATOM     50 HG   SER P   3     -11.261  12.580  12.511  1.00 23.11 LIG 0.21  HD
ENDBRANCH 48 49
ENDBRANCH 47 48
BRANCH 47 51
ATOM     51  N   SER P   3     -13.305  11.518   9.705  1.00 22.53 LIG-0.34  N 
ATOM     52 H    SER P   3     -12.945  12.281   9.535  1.00 22.53 LIG 0.16  HD
ATOM     53  C   VAL P   2     -14.388  11.048   9.094  1.00 22.76 LIG 0.24  C 
ATOM     54 O    VAL P   2     -14.968  10.010   9.486  1.00 25.85 LIG-0.27  OA
BRANCH 53 55
ATOM     55  CA  VAL P   2     -14.988  11.936   8.001  1.00 24.07 LIG 0.18  C 
BRANCH 55 56
ATOM     56  N   VAL P   2     -15.747  11.140   7.035  1.00 24.29 LIG-0.35  N 
ATOM     57 H    VAL P   2     -16.599  11.255   7.045  1.00 24.29 LIG 0.16  HD
ATOM     58  C   VAL P   1     -15.083  10.300   6.209  1.00 26.39 LIG 0.25  C 
ATOM     59 O    VAL P   1     -13.822  10.200   6.254  1.00 26.90 LIG-0.27  OA
BRANCH 58 60
ATOM     60  CA  VAL P   1     -15.892   9.511   5.189  1.00 27.40 LIG 0.28  C 
BRANCH 60 61
ATOM     61  CB  VAL P   1     -15.341   9.728   3.744  1.00 27.20 LIG 0.02  C 
ATOM     62  CG2 VAL P   1     -15.150  11.232   3.518  1.00 28.02 LIG 0.01  C 
ATOM     63  CG1 VAL P   1     -16.417   9.154   2.849  1.00 27.17 LIG 0.01  C 
ENDBRANCH 60 61
BRANCH 60 64
ATOM     64  N   VAL P   1     -17.276   9.867   5.195  1.00 29.12 LIG-0.07  N 
ATOM     65 H2   VAL P   1     -17.401  10.583   4.682  1.00 29.12 LIG 0.28  HD
ATOM     66 H1   VAL P   1     -17.532  10.051   6.027  1.00 29.12 LIG 0.28  HD
ATOM     67 H3   VAL P   1     -17.758   9.189   4.879  1.00 29.12 LIG 0.28  HD
ENDBRANCH 60 64
ENDBRANCH 58 60
ENDBRANCH 55 56
BRANCH 55 68
ATOM     68  CB  VAL P   2     -15.820  13.051   8.702  1.00 25.03 LIG 0.01  C 
ATOM     69  CG2 VAL P   2     -17.277  12.574   8.862  1.00 23.99 LIG 0.01  C 
ATOM     70  CG1 VAL P   2     -15.803  14.364   7.942  1.00 25.56 LIG 0.01  C 
ENDBRANCH 55 68
ENDBRANCH 53 55
ENDBRANCH 47 51
ENDBRANCH 44 47
ENDBRANCH 1 43
TORSDOF 26
ENDMDL
MODEL 53
USER: ADFR SOLUTION from run 20
USER: SCORE 18.845939 LL:  -5.252 LR: -13.982 RR:   0.000 FEB:  -6.226
USER: RMSD 9.198168
USER: SEED 19
USER: STATUS no improvement in best in 2 clusters for 5 generations
USER: GENES 28
USER: genes 0 Translation |==|  0.51548 0.37766 0.69286
USER: genes 1 Rotation |==|  0.40736 0.67578 0.06658 0.65055
USER: genes 2 Torsion [N]-CA--C-[N] |==|  0.90183
USER: genes 3 Torsion [C]-N--CA-[CB] |==|  0.80190
USER: genes 4 Torsion [N]-CA--CB-[CG] |==|  0.66771
USER: genes 5 Torsion [CA]-CB--CG-[CD2] |==|  0.84365
USER: genes 6 Torsion [N]-CA--C-[N] |==|  0.45208
USER: genes 7 Torsion [C]-N--CA-[CB] |==|  0.16659
USER: genes 8 Torsion [N]-CA--C-[N] |==|  0.11641
USER: genes 9 Torsion [C]-N--CA-[C] |==|  0.19312
USER: genes 10 Torsion [N]-CA--C-[O] |==|  0.11889
USER: genes 11 Torsion [N]-CA--CB-[CG] |==|  0.72338
USER: genes 12 Torsion [CA]-CB--CG-[OD1] |==|  0.11023
USER: genes 13 Torsion [N]-CA--CB-[CG] |==|  0.63611
USER: genes 14 Torsion [CA]-CB--CG-[OD1] |==|  0.79229
USER: genes 15 Torsion [C]-CA--CB-[CG] |==|  0.89814
USER: genes 16 Torsion [CA]-CB--CG-[CD2] |==|  0.31423
USER: genes 17 Torsion [C]-CA--N-[C] |==|  0.83275
USER: genes 18 Torsion [N]-C--CA-[N] |==|  0.36485
USER: genes 19 Torsion [C]-CA--CB-[OG] |==|  0.30219
USER: genes 20 Torsion [CA]-CB--OG-[HG] |==|  0.02161
USER: genes 21 Torsion [C]-CA--N-[C] |==|  0.66815
USER: genes 22 Torsion [N]-C--CA-[N] |==|  0.92351
USER: genes 23 Torsion [C]-CA--N-[C] |==|  0.84995
USER: genes 24 Torsion [N]-C--CA-[N] |==|  0.48890
USER: genes 25 Torsion [C]-CA--CB-[CG2] |==|  0.75788
USER: genes 26 Torsion [C]-CA--N-[H2] |==|  0.73672
USER: genes 27 Torsion [C]-CA--CB-[CG2] |==|  0.28587
ROOT
ATOM      1  CA  HIS P   4     -17.314  10.380  13.575  1.00 23.76 LIG 0.18  C 
ENDROOT
BRANCH 1 2
ATOM      2  C   HIS P   4     -16.881  11.277  12.407  1.00 25.01 LIG 0.24  C 
ATOM      3 O    HIS P   4     -16.605  12.470  12.591  1.00 23.35 LIG-0.27  OA
ATOM      4  N   PHE P   5     -16.895  10.730  11.193  1.00 23.15 LIG-0.35  N 
ATOM      5 H    PHE P   5     -17.168   9.928  11.039  1.00 23.15 LIG 0.16  HD
BRANCH 4 6
ATOM      6  CA  PHE P   5     -16.452  11.435  10.006  1.00 24.23 LIG 0.18  C 
BRANCH 6 7
ATOM      7  CB  PHE P   5     -17.497  12.538   9.658  1.00 25.15 LIG 0.07  C 
BRANCH 7 8
ATOM      8  CG  PHE P   5     -18.081  12.320   8.300  1.00 25.22 LIG-0.06  A 
ATOM      9  CD2 PHE P   5     -17.195  12.242   7.230  1.00 26.21 LIG 0.01  A 
ATOM     10  CE2 PHE P   5     -17.658  12.120   5.952  1.00 26.58 LIG 0.00  A 
ATOM     11  CZ  PHE P   5     -19.019  12.020   5.723  1.00 27.68 LIG 0.00  A 
ATOM     12  CE1 PHE P   5     -19.907  12.078   6.769  1.00 26.50 LIG 0.00  A 
ATOM     13  CD1 PHE P   5     -19.432  12.227   8.066  1.00 25.73 LIG 0.01  A 
ENDBRANCH 7 8
ENDBRANCH 6 7
BRANCH 6 14
ATOM     14  C   PHE P   5     -15.052  12.000  10.108  1.00 25.59 LIG 0.24  C 
ATOM     15 O    PHE P   5     -14.454  12.071  11.201  1.00 25.82 LIG-0.27  OA
ATOM     16  N   ASN P   6     -14.473  12.331   8.970  1.00 24.53 LIG-0.35  N 
ATOM     17 H    ASN P   6     -14.849  12.267   8.199  1.00 24.53 LIG 0.16  HD
BRANCH 16 18
ATOM     18  CA  ASN P   6     -13.112  12.849   8.941  1.00 25.84 LIG 0.18  C 
BRANCH 18 19
ATOM     19  C   ASN P   6     -12.667  13.312   7.573  1.00 25.26 LIG 0.24  C 
ATOM     20  N   ASP P   7     -13.546  14.010   6.828  1.00 26.59 LIG-0.34  N 
ATOM     21 H    ASP P   7     -14.354  14.190   7.063  1.00 26.59 LIG 0.16  HD
ATOM     22 O    ASN P   6     -11.542  13.011   7.167  1.00 25.72 LIG-0.27  OA
BRANCH 20 23
ATOM     23  CA  ASP P   7     -13.158  14.519   5.532  1.00 25.93 LIG 0.20  C 
BRANCH 23 24
ATOM     24  C   ASP P   7     -12.981  13.353   4.547  1.00 27.07 LIG 0.20  C 
ATOM     25 O    ASP P   7     -13.837  12.488   4.599  1.00 28.96 LIG-0.65  OA
ATOM     26 OXT  ASP P   7     -11.994  13.396   3.679  1.00 29.63 LIG-0.65  OA
ENDBRANCH 23 24
BRANCH 23 27
ATOM     27  CB  ASP P   7     -11.838  15.315   5.519  1.00 25.41 LIG 0.15  C 
BRANCH 27 28
ATOM     28  CG  ASP P   7     -12.043  16.808   5.531  1.00 25.37 LIG 0.17  C 
ATOM     29 OD1  ASP P   7     -12.922  17.384   6.211  1.00 26.66 LIG-0.65  OA
ATOM     30 OD2  ASP P   7     -11.225  17.484   4.819  1.00 23.76 LIG-0.65  OA
ENDBRANCH 27 28
ENDBRANCH 23 27
ENDBRANCH 20 23
ENDBRANCH 18 19
BRANCH 18 31
ATOM     31  CB  ASN P   6     -12.143  11.822   9.531  1.00 24.75 LIG 0.14  C 
BRANCH 31 32
ATOM     32  CG  ASN P   6     -11.225  12.444  10.561  1.00 27.24 LIG 0.22  C 
ATOM     33  ND2 ASN P   6     -11.625  12.136  11.793  1.00 23.85 LIG-0.37  N 
ATOM     34 21HD ASN P   6     -11.209  12.458  12.473  1.00 23.85 LIG 0.16  HD
ATOM     35 22HD ASN P   6     -12.300  11.615  11.909  1.00 23.85 LIG 0.16  HD
ATOM     36 OD1  ASN P   6     -10.266  13.184  10.198  1.00 24.90 LIG-0.27  OA
ENDBRANCH 31 32
ENDBRANCH 18 31
ENDBRANCH 16 18
ENDBRANCH 6 14
ENDBRANCH 4 6
ENDBRANCH 1 2
BRANCH 1 37
ATOM     37  CB  HIS P   4     -16.080   9.633  14.080  1.00 21.80 LIG 0.10  C 
BRANCH 37 38
ATOM     38  CG  HIS P   4     -15.133   9.231  12.990  1.00 23.01 LIG 0.06  A 
ATOM     39  CD2 HIS P   4     -13.893   9.601  12.672  1.00 23.26 LIG 0.14  A 
ATOM     40 NE2  HIS P   4     -13.453   8.740  11.699  1.00 21.45 LIG-0.25  NA
ATOM     41  CE1 HIS P   4     -14.390   7.835  11.435  1.00 22.12 LIG 0.23  A 
ATOM     42 ND1  HIS P   4     -15.401   8.091  12.203  1.00 22.83 LIG-0.24  NA
ENDBRANCH 37 38
ENDBRANCH 1 37
BRANCH 1 43
ATOM     43  N   HIS P   4     -18.397   9.490  13.070  1.00 22.02 LIG-0.35  N 
ATOM     44  C   SER P   3     -19.511  10.053  12.604  1.00 24.42 LIG 0.24  C 
ATOM     45 O    SER P   3     -19.659  11.286  12.618  1.00 24.72 LIG-0.27  OA
ATOM     46 H    HIS P   4     -18.240   8.645  13.109  1.00 22.02 LIG 0.16  HD
BRANCH 44 47
ATOM     47  CA  SER P   3     -20.647   9.149  12.152  1.00 22.14 LIG 0.20  C 
BRANCH 47 48
ATOM     48  CB  SER P   3     -20.777   9.090  10.616  1.00 23.32 LIG 0.20  C 
BRANCH 48 49
ATOM     49 OG   SER P   3     -20.346   7.793  10.149  1.00 23.11 LIG-0.40  OA
ATOM     50 HG   SER P   3     -20.210   7.289  10.808  1.00 23.11 LIG 0.21  HD
ENDBRANCH 48 49
ENDBRANCH 47 48
BRANCH 47 51
ATOM     51  N   SER P   3     -21.953   9.523  12.697  1.00 22.53 LIG-0.34  N 
ATOM     52 H    SER P   3     -22.220  10.312  12.483  1.00 22.53 LIG 0.16  HD
ATOM     53  C   VAL P   2     -22.642   8.680  13.460  1.00 22.76 LIG 0.24  C 
ATOM     54 O    VAL P   2     -22.143   7.611  13.877  1.00 25.85 LIG-0.27  OA
BRANCH 53 55
ATOM     55  CA  VAL P   2     -24.009   9.169  13.946  1.00 24.07 LIG 0.18  C 
BRANCH 55 56
ATOM     56  N   VAL P   2     -24.041  10.630  14.042  1.00 24.29 LIG-0.35  N 
ATOM     57 H    VAL P   2     -24.680  11.017  13.616  1.00 24.29 LIG 0.16  HD
ATOM     58  C   VAL P   1     -23.095  11.262  14.772  1.00 26.39 LIG 0.25  C 
ATOM     59 O    VAL P   1     -22.194  10.612  15.379  1.00 26.90 LIG-0.27  OA
BRANCH 58 60
ATOM     60  CA  VAL P   1     -23.173  12.778  14.886  1.00 27.40 LIG 0.28  C 
BRANCH 60 61
ATOM     61  CB  VAL P   1     -23.014  13.456  13.488  1.00 27.20 LIG 0.02  C 
ATOM     62  CG2 VAL P   1     -21.520  13.662  13.215  1.00 28.02 LIG 0.01  C 
ATOM     63  CG1 VAL P   1     -23.749  14.771  13.630  1.00 27.17 LIG 0.01  C 
ENDBRANCH 60 61
BRANCH 60 64
ATOM     64  N   VAL P   1     -22.173  13.314  15.755  1.00 29.12 LIG-0.07  N 
ATOM     65 H2   VAL P   1     -22.512  13.414  16.572  1.00 29.12 LIG 0.28  HD
ATOM     66 H1   VAL P   1     -21.904  14.105  15.447  1.00 29.12 LIG 0.28  HD
ATOM     67 H3   VAL P   1     -21.479  12.757  15.789  1.00 29.12 LIG 0.28  HD
ENDBRANCH 60 64
ENDBRANCH 58 60
ENDBRANCH 55 56
BRANCH 55 68
ATOM     68  CB  VAL P   2     -25.089   8.569  12.999  1.00 25.03 LIG 0.01  C 
ATOM     69  CG2 VAL P   2     -25.783   7.386  13.702  1.00 23.99 LIG 0.01  C 
ATOM     70  CG1 VAL P   2     -24.517   8.100  11.674  1.00 25.56 LIG 0.01  C 
ENDBRANCH 55 68
ENDBRANCH 53 55
ENDBRANCH 47 51
ENDBRANCH 44 47
ENDBRANCH 1 43
TORSDOF 26
ENDMDL
MODEL 54
USER: ADFR SOLUTION from run 28
USER: SCORE 18.824893 LL:  -7.657 LR: -13.968 RR:   0.000 FEB:  -6.212
USER: RMSD 4.608543
USER: SEED 27
USER: STATUS searching
USER: GENES 28
USER: genes 0 Translation |==|  0.53736 0.30739 0.63523
USER: genes 1 Rotation |==|  0.56015 0.53843 0.47684 0.99434
USER: genes 2 Torsion [N]-CA--C-[N] |==|  0.51110
USER: genes 3 Torsion [C]-N--CA-[CB] |==|  0.82582
USER: genes 4 Torsion [N]-CA--CB-[CG] |==|  0.89379
USER: genes 5 Torsion [CA]-CB--CG-[CD2] |==|  0.29318
USER: genes 6 Torsion [N]-CA--C-[N] |==|  0.33599
USER: genes 7 Torsion [C]-N--CA-[CB] |==|  0.46795
USER: genes 8 Torsion [N]-CA--C-[N] |==|  0.21890
USER: genes 9 Torsion [C]-N--CA-[C] |==|  0.67216
USER: genes 10 Torsion [N]-CA--C-[O] |==|  0.18314
USER: genes 11 Torsion [N]-CA--CB-[CG] |==|  0.04020
USER: genes 12 Torsion [CA]-CB--CG-[OD1] |==|  0.77223
USER: genes 13 Torsion [N]-CA--CB-[CG] |==|  0.70557
USER: genes 14 Torsion [CA]-CB--CG-[OD1] |==|  0.79045
USER: genes 15 Torsion [C]-CA--CB-[CG] |==|  0.63739
USER: genes 16 Torsion [CA]-CB--CG-[CD2] |==|  0.20737
USER: genes 17 Torsion [C]-CA--N-[C] |==|  0.58870
USER: genes 18 Torsion [N]-C--CA-[N] |==|  0.88581
USER: genes 19 Torsion [C]-CA--CB-[OG] |==|  0.70858
USER: genes 20 Torsion [CA]-CB--OG-[HG] |==|  0.43395
USER: genes 21 Torsion [C]-CA--N-[C] |==|  0.81350
USER: genes 22 Torsion [N]-C--CA-[N] |==|  0.62527
USER: genes 23 Torsion [C]-CA--N-[C] |==|  0.70440
USER: genes 24 Torsion [N]-C--CA-[N] |==|  0.98651
USER: genes 25 Torsion [C]-CA--CB-[CG2] |==|  0.21679
USER: genes 26 Torsion [C]-CA--N-[H2] |==|  0.51612
USER: genes 27 Torsion [C]-CA--CB-[CG2] |==|  0.77332
ROOT
ATOM      1  CA  HIS P   4     -16.838   9.167  12.321  1.00 23.76 LIG 0.18  C 
ENDROOT
BRANCH 1 2
ATOM      2  C   HIS P   4     -17.948   9.974  11.632  1.00 25.01 LIG 0.24  C 
ATOM      3 O    HIS P   4     -17.676  10.817  10.767  1.00 23.35 LIG-0.27  OA
ATOM      4  N   PHE P   5     -19.191   9.777  12.066  1.00 23.15 LIG-0.35  N 
ATOM      5 H    PHE P   5     -19.385   9.258  12.725  1.00 23.15 LIG 0.16  HD
BRANCH 4 6
ATOM      6  CA  PHE P   5     -20.345  10.419  11.468  1.00 24.23 LIG 0.18  C 
BRANCH 6 7
ATOM      7  CB  PHE P   5     -20.211  11.962  11.649  1.00 25.15 LIG 0.07  C 
BRANCH 7 8
ATOM      8  CG  PHE P   5     -19.630  12.301  12.984  1.00 25.22 LIG-0.06  A 
ATOM      9  CD2 PHE P   5     -18.307  12.727  13.012  1.00 26.21 LIG 0.01  A 
ATOM     10  CE2 PHE P   5     -17.684  12.981  14.201  1.00 26.58 LIG 0.00  A 
ATOM     11  CZ  PHE P   5     -18.393  12.865  15.383  1.00 27.68 LIG 0.00  A 
ATOM     12  CE1 PHE P   5     -19.706  12.461  15.371  1.00 26.50 LIG 0.00  A 
ATOM     13  CD1 PHE P   5     -20.327  12.179  14.161  1.00 25.73 LIG 0.01  A 
ENDBRANCH 7 8
ENDBRANCH 6 7
BRANCH 6 14
ATOM     14  C   PHE P   5     -20.584  10.042  10.023  1.00 25.59 LIG 0.24  C 
ATOM     15 O    PHE P   5     -19.696  10.177   9.157  1.00 25.82 LIG-0.27  OA
ATOM     16  N   ASN P   6     -21.751   9.487   9.751  1.00 24.53 LIG-0.35  N 
ATOM     17 H    ASN P   6     -22.371   9.355  10.331  1.00 24.53 LIG 0.16  HD
BRANCH 16 18
ATOM     18  CA  ASN P   6     -22.077   9.047   8.401  1.00 25.84 LIG 0.18  C 
BRANCH 18 19
ATOM     19  C   ASN P   6     -22.177  10.176   7.402  1.00 25.26 LIG 0.24  C 
ATOM     20  N   ASP P   7     -21.029  10.687   6.913  1.00 26.59 LIG-0.34  N 
ATOM     21 H    ASP P   7     -20.241  10.435   7.149  1.00 26.59 LIG 0.16  HD
ATOM     22 O    ASN P   6     -23.286  10.618   7.093  1.00 25.72 LIG-0.27  OA
BRANCH 20 23
ATOM     23  CA  ASP P   7     -21.066  11.735   5.918  1.00 25.93 LIG 0.20  C 
BRANCH 23 24
ATOM     24  C   ASP P   7     -20.404  11.247   4.621  1.00 27.07 LIG 0.20  C 
ATOM     25 O    ASP P   7     -20.984  10.342   4.045  1.00 28.96 LIG-0.65  OA
ATOM     26 OXT  ASP P   7     -19.331  11.866   4.181  1.00 29.63 LIG-0.65  OA
ENDBRANCH 23 24
BRANCH 23 27
ATOM     27  CB  ASP P   7     -20.344  13.036   6.323  1.00 25.41 LIG 0.15  C 
BRANCH 27 28
ATOM     28  CG  ASP P   7     -19.443  12.869   7.520  1.00 25.37 LIG 0.17  C 
ATOM     29 OD1  ASP P   7     -19.848  12.894   8.704  1.00 26.66 LIG-0.65  OA
ATOM     30 OD2  ASP P   7     -18.210  12.658   7.258  1.00 23.76 LIG-0.65  OA
ENDBRANCH 27 28
ENDBRANCH 23 27
ENDBRANCH 20 23
ENDBRANCH 18 19
BRANCH 18 31
ATOM     31  CB  ASN P   6     -23.347   8.194   8.416  1.00 24.75 LIG 0.14  C 
BRANCH 31 32
ATOM     32  CG  ASN P   6     -23.039   6.725   8.219  1.00 27.24 LIG 0.22  C 
ATOM     33  ND2 ASN P   6     -23.089   6.075   9.380  1.00 23.85 LIG-0.37  N 
ATOM     34 21HD ASN P   6     -22.897   5.238   9.412  1.00 23.85 LIG 0.16  HD
ATOM     35 22HD ASN P   6     -23.314   6.493  10.097  1.00 23.85 LIG 0.16  HD
ATOM     36 OD1  ASN P   6     -22.734   6.284   7.073  1.00 24.90 LIG-0.27  OA
ENDBRANCH 31 32
ENDBRANCH 18 31
ENDBRANCH 16 18
ENDBRANCH 6 14
ENDBRANCH 4 6
ENDBRANCH 1 2
BRANCH 1 37
ATOM     37  CB  HIS P   4     -16.961   9.386  13.829  1.00 21.80 LIG 0.10  C 
BRANCH 37 38
ATOM     38  CG  HIS P   4     -15.669   9.759  14.489  1.00 23.01 LIG 0.06  A 
ATOM     39  CD2 HIS P   4     -14.946  10.878  14.520  1.00 23.26 LIG 0.14  A 
ATOM     40 NE2  HIS P   4     -13.963  10.698  15.460  1.00 21.45 LIG-0.25  NA
ATOM     41  CE1 HIS P   4     -14.088   9.499  16.024  1.00 22.12 LIG 0.23  A 
ATOM     42 ND1  HIS P   4     -15.109   8.921  15.476  1.00 22.83 LIG-0.24  NA
ENDBRANCH 37 38
ENDBRANCH 1 37
BRANCH 1 43
ATOM     43  N   HIS P   4     -15.541   9.620  11.747  1.00 22.02 LIG-0.35  N 
ATOM     44  C   SER P   3     -14.550   8.735  11.650  1.00 24.42 LIG 0.24  C 
ATOM     45 O    SER P   3     -14.691   7.570  12.057  1.00 24.72 LIG-0.27  OA
ATOM     46 H    HIS P   4     -15.503  10.445  11.505  1.00 22.02 LIG 0.16  HD
BRANCH 44 47
ATOM     47  CA  SER P   3     -13.202   9.208  11.129  1.00 22.14 LIG 0.20  C 
BRANCH 47 48
ATOM     48  CB  SER P   3     -12.352   9.886  12.224  1.00 23.32 LIG 0.20  C 
BRANCH 48 49
ATOM     49 OG   SER P   3     -12.362  11.316  12.019  1.00 23.11 LIG-0.40  OA
ATOM     50 HG   SER P   3     -12.198  11.704  12.745  1.00 23.11 LIG 0.21  HD
ENDBRANCH 48 49
ENDBRANCH 47 48
BRANCH 47 51
ATOM     51  N   SER P   3     -13.298  10.135  10.000  1.00 22.53 LIG-0.34  N 
ATOM     52 H    SER P   3     -13.037  10.937  10.168  1.00 22.53 LIG 0.16  HD
ATOM     53  C   VAL P   2     -13.758   9.729   8.821  1.00 22.76 LIG 0.24  C 
ATOM     54 O    VAL P   2     -14.275   8.599   8.668  1.00 25.85 LIG-0.27  OA
BRANCH 53 55
ATOM     55  CA  VAL P   2     -13.782  10.778   7.706  1.00 24.07 LIG 0.18  C 
BRANCH 55 56
ATOM     56  N   VAL P   2     -15.050  10.741   6.976  1.00 24.29 LIG-0.35  N 
ATOM     57 H    VAL P   2     -15.729  11.065   7.393  1.00 24.29 LIG 0.16  HD
ATOM     58  C   VAL P   1     -15.078  10.216   5.730  1.00 26.39 LIG 0.25  C 
ATOM     59 O    VAL P   1     -14.025   9.768   5.186  1.00 26.90 LIG-0.27  OA
BRANCH 58 60
ATOM     60  CA  VAL P   1     -16.401  10.222   4.979  1.00 27.40 LIG 0.28  C 
BRANCH 60 61
ATOM     61  CB  VAL P   1     -16.315  11.106   3.694  1.00 27.20 LIG 0.02  C 
ATOM     62  CG2 VAL P   1     -15.581  10.312   2.607  1.00 28.02 LIG 0.01  C 
ATOM     63  CG1 VAL P   1     -15.530  12.322   4.134  1.00 27.17 LIG 0.01  C 
ENDBRANCH 60 61
BRANCH 60 64
ATOM     64  N   VAL P   1     -17.482  10.706   5.779  1.00 29.12 LIG-0.07  N 
ATOM     65 H2   VAL P   1     -18.247  10.615   5.333  1.00 29.12 LIG 0.28  HD
ATOM     66 H1   VAL P   1     -17.350  11.567   5.968  1.00 29.12 LIG 0.28  HD
ATOM     67 H3   VAL P   1     -17.523  10.240   6.536  1.00 29.12 LIG 0.28  HD
ENDBRANCH 60 64
ENDBRANCH 58 60
ENDBRANCH 55 56
BRANCH 55 68
ATOM     68  CB  VAL P   2     -13.457  12.158   8.349  1.00 25.03 LIG 0.01  C 
ATOM     69  CG2 VAL P   2     -14.735  12.737   8.986  1.00 23.99 LIG 0.01  C 
ATOM     70  CG1 VAL P   2     -12.898  13.156   7.351  1.00 25.56 LIG 0.01  C 
ENDBRANCH 55 68
ENDBRANCH 53 55
ENDBRANCH 47 51
ENDBRANCH 44 47
ENDBRANCH 1 43
TORSDOF 26
ENDMDL
MODEL 55
USER: ADFR SOLUTION from run 52
USER: SCORE 19.993800 LL:  -6.452 LR: -13.968 RR:   0.000 FEB:  -6.212
USER: RMSD 8.897487
USER: SEED 51
USER: STATUS no improvement in best in 8 clusters for 5 generations
USER: GENES 28
USER: genes 0 Translation |==|  0.52256 0.32222 0.70285
USER: genes 1 Rotation |==|  0.48477 0.82458 0.17931 0.70390
USER: genes 2 Torsion [N]-CA--C-[N] |==|  0.89222
USER: genes 3 Torsion [C]-N--CA-[CB] |==|  0.16215
USER: genes 4 Torsion [N]-CA--CB-[CG] |==|  0.12551
USER: genes 5 Torsion [CA]-CB--CG-[CD2] |==|  0.69734
USER: genes 6 Torsion [N]-CA--C-[N] |==|  0.06673
USER: genes 7 Torsion [C]-N--CA-[CB] |==|  0.85145
USER: genes 8 Torsion [N]-CA--C-[N] |==|  0.89974
USER: genes 9 Torsion [C]-N--CA-[C] |==|  0.81422
USER: genes 10 Torsion [N]-CA--C-[O] |==|  0.00541
USER: genes 11 Torsion [N]-CA--CB-[CG] |==|  0.80339
USER: genes 12 Torsion [CA]-CB--CG-[OD1] |==|  0.45695
USER: genes 13 Torsion [N]-CA--CB-[CG] |==|  0.36668
USER: genes 14 Torsion [CA]-CB--CG-[OD1] |==|  0.22101
USER: genes 15 Torsion [C]-CA--CB-[CG] |==|  0.76471
USER: genes 16 Torsion [CA]-CB--CG-[CD2] |==|  0.13437
USER: genes 17 Torsion [C]-CA--N-[C] |==|  0.83810
USER: genes 18 Torsion [N]-C--CA-[N] |==|  0.42326
USER: genes 19 Torsion [C]-CA--CB-[OG] |==|  0.46495
USER: genes 20 Torsion [CA]-CB--OG-[HG] |==|  0.61341
USER: genes 21 Torsion [C]-CA--N-[C] |==|  0.75634
USER: genes 22 Torsion [N]-C--CA-[N] |==|  0.87810
USER: genes 23 Torsion [C]-CA--N-[C] |==|  0.84932
USER: genes 24 Torsion [N]-C--CA-[N] |==|  0.48705
USER: genes 25 Torsion [C]-CA--CB-[CG2] |==|  0.21300
USER: genes 26 Torsion [C]-CA--N-[H2] |==|  0.74842
USER: genes 27 Torsion [C]-CA--CB-[CG2] |==|  0.34975
ROOT
ATOM      1  CA  HIS P   4     -17.160   9.423  13.792  1.00 23.76 LIG 0.18  C 
ENDROOT
BRANCH 1 2
ATOM      2  C   HIS P   4     -16.805  10.915  13.715  1.00 25.01 LIG 0.24  C 
ATOM      3 O    HIS P   4     -16.749  11.608  14.740  1.00 23.35 LIG-0.27  OA
ATOM      4  N   PHE P   5     -16.641  11.431  12.499  1.00 23.15 LIG-0.35  N 
ATOM      5 H    PHE P   5     -16.762  10.981  11.775  1.00 23.15 LIG 0.16  HD
BRANCH 4 6
ATOM      6  CA  PHE P   5     -16.242  12.807  12.274  1.00 24.23 LIG 0.18  C 
BRANCH 6 7
ATOM      7  CB  PHE P   5     -14.872  13.053  12.976  1.00 25.15 LIG 0.07  C 
BRANCH 7 8
ATOM      8  CG  PHE P   5     -13.917  11.935  12.705  1.00 25.22 LIG-0.06  A 
ATOM      9  CD2 PHE P   5     -13.619  11.083  13.763  1.00 26.21 LIG 0.01  A 
ATOM     10  CE2 PHE P   5     -12.698  10.085  13.613  1.00 26.58 LIG 0.00  A 
ATOM     11  CZ  PHE P   5     -12.097   9.888  12.383  1.00 27.68 LIG 0.00  A 
ATOM     12  CE1 PHE P   5     -12.392  10.711  11.324  1.00 26.50 LIG 0.00  A 
ATOM     13  CD1 PHE P   5     -13.311  11.739  11.488  1.00 25.73 LIG 0.01  A 
ENDBRANCH 7 8
ENDBRANCH 6 7
BRANCH 6 14
ATOM     14  C   PHE P   5     -16.207  13.212  10.817  1.00 25.59 LIG 0.24  C 
ATOM     15 O    PHE P   5     -15.439  14.105  10.405  1.00 25.82 LIG-0.27  OA
ATOM     16  N   ASN P   6     -16.970  12.511   9.999  1.00 24.53 LIG-0.35  N 
ATOM     17 H    ASN P   6     -17.487  11.871  10.249  1.00 24.53 LIG 0.16  HD
BRANCH 16 18
ATOM     18  CA  ASN P   6     -16.988  12.785   8.569  1.00 25.84 LIG 0.18  C 
BRANCH 18 19
ATOM     19  C   ASN P   6     -15.738  12.337   7.849  1.00 25.26 LIG 0.24  C 
ATOM     20  N   ASP P   7     -14.562  12.455   8.497  1.00 26.59 LIG-0.34  N 
ATOM     21 H    ASP P   7     -14.467  12.793   9.283  1.00 26.59 LIG 0.16  HD
ATOM     22 O    ASN P   6     -15.820  11.916   6.693  1.00 25.72 LIG-0.27  OA
BRANCH 20 23
ATOM     23  CA  ASP P   7     -13.340  11.998   7.874  1.00 25.93 LIG 0.20  C 
BRANCH 23 24
ATOM     24  C   ASP P   7     -13.369  10.469   7.730  1.00 27.07 LIG 0.20  C 
ATOM     25 O    ASP P   7     -14.390   9.926   8.114  1.00 28.96 LIG-0.65  OA
ATOM     26 OXT  ASP P   7     -12.357   9.865   7.147  1.00 29.63 LIG-0.65  OA
ENDBRANCH 23 24
BRANCH 23 27
ATOM     27  CB  ASP P   7     -12.052  12.348   8.645  1.00 25.41 LIG 0.15  C 
BRANCH 27 28
ATOM     28  CG  ASP P   7     -11.715  13.816   8.609  1.00 25.37 LIG 0.17  C 
ATOM     29 OD1  ASP P   7     -10.893  14.360   9.380  1.00 26.66 LIG-0.65  OA
ATOM     30 OD2  ASP P   7     -12.301  14.495   7.699  1.00 23.76 LIG-0.65  OA
ENDBRANCH 27 28
ENDBRANCH 23 27
ENDBRANCH 20 23
ENDBRANCH 18 19
BRANCH 18 31
ATOM     31  CB  ASN P   6     -17.284  14.265   8.317  1.00 24.75 LIG 0.14  C 
BRANCH 31 32
ATOM     32  CG  ASN P   6     -16.315  14.869   7.324  1.00 27.24 LIG 0.22  C 
ATOM     33  ND2 ASN P   6     -15.400  15.607   7.951  1.00 23.85 LIG-0.37  N 
ATOM     34 21HD ASN P   6     -14.809  16.037   7.497  1.00 23.85 LIG 0.16  HD
ATOM     35 22HD ASN P   6     -15.400  15.653   8.810  1.00 23.85 LIG 0.16  HD
ATOM     36 OD1  ASN P   6     -16.471  14.682   6.083  1.00 24.90 LIG-0.27  OA
ENDBRANCH 31 32
ENDBRANCH 18 31
ENDBRANCH 16 18
ENDBRANCH 6 14
ENDBRANCH 4 6
ENDBRANCH 1 2
BRANCH 1 37
ATOM     37  CB  HIS P   4     -15.860   8.624  13.725  1.00 21.80 LIG 0.10  C 
BRANCH 37 38
ATOM     38  CG  HIS P   4     -15.381   8.371  12.328  1.00 23.01 LIG 0.06  A 
ATOM     39  CD2 HIS P   4     -15.216   9.152  11.261  1.00 23.26 LIG 0.14  A 
ATOM     40 NE2  HIS P   4     -14.547   8.412  10.319  1.00 21.45 LIG-0.25  NA
ATOM     41  CE1 HIS P   4     -14.276   7.202  10.800  1.00 22.12 LIG 0.23  A 
ATOM     42 ND1  HIS P   4     -14.747   7.152  12.005  1.00 22.83 LIG-0.24  NA
ENDBRANCH 37 38
ENDBRANCH 1 37
BRANCH 1 43
ATOM     43  N   HIS P   4     -18.106   9.137  12.678  1.00 22.02 LIG-0.35  N 
ATOM     44  C   SER P   3     -19.249   9.820  12.628  1.00 24.42 LIG 0.24  C 
ATOM     45 O    SER P   3     -19.536  10.652  13.504  1.00 24.72 LIG-0.27  OA
ATOM     46 H    HIS P   4     -17.857   8.533  12.117  1.00 22.02 LIG 0.16  HD
BRANCH 44 47
ATOM     47  CA  SER P   3     -20.248   9.483  11.533  1.00 22.14 LIG 0.20  C 
BRANCH 47 48
ATOM     48  CB  SER P   3     -19.945  10.219  10.211  1.00 23.32 LIG 0.20  C 
BRANCH 48 49
ATOM     49 OG   SER P   3     -20.733   9.639   9.149  1.00 23.11 LIG-0.40  OA
ATOM     50 HG   SER P   3     -20.265   9.578   8.454  1.00 23.11 LIG 0.21  HD
ENDBRANCH 48 49
ENDBRANCH 47 48
BRANCH 47 51
ATOM     51  N   SER P   3     -21.639   9.768  11.893  1.00 22.53 LIG-0.34  N 
ATOM     52 H    SER P   3     -21.917  10.549  11.666  1.00 22.53 LIG 0.16  HD
ATOM     53  C   VAL P   2     -22.380   8.862  12.523  1.00 22.76 LIG 0.24  C 
ATOM     54 O    VAL P   2     -21.886   7.805  12.976  1.00 25.85 LIG-0.27  OA
BRANCH 53 55
ATOM     55  CA  VAL P   2     -23.828   9.260  12.820  1.00 24.07 LIG 0.18  C 
BRANCH 55 56
ATOM     56  N   VAL P   2     -23.903  10.631  13.329  1.00 24.29 LIG-0.35  N 
ATOM     57 H    VAL P   2     -24.434  11.157  12.904  1.00 24.29 LIG 0.16  HD
ATOM     58  C   VAL P   1     -23.157  10.976  14.403  1.00 26.39 LIG 0.25  C 
ATOM     59 O    VAL P   1     -22.409  10.131  14.977  1.00 26.90 LIG-0.27  OA
BRANCH 58 60
ATOM     60  CA  VAL P   1     -23.281  12.396  14.934  1.00 27.40 LIG 0.28  C 
BRANCH 60 61
ATOM     61  CB  VAL P   1     -22.803  13.438  13.873  1.00 27.20 LIG 0.02  C 
ATOM     62  CG2 VAL P   1     -23.900  13.591  12.814  1.00 28.02 LIG 0.01  C 
ATOM     63  CG1 VAL P   1     -21.543  12.827  13.299  1.00 27.17 LIG 0.01  C 
ENDBRANCH 60 61
BRANCH 60 64
ATOM     64  N   VAL P   1     -22.526  12.601  16.130  1.00 29.12 LIG-0.07  N 
ATOM     65 H2   VAL P   1     -23.035  12.423  16.838  1.00 29.12 LIG 0.28  HD
ATOM     66 H1   VAL P   1     -22.254  13.448  16.168  1.00 29.12 LIG 0.28  HD
ATOM     67 H3   VAL P   1     -21.818  12.061  16.130  1.00 29.12 LIG 0.28  HD
ENDBRANCH 60 64
ENDBRANCH 58 60
ENDBRANCH 55 56
BRANCH 55 68
ATOM     68  CB  VAL P   2     -24.660   9.015  11.526  1.00 25.03 LIG 0.01  C 
ATOM     69  CG2 VAL P   2     -25.863   8.111  11.858  1.00 23.99 LIG 0.01  C 
ATOM     70  CG1 VAL P   2     -23.847   8.379  10.414  1.00 25.56 LIG 0.01  C 
ENDBRANCH 55 68
ENDBRANCH 53 55
ENDBRANCH 47 51
ENDBRANCH 44 47
ENDBRANCH 1 43
TORSDOF 26
ENDMDL
MODEL 56
USER: ADFR SOLUTION from run 135
USER: SCORE 18.867554 LL:  -5.937 LR: -13.964 RR:   0.000 FEB:  -6.208
USER: RMSD 9.660481
USER: SEED 134
USER: STATUS no improvement in best in 7 clusters for 5 generations
USER: GENES 28
USER: genes 0 Translation |==|  0.60302 0.44180 0.44469
USER: genes 1 Rotation |==|  0.44911 0.01346 0.49662 0.60334
USER: genes 2 Torsion [N]-CA--C-[N] |==|  0.06308
USER: genes 3 Torsion [C]-N--CA-[CB] |==|  0.77222
USER: genes 4 Torsion [N]-CA--CB-[CG] |==|  0.97327
USER: genes 5 Torsion [CA]-CB--CG-[CD2] |==|  0.75913
USER: genes 6 Torsion [N]-CA--C-[N] |==|  0.05917
USER: genes 7 Torsion [C]-N--CA-[CB] |==|  0.85510
USER: genes 8 Torsion [N]-CA--C-[N] |==|  0.36367
USER: genes 9 Torsion [C]-N--CA-[C] |==|  0.73443
USER: genes 10 Torsion [N]-CA--C-[O] |==|  0.02207
USER: genes 11 Torsion [N]-CA--CB-[CG] |==|  0.86754
USER: genes 12 Torsion [CA]-CB--CG-[OD1] |==|  0.22793
USER: genes 13 Torsion [N]-CA--CB-[CG] |==|  0.35864
USER: genes 14 Torsion [CA]-CB--CG-[OD1] |==|  0.28031
USER: genes 15 Torsion [C]-CA--CB-[CG] |==|  0.26035
USER: genes 16 Torsion [CA]-CB--CG-[CD2] |==|  0.29286
USER: genes 17 Torsion [C]-CA--N-[C] |==|  0.18580
USER: genes 18 Torsion [N]-C--CA-[N] |==|  0.07489
USER: genes 19 Torsion [C]-CA--CB-[OG] |==|  0.51879
USER: genes 20 Torsion [CA]-CB--OG-[HG] |==|  0.31236
USER: genes 21 Torsion [C]-CA--N-[C] |==|  0.17634
USER: genes 22 Torsion [N]-C--CA-[N] |==|  0.47870
USER: genes 23 Torsion [C]-CA--N-[C] |==|  0.69013
USER: genes 24 Torsion [N]-C--CA-[N] |==|  0.87903
USER: genes 25 Torsion [C]-CA--CB-[CG2] |==|  0.08606
USER: genes 26 Torsion [C]-CA--N-[H2] |==|  0.48579
USER: genes 27 Torsion [C]-CA--CB-[CG2] |==|  0.56968
ROOT
ATOM      1  CA  HIS P   4     -15.410  11.486   8.177  1.00 23.76 LIG 0.18  C 
ENDROOT
BRANCH 1 2
ATOM      2  C   HIS P   4     -13.975  11.716   8.672  1.00 25.01 LIG 0.24  C 
ATOM      3 O    HIS P   4     -13.011  11.578   7.908  1.00 23.35 LIG-0.27  OA
ATOM      4  N   PHE P   5     -13.824  11.990   9.966  1.00 23.15 LIG-0.35  N 
ATOM      5 H    PHE P   5     -14.478  12.004  10.526  1.00 23.15 LIG 0.16  HD
BRANCH 4 6
ATOM      6  CA  PHE P   5     -12.537  12.293  10.562  1.00 24.23 LIG 0.18  C 
BRANCH 6 7
ATOM      7  CB  PHE P   5     -11.795  10.955  10.861  1.00 25.15 LIG 0.07  C 
BRANCH 7 8
ATOM      8  CG  PHE P   5     -12.700   9.781  10.671  1.00 25.22 LIG-0.06  A 
ATOM      9  CD2 PHE P   5     -13.483   9.399  11.755  1.00 26.21 LIG 0.01  A 
ATOM     10  CE2 PHE P   5     -14.277   8.290  11.682  1.00 26.58 LIG 0.00  A 
ATOM     11  CZ  PHE P   5     -14.344   7.572  10.502  1.00 27.68 LIG 0.00  A 
ATOM     12  CE1 PHE P   5     -13.589   7.945   9.417  1.00 26.50 LIG 0.00  A 
ATOM     13  CD1 PHE P   5     -12.764   9.059   9.503  1.00 25.73 LIG 0.01  A 
ENDBRANCH 7 8
ENDBRANCH 6 7
BRANCH 6 14
ATOM     14  C   PHE P   5     -11.684  13.237   9.745  1.00 25.59 LIG 0.24  C 
ATOM     15 O    PHE P   5     -10.439  13.240   9.838  1.00 25.82 LIG-0.27  OA
ATOM     16  N   ASN P   6     -12.323  13.993   8.872  1.00 24.53 LIG-0.35  N 
ATOM     17 H    ASN P   6     -13.176  13.992   8.764  1.00 24.53 LIG 0.16  HD
BRANCH 16 18
ATOM     18  CA  ASN P   6     -11.601  14.912   8.002  1.00 25.84 LIG 0.18  C 
BRANCH 18 19
ATOM     19  C   ASN P   6     -10.854  14.227   6.882  1.00 25.26 LIG 0.24  C 
ATOM     20  N   ASP P   7     -11.016  14.707   5.632  1.00 26.59 LIG-0.34  N 
ATOM     21 H    ASP P   7     -11.536  15.358   5.421  1.00 26.59 LIG 0.16  HD
ATOM     22 O    ASN P   6     -10.156  13.242   7.130  1.00 25.72 LIG-0.27  OA
BRANCH 20 23
ATOM     23  CA  ASP P   7     -10.289  14.120   4.529  1.00 25.93 LIG 0.20  C 
BRANCH 23 24
ATOM     24  C   ASP P   7      -9.011  14.929   4.259  1.00 27.07 LIG 0.20  C 
ATOM     25 O    ASP P   7      -8.754  15.794   5.080  1.00 28.96 LIG-0.65  OA
ATOM     26 OXT  ASP P   7      -8.251  14.599   3.238  1.00 29.63 LIG-0.65  OA
ENDBRANCH 23 24
BRANCH 23 27
ATOM     27  CB  ASP P   7     -11.067  14.063   3.200  1.00 25.41 LIG 0.15  C 
BRANCH 27 28
ATOM     28  CG  ASP P   7     -12.464  13.517   3.350  1.00 25.37 LIG 0.17  C 
ATOM     29 OD1  ASP P   7     -13.441  14.202   3.726  1.00 26.66 LIG-0.65  OA
ATOM     30 OD2  ASP P   7     -12.615  12.290   3.028  1.00 23.76 LIG-0.65  OA
ENDBRANCH 27 28
ENDBRANCH 23 27
ENDBRANCH 20 23
ENDBRANCH 18 19
BRANCH 18 31
ATOM     31  CB  ASN P   6     -10.678  15.809   8.830  1.00 24.75 LIG 0.14  C 
BRANCH 31 32
ATOM     32  CG  ASN P   6      -9.265  15.812   8.287  1.00 27.24 LIG 0.22  C 
ATOM     33  ND2 ASN P   6      -8.597  14.741   8.712  1.00 23.85 LIG-0.37  N 
ATOM     34 21HD ASN P   6      -7.769  14.641   8.504  1.00 23.85 LIG 0.16  HD
ATOM     35 22HD ASN P   6      -8.994  14.149   9.193  1.00 23.85 LIG 0.16  HD
ATOM     36 OD1  ASN P   6      -8.855  16.775   7.578  1.00 24.90 LIG-0.27  OA
ENDBRANCH 31 32
ENDBRANCH 18 31
ENDBRANCH 16 18
ENDBRANCH 6 14
ENDBRANCH 4 6
ENDBRANCH 1 2
BRANCH 1 37
ATOM     37  CB  HIS P   4     -15.510  12.022   6.749  1.00 21.80 LIG 0.10  C 
BRANCH 37 38
ATOM     38  CG  HIS P   4     -15.270  10.981   5.698  1.00 23.01 LIG 0.06  A 
ATOM     39  CD2 HIS P   4     -16.072  10.323   4.862  1.00 23.26 LIG 0.14  A 
ATOM     40 NE2  HIS P   4     -15.267   9.645   3.981  1.00 21.45 LIG-0.25  NA
ATOM     41  CE1 HIS P   4     -13.989   9.897   4.248  1.00 22.12 LIG 0.23  A 
ATOM     42 ND1  HIS P   4     -13.958  10.705   5.259  1.00 22.83 LIG-0.24  NA
ENDBRANCH 37 38
ENDBRANCH 1 37
BRANCH 1 43
ATOM     43  N   HIS P   4     -16.323  12.159   9.142  1.00 22.02 LIG-0.35  N 
ATOM     44  C   SER P   3     -16.293  13.490   9.218  1.00 24.42 LIG 0.24  C 
ATOM     45 O    SER P   3     -15.501  14.151   8.526  1.00 24.72 LIG-0.27  OA
ATOM     46 H    HIS P   4     -16.830  11.642   9.606  1.00 22.02 LIG 0.16  HD
BRANCH 44 47
ATOM     47  CA  SER P   3     -17.172  14.178  10.249  1.00 22.14 LIG 0.20  C 
BRANCH 47 48
ATOM     48  CB  SER P   3     -16.562  15.502  10.754  1.00 23.32 LIG 0.20  C 
BRANCH 48 49
ATOM     49 OG   SER P   3     -17.367  16.016  11.838  1.00 23.11 LIG-0.40  OA
ATOM     50 HG   SER P   3     -16.928  15.982  12.553  1.00 23.11 LIG 0.21  HD
ENDBRANCH 48 49
ENDBRANCH 47 48
BRANCH 47 51
ATOM     51  N   SER P   3     -17.471  13.350  11.418  1.00 22.53 LIG-0.34  N 
ATOM     52 H    SER P   3     -18.303  13.158  11.521  1.00 22.53 LIG 0.16  HD
ATOM     53  C   VAL P   2     -16.503  12.945  12.234  1.00 22.76 LIG 0.24  C 
ATOM     54 O    VAL P   2     -15.333  13.381  12.137  1.00 25.85 LIG-0.27  OA
BRANCH 53 55
ATOM     55  CA  VAL P   2     -16.931  12.057  13.405  1.00 24.07 LIG 0.18  C 
BRANCH 55 56
ATOM     56  N   VAL P   2     -15.766  11.531  14.120  1.00 24.29 LIG-0.35  N 
ATOM     57 H    VAL P   2     -15.304  12.111  14.556  1.00 24.29 LIG 0.16  HD
ATOM     58  C   VAL P   1     -15.495  10.208  14.054  1.00 26.39 LIG 0.25  C 
ATOM     59 O    VAL P   1     -16.236   9.421  13.395  1.00 26.90 LIG-0.27  OA
BRANCH 58 60
ATOM     60  CA  VAL P   1     -14.299   9.683  14.835  1.00 27.40 LIG 0.28  C 
BRANCH 60 61
ATOM     61  CB  VAL P   1     -14.637   9.543  16.354  1.00 27.20 LIG 0.02  C 
ATOM     62  CG2 VAL P   1     -16.128   9.217  16.492  1.00 28.02 LIG 0.01  C 
ATOM     63  CG1 VAL P   1     -14.299  10.900  16.933  1.00 27.17 LIG 0.01  C 
ENDBRANCH 60 61
BRANCH 60 64
ATOM     64  N   VAL P   1     -13.151  10.524  14.711  1.00 29.12 LIG-0.07  N 
ATOM     65 H2   VAL P   1     -12.502  10.222  15.240  1.00 29.12 LIG 0.28  HD
ATOM     66 H1   VAL P   1     -13.364  11.355  14.950  1.00 29.12 LIG 0.28  HD
ATOM     67 H3   VAL P   1     -12.870  10.520  13.866  1.00 29.12 LIG 0.28  HD
ENDBRANCH 60 64
ENDBRANCH 58 60
ENDBRANCH 55 56
BRANCH 55 68
ATOM     68  CB  VAL P   2     -17.904  12.884  14.295  1.00 25.03 LIG 0.01  C 
ATOM     69  CG2 VAL P   2     -17.869  12.336  15.735  1.00 23.99 LIG 0.01  C 
ATOM     70  CG1 VAL P   2     -19.333  12.861  13.784  1.00 25.56 LIG 0.01  C 
ENDBRANCH 55 68
ENDBRANCH 53 55
ENDBRANCH 47 51
ENDBRANCH 44 47
ENDBRANCH 1 43
TORSDOF 26
ENDMDL
MODEL 57
USER: ADFR SOLUTION from run 99
USER: SCORE 18.770981 LL:  -6.198 LR: -13.925 RR:   0.000 FEB:  -6.169
USER: RMSD 7.870912
USER: SEED 98
USER: STATUS no improvement in best in 9 clusters for 5 generations
USER: GENES 28
USER: genes 0 Translation |==|  0.55118 0.51692 0.68790
USER: genes 1 Rotation |==|  0.37337 0.44460 0.96103 0.63545
USER: genes 2 Torsion [N]-CA--C-[N] |==|  0.43625
USER: genes 3 Torsion [C]-N--CA-[CB] |==|  0.76803
USER: genes 4 Torsion [N]-CA--CB-[CG] |==|  0.93421
USER: genes 5 Torsion [CA]-CB--CG-[CD2] |==|  0.32085
USER: genes 6 Torsion [N]-CA--C-[N] |==|  0.22317
USER: genes 7 Torsion [C]-N--CA-[CB] |==|  0.19026
USER: genes 8 Torsion [N]-CA--C-[N] |==|  0.63748
USER: genes 9 Torsion [C]-N--CA-[C] |==|  0.68242
USER: genes 10 Torsion [N]-CA--C-[O] |==|  0.87221
USER: genes 11 Torsion [N]-CA--CB-[CG] |==|  0.86834
USER: genes 12 Torsion [CA]-CB--CG-[OD1] |==|  0.08824
USER: genes 13 Torsion [N]-CA--CB-[CG] |==|  0.64666
USER: genes 14 Torsion [CA]-CB--CG-[OD1] |==|  0.33087
USER: genes 15 Torsion [C]-CA--CB-[CG] |==|  0.62697
USER: genes 16 Torsion [CA]-CB--CG-[CD2] |==|  0.71400
USER: genes 17 Torsion [C]-CA--N-[C] |==|  0.64952
USER: genes 18 Torsion [N]-C--CA-[N] |==|  0.03714
USER: genes 19 Torsion [C]-CA--CB-[OG] |==|  0.77491
USER: genes 20 Torsion [CA]-CB--OG-[HG] |==|  0.66249
USER: genes 21 Torsion [C]-CA--N-[C] |==|  0.76894
USER: genes 22 Torsion [N]-C--CA-[N] |==|  0.43438
USER: genes 23 Torsion [C]-CA--N-[C] |==|  0.81666
USER: genes 24 Torsion [N]-C--CA-[N] |==|  0.87283
USER: genes 25 Torsion [C]-CA--CB-[CG2] |==|  0.43144
USER: genes 26 Torsion [C]-CA--N-[H2] |==|  0.71832
USER: genes 27 Torsion [C]-CA--CB-[CG2] |==|  0.87090
ROOT
ATOM      1  CA  HIS P   4     -16.538  12.782  13.467  1.00 23.76 LIG 0.18  C 
ENDROOT
BRANCH 1 2
ATOM      2  C   HIS P   4     -15.472  11.860  12.859  1.00 25.01 LIG 0.24  C 
ATOM      3 O    HIS P   4     -15.713  11.191  11.845  1.00 23.35 LIG-0.27  OA
ATOM      4  N   PHE P   5     -14.318  11.761  13.518  1.00 23.15 LIG-0.35  N 
ATOM      5 H    PHE P   5     -14.168  12.152  14.269  1.00 23.15 LIG 0.16  HD
BRANCH 4 6
ATOM      6  CA  PHE P   5     -13.198  10.979  13.030  1.00 24.23 LIG 0.18  C 
BRANCH 6 7
ATOM      7  CB  PHE P   5     -13.408   9.490  13.442  1.00 25.15 LIG 0.07  C 
BRANCH 7 8
ATOM      8  CG  PHE P   5     -14.307   9.380  14.631  1.00 25.22 LIG-0.06  A 
ATOM      9  CD2 PHE P   5     -15.528   8.741  14.448  1.00 26.21 LIG 0.01  A 
ATOM     10  CE2 PHE P   5     -16.434   8.668  15.467  1.00 26.58 LIG 0.00  A 
ATOM     11  CZ  PHE P   5     -16.111   9.189  16.708  1.00 27.68 LIG 0.00  A 
ATOM     12  CE1 PHE P   5     -14.903   9.809  16.909  1.00 26.50 LIG 0.00  A 
ATOM     13  CD1 PHE P   5     -13.995   9.902  15.863  1.00 25.73 LIG 0.01  A 
ENDBRANCH 7 8
ENDBRANCH 6 7
BRANCH 6 14
ATOM     14  C   PHE P   5     -12.943  11.121  11.546  1.00 25.59 LIG 0.24  C 
ATOM     15 O    PHE P   5     -13.404  10.304  10.723  1.00 25.82 LIG-0.27  OA
ATOM     16  N   ASN P   6     -12.281  12.199  11.169  1.00 24.53 LIG-0.35  N 
ATOM     17 H    ASN P   6     -11.977  12.794  11.710  1.00 24.53 LIG 0.16  HD
BRANCH 16 18
ATOM     18  CA  ASN P   6     -12.011  12.461   9.762  1.00 25.84 LIG 0.18  C 
BRANCH 18 19
ATOM     19  C   ASN P   6     -10.963  13.525   9.533  1.00 25.26 LIG 0.24  C 
ATOM     20  N   ASP P   7     -11.251  14.517   8.667  1.00 26.59 LIG-0.34  N 
ATOM     21 H    ASP P   7     -11.980  14.575   8.214  1.00 26.59 LIG 0.16  HD
ATOM     22 O    ASN P   6      -9.874  13.438  10.106  1.00 25.72 LIG-0.27  OA
BRANCH 20 23
ATOM     23  CA  ASP P   7     -10.304  15.586   8.446  1.00 25.93 LIG 0.20  C 
BRANCH 23 24
ATOM     24  C   ASP P   7     -10.889  16.914   8.953  1.00 27.07 LIG 0.20  C 
ATOM     25 O    ASP P   7     -12.042  17.137   8.628  1.00 28.96 LIG-0.65  OA
ATOM     26 OXT  ASP P   7     -10.162  17.668   9.748  1.00 29.63 LIG-0.65  OA
ENDBRANCH 23 24
BRANCH 23 27
ATOM     27  CB  ASP P   7      -9.912  15.808   6.972  1.00 25.41 LIG 0.15  C 
BRANCH 27 28
ATOM     28  CG  ASP P   7      -9.557  14.532   6.251  1.00 25.37 LIG 0.17  C 
ATOM     29 OD1  ASP P   7     -10.073  13.422   6.509  1.00 26.66 LIG-0.65  OA
ATOM     30 OD2  ASP P   7      -8.704  14.650   5.308  1.00 23.76 LIG-0.65  OA
ENDBRANCH 27 28
ENDBRANCH 23 27
ENDBRANCH 20 23
ENDBRANCH 18 19
BRANCH 18 31
ATOM     31  CB  ASN P   6     -13.313  12.786   9.025  1.00 24.75 LIG 0.14  C 
BRANCH 31 32
ATOM     32  CG  ASN P   6     -13.496  11.915   7.801  1.00 27.24 LIG 0.22  C 
ATOM     33  ND2 ASN P   6     -12.531  12.145   6.913  1.00 23.85 LIG-0.37  N 
ATOM     34 21HD ASN P   6     -12.539  11.740   6.154  1.00 23.85 LIG 0.16  HD
ATOM     35 22HD ASN P   6     -11.899  12.699   7.098  1.00 23.85 LIG 0.16  HD
ATOM     36 OD1  ASN P   6     -14.494  11.144   7.709  1.00 24.90 LIG-0.27  OA
ENDBRANCH 31 32
ENDBRANCH 18 31
ENDBRANCH 16 18
ENDBRANCH 6 14
ENDBRANCH 4 6
ENDBRANCH 1 2
BRANCH 1 37
ATOM     37  CB  HIS P   4     -17.227  12.024  14.601  1.00 21.80 LIG 0.10  C 
BRANCH 37 38
ATOM     38  CG  HIS P   4     -18.721  12.138  14.579  1.00 23.01 LIG 0.06  A 
ATOM     39  CD2 HIS P   4     -19.596  12.852  15.287  1.00 23.26 LIG 0.14  A 
ATOM     40 NE2  HIS P   4     -20.818  12.708  14.683  1.00 21.45 LIG-0.25  NA
ATOM     41  CE1 HIS P   4     -20.703  11.941  13.602  1.00 22.12 LIG 0.23  A 
ATOM     42 ND1  HIS P   4     -19.458  11.598  13.504  1.00 22.83 LIG-0.24  NA
ENDBRANCH 37 38
ENDBRANCH 1 37
BRANCH 1 43
ATOM     43  N   HIS P   4     -17.453  13.186  12.364  1.00 22.02 LIG-0.35  N 
ATOM     44  C   SER P   3     -17.665  14.486  12.163  1.00 24.42 LIG 0.24  C 
ATOM     45 O    SER P   3     -17.139  15.340  12.895  1.00 24.72 LIG-0.27  OA
ATOM     46 H    HIS P   4     -17.802  12.545  11.909  1.00 22.02 LIG 0.16  HD
BRANCH 44 47
ATOM     47  CA  SER P   3     -18.652  14.902  11.084  1.00 22.14 LIG 0.20  C 
BRANCH 47 48
ATOM     48  CB  SER P   3     -19.588  16.037  11.547  1.00 23.32 LIG 0.20  C 
BRANCH 48 49
ATOM     49 OG   SER P   3     -20.663  15.479  12.334  1.00 23.11 LIG-0.40  OA
ATOM     50 HG   SER P   3     -21.399  15.672  11.980  1.00 23.11 LIG 0.21  HD
ENDBRANCH 48 49
ENDBRANCH 47 48
BRANCH 47 51
ATOM     51  N   SER P   3     -19.488  13.806  10.593  1.00 22.53 LIG-0.34  N 
ATOM     52 H    SER P   3     -20.265  13.753  10.959  1.00 22.53 LIG 0.16  HD
ATOM     53  C   VAL P   2     -19.045  12.976   9.654  1.00 22.76 LIG 0.24  C 
ATOM     54 O    VAL P   2     -17.854  12.991   9.270  1.00 25.85 LIG-0.27  OA
BRANCH 53 55
ATOM     55  CA  VAL P   2     -20.020  11.887   9.197  1.00 24.07 LIG 0.18  C 
BRANCH 55 56
ATOM     56  N   VAL P   2     -19.689  11.416   7.851  1.00 24.29 LIG-0.35  N 
ATOM     57 H    VAL P   2     -19.424  10.600   7.797  1.00 24.29 LIG 0.16  HD
ATOM     58  C   VAL P   1     -19.815  12.266   6.807  1.00 26.39 LIG 0.25  C 
ATOM     59 O    VAL P   1     -20.224  13.453   6.975  1.00 26.90 LIG-0.27  OA
BRANCH 58 60
ATOM     60  CA  VAL P   1     -19.499  11.741   5.414  1.00 27.40 LIG 0.28  C 
BRANCH 60 61
ATOM     61  CB  VAL P   1     -20.651  10.829   4.882  1.00 27.20 LIG 0.02  C 
ATOM     62  CG2 VAL P   1     -20.610  10.840   3.349  1.00 28.02 LIG 0.01  C 
ATOM     63  CG1 VAL P   1     -21.910  11.474   5.418  1.00 27.17 LIG 0.01  C 
ENDBRANCH 60 61
BRANCH 60 64
ATOM     64  N   VAL P   1     -18.284  10.990   5.374  1.00 29.12 LIG-0.07  N 
ATOM     65 H2   VAL P   1     -17.633  11.496   5.039  1.00 29.12 LIG 0.28  HD
ATOM     66 H1   VAL P   1     -18.395  10.272   4.860  1.00 29.12 LIG 0.28  HD
ATOM     67 H3   VAL P   1     -18.066  10.735   6.199  1.00 29.12 LIG 0.28  HD
ENDBRANCH 60 64
ENDBRANCH 58 60
ENDBRANCH 55 56
BRANCH 55 68
ATOM     68  CB  VAL P   2     -20.021  10.769  10.281  1.00 25.03 LIG 0.01  C 
ATOM     69  CG2 VAL P   2     -18.568  10.430  10.666  1.00 23.99 LIG 0.01  C 
ATOM     70  CG1 VAL P   2     -20.726   9.506   9.823  1.00 25.56 LIG 0.01  C 
ENDBRANCH 55 68
ENDBRANCH 53 55
ENDBRANCH 47 51
ENDBRANCH 44 47
ENDBRANCH 1 43
TORSDOF 26
ENDMDL
MODEL 58
USER: ADFR SOLUTION from run 142
USER: SCORE 19.761670 LL:  -7.259 LR: -13.931 RR:   0.000 FEB:  -6.176
USER: RMSD 4.614301
USER: SEED 141
USER: STATUS searching
USER: GENES 28
USER: genes 0 Translation |==|  0.51089 0.31184 0.62415
USER: genes 1 Rotation |==|  0.48312 0.47364 0.49405 0.99898
USER: genes 2 Torsion [N]-CA--C-[N] |==|  0.44757
USER: genes 3 Torsion [C]-N--CA-[CB] |==|  0.55556
USER: genes 4 Torsion [N]-CA--CB-[CG] |==|  0.10108
USER: genes 5 Torsion [CA]-CB--CG-[CD2] |==|  0.62400
USER: genes 6 Torsion [N]-CA--C-[N] |==|  0.30152
USER: genes 7 Torsion [C]-N--CA-[CB] |==|  0.17677
USER: genes 8 Torsion [N]-CA--C-[N] |==|  0.08980
USER: genes 9 Torsion [C]-N--CA-[C] |==|  0.82783
USER: genes 10 Torsion [N]-CA--C-[O] |==|  0.38819
USER: genes 11 Torsion [N]-CA--CB-[CG] |==|  0.81314
USER: genes 12 Torsion [CA]-CB--CG-[OD1] |==|  0.31740
USER: genes 13 Torsion [N]-CA--CB-[CG] |==|  0.64226
USER: genes 14 Torsion [CA]-CB--CG-[OD1] |==|  0.64713
USER: genes 15 Torsion [C]-CA--CB-[CG] |==|  0.55596
USER: genes 16 Torsion [CA]-CB--CG-[CD2] |==|  0.33520
USER: genes 17 Torsion [C]-CA--N-[C] |==|  0.62591
USER: genes 18 Torsion [N]-C--CA-[N] |==|  0.88931
USER: genes 19 Torsion [C]-CA--CB-[OG] |==|  0.70208
USER: genes 20 Torsion [CA]-CB--OG-[HG] |==|  0.56627
USER: genes 21 Torsion [C]-CA--N-[C] |==|  0.81372
USER: genes 22 Torsion [N]-C--CA-[N] |==|  0.63957
USER: genes 23 Torsion [C]-CA--N-[C] |==|  0.64552
USER: genes 24 Torsion [N]-C--CA-[N] |==|  0.88934
USER: genes 25 Torsion [C]-CA--CB-[CG2] |==|  0.35715
USER: genes 26 Torsion [C]-CA--N-[H2] |==|  0.54851
USER: genes 27 Torsion [C]-CA--CB-[CG2] |==|  0.76776
ROOT
ATOM      1  CA  HIS P   4     -17.414   9.244  12.080  1.00 23.76 LIG 0.18  C 
ENDROOT
BRANCH 1 2
ATOM      2  C   HIS P   4     -18.326   9.693  10.930  1.00 25.01 LIG 0.24  C 
ATOM      3 O    HIS P   4     -17.978  10.597  10.159  1.00 23.35 LIG-0.27  OA
ATOM      4  N   PHE P   5     -19.526   9.120  10.858  1.00 23.15 LIG-0.35  N 
ATOM      5 H    PHE P   5     -19.815   8.553  11.437  1.00 23.15 LIG 0.16  HD
BRANCH 4 6
ATOM      6  CA  PHE P   5     -20.468   9.397   9.790  1.00 24.23 LIG 0.18  C 
BRANCH 6 7
ATOM      7  CB  PHE P   5     -21.897   8.988  10.262  1.00 25.15 LIG 0.07  C 
BRANCH 7 8
ATOM      8  CG  PHE P   5     -22.090   9.281  11.715  1.00 25.22 LIG-0.06  A 
ATOM      9  CD2 PHE P   5     -22.700   8.297  12.486  1.00 26.21 LIG 0.01  A 
ATOM     10  CE2 PHE P   5     -22.980   8.521  13.804  1.00 26.58 LIG 0.00  A 
ATOM     11  CZ  PHE P   5     -22.605   9.717  14.389  1.00 27.68 LIG 0.00  A 
ATOM     12  CE1 PHE P   5     -21.988  10.693  13.646  1.00 26.50 LIG 0.00  A 
ATOM     13  CD1 PHE P   5     -21.727  10.470  12.300  1.00 25.73 LIG 0.01  A 
ENDBRANCH 7 8
ENDBRANCH 6 7
BRANCH 6 14
ATOM     14  C   PHE P   5     -20.430  10.822   9.285  1.00 25.59 LIG 0.24  C 
ATOM     15 O    PHE P   5     -20.794  11.778   9.999  1.00 25.82 LIG-0.27  OA
ATOM     16  N   ASN P   6     -19.912  11.001   8.084  1.00 24.53 LIG-0.35  N 
ATOM     17 H    ASN P   6     -19.626  10.366   7.581  1.00 24.53 LIG 0.16  HD
BRANCH 16 18
ATOM     18  CA  ASN P   6     -19.788  12.334   7.511  1.00 25.84 LIG 0.18  C 
BRANCH 18 19
ATOM     19  C   ASN P   6     -19.396  12.333   6.051  1.00 25.26 LIG 0.24  C 
ATOM     20  N   ASP P   7     -19.829  11.312   5.285  1.00 26.59 LIG-0.34  N 
ATOM     21 H    ASP P   7     -20.290  10.645   5.571  1.00 26.59 LIG 0.16  HD
ATOM     22 O    ASN P   6     -18.673  13.231   5.616  1.00 25.72 LIG-0.27  OA
BRANCH 20 23
ATOM     23  CA  ASP P   7     -19.524  11.285   3.872  1.00 25.93 LIG 0.20  C 
BRANCH 23 24
ATOM     24  C   ASP P   7     -20.156  12.502   3.179  1.00 27.07 LIG 0.20  C 
ATOM     25 O    ASP P   7     -19.467  13.036   2.327  1.00 28.96 LIG-0.65  OA
ATOM     26 OXT  ASP P   7     -21.392  12.835   3.479  1.00 29.63 LIG-0.65  OA
ENDBRANCH 23 24
BRANCH 23 27
ATOM     27  CB  ASP P   7     -20.032  10.036   3.125  1.00 25.41 LIG 0.15  C 
BRANCH 27 28
ATOM     28  CG  ASP P   7     -19.333   8.767   3.541  1.00 25.37 LIG 0.17  C 
ATOM     29 OD1  ASP P   7     -19.901   7.821   4.131  1.00 26.66 LIG-0.65  OA
ATOM     30 OD2  ASP P   7     -18.099   8.685   3.219  1.00 23.76 LIG-0.65  OA
ENDBRANCH 27 28
ENDBRANCH 23 27
ENDBRANCH 20 23
ENDBRANCH 18 19
BRANCH 18 31
ATOM     31  CB  ASN P   6     -18.831  13.184   8.350  1.00 24.75 LIG 0.14  C 
BRANCH 31 32
ATOM     32  CG  ASN P   6     -19.444  14.516   8.722  1.00 27.24 LIG 0.22  C 
ATOM     33  ND2 ASN P   6     -20.655  14.345   9.249  1.00 23.85 LIG-0.37  N 
ATOM     34 21HD ASN P   6     -21.128  15.028   9.471  1.00 23.85 LIG 0.16  HD
ATOM     35 22HD ASN P   6     -20.964  13.551   9.369  1.00 23.85 LIG 0.16  HD
ATOM     36 OD1  ASN P   6     -18.830  15.594   8.476  1.00 24.90 LIG-0.27  OA
ENDBRANCH 31 32
ENDBRANCH 18 31
ENDBRANCH 16 18
ENDBRANCH 6 14
ENDBRANCH 4 6
ENDBRANCH 1 2
BRANCH 1 37
ATOM     37  CB  HIS P   4     -17.924   9.891  13.368  1.00 21.80 LIG 0.10  C 
BRANCH 37 38
ATOM     38  CG  HIS P   4     -16.899   9.945  14.460  1.00 23.01 LIG 0.06  A 
ATOM     39  CD2 HIS P   4     -16.347  10.942  15.150  1.00 23.26 LIG 0.14  A 
ATOM     40 NE2  HIS P   4     -15.624  10.377  16.170  1.00 21.45 LIG-0.25  NA
ATOM     41  CE1 HIS P   4     -15.746   9.053  16.132  1.00 22.12 LIG 0.23  A 
ATOM     42 ND1  HIS P   4     -16.515   8.764  15.131  1.00 22.83 LIG-0.24  NA
ENDBRANCH 37 38
ENDBRANCH 1 37
BRANCH 1 43
ATOM     43  N   HIS P   4     -16.023   9.631  11.717  1.00 22.02 LIG-0.35  N 
ATOM     44  C   SER P   3     -15.050   8.738  11.899  1.00 24.42 LIG 0.24  C 
ATOM     45 O    SER P   3     -15.291   7.622  12.388  1.00 24.72 LIG-0.27  OA
ATOM     46 H    HIS P   4     -15.921  10.426  11.404  1.00 22.02 LIG 0.16  HD
BRANCH 44 47
ATOM     47  CA  SER P   3     -13.619   9.151  11.595  1.00 22.14 LIG 0.20  C 
BRANCH 47 48
ATOM     48  CB  SER P   3     -12.964   9.910  12.767  1.00 23.32 LIG 0.20  C 
BRANCH 48 49
ATOM     49 OG   SER P   3     -12.849  11.308  12.426  1.00 23.11 LIG-0.40  OA
ATOM     50 HG   SER P   3     -12.232  11.657  12.876  1.00 23.11 LIG 0.21  HD
ENDBRANCH 48 49
ENDBRANCH 47 48
BRANCH 47 51
ATOM     51  N   SER P   3     -13.486   9.980  10.396  1.00 22.53 LIG-0.34  N 
ATOM     52 H    SER P   3     -13.238  10.790  10.543  1.00 22.53 LIG 0.16  HD
ATOM     53  C   VAL P   2     -13.737   9.481   9.189  1.00 22.76 LIG 0.24  C 
ATOM     54 O    VAL P   2     -14.249   8.349   9.038  1.00 25.85 LIG-0.27  OA
BRANCH 53 55
ATOM     55  CA  VAL P   2     -13.532  10.432   8.007  1.00 24.07 LIG 0.18  C 
BRANCH 55 56
ATOM     56  N   VAL P   2     -14.703  10.439   7.129  1.00 24.29 LIG-0.35  N 
ATOM     57 H    VAL P   2     -15.457  10.586   7.515  1.00 24.29 LIG 0.16  HD
ATOM     58  C   VAL P   1     -14.534  10.221   5.805  1.00 26.39 LIG 0.25  C 
ATOM     59 O    VAL P   1     -13.382  10.023   5.317  1.00 26.90 LIG-0.27  OA
BRANCH 58 60
ATOM     60  CA  VAL P   1     -15.763  10.270   4.909  1.00 27.40 LIG 0.28  C 
BRANCH 60 61
ATOM     61  CB  VAL P   1     -16.134  11.742   4.541  1.00 27.20 LIG 0.02  C 
ATOM     62  CG2 VAL P   1     -16.283  11.840   3.019  1.00 28.02 LIG 0.01  C 
ATOM     63  CG1 VAL P   1     -14.962  12.555   5.048  1.00 27.17 LIG 0.01  C 
ENDBRANCH 60 61
BRANCH 60 64
ATOM     64  N   VAL P   1     -16.906   9.662   5.513  1.00 29.12 LIG-0.07  N 
ATOM     65 H2   VAL P   1     -17.513   9.483   4.888  1.00 29.12 LIG 0.28  HD
ATOM     66 H1   VAL P   1     -17.255  10.218   6.115  1.00 29.12 LIG 0.28  HD
ATOM     67 H3   VAL P   1     -16.662   8.906   5.915  1.00 29.12 LIG 0.28  HD
ENDBRANCH 60 64
ENDBRANCH 58 60
ENDBRANCH 55 56
BRANCH 55 68
ATOM     68  CB  VAL P   2     -13.160  11.830   8.584  1.00 25.03 LIG 0.01  C 
ATOM     69  CG2 VAL P   2     -14.449  12.583   8.966  1.00 23.99 LIG 0.01  C 
ATOM     70  CG1 VAL P   2     -12.356  12.674   7.613  1.00 25.56 LIG 0.01  C 
ENDBRANCH 55 68
ENDBRANCH 53 55
ENDBRANCH 47 51
ENDBRANCH 44 47
ENDBRANCH 1 43
TORSDOF 26
ENDMDL
MODEL 59
USER: ADFR SOLUTION from run 121
USER: SCORE 18.839420 LL:  -6.867 LR: -13.927 RR:   0.000 FEB:  -6.172
USER: RMSD 4.451730
USER: SEED 120
USER: STATUS no improvement in best in 3 clusters for 5 generations
USER: GENES 28
USER: genes 0 Translation |==|  0.55980 0.28954 0.61723
USER: genes 1 Rotation |==|  0.66837 0.58601 0.50990 0.96277
USER: genes 2 Torsion [N]-CA--C-[N] |==|  0.38207
USER: genes 3 Torsion [C]-N--CA-[CB] |==|  0.52787
USER: genes 4 Torsion [N]-CA--CB-[CG] |==|  0.34236
USER: genes 5 Torsion [CA]-CB--CG-[CD2] |==|  0.24499
USER: genes 6 Torsion [N]-CA--C-[N] |==|  0.37738
USER: genes 7 Torsion [C]-N--CA-[CB] |==|  0.22104
USER: genes 8 Torsion [N]-CA--C-[N] |==|  0.46579
USER: genes 9 Torsion [C]-N--CA-[C] |==|  0.76368
USER: genes 10 Torsion [N]-CA--C-[O] |==|  0.50901
USER: genes 11 Torsion [N]-CA--CB-[CG] |==|  0.89299
USER: genes 12 Torsion [CA]-CB--CG-[OD1] |==|  0.91903
USER: genes 13 Torsion [N]-CA--CB-[CG] |==|  0.75639
USER: genes 14 Torsion [CA]-CB--CG-[OD1] |==|  0.31874
USER: genes 15 Torsion [C]-CA--CB-[CG] |==|  0.76845
USER: genes 16 Torsion [CA]-CB--CG-[CD2] |==|  0.22131
USER: genes 17 Torsion [C]-CA--N-[C] |==|  0.53421
USER: genes 18 Torsion [N]-C--CA-[N] |==|  0.92652
USER: genes 19 Torsion [C]-CA--CB-[OG] |==|  0.62291
USER: genes 20 Torsion [CA]-CB--OG-[HG] |==|  0.37202
USER: genes 21 Torsion [C]-CA--N-[C] |==|  0.78763
USER: genes 22 Torsion [N]-C--CA-[N] |==|  0.88506
USER: genes 23 Torsion [C]-CA--N-[C] |==|  0.83881
USER: genes 24 Torsion [N]-C--CA-[N] |==|  0.38265
USER: genes 25 Torsion [C]-CA--CB-[CG2] |==|  0.42371
USER: genes 26 Torsion [C]-CA--N-[H2] |==|  0.67009
USER: genes 27 Torsion [C]-CA--CB-[CG2] |==|  0.17236
ROOT
ATOM      1  CA  HIS P   4     -16.350   8.860  11.930  1.00 23.76 LIG 0.18  C 
ENDROOT
BRANCH 1 2
ATOM      2  C   HIS P   4     -17.623   9.712  11.836  1.00 25.01 LIG 0.24  C 
ATOM      3 O    HIS P   4     -17.641  10.876  12.260  1.00 23.35 LIG-0.27  OA
ATOM      4  N   PHE P   5     -18.711   9.115  11.354  1.00 23.15 LIG-0.35  N 
ATOM      5 H    PHE P   5     -18.736   8.283  11.136  1.00 23.15 LIG 0.16  HD
BRANCH 4 6
ATOM      6  CA  PHE P   5     -19.966   9.812  11.148  1.00 24.23 LIG 0.18  C 
BRANCH 6 7
ATOM      7  CB  PHE P   5     -21.075   8.765  10.822  1.00 25.15 LIG 0.07  C 
BRANCH 7 8
ATOM      8  CG  PHE P   5     -22.213   8.866  11.785  1.00 25.22 LIG-0.06  A 
ATOM      9  CD2 PHE P   5     -23.235   9.757  11.471  1.00 26.21 LIG 0.01  A 
ATOM     10  CE2 PHE P   5     -24.270   9.960  12.338  1.00 26.58 LIG 0.00  A 
ATOM     11  CZ  PHE P   5     -24.330   9.235  13.515  1.00 27.68 LIG 0.00  A 
ATOM     12  CE1 PHE P   5     -23.338   8.340  13.832  1.00 26.50 LIG 0.00  A 
ATOM     13  CD1 PHE P   5     -22.274   8.155  12.959  1.00 25.73 LIG 0.01  A 
ENDBRANCH 7 8
ENDBRANCH 6 7
BRANCH 6 14
ATOM     14  C   PHE P   5     -20.367  10.717  12.292  1.00 25.59 LIG 0.24  C 
ATOM     15 O    PHE P   5     -20.201  10.379  13.481  1.00 25.82 LIG-0.27  OA
ATOM     16  N   ASN P   6     -20.821  11.910  11.959  1.00 24.53 LIG-0.35  N 
ATOM     17 H    ASN P   6     -20.919  12.183  11.149  1.00 24.53 LIG 0.16  HD
BRANCH 16 18
ATOM     18  CA  ASN P   6     -21.200  12.881  12.977  1.00 25.84 LIG 0.18  C 
BRANCH 18 19
ATOM     19  C   ASN P   6     -22.225  13.886  12.505  1.00 25.26 LIG 0.24  C 
ATOM     20  N   ASP P   7     -22.823  14.658  13.434  1.00 26.59 LIG-0.34  N 
ATOM     21 H    ASP P   7     -22.684  14.602  14.281  1.00 26.59 LIG 0.16  HD
ATOM     22 O    ASN P   6     -22.509  13.947  11.307  1.00 25.72 LIG-0.27  OA
BRANCH 20 23
ATOM     23  CA  ASP P   7     -23.776  15.669  13.035  1.00 25.93 LIG 0.20  C 
BRANCH 23 24
ATOM     24  C   ASP P   7     -23.036  16.963  12.660  1.00 27.07 LIG 0.20  C 
ATOM     25 O    ASP P   7     -23.748  17.907  12.365  1.00 28.96 LIG-0.65  OA
ATOM     26 OXT  ASP P   7     -21.725  16.998  12.755  1.00 29.63 LIG-0.65  OA
ENDBRANCH 23 24
BRANCH 23 27
ATOM     27  CB  ASP P   7     -24.810  16.046  14.114  1.00 25.41 LIG 0.15  C 
BRANCH 27 28
ATOM     28  CG  ASP P   7     -25.288  14.864  14.919  1.00 25.37 LIG 0.17  C 
ATOM     29 OD1  ASP P   7     -25.344  13.696  14.474  1.00 26.66 LIG-0.65  OA
ATOM     30 OD2  ASP P   7     -25.609  15.115  16.130  1.00 23.76 LIG-0.65  OA
ENDBRANCH 27 28
ENDBRANCH 23 27
ENDBRANCH 20 23
ENDBRANCH 18 19
BRANCH 18 31
ATOM     31  CB  ASN P   6     -19.956  13.568  13.543  1.00 24.75 LIG 0.14  C 
BRANCH 31 32
ATOM     32  CG  ASN P   6     -19.366  12.794  14.702  1.00 27.24 LIG 0.22  C 
ATOM     33  ND2 ASN P   6     -20.186  12.825  15.752  1.00 23.85 LIG-0.37  N 
ATOM     34 21HD ASN P   6     -19.952  12.453  16.491  1.00 23.85 LIG 0.16  HD
ATOM     35 22HD ASN P   6     -20.949  13.218  15.691  1.00 23.85 LIG 0.16  HD
ATOM     36 OD1  ASN P   6     -18.220  12.270  14.605  1.00 24.90 LIG-0.27  OA
ENDBRANCH 31 32
ENDBRANCH 18 31
ENDBRANCH 16 18
ENDBRANCH 6 14
ENDBRANCH 4 6
ENDBRANCH 1 2
BRANCH 1 37
ATOM     37  CB  HIS P   4     -16.211   8.375  13.372  1.00 21.80 LIG 0.10  C 
BRANCH 37 38
ATOM     38  CG  HIS P   4     -15.565   9.376  14.283  1.00 23.01 LIG 0.06  A 
ATOM     39  CD2 HIS P   4     -16.011  10.463  14.911  1.00 23.26 LIG 0.14  A 
ATOM     40 NE2  HIS P   4     -15.023  10.862  15.776  1.00 21.45 LIG-0.25  NA
ATOM     41  CE1 HIS P   4     -13.993  10.024  15.707  1.00 22.12 LIG 0.23  A 
ATOM     42 ND1  HIS P   4     -14.294   9.115  14.835  1.00 22.83 LIG-0.24  NA
ENDBRANCH 37 38
ENDBRANCH 1 37
BRANCH 1 43
ATOM     43  N   HIS P   4     -15.217   9.705  11.462  1.00 22.02 LIG-0.35  N 
ATOM     44  C   SER P   3     -14.048   9.114  11.215  1.00 24.42 LIG 0.24  C 
ATOM     45 O    SER P   3     -13.896   7.895  11.399  1.00 24.72 LIG-0.27  OA
ATOM     46 H    HIS P   4     -15.382  10.545  11.376  1.00 22.02 LIG 0.16  HD
BRANCH 44 47
ATOM     47  CA  SER P   3     -12.869   9.981  10.804  1.00 22.14 LIG 0.20  C 
BRANCH 47 48
ATOM     48  CB  SER P   3     -11.956  10.337  11.995  1.00 23.32 LIG 0.20  C 
BRANCH 48 49
ATOM     49 OG   SER P   3     -11.610  11.738  11.930  1.00 23.11 LIG-0.40  OA
ATOM     50 HG   SER P   3     -11.703  12.085  12.689  1.00 23.11 LIG 0.21  HD
ENDBRANCH 48 49
ENDBRANCH 47 48
BRANCH 47 51
ATOM     51  N   SER P   3     -13.256  11.232  10.148  1.00 22.53 LIG-0.34  N 
ATOM     52 H    SER P   3     -13.195  11.932  10.643  1.00 22.53 LIG 0.16  HD
ATOM     53  C   VAL P   2     -13.664  11.242   8.883  1.00 22.76 LIG 0.24  C 
ATOM     54 O    VAL P   2     -13.890  10.183   8.255  1.00 25.85 LIG-0.27  OA
BRANCH 53 55
ATOM     55  CA  VAL P   2     -14.011  12.612   8.295  1.00 24.07 LIG 0.18  C 
BRANCH 55 56
ATOM     56  N   VAL P   2     -14.748  13.428   9.261  1.00 24.29 LIG-0.35  N 
ATOM     57 H    VAL P   2     -14.389  14.183   9.462  1.00 24.29 LIG 0.16  HD
ATOM     58  C   VAL P   1     -15.914  12.960   9.764  1.00 26.39 LIG 0.25  C 
ATOM     59 O    VAL P   1     -16.378  11.839   9.403  1.00 26.90 LIG-0.27  OA
BRANCH 58 60
ATOM     60  CA  VAL P   1     -16.678  13.844  10.739  1.00 27.40 LIG 0.28  C 
BRANCH 60 61
ATOM     61  CB  VAL P   1     -16.447  13.386  12.214  1.00 27.20 LIG 0.02  C 
ATOM     62  CG2 VAL P   1     -16.615  14.603  13.132  1.00 28.02 LIG 0.01  C 
ATOM     63  CG1 VAL P   1     -15.026  12.865  12.220  1.00 27.17 LIG 0.01  C 
ENDBRANCH 60 61
BRANCH 60 64
ATOM     64  N   VAL P   1     -18.086  13.844  10.489  1.00 29.12 LIG-0.07  N 
ATOM     65 H2   VAL P   1     -18.353  14.669  10.292  1.00 29.12 LIG 0.28  HD
ATOM     66 H1   VAL P   1     -18.516  13.560  11.215  1.00 29.12 LIG 0.28  HD
ATOM     67 H3   VAL P   1     -18.266  13.303   9.806  1.00 29.12 LIG 0.28  HD
ENDBRANCH 60 64
ENDBRANCH 58 60
ENDBRANCH 55 56
BRANCH 55 68
ATOM     68  CB  VAL P   2     -12.687  13.260   7.793  1.00 25.03 LIG 0.01  C 
ATOM     69  CG2 VAL P   2     -12.080  12.383   6.680  1.00 23.99 LIG 0.01  C 
ATOM     70  CG1 VAL P   2     -11.665  13.445   8.899  1.00 25.56 LIG 0.01  C 
ENDBRANCH 55 68
ENDBRANCH 53 55
ENDBRANCH 47 51
ENDBRANCH 44 47
ENDBRANCH 1 43
TORSDOF 26
ENDMDL
MODEL 60
USER: ADFR SOLUTION from run 181
USER: SCORE 18.738125 LL:  -5.798 LR: -13.918 RR:   0.000 FEB:  -6.162
USER: RMSD 8.516811
USER: SEED 180
USER: STATUS no improvement in best in 14 clusters for 5 generations
USER: GENES 28
USER: genes 0 Translation |==|  0.50142 0.51711 0.70669
USER: genes 1 Rotation |==|  0.43703 0.43679 0.98002 0.60780
USER: genes 2 Torsion [N]-CA--C-[N] |==|  0.34320
USER: genes 3 Torsion [C]-N--CA-[CB] |==|  0.78654
USER: genes 4 Torsion [N]-CA--CB-[CG] |==|  0.34898
USER: genes 5 Torsion [CA]-CB--CG-[CD2] |==|  0.70724
USER: genes 6 Torsion [N]-CA--C-[N] |==|  0.32219
USER: genes 7 Torsion [C]-N--CA-[CB] |==|  0.19391
USER: genes 8 Torsion [N]-CA--C-[N] |==|  0.06558
USER: genes 9 Torsion [C]-N--CA-[C] |==|  0.76370
USER: genes 10 Torsion [N]-CA--C-[O] |==|  0.54582
USER: genes 11 Torsion [N]-CA--CB-[CG] |==|  0.97686
USER: genes 12 Torsion [CA]-CB--CG-[OD1] |==|  0.16943
USER: genes 13 Torsion [N]-CA--CB-[CG] |==|  0.71355
USER: genes 14 Torsion [CA]-CB--CG-[OD1] |==|  0.28146
USER: genes 15 Torsion [C]-CA--CB-[CG] |==|  0.04009
USER: genes 16 Torsion [CA]-CB--CG-[CD2] |==|  0.25273
USER: genes 17 Torsion [C]-CA--N-[C] |==|  0.75344
USER: genes 18 Torsion [N]-C--CA-[N] |==|  0.00002
USER: genes 19 Torsion [C]-CA--CB-[OG] |==|  0.54160
USER: genes 20 Torsion [CA]-CB--OG-[HG] |==|  0.86325
USER: genes 21 Torsion [C]-CA--N-[C] |==|  0.19178
USER: genes 22 Torsion [N]-C--CA-[N] |==|  0.09919
USER: genes 23 Torsion [C]-CA--N-[C] |==|  0.15368
USER: genes 24 Torsion [N]-C--CA-[N] |==|  0.45315
USER: genes 25 Torsion [C]-CA--CB-[CG2] |==|  0.25607
USER: genes 26 Torsion [C]-CA--N-[H2] |==|  0.45541
USER: genes 27 Torsion [C]-CA--CB-[CG2] |==|  0.53827
ROOT
ATOM      1  CA  HIS P   4     -17.620  12.785  13.876  1.00 23.76 LIG 0.18  C 
ENDROOT
BRANCH 1 2
ATOM      2  C   HIS P   4     -16.602  12.077  12.971  1.00 25.01 LIG 0.24  C 
ATOM      3 O    HIS P   4     -16.878  11.001  12.424  1.00 23.35 LIG-0.27  OA
ATOM      4  N   PHE P   5     -15.397  12.636  12.873  1.00 23.15 LIG-0.35  N 
ATOM      5 H    PHE P   5     -15.163  13.336  13.315  1.00 23.15 LIG 0.16  HD
BRANCH 4 6
ATOM      6  CA  PHE P   5     -14.356  12.115  12.008  1.00 24.23 LIG 0.18  C 
BRANCH 6 7
ATOM      7  CB  PHE P   5     -13.728  10.855  12.679  1.00 25.15 LIG 0.07  C 
BRANCH 7 8
ATOM      8  CG  PHE P   5     -13.768   9.677  11.760  1.00 25.22 LIG-0.06  A 
ATOM      9  CD2 PHE P   5     -14.709   8.690  12.033  1.00 26.21 LIG 0.01  A 
ATOM     10  CE2 PHE P   5     -14.755   7.549  11.284  1.00 26.58 LIG 0.00  A 
ATOM     11  CZ  PHE P   5     -13.892   7.397  10.213  1.00 27.68 LIG 0.00  A 
ATOM     12  CE1 PHE P   5     -12.968   8.370   9.921  1.00 26.50 LIG 0.00  A 
ATOM     13  CD1 PHE P   5     -12.908   9.518  10.700  1.00 25.73 LIG 0.01  A 
ENDBRANCH 7 8
ENDBRANCH 6 7
BRANCH 6 14
ATOM     14  C   PHE P   5     -14.811  11.830  10.594  1.00 25.59 LIG 0.24  C 
ATOM     15 O    PHE P   5     -15.724  11.014  10.354  1.00 25.82 LIG-0.27  OA
ATOM     16  N   ASN P   6     -14.248  12.552   9.644  1.00 24.53 LIG-0.35  N 
ATOM     17 H    ASN P   6     -13.638  13.142   9.781  1.00 24.53 LIG 0.16  HD
BRANCH 16 18
ATOM     18  CA  ASN P   6     -14.636  12.393   8.249  1.00 25.84 LIG 0.18  C 
BRANCH 18 19
ATOM     19  C   ASN P   6     -13.653  12.997   7.273  1.00 25.26 LIG 0.24  C 
ATOM     20  N   ASP P   7     -12.378  13.156   7.680  1.00 26.59 LIG-0.34  N 
ATOM     21 H    ASP P   7     -12.088  12.964   8.467  1.00 26.59 LIG 0.16  HD
ATOM     22 O    ASN P   6     -14.046  13.357   6.160  1.00 25.72 LIG-0.27  OA
BRANCH 20 23
ATOM     23  CA  ASP P   7     -11.386  13.685   6.772  1.00 25.93 LIG 0.20  C 
BRANCH 23 24
ATOM     24  C   ASP P   7     -10.807  12.549   5.914  1.00 27.07 LIG 0.20  C 
ATOM     25 O    ASP P   7      -9.761  12.805   5.343  1.00 28.96 LIG-0.65  OA
ATOM     26 OXT  ASP P   7     -11.411  11.382   5.912  1.00 29.63 LIG-0.65  OA
ENDBRANCH 23 24
BRANCH 23 27
ATOM     27  CB  ASP P   7     -10.192  14.381   7.453  1.00 25.41 LIG 0.15  C 
BRANCH 27 28
ATOM     28  CG  ASP P   7     -10.373  14.558   8.939  1.00 25.37 LIG 0.17  C 
ATOM     29 OD1  ASP P   7     -10.520  13.608   9.740  1.00 26.66 LIG-0.65  OA
ATOM     30 OD2  ASP P   7     -10.332  15.764   9.360  1.00 23.76 LIG-0.65  OA
ENDBRANCH 27 28
ENDBRANCH 23 27
ENDBRANCH 20 23
ENDBRANCH 18 19
BRANCH 18 31
ATOM     31  CB  ASN P   6     -16.052  12.930   8.029  1.00 24.75 LIG 0.14  C 
BRANCH 31 32
ATOM     32  CG  ASN P   6     -17.066  11.811   7.923  1.00 27.24 LIG 0.22  C 
ATOM     33  ND2 ASN P   6     -17.067  11.294   6.696  1.00 23.85 LIG-0.37  N 
ATOM     34 21HD ASN P   6     -17.626  10.672   6.492  1.00 23.85 LIG 0.16  HD
ATOM     35 22HD ASN P   6     -16.510  11.581   6.107  1.00 23.85 LIG 0.16  HD
ATOM     36 OD1  ASN P   6     -17.801  11.520   8.910  1.00 24.90 LIG-0.27  OA
ENDBRANCH 31 32
ENDBRANCH 18 31
ENDBRANCH 16 18
ENDBRANCH 6 14
ENDBRANCH 4 6
ENDBRANCH 1 2
BRANCH 1 37
ATOM     37  CB  HIS P   4     -17.901  11.878  15.073  1.00 21.80 LIG 0.10  C 
BRANCH 37 38
ATOM     38  CG  HIS P   4     -16.907  10.767  15.231  1.00 23.01 LIG 0.06  A 
ATOM     39  CD2 HIS P   4     -15.761  10.652  15.901  1.00 23.26 LIG 0.14  A 
ATOM     40 NE2  HIS P   4     -15.394   9.332  15.848  1.00 21.45 LIG-0.25  NA
ATOM     41  CE1 HIS P   4     -16.307   8.632  15.181  1.00 22.12 LIG 0.23  A 
ATOM     42 ND1  HIS P   4     -17.233   9.459  14.813  1.00 22.83 LIG-0.24  NA
ENDBRANCH 37 38
ENDBRANCH 1 37
BRANCH 1 43
ATOM     43  N   HIS P   4     -18.820  13.079  13.044  1.00 22.02 LIG-0.35  N 
ATOM     44  C   SER P   3     -18.858  14.232  12.375  1.00 24.42 LIG 0.24  C 
ATOM     45 O    SER P   3     -17.933  15.055  12.467  1.00 24.72 LIG-0.27  OA
ATOM     46 H    HIS P   4     -19.434  12.477  13.041  1.00 22.02 LIG 0.16  HD
BRANCH 44 47
ATOM     47  CA  SER P   3     -20.109  14.568  11.579  1.00 22.14 LIG 0.20  C 
BRANCH 47 48
ATOM     48  CB  SER P   3     -20.738  15.910  12.010  1.00 23.32 LIG 0.20  C 
BRANCH 48 49
ATOM     49 OG   SER P   3     -22.080  15.998  11.484  1.00 23.11 LIG-0.40  OA
ATOM     50 HG   SER P   3     -22.073  15.810  10.666  1.00 23.11 LIG 0.21  HD
ENDBRANCH 48 49
ENDBRANCH 47 48
BRANCH 47 51
ATOM     51  N   SER P   3     -21.150  13.542  11.654  1.00 22.53 LIG-0.34  N 
ATOM     52 H    SER P   3     -21.287  13.113  10.921  1.00 22.53 LIG 0.16  HD
ATOM     53  C   VAL P   2     -21.811  13.321  12.786  1.00 22.76 LIG 0.24  C 
ATOM     54 O    VAL P   2     -21.692  14.076  13.777  1.00 25.85 LIG-0.27  OA
BRANCH 53 55
ATOM     55  CA  VAL P   2     -22.855  12.201  12.753  1.00 24.07 LIG 0.18  C 
BRANCH 55 56
ATOM     56  N   VAL P   2     -22.414  11.097  11.899  1.00 24.29 LIG-0.35  N 
ATOM     57 H    VAL P   2     -22.956  10.874  11.269  1.00 24.29 LIG 0.16  HD
ATOM     58  C   VAL P   1     -21.220  10.511  12.144  1.00 26.39 LIG 0.25  C 
ATOM     59 O    VAL P   1     -20.478  10.910  13.089  1.00 26.90 LIG-0.27  OA
BRANCH 58 60
ATOM     60  CA  VAL P   1     -20.769   9.390  11.219  1.00 27.40 LIG 0.28  C 
BRANCH 60 61
ATOM     61  CB  VAL P   1     -21.545   8.067  11.518  1.00 27.20 LIG 0.02  C 
ATOM     62  CG2 VAL P   1     -22.779   8.012  10.611  1.00 28.02 LIG 0.01  C 
ATOM     63  CG1 VAL P   1     -21.921   8.183  12.979  1.00 27.17 LIG 0.01  C 
ENDBRANCH 60 61
BRANCH 60 64
ATOM     64  N   VAL P   1     -19.371   9.119  11.328  1.00 29.12 LIG-0.07  N 
ATOM     65 H2   VAL P   1     -19.191   8.328  10.962  1.00 29.12 LIG 0.28  HD
ATOM     66 H1   VAL P   1     -19.136   9.107  12.187  1.00 29.12 LIG 0.28  HD
ATOM     67 H3   VAL P   1     -18.911   9.752  10.904  1.00 29.12 LIG 0.28  HD
ENDBRANCH 60 64
ENDBRANCH 58 60
ENDBRANCH 55 56
BRANCH 55 68
ATOM     68  CB  VAL P   2     -23.152  11.788  14.225  1.00 25.03 LIG 0.01  C 
ATOM     69  CG2 VAL P   2     -23.921  10.453  14.234  1.00 23.99 LIG 0.01  C 
ATOM     70  CG1 VAL P   2     -23.953  12.833  14.979  1.00 25.56 LIG 0.01  C 
ENDBRANCH 55 68
ENDBRANCH 53 55
ENDBRANCH 47 51
ENDBRANCH 44 47
ENDBRANCH 1 43
TORSDOF 26
ENDMDL
MODEL 61
USER: ADFR SOLUTION from run 196
USER: SCORE 18.371017 LL:  -5.199 LR: -13.922 RR:   0.000 FEB:  -6.166
USER: RMSD 8.543594
USER: SEED 195
USER: STATUS searching
USER: GENES 28
USER: genes 0 Translation |==|  0.52016 0.35185 0.71383
USER: genes 1 Rotation |==|  0.44160 0.70269 0.07240 0.65054
USER: genes 2 Torsion [N]-CA--C-[N] |==|  0.44631
USER: genes 3 Torsion [C]-N--CA-[CB] |==|  0.86649
USER: genes 4 Torsion [N]-CA--CB-[CG] |==|  0.81844
USER: genes 5 Torsion [CA]-CB--CG-[CD2] |==|  0.67140
USER: genes 6 Torsion [N]-CA--C-[N] |==|  0.84476
USER: genes 7 Torsion [C]-N--CA-[CB] |==|  0.83888
USER: genes 8 Torsion [N]-CA--C-[N] |==|  0.40312
USER: genes 9 Torsion [C]-N--CA-[C] |==|  0.62514
USER: genes 10 Torsion [N]-CA--C-[O] |==|  0.91475
USER: genes 11 Torsion [N]-CA--CB-[CG] |==|  0.67739
USER: genes 12 Torsion [CA]-CB--CG-[OD1] |==|  0.68247
USER: genes 13 Torsion [N]-CA--CB-[CG] |==|  0.35482
USER: genes 14 Torsion [CA]-CB--CG-[OD1] |==|  0.25771
USER: genes 15 Torsion [C]-CA--CB-[CG] |==|  0.27269
USER: genes 16 Torsion [CA]-CB--CG-[CD2] |==|  0.25664
USER: genes 17 Torsion [C]-CA--N-[C] |==|  0.82756
USER: genes 18 Torsion [N]-C--CA-[N] |==|  0.37951
USER: genes 19 Torsion [C]-CA--CB-[OG] |==|  0.34124
USER: genes 20 Torsion [CA]-CB--OG-[HG] |==|  0.91787
USER: genes 21 Torsion [C]-CA--N-[C] |==|  0.69118
USER: genes 22 Torsion [N]-C--CA-[N] |==|  0.91358
USER: genes 23 Torsion [C]-CA--N-[C] |==|  0.84842
USER: genes 24 Torsion [N]-C--CA-[N] |==|  0.50559
USER: genes 25 Torsion [C]-CA--CB-[CG2] |==|  0.21996
USER: genes 26 Torsion [C]-CA--N-[H2] |==|  0.67542
USER: genes 27 Torsion [C]-CA--CB-[CG2] |==|  0.29074
ROOT
ATOM      1  CA  HIS P   4     -17.213   9.934  14.031  1.00 23.76 LIG 0.18  C 
ENDROOT
BRANCH 1 2
ATOM      2  C   HIS P   4     -16.632  10.955  13.042  1.00 25.01 LIG 0.24  C 
ATOM      3 O    HIS P   4     -16.744  10.790  11.820  1.00 23.35 LIG-0.27  OA
ATOM      4  N   PHE P   5     -15.945  11.970  13.563  1.00 23.15 LIG-0.35  N 
ATOM      5 H    PHE P   5     -15.786  12.051  14.404  1.00 23.15 LIG 0.16  HD
BRANCH 4 6
ATOM      6  CA  PHE P   5     -15.394  13.043  12.757  1.00 24.23 LIG 0.18  C 
BRANCH 6 7
ATOM      7  CB  PHE P   5     -14.636  12.422  11.544  1.00 25.15 LIG 0.07  C 
BRANCH 7 8
ATOM      8  CG  PHE P   5     -13.444  11.641  11.995  1.00 25.22 LIG-0.06  A 
ATOM      9  CD2 PHE P   5     -12.197  12.072  11.555  1.00 26.21 LIG 0.01  A 
ATOM     10  CE2 PHE P   5     -11.070  11.365  11.861  1.00 26.58 LIG 0.00  A 
ATOM     11  CZ  PHE P   5     -11.164  10.240  12.661  1.00 27.68 LIG 0.00  A 
ATOM     12  CE1 PHE P   5     -12.386   9.810  13.116  1.00 26.50 LIG 0.00  A 
ATOM     13  CD1 PHE P   5     -13.532  10.518  12.781  1.00 25.73 LIG 0.01  A 
ENDBRANCH 7 8
ENDBRANCH 6 7
BRANCH 6 14
ATOM     14  C   PHE P   5     -16.412  14.071  12.316  1.00 25.59 LIG 0.24  C 
ATOM     15 O    PHE P   5     -16.231  15.292  12.503  1.00 25.82 LIG-0.27  OA
ATOM     16  N   ASN P   6     -17.455  13.611  11.652  1.00 24.53 LIG-0.35  N 
ATOM     17 H    ASN P   6     -17.592  12.780  11.482  1.00 24.53 LIG 0.16  HD
BRANCH 16 18
ATOM     18  CA  ASN P   6     -18.480  14.513  11.143  1.00 25.84 LIG 0.18  C 
BRANCH 18 19
ATOM     19  C   ASN P   6     -18.000  15.408  10.024  1.00 25.26 LIG 0.24  C 
ATOM     20  N   ASP P   7     -18.876  15.716   9.046  1.00 26.59 LIG-0.34  N 
ATOM     21 H    ASP P   7     -19.682  15.419   8.998  1.00 26.59 LIG 0.16  HD
ATOM     22 O    ASN P   6     -16.830  15.795  10.015  1.00 25.72 LIG-0.27  OA
BRANCH 20 23
ATOM     23  CA  ASP P   7     -18.486  16.607   7.976  1.00 25.93 LIG 0.20  C 
BRANCH 23 24
ATOM     24  C   ASP P   7     -19.600  17.633   7.720  1.00 27.07 LIG 0.20  C 
ATOM     25 O    ASP P   7     -20.733  17.245   7.946  1.00 28.96 LIG-0.65  OA
ATOM     26 OXT  ASP P   7     -19.271  18.855   7.362  1.00 29.63 LIG-0.65  OA
ENDBRANCH 23 24
BRANCH 23 27
ATOM     27  CB  ASP P   7     -18.203  15.913   6.630  1.00 25.41 LIG 0.15  C 
BRANCH 27 28
ATOM     28  CG  ASP P   7     -16.771  16.048   6.179  1.00 25.37 LIG 0.17  C 
ATOM     29 OD1  ASP P   7     -16.420  16.685   5.160  1.00 26.66 LIG-0.65  OA
ATOM     30 OD2  ASP P   7     -15.900  15.495   6.932  1.00 23.76 LIG-0.65  OA
ENDBRANCH 27 28
ENDBRANCH 23 27
ENDBRANCH 20 23
ENDBRANCH 18 19
BRANCH 18 31
ATOM     31  CB  ASN P   6     -19.089  15.322  12.290  1.00 24.75 LIG 0.14  C 
BRANCH 31 32
ATOM     32  CG  ASN P   6     -19.063  16.808  12.003  1.00 27.24 LIG 0.22  C 
ATOM     33  ND2 ASN P   6     -17.930  17.351  12.447  1.00 23.85 LIG-0.37  N 
ATOM     34 21HD ASN P   6     -17.805  18.200  12.378  1.00 23.85 LIG 0.16  HD
ATOM     35 22HD ASN P   6     -17.324  16.854  12.801  1.00 23.85 LIG 0.16  HD
ATOM     36 OD1  ASN P   6     -20.055  17.372  11.460  1.00 24.90 LIG-0.27  OA
ENDBRANCH 31 32
ENDBRANCH 18 31
ENDBRANCH 16 18
ENDBRANCH 6 14
ENDBRANCH 4 6
ENDBRANCH 1 2
BRANCH 1 37
ATOM     37  CB  HIS P   4     -16.070   9.044  14.516  1.00 21.80 LIG 0.10  C 
BRANCH 37 38
ATOM     38  CG  HIS P   4     -15.511   9.454  15.845  1.00 23.01 LIG 0.06  A 
ATOM     39  CD2 HIS P   4     -15.780   9.099  17.101  1.00 23.26 LIG 0.14  A 
ATOM     40 NE2  HIS P   4     -14.804   9.648  17.893  1.00 21.45 LIG-0.25  NA
ATOM     41  CE1 HIS P   4     -13.928  10.309  17.143  1.00 22.12 LIG 0.23  A 
ATOM     42 ND1  HIS P   4     -14.314  10.198  15.911  1.00 22.83 LIG-0.24  NA
ENDBRANCH 37 38
ENDBRANCH 1 37
BRANCH 1 43
ATOM     43  N   HIS P   4     -18.295   9.198  13.321  1.00 22.02 LIG-0.35  N 
ATOM     44  C   SER P   3     -19.351   9.888  12.889  1.00 24.42 LIG 0.24  C 
ATOM     45 O    SER P   3     -19.447  11.108  13.100  1.00 24.72 LIG-0.27  OA
ATOM     46 H    HIS P   4     -18.177   8.351  13.227  1.00 22.02 LIG 0.16  HD
BRANCH 44 47
ATOM     47  CA  SER P   3     -20.490   9.132  12.225  1.00 22.14 LIG 0.20  C 
BRANCH 47 48
ATOM     48  CB  SER P   3     -20.442   9.226  10.687  1.00 23.32 LIG 0.20  C 
BRANCH 48 49
ATOM     49 OG   SER P   3     -20.388   7.896  10.127  1.00 23.11 LIG-0.40  OA
ATOM     50 HG   SER P   3     -20.001   7.381  10.666  1.00 23.11 LIG 0.21  HD
ENDBRANCH 48 49
ENDBRANCH 47 48
BRANCH 47 51
ATOM     51  N   SER P   3     -21.819   9.567  12.658  1.00 22.53 LIG-0.34  N 
ATOM     52 H    SER P   3     -22.042  10.356  12.400  1.00 22.53 LIG 0.16  HD
ATOM     53  C   VAL P   2     -22.592   8.773  13.394  1.00 22.76 LIG 0.24  C 
ATOM     54 O    VAL P   2     -22.163   7.703  13.880  1.00 25.85 LIG-0.27  OA
BRANCH 53 55
ATOM     55  CA  VAL P   2     -23.973   9.322  13.759  1.00 24.07 LIG 0.18  C 
BRANCH 55 56
ATOM     56  N   VAL P   2     -23.942  10.780  13.889  1.00 24.29 LIG-0.35  N 
ATOM     57 H    VAL P   2     -24.512  11.209  13.409  1.00 24.29 LIG 0.16  HD
ATOM     58  C   VAL P   1     -23.048  11.347  14.731  1.00 26.39 LIG 0.25  C 
ATOM     59 O    VAL P   1     -22.250  10.637  15.411  1.00 26.90 LIG-0.27  OA
BRANCH 58 60
ATOM     60  CA  VAL P   1     -23.061  12.862  14.874  1.00 27.40 LIG 0.28  C 
BRANCH 60 61
ATOM     61  CB  VAL P   1     -22.871  13.561  13.490  1.00 27.20 LIG 0.02  C 
ATOM     62  CG2 VAL P   1     -24.212  13.540  12.748  1.00 28.02 LIG 0.01  C 
ATOM     63  CG1 VAL P   1     -21.825  12.719  12.792  1.00 27.17 LIG 0.01  C 
ENDBRANCH 60 61
BRANCH 60 64
ATOM     64  N   VAL P   1     -22.040  13.337  15.755  1.00 29.12 LIG-0.07  N 
ATOM     65 H2   VAL P   1     -22.415  13.733  16.458  1.00 29.12 LIG 0.28  HD
ATOM     66 H1   VAL P   1     -21.526  13.923  15.325  1.00 29.12 LIG 0.28  HD
ATOM     67 H3   VAL P   1     -21.544  12.652  16.031  1.00 29.12 LIG 0.28  HD
ENDBRANCH 60 64
ENDBRANCH 58 60
ENDBRANCH 55 56
BRANCH 55 68
ATOM     68  CB  VAL P   2     -24.986   8.799  12.698  1.00 25.03 LIG 0.01  C 
ATOM     69  CG2 VAL P   2     -25.832   7.668  13.316  1.00 23.99 LIG 0.01  C 
ATOM     70  CG1 VAL P   2     -24.309   8.288  11.440  1.00 25.56 LIG 0.01  C 
ENDBRANCH 55 68
ENDBRANCH 53 55
ENDBRANCH 47 51
ENDBRANCH 44 47
ENDBRANCH 1 43
TORSDOF 26
ENDMDL
MODEL 62
USER: ADFR SOLUTION from run 69
USER: SCORE 18.441736 LL:  -6.983 LR: -13.873 RR:   0.000 FEB:  -6.117
USER: RMSD 9.135600
USER: SEED 68
USER: STATUS searching
USER: GENES 28
USER: genes 0 Translation |==|  0.74455 0.45301 0.60549
USER: genes 1 Rotation |==|  0.52664 0.24096 0.92659 0.51452
USER: genes 2 Torsion [N]-CA--C-[N] |==|  0.98563
USER: genes 3 Torsion [C]-N--CA-[CB] |==|  0.48151
USER: genes 4 Torsion [N]-CA--CB-[CG] |==|  0.93697
USER: genes 5 Torsion [CA]-CB--CG-[CD2] |==|  0.27690
USER: genes 6 Torsion [N]-CA--C-[N] |==|  0.72086
USER: genes 7 Torsion [C]-N--CA-[CB] |==|  0.18147
USER: genes 8 Torsion [N]-CA--C-[N] |==|  0.05041
USER: genes 9 Torsion [C]-N--CA-[C] |==|  0.77766
USER: genes 10 Torsion [N]-CA--C-[O] |==|  0.74833
USER: genes 11 Torsion [N]-CA--CB-[CG] |==|  0.01070
USER: genes 12 Torsion [CA]-CB--CG-[OD1] |==|  0.85082
USER: genes 13 Torsion [N]-CA--CB-[CG] |==|  0.62375
USER: genes 14 Torsion [CA]-CB--CG-[OD1] |==|  0.33574
USER: genes 15 Torsion [C]-CA--CB-[CG] |==|  0.72189
USER: genes 16 Torsion [CA]-CB--CG-[CD2] |==|  0.23816
USER: genes 17 Torsion [C]-CA--N-[C] |==|  0.65724
USER: genes 18 Torsion [N]-C--CA-[N] |==|  0.26667
USER: genes 19 Torsion [C]-CA--CB-[OG] |==|  0.79327
USER: genes 20 Torsion [CA]-CB--OG-[HG] |==|  0.19581
USER: genes 21 Torsion [C]-CA--N-[C] |==|  0.72470
USER: genes 22 Torsion [N]-C--CA-[N] |==|  0.91271
USER: genes 23 Torsion [C]-CA--N-[C] |==|  0.82418
USER: genes 24 Torsion [N]-C--CA-[N] |==|  0.40714
USER: genes 25 Torsion [C]-CA--CB-[CG2] |==|  0.13481
USER: genes 26 Torsion [C]-CA--N-[H2] |==|  0.16684
USER: genes 27 Torsion [C]-CA--CB-[CG2] |==|  0.58418
ROOT
ATOM      1  CA  HIS P   4     -12.332  11.679  11.674  1.00 23.76 LIG 0.18  C 
ENDROOT
BRANCH 1 2
ATOM      2  C   HIS P   4     -11.416  12.355  10.645  1.00 25.01 LIG 0.24  C 
ATOM      3 O    HIS P   4     -10.202  12.477  10.858  1.00 23.35 LIG-0.27  OA
ATOM      4  N   PHE P   5     -12.002  12.866   9.563  1.00 23.15 LIG-0.35  N 
ATOM      5 H    PHE P   5     -12.854  12.865   9.443  1.00 23.15 LIG 0.16  HD
BRANCH 4 6
ATOM      6  CA  PHE P   5     -11.258  13.476   8.478  1.00 24.23 LIG 0.18  C 
BRANCH 6 7
ATOM      7  CB  PHE P   5     -12.245  13.805   7.316  1.00 25.15 LIG 0.07  C 
BRANCH 7 8
ATOM      8  CG  PHE P   5     -13.471  12.954   7.392  1.00 25.22 LIG-0.06  A 
ATOM      9  CD2 PHE P   5     -14.609  13.527   7.951  1.00 26.21 LIG 0.01  A 
ATOM     10  CE2 PHE P   5     -15.745  12.789   8.123  1.00 26.58 LIG 0.00  A 
ATOM     11  CZ  PHE P   5     -15.780  11.475   7.689  1.00 27.68 LIG 0.00  A 
ATOM     12  CE1 PHE P   5     -14.671  10.900   7.121  1.00 26.50 LIG 0.00  A 
ATOM     13  CD1 PHE P   5     -13.510  11.647   6.970  1.00 25.73 LIG 0.01  A 
ENDBRANCH 7 8
ENDBRANCH 6 7
BRANCH 6 14
ATOM     14  C   PHE P   5     -10.448  14.685   8.886  1.00 25.59 LIG 0.24  C 
ATOM     15 O    PHE P   5      -9.310  14.571   9.387  1.00 25.82 LIG-0.27  OA
ATOM     16  N   ASN P   6     -10.974  15.862   8.605  1.00 24.53 LIG-0.35  N 
ATOM     17 H    ASN P   6     -11.742  15.972   8.233  1.00 24.53 LIG 0.16  HD
BRANCH 16 18
ATOM     18  CA  ASN P   6     -10.267  17.096   8.915  1.00 25.84 LIG 0.18  C 
BRANCH 18 19
ATOM     19  C   ASN P   6     -11.120  18.336   8.781  1.00 25.26 LIG 0.24  C 
ATOM     20  N   ASP P   7     -12.459  18.180   8.773  1.00 26.59 LIG-0.34  N 
ATOM     21 H    ASP P   7     -12.865  17.423   8.812  1.00 26.59 LIG 0.16  HD
ATOM     22 O    ASN P   6     -10.578  19.435   8.647  1.00 25.72 LIG-0.27  OA
BRANCH 20 23
ATOM     23  CA  ASP P   7     -13.324  19.336   8.696  1.00 25.93 LIG 0.20  C 
BRANCH 23 24
ATOM     24  C   ASP P   7     -13.454  19.984  10.083  1.00 27.07 LIG 0.20  C 
ATOM     25 O    ASP P   7     -14.375  19.576  10.768  1.00 28.96 LIG-0.65  OA
ATOM     26 OXT  ASP P   7     -12.545  20.853  10.467  1.00 29.63 LIG-0.65  OA
ENDBRANCH 23 24
BRANCH 23 27
ATOM     27  CB  ASP P   7     -14.756  19.039   8.209  1.00 25.41 LIG 0.15  C 
BRANCH 27 28
ATOM     28  CG  ASP P   7     -15.019  17.572   7.989  1.00 25.37 LIG 0.17  C 
ATOM     29 OD1  ASP P   7     -14.309  16.839   7.265  1.00 26.66 LIG-0.65  OA
ATOM     30 OD2  ASP P   7     -16.014  17.087   8.627  1.00 23.76 LIG-0.65  OA
ENDBRANCH 27 28
ENDBRANCH 23 27
ENDBRANCH 20 23
ENDBRANCH 18 19
BRANCH 18 31
ATOM     31  CB  ASN P   6      -8.990  17.199   8.079  1.00 24.75 LIG 0.14  C 
BRANCH 31 32
ATOM     32  CG  ASN P   6      -7.809  17.650   8.911  1.00 27.24 LIG 0.22  C 
ATOM     33  ND2 ASN P   6      -8.027  18.864   9.414  1.00 23.85 LIG-0.37  N 
ATOM     34 21HD ASN P   6      -7.416  19.253   9.878  1.00 23.85 LIG 0.16  HD
ATOM     35 22HD ASN P   6      -8.778  19.259   9.276  1.00 23.85 LIG 0.16  HD
ATOM     36 OD1  ASN P   6      -6.779  16.922   9.008  1.00 24.90 LIG-0.27  OA
ENDBRANCH 31 32
ENDBRANCH 18 31
ENDBRANCH 16 18
ENDBRANCH 6 14
ENDBRANCH 4 6
ENDBRANCH 1 2
BRANCH 1 37
ATOM     37  CB  HIS P   4     -11.925  10.210  11.776  1.00 21.80 LIG 0.10  C 
BRANCH 37 38
ATOM     38  CG  HIS P   4     -12.813   9.285  10.999  1.00 23.01 LIG 0.06  A 
ATOM     39  CD2 HIS P   4     -12.825   8.881   9.729  1.00 23.26 LIG 0.14  A 
ATOM     40 NE2  HIS P   4     -13.745   7.866   9.638  1.00 21.45 LIG-0.25  NA
ATOM     41  CE1 HIS P   4     -14.275   7.625  10.834  1.00 22.12 LIG 0.23  A 
ATOM     42 ND1  HIS P   4     -13.726   8.447  11.671  1.00 22.83 LIG-0.24  NA
ENDBRANCH 37 38
ENDBRANCH 1 37
BRANCH 1 43
ATOM     43  N   HIS P   4     -13.735  11.890  11.222  1.00 22.02 LIG-0.35  N 
ATOM     44  C   SER P   3     -14.585  12.488  12.057  1.00 24.42 LIG 0.24  C 
ATOM     45 O    SER P   3     -14.227  12.832  13.195  1.00 24.72 LIG-0.27  OA
ATOM     46 H    HIS P   4     -13.923  11.608  10.432  1.00 22.02 LIG 0.16  HD
BRANCH 44 47
ATOM     47  CA  SER P   3     -16.035  12.643  11.628  1.00 22.14 LIG 0.20  C 
BRANCH 47 48
ATOM     48  CB  SER P   3     -16.633  14.000  12.054  1.00 23.32 LIG 0.20  C 
BRANCH 48 49
ATOM     49 OG   SER P   3     -16.892  13.983  13.475  1.00 23.11 LIG-0.40  OA
ATOM     50 HG   SER P   3     -16.164  13.994  13.893  1.00 23.11 LIG 0.21  HD
ENDBRANCH 48 49
ENDBRANCH 47 48
BRANCH 47 51
ATOM     51  N   SER P   3     -16.917  11.588  12.132  1.00 22.53 LIG-0.34  N 
ATOM     52 H    SER P   3     -17.179  11.695  12.944  1.00 22.53 LIG 0.16  HD
ATOM     53  C   VAL P   2     -17.262  10.561  11.363  1.00 22.76 LIG 0.24  C 
ATOM     54 O    VAL P   2     -16.728  10.364  10.248  1.00 25.85 LIG-0.27  OA
BRANCH 53 55
ATOM     55  CA  VAL P   2     -18.214   9.537  11.987  1.00 24.07 LIG 0.18  C 
BRANCH 55 56
ATOM     56  N   VAL P   2     -18.003   9.436  13.432  1.00 24.29 LIG-0.35  N 
ATOM     57 H    VAL P   2     -18.670   9.669  13.922  1.00 24.29 LIG 0.16  HD
ATOM     58  C   VAL P   1     -16.811   8.996  13.894  1.00 26.39 LIG 0.25  C 
ATOM     59 O    VAL P   1     -15.884   8.663  13.099  1.00 26.90 LIG-0.27  OA
BRANCH 58 60
ATOM     60  CA  VAL P   1     -16.631   8.866  15.400  1.00 27.40 LIG 0.28  C 
BRANCH 60 61
ATOM     61  CB  VAL P   1     -16.033  10.174  16.011  1.00 27.20 LIG 0.02  C 
ATOM     62  CG2 VAL P   1     -16.833  11.368  15.479  1.00 28.02 LIG 0.01  C 
ATOM     63  CG1 VAL P   1     -14.602  10.189  15.521  1.00 27.17 LIG 0.01  C 
ENDBRANCH 60 61
BRANCH 60 64
ATOM     64  N   VAL P   1     -15.776   7.778  15.757  1.00 29.12 LIG-0.07  N 
ATOM     65 H2   VAL P   1     -14.972   7.901  15.396  1.00 29.12 LIG 0.28  HD
ATOM     66 H1   VAL P   1     -16.123   7.016  15.455  1.00 29.12 LIG 0.28  HD
ATOM     67 H3   VAL P   1     -15.699   7.739  16.643  1.00 29.12 LIG 0.28  HD
ENDBRANCH 60 64
ENDBRANCH 58 60
ENDBRANCH 55 56
BRANCH 55 68
ATOM     68  CB  VAL P   2     -19.664   9.931  11.580  1.00 25.03 LIG 0.01  C 
ATOM     69  CG2 VAL P   2     -20.641   9.495  12.690  1.00 23.99 LIG 0.01  C 
ATOM     70  CG1 VAL P   2     -20.095   9.315  10.262  1.00 25.56 LIG 0.01  C 
ENDBRANCH 55 68
ENDBRANCH 53 55
ENDBRANCH 47 51
ENDBRANCH 44 47
ENDBRANCH 1 43
TORSDOF 26
ENDMDL
MODEL 63
USER: ADFR SOLUTION from run 85
USER: SCORE 17.095140 LL:  -4.997 LR: -13.846 RR:   0.000 FEB:  -6.090
USER: RMSD 4.152285
USER: SEED 84
USER: STATUS searching
USER: GENES 28
USER: genes 0 Translation |==|  0.54323 0.33516 0.65161
USER: genes 1 Rotation |==|  0.43258 0.55952 0.49395 0.99181
USER: genes 2 Torsion [N]-CA--C-[N] |==|  0.50293
USER: genes 3 Torsion [C]-N--CA-[CB] |==|  0.20252
USER: genes 4 Torsion [N]-CA--CB-[CG] |==|  0.59744
USER: genes 5 Torsion [CA]-CB--CG-[CD2] |==|  0.60171
USER: genes 6 Torsion [N]-CA--C-[N] |==|  0.52451
USER: genes 7 Torsion [C]-N--CA-[CB] |==|  0.78180
USER: genes 8 Torsion [N]-CA--C-[N] |==|  0.20630
USER: genes 9 Torsion [C]-N--CA-[C] |==|  0.76683
USER: genes 10 Torsion [N]-CA--C-[O] |==|  0.88419
USER: genes 11 Torsion [N]-CA--CB-[CG] |==|  0.89442
USER: genes 12 Torsion [CA]-CB--CG-[OD1] |==|  0.15571
USER: genes 13 Torsion [N]-CA--CB-[CG] |==|  0.96105
USER: genes 14 Torsion [CA]-CB--CG-[OD1] |==|  0.25592
USER: genes 15 Torsion [C]-CA--CB-[CG] |==|  0.83000
USER: genes 16 Torsion [CA]-CB--CG-[CD2] |==|  0.81364
USER: genes 17 Torsion [C]-CA--N-[C] |==|  0.55003
USER: genes 18 Torsion [N]-C--CA-[N] |==|  0.98644
USER: genes 19 Torsion [C]-CA--CB-[OG] |==|  0.80285
USER: genes 20 Torsion [CA]-CB--OG-[HG] |==|  0.43005
USER: genes 21 Torsion [C]-CA--N-[C] |==|  0.71845
USER: genes 22 Torsion [N]-C--CA-[N] |==|  0.39065
USER: genes 23 Torsion [C]-CA--N-[C] |==|  0.69787
USER: genes 24 Torsion [N]-C--CA-[N] |==|  0.76220
USER: genes 25 Torsion [C]-CA--CB-[CG2] |==|  0.49810
USER: genes 26 Torsion [C]-CA--N-[H2] |==|  0.42769
USER: genes 27 Torsion [C]-CA--CB-[CG2] |==|  0.63923
ROOT
ATOM      1  CA  HIS P   4     -16.711   9.646  12.678  1.00 23.76 LIG 0.18  C 
ENDROOT
BRANCH 1 2
ATOM      2  C   HIS P   4     -17.964   9.919  11.834  1.00 25.01 LIG 0.24  C 
ATOM      3 O    HIS P   4     -17.869  10.311  10.663  1.00 23.35 LIG-0.27  OA
ATOM      4  N   PHE P   5     -19.139   9.788  12.447  1.00 23.15 LIG-0.35  N 
ATOM      5 H    PHE P   5     -19.218   9.600  13.283  1.00 23.15 LIG 0.16  HD
BRANCH 4 6
ATOM      6  CA  PHE P   5     -20.407   9.950  11.761  1.00 24.23 LIG 0.18  C 
BRANCH 6 7
ATOM      7  CB  PHE P   5     -20.643   8.712  10.843  1.00 25.15 LIG 0.07  C 
BRANCH 7 8
ATOM      8  CG  PHE P   5     -21.346   9.101   9.582  1.00 25.22 LIG-0.06  A 
ATOM      9  CD2 PHE P   5     -22.276   8.202   9.070  1.00 26.21 LIG 0.01  A 
ATOM     10  CE2 PHE P   5     -22.902   8.453   7.882  1.00 26.58 LIG 0.00  A 
ATOM     11  CZ  PHE P   5     -22.647   9.635   7.210  1.00 27.68 LIG 0.00  A 
ATOM     12  CE1 PHE P   5     -21.743  10.539   7.710  1.00 26.50 LIG 0.00  A 
ATOM     13  CD1 PHE P   5     -21.091  10.269   8.906  1.00 25.73 LIG 0.01  A 
ENDBRANCH 7 8
ENDBRANCH 6 7
BRANCH 6 14
ATOM     14  C   PHE P   5     -21.581  10.199  12.681  1.00 25.59 LIG 0.24  C 
ATOM     15 O    PHE P   5     -21.419  10.491  13.883  1.00 25.82 LIG-0.27  OA
ATOM     16  N   ASN P   6     -22.776  10.173  12.121  1.00 24.53 LIG-0.35  N 
ATOM     17 H    ASN P   6     -22.918  10.004  11.290  1.00 24.53 LIG 0.16  HD
BRANCH 16 18
ATOM     18  CA  ASN P   6     -23.977  10.437  12.900  1.00 25.84 LIG 0.18  C 
BRANCH 18 19
ATOM     19  C   ASN P   6     -23.877  11.667  13.773  1.00 25.26 LIG 0.24  C 
ATOM     20  N   ASP P   7     -23.949  12.872  13.172  1.00 26.59 LIG-0.34  N 
ATOM     21 H    ASP P   7     -24.021  12.993  12.324  1.00 26.59 LIG 0.16  HD
ATOM     22 O    ASN P   6     -23.697  11.538  14.986  1.00 25.72 LIG-0.27  OA
BRANCH 20 23
ATOM     23  CA  ASP P   7     -23.907  14.081  13.963  1.00 25.93 LIG 0.20  C 
BRANCH 23 24
ATOM     24  C   ASP P   7     -25.311  14.407  14.494  1.00 27.07 LIG 0.20  C 
ATOM     25 O    ASP P   7     -26.222  14.247  13.699  1.00 28.96 LIG-0.65  OA
ATOM     26 OXT  ASP P   7     -25.453  14.749  15.755  1.00 29.63 LIG-0.65  OA
ENDBRANCH 23 24
BRANCH 23 27
ATOM     27  CB  ASP P   7     -23.417  15.332  13.207  1.00 25.41 LIG 0.15  C 
BRANCH 27 28
ATOM     28  CG  ASP P   7     -22.300  15.042  12.236  1.00 25.37 LIG 0.17  C 
ATOM     29 OD1  ASP P   7     -22.380  14.198  11.316  1.00 26.66 LIG-0.65  OA
ATOM     30 OD2  ASP P   7     -21.246  15.750  12.380  1.00 23.76 LIG-0.65  OA
ENDBRANCH 27 28
ENDBRANCH 23 27
ENDBRANCH 20 23
ENDBRANCH 18 19
BRANCH 18 31
ATOM     31  CB  ASN P   6     -24.364   9.200  13.713  1.00 24.75 LIG 0.14  C 
BRANCH 31 32
ATOM     32  CG  ASN P   6     -23.626   7.966  13.242  1.00 27.24 LIG 0.22  C 
ATOM     33  ND2 ASN P   6     -24.320   7.336  12.296  1.00 23.85 LIG-0.37  N 
ATOM     34 21HD ASN P   6     -24.028   6.597  11.968  1.00 23.85 LIG 0.16  HD
ATOM     35 22HD ASN P   6     -25.062   7.669  12.013  1.00 23.85 LIG 0.16  HD
ATOM     36 OD1  ASN P   6     -22.528   7.634  13.776  1.00 24.90 LIG-0.27  OA
ENDBRANCH 31 32
ENDBRANCH 18 31
ENDBRANCH 16 18
ENDBRANCH 6 14
ENDBRANCH 4 6
ENDBRANCH 1 2
BRANCH 1 37
ATOM     37  CB  HIS P   4     -16.761  10.555  13.906  1.00 21.80 LIG 0.10  C 
BRANCH 37 38
ATOM     38  CG  HIS P   4     -16.762  12.016  13.573  1.00 23.01 LIG 0.06  A 
ATOM     39  CD2 HIS P   4     -15.858  12.833  13.033  1.00 23.26 LIG 0.14  A 
ATOM     40 NE2  HIS P   4     -16.492  14.022  12.775  1.00 21.45 LIG-0.25  NA
ATOM     41  CE1 HIS P   4     -17.773  13.938  13.121  1.00 22.12 LIG 0.23  A 
ATOM     42 ND1  HIS P   4     -17.969  12.745  13.587  1.00 22.83 LIG-0.24  NA
ENDBRANCH 37 38
ENDBRANCH 1 37
BRANCH 1 43
ATOM     43  N   HIS P   4     -15.529   9.878  11.801  1.00 22.02 LIG-0.35  N 
ATOM     44  C   SER P   3     -14.356   9.366  12.173  1.00 24.42 LIG 0.24  C 
ATOM     45 O    SER P   3     -14.242   8.740  13.239  1.00 24.72 LIG-0.27  OA
ATOM     46 H    HIS P   4     -15.672  10.338  11.088  1.00 22.02 LIG 0.16  HD
BRANCH 44 47
ATOM     47  CA  SER P   3     -13.134   9.657  11.318  1.00 22.14 LIG 0.20  C 
BRANCH 47 48
ATOM     48  CB  SER P   3     -12.049  10.439  12.087  1.00 23.32 LIG 0.20  C 
BRANCH 48 49
ATOM     49 OG   SER P   3     -12.501  11.793  12.307  1.00 23.11 LIG-0.40  OA
ATOM     50 HG   SER P   3     -12.116  12.111  12.982  1.00 23.11 LIG 0.21  HD
ENDBRANCH 48 49
ENDBRANCH 47 48
BRANCH 47 51
ATOM     51  N   SER P   3     -13.433  10.398  10.091  1.00 22.53 LIG-0.34  N 
ATOM     52 H    SER P   3     -13.552  11.243  10.201  1.00 22.53 LIG 0.16  HD
ATOM     53  C   VAL P   2     -13.507   9.777   8.919  1.00 22.76 LIG 0.24  C 
ATOM     54 O    VAL P   2     -13.488   8.528   8.832  1.00 25.85 LIG-0.27  OA
BRANCH 53 55
ATOM     55  CA  VAL P   2     -13.795  10.660   7.701  1.00 24.07 LIG 0.18  C 
BRANCH 55 56
ATOM     56  N   VAL P   2     -13.011  10.229   6.543  1.00 24.29 LIG-0.35  N 
ATOM     57 H    VAL P   2     -13.253   9.485   6.185  1.00 24.29 LIG 0.16  HD
ATOM     58  C   VAL P   1     -11.985  11.001   6.118  1.00 26.39 LIG 0.25  C 
ATOM     59 O    VAL P   1     -11.703  12.091   6.698  1.00 26.90 LIG-0.27  OA
BRANCH 58 60
ATOM     60  CA  VAL P   1     -11.209  10.549   4.889  1.00 27.40 LIG 0.28  C 
BRANCH 60 61
ATOM     61  CB  VAL P   1     -12.152   9.865   3.848  1.00 27.20 LIG 0.02  C 
ATOM     62  CG2 VAL P   1     -11.314   9.451   2.633  1.00 28.02 LIG 0.01  C 
ATOM     63  CG1 VAL P   1     -13.159  10.940   3.501  1.00 27.17 LIG 0.01  C 
ENDBRANCH 60 61
BRANCH 60 64
ATOM     64  N   VAL P   1     -10.162   9.631   5.210  1.00 29.12 LIG-0.07  N 
ATOM     65 H2   VAL P   1      -9.991   9.117   4.504  1.00 29.12 LIG 0.28  HD
ATOM     66 H1   VAL P   1     -10.415   9.120   5.894  1.00 29.12 LIG 0.28  HD
ATOM     67 H3   VAL P   1      -9.429  10.083   5.432  1.00 29.12 LIG 0.28  HD
ENDBRANCH 60 64
ENDBRANCH 58 60
ENDBRANCH 55 56
BRANCH 55 68
ATOM     68  CB  VAL P   2     -15.334  10.655   7.466  1.00 25.03 LIG 0.01  C 
ATOM     69  CG2 VAL P   2     -15.623  10.331   5.987  1.00 23.99 LIG 0.01  C 
ATOM     70  CG1 VAL P   2     -15.990  11.974   7.828  1.00 25.56 LIG 0.01  C 
ENDBRANCH 55 68
ENDBRANCH 53 55
ENDBRANCH 47 51
ENDBRANCH 44 47
ENDBRANCH 1 43
TORSDOF 26
ENDMDL
