MODEL 1
USER: ADFR SOLUTION from run 7
USER: SCORE 19.397559 LL:  -3.003 LR: -18.395 RR:   0.000 FEB: -11.833
USER: RMSD 3.599206
USER: SEED 228451
USER: STATUS 1 or 2 clusters left
USER: GENES 24
USER: genes 0 Translation |==|  0.49438 0.46423 0.55064
USER: genes 1 Rotation |==|  0.62007 0.51454 0.45179 0.98275
USER: genes 2 Torsion [N]-CA--C-[N] |==|  0.56860
USER: genes 3 Torsion [C]-N--CA-[CB] |==|  0.26072
USER: genes 4 Torsion [N]-CA--CB-[CG1] |==|  0.76656
USER: genes 5 Torsion [N]-CA--C-[N] |==|  0.43425
USER: genes 6 Torsion [C]-N--CA-[C] |==|  0.70329
USER: genes 7 Torsion [N]-CA--CB-[CG] |==|  0.77481
USER: genes 8 Torsion [CA]-CB--CG-[OD2] |==|  0.85558
USER: genes 9 Torsion [N]-CA--C-[OXT] |==|  0.95848
USER: genes 10 Torsion [C]-CA--CB-[CG] |==|  0.31569
USER: genes 11 Torsion [CA]-CB--CG-[CD] |==|  0.80228
USER: genes 12 Torsion [CB]-CG--CD-[OE2] |==|  0.74540
USER: genes 13 Torsion [C]-CA--N-[C] |==|  0.62087
USER: genes 14 Torsion [N]-C--CA-[N] |==|  0.48333
USER: genes 15 Torsion [C]-CA--N-[C] |==|  0.62060
USER: genes 16 Torsion [N]-C--CA-[N] |==|  0.99315
USER: genes 17 Torsion [C]-CA--N-[C] |==|  0.69752
USER: genes 18 Torsion [C]-CA--CB-[CG] |==|  0.28188
USER: genes 19 Torsion [CA]-CB--CG-[SD] |==|  0.62267
USER: genes 20 Torsion [CB]-CG--SD-[CE] |==|  0.14380
USER: genes 21 Torsion [C]-CA--CB-[CG] |==|  0.46503
USER: genes 22 Torsion [CA]-CB--CG-[CD] |==|  0.78976
USER: genes 23 Torsion [CB]-CG--CD-[OE1] |==|  0.06508
ROOT
ATOM      1  CA  GLU B   3      22.872   7.186  15.619  1.00 16.51 LIG 0.18  C 
ENDROOT
BRANCH 1 2
ATOM      2  C   GLU B   3      21.396   6.925  15.896  1.00 15.77 LIG 0.24  C 
ATOM      3 O    GLU B   3      20.847   5.945  15.412  1.00 14.97 LIG-0.27  OA
ATOM      4  N   VAL B   4      20.752   7.801  16.667  1.00 15.94 LIG-0.35  N 
ATOM      5 H    VAL B   4      21.118   8.477  17.051  1.00 15.94 LIG 0.16  HD
BRANCH 4 6
ATOM      6  CA  VAL B   4      19.317   7.648  16.913  1.00 14.46 LIG 0.18  C 
BRANCH 6 7
ATOM      7  CB  VAL B   4      18.987   6.867  18.207  1.00 12.41 LIG 0.01  C 
ATOM      8  CG1 VAL B   4      19.026   5.361  17.929  1.00 11.08 LIG 0.01  C 
ATOM      9  CG2 VAL B   4      19.942   7.242  19.322  1.00 12.26 LIG 0.01  C 
ENDBRANCH 6 7
BRANCH 6 10
ATOM     10  C   VAL B   4      18.701   9.039  16.989  1.00 16.25 LIG 0.24  C 
ATOM     11 O    VAL B   4      19.392  10.022  17.287  1.00 16.95 LIG-0.27  OA
ATOM     12  N   ASP B   5      17.401   9.114  16.721  1.00 16.26 LIG-0.34  N 
ATOM     13 H    ASP B   5      16.913   8.429  16.537  1.00 16.26 LIG 0.16  HD
BRANCH 12 14
ATOM     14  CA  ASP B   5      16.675  10.375  16.713  1.00 17.99 LIG 0.20  C 
BRANCH 14 15
ATOM     15  CB  ASP B   5      15.854  10.458  15.426  1.00 19.95 LIG 0.15  C 
BRANCH 15 16
ATOM     16  CG  ASP B   5      16.685  10.903  14.240  1.00 23.79 LIG 0.17  C 
ATOM     17 OD2  ASP B   5      17.375  11.951  14.332  1.00 26.04 LIG-0.65  OA
ATOM     18 OD1  ASP B   5      16.636  10.213  13.205  1.00 23.66 LIG-0.65  OA
ENDBRANCH 15 16
ENDBRANCH 14 15
BRANCH 14 19
ATOM     19  C   ASP B   5      15.753  10.543  17.926  1.00 17.70 LIG 0.20  C 
ATOM     20 OXT  ASP B   5      15.494   9.530  18.608  1.00 18.22 LIG-0.65  OA
ATOM     21 O    ASP B   5      15.322  11.679  18.183  1.00 17.62 LIG-0.65  OA
ENDBRANCH 14 19
ENDBRANCH 12 14
ENDBRANCH 6 10
ENDBRANCH 4 6
ENDBRANCH 1 2
BRANCH 1 22
ATOM     22  CB  GLU B   3      23.072   8.709  15.563  1.00 19.71 LIG 0.04  C 
BRANCH 22 23
ATOM     23  CG  GLU B   3      23.925   9.286  16.680  1.00 25.47 LIG 0.12  C 
BRANCH 23 24
ATOM     24  CD  GLU B   3      23.213   9.263  18.033  1.00 29.25 LIG 0.17  C 
ATOM     25 OE1  GLU B   3      23.322   8.245  18.761  1.00 30.05 LIG-0.65  OA
ATOM     26 OE2  GLU B   3      22.548  10.271  18.367  1.00 32.05 LIG-0.65  OA
ENDBRANCH 23 24
ENDBRANCH 22 23
ENDBRANCH 1 22
BRANCH 1 27
ATOM     27  N   GLU B   3      23.347   6.571  14.376  1.00 15.41 LIG-0.35  N 
ATOM     28 H    GLU B   3      22.811   6.662  13.709  1.00 15.41 LIG 0.16  HD
ATOM     29  C   GLU B   2      24.510   5.933  14.307  1.00 15.20 LIG 0.24  C 
ATOM     30 O    GLU B   2      25.254   5.804  15.278  1.00 15.89 LIG-0.27  OA
BRANCH 29 31
ATOM     31  CA  GLU B   2      24.905   5.341  12.953  1.00 14.92 LIG 0.18  C 
BRANCH 31 32
ATOM     32  N   GLU B   2      26.263   4.831  13.106  1.00 15.61 LIG-0.35  N 
ATOM     33 H    GLU B   2      26.403   4.400  13.836  1.00 15.61 LIG 0.16  HD
ATOM     34  C   MET B   1      27.190   5.035  12.171  1.00 15.57 LIG 0.24  C 
ATOM     35 O    MET B   1      26.955   5.626  11.111  1.00 13.81 LIG-0.27  OA
BRANCH 34 36
ATOM     36  CA  MET B   1      28.593   4.503  12.486  1.00 16.08 LIG 0.18  C 
BRANCH 36 37
ATOM     37  N   MET B   1      28.673   3.904  13.815  1.00 16.60 LIG-0.35  N 
ATOM     38  C   ACE B   0      29.329   4.485  14.811  1.00 26.43 LIG 0.21  C 
ATOM     39 O    ACE B   0      29.894   5.573  14.698  1.00 27.07 LIG-0.27  OA
ATOM     40  CH3 ACE B   0      29.342   3.738  16.120  1.00 28.67 LIG 0.12  C 
ATOM     41 H    MET B   1      28.261   3.152  13.889  1.00 16.60 LIG 0.16  HD
ENDBRANCH 36 37
BRANCH 36 42
ATOM     42  CB  MET B   1      28.951   3.456  11.418  1.00 17.95 LIG 0.04  C 
BRANCH 42 43
ATOM     43  CG  MET B   1      29.875   3.920  10.319  1.00 19.71 LIG 0.08  C 
BRANCH 43 44
ATOM     44 SD   MET B   1      29.272   3.341   8.716  1.00 23.85 LIG-0.17  SA
ATOM     45  CE  MET B   1      27.583   3.908   8.781  1.00 19.76 LIG 0.09  C 
ENDBRANCH 43 44
ENDBRANCH 42 43
ENDBRANCH 36 42
ENDBRANCH 34 36
ENDBRANCH 31 32
BRANCH 31 46
ATOM     46  CB  GLU B   2      23.945   4.196  12.585  1.00 14.50 LIG 0.04  C 
BRANCH 46 47
ATOM     47  CG  GLU B   2      24.050   3.736  11.140  1.00 15.26 LIG 0.12  C 
BRANCH 47 48
ATOM     48  CD  GLU B   2      23.386   4.718  10.200  1.00 15.63 LIG 0.17  C 
ATOM     49 OE1  GLU B   2      23.253   5.903  10.568  1.00 15.54 LIG-0.65  OA
ATOM     50 OE2  GLU B   2      23.015   4.316   9.082  1.00 15.63 LIG-0.65  OA
ENDBRANCH 47 48
ENDBRANCH 46 47
ENDBRANCH 31 46
ENDBRANCH 29 31
ENDBRANCH 1 27
TORSDOF 22
ENDMDL
MODEL 2
USER: ADFR SOLUTION from run 22
USER: SCORE 18.944637 LL:  -2.203 LR: -18.032 RR:   0.000 FEB: -11.469
USER: RMSD 4.926239
USER: SEED 21
USER: STATUS no improvement in best in 2 clusters for 5 generations
USER: GENES 24
USER: genes 0 Translation |==|  0.57458 0.35682 0.40336
USER: genes 1 Rotation |==|  0.10754 0.65876 0.63895 0.72686
USER: genes 2 Torsion [N]-CA--C-[N] |==|  0.44433
USER: genes 3 Torsion [C]-N--CA-[CB] |==|  0.20111
USER: genes 4 Torsion [N]-CA--CB-[CG1] |==|  0.71576
USER: genes 5 Torsion [N]-CA--C-[N] |==|  0.40121
USER: genes 6 Torsion [C]-N--CA-[C] |==|  0.17905
USER: genes 7 Torsion [N]-CA--CB-[CG] |==|  0.53590
USER: genes 8 Torsion [CA]-CB--CG-[OD2] |==|  0.35072
USER: genes 9 Torsion [N]-CA--C-[OXT] |==|  0.25741
USER: genes 10 Torsion [C]-CA--CB-[CG] |==|  0.40172
USER: genes 11 Torsion [CA]-CB--CG-[CD] |==|  0.82359
USER: genes 12 Torsion [CB]-CG--CD-[OE2] |==|  0.54983
USER: genes 13 Torsion [C]-CA--N-[C] |==|  0.70579
USER: genes 14 Torsion [N]-C--CA-[N] |==|  0.92813
USER: genes 15 Torsion [C]-CA--N-[C] |==|  0.81290
USER: genes 16 Torsion [N]-C--CA-[N] |==|  0.13152
USER: genes 17 Torsion [C]-CA--N-[C] |==|  0.17012
USER: genes 18 Torsion [C]-CA--CB-[CG] |==|  0.38941
USER: genes 19 Torsion [CA]-CB--CG-[SD] |==|  0.19659
USER: genes 20 Torsion [CB]-CG--SD-[CE] |==|  0.75148
USER: genes 21 Torsion [C]-CA--CB-[CG] |==|  0.43626
USER: genes 22 Torsion [CA]-CB--CG-[CD] |==|  0.50066
USER: genes 23 Torsion [CB]-CG--CD-[OE1] |==|  0.93838
ROOT
ATOM      1  CA  GLU B   3      24.857   5.253  12.968  1.00 16.51 LIG 0.18  C 
ENDROOT
BRANCH 1 2
ATOM      2  C   GLU B   3      24.180   6.071  14.061  1.00 15.77 LIG 0.24  C 
ATOM      3 O    GLU B   3      24.542   5.956  15.224  1.00 14.97 LIG-0.27  OA
ATOM      4  N   VAL B   4      23.196   6.891  13.694  1.00 15.94 LIG-0.35  N 
ATOM      5 H    VAL B   4      22.944   7.021  12.883  1.00 15.94 LIG 0.16  HD
BRANCH 4 6
ATOM      6  CA  VAL B   4      22.457   7.650  14.704  1.00 14.46 LIG 0.18  C 
BRANCH 6 7
ATOM      7  CB  VAL B   4      23.267   8.810  15.329  1.00 12.41 LIG 0.01  C 
ATOM      8  CG1 VAL B   4      23.772   8.402  16.716  1.00 11.08 LIG 0.01  C 
ATOM      9  CG2 VAL B   4      24.417   9.212  14.426  1.00 12.26 LIG 0.01  C 
ENDBRANCH 6 7
BRANCH 6 10
ATOM     10  C   VAL B   4      21.199   8.207  14.049  1.00 16.25 LIG 0.24  C 
ATOM     11 O    VAL B   4      21.213   8.581  12.869  1.00 16.95 LIG-0.27  OA
ATOM     12  N   ASP B   5      20.116   8.258  14.819  1.00 16.26 LIG-0.34  N 
ATOM     13 H    ASP B   5      20.110   8.020  15.646  1.00 16.26 LIG 0.16  HD
BRANCH 12 14
ATOM     14  CA  ASP B   5      18.829   8.728  14.329  1.00 17.99 LIG 0.20  C 
BRANCH 14 15
ATOM     15  CB  ASP B   5      19.000  10.149  13.793  1.00 19.95 LIG 0.15  C 
BRANCH 15 16
ATOM     16  CG  ASP B   5      17.672  10.837  13.551  1.00 23.79 LIG 0.17  C 
ATOM     17 OD2  ASP B   5      17.456  11.959  14.078  1.00 26.04 LIG-0.65  OA
ATOM     18 OD1  ASP B   5      16.833  10.247  12.846  1.00 23.66 LIG-0.65  OA
ENDBRANCH 15 16
ENDBRANCH 14 15
BRANCH 14 19
ATOM     19  C   ASP B   5      18.242   7.830  13.235  1.00 17.70 LIG 0.20  C 
ATOM     20 OXT  ASP B   5      17.465   6.916  13.582  1.00 18.22 LIG-0.65  OA
ATOM     21 O    ASP B   5      18.551   8.064  12.055  1.00 17.62 LIG-0.65  OA
ENDBRANCH 14 19
ENDBRANCH 12 14
ENDBRANCH 6 10
ENDBRANCH 4 6
ENDBRANCH 1 2
BRANCH 1 22
ATOM     22  CB  GLU B   3      23.931   4.075  12.627  1.00 19.71 LIG 0.04  C 
BRANCH 22 23
ATOM     23  CG  GLU B   3      23.921   3.667  11.163  1.00 25.47 LIG 0.12  C 
BRANCH 23 24
ATOM     24  CD  GLU B   3      23.387   4.772  10.251  1.00 29.25 LIG 0.17  C 
ATOM     25 OE1  GLU B   3      23.350   5.952  10.681  1.00 30.05 LIG-0.65  OA
ATOM     26 OE2  GLU B   3      23.011   4.455   9.099  1.00 32.05 LIG-0.65  OA
ENDBRANCH 23 24
ENDBRANCH 22 23
ENDBRANCH 1 22
BRANCH 1 27
ATOM     27  N   GLU B   3      26.182   4.755  13.350  1.00 15.41 LIG-0.35  N 
ATOM     28 H    GLU B   3      26.166   4.102  13.909  1.00 15.41 LIG 0.16  HD
ATOM     29  C   GLU B   2      27.299   5.284  12.861  1.00 15.20 LIG 0.24  C 
ATOM     30 O    GLU B   2      27.296   6.227  12.073  1.00 15.89 LIG-0.27  OA
BRANCH 29 31
ATOM     31  CA  GLU B   2      28.623   4.673  13.325  1.00 14.92 LIG 0.18  C 
BRANCH 31 32
ATOM     32  N   GLU B   2      28.367   4.081  14.634  1.00 15.61 LIG-0.35  N 
ATOM     33 H    GLU B   2      28.416   3.222  14.653  1.00 15.61 LIG 0.16  HD
ATOM     34  C   MET B   1      28.085   4.836  15.694  1.00 15.57 LIG 0.24  C 
ATOM     35 O    MET B   1      28.059   6.070  15.650  1.00 13.81 LIG-0.27  OA
BRANCH 34 36
ATOM     36  CA  MET B   1      27.774   4.083  16.993  1.00 16.08 LIG 0.18  C 
BRANCH 36 37
ATOM     37  N   MET B   1      28.750   3.034  17.273  1.00 16.60 LIG-0.35  N 
ATOM     38  C   ACE B   0      30.036   3.301  17.459  1.00 26.43 LIG 0.21  C 
ATOM     39 O    ACE B   0      30.495   4.443  17.435  1.00 27.07 LIG-0.27  OA
ATOM     40  CH3 ACE B   0      30.928   2.114  17.718  1.00 28.67 LIG 0.12  C 
ATOM     41 H    MET B   1      28.417   2.241  17.304  1.00 16.60 LIG 0.16  HD
ENDBRANCH 36 37
BRANCH 36 42
ATOM     42  CB  MET B   1      27.766   5.108  18.140  1.00 17.95 LIG 0.04  C 
BRANCH 42 43
ATOM     43  CG  MET B   1      26.693   4.922  19.185  1.00 19.71 LIG 0.08  C 
BRANCH 43 44
ATOM     44 SD   MET B   1      27.048   3.458  20.186  1.00 23.85 LIG-0.17  SA
ATOM     45  CE  MET B   1      26.206   2.205  19.237  1.00 19.76 LIG 0.09  C 
ENDBRANCH 43 44
ENDBRANCH 42 43
ENDBRANCH 36 42
ENDBRANCH 34 36
ENDBRANCH 31 32
BRANCH 31 46
ATOM     46  CB  GLU B   2      29.074   3.591  12.329  1.00 14.50 LIG 0.04  C 
BRANCH 46 47
ATOM     47  CG  GLU B   2      30.567   3.307  12.352  1.00 15.26 LIG 0.12  C 
BRANCH 47 48
ATOM     48  CD  GLU B   2      30.941   2.240  11.347  1.00 15.63 LIG 0.17  C 
ATOM     49 OE1  GLU B   2      30.058   1.449  10.957  1.00 15.54 LIG-0.65  OA
ATOM     50 OE2  GLU B   2      32.112   2.199  10.927  1.00 15.63 LIG-0.65  OA
ENDBRANCH 47 48
ENDBRANCH 46 47
ENDBRANCH 31 46
ENDBRANCH 29 31
ENDBRANCH 1 27
TORSDOF 22
ENDMDL
MODEL 3
USER: ADFR SOLUTION from run 171
USER: SCORE 18.042576 LL:  -1.897 LR: -17.558 RR:   0.000 FEB: -10.996
USER: RMSD 5.325344
USER: SEED 170
USER: STATUS no improvement in best in 3 clusters for 5 generations
USER: GENES 24
USER: genes 0 Translation |==|  0.55441 0.33241 0.37496
USER: genes 1 Rotation |==|  0.14498 0.68809 0.74420 0.67016
USER: genes 2 Torsion [N]-CA--C-[N] |==|  0.43723
USER: genes 3 Torsion [C]-N--CA-[CB] |==|  0.21395
USER: genes 4 Torsion [N]-CA--CB-[CG1] |==|  0.39699
USER: genes 5 Torsion [N]-CA--C-[N] |==|  0.84965
USER: genes 6 Torsion [C]-N--CA-[C] |==|  0.81208
USER: genes 7 Torsion [N]-CA--CB-[CG] |==|  0.57554
USER: genes 8 Torsion [CA]-CB--CG-[OD2] |==|  0.77030
USER: genes 9 Torsion [N]-CA--C-[OXT] |==|  0.61478
USER: genes 10 Torsion [C]-CA--CB-[CG] |==|  0.42564
USER: genes 11 Torsion [CA]-CB--CG-[CD] |==|  0.98911
USER: genes 12 Torsion [CB]-CG--CD-[OE2] |==|  0.77290
USER: genes 13 Torsion [C]-CA--N-[C] |==|  0.68149
USER: genes 14 Torsion [N]-C--CA-[N] |==|  0.98431
USER: genes 15 Torsion [C]-CA--N-[C] |==|  0.61111
USER: genes 16 Torsion [N]-C--CA-[N] |==|  0.14944
USER: genes 17 Torsion [C]-CA--N-[C] |==|  0.14667
USER: genes 18 Torsion [C]-CA--CB-[CG] |==|  0.36274
USER: genes 19 Torsion [CA]-CB--CG-[SD] |==|  0.01335
USER: genes 20 Torsion [CB]-CG--SD-[CE] |==|  0.31837
USER: genes 21 Torsion [C]-CA--CB-[CG] |==|  0.49450
USER: genes 22 Torsion [CA]-CB--CG-[CD] |==|  0.61583
USER: genes 23 Torsion [CB]-CG--CD-[OE1] |==|  0.48047
ROOT
ATOM      1  CA  GLU B   3      24.358   4.813  12.456  1.00 16.51 LIG 0.18  C 
ENDROOT
BRANCH 1 2
ATOM      2  C   GLU B   3      24.202   5.593  13.756  1.00 15.77 LIG 0.24  C 
ATOM      3 O    GLU B   3      25.067   5.524  14.619  1.00 14.97 LIG-0.27  OA
ATOM      4  N   VAL B   4      23.101   6.329  13.903  1.00 15.94 LIG-0.35  N 
ATOM      5 H    VAL B   4      22.494   6.427  13.302  1.00 15.94 LIG 0.16  HD
BRANCH 4 6
ATOM      6  CA  VAL B   4      22.856   7.045  15.156  1.00 14.46 LIG 0.18  C 
BRANCH 6 7
ATOM      7  CB  VAL B   4      23.693   8.336  15.311  1.00 12.41 LIG 0.01  C 
ATOM      8  CG1 VAL B   4      22.857   9.417  16.004  1.00 11.08 LIG 0.01  C 
ATOM      9  CG2 VAL B   4      24.973   8.061  16.075  1.00 12.26 LIG 0.01  C 
ENDBRANCH 6 7
BRANCH 6 10
ATOM     10  C   VAL B   4      21.374   7.391  15.220  1.00 16.25 LIG 0.24  C 
ATOM     11 O    VAL B   4      20.688   7.059  16.196  1.00 16.95 LIG-0.27  OA
ATOM     12  N   ASP B   5      20.887   8.057  14.177  1.00 16.26 LIG-0.34  N 
ATOM     13 H    ASP B   5      21.356   8.269  13.488  1.00 16.26 LIG 0.16  HD
BRANCH 12 14
ATOM     14  CA  ASP B   5      19.500   8.495  14.106  1.00 17.99 LIG 0.20  C 
BRANCH 14 15
ATOM     15  CB  ASP B   5      19.344   9.425  12.904  1.00 19.95 LIG 0.15  C 
BRANCH 15 16
ATOM     16  CG  ASP B   5      18.215  10.419  13.087  1.00 23.79 LIG 0.17  C 
ATOM     17 OD2  ASP B   5      17.036  10.063  12.833  1.00 26.04 LIG-0.65  OA
ATOM     18 OD1  ASP B   5      18.509  11.566  13.471  1.00 23.66 LIG-0.65  OA
ENDBRANCH 15 16
ENDBRANCH 14 15
BRANCH 14 19
ATOM     19  C   ASP B   5      18.511   7.331  13.992  1.00 17.70 LIG 0.20  C 
ATOM     20 OXT  ASP B   5      17.549   7.456  13.204  1.00 18.22 LIG-0.65  OA
ATOM     21 O    ASP B   5      18.719   6.313  14.672  1.00 17.62 LIG-0.65  OA
ENDBRANCH 14 19
ENDBRANCH 12 14
ENDBRANCH 6 10
ENDBRANCH 4 6
ENDBRANCH 1 2
BRANCH 1 22
ATOM     22  CB  GLU B   3      23.522   3.530  12.581  1.00 19.71 LIG 0.04  C 
BRANCH 22 23
ATOM     23  CG  GLU B   3      23.026   2.956  11.264  1.00 25.47 LIG 0.12  C 
BRANCH 23 24
ATOM     24  CD  GLU B   3      23.386   3.838  10.067  1.00 29.25 LIG 0.17  C 
ATOM     25 OE1  GLU B   3      24.391   3.542   9.374  1.00 30.05 LIG-0.65  OA
ATOM     26 OE2  GLU B   3      22.654   4.825   9.821  1.00 32.05 LIG-0.65  OA
ENDBRANCH 23 24
ENDBRANCH 22 23
ENDBRANCH 1 22
BRANCH 1 27
ATOM     27  N   GLU B   3      25.750   4.477  12.143  1.00 15.41 LIG-0.35  N 
ATOM     28 H    GLU B   3      26.116   3.934  12.701  1.00 15.41 LIG 0.16  HD
ATOM     29  C   GLU B   2      26.373   4.980  11.084  1.00 15.20 LIG 0.24  C 
ATOM     30 O    GLU B   2      25.833   5.765  10.307  1.00 15.89 LIG-0.27  OA
BRANCH 29 31
ATOM     31  CA  GLU B   2      27.823   4.547  10.854  1.00 14.92 LIG 0.18  C 
BRANCH 31 32
ATOM     32  N   GLU B   2      28.201   3.741  12.010  1.00 15.61 LIG-0.35  N 
ATOM     33 H    GLU B   2      27.586   3.209  12.291  1.00 15.61 LIG 0.16  HD
ATOM     34  C   MET B   1      29.408   3.844  12.562  1.00 15.57 LIG 0.24  C 
ATOM     35 O    MET B   1      30.288   4.589  12.117  1.00 13.81 LIG-0.27  OA
BRANCH 34 36
ATOM     36  CA  MET B   1      29.653   2.989  13.811  1.00 16.08 LIG 0.18  C 
BRANCH 36 37
ATOM     37  N   MET B   1      29.356   1.577  13.582  1.00 16.60 LIG-0.35  N 
ATOM     38  C   ACE B   0      29.885   0.902  12.570  1.00 26.43 LIG 0.21  C 
ATOM     39 O    ACE B   0      30.677   1.402  11.771  1.00 27.07 LIG-0.27  OA
ATOM     40  CH3 ACE B   0      29.471  -0.541  12.449  1.00 28.67 LIG 0.12  C 
ATOM     41 H    MET B   1      28.815   1.233  14.155  1.00 16.60 LIG 0.16  HD
ENDBRANCH 36 37
BRANCH 36 42
ATOM     42  CB  MET B   1      31.128   3.154  14.213  1.00 17.95 LIG 0.04  C 
BRANCH 42 43
ATOM     43  CG  MET B   1      31.387   3.477  15.664  1.00 19.71 LIG 0.08  C 
BRANCH 43 44
ATOM     44 SD   MET B   1      29.835   3.446  16.592  1.00 23.85 LIG-0.17  SA
ATOM     45  CE  MET B   1      30.132   2.063  17.676  1.00 19.76 LIG 0.09  C 
ENDBRANCH 43 44
ENDBRANCH 42 43
ENDBRANCH 36 42
ENDBRANCH 34 36
ENDBRANCH 31 32
BRANCH 31 46
ATOM     46  CB  GLU B   2      27.918   3.709   9.567  1.00 14.50 LIG 0.04  C 
BRANCH 46 47
ATOM     47  CG  GLU B   2      29.329   3.264   9.216  1.00 15.26 LIG 0.12  C 
BRANCH 47 48
ATOM     48  CD  GLU B   2      29.595   3.396   7.732  1.00 15.63 LIG 0.17  C 
ATOM     49 OE1  GLU B   2      30.753   3.195   7.312  1.00 15.54 LIG-0.65  OA
ATOM     50 OE2  GLU B   2      28.647   3.679   6.978  1.00 15.63 LIG-0.65  OA
ENDBRANCH 47 48
ENDBRANCH 46 47
ENDBRANCH 31 46
ENDBRANCH 29 31
ENDBRANCH 1 27
TORSDOF 22
ENDMDL
MODEL 4
USER: ADFR SOLUTION from run 159
USER: SCORE 17.519979 LL:  -2.349 LR: -17.546 RR:   0.000 FEB: -10.984
USER: RMSD 10.748587
USER: SEED 158
USER: STATUS no improvement in best in 12 clusters for 5 generations
USER: GENES 24
USER: genes 0 Translation |==|  0.54165 0.32549 0.43048
USER: genes 1 Rotation |==|  0.34821 0.56158 0.02874 0.53292
USER: genes 2 Torsion [N]-CA--C-[N] |==|  0.50413
USER: genes 3 Torsion [C]-N--CA-[CB] |==|  0.27479
USER: genes 4 Torsion [N]-CA--CB-[CG1] |==|  0.41023
USER: genes 5 Torsion [N]-CA--C-[N] |==|  0.33077
USER: genes 6 Torsion [C]-N--CA-[C] |==|  0.79242
USER: genes 7 Torsion [N]-CA--CB-[CG] |==|  0.54776
USER: genes 8 Torsion [CA]-CB--CG-[OD2] |==|  0.79237
USER: genes 9 Torsion [N]-CA--C-[OXT] |==|  0.24700
USER: genes 10 Torsion [C]-CA--CB-[CG] |==|  0.91916
USER: genes 11 Torsion [CA]-CB--CG-[CD] |==|  0.76611
USER: genes 12 Torsion [CB]-CG--CD-[OE2] |==|  0.65405
USER: genes 13 Torsion [C]-CA--N-[C] |==|  0.76162
USER: genes 14 Torsion [N]-C--CA-[N] |==|  0.40005
USER: genes 15 Torsion [C]-CA--N-[C] |==|  0.68157
USER: genes 16 Torsion [N]-C--CA-[N] |==|  0.67490
USER: genes 17 Torsion [C]-CA--N-[C] |==|  0.11111
USER: genes 18 Torsion [C]-CA--CB-[CG] |==|  0.35488
USER: genes 19 Torsion [CA]-CB--CG-[SD] |==|  0.92194
USER: genes 20 Torsion [CB]-CG--SD-[CE] |==|  0.75986
USER: genes 21 Torsion [C]-CA--CB-[CG] |==|  0.35903
USER: genes 22 Torsion [CA]-CB--CG-[CD] |==|  0.14014
USER: genes 23 Torsion [CB]-CG--CD-[OE1] |==|  0.77082
ROOT
ATOM      1  CA  GLU B   3      24.042   4.689  13.456  1.00 16.51 LIG 0.18  C 
ENDROOT
BRANCH 1 2
ATOM      2  C   GLU B   3      25.383   5.284  13.045  1.00 15.77 LIG 0.24  C 
ATOM      3 O    GLU B   3      25.474   6.480  12.803  1.00 14.97 LIG-0.27  OA
ATOM      4  N   VAL B   4      26.423   4.455  12.961  1.00 15.94 LIG-0.35  N 
ATOM      5 H    VAL B   4      26.400   3.619  13.160  1.00 15.94 LIG 0.16  HD
BRANCH 4 6
ATOM      6  CA  VAL B   4      27.722   4.949  12.502  1.00 14.46 LIG 0.18  C 
BRANCH 6 7
ATOM      7  CB  VAL B   4      28.711   5.262  13.651  1.00 12.41 LIG 0.01  C 
ATOM      8  CG1 VAL B   4      30.146   4.984  13.191  1.00 11.08 LIG 0.01  C 
ATOM      9  CG2 VAL B   4      28.555   6.694  14.121  1.00 12.26 LIG 0.01  C 
ENDBRANCH 6 7
BRANCH 6 10
ATOM     10  C   VAL B   4      28.331   3.896  11.584  1.00 16.25 LIG 0.24  C 
ATOM     11 O    VAL B   4      28.579   2.758  12.003  1.00 16.95 LIG-0.27  OA
ATOM     12  N   ASP B   5      28.568   4.283  10.334  1.00 16.26 LIG-0.34  N 
ATOM     13 H    ASP B   5      28.418   5.079  10.046  1.00 16.26 LIG 0.16  HD
BRANCH 12 14
ATOM     14  CA  ASP B   5      29.110   3.383   9.326  1.00 17.99 LIG 0.20  C 
BRANCH 14 15
ATOM     15  CB  ASP B   5      28.870   3.995   7.946  1.00 19.95 LIG 0.15  C 
BRANCH 15 16
ATOM     16  CG  ASP B   5      29.010   2.978   6.832  1.00 23.79 LIG 0.17  C 
ATOM     17 OD2  ASP B   5      30.159   2.589   6.497  1.00 26.04 LIG-0.65  OA
ATOM     18 OD1  ASP B   5      27.970   2.578   6.277  1.00 23.66 LIG-0.65  OA
ENDBRANCH 15 16
ENDBRANCH 14 15
BRANCH 14 19
ATOM     19  C   ASP B   5      30.604   3.103   9.515  1.00 17.70 LIG 0.20  C 
ATOM     20 OXT  ASP B   5      30.933   2.145  10.245  1.00 18.22 LIG-0.65  OA
ATOM     21 O    ASP B   5      31.417   3.829   8.920  1.00 17.62 LIG-0.65  OA
ENDBRANCH 14 19
ENDBRANCH 12 14
ENDBRANCH 6 10
ENDBRANCH 4 6
ENDBRANCH 1 2
BRANCH 1 22
ATOM     22  CB  GLU B   3      23.708   3.566  12.461  1.00 19.71 LIG 0.04  C 
BRANCH 22 23
ATOM     23  CG  GLU B   3      24.281   3.752  11.066  1.00 25.47 LIG 0.12  C 
BRANCH 23 24
ATOM     24  CD  GLU B   3      23.398   4.635  10.183  1.00 29.25 LIG 0.17  C 
ATOM     25 OE1  GLU B   3      23.099   5.788  10.581  1.00 30.05 LIG-0.65  OA
ATOM     26 OE2  GLU B   3      23.011   4.172   9.085  1.00 32.05 LIG-0.65  OA
ENDBRANCH 23 24
ENDBRANCH 22 23
ENDBRANCH 1 22
BRANCH 1 27
ATOM     27  N   GLU B   3      22.955   5.672  13.487  1.00 15.41 LIG-0.35  N 
ATOM     28 H    GLU B   3      22.496   5.714  12.761  1.00 15.41 LIG 0.16  HD
ATOM     29  C   GLU B   2      22.718   6.423  14.556  1.00 15.20 LIG 0.24  C 
ATOM     30 O    GLU B   2      23.396   6.355  15.579  1.00 15.89 LIG-0.27  OA
BRANCH 29 31
ATOM     31  CA  GLU B   2      21.548   7.407  14.475  1.00 14.92 LIG 0.18  C 
BRANCH 31 32
ATOM     32  N   GLU B   2      20.944   7.440  15.802  1.00 15.61 LIG-0.35  N 
ATOM     33 H    GLU B   2      21.451   7.764  16.417  1.00 15.61 LIG 0.16  HD
ATOM     34  C   MET B   1      19.706   6.998  16.013  1.00 15.57 LIG 0.24  C 
ATOM     35 O    MET B   1      18.984   6.571  15.106  1.00 13.81 LIG-0.27  OA
BRANCH 34 36
ATOM     36  CA  MET B   1      19.217   7.029  17.465  1.00 16.08 LIG 0.18  C 
BRANCH 36 37
ATOM     37  N   MET B   1      18.927   5.693  17.981  1.00 16.60 LIG-0.35  N 
ATOM     38  C   ACE B   0      19.697   4.650  17.702  1.00 26.43 LIG 0.21  C 
ATOM     39 O    ACE B   0      20.716   4.731  17.016  1.00 27.07 LIG-0.27  OA
ATOM     40  CH3 ACE B   0      19.261   3.331  18.287  1.00 28.67 LIG 0.12  C 
ATOM     41 H    MET B   1      18.222   5.650  18.472  1.00 16.60 LIG 0.16  HD
ENDBRANCH 36 37
BRANCH 36 42
ATOM     42  CB  MET B   1      20.313   7.691  18.318  1.00 17.95 LIG 0.04  C 
BRANCH 42 43
ATOM     43  CG  MET B   1      19.869   8.838  19.192  1.00 19.71 LIG 0.08  C 
BRANCH 43 44
ATOM     44 SD   MET B   1      18.436   9.660  18.455  1.00 23.85 LIG-0.17  SA
ATOM     45  CE  MET B   1      19.249  10.815  17.367  1.00 19.76 LIG 0.09  C 
ENDBRANCH 43 44
ENDBRANCH 42 43
ENDBRANCH 36 42
ENDBRANCH 34 36
ENDBRANCH 31 32
BRANCH 31 46
ATOM     46  CB  GLU B   2      22.068   8.803  14.091  1.00 14.50 LIG 0.04  C 
BRANCH 46 47
ATOM     47  CG  GLU B   2      21.331   9.443  12.925  1.00 15.26 LIG 0.12  C 
BRANCH 47 48
ATOM     48  CD  GLU B   2      19.833   9.404  13.132  1.00 15.63 LIG 0.17  C 
ATOM     49 OE1  GLU B   2      19.215   8.361  12.840  1.00 15.54 LIG-0.65  OA
ATOM     50 OE2  GLU B   2      19.270  10.407  13.609  1.00 15.63 LIG-0.65  OA
ENDBRANCH 47 48
ENDBRANCH 46 47
ENDBRANCH 31 46
ENDBRANCH 29 31
ENDBRANCH 1 27
TORSDOF 22
ENDMDL
MODEL 5
USER: ADFR SOLUTION from run 93
USER: SCORE 18.917468 LL:  -2.900 LR: -17.531 RR:   0.000 FEB: -10.969
USER: RMSD 4.112824
USER: SEED 92
USER: STATUS no improvement in best in 6 clusters for 5 generations
USER: GENES 24
USER: genes 0 Translation |==|  0.50314 0.49917 0.58680
USER: genes 1 Rotation |==|  0.39153 0.42445 0.52623 0.98150
USER: genes 2 Torsion [N]-CA--C-[N] |==|  0.41223
USER: genes 3 Torsion [C]-N--CA-[CB] |==|  0.23823
USER: genes 4 Torsion [N]-CA--CB-[CG1] |==|  0.74615
USER: genes 5 Torsion [N]-CA--C-[N] |==|  0.39268
USER: genes 6 Torsion [C]-N--CA-[C] |==|  0.76770
USER: genes 7 Torsion [N]-CA--CB-[CG] |==|  0.79093
USER: genes 8 Torsion [CA]-CB--CG-[OD2] |==|  0.33922
USER: genes 9 Torsion [N]-CA--C-[OXT] |==|  0.95823
USER: genes 10 Torsion [C]-CA--CB-[CG] |==|  0.07223
USER: genes 11 Torsion [CA]-CB--CG-[CD] |==|  0.72111
USER: genes 12 Torsion [CB]-CG--CD-[OE2] |==|  0.83065
USER: genes 13 Torsion [C]-CA--N-[C] |==|  0.61304
USER: genes 14 Torsion [N]-C--CA-[N] |==|  0.13474
USER: genes 15 Torsion [C]-CA--N-[C] |==|  0.15209
USER: genes 16 Torsion [N]-C--CA-[N] |==|  0.89104
USER: genes 17 Torsion [C]-CA--N-[C] |==|  0.71418
USER: genes 18 Torsion [C]-CA--CB-[CG] |==|  0.88622
USER: genes 19 Torsion [CA]-CB--CG-[SD] |==|  0.67023
USER: genes 20 Torsion [CB]-CG--SD-[CE] |==|  0.32299
USER: genes 21 Torsion [C]-CA--CB-[CG] |==|  0.47351
USER: genes 22 Torsion [CA]-CB--CG-[CD] |==|  0.69050
USER: genes 23 Torsion [CB]-CG--CD-[OE1] |==|  0.27753
ROOT
ATOM      1  CA  GLU B   3      23.089   7.815  16.269  1.00 16.51 LIG 0.18  C 
ENDROOT
BRANCH 1 2
ATOM      2  C   GLU B   3      21.636   7.364  16.361  1.00 15.77 LIG 0.24  C 
ATOM      3 O    GLU B   3      21.282   6.327  15.816  1.00 14.97 LIG-0.27  OA
ATOM      4  N   VAL B   4      20.793   8.141  17.040  1.00 15.94 LIG-0.35  N 
ATOM      5 H    VAL B   4      21.018   8.854  17.463  1.00 15.94 LIG 0.16  HD
BRANCH 4 6
ATOM      6  CA  VAL B   4      19.370   7.803  17.104  1.00 14.46 LIG 0.18  C 
BRANCH 6 7
ATOM      7  CB  VAL B   4      19.016   6.810  18.237  1.00 12.41 LIG 0.01  C 
ATOM      8  CG1 VAL B   4      19.086   5.374  17.709  1.00 11.08 LIG 0.01  C 
ATOM      9  CG2 VAL B   4      19.936   7.000  19.427  1.00 12.26 LIG 0.01  C 
ENDBRANCH 6 7
BRANCH 6 10
ATOM     10  C   VAL B   4      18.586   9.094  17.299  1.00 16.25 LIG 0.24  C 
ATOM     11 O    VAL B   4      19.018   9.991  18.036  1.00 16.95 LIG-0.27  OA
ATOM     12  N   ASP B   5      17.436   9.182  16.637  1.00 16.26 LIG-0.34  N 
ATOM     13 H    ASP B   5      17.124   8.551  16.143  1.00 16.26 LIG 0.16  HD
BRANCH 12 14
ATOM     14  CA  ASP B   5      16.592  10.367  16.689  1.00 17.99 LIG 0.20  C 
BRANCH 14 15
ATOM     15  CB  ASP B   5      15.755  10.424  15.411  1.00 19.95 LIG 0.15  C 
BRANCH 15 16
ATOM     16  CG  ASP B   5      16.567  10.865  14.210  1.00 23.79 LIG 0.17  C 
ATOM     17 OD2  ASP B   5      16.636  10.111  13.205  1.00 26.04 LIG-0.65  OA
ATOM     18 OD1  ASP B   5      17.152  11.961  14.277  1.00 23.66 LIG-0.65  OA
ENDBRANCH 15 16
ENDBRANCH 14 15
BRANCH 14 19
ATOM     19  C   ASP B   5      15.671  10.392  17.913  1.00 17.70 LIG 0.20  C 
ATOM     20 OXT  ASP B   5      15.516   9.330  18.551  1.00 18.22 LIG-0.65  OA
ATOM     21 O    ASP B   5      15.136  11.469  18.223  1.00 17.62 LIG-0.65  OA
ENDBRANCH 14 19
ENDBRANCH 12 14
ENDBRANCH 6 10
ENDBRANCH 4 6
ENDBRANCH 1 2
BRANCH 1 22
ATOM     22  CB  GLU B   3      23.224   8.699  15.020  1.00 19.71 LIG 0.04  C 
BRANCH 22 23
ATOM     23  CG  GLU B   3      21.945   9.398  14.586  1.00 25.47 LIG 0.12  C 
BRANCH 23 24
ATOM     24  CD  GLU B   3      21.255   8.688  13.421  1.00 29.25 LIG 0.17  C 
ATOM     25 OE1  GLU B   3      20.090   8.247  13.582  1.00 30.05 LIG-0.65  OA
ATOM     26 OE2  GLU B   3      21.882   8.580  12.342  1.00 32.05 LIG-0.65  OA
ENDBRANCH 23 24
ENDBRANCH 22 23
ENDBRANCH 1 22
BRANCH 1 27
ATOM     27  N   GLU B   3      24.040   6.702  16.202  1.00 15.41 LIG-0.35  N 
ATOM     28 H    GLU B   3      23.785   6.049  15.702  1.00 15.41 LIG 0.16  HD
ATOM     29  C   GLU B   2      25.191   6.720  16.864  1.00 15.20 LIG 0.24  C 
ATOM     30 O    GLU B   2      25.528   7.658  17.583  1.00 15.89 LIG-0.27  OA
BRANCH 29 31
ATOM     31  CA  GLU B   2      26.108   5.505  16.707  1.00 14.92 LIG 0.18  C 
BRANCH 31 32
ATOM     32  N   GLU B   2      26.202   5.241  15.275  1.00 15.61 LIG-0.35  N 
ATOM     33 H    GLU B   2      25.991   4.440  15.045  1.00 15.61 LIG 0.16  HD
ATOM     34  C   MET B   1      26.586   6.187  14.420  1.00 15.57 LIG 0.24  C 
ATOM     35 O    MET B   1      26.847   7.343  14.771  1.00 13.81 LIG-0.27  OA
BRANCH 34 36
ATOM     36  CA  MET B   1      26.705   5.760  12.952  1.00 16.08 LIG 0.18  C 
BRANCH 36 37
ATOM     37  N   MET B   1      27.269   4.420  12.809  1.00 16.60 LIG-0.35  N 
ATOM     38  C   ACE B   0      28.530   4.223  12.448  1.00 26.43 LIG 0.21  C 
ATOM     39 O    ACE B   0      29.318   5.144  12.231  1.00 27.07 LIG-0.27  OA
ATOM     40  CH3 ACE B   0      28.965   2.786  12.322  1.00 28.67 LIG 0.12  C 
ATOM     41 H    MET B   1      26.716   3.784  12.979  1.00 16.60 LIG 0.16  HD
ENDBRANCH 36 37
BRANCH 36 42
ATOM     42  CB  MET B   1      25.298   5.803  12.333  1.00 17.95 LIG 0.04  C 
BRANCH 42 43
ATOM     43  CG  MET B   1      24.177   5.283  13.200  1.00 19.71 LIG 0.08  C 
BRANCH 43 44
ATOM     44 SD   MET B   1      23.385   3.865  12.404  1.00 23.85 LIG-0.17  SA
ATOM     45  CE  MET B   1      23.761   2.580  13.582  1.00 19.76 LIG 0.09  C 
ENDBRANCH 43 44
ENDBRANCH 42 43
ENDBRANCH 36 42
ENDBRANCH 34 36
ENDBRANCH 31 32
BRANCH 31 46
ATOM     46  CB  GLU B   2      27.499   5.824  17.282  1.00 14.50 LIG 0.04  C 
BRANCH 46 47
ATOM     47  CG  GLU B   2      28.420   4.620  17.388  1.00 15.26 LIG 0.12  C 
BRANCH 47 48
ATOM     48  CD  GLU B   2      28.678   4.248  18.832  1.00 15.63 LIG 0.17  C 
ATOM     49 OE1  GLU B   2      28.034   3.303  19.330  1.00 15.54 LIG-0.65  OA
ATOM     50 OE2  GLU B   2      29.539   4.883  19.468  1.00 15.63 LIG-0.65  OA
ENDBRANCH 47 48
ENDBRANCH 46 47
ENDBRANCH 31 46
ENDBRANCH 29 31
ENDBRANCH 1 27
TORSDOF 22
ENDMDL
MODEL 6
USER: ADFR SOLUTION from run 176
USER: SCORE 18.406079 LL:  -2.504 LR: -17.487 RR:   0.000 FEB: -10.924
USER: RMSD 5.472103
USER: SEED 175
USER: STATUS searching
USER: GENES 24
USER: genes 0 Translation |==|  0.56581 0.32157 0.37259
USER: genes 1 Rotation |==|  0.12477 0.66908 0.71338 0.68731
USER: genes 2 Torsion [N]-CA--C-[N] |==|  0.45884
USER: genes 3 Torsion [C]-N--CA-[CB] |==|  0.19380
USER: genes 4 Torsion [N]-CA--CB-[CG1] |==|  0.71467
USER: genes 5 Torsion [N]-CA--C-[N] |==|  0.69908
USER: genes 6 Torsion [C]-N--CA-[C] |==|  0.81968
USER: genes 7 Torsion [N]-CA--CB-[CG] |==|  0.39461
USER: genes 8 Torsion [CA]-CB--CG-[OD2] |==|  0.20959
USER: genes 9 Torsion [N]-CA--C-[OXT] |==|  0.82780
USER: genes 10 Torsion [C]-CA--CB-[CG] |==|  0.38428
USER: genes 11 Torsion [CA]-CB--CG-[CD] |==|  0.01524
USER: genes 12 Torsion [CB]-CG--CD-[OE2] |==|  0.21891
USER: genes 13 Torsion [C]-CA--N-[C] |==|  0.69437
USER: genes 14 Torsion [N]-C--CA-[N] |==|  0.92814
USER: genes 15 Torsion [C]-CA--N-[C] |==|  0.60580
USER: genes 16 Torsion [N]-C--CA-[N] |==|  0.90986
USER: genes 17 Torsion [C]-CA--N-[C] |==|  0.81082
USER: genes 18 Torsion [C]-CA--CB-[CG] |==|  0.12488
USER: genes 19 Torsion [CA]-CB--CG-[SD] |==|  0.69066
USER: genes 20 Torsion [CB]-CG--SD-[CE] |==|  0.00288
USER: genes 21 Torsion [C]-CA--CB-[CG] |==|  0.26717
USER: genes 22 Torsion [CA]-CB--CG-[CD] |==|  0.37325
USER: genes 23 Torsion [CB]-CG--CD-[OE1] |==|  0.45818
ROOT
ATOM      1  CA  GLU B   3      24.640   4.618  12.414  1.00 16.51 LIG 0.18  C 
ENDROOT
BRANCH 1 2
ATOM      2  C   GLU B   3      24.248   5.380  13.673  1.00 15.77 LIG 0.24  C 
ATOM      3 O    GLU B   3      25.014   5.424  14.626  1.00 14.97 LIG-0.27  OA
ATOM      4  N   VAL B   4      23.055   5.976  13.685  1.00 15.94 LIG-0.35  N 
ATOM      5 H    VAL B   4      22.511   5.994  13.020  1.00 15.94 LIG 0.16  HD
BRANCH 4 6
ATOM      6  CA  VAL B   4      22.588   6.662  14.890  1.00 14.46 LIG 0.18  C 
BRANCH 6 7
ATOM      7  CB  VAL B   4      23.363   7.963  15.207  1.00 12.41 LIG 0.01  C 
ATOM      8  CG1 VAL B   4      24.359   7.710  16.344  1.00 11.08 LIG 0.01  C 
ATOM      9  CG2 VAL B   4      24.067   8.486  13.971  1.00 12.26 LIG 0.01  C 
ENDBRANCH 6 7
BRANCH 6 10
ATOM     10  C   VAL B   4      21.110   6.985  14.707  1.00 16.25 LIG 0.24  C 
ATOM     11 O    VAL B   4      20.258   6.087  14.738  1.00 16.95 LIG-0.27  OA
ATOM     12  N   ASP B   5      20.815   8.267  14.515  1.00 16.26 LIG-0.34  N 
ATOM     13 H    ASP B   5      21.407   8.889  14.470  1.00 16.26 LIG 0.16  HD
BRANCH 12 14
ATOM     14  CA  ASP B   5      19.447   8.740  14.363  1.00 17.99 LIG 0.20  C 
BRANCH 14 15
ATOM     15  CB  ASP B   5      19.461  10.269  14.333  1.00 19.95 LIG 0.15  C 
BRANCH 15 16
ATOM     16  CG  ASP B   5      18.456  10.835  13.351  1.00 23.79 LIG 0.17  C 
ATOM     17 OD2  ASP B   5      17.234  10.830  13.650  1.00 26.04 LIG-0.65  OA
ATOM     18 OD1  ASP B   5      18.886  11.270  12.267  1.00 23.66 LIG-0.65  OA
ENDBRANCH 15 16
ENDBRANCH 14 15
BRANCH 14 19
ATOM     19  C   ASP B   5      18.765   8.205  13.100  1.00 17.70 LIG 0.20  C 
ATOM     20 OXT  ASP B   5      19.259   8.511  11.994  1.00 18.22 LIG-0.65  OA
ATOM     21 O    ASP B   5      17.767   7.478  13.234  1.00 17.62 LIG-0.65  OA
ENDBRANCH 14 19
ENDBRANCH 12 14
ENDBRANCH 6 10
ENDBRANCH 4 6
ENDBRANCH 1 2
BRANCH 1 22
ATOM     22  CB  GLU B   3      23.808   3.327  12.373  1.00 19.71 LIG 0.04  C 
BRANCH 22 23
ATOM     23  CG  GLU B   3      23.260   2.959  11.004  1.00 25.47 LIG 0.12  C 
BRANCH 23 24
ATOM     24  CD  GLU B   3      23.765   3.890   9.901  1.00 29.25 LIG 0.17  C 
ATOM     25 OE1  GLU B   3      23.011   4.804   9.485  1.00 30.05 LIG-0.65  OA
ATOM     26 OE2  GLU B   3      24.922   3.705   9.457  1.00 32.05 LIG-0.65  OA
ENDBRANCH 23 24
ENDBRANCH 22 23
ENDBRANCH 1 22
BRANCH 1 27
ATOM     27  N   GLU B   3      26.069   4.297  12.350  1.00 15.41 LIG-0.35  N 
ATOM     28 H    GLU B   3      26.323   3.703  12.917  1.00 15.41 LIG 0.16  HD
ATOM     29  C   GLU B   2      26.884   4.886  11.482  1.00 15.20 LIG 0.24  C 
ATOM     30 O    GLU B   2      26.500   5.743  10.688  1.00 15.89 LIG-0.27  OA
BRANCH 29 31
ATOM     31  CA  GLU B   2      28.353   4.460  11.501  1.00 14.92 LIG 0.18  C 
BRANCH 31 32
ATOM     32  N   GLU B   2      28.623   3.974  12.850  1.00 15.61 LIG-0.35  N 
ATOM     33 H    GLU B   2      27.980   3.528  13.205  1.00 15.61 LIG 0.16  HD
ATOM     34  C   MET B   1      29.784   4.219  13.456  1.00 15.57 LIG 0.24  C 
ATOM     35 O    MET B   1      30.709   4.831  12.911  1.00 13.81 LIG-0.27  OA
BRANCH 34 36
ATOM     36  CA  MET B   1      29.913   3.708  14.896  1.00 16.08 LIG 0.18  C 
BRANCH 36 37
ATOM     37  N   MET B   1      28.639   3.733  15.609  1.00 16.60 LIG-0.35  N 
ATOM     38  C   ACE B   0      28.040   4.870  15.937  1.00 26.43 LIG 0.21  C 
ATOM     39 O    ACE B   0      28.495   5.977  15.648  1.00 27.07 LIG-0.27  OA
ATOM     40  CH3 ACE B   0      26.740   4.740  16.690  1.00 28.67 LIG 0.12  C 
ATOM     41 H    MET B   1      28.321   2.955  15.792  1.00 16.60 LIG 0.16  HD
ENDBRANCH 36 37
BRANCH 36 42
ATOM     42  CB  MET B   1      30.451   2.268  14.838  1.00 17.95 LIG 0.04  C 
BRANCH 42 43
ATOM     43  CG  MET B   1      31.602   2.029  13.892  1.00 19.71 LIG 0.08  C 
BRANCH 43 44
ATOM     44 SD   MET B   1      31.063   0.999  12.507  1.00 23.85 LIG-0.17  SA
ATOM     45  CE  MET B   1      29.344   0.771  12.922  1.00 19.76 LIG 0.09  C 
ENDBRANCH 43 44
ENDBRANCH 42 43
ENDBRANCH 36 42
ENDBRANCH 34 36
ENDBRANCH 31 32
BRANCH 31 46
ATOM     46  CB  GLU B   2      28.584   3.338  10.475  1.00 14.50 LIG 0.04  C 
BRANCH 46 47
ATOM     47  CG  GLU B   2      29.107   3.821   9.132  1.00 15.26 LIG 0.12  C 
BRANCH 47 48
ATOM     48  CD  GLU B   2      30.252   2.960   8.644  1.00 15.63 LIG 0.17  C 
ATOM     49 OE1  GLU B   2      30.598   3.045   7.449  1.00 15.54 LIG-0.65  OA
ATOM     50 OE2  GLU B   2      30.825   2.212   9.458  1.00 15.63 LIG-0.65  OA
ENDBRANCH 47 48
ENDBRANCH 46 47
ENDBRANCH 31 46
ENDBRANCH 29 31
ENDBRANCH 1 27
TORSDOF 22
ENDMDL
MODEL 7
USER: ADFR SOLUTION from run 18
USER: SCORE 18.996160 LL:  -3.047 LR: -17.480 RR:   0.000 FEB: -10.918
USER: RMSD 10.940688
USER: SEED 17
USER: STATUS searching
USER: GENES 24
USER: genes 0 Translation |==|  0.68936 0.36110 0.53578
USER: genes 1 Rotation |==|  0.64344 0.90268 0.75230 0.56014
USER: genes 2 Torsion [N]-CA--C-[N] |==|  0.04060
USER: genes 3 Torsion [C]-N--CA-[CB] |==|  0.30000
USER: genes 4 Torsion [N]-CA--CB-[CG1] |==|  0.37405
USER: genes 5 Torsion [N]-CA--C-[N] |==|  0.36689
USER: genes 6 Torsion [C]-N--CA-[C] |==|  0.75057
USER: genes 7 Torsion [N]-CA--CB-[CG] |==|  0.56562
USER: genes 8 Torsion [CA]-CB--CG-[OD2] |==|  0.63714
USER: genes 9 Torsion [N]-CA--C-[OXT] |==|  0.44220
USER: genes 10 Torsion [C]-CA--CB-[CG] |==|  0.80233
USER: genes 11 Torsion [CA]-CB--CG-[CD] |==|  0.42427
USER: genes 12 Torsion [CB]-CG--CD-[OE2] |==|  0.93081
USER: genes 13 Torsion [C]-CA--N-[C] |==|  0.74991
USER: genes 14 Torsion [N]-C--CA-[N] |==|  0.34855
USER: genes 15 Torsion [C]-CA--N-[C] |==|  0.83424
USER: genes 16 Torsion [N]-C--CA-[N] |==|  0.92360
USER: genes 17 Torsion [C]-CA--N-[C] |==|  0.80222
USER: genes 18 Torsion [C]-CA--CB-[CG] |==|  0.18818
USER: genes 19 Torsion [CA]-CB--CG-[SD] |==|  0.59027
USER: genes 20 Torsion [CB]-CG--SD-[CE] |==|  0.54959
USER: genes 21 Torsion [C]-CA--CB-[CG] |==|  0.82139
USER: genes 22 Torsion [CA]-CB--CG-[CD] |==|  0.72313
USER: genes 23 Torsion [CB]-CG--CD-[OE1] |==|  0.79484
ROOT
ATOM      1  CA  GLU B   3      27.698   5.330  15.351  1.00 16.51 LIG 0.18  C 
ENDROOT
BRANCH 1 2
ATOM      2  C   GLU B   3      28.886   4.630  14.704  1.00 15.77 LIG 0.24  C 
ATOM      3 O    GLU B   3      30.009   4.773  15.170  1.00 14.97 LIG-0.27  OA
ATOM      4  N   VAL B   4      28.647   3.880  13.629  1.00 15.94 LIG-0.35  N 
ATOM      5 H    VAL B   4      27.867   3.730  13.300  1.00 15.94 LIG 0.16  HD
BRANCH 4 6
ATOM      6  CA  VAL B   4      29.754   3.240  12.917  1.00 14.46 LIG 0.18  C 
BRANCH 6 7
ATOM      7  CB  VAL B   4      29.819   1.707  13.115  1.00 12.41 LIG 0.01  C 
ATOM      8  CG1 VAL B   4      30.057   1.018  11.767  1.00 11.08 LIG 0.01  C 
ATOM      9  CG2 VAL B   4      30.897   1.337  14.115  1.00 12.26 LIG 0.01  C 
ENDBRANCH 6 7
BRANCH 6 10
ATOM     10  C   VAL B   4      29.606   3.553  11.434  1.00 16.25 LIG 0.24  C 
ATOM     11 O    VAL B   4      28.518   3.406  10.862  1.00 16.95 LIG-0.27  OA
ATOM     12  N   ASP B   5      30.703   3.981  10.817  1.00 16.26 LIG-0.34  N 
ATOM     13 H    ASP B   5      31.466   4.062  11.207  1.00 16.26 LIG 0.16  HD
BRANCH 12 14
ATOM     14  CA  ASP B   5      30.714   4.359   9.412  1.00 17.99 LIG 0.20  C 
BRANCH 14 15
ATOM     15  CB  ASP B   5      31.745   5.470   9.214  1.00 19.95 LIG 0.15  C 
BRANCH 15 16
ATOM     16  CG  ASP B   5      31.456   6.312   7.987  1.00 23.79 LIG 0.17  C 
ATOM     17 OD2  ASP B   5      32.382   6.538   7.166  1.00 26.04 LIG-0.65  OA
ATOM     18 OD1  ASP B   5      30.305   6.764   7.852  1.00 23.66 LIG-0.65  OA
ENDBRANCH 15 16
ENDBRANCH 14 15
BRANCH 14 19
ATOM     19  C   ASP B   5      31.034   3.186   8.480  1.00 17.70 LIG 0.20  C 
ATOM     20 OXT  ASP B   5      30.692   3.279   7.282  1.00 18.22 LIG-0.65  OA
ATOM     21 O    ASP B   5      31.634   2.206   8.952  1.00 17.62 LIG-0.65  OA
ENDBRANCH 14 19
ENDBRANCH 12 14
ENDBRANCH 6 10
ENDBRANCH 4 6
ENDBRANCH 1 2
BRANCH 1 22
ATOM     22  CB  GLU B   3      27.832   5.163  16.873  1.00 19.71 LIG 0.04  C 
BRANCH 22 23
ATOM     23  CG  GLU B   3      27.579   3.756  17.389  1.00 25.47 LIG 0.12  C 
BRANCH 23 24
ATOM     24  CD  GLU B   3      28.328   3.466  18.691  1.00 29.25 LIG 0.17  C 
ATOM     25 OE1  GLU B   3      27.885   2.580  19.463  1.00 30.05 LIG-0.65  OA
ATOM     26 OE2  GLU B   3      29.366   4.125  18.933  1.00 32.05 LIG-0.65  OA
ENDBRANCH 23 24
ENDBRANCH 22 23
ENDBRANCH 1 22
BRANCH 1 27
ATOM     27  N   GLU B   3      26.402   4.811  14.901  1.00 15.41 LIG-0.35  N 
ATOM     28 H    GLU B   3      26.099   4.161  15.375  1.00 15.41 LIG 0.16  HD
ATOM     29  C   GLU B   2      25.769   5.318  13.849  1.00 15.20 LIG 0.24  C 
ATOM     30 O    GLU B   2      26.230   6.239  13.179  1.00 15.89 LIG-0.27  OA
BRANCH 29 31
ATOM     31  CA  GLU B   2      24.418   4.701  13.482  1.00 14.92 LIG 0.18  C 
BRANCH 31 32
ATOM     32  N   GLU B   2      23.461   5.802  13.437  1.00 15.61 LIG-0.35  N 
ATOM     33 H    GLU B   2      23.076   5.909  12.676  1.00 15.61 LIG 0.16  HD
ATOM     34  C   MET B   1      23.226   6.560  14.506  1.00 15.57 LIG 0.24  C 
ATOM     35 O    MET B   1      23.765   6.362  15.600  1.00 13.81 LIG-0.27  OA
BRANCH 34 36
ATOM     36  CA  MET B   1      22.247   7.723  14.305  1.00 16.08 LIG 0.18  C 
BRANCH 36 37
ATOM     37  N   MET B   1      22.229   8.200  12.925  1.00 16.60 LIG-0.35  N 
ATOM     38  C   ACE B   0      23.245   8.873  12.401  1.00 26.43 LIG 0.21  C 
ATOM     39 O    ACE B   0      24.277   9.125  13.023  1.00 27.07 LIG-0.27  OA
ATOM     40  CH3 ACE B   0      23.075   9.319  10.971  1.00 28.67 LIG 0.12  C 
ATOM     41 H    MET B   1      21.511   8.006  12.494  1.00 16.60 LIG 0.16  HD
ENDBRANCH 36 37
BRANCH 36 42
ATOM     42  CB  MET B   1      20.846   7.234  14.707  1.00 17.95 LIG 0.04  C 
BRANCH 42 43
ATOM     43  CG  MET B   1      20.642   6.938  16.173  1.00 19.71 LIG 0.08  C 
BRANCH 43 44
ATOM     44 SD   MET B   1      19.462   5.583  16.374  1.00 23.85 LIG-0.17  SA
ATOM     45  CE  MET B   1      19.004   5.802  18.083  1.00 19.76 LIG 0.09  C 
ENDBRANCH 43 44
ENDBRANCH 42 43
ENDBRANCH 36 42
ENDBRANCH 34 36
ENDBRANCH 31 32
BRANCH 31 46
ATOM     46  CB  GLU B   2      24.513   4.022  12.104  1.00 14.50 LIG 0.04  C 
BRANCH 46 47
ATOM     47  CG  GLU B   2      24.791   4.979  10.957  1.00 15.26 LIG 0.12  C 
BRANCH 47 48
ATOM     48  CD  GLU B   2      23.523   5.323  10.206  1.00 15.63 LIG 0.17  C 
ATOM     49 OE1  GLU B   2      23.020   4.463   9.454  1.00 15.54 LIG-0.65  OA
ATOM     50 OE2  GLU B   2      23.011   6.444  10.381  1.00 15.63 LIG-0.65  OA
ENDBRANCH 47 48
ENDBRANCH 46 47
ENDBRANCH 31 46
ENDBRANCH 29 31
ENDBRANCH 1 27
TORSDOF 22
ENDMDL
MODEL 8
USER: ADFR SOLUTION from run 7
USER: SCORE 18.090311 LL:  -2.805 LR: -17.443 RR:   0.000 FEB: -10.880
USER: RMSD 3.132359
USER: SEED 228451
USER: STATUS 1 or 2 clusters left
USER: GENES 24
USER: genes 0 Translation |==|  0.48550 0.45691 0.53621
USER: genes 1 Rotation |==|  0.59708 0.54762 0.44595 0.98517
USER: genes 2 Torsion [N]-CA--C-[N] |==|  0.59775
USER: genes 3 Torsion [C]-N--CA-[CB] |==|  0.22858
USER: genes 4 Torsion [N]-CA--CB-[CG1] |==|  0.76896
USER: genes 5 Torsion [N]-CA--C-[N] |==|  0.40627
USER: genes 6 Torsion [C]-N--CA-[C] |==|  0.70411
USER: genes 7 Torsion [N]-CA--CB-[CG] |==|  0.77619
USER: genes 8 Torsion [CA]-CB--CG-[OD2] |==|  0.86078
USER: genes 9 Torsion [N]-CA--C-[OXT] |==|  0.96713
USER: genes 10 Torsion [C]-CA--CB-[CG] |==|  0.30957
USER: genes 11 Torsion [CA]-CB--CG-[CD] |==|  0.83126
USER: genes 12 Torsion [CB]-CG--CD-[OE2] |==|  0.76391
USER: genes 13 Torsion [C]-CA--N-[C] |==|  0.62989
USER: genes 14 Torsion [N]-C--CA-[N] |==|  0.49983
USER: genes 15 Torsion [C]-CA--N-[C] |==|  0.66667
USER: genes 16 Torsion [N]-C--CA-[N] |==|  0.46030
USER: genes 17 Torsion [C]-CA--N-[C] |==|  0.61961
USER: genes 18 Torsion [C]-CA--CB-[CG] |==|  0.66796
USER: genes 19 Torsion [CA]-CB--CG-[SD] |==|  0.62621
USER: genes 20 Torsion [CB]-CG--SD-[CE] |==|  0.11306
USER: genes 21 Torsion [C]-CA--CB-[CG] |==|  0.51903
USER: genes 22 Torsion [CA]-CB--CG-[CD] |==|  0.87335
USER: genes 23 Torsion [CB]-CG--CD-[OE1] |==|  0.82340
ROOT
ATOM      1  CA  GLU B   3      22.652   7.054  15.359  1.00 16.51 LIG 0.18  C 
ENDROOT
BRANCH 1 2
ATOM      2  C   GLU B   3      21.236   6.806  15.863  1.00 15.77 LIG 0.24  C 
ATOM      3 O    GLU B   3      20.713   5.711  15.703  1.00 14.97 LIG-0.27  OA
ATOM      4  N   VAL B   4      20.611   7.818  16.464  1.00 15.94 LIG-0.35  N 
ATOM      5 H    VAL B   4      20.963   8.586  16.623  1.00 15.94 LIG 0.16  HD
BRANCH 4 6
ATOM      6  CA  VAL B   4      19.223   7.668  16.905  1.00 14.46 LIG 0.18  C 
BRANCH 6 7
ATOM      7  CB  VAL B   4      19.079   6.962  18.274  1.00 12.41 LIG 0.01  C 
ATOM      8  CG1 VAL B   4      19.127   5.442  18.082  1.00 11.08 LIG 0.01  C 
ATOM      9  CG2 VAL B   4      20.154   7.425  19.237  1.00 12.26 LIG 0.01  C 
ENDBRANCH 6 7
BRANCH 6 10
ATOM     10  C   VAL B   4      18.599   9.056  16.983  1.00 16.25 LIG 0.24  C 
ATOM     11 O    VAL B   4      19.279  10.037  17.312  1.00 16.95 LIG-0.27  OA
ATOM     12  N   ASP B   5      17.307   9.130  16.679  1.00 16.26 LIG-0.34  N 
ATOM     13 H    ASP B   5      16.828   8.446  16.472  1.00 16.26 LIG 0.16  HD
BRANCH 12 14
ATOM     14  CA  ASP B   5      16.577  10.389  16.668  1.00 17.99 LIG 0.20  C 
BRANCH 14 15
ATOM     15  CB  ASP B   5      15.786  10.482  15.363  1.00 19.95 LIG 0.15  C 
BRANCH 15 16
ATOM     16  CG  ASP B   5      16.646  10.931  14.200  1.00 23.79 LIG 0.17  C 
ATOM     17 OD2  ASP B   5      17.365  11.956  14.326  1.00 26.04 LIG-0.65  OA
ATOM     18 OD1  ASP B   5      16.591  10.269  13.147  1.00 23.66 LIG-0.65  OA
ENDBRANCH 15 16
ENDBRANCH 14 15
BRANCH 14 19
ATOM     19  C   ASP B   5      15.627  10.540  17.860  1.00 17.70 LIG 0.20  C 
ATOM     20 OXT  ASP B   5      15.402   9.531  18.561  1.00 18.22 LIG-0.65  OA
ATOM     21 O    ASP B   5      15.139  11.660  18.085  1.00 17.62 LIG-0.65  OA
ENDBRANCH 14 19
ENDBRANCH 12 14
ENDBRANCH 6 10
ENDBRANCH 4 6
ENDBRANCH 1 2
BRANCH 1 22
ATOM     22  CB  GLU B   3      22.815   8.569  15.157  1.00 19.71 LIG 0.04  C 
BRANCH 22 23
ATOM     23  CG  GLU B   3      23.766   9.248  16.128  1.00 25.47 LIG 0.12  C 
BRANCH 23 24
ATOM     24  CD  GLU B   3      23.318   9.107  17.583  1.00 29.25 LIG 0.17  C 
ATOM     25 OE1  GLU B   3      23.795   8.177  18.279  1.00 30.05 LIG-0.65  OA
ATOM     26 OE2  GLU B   3      22.491   9.936  18.028  1.00 32.05 LIG-0.65  OA
ENDBRANCH 23 24
ENDBRANCH 22 23
ENDBRANCH 1 22
BRANCH 1 27
ATOM     27  N   GLU B   3      22.959   6.346  14.113  1.00 15.41 LIG-0.35  N 
ATOM     28 H    GLU B   3      22.351   6.416  13.508  1.00 15.41 LIG 0.16  HD
ATOM     29  C   GLU B   2      24.085   5.659  13.953  1.00 15.20 LIG 0.24  C 
ATOM     30 O    GLU B   2      24.933   5.562  14.838  1.00 15.89 LIG-0.27  OA
BRANCH 29 31
ATOM     31  CA  GLU B   2      24.299   4.970  12.604  1.00 14.92 LIG 0.18  C 
BRANCH 31 32
ATOM     32  N   GLU B   2      25.591   4.297  12.686  1.00 15.61 LIG-0.35  N 
ATOM     33 H    GLU B   2      25.647   3.705  13.308  1.00 15.61 LIG 0.16  HD
ATOM     34  C   MET B   1      26.583   4.596  11.850  1.00 15.57 LIG 0.24  C 
ATOM     35 O    MET B   1      26.467   5.424  10.940  1.00 13.81 LIG-0.27  OA
BRANCH 34 36
ATOM     36  CA  MET B   1      27.908   3.862  12.086  1.00 16.08 LIG 0.18  C 
BRANCH 36 37
ATOM     37  N   MET B   1      28.821   3.988  10.953  1.00 16.60 LIG-0.35  N 
ATOM     38  C   ACE B   0      29.519   2.957  10.495  1.00 26.43 LIG 0.21  C 
ATOM     39 O    ACE B   0      29.435   1.824  10.970  1.00 27.07 LIG-0.27  OA
ATOM     40  CH3 ACE B   0      30.435   3.243   9.333  1.00 28.67 LIG 0.12  C 
ATOM     41 H    MET B   1      28.860   4.779  10.617  1.00 16.60 LIG 0.16  HD
ENDBRANCH 36 37
BRANCH 36 42
ATOM     42  CB  MET B   1      28.558   4.455  13.348  1.00 17.95 LIG 0.04  C 
BRANCH 42 43
ATOM     43  CG  MET B   1      29.914   5.089  13.158  1.00 19.71 LIG 0.08  C 
BRANCH 43 44
ATOM     44 SD   MET B   1      31.037   4.553  14.470  1.00 23.85 LIG-0.17  SA
ATOM     45  CE  MET B   1      30.594   2.830  14.592  1.00 19.76 LIG 0.09  C 
ENDBRANCH 43 44
ENDBRANCH 42 43
ENDBRANCH 36 42
ENDBRANCH 34 36
ENDBRANCH 31 32
BRANCH 31 46
ATOM     46  CB  GLU B   2      23.178   3.945  12.360  1.00 14.50 LIG 0.04  C 
BRANCH 46 47
ATOM     47  CG  GLU B   2      23.382   3.084  11.123  1.00 15.26 LIG 0.12  C 
BRANCH 47 48
ATOM     48  CD  GLU B   2      23.803   3.919   9.934  1.00 15.63 LIG 0.17  C 
ATOM     49 OE1  GLU B   2      23.011   4.778   9.495  1.00 15.54 LIG-0.65  OA
ATOM     50 OE2  GLU B   2      24.933   3.736   9.446  1.00 15.63 LIG-0.65  OA
ENDBRANCH 47 48
ENDBRANCH 46 47
ENDBRANCH 31 46
ENDBRANCH 29 31
ENDBRANCH 1 27
TORSDOF 22
ENDMDL
MODEL 9
USER: ADFR SOLUTION from run 32
USER: SCORE 18.466847 LL:  -2.547 LR: -17.434 RR:   0.000 FEB: -10.871
USER: RMSD 10.565420
USER: SEED 31
USER: STATUS no improvement in best in 6 clusters for 5 generations
USER: GENES 24
USER: genes 0 Translation |==|  0.53566 0.34435 0.43828
USER: genes 1 Rotation |==|  0.33662 0.60063 0.03906 0.52666
USER: genes 2 Torsion [N]-CA--C-[N] |==|  0.45265
USER: genes 3 Torsion [C]-N--CA-[CB] |==|  0.25485
USER: genes 4 Torsion [N]-CA--CB-[CG1] |==|  0.69565
USER: genes 5 Torsion [N]-CA--C-[N] |==|  0.28940
USER: genes 6 Torsion [C]-N--CA-[C] |==|  0.80317
USER: genes 7 Torsion [N]-CA--CB-[CG] |==|  0.24290
USER: genes 8 Torsion [CA]-CB--CG-[OD2] |==|  0.29098
USER: genes 9 Torsion [N]-CA--C-[OXT] |==|  0.94120
USER: genes 10 Torsion [C]-CA--CB-[CG] |==|  0.96306
USER: genes 11 Torsion [CA]-CB--CG-[CD] |==|  0.70359
USER: genes 12 Torsion [CB]-CG--CD-[OE2] |==|  0.18742
USER: genes 13 Torsion [C]-CA--N-[C] |==|  0.78807
USER: genes 14 Torsion [N]-C--CA-[N] |==|  0.42832
USER: genes 15 Torsion [C]-CA--N-[C] |==|  0.56405
USER: genes 16 Torsion [N]-C--CA-[N] |==|  0.44311
USER: genes 17 Torsion [C]-CA--N-[C] |==|  0.70556
USER: genes 18 Torsion [C]-CA--CB-[CG] |==|  0.86544
USER: genes 19 Torsion [CA]-CB--CG-[SD] |==|  0.30596
USER: genes 20 Torsion [CB]-CG--SD-[CE] |==|  0.69145
USER: genes 21 Torsion [C]-CA--CB-[CG] |==|  0.27254
USER: genes 22 Torsion [CA]-CB--CG-[CD] |==|  0.16384
USER: genes 23 Torsion [CB]-CG--CD-[OE1] |==|  0.79744
ROOT
ATOM      1  CA  GLU B   3      23.894   5.028  13.596  1.00 16.51 LIG 0.18  C 
ENDROOT
BRANCH 1 2
ATOM      2  C   GLU B   3      25.243   5.598  13.175  1.00 15.77 LIG 0.24  C 
ATOM      3 O    GLU B   3      25.321   6.750  12.768  1.00 14.97 LIG-0.27  OA
ATOM      4  N   VAL B   4      26.303   4.796  13.264  1.00 15.94 LIG-0.35  N 
ATOM      5 H    VAL B   4      26.287   3.997  13.580  1.00 15.94 LIG 0.16  HD
BRANCH 4 6
ATOM      6  CA  VAL B   4      27.615   5.258  12.807  1.00 14.46 LIG 0.18  C 
BRANCH 6 7
ATOM      7  CB  VAL B   4      28.464   5.921  13.918  1.00 12.41 LIG 0.01  C 
ATOM      8  CG1 VAL B   4      28.570   7.428  13.660  1.00 11.08 LIG 0.01  C 
ATOM      9  CG2 VAL B   4      27.875   5.641  15.286  1.00 12.26 LIG 0.01  C 
ENDBRANCH 6 7
BRANCH 6 10
ATOM     10  C   VAL B   4      28.367   4.059  12.243  1.00 16.25 LIG 0.24  C 
ATOM     11 O    VAL B   4      28.870   3.216  12.998  1.00 16.95 LIG-0.27  OA
ATOM     12  N   ASP B   5      28.442   3.991  10.918  1.00 16.26 LIG-0.34  N 
ATOM     13 H    ASP B   5      28.113   4.587  10.392  1.00 16.26 LIG 0.16  HD
BRANCH 12 14
ATOM     14  CA  ASP B   5      29.092   2.887  10.226  1.00 17.99 LIG 0.20  C 
BRANCH 14 15
ATOM     15  CB  ASP B   5      28.722   2.955   8.744  1.00 19.95 LIG 0.15  C 
BRANCH 15 16
ATOM     16  CG  ASP B   5      29.665   3.841   7.955  1.00 23.79 LIG 0.17  C 
ATOM     17 OD2  ASP B   5      30.526   3.310   7.208  1.00 26.04 LIG-0.65  OA
ATOM     18 OD1  ASP B   5      29.556   5.073   8.096  1.00 23.66 LIG-0.65  OA
ENDBRANCH 15 16
ENDBRANCH 14 15
BRANCH 14 19
ATOM     19  C   ASP B   5      30.616   2.901  10.380  1.00 17.70 LIG 0.20  C 
ATOM     20 OXT  ASP B   5      31.165   3.980  10.685  1.00 18.22 LIG-0.65  OA
ATOM     21 O    ASP B   5      31.233   1.836  10.212  1.00 17.62 LIG-0.65  OA
ENDBRANCH 14 19
ENDBRANCH 12 14
ENDBRANCH 6 10
ENDBRANCH 4 6
ENDBRANCH 1 2
BRANCH 1 22
ATOM     22  CB  GLU B   3      23.421   4.081  12.483  1.00 19.71 LIG 0.04  C 
BRANCH 22 23
ATOM     23  CG  GLU B   3      24.191   4.190  11.177  1.00 25.47 LIG 0.12  C 
BRANCH 23 24
ATOM     24  CD  GLU B   3      23.386   4.885  10.078  1.00 29.25 LIG 0.17  C 
ATOM     25 OE1  GLU B   3      23.010   4.215   9.083  1.00 30.05 LIG-0.65  OA
ATOM     26 OE2  GLU B   3      23.125   6.102  10.218  1.00 32.05 LIG-0.65  OA
ENDBRANCH 23 24
ENDBRANCH 22 23
ENDBRANCH 1 22
BRANCH 1 27
ATOM     27  N   GLU B   3      22.880   6.058  13.844  1.00 15.41 LIG-0.35  N 
ATOM     28 H    GLU B   3      22.298   6.139  13.215  1.00 15.41 LIG 0.16  HD
ATOM     29  C   GLU B   2      22.878   6.791  14.952  1.00 15.20 LIG 0.24  C 
ATOM     30 O    GLU B   2      23.728   6.665  15.831  1.00 15.89 LIG-0.27  OA
BRANCH 29 31
ATOM     31  CA  GLU B   2      21.763   7.827  15.104  1.00 14.92 LIG 0.18  C 
BRANCH 31 32
ATOM     32  N   GLU B   2      21.584   8.033  16.537  1.00 15.61 LIG-0.35  N 
ATOM     33 H    GLU B   2      22.269   7.830  17.015  1.00 15.61 LIG 0.16  HD
ATOM     34  C   MET B   1      20.439   8.498  17.033  1.00 15.57 LIG 0.24  C 
ATOM     35 O    MET B   1      19.481   8.819  16.322  1.00 13.81 LIG-0.27  OA
BRANCH 34 36
ATOM     36  CA  MET B   1      20.361   8.606  18.561  1.00 16.08 LIG 0.18  C 
BRANCH 36 37
ATOM     37  N   MET B   1      19.322   9.535  18.998  1.00 16.60 LIG-0.35  N 
ATOM     38  C   ACE B   0      19.612  10.735  19.484  1.00 26.43 LIG 0.21  C 
ATOM     39 O    ACE B   0      20.763  11.161  19.580  1.00 27.07 LIG-0.27  OA
ATOM     40  CH3 ACE B   0      18.437  11.576  19.913  1.00 28.67 LIG 0.12  C 
ATOM     41 H    MET B   1      18.521   9.235  18.911  1.00 16.60 LIG 0.16  HD
ENDBRANCH 36 37
BRANCH 36 42
ATOM     42  CB  MET B   1      20.073   7.202  19.118  1.00 17.95 LIG 0.04  C 
BRANCH 42 43
ATOM     43  CG  MET B   1      18.946   6.446  18.457  1.00 19.71 LIG 0.08  C 
BRANCH 43 44
ATOM     44 SD   MET B   1      19.606   5.059  17.503  1.00 23.85 LIG-0.17  SA
ATOM     45  CE  MET B   1      19.264   5.614  15.843  1.00 19.76 LIG 0.09  C 
ENDBRANCH 43 44
ENDBRANCH 42 43
ENDBRANCH 36 42
ENDBRANCH 34 36
ENDBRANCH 31 32
BRANCH 31 46
ATOM     46  CB  GLU B   2      22.179   9.143  14.425  1.00 14.50 LIG 0.04  C 
BRANCH 46 47
ATOM     47  CG  GLU B   2      21.617   9.326  13.024  1.00 15.26 LIG 0.12  C 
BRANCH 47 48
ATOM     48  CD  GLU B   2      20.104   9.297  13.030  1.00 15.63 LIG 0.17  C 
ATOM     49 OE1  GLU B   2      19.527   8.205  13.207  1.00 15.54 LIG-0.65  OA
ATOM     50 OE2  GLU B   2      19.485  10.367  12.879  1.00 15.63 LIG-0.65  OA
ENDBRANCH 47 48
ENDBRANCH 46 47
ENDBRANCH 31 46
ENDBRANCH 29 31
ENDBRANCH 1 27
TORSDOF 22
ENDMDL
MODEL 10
USER: ADFR SOLUTION from run 189
USER: SCORE 17.728470 LL:  -2.310 LR: -17.312 RR:   0.000 FEB: -10.749
USER: RMSD 10.623023
USER: SEED 188
USER: STATUS no improvement in best in 7 clusters for 5 generations
USER: GENES 24
USER: genes 0 Translation |==|  0.55479 0.33230 0.43384
USER: genes 1 Rotation |==|  0.36871 0.55769 0.02417 0.55496
USER: genes 2 Torsion [N]-CA--C-[N] |==|  0.53273
USER: genes 3 Torsion [C]-N--CA-[CB] |==|  0.28889
USER: genes 4 Torsion [N]-CA--CB-[CG1] |==|  0.76758
USER: genes 5 Torsion [N]-CA--C-[N] |==|  0.34701
USER: genes 6 Torsion [C]-N--CA-[C] |==|  0.54746
USER: genes 7 Torsion [N]-CA--CB-[CG] |==|  0.49389
USER: genes 8 Torsion [CA]-CB--CG-[OD2] |==|  0.08217
USER: genes 9 Torsion [N]-CA--C-[OXT] |==|  0.31871
USER: genes 10 Torsion [C]-CA--CB-[CG] |==|  0.88091
USER: genes 11 Torsion [CA]-CB--CG-[CD] |==|  0.77511
USER: genes 12 Torsion [CB]-CG--CD-[OE2] |==|  0.67083
USER: genes 13 Torsion [C]-CA--N-[C] |==|  0.75807
USER: genes 14 Torsion [N]-C--CA-[N] |==|  0.45008
USER: genes 15 Torsion [C]-CA--N-[C] |==|  0.64902
USER: genes 16 Torsion [N]-C--CA-[N] |==|  0.38406
USER: genes 17 Torsion [C]-CA--N-[C] |==|  0.69627
USER: genes 18 Torsion [C]-CA--CB-[CG] |==|  0.39065
USER: genes 19 Torsion [CA]-CB--CG-[SD] |==|  0.97799
USER: genes 20 Torsion [CB]-CG--SD-[CE] |==|  0.80803
USER: genes 21 Torsion [C]-CA--CB-[CG] |==|  0.56653
USER: genes 22 Torsion [CA]-CB--CG-[CD] |==|  0.80533
USER: genes 23 Torsion [CB]-CG--CD-[OE1] |==|  0.54739
ROOT
ATOM      1  CA  GLU B   3      24.367   4.811  13.516  1.00 16.51 LIG 0.18  C 
ENDROOT
BRANCH 1 2
ATOM      2  C   GLU B   3      25.691   5.514  13.242  1.00 15.77 LIG 0.24  C 
ATOM      3 O    GLU B   3      25.740   6.736  13.211  1.00 14.97 LIG-0.27  OA
ATOM      4  N   VAL B   4      26.763   4.748  13.038  1.00 15.94 LIG-0.35  N 
ATOM      5 H    VAL B   4      26.768   3.890  13.090  1.00 15.94 LIG 0.16  HD
BRANCH 4 6
ATOM      6  CA  VAL B   4      28.049   5.358  12.699  1.00 14.46 LIG 0.18  C 
BRANCH 6 7
ATOM      7  CB  VAL B   4      29.053   5.389  13.875  1.00 12.41 LIG 0.01  C 
ATOM      8  CG1 VAL B   4      28.780   6.611  14.758  1.00 11.08 LIG 0.01  C 
ATOM      9  CG2 VAL B   4      28.983   4.106  14.679  1.00 12.26 LIG 0.01  C 
ENDBRANCH 6 7
BRANCH 6 10
ATOM     10  C   VAL B   4      28.651   4.575  11.539  1.00 16.25 LIG 0.24  C 
ATOM     11 O    VAL B   4      28.818   3.351  11.622  1.00 16.95 LIG-0.27  OA
ATOM     12  N   ASP B   5      28.976   5.286  10.464  1.00 16.26 LIG-0.34  N 
ATOM     13 H    ASP B   5      28.882   6.139  10.413  1.00 16.26 LIG 0.16  HD
BRANCH 12 14
ATOM     14  CA  ASP B   5      29.525   4.678   9.260  1.00 17.99 LIG 0.20  C 
BRANCH 14 15
ATOM     15  CB  ASP B   5      28.395   3.968   8.514  1.00 19.95 LIG 0.15  C 
BRANCH 15 16
ATOM     16  CG  ASP B   5      28.864   3.348   7.214  1.00 23.79 LIG 0.17  C 
ATOM     17 OD2  ASP B   5      30.055   2.955   7.115  1.00 26.04 LIG-0.65  OA
ATOM     18 OD1  ASP B   5      28.045   3.269   6.280  1.00 23.66 LIG-0.65  OA
ENDBRANCH 15 16
ENDBRANCH 14 15
BRANCH 14 19
ATOM     19  C   ASP B   5      30.200   5.693   8.332  1.00 17.70 LIG 0.20  C 
ATOM     20 OXT  ASP B   5      31.432   5.594   8.153  1.00 18.22 LIG-0.65  OA
ATOM     21 O    ASP B   5      29.490   6.554   7.787  1.00 17.62 LIG-0.65  OA
ENDBRANCH 14 19
ENDBRANCH 12 14
ENDBRANCH 6 10
ENDBRANCH 4 6
ENDBRANCH 1 2
BRANCH 1 22
ATOM     22  CB  GLU B   3      24.215   3.686  12.481  1.00 19.71 LIG 0.04  C 
BRANCH 22 23
ATOM     23  CG  GLU B   3      24.606   4.061  11.061  1.00 25.47 LIG 0.12  C 
BRANCH 23 24
ATOM     24  CD  GLU B   3      23.498   4.820  10.330  1.00 29.25 LIG 0.17  C 
ATOM     25 OE1  GLU B   3      23.119   5.928  10.782  1.00 30.05 LIG-0.65  OA
ATOM     26 OE2  GLU B   3      23.013   4.303   9.296  1.00 32.05 LIG-0.65  OA
ENDBRANCH 23 24
ENDBRANCH 22 23
ENDBRANCH 1 22
BRANCH 1 27
ATOM     27  N   GLU B   3      23.209   5.709  13.455  1.00 15.41 LIG-0.35  N 
ATOM     28 H    GLU B   3      22.829   5.743  12.685  1.00 15.41 LIG 0.16  HD
ATOM     29  C   GLU B   2      22.800   6.401  14.512  1.00 15.20 LIG 0.24  C 
ATOM     30 O    GLU B   2      23.369   6.346  15.601  1.00 15.89 LIG-0.27  OA
BRANCH 29 31
ATOM     31  CA  GLU B   2      21.573   7.297  14.331  1.00 14.92 LIG 0.18  C 
BRANCH 31 32
ATOM     32  N   GLU B   2      21.074   7.589  15.670  1.00 15.61 LIG-0.35  N 
ATOM     33 H    GLU B   2      21.662   7.916  16.206  1.00 15.61 LIG 0.16  HD
ATOM     34  C   MET B   1      19.806   7.358  16.004  1.00 15.57 LIG 0.24  C 
ATOM     35 O    MET B   1      18.971   6.923  15.204  1.00 13.81 LIG-0.27  OA
BRANCH 34 36
ATOM     36  CA  MET B   1      19.429   7.649  17.461  1.00 16.08 LIG 0.18  C 
BRANCH 36 37
ATOM     37  N   MET B   1      18.132   8.311  17.576  1.00 16.60 LIG-0.35  N 
ATOM     38  C   ACE B   0      18.021   9.583  17.936  1.00 26.43 LIG 0.21  C 
ATOM     39 O    ACE B   0      18.992  10.300  18.176  1.00 27.07 LIG-0.27  OA
ATOM     40  CH3 ACE B   0      16.617  10.123  18.031  1.00 28.67 LIG 0.12  C 
ATOM     41 H    MET B   1      17.460   7.806  17.391  1.00 16.60 LIG 0.16  HD
ENDBRANCH 36 37
BRANCH 36 42
ATOM     42  CB  MET B   1      19.400   6.310  18.217  1.00 17.95 LIG 0.04  C 
BRANCH 42 43
ATOM     43  CG  MET B   1      19.956   6.330  19.620  1.00 19.71 LIG 0.08  C 
BRANCH 43 44
ATOM     44 SD   MET B   1      20.733   7.928  19.956  1.00 23.85 LIG-0.17  SA
ATOM     45  CE  MET B   1      22.154   7.830  18.883  1.00 19.76 LIG 0.09  C 
ENDBRANCH 43 44
ENDBRANCH 42 43
ENDBRANCH 36 42
ENDBRANCH 34 36
ENDBRANCH 31 32
BRANCH 31 46
ATOM     46  CB  GLU B   2      21.980   8.598  13.617  1.00 14.50 LIG 0.04  C 
BRANCH 46 47
ATOM     47  CG  GLU B   2      21.045   9.769  13.879  1.00 15.26 LIG 0.12  C 
BRANCH 47 48
ATOM     48  CD  GLU B   2      19.706   9.566  13.204  1.00 15.63 LIG 0.17  C 
ATOM     49 OE1  GLU B   2      18.959  10.553  13.049  1.00 15.54 LIG-0.65  OA
ATOM     50 OE2  GLU B   2      19.404   8.426  12.806  1.00 15.63 LIG-0.65  OA
ENDBRANCH 47 48
ENDBRANCH 46 47
ENDBRANCH 31 46
ENDBRANCH 29 31
ENDBRANCH 1 27
TORSDOF 22
ENDMDL
MODEL 11
USER: ADFR SOLUTION from run 75
USER: SCORE 18.271154 LL:  -3.181 LR: -17.253 RR:   0.000 FEB: -10.691
USER: RMSD 5.209490
USER: SEED 74
USER: STATUS searching
USER: GENES 24
USER: genes 0 Translation |==|  0.48612 0.46307 0.51445
USER: genes 1 Rotation |==|  0.08565 0.41495 0.61279 0.74157
USER: genes 2 Torsion [N]-CA--C-[N] |==|  0.16302
USER: genes 3 Torsion [C]-N--CA-[CB] |==|  0.24329
USER: genes 4 Torsion [N]-CA--CB-[CG1] |==|  0.76067
USER: genes 5 Torsion [N]-CA--C-[N] |==|  0.41441
USER: genes 6 Torsion [C]-N--CA-[C] |==|  0.69850
USER: genes 7 Torsion [N]-CA--CB-[CG] |==|  0.81084
USER: genes 8 Torsion [CA]-CB--CG-[OD2] |==|  0.82275
USER: genes 9 Torsion [N]-CA--C-[OXT] |==|  0.96860
USER: genes 10 Torsion [C]-CA--CB-[CG] |==|  0.39529
USER: genes 11 Torsion [CA]-CB--CG-[CD] |==|  0.64226
USER: genes 12 Torsion [CB]-CG--CD-[OE2] |==|  0.38176
USER: genes 13 Torsion [C]-CA--N-[C] |==|  0.78217
USER: genes 14 Torsion [N]-C--CA-[N] |==|  0.05517
USER: genes 15 Torsion [C]-CA--N-[C] |==|  0.67919
USER: genes 16 Torsion [N]-C--CA-[N] |==|  0.63238
USER: genes 17 Torsion [C]-CA--N-[C] |==|  0.67994
USER: genes 18 Torsion [C]-CA--CB-[CG] |==|  0.75815
USER: genes 19 Torsion [CA]-CB--CG-[SD] |==|  0.50141
USER: genes 20 Torsion [CB]-CG--SD-[CE] |==|  0.92202
USER: genes 21 Torsion [C]-CA--CB-[CG] |==|  0.24491
USER: genes 22 Torsion [CA]-CB--CG-[CD] |==|  0.24190
USER: genes 23 Torsion [CB]-CG--CD-[OE1] |==|  0.03131
ROOT
ATOM      1  CA  GLU B   3      22.668   7.165  14.967  1.00 16.51 LIG 0.18  C 
ENDROOT
BRANCH 1 2
ATOM      2  C   GLU B   3      21.251   6.894  15.460  1.00 15.77 LIG 0.24  C 
ATOM      3 O    GLU B   3      20.694   5.843  15.172  1.00 14.97 LIG-0.27  OA
ATOM      4  N   VAL B   4      20.665   7.838  16.196  1.00 15.94 LIG-0.35  N 
ATOM      5 H    VAL B   4      21.043   8.568  16.445  1.00 15.94 LIG 0.16  HD
BRANCH 4 6
ATOM      6  CA  VAL B   4      19.281   7.670  16.639  1.00 14.46 LIG 0.18  C 
BRANCH 6 7
ATOM      7  CB  VAL B   4      19.143   6.910  17.979  1.00 12.41 LIG 0.01  C 
ATOM      8  CG1 VAL B   4      19.114   5.400  17.718  1.00 11.08 LIG 0.01  C 
ATOM      9  CG2 VAL B   4      20.266   7.279  18.927  1.00 12.26 LIG 0.01  C 
ENDBRANCH 6 7
BRANCH 6 10
ATOM     10  C   VAL B   4      18.658   9.054  16.776  1.00 16.25 LIG 0.24  C 
ATOM     11 O    VAL B   4      19.352  10.031  17.089  1.00 16.95 LIG-0.27  OA
ATOM     12  N   ASP B   5      17.352   9.130  16.542  1.00 16.26 LIG-0.34  N 
ATOM     13 H    ASP B   5      16.864   8.449  16.347  1.00 16.26 LIG 0.16  HD
BRANCH 12 14
ATOM     14  CA  ASP B   5      16.619  10.387  16.594  1.00 17.99 LIG 0.20  C 
BRANCH 14 15
ATOM     15  CB  ASP B   5      15.800  10.527  15.311  1.00 19.95 LIG 0.15  C 
BRANCH 15 16
ATOM     16  CG  ASP B   5      16.673  10.725  14.089  1.00 23.79 LIG 0.17  C 
ATOM     17 OD2  ASP B   5      17.385  11.759  14.003  1.00 26.04 LIG-0.65  OA
ATOM     18 OD1  ASP B   5      16.636   9.853  13.201  1.00 23.66 LIG-0.65  OA
ENDBRANCH 15 16
ENDBRANCH 14 15
BRANCH 14 19
ATOM     19  C   ASP B   5      15.695  10.491  17.811  1.00 17.70 LIG 0.20  C 
ATOM     20 OXT  ASP B   5      15.496   9.458  18.485  1.00 18.22 LIG-0.65  OA
ATOM     21 O    ASP B   5      15.202  11.598  18.082  1.00 17.62 LIG-0.65  OA
ENDBRANCH 14 19
ENDBRANCH 12 14
ENDBRANCH 6 10
ENDBRANCH 4 6
ENDBRANCH 1 2
BRANCH 1 22
ATOM     22  CB  GLU B   3      23.113   5.950  14.139  1.00 19.71 LIG 0.04  C 
BRANCH 22 23
ATOM     23  CG  GLU B   3      23.950   6.279  12.914  1.00 25.47 LIG 0.12  C 
BRANCH 23 24
ATOM     24  CD  GLU B   3      23.412   5.622  11.642  1.00 29.25 LIG 0.17  C 
ATOM     25 OE1  GLU B   3      23.015   4.432  11.694  1.00 30.05 LIG-0.65  OA
ATOM     26 OE2  GLU B   3      23.384   6.306  10.593  1.00 32.05 LIG-0.65  OA
ENDBRANCH 23 24
ENDBRANCH 22 23
ENDBRANCH 1 22
BRANCH 1 27
ATOM     27  N   GLU B   3      23.623   7.411  16.051  1.00 15.41 LIG-0.35  N 
ATOM     28 H    GLU B   3      24.124   6.738  16.240  1.00 15.41 LIG 0.16  HD
ATOM     29  C   GLU B   2      23.692   8.582  16.675  1.00 15.20 LIG 0.24  C 
ATOM     30 O    GLU B   2      22.956   9.526  16.397  1.00 15.89 LIG-0.27  OA
BRANCH 29 31
ATOM     31  CA  GLU B   2      24.738   8.723  17.783  1.00 14.92 LIG 0.18  C 
BRANCH 31 32
ATOM     32  N   GLU B   2      25.723   7.671  17.558  1.00 15.61 LIG-0.35  N 
ATOM     33 H    GLU B   2      26.166   7.747  16.824  1.00 15.61 LIG 0.16  HD
ATOM     34  C   MET B   1      25.899   6.686  18.436  1.00 15.57 LIG 0.24  C 
ATOM     35 O    MET B   1      25.277   6.618  19.502  1.00 13.81 LIG-0.27  OA
BRANCH 34 36
ATOM     36  CA  MET B   1      26.919   5.610  18.046  1.00 16.08 LIG 0.18  C 
BRANCH 36 37
ATOM     37  N   MET B   1      26.401   4.258  18.243  1.00 16.60 LIG-0.35  N 
ATOM     38  C   ACE B   0      26.929   3.425  19.130  1.00 26.43 LIG 0.21  C 
ATOM     39 O    ACE B   0      27.869   3.732  19.864  1.00 27.07 LIG-0.27  OA
ATOM     40  CH3 ACE B   0      26.302   2.057  19.207  1.00 28.67 LIG 0.12  C 
ATOM     41 H    MET B   1      25.735   4.059  17.738  1.00 16.60 LIG 0.16  HD
ENDBRANCH 36 37
BRANCH 36 42
ATOM     42  CB  MET B   1      27.284   5.819  16.567  1.00 17.95 LIG 0.04  C 
BRANCH 42 43
ATOM     43  CG  MET B   1      26.387   5.138  15.562  1.00 19.71 LIG 0.08  C 
BRANCH 43 44
ATOM     44 SD   MET B   1      26.968   5.479  13.883  1.00 23.85 LIG-0.17  SA
ATOM     45  CE  MET B   1      27.754   7.060  14.126  1.00 19.76 LIG 0.09  C 
ENDBRANCH 43 44
ENDBRANCH 42 43
ENDBRANCH 36 42
ENDBRANCH 34 36
ENDBRANCH 31 32
BRANCH 31 46
ATOM     46  CB  GLU B   2      25.406  10.106  17.695  1.00 14.50 LIG 0.04  C 
BRANCH 46 47
ATOM     47  CG  GLU B   2      24.684  11.197  18.469  1.00 15.26 LIG 0.12  C 
BRANCH 47 48
ATOM     48  CD  GLU B   2      25.143  11.246  19.911  1.00 15.63 LIG 0.17  C 
ATOM     49 OE1  GLU B   2      26.153  10.591  20.239  1.00 15.54 LIG-0.65  OA
ATOM     50 OE2  GLU B   2      24.511  11.955  20.715  1.00 15.63 LIG-0.65  OA
ENDBRANCH 47 48
ENDBRANCH 46 47
ENDBRANCH 31 46
ENDBRANCH 29 31
ENDBRANCH 1 27
TORSDOF 22
ENDMDL
MODEL 12
USER: ADFR SOLUTION from run 10
USER: SCORE 19.341100 LL:  -3.340 LR: -17.128 RR:   0.000 FEB: -10.566
USER: RMSD 4.837912
USER: SEED 835748
USER: STATUS searching
USER: GENES 24
USER: genes 0 Translation |==|  0.47241 0.49781 0.48823
USER: genes 1 Rotation |==|  0.05360 0.41993 0.58833 0.69109
USER: genes 2 Torsion [N]-CA--C-[N] |==|  0.92448
USER: genes 3 Torsion [C]-N--CA-[CB] |==|  0.44446
USER: genes 4 Torsion [N]-CA--CB-[CG1] |==|  0.81749
USER: genes 5 Torsion [N]-CA--C-[N] |==|  0.43458
USER: genes 6 Torsion [C]-N--CA-[C] |==|  0.68692
USER: genes 7 Torsion [N]-CA--CB-[CG] |==|  0.81113
USER: genes 8 Torsion [CA]-CB--CG-[OD2] |==|  0.31111
USER: genes 9 Torsion [N]-CA--C-[OXT] |==|  0.96721
USER: genes 10 Torsion [C]-CA--CB-[CG] |==|  0.39962
USER: genes 11 Torsion [CA]-CB--CG-[CD] |==|  0.66095
USER: genes 12 Torsion [CB]-CG--CD-[OE2] |==|  0.34802
USER: genes 13 Torsion [C]-CA--N-[C] |==|  0.83743
USER: genes 14 Torsion [N]-C--CA-[N] |==|  0.00515
USER: genes 15 Torsion [C]-CA--N-[C] |==|  0.72598
USER: genes 16 Torsion [N]-C--CA-[N] |==|  0.96957
USER: genes 17 Torsion [C]-CA--N-[C] |==|  0.79513
USER: genes 18 Torsion [C]-CA--CB-[CG] |==|  0.47798
USER: genes 19 Torsion [CA]-CB--CG-[SD] |==|  0.80329
USER: genes 20 Torsion [CB]-CG--SD-[CE] |==|  0.27476
USER: genes 21 Torsion [C]-CA--CB-[CG] |==|  0.26105
USER: genes 22 Torsion [CA]-CB--CG-[CD] |==|  0.11243
USER: genes 23 Torsion [CB]-CG--CD-[OE1] |==|  0.19960
ROOT
ATOM      1  CA  GLU B   3      22.328   7.791  14.495  1.00 16.51 LIG 0.18  C 
ENDROOT
BRANCH 1 2
ATOM      2  C   GLU B   3      20.848   7.669  14.834  1.00 15.77 LIG 0.24  C 
ATOM      3 O    GLU B   3      20.006   7.801  13.956  1.00 14.97 LIG-0.27  OA
ATOM      4  N   VAL B   4      20.526   7.423  16.104  1.00 15.94 LIG-0.35  N 
ATOM      5 H    VAL B   4      21.094   7.289  16.736  1.00 15.94 LIG 0.16  HD
BRANCH 4 6
ATOM      6  CA  VAL B   4      19.121   7.367  16.510  1.00 14.46 LIG 0.18  C 
BRANCH 6 7
ATOM      7  CB  VAL B   4      18.887   6.614  17.841  1.00 12.41 LIG 0.01  C 
ATOM      8  CG1 VAL B   4      19.245   5.134  17.671  1.00 11.08 LIG 0.01  C 
ATOM      9  CG2 VAL B   4      19.685   7.244  18.965  1.00 12.26 LIG 0.01  C 
ENDBRANCH 6 7
BRANCH 6 10
ATOM     10  C   VAL B   4      18.609   8.796  16.638  1.00 16.25 LIG 0.24  C 
ATOM     11 O    VAL B   4      19.392   9.732  16.844  1.00 16.95 LIG-0.27  OA
ATOM     12  N   ASP B   5      17.295   8.955  16.518  1.00 16.26 LIG-0.34  N 
ATOM     13 H    ASP B   5      16.746   8.303  16.398  1.00 16.26 LIG 0.16  HD
BRANCH 12 14
ATOM     14  CA  ASP B   5      16.656  10.262  16.577  1.00 17.99 LIG 0.20  C 
BRANCH 14 15
ATOM     15  CB  ASP B   5      15.816  10.451  15.314  1.00 19.95 LIG 0.15  C 
BRANCH 15 16
ATOM     16  CG  ASP B   5      16.668  10.575  14.068  1.00 23.79 LIG 0.17  C 
ATOM     17 OD2  ASP B   5      16.636   9.657  13.208  1.00 26.04 LIG-0.65  OA
ATOM     18 OD1  ASP B   5      17.387  11.584  13.955  1.00 23.66 LIG-0.65  OA
ENDBRANCH 15 16
ENDBRANCH 14 15
BRANCH 14 19
ATOM     19  C   ASP B   5      15.774  10.441  17.817  1.00 17.70 LIG 0.20  C 
ATOM     20 OXT  ASP B   5      15.511   9.429  18.499  1.00 18.22 LIG-0.65  OA
ATOM     21 O    ASP B   5      15.378  11.585  18.096  1.00 17.62 LIG-0.65  OA
ENDBRANCH 14 19
ENDBRANCH 12 14
ENDBRANCH 6 10
ENDBRANCH 4 6
ENDBRANCH 1 2
BRANCH 1 22
ATOM     22  CB  GLU B   3      22.810   6.413  14.013  1.00 19.71 LIG 0.04  C 
BRANCH 22 23
ATOM     23  CG  GLU B   3      23.843   6.447  12.899  1.00 25.47 LIG 0.12  C 
BRANCH 23 24
ATOM     24  CD  GLU B   3      23.386   5.689  11.653  1.00 29.25 LIG 0.17  C 
ATOM     25 OE1  GLU B   3      23.023   4.492  11.768  1.00 30.05 LIG-0.65  OA
ATOM     26 OE2  GLU B   3      23.386   6.300  10.559  1.00 32.05 LIG-0.65  OA
ENDBRANCH 23 24
ENDBRANCH 22 23
ENDBRANCH 1 22
BRANCH 1 27
ATOM     27  N   GLU B   3      23.148   8.243  15.623  1.00 15.41 LIG-0.35  N 
ATOM     28 H    GLU B   3      23.774   7.697  15.845  1.00 15.41 LIG 0.16  HD
ATOM     29  C   GLU B   2      22.924   9.400  16.235  1.00 15.20 LIG 0.24  C 
ATOM     30 O    GLU B   2      22.013  10.158  15.908  1.00 15.89 LIG-0.27  OA
BRANCH 29 31
ATOM     31  CA  GLU B   2      23.852   9.770  17.394  1.00 14.92 LIG 0.18  C 
BRANCH 31 32
ATOM     32  N   GLU B   2      24.833   8.695  17.496  1.00 15.61 LIG-0.35  N 
ATOM     33 H    GLU B   2      25.485   8.752  16.940  1.00 15.61 LIG 0.16  HD
ATOM     34  C   MET B   1      24.699   7.718  18.391  1.00 15.57 LIG 0.24  C 
ATOM     35 O    MET B   1      23.772   7.678  19.207  1.00 13.81 LIG-0.27  OA
BRANCH 34 36
ATOM     36  CA  MET B   1      25.764   6.615  18.350  1.00 16.08 LIG 0.18  C 
BRANCH 36 37
ATOM     37  N   MET B   1      26.603   6.701  17.158  1.00 16.60 LIG-0.35  N 
ATOM     38  C   ACE B   0      26.159   6.352  15.958  1.00 26.43 LIG 0.21  C 
ATOM     39 O    ACE B   0      25.011   5.955  15.756  1.00 27.07 LIG-0.27  OA
ATOM     40  CH3 ACE B   0      27.145   6.475  14.825  1.00 28.67 LIG 0.12  C 
ATOM     41 H    MET B   1      27.398   6.995  17.306  1.00 16.60 LIG 0.16  HD
ENDBRANCH 36 37
BRANCH 36 42
ATOM     42  CB  MET B   1      26.632   6.751  19.612  1.00 17.95 LIG 0.04  C 
BRANCH 42 43
ATOM     43  CG  MET B   1      27.626   5.642  19.853  1.00 19.71 LIG 0.08  C 
BRANCH 43 44
ATOM     44 SD   MET B   1      26.761   4.128  20.332  1.00 23.85 LIG-0.17  SA
ATOM     45  CE  MET B   1      26.732   3.264  18.773  1.00 19.76 LIG 0.09  C 
ENDBRANCH 43 44
ENDBRANCH 42 43
ENDBRANCH 36 42
ENDBRANCH 34 36
ENDBRANCH 31 32
BRANCH 31 46
ATOM     46  CB  GLU B   2      24.556  11.105  17.090  1.00 14.50 LIG 0.04  C 
BRANCH 46 47
ATOM     47  CG  GLU B   2      23.851  12.324  17.663  1.00 15.26 LIG 0.12  C 
BRANCH 47 48
ATOM     48  CD  GLU B   2      23.322  12.052  19.054  1.00 15.63 LIG 0.17  C 
ATOM     49 OE1  GLU B   2      24.135  11.955  19.996  1.00 15.54 LIG-0.65  OA
ATOM     50 OE2  GLU B   2      22.091  11.955  19.216  1.00 15.63 LIG-0.65  OA
ENDBRANCH 47 48
ENDBRANCH 46 47
ENDBRANCH 31 46
ENDBRANCH 29 31
ENDBRANCH 1 27
TORSDOF 22
ENDMDL
MODEL 13
USER: ADFR SOLUTION from run 18
USER: SCORE 18.707854 LL:  -3.171 LR: -17.117 RR:   0.000 FEB: -10.555
USER: RMSD 11.168735
USER: SEED 17
USER: STATUS searching
USER: GENES 24
USER: genes 0 Translation |==|  0.68936 0.36110 0.53576
USER: genes 1 Rotation |==|  0.64327 0.90264 0.75243 0.56032
USER: genes 2 Torsion [N]-CA--C-[N] |==|  0.04057
USER: genes 3 Torsion [C]-N--CA-[CB] |==|  0.29992
USER: genes 4 Torsion [N]-CA--CB-[CG1] |==|  0.37405
USER: genes 5 Torsion [N]-CA--C-[N] |==|  0.36688
USER: genes 6 Torsion [C]-N--CA-[C] |==|  0.75057
USER: genes 7 Torsion [N]-CA--CB-[CG] |==|  0.56561
USER: genes 8 Torsion [CA]-CB--CG-[OD2] |==|  0.63716
USER: genes 9 Torsion [N]-CA--C-[OXT] |==|  0.44218
USER: genes 10 Torsion [C]-CA--CB-[CG] |==|  0.80231
USER: genes 11 Torsion [CA]-CB--CG-[CD] |==|  0.42430
USER: genes 12 Torsion [CB]-CG--CD-[OE2] |==|  0.93087
USER: genes 13 Torsion [C]-CA--N-[C] |==|  0.74540
USER: genes 14 Torsion [N]-C--CA-[N] |==|  0.36683
USER: genes 15 Torsion [C]-CA--N-[C] |==|  0.83384
USER: genes 16 Torsion [N]-C--CA-[N] |==|  0.37217
USER: genes 17 Torsion [C]-CA--N-[C] |==|  0.64690
USER: genes 18 Torsion [C]-CA--CB-[CG] |==|  0.11650
USER: genes 19 Torsion [CA]-CB--CG-[SD] |==|  0.22193
USER: genes 20 Torsion [CB]-CG--SD-[CE] |==|  0.55492
USER: genes 21 Torsion [C]-CA--CB-[CG] |==|  0.81356
USER: genes 22 Torsion [CA]-CB--CG-[CD] |==|  0.74358
USER: genes 23 Torsion [CB]-CG--CD-[OE1] |==|  0.76738
ROOT
ATOM      1  CA  GLU B   3      27.698   5.330  15.351  1.00 16.51 LIG 0.18  C 
ENDROOT
BRANCH 1 2
ATOM      2  C   GLU B   3      28.887   4.630  14.705  1.00 15.77 LIG 0.24  C 
ATOM      3 O    GLU B   3      30.009   4.774  15.172  1.00 14.97 LIG-0.27  OA
ATOM      4  N   VAL B   4      28.649   3.880  13.629  1.00 15.94 LIG-0.35  N 
ATOM      5 H    VAL B   4      27.870   3.730  13.300  1.00 15.94 LIG 0.16  HD
BRANCH 4 6
ATOM      6  CA  VAL B   4      29.757   3.240  12.919  1.00 14.46 LIG 0.18  C 
BRANCH 6 7
ATOM      7  CB  VAL B   4      29.823   1.707  13.118  1.00 12.41 LIG 0.01  C 
ATOM      8  CG1 VAL B   4      30.062   1.019  11.770  1.00 11.08 LIG 0.01  C 
ATOM      9  CG2 VAL B   4      30.900   1.339  14.118  1.00 12.26 LIG 0.01  C 
ENDBRANCH 6 7
BRANCH 6 10
ATOM     10  C   VAL B   4      29.610   3.553  11.435  1.00 16.25 LIG 0.24  C 
ATOM     11 O    VAL B   4      28.522   3.405  10.863  1.00 16.95 LIG-0.27  OA
ATOM     12  N   ASP B   5      30.708   3.982  10.820  1.00 16.26 LIG-0.34  N 
ATOM     13 H    ASP B   5      31.470   4.063  11.210  1.00 16.26 LIG 0.16  HD
BRANCH 12 14
ATOM     14  CA  ASP B   5      30.720   4.359   9.414  1.00 17.99 LIG 0.20  C 
BRANCH 14 15
ATOM     15  CB  ASP B   5      31.750   5.471   9.216  1.00 19.95 LIG 0.15  C 
BRANCH 15 16
ATOM     16  CG  ASP B   5      31.461   6.312   7.989  1.00 23.79 LIG 0.17  C 
ATOM     17 OD2  ASP B   5      32.387   6.538   7.168  1.00 26.04 LIG-0.65  OA
ATOM     18 OD1  ASP B   5      30.310   6.763   7.853  1.00 23.66 LIG-0.65  OA
ENDBRANCH 15 16
ENDBRANCH 14 15
BRANCH 14 19
ATOM     19  C   ASP B   5      31.041   3.186   8.482  1.00 17.70 LIG 0.20  C 
ATOM     20 OXT  ASP B   5      30.699   3.278   7.285  1.00 18.22 LIG-0.65  OA
ATOM     21 O    ASP B   5      31.641   2.207   8.956  1.00 17.62 LIG-0.65  OA
ENDBRANCH 14 19
ENDBRANCH 12 14
ENDBRANCH 6 10
ENDBRANCH 4 6
ENDBRANCH 1 2
BRANCH 1 22
ATOM     22  CB  GLU B   3      27.830   5.162  16.872  1.00 19.71 LIG 0.04  C 
BRANCH 22 23
ATOM     23  CG  GLU B   3      27.577   3.755  17.388  1.00 25.47 LIG 0.12  C 
BRANCH 23 24
ATOM     24  CD  GLU B   3      28.325   3.465  18.691  1.00 29.25 LIG 0.17  C 
ATOM     25 OE1  GLU B   3      27.881   2.579  19.462  1.00 30.05 LIG-0.65  OA
ATOM     26 OE2  GLU B   3      29.362   4.125  18.935  1.00 32.05 LIG-0.65  OA
ENDBRANCH 23 24
ENDBRANCH 22 23
ENDBRANCH 1 22
BRANCH 1 27
ATOM     27  N   GLU B   3      26.403   4.811  14.900  1.00 15.41 LIG-0.35  N 
ATOM     28 H    GLU B   3      26.110   4.146  15.359  1.00 15.41 LIG 0.16  HD
ATOM     29  C   GLU B   2      25.756   5.338  13.866  1.00 15.20 LIG 0.24  C 
ATOM     30 O    GLU B   2      26.203   6.281  13.215  1.00 15.89 LIG-0.27  OA
BRANCH 29 31
ATOM     31  CA  GLU B   2      24.407   4.719  13.495  1.00 14.92 LIG 0.18  C 
BRANCH 31 32
ATOM     32  N   GLU B   2      23.475   5.829  13.331  1.00 15.61 LIG-0.35  N 
ATOM     33 H    GLU B   2      23.121   5.886  12.549  1.00 15.61 LIG 0.16  HD
ATOM     34  C   MET B   1      23.214   6.669  14.331  1.00 15.57 LIG 0.24  C 
ATOM     35 O    MET B   1      23.706   6.545  15.457  1.00 13.81 LIG-0.27  OA
BRANCH 34 36
ATOM     36  CA  MET B   1      22.267   7.831  14.006  1.00 16.08 LIG 0.18  C 
BRANCH 36 37
ATOM     37  N   MET B   1      21.244   8.014  15.032  1.00 16.60 LIG-0.35  N 
ATOM     38  C   ACE B   0      19.951   8.058  14.736  1.00 26.43 LIG 0.21  C 
ATOM     39 O    ACE B   0      19.520   7.926  13.590  1.00 27.07 LIG-0.27  OA
ATOM     40  CH3 ACE B   0      19.014   8.274  15.896  1.00 28.67 LIG 0.12  C 
ATOM     41 H    MET B   1      21.554   8.089  15.830  1.00 16.60 LIG 0.16  HD
ENDBRANCH 36 37
BRANCH 36 42
ATOM     42  CB  MET B   1      23.114   9.108  13.878  1.00 17.95 LIG 0.04  C 
BRANCH 42 43
ATOM     43  CG  MET B   1      24.420   8.965  13.136  1.00 19.71 LIG 0.08  C 
BRANCH 43 44
ATOM     44 SD   MET B   1      24.124   8.988  11.352  1.00 23.85 LIG-0.17  SA
ATOM     45  CE  MET B   1      25.626   8.229  10.764  1.00 19.76 LIG 0.09  C 
ENDBRANCH 43 44
ENDBRANCH 42 43
ENDBRANCH 36 42
ENDBRANCH 34 36
ENDBRANCH 31 32
BRANCH 31 46
ATOM     46  CB  GLU B   2      24.539   3.935  12.178  1.00 14.50 LIG 0.04  C 
BRANCH 46 47
ATOM     47  CG  GLU B   2      24.811   4.805  10.961  1.00 15.26 LIG 0.12  C 
BRANCH 47 48
ATOM     48  CD  GLU B   2      23.525   5.205  10.270  1.00 15.63 LIG 0.17  C 
ATOM     49 OE1  GLU B   2      23.012   4.412   9.455  1.00 15.54 LIG-0.65  OA
ATOM     50 OE2  GLU B   2      23.011   6.302  10.555  1.00 15.63 LIG-0.65  OA
ENDBRANCH 47 48
ENDBRANCH 46 47
ENDBRANCH 31 46
ENDBRANCH 29 31
ENDBRANCH 1 27
TORSDOF 22
ENDMDL
MODEL 14
USER: ADFR SOLUTION from run 189
USER: SCORE 18.110407 LL:  -2.336 LR: -17.120 RR:   0.000 FEB: -10.557
USER: RMSD 10.766173
USER: SEED 188
USER: STATUS no improvement in best in 7 clusters for 5 generations
USER: GENES 24
USER: genes 0 Translation |==|  0.56236 0.34012 0.43273
USER: genes 1 Rotation |==|  0.40342 0.57638 0.01951 0.56296
USER: genes 2 Torsion [N]-CA--C-[N] |==|  0.52191
USER: genes 3 Torsion [C]-N--CA-[CB] |==|  0.22041
USER: genes 4 Torsion [N]-CA--CB-[CG1] |==|  0.74146
USER: genes 5 Torsion [N]-CA--C-[N] |==|  0.94705
USER: genes 6 Torsion [C]-N--CA-[C] |==|  0.82192
USER: genes 7 Torsion [N]-CA--CB-[CG] |==|  0.45925
USER: genes 8 Torsion [CA]-CB--CG-[OD2] |==|  0.14284
USER: genes 9 Torsion [N]-CA--C-[OXT] |==|  0.88657
USER: genes 10 Torsion [C]-CA--CB-[CG] |==|  0.85277
USER: genes 11 Torsion [CA]-CB--CG-[CD] |==|  0.75301
USER: genes 12 Torsion [CB]-CG--CD-[OE2] |==|  0.74077
USER: genes 13 Torsion [C]-CA--N-[C] |==|  0.76085
USER: genes 14 Torsion [N]-C--CA-[N] |==|  0.46627
USER: genes 15 Torsion [C]-CA--N-[C] |==|  0.67367
USER: genes 16 Torsion [N]-C--CA-[N] |==|  0.36761
USER: genes 17 Torsion [C]-CA--N-[C] |==|  0.64280
USER: genes 18 Torsion [C]-CA--CB-[CG] |==|  0.39213
USER: genes 19 Torsion [CA]-CB--CG-[SD] |==|  0.96999
USER: genes 20 Torsion [CB]-CG--SD-[CE] |==|  0.80246
USER: genes 21 Torsion [C]-CA--CB-[CG] |==|  0.57543
USER: genes 22 Torsion [CA]-CB--CG-[CD] |==|  0.81868
USER: genes 23 Torsion [CB]-CG--CD-[OE1] |==|  0.54408
ROOT
ATOM      1  CA  GLU B   3      24.554   4.952  13.496  1.00 16.51 LIG 0.18  C 
ENDROOT
BRANCH 1 2
ATOM      2  C   GLU B   3      25.904   5.659  13.466  1.00 15.77 LIG 0.24  C 
ATOM      3 O    GLU B   3      25.955   6.882  13.482  1.00 14.97 LIG-0.27  OA
ATOM      4  N   VAL B   4      26.996   4.897  13.415  1.00 15.94 LIG-0.35  N 
ATOM      5 H    VAL B   4      26.995   4.038  13.439  1.00 15.94 LIG 0.16  HD
BRANCH 4 6
ATOM      6  CA  VAL B   4      28.319   5.513  13.310  1.00 14.46 LIG 0.18  C 
BRANCH 6 7
ATOM      7  CB  VAL B   4      28.864   6.052  14.654  1.00 12.41 LIG 0.01  C 
ATOM      8  CG1 VAL B   4      28.496   7.531  14.808  1.00 11.08 LIG 0.01  C 
ATOM      9  CG2 VAL B   4      28.336   5.234  15.816  1.00 12.26 LIG 0.01  C 
ENDBRANCH 6 7
BRANCH 6 10
ATOM     10  C   VAL B   4      29.283   4.473  12.753  1.00 16.25 LIG 0.24  C 
ATOM     11 O    VAL B   4      30.357   4.815  12.243  1.00 16.95 LIG-0.27  OA
ATOM     12  N   ASP B   5      28.892   3.206  12.854  1.00 16.26 LIG-0.34  N 
ATOM     13 H    ASP B   5      28.136   2.967  13.188  1.00 16.26 LIG 0.16  HD
BRANCH 12 14
ATOM     14  CA  ASP B   5      29.717   2.094  12.405  1.00 17.99 LIG 0.20  C 
BRANCH 14 15
ATOM     15  CB  ASP B   5      29.035   0.787  12.807  1.00 19.95 LIG 0.15  C 
BRANCH 15 16
ATOM     16  CG  ASP B   5      29.618  -0.412  12.088  1.00 23.79 LIG 0.17  C 
ATOM     17 OD2  ASP B   5      30.863  -0.591  12.102  1.00 26.04 LIG-0.65  OA
ATOM     18 OD1  ASP B   5      28.832  -1.170  11.491  1.00 23.66 LIG-0.65  OA
ENDBRANCH 15 16
ENDBRANCH 14 15
BRANCH 14 19
ATOM     19  C   ASP B   5      29.965   2.105  10.893  1.00 17.70 LIG 0.20  C 
ATOM     20 OXT  ASP B   5      29.010   2.404  10.146  1.00 18.22 LIG-0.65  OA
ATOM     21 O    ASP B   5      31.105   1.834  10.483  1.00 17.62 LIG-0.65  OA
ENDBRANCH 14 19
ENDBRANCH 12 14
ENDBRANCH 6 10
ENDBRANCH 4 6
ENDBRANCH 1 2
BRANCH 1 22
ATOM     22  CB  GLU B   3      24.540   3.928  12.350  1.00 19.71 LIG 0.04  C 
BRANCH 22 23
ATOM     23  CG  GLU B   3      24.887   4.491  10.982  1.00 25.47 LIG 0.12  C 
BRANCH 23 24
ATOM     24  CD  GLU B   3      23.659   5.011  10.233  1.00 29.25 LIG 0.17  C 
ATOM     25 OE1  GLU B   3      23.286   6.195  10.425  1.00 30.05 LIG-0.65  OA
ATOM     26 OE2  GLU B   3      23.074   4.230   9.447  1.00 32.05 LIG-0.65  OA
ENDBRANCH 23 24
ENDBRANCH 22 23
ENDBRANCH 1 22
BRANCH 1 27
ATOM     27  N   GLU B   3      23.416   5.867  13.367  1.00 15.41 LIG-0.35  N 
ATOM     28 H    GLU B   3      23.133   5.966  12.561  1.00 15.41 LIG 0.16  HD
ATOM     29  C   GLU B   2      22.884   6.479  14.418  1.00 15.20 LIG 0.24  C 
ATOM     30 O    GLU B   2      23.315   6.332  15.560  1.00 15.89 LIG-0.27  OA
BRANCH 29 31
ATOM     31  CA  GLU B   2      21.691   7.403  14.161  1.00 14.92 LIG 0.18  C 
BRANCH 31 32
ATOM     32  N   GLU B   2      21.118   7.710  15.467  1.00 15.61 LIG-0.35  N 
ATOM     33 H    GLU B   2      21.645   8.133  15.998  1.00 15.61 LIG 0.16  HD
ATOM     34  C   MET B   1      19.875   7.350  15.781  1.00 15.57 LIG 0.24  C 
ATOM     35 O    MET B   1      19.122   6.775  14.987  1.00 13.81 LIG-0.27  OA
BRANCH 34 36
ATOM     36  CA  MET B   1      19.419   7.676  17.208  1.00 16.08 LIG 0.18  C 
BRANCH 36 37
ATOM     37  N   MET B   1      18.105   8.314  17.237  1.00 16.60 LIG-0.35  N 
ATOM     38  C   ACE B   0      17.887   9.446  17.892  1.00 26.43 LIG 0.21  C 
ATOM     39 O    ACE B   0      18.771  10.052  18.499  1.00 27.07 LIG-0.27  OA
ATOM     40  CH3 ACE B   0      16.476   9.974  17.850  1.00 28.67 LIG 0.12  C 
ATOM     41 H    MET B   1      17.498   7.892  16.797  1.00 16.60 LIG 0.16  HD
ENDBRANCH 36 37
BRANCH 36 42
ATOM     42  CB  MET B   1      19.378   6.360  18.002  1.00 17.95 LIG 0.04  C 
BRANCH 42 43
ATOM     43  CG  MET B   1      19.849   6.436  19.434  1.00 19.71 LIG 0.08  C 
BRANCH 43 44
ATOM     44 SD   MET B   1      20.643   8.032  19.741  1.00 23.85 LIG-0.17  SA
ATOM     45  CE  MET B   1      22.150   7.829  18.811  1.00 19.76 LIG 0.09  C 
ENDBRANCH 43 44
ENDBRANCH 42 43
ENDBRANCH 36 42
ENDBRANCH 34 36
ENDBRANCH 31 32
BRANCH 31 46
ATOM     46  CB  GLU B   2      22.170   8.693  13.473  1.00 14.50 LIG 0.04  C 
BRANCH 46 47
ATOM     47  CG  GLU B   2      21.290   9.903  13.738  1.00 15.26 LIG 0.12  C 
BRANCH 47 48
ATOM     48  CD  GLU B   2      19.912   9.725  13.140  1.00 15.63 LIG 0.17  C 
ATOM     49 OE1  GLU B   2      19.182  10.728  13.009  1.00 15.54 LIG-0.65  OA
ATOM     50 OE2  GLU B   2      19.561   8.586  12.779  1.00 15.63 LIG-0.65  OA
ENDBRANCH 47 48
ENDBRANCH 46 47
ENDBRANCH 31 46
ENDBRANCH 29 31
ENDBRANCH 1 27
TORSDOF 22
ENDMDL
MODEL 15
USER: ADFR SOLUTION from run 11
USER: SCORE 18.404091 LL:  -2.997 LR: -17.065 RR:   0.000 FEB: -10.503
USER: RMSD 10.799124
USER: SEED 101768
USER: STATUS searching
USER: GENES 24
USER: genes 0 Translation |==|  0.68023 0.33089 0.58262
USER: genes 1 Rotation |==|  0.64818 0.78410 0.87879 0.56206
USER: genes 2 Torsion [N]-CA--C-[N] |==|  0.95175
USER: genes 3 Torsion [C]-N--CA-[CB] |==|  0.26111
USER: genes 4 Torsion [N]-CA--CB-[CG1] |==|  0.24581
USER: genes 5 Torsion [N]-CA--C-[N] |==|  0.45955
USER: genes 6 Torsion [C]-N--CA-[C] |==|  0.65305
USER: genes 7 Torsion [N]-CA--CB-[CG] |==|  0.59126
USER: genes 8 Torsion [CA]-CB--CG-[OD2] |==|  0.59442
USER: genes 9 Torsion [N]-CA--C-[OXT] |==|  0.00316
USER: genes 10 Torsion [C]-CA--CB-[CG] |==|  0.38859
USER: genes 11 Torsion [CA]-CB--CG-[CD] |==|  0.63484
USER: genes 12 Torsion [CB]-CG--CD-[OE2] |==|  0.88012
USER: genes 13 Torsion [C]-CA--N-[C] |==|  0.83720
USER: genes 14 Torsion [N]-C--CA-[N] |==|  0.29228
USER: genes 15 Torsion [C]-CA--N-[C] |==|  0.69659
USER: genes 16 Torsion [N]-C--CA-[N] |==|  0.50462
USER: genes 17 Torsion [C]-CA--N-[C] |==|  0.75130
USER: genes 18 Torsion [C]-CA--CB-[CG] |==|  0.78810
USER: genes 19 Torsion [CA]-CB--CG-[SD] |==|  0.35078
USER: genes 20 Torsion [CB]-CG--SD-[CE] |==|  0.55656
USER: genes 21 Torsion [C]-CA--CB-[CG] |==|  0.35853
USER: genes 22 Torsion [CA]-CB--CG-[CD] |==|  0.29391
USER: genes 23 Torsion [CB]-CG--CD-[OE1] |==|  0.45602
ROOT
ATOM      1  CA  GLU B   3      27.472   4.786  16.194  1.00 16.51 LIG 0.18  C 
ENDROOT
BRANCH 1 2
ATOM      2  C   GLU B   3      28.755   4.441  15.449  1.00 15.77 LIG 0.24  C 
ATOM      3 O    GLU B   3      29.842   4.670  15.964  1.00 14.97 LIG-0.27  OA
ATOM      4  N   VAL B   4      28.636   3.899  14.238  1.00 15.94 LIG-0.35  N 
ATOM      5 H    VAL B   4      27.889   3.693  13.865  1.00 15.94 LIG 0.16  HD
BRANCH 4 6
ATOM      6  CA  VAL B   4      29.829   3.611  13.440  1.00 14.46 LIG 0.18  C 
BRANCH 6 7
ATOM      7  CB  VAL B   4      30.350   2.164  13.598  1.00 12.41 LIG 0.01  C 
ATOM      8  CG1 VAL B   4      29.662   1.249  12.579  1.00 11.08 LIG 0.01  C 
ATOM      9  CG2 VAL B   4      31.858   2.114  13.446  1.00 12.26 LIG 0.01  C 
ENDBRANCH 6 7
BRANCH 6 10
ATOM     10  C   VAL B   4      29.492   3.871  11.977  1.00 16.25 LIG 0.24  C 
ATOM     11 O    VAL B   4      28.316   3.994  11.611  1.00 16.95 LIG-0.27  OA
ATOM     12  N   ASP B   5      30.528   3.952  11.147  1.00 16.26 LIG-0.34  N 
ATOM     13 H    ASP B   5      31.344   3.844  11.395  1.00 16.26 LIG 0.16  HD
BRANCH 12 14
ATOM     14  CA  ASP B   5      30.373   4.235   9.728  1.00 17.99 LIG 0.20  C 
BRANCH 14 15
ATOM     15  CB  ASP B   5      30.983   5.606   9.435  1.00 19.95 LIG 0.15  C 
BRANCH 15 16
ATOM     16  CG  ASP B   5      30.252   6.337   8.328  1.00 23.79 LIG 0.17  C 
ATOM     17 OD2  ASP B   5      30.902   7.080   7.548  1.00 26.04 LIG-0.65  OA
ATOM     18 OD1  ASP B   5      29.019   6.182   8.246  1.00 23.66 LIG-0.65  OA
ENDBRANCH 15 16
ENDBRANCH 14 15
BRANCH 14 19
ATOM     19  C   ASP B   5      31.025   3.177   8.832  1.00 17.70 LIG 0.20  C 
ATOM     20 OXT  ASP B   5      31.582   2.205   9.385  1.00 18.22 LIG-0.65  OA
ATOM     21 O    ASP B   5      30.954   3.324   7.601  1.00 17.62 LIG-0.65  OA
ENDBRANCH 14 19
ENDBRANCH 12 14
ENDBRANCH 6 10
ENDBRANCH 4 6
ENDBRANCH 1 2
BRANCH 1 22
ATOM     22  CB  GLU B   3      27.268   3.723  17.285  1.00 19.71 LIG 0.04  C 
BRANCH 22 23
ATOM     23  CG  GLU B   3      26.760   4.257  18.615  1.00 25.47 LIG 0.12  C 
BRANCH 23 24
ATOM     24  CD  GLU B   3      27.571   3.738  19.803  1.00 29.25 LIG 0.17  C 
ATOM     25 OE1  GLU B   3      27.885   4.536  20.720  1.00 30.05 LIG-0.65  OA
ATOM     26 OE2  GLU B   3      27.886   2.525  19.816  1.00 32.05 LIG-0.65  OA
ENDBRANCH 23 24
ENDBRANCH 22 23
ENDBRANCH 1 22
BRANCH 1 27
ATOM     27  N   GLU B   3      26.293   4.846  15.325  1.00 15.41 LIG-0.35  N 
ATOM     28 H    GLU B   3      25.664   4.302  15.545  1.00 15.41 LIG 0.16  HD
ATOM     29  C   GLU B   2      26.224   5.676  14.290  1.00 15.20 LIG 0.24  C 
ATOM     30 O    GLU B   2      27.142   6.434  13.986  1.00 15.89 LIG-0.27  OA
BRANCH 29 31
ATOM     31  CA  GLU B   2      24.937   5.656  13.462  1.00 14.92 LIG 0.18  C 
BRANCH 31 32
ATOM     32  N   GLU B   2      24.199   6.863  13.818  1.00 15.61 LIG-0.35  N 
ATOM     33 H    GLU B   2      24.548   7.594  13.528  1.00 15.61 LIG 0.16  HD
ATOM     34  C   MET B   1      23.078   6.805  14.534  1.00 15.57 LIG 0.24  C 
ATOM     35 O    MET B   1      22.576   5.739  14.907  1.00 13.81 LIG-0.27  OA
BRANCH 34 36
ATOM     36  CA  MET B   1      22.438   8.150  14.894  1.00 16.08 LIG 0.18  C 
BRANCH 36 37
ATOM     37  N   MET B   1      21.238   7.991  15.711  1.00 16.60 LIG-0.35  N 
ATOM     38  C   ACE B   0      20.033   7.855  15.173  1.00 26.43 LIG 0.21  C 
ATOM     39 O    ACE B   0      19.840   7.830  13.957  1.00 27.07 LIG-0.27  OA
ATOM     40  CH3 ACE B   0      18.886   7.721  16.141  1.00 28.67 LIG 0.12  C 
ATOM     41 H    MET B   1      21.384   7.993  16.559  1.00 16.60 LIG 0.16  HD
ENDBRANCH 36 37
BRANCH 36 42
ATOM     42  CB  MET B   1      23.483   8.981  15.658  1.00 17.95 LIG 0.04  C 
BRANCH 42 43
ATOM     43  CG  MET B   1      23.717   8.589  17.096  1.00 19.71 LIG 0.08  C 
BRANCH 43 44
ATOM     44 SD   MET B   1      25.478   8.290  17.379  1.00 23.85 LIG-0.17  SA
ATOM     45  CE  MET B   1      25.405   7.294  18.856  1.00 19.76 LIG 0.09  C 
ENDBRANCH 43 44
ENDBRANCH 42 43
ENDBRANCH 36 42
ENDBRANCH 34 36
ENDBRANCH 31 32
BRANCH 31 46
ATOM     46  CB  GLU B   2      25.284   5.666  11.963  1.00 14.50 LIG 0.04  C 
BRANCH 46 47
ATOM     47  CG  GLU B   2      24.591   4.580  11.156  1.00 15.26 LIG 0.12  C 
BRANCH 47 48
ATOM     48  CD  GLU B   2      23.472   5.149  10.311  1.00 15.63 LIG 0.17  C 
ATOM     49 OE1  GLU B   2      23.011   4.455   9.382  1.00 15.54 LIG-0.65  OA
ATOM     50 OE2  GLU B   2      23.035   6.282  10.584  1.00 15.63 LIG-0.65  OA
ENDBRANCH 47 48
ENDBRANCH 46 47
ENDBRANCH 31 46
ENDBRANCH 29 31
ENDBRANCH 1 27
TORSDOF 22
ENDMDL
MODEL 16
USER: ADFR SOLUTION from run 181
USER: SCORE 17.938736 LL:  -2.653 LR: -16.934 RR:   0.000 FEB: -10.372
USER: RMSD 10.769004
USER: SEED 180
USER: STATUS no improvement in best in 4 clusters for 5 generations
USER: GENES 24
USER: genes 0 Translation |==|  0.56493 0.37036 0.43543
USER: genes 1 Rotation |==|  0.70157 0.42837 0.94464 0.58084
USER: genes 2 Torsion [N]-CA--C-[N] |==|  0.43258
USER: genes 3 Torsion [C]-N--CA-[CB] |==|  0.49444
USER: genes 4 Torsion [N]-CA--CB-[CG1] |==|  0.38003
USER: genes 5 Torsion [N]-CA--C-[N] |==|  0.42834
USER: genes 6 Torsion [C]-N--CA-[C] |==|  0.66514
USER: genes 7 Torsion [N]-CA--CB-[CG] |==|  0.15409
USER: genes 8 Torsion [CA]-CB--CG-[OD2] |==|  0.86403
USER: genes 9 Torsion [N]-CA--C-[OXT] |==|  0.40849
USER: genes 10 Torsion [C]-CA--CB-[CG] |==|  0.96191
USER: genes 11 Torsion [CA]-CB--CG-[CD] |==|  0.74213
USER: genes 12 Torsion [CB]-CG--CD-[OE2] |==|  0.09652
USER: genes 13 Torsion [C]-CA--N-[C] |==|  0.60649
USER: genes 14 Torsion [N]-C--CA-[N] |==|  0.31408
USER: genes 15 Torsion [C]-CA--N-[C] |==|  0.71111
USER: genes 16 Torsion [N]-C--CA-[N] |==|  0.60820
USER: genes 17 Torsion [C]-CA--N-[C] |==|  0.66063
USER: genes 18 Torsion [C]-CA--CB-[CG] |==|  0.81856
USER: genes 19 Torsion [CA]-CB--CG-[SD] |==|  0.43247
USER: genes 20 Torsion [CB]-CG--SD-[CE] |==|  0.04865
USER: genes 21 Torsion [C]-CA--CB-[CG] |==|  0.81634
USER: genes 22 Torsion [CA]-CB--CG-[CD] |==|  0.71878
USER: genes 23 Torsion [CB]-CG--CD-[OE1] |==|  0.25617
ROOT
ATOM      1  CA  GLU B   3      24.618   5.496  13.545  1.00 16.51 LIG 0.18  C 
ENDROOT
BRANCH 1 2
ATOM      2  C   GLU B   3      25.903   5.472  12.727  1.00 15.77 LIG 0.24  C 
ATOM      3 O    GLU B   3      26.128   6.358  11.914  1.00 14.97 LIG-0.27  OA
ATOM      4  N   VAL B   4      26.744   4.458  12.933  1.00 15.94 LIG-0.35  N 
ATOM      5 H    VAL B   4      26.632   3.842  13.522  1.00 15.94 LIG 0.16  HD
BRANCH 4 6
ATOM      6  CA  VAL B   4      27.961   4.337  12.129  1.00 14.46 LIG 0.18  C 
BRANCH 6 7
ATOM      7  CB  VAL B   4      28.852   3.136  12.525  1.00 12.41 LIG 0.01  C 
ATOM      8  CG1 VAL B   4      29.356   2.425  11.265  1.00 11.08 LIG 0.01  C 
ATOM      9  CG2 VAL B   4      30.006   3.585  13.398  1.00 12.26 LIG 0.01  C 
ENDBRANCH 6 7
BRANCH 6 10
ATOM     10  C   VAL B   4      27.550   4.202  10.668  1.00 16.25 LIG 0.24  C 
ATOM     11 O    VAL B   4      26.442   3.742  10.363  1.00 16.95 LIG-0.27  OA
ATOM     12  N   ASP B   5      28.447   4.605   9.773  1.00 16.26 LIG-0.34  N 
ATOM     13 H    ASP B   5      29.225   4.904   9.982  1.00 16.26 LIG 0.16  HD
BRANCH 12 14
ATOM     14  CA  ASP B   5      28.189   4.578   8.341  1.00 17.99 LIG 0.20  C 
BRANCH 14 15
ATOM     15  CB  ASP B   5      28.239   6.010   7.809  1.00 19.95 LIG 0.15  C 
BRANCH 15 16
ATOM     16  CG  ASP B   5      29.546   6.702   8.139  1.00 23.79 LIG 0.17  C 
ATOM     17 OD2  ASP B   5      29.981   6.662   9.319  1.00 26.04 LIG-0.65  OA
ATOM     18 OD1  ASP B   5      30.132   7.303   7.220  1.00 23.66 LIG-0.65  OA
ENDBRANCH 15 16
ENDBRANCH 14 15
BRANCH 14 19
ATOM     19  C   ASP B   5      29.185   3.705   7.570  1.00 17.70 LIG 0.20  C 
ATOM     20 OXT  ASP B   5      28.773   3.101   6.558  1.00 18.22 LIG-0.65  OA
ATOM     21 O    ASP B   5      30.357   3.653   7.977  1.00 17.62 LIG-0.65  OA
ENDBRANCH 14 19
ENDBRANCH 12 14
ENDBRANCH 6 10
ENDBRANCH 4 6
ENDBRANCH 1 2
BRANCH 1 22
ATOM     22  CB  GLU B   3      23.607   4.571  12.850  1.00 19.71 LIG 0.04  C 
BRANCH 22 23
ATOM     23  CG  GLU B   3      23.981   4.157  11.436  1.00 25.47 LIG 0.12  C 
BRANCH 23 24
ATOM     24  CD  GLU B   3      23.386   5.086  10.377  1.00 29.25 LIG 0.17  C 
ATOM     25 OE1  GLU B   3      23.019   4.600   9.279  1.00 30.05 LIG-0.65  OA
ATOM     26 OE2  GLU B   3      23.282   6.304  10.652  1.00 32.05 LIG-0.65  OA
ENDBRANCH 23 24
ENDBRANCH 22 23
ENDBRANCH 1 22
BRANCH 1 27
ATOM     27  N   GLU B   3      24.049   6.839  13.694  1.00 15.41 LIG-0.35  N 
ATOM     28 H    GLU B   3      24.115   7.331  12.991  1.00 15.41 LIG 0.16  HD
ATOM     29  C   GLU B   2      23.486   7.242  14.827  1.00 15.20 LIG 0.24  C 
ATOM     30 O    GLU B   2      23.416   6.526  15.824  1.00 15.89 LIG-0.27  OA
BRANCH 29 31
ATOM     31  CA  GLU B   2      22.917   8.662  14.860  1.00 14.92 LIG 0.18  C 
BRANCH 31 32
ATOM     32  N   GLU B   2      21.470   8.524  14.982  1.00 15.61 LIG-0.35  N 
ATOM     33 H    GLU B   2      21.196   8.310  15.769  1.00 15.61 LIG 0.16  HD
ATOM     34  C   MET B   1      20.664   8.720  13.940  1.00 15.57 LIG 0.24  C 
ATOM     35 O    MET B   1      21.078   9.065  12.828  1.00 13.81 LIG-0.27  OA
BRANCH 34 36
ATOM     36  CA  MET B   1      19.170   8.479  14.189  1.00 16.08 LIG 0.18  C 
BRANCH 36 37
ATOM     37  N   MET B   1      18.518   7.832  13.053  1.00 16.60 LIG-0.35  N 
ATOM     38  C   ACE B   0      17.483   8.381  12.431  1.00 26.43 LIG 0.21  C 
ATOM     39 O    ACE B   0      17.014   9.475  12.743  1.00 27.07 LIG-0.27  OA
ATOM     40  CH3 ACE B   0      16.901   7.587  11.289  1.00 28.67 LIG 0.12  C 
ATOM     41 H    MET B   1      18.862   7.076  12.832  1.00 16.60 LIG 0.16  HD
ENDBRANCH 36 37
BRANCH 36 42
ATOM     42  CB  MET B   1      19.037   7.595  15.440  1.00 17.95 LIG 0.04  C 
BRANCH 42 43
ATOM     43  CG  MET B   1      19.590   6.196  15.324  1.00 19.71 LIG 0.08  C 
BRANCH 43 44
ATOM     44 SD   MET B   1      20.013   5.559  16.963  1.00 23.85 LIG-0.17  SA
ATOM     45  CE  MET B   1      19.093   6.684  17.996  1.00 19.76 LIG 0.09  C 
ENDBRANCH 43 44
ENDBRANCH 42 43
ENDBRANCH 36 42
ENDBRANCH 34 36
ENDBRANCH 31 32
BRANCH 31 46
ATOM     46  CB  GLU B   2      23.483   9.422  16.072  1.00 14.50 LIG 0.04  C 
BRANCH 46 47
ATOM     47  CG  GLU B   2      23.037   8.869  17.417  1.00 15.26 LIG 0.12  C 
BRANCH 47 48
ATOM     48  CD  GLU B   2      21.927   9.706  18.015  1.00 15.63 LIG 0.17  C 
ATOM     49 OE1  GLU B   2      20.744   9.386  17.782  1.00 15.54 LIG-0.65  OA
ATOM     50 OE2  GLU B   2      22.232  10.672  18.738  1.00 15.63 LIG-0.65  OA
ENDBRANCH 47 48
ENDBRANCH 46 47
ENDBRANCH 31 46
ENDBRANCH 29 31
ENDBRANCH 1 27
TORSDOF 22
ENDMDL
MODEL 17
USER: ADFR SOLUTION from run 160
USER: SCORE 16.846819 LL:  -2.464 LR: -16.895 RR:   0.000 FEB: -10.332
USER: RMSD 10.204338
USER: SEED 159
USER: STATUS no improvement in best in 5 clusters for 5 generations
USER: GENES 24
USER: genes 0 Translation |==|  0.29793 0.50519 0.39477
USER: genes 1 Rotation |==|  0.28612 0.77125 0.14242 0.55302
USER: genes 2 Torsion [N]-CA--C-[N] |==|  0.67473
USER: genes 3 Torsion [C]-N--CA-[CB] |==|  0.86569
USER: genes 4 Torsion [N]-CA--CB-[CG1] |==|  0.53867
USER: genes 5 Torsion [N]-CA--C-[N] |==|  0.28333
USER: genes 6 Torsion [C]-N--CA-[C] |==|  0.60159
USER: genes 7 Torsion [N]-CA--CB-[CG] |==|  0.68701
USER: genes 8 Torsion [CA]-CB--CG-[OD2] |==|  0.58495
USER: genes 9 Torsion [N]-CA--C-[OXT] |==|  0.46253
USER: genes 10 Torsion [C]-CA--CB-[CG] |==|  0.17651
USER: genes 11 Torsion [CA]-CB--CG-[CD] |==|  0.35811
USER: genes 12 Torsion [CB]-CG--CD-[OE2] |==|  0.15940
USER: genes 13 Torsion [C]-CA--N-[C] |==|  0.17478
USER: genes 14 Torsion [N]-C--CA-[N] |==|  0.21855
USER: genes 15 Torsion [C]-CA--N-[C] |==|  0.62888
USER: genes 16 Torsion [N]-C--CA-[N] |==|  0.33300
USER: genes 17 Torsion [C]-CA--N-[C] |==|  0.53109
USER: genes 18 Torsion [C]-CA--CB-[CG] |==|  0.04198
USER: genes 19 Torsion [CA]-CB--CG-[SD] |==|  0.49785
USER: genes 20 Torsion [CB]-CG--SD-[CE] |==|  0.53967
USER: genes 21 Torsion [C]-CA--CB-[CG] |==|  0.61803
USER: genes 22 Torsion [CA]-CB--CG-[CD] |==|  0.79371
USER: genes 23 Torsion [CB]-CG--CD-[OE1] |==|  0.34855
ROOT
ATOM      1  CA  GLU B   3      18.010   7.923  12.813  1.00 16.51 LIG 0.18  C 
ENDROOT
BRANCH 1 2
ATOM      2  C   GLU B   3      19.263   8.715  12.460  1.00 15.77 LIG 0.24  C 
ATOM      3 O    GLU B   3      20.200   8.760  13.247  1.00 14.97 LIG-0.27  OA
ATOM      4  N   VAL B   4      19.283   9.344  11.286  1.00 15.94 LIG-0.35  N 
ATOM      5 H    VAL B   4      18.658   9.301  10.697  1.00 15.94 LIG 0.16  HD
BRANCH 4 6
ATOM      6  CA  VAL B   4      20.427  10.180  10.918  1.00 14.46 LIG 0.18  C 
BRANCH 6 7
ATOM      7  CB  VAL B   4      20.854  11.173  12.025  1.00 12.41 LIG 0.01  C 
ATOM      8  CG1 VAL B   4      21.806  12.222  11.441  1.00 11.08 LIG 0.01  C 
ATOM      9  CG2 VAL B   4      19.642  11.827  12.659  1.00 12.26 LIG 0.01  C 
ENDBRANCH 6 7
BRANCH 6 10
ATOM     10  C   VAL B   4      21.595   9.261  10.584  1.00 16.25 LIG 0.24  C 
ATOM     11 O    VAL B   4      22.257   8.728  11.483  1.00 16.95 LIG-0.27  OA
ATOM     12  N   ASP B   5      21.843   9.083   9.290  1.00 16.26 LIG-0.34  N 
ATOM     13 H    ASP B   5      21.399   9.471   8.663  1.00 16.26 LIG 0.16  HD
BRANCH 12 14
ATOM     14  CA  ASP B   5      22.899   8.205   8.809  1.00 17.99 LIG 0.20  C 
BRANCH 14 15
ATOM     15  CB  ASP B   5      22.295   6.832   8.512  1.00 19.95 LIG 0.15  C 
BRANCH 15 16
ATOM     16  CG  ASP B   5      22.798   5.764   9.462  1.00 23.79 LIG 0.17  C 
ATOM     17 OD2  ASP B   5      22.891   4.577   9.057  1.00 26.04 LIG-0.65  OA
ATOM     18 OD1  ASP B   5      23.084   6.109  10.623  1.00 23.66 LIG-0.65  OA
ENDBRANCH 15 16
ENDBRANCH 14 15
BRANCH 14 19
ATOM     19  C   ASP B   5      23.601   8.742   7.557  1.00 17.70 LIG 0.20  C 
ATOM     20 OXT  ASP B   5      24.677   8.208   7.215  1.00 18.22 LIG-0.65  OA
ATOM     21 O    ASP B   5      23.060   9.669   6.933  1.00 17.62 LIG-0.65  OA
ENDBRANCH 14 19
ENDBRANCH 12 14
ENDBRANCH 6 10
ENDBRANCH 4 6
ENDBRANCH 1 2
BRANCH 1 22
ATOM     22  CB  GLU B   3      17.076   7.964  11.593  1.00 19.71 LIG 0.04  C 
BRANCH 22 23
ATOM     23  CG  GLU B   3      17.623   7.294  10.343  1.00 25.47 LIG 0.12  C 
BRANCH 23 24
ATOM     24  CD  GLU B   3      16.639   6.292   9.738  1.00 29.25 LIG 0.17  C 
ATOM     25 OE1  GLU B   3      16.999   5.097   9.593  1.00 30.05 LIG-0.65  OA
ATOM     26 OE2  GLU B   3      15.501   6.705   9.413  1.00 32.05 LIG-0.65  OA
ENDBRANCH 23 24
ENDBRANCH 22 23
ENDBRANCH 1 22
BRANCH 1 27
ATOM     27  N   GLU B   3      17.313   8.435  13.996  1.00 15.41 LIG-0.35  N 
ATOM     28 H    GLU B   3      17.278   7.881  14.653  1.00 15.41 LIG 0.16  HD
ATOM     29  C   GLU B   2      16.786   9.654  14.029  1.00 15.20 LIG 0.24  C 
ATOM     30 O    GLU B   2      16.836  10.424  13.072  1.00 15.89 LIG-0.27  OA
BRANCH 29 31
ATOM     31  CA  GLU B   2      16.092  10.082  15.324  1.00 14.92 LIG 0.18  C 
BRANCH 31 32
ATOM     32  N   GLU B   2      17.151  10.454  16.256  1.00 15.61 LIG-0.35  N 
ATOM     33 H    GLU B   2      17.759  10.962  15.922  1.00 15.61 LIG 0.16  HD
ATOM     34  C   MET B   1      17.148  10.024  17.517  1.00 15.57 LIG 0.24  C 
ATOM     35 O    MET B   1      16.243   9.325  17.985  1.00 13.81 LIG-0.27  OA
BRANCH 34 36
ATOM     36  CA  MET B   1      18.353  10.435  18.372  1.00 16.08 LIG 0.18  C 
BRANCH 36 37
ATOM     37  N   MET B   1      17.962  11.225  19.536  1.00 16.60 LIG-0.35  N 
ATOM     38  C   ACE B   0      18.853  11.863  20.284  1.00 26.43 LIG 0.21  C 
ATOM     39 O    ACE B   0      20.061  11.857  20.042  1.00 27.07 LIG-0.27  OA
ATOM     40  CH3 ACE B   0      18.304  12.621  21.465  1.00 28.67 LIG 0.12  C 
ATOM     41 H    MET B   1      17.116  11.236  19.687  1.00 16.60 LIG 0.16  HD
ENDBRANCH 36 37
BRANCH 36 42
ATOM     42  CB  MET B   1      19.066   9.151  18.827  1.00 17.95 LIG 0.04  C 
BRANCH 42 43
ATOM     43  CG  MET B   1      18.690   7.888  18.092  1.00 19.71 LIG 0.08  C 
BRANCH 43 44
ATOM     44 SD   MET B   1      19.636   6.489  18.739  1.00 23.85 LIG-0.17  SA
ATOM     45  CE  MET B   1      19.343   5.280  17.462  1.00 19.76 LIG 0.09  C 
ENDBRANCH 43 44
ENDBRANCH 42 43
ENDBRANCH 36 42
ENDBRANCH 34 36
ENDBRANCH 31 32
BRANCH 31 46
ATOM     46  CB  GLU B   2      15.177  11.288  15.050  1.00 14.50 LIG 0.04  C 
BRANCH 46 47
ATOM     47  CG  GLU B   2      15.242  12.373  16.113  1.00 15.26 LIG 0.12  C 
BRANCH 47 48
ATOM     48  CD  GLU B   2      14.519  11.954  17.374  1.00 15.63 LIG 0.17  C 
ATOM     49 OE1  GLU B   2      15.136  11.990  18.458  1.00 15.54 LIG-0.65  OA
ATOM     50 OE2  GLU B   2      13.326  11.609  17.291  1.00 15.63 LIG-0.65  OA
ENDBRANCH 47 48
ENDBRANCH 46 47
ENDBRANCH 31 46
ENDBRANCH 29 31
ENDBRANCH 1 27
TORSDOF 22
ENDMDL
MODEL 18
USER: ADFR SOLUTION from run 84
USER: SCORE 17.858299 LL:  -2.597 LR: -16.903 RR:   0.000 FEB: -10.340
USER: RMSD 10.423341
USER: SEED 83
USER: STATUS no improvement in best in 8 clusters for 5 generations
USER: GENES 24
USER: genes 0 Translation |==|  0.57755 0.32415 0.40698
USER: genes 1 Rotation |==|  0.39172 0.60212 0.02560 0.55281
USER: genes 2 Torsion [N]-CA--C-[N] |==|  0.48432
USER: genes 3 Torsion [C]-N--CA-[CB] |==|  0.35388
USER: genes 4 Torsion [N]-CA--CB-[CG1] |==|  0.11971
USER: genes 5 Torsion [N]-CA--C-[N] |==|  0.91750
USER: genes 6 Torsion [C]-N--CA-[C] |==|  0.20197
USER: genes 7 Torsion [N]-CA--CB-[CG] |==|  0.58957
USER: genes 8 Torsion [CA]-CB--CG-[OD2] |==|  0.21596
USER: genes 9 Torsion [N]-CA--C-[OXT] |==|  0.60944
USER: genes 10 Torsion [C]-CA--CB-[CG] |==|  0.83054
USER: genes 11 Torsion [CA]-CB--CG-[CD] |==|  0.74316
USER: genes 12 Torsion [CB]-CG--CD-[OE2] |==|  0.22760
USER: genes 13 Torsion [C]-CA--N-[C] |==|  0.80441
USER: genes 14 Torsion [N]-C--CA-[N] |==|  0.46098
USER: genes 15 Torsion [C]-CA--N-[C] |==|  0.79996
USER: genes 16 Torsion [N]-C--CA-[N] |==|  0.98873
USER: genes 17 Torsion [C]-CA--N-[C] |==|  0.76682
USER: genes 18 Torsion [C]-CA--CB-[CG] |==|  0.24019
USER: genes 19 Torsion [CA]-CB--CG-[SD] |==|  0.76086
USER: genes 20 Torsion [CB]-CG--SD-[CE] |==|  0.40124
USER: genes 21 Torsion [C]-CA--CB-[CG] |==|  0.37837
USER: genes 22 Torsion [CA]-CB--CG-[CD] |==|  0.14775
USER: genes 23 Torsion [CB]-CG--CD-[OE1] |==|  0.28280
ROOT
ATOM      1  CA  GLU B   3      24.930   4.665  13.033  1.00 16.51 LIG 0.18  C 
ENDROOT
BRANCH 1 2
ATOM      2  C   GLU B   3      26.310   5.309  12.968  1.00 15.77 LIG 0.24  C 
ATOM      3 O    GLU B   3      26.413   6.522  12.838  1.00 14.97 LIG-0.27  OA
ATOM      4  N   VAL B   4      27.369   4.504  13.052  1.00 15.94 LIG-0.35  N 
ATOM      5 H    VAL B   4      27.329   3.655  13.180  1.00 15.94 LIG 0.16  HD
BRANCH 4 6
ATOM      6  CA  VAL B   4      28.720   5.051  12.924  1.00 14.46 LIG 0.18  C 
BRANCH 6 7
ATOM      7  CB  VAL B   4      29.662   4.662  14.088  1.00 12.41 LIG 0.01  C 
ATOM      8  CG1 VAL B   4      29.477   3.181  14.432  1.00 11.08 LIG 0.01  C 
ATOM      9  CG2 VAL B   4      31.105   4.966  13.738  1.00 12.26 LIG 0.01  C 
ENDBRANCH 6 7
BRANCH 6 10
ATOM     10  C   VAL B   4      29.308   4.555  11.609  1.00 16.25 LIG 0.24  C 
ATOM     11 O    VAL B   4      30.138   5.235  10.991  1.00 16.95 LIG-0.27  OA
ATOM     12  N   ASP B   5      28.873   3.372  11.187  1.00 16.26 LIG-0.34  N 
ATOM     13 H    ASP B   5      28.279   2.908  11.603  1.00 16.26 LIG 0.16  HD
BRANCH 12 14
ATOM     14  CA  ASP B   5      29.367   2.744   9.971  1.00 17.99 LIG 0.20  C 
BRANCH 14 15
ATOM     15  CB  ASP B   5      29.314   3.769   8.838  1.00 19.95 LIG 0.15  C 
BRANCH 15 16
ATOM     16  CG  ASP B   5      29.039   3.128   7.493  1.00 23.79 LIG 0.17  C 
ATOM     17 OD2  ASP B   5      27.864   2.778   7.208  1.00 26.04 LIG-0.65  OA
ATOM     18 OD1  ASP B   5      30.002   2.955   6.724  1.00 23.66 LIG-0.65  OA
ENDBRANCH 15 16
ENDBRANCH 14 15
BRANCH 14 19
ATOM     19  C   ASP B   5      30.794   2.205  10.113  1.00 17.70 LIG 0.20  C 
ATOM     20 OXT  ASP B   5      31.571   2.343   9.145  1.00 18.22 LIG-0.65  OA
ATOM     21 O    ASP B   5      31.117   1.673  11.188  1.00 17.62 LIG-0.65  OA
ENDBRANCH 14 19
ENDBRANCH 12 14
ENDBRANCH 6 10
ENDBRANCH 4 6
ENDBRANCH 1 2
BRANCH 1 22
ATOM     22  CB  GLU B   3      24.787   3.750  11.806  1.00 19.71 LIG 0.04  C 
BRANCH 22 23
ATOM     23  CG  GLU B   3      24.882   4.457  10.464  1.00 25.47 LIG 0.12  C 
BRANCH 23 24
ATOM     24  CD  GLU B   3      23.515   4.883   9.927  1.00 29.25 LIG 0.17  C 
ATOM     25 OE1  GLU B   3      22.938   4.153   9.083  1.00 30.05 LIG-0.65  OA
ATOM     26 OE2  GLU B   3      23.019   5.949  10.359  1.00 32.05 LIG-0.65  OA
ENDBRANCH 23 24
ENDBRANCH 22 23
ENDBRANCH 1 22
BRANCH 1 27
ATOM     27  N   GLU B   3      23.835   5.638  13.065  1.00 15.41 LIG-0.35  N 
ATOM     28 H    GLU B   3      23.367   5.666  12.344  1.00 15.41 LIG 0.16  HD
ATOM     29  C   GLU B   2      23.603   6.401  14.127  1.00 15.20 LIG 0.24  C 
ATOM     30 O    GLU B   2      24.295   6.352  15.142  1.00 15.89 LIG-0.27  OA
BRANCH 29 31
ATOM     31  CA  GLU B   2      22.423   7.372  14.047  1.00 14.92 LIG 0.18  C 
BRANCH 31 32
ATOM     32  N   GLU B   2      22.172   7.829  15.410  1.00 15.61 LIG-0.35  N 
ATOM     33 H    GLU B   2      22.401   8.643  15.562  1.00 15.61 LIG 0.16  HD
ATOM     34  C   MET B   1      21.630   7.024  16.322  1.00 15.57 LIG 0.24  C 
ATOM     35 O    MET B   1      21.275   5.868  16.070  1.00 13.81 LIG-0.27  OA
BRANCH 34 36
ATOM     36  CA  MET B   1      21.481   7.607  17.732  1.00 16.08 LIG 0.18  C 
BRANCH 36 37
ATOM     37  N   MET B   1      22.060   8.943  17.843  1.00 16.60 LIG-0.35  N 
ATOM     38  C   ACE B   0      23.353   9.133  18.072  1.00 26.43 LIG 0.21  C 
ATOM     39 O    ACE B   0      24.158   8.207  18.184  1.00 27.07 LIG-0.27  OA
ATOM     40  CH3 ACE B   0      23.803  10.567  18.181  1.00 28.67 LIG 0.12  C 
ATOM     41 H    MET B   1      21.493   9.583  17.747  1.00 16.60 LIG 0.16  HD
ENDBRANCH 36 37
BRANCH 36 42
ATOM     42  CB  MET B   1      19.980   7.660  18.064  1.00 17.95 LIG 0.04  C 
BRANCH 42 43
ATOM     43  CG  MET B   1      19.388   6.403  18.655  1.00 19.71 LIG 0.08  C 
BRANCH 43 44
ATOM     44 SD   MET B   1      18.886   5.275  17.334  1.00 23.85 LIG-0.17  SA
ATOM     45  CE  MET B   1      19.270   3.704  18.086  1.00 19.76 LIG 0.09  C 
ENDBRANCH 43 44
ENDBRANCH 42 43
ENDBRANCH 36 42
ENDBRANCH 34 36
ENDBRANCH 31 32
BRANCH 31 46
ATOM     46  CB  GLU B   2      22.791   8.564  13.146  1.00 14.50 LIG 0.04  C 
BRANCH 46 47
ATOM     47  CG  GLU B   2      21.695   8.969  12.173  1.00 15.26 LIG 0.12  C 
BRANCH 47 48
ATOM     48  CD  GLU B   2      20.384   9.212  12.889  1.00 15.63 LIG 0.17  C 
ATOM     49 OE1  GLU B   2      20.031  10.388  13.110  1.00 15.54 LIG-0.65  OA
ATOM     50 OE2  GLU B   2      19.691   8.230  13.214  1.00 15.63 LIG-0.65  OA
ENDBRANCH 47 48
ENDBRANCH 46 47
ENDBRANCH 31 46
ENDBRANCH 29 31
ENDBRANCH 1 27
TORSDOF 22
ENDMDL
MODEL 19
USER: ADFR SOLUTION from run 122
USER: SCORE 17.200284 LL:  -2.484 LR: -16.846 RR:   0.000 FEB: -10.283
USER: RMSD 3.915840
USER: SEED 121
USER: STATUS no improvement in best in 6 clusters for 5 generations
USER: GENES 24
USER: genes 0 Translation |==|  0.40763 0.58084 0.48894
USER: genes 1 Rotation |==|  0.29978 0.58371 0.74534 0.87777
USER: genes 2 Torsion [N]-CA--C-[N] |==|  0.67971
USER: genes 3 Torsion [C]-N--CA-[CB] |==|  0.81433
USER: genes 4 Torsion [N]-CA--CB-[CG1] |==|  0.59625
USER: genes 5 Torsion [N]-CA--C-[N] |==|  0.13769
USER: genes 6 Torsion [C]-N--CA-[C] |==|  0.59965
USER: genes 7 Torsion [N]-CA--CB-[CG] |==|  0.71796
USER: genes 8 Torsion [CA]-CB--CG-[OD2] |==|  0.51978
USER: genes 9 Torsion [N]-CA--C-[OXT] |==|  0.64826
USER: genes 10 Torsion [C]-CA--CB-[CG] |==|  0.15705
USER: genes 11 Torsion [CA]-CB--CG-[CD] |==|  0.28477
USER: genes 12 Torsion [CB]-CG--CD-[OE2] |==|  0.39344
USER: genes 13 Torsion [C]-CA--N-[C] |==|  0.15405
USER: genes 14 Torsion [N]-C--CA-[N] |==|  0.18122
USER: genes 15 Torsion [C]-CA--N-[C] |==|  0.16785
USER: genes 16 Torsion [N]-C--CA-[N] |==|  0.30625
USER: genes 17 Torsion [C]-CA--N-[C] |==|  0.76610
USER: genes 18 Torsion [C]-CA--CB-[CG] |==|  0.71332
USER: genes 19 Torsion [CA]-CB--CG-[SD] |==|  0.53673
USER: genes 20 Torsion [CB]-CG--SD-[CE] |==|  0.69359
USER: genes 21 Torsion [C]-CA--CB-[CG] |==|  0.37230
USER: genes 22 Torsion [CA]-CB--CG-[CD] |==|  0.77430
USER: genes 23 Torsion [CB]-CG--CD-[OE1] |==|  0.16837
ROOT
ATOM      1  CA  GLU B   3      20.725   9.285  14.508  1.00 16.51 LIG 0.18  C 
ENDROOT
BRANCH 1 2
ATOM      2  C   GLU B   3      20.360   8.611  15.825  1.00 15.77 LIG 0.24  C 
ATOM      3 O    GLU B   3      21.015   8.841  16.832  1.00 14.97 LIG-0.27  OA
ATOM      4  N   VAL B   4      19.321   7.776  15.820  1.00 15.94 LIG-0.35  N 
ATOM      5 H    VAL B   4      18.820   7.622  15.139  1.00 15.94 LIG 0.16  HD
BRANCH 4 6
ATOM      6  CA  VAL B   4      18.963   7.041  17.034  1.00 14.46 LIG 0.18  C 
BRANCH 6 7
ATOM      7  CB  VAL B   4      20.019   5.994  17.463  1.00 12.41 LIG 0.01  C 
ATOM      8  CG1 VAL B   4      19.322   4.778  18.082  1.00 11.08 LIG 0.01  C 
ATOM      9  CG2 VAL B   4      20.885   5.588  16.287  1.00 12.26 LIG 0.01  C 
ENDBRANCH 6 7
BRANCH 6 10
ATOM     10  C   VAL B   4      18.766   8.051  18.157  1.00 16.25 LIG 0.24  C 
ATOM     11 O    VAL B   4      19.319   7.893  19.253  1.00 16.95 LIG-0.27  OA
ATOM     12  N   ASP B   5      17.976   9.084  17.878  1.00 16.26 LIG-0.34  N 
ATOM     13 H    ASP B   5      17.573   9.183  17.125  1.00 16.26 LIG 0.16  HD
BRANCH 12 14
ATOM     14  CA  ASP B   5      17.721  10.153  18.832  1.00 17.99 LIG 0.20  C 
BRANCH 14 15
ATOM     15  CB  ASP B   5      18.713  11.286  18.572  1.00 19.95 LIG 0.15  C 
BRANCH 15 16
ATOM     16  CG  ASP B   5      19.859  11.287  19.563  1.00 23.79 LIG 0.17  C 
ATOM     17 OD2  ASP B   5      20.678  12.242  19.554  1.00 26.04 LIG-0.65  OA
ATOM     18 OD1  ASP B   5      19.952  10.322  20.343  1.00 23.66 LIG-0.65  OA
ENDBRANCH 15 16
ENDBRANCH 14 15
BRANCH 14 19
ATOM     19  C   ASP B   5      16.289  10.693  18.756  1.00 17.70 LIG 0.20  C 
ATOM     20 OXT  ASP B   5      16.134  11.923  18.609  1.00 18.22 LIG-0.65  OA
ATOM     21 O    ASP B   5      15.351   9.882  18.826  1.00 17.62 LIG-0.65  OA
ENDBRANCH 14 19
ENDBRANCH 12 14
ENDBRANCH 6 10
ENDBRANCH 4 6
ENDBRANCH 1 2
BRANCH 1 22
ATOM     22  CB  GLU B   3      19.637   8.926  13.484  1.00 19.71 LIG 0.04  C 
BRANCH 22 23
ATOM     23  CG  GLU B   3      18.221   9.297  13.894  1.00 25.47 LIG 0.12  C 
BRANCH 23 24
ATOM     24  CD  GLU B   3      17.721  10.561  13.195  1.00 29.25 LIG 0.17  C 
ATOM     25 OE1  GLU B   3      18.522  11.509  13.005  1.00 30.05 LIG-0.65  OA
ATOM     26 OE2  GLU B   3      16.523  10.598  12.830  1.00 32.05 LIG-0.65  OA
ENDBRANCH 23 24
ENDBRANCH 22 23
ENDBRANCH 1 22
BRANCH 1 27
ATOM     27  N   GLU B   3      22.042   8.892  13.999  1.00 15.41 LIG-0.35  N 
ATOM     28 H    GLU B   3      22.574   9.551  13.850  1.00 15.41 LIG 0.16  HD
ATOM     29  C   GLU B   2      22.366   7.620  13.794  1.00 15.20 LIG 0.24  C 
ATOM     30 O    GLU B   2      21.583   6.695  14.003  1.00 15.89 LIG-0.27  OA
BRANCH 29 31
ATOM     31  CA  GLU B   2      23.774   7.332  13.271  1.00 14.92 LIG 0.18  C 
BRANCH 31 32
ATOM     32  N   GLU B   2      24.697   7.744  14.323  1.00 15.61 LIG-0.35  N 
ATOM     33 H    GLU B   2      25.249   8.361  14.093  1.00 15.61 LIG 0.16  HD
ATOM     34  C   MET B   1      24.661   7.189  15.534  1.00 15.57 LIG 0.24  C 
ATOM     35 O    MET B   1      23.833   6.330  15.853  1.00 13.81 LIG-0.27  OA
BRANCH 34 36
ATOM     36  CA  MET B   1      25.728   7.667  16.526  1.00 16.08 LIG 0.18  C 
BRANCH 36 37
ATOM     37  N   MET B   1      25.159   8.469  17.606  1.00 16.60 LIG-0.35  N 
ATOM     38  C   ACE B   0      24.933   9.769  17.473  1.00 26.43 LIG 0.21  C 
ATOM     39 O    ACE B   0      25.160  10.387  16.432  1.00 27.07 LIG-0.27  OA
ATOM     40  CH3 ACE B   0      24.362  10.469  18.680  1.00 28.67 LIG 0.12  C 
ATOM     41 H    MET B   1      24.989   8.026  18.323  1.00 16.60 LIG 0.16  HD
ENDBRANCH 36 37
BRANCH 36 42
ATOM     42  CB  MET B   1      26.421   6.424  17.108  1.00 17.95 LIG 0.04  C 
BRANCH 42 43
ATOM     43  CG  MET B   1      26.012   6.031  18.506  1.00 19.71 LIG 0.08  C 
BRANCH 43 44
ATOM     44 SD   MET B   1      27.174   4.817  19.174  1.00 23.85 LIG-0.17  SA
ATOM     45  CE  MET B   1      26.143   3.362  19.200  1.00 19.76 LIG 0.09  C 
ENDBRANCH 43 44
ENDBRANCH 42 43
ENDBRANCH 36 42
ENDBRANCH 34 36
ENDBRANCH 31 32
BRANCH 31 46
ATOM     46  CB  GLU B   2      23.927   5.827  12.989  1.00 14.50 LIG 0.04  C 
BRANCH 46 47
ATOM     47  CG  GLU B   2      24.580   5.507  11.653  1.00 15.26 LIG 0.12  C 
BRANCH 47 48
ATOM     48  CD  GLU B   2      23.582   5.589  10.519  1.00 15.63 LIG 0.17  C 
ATOM     49 OE1  GLU B   2      23.011   6.676  10.300  1.00 15.54 LIG-0.65  OA
ATOM     50 OE2  GLU B   2      23.381   4.574   9.827  1.00 15.63 LIG-0.65  OA
ENDBRANCH 47 48
ENDBRANCH 46 47
ENDBRANCH 31 46
ENDBRANCH 29 31
ENDBRANCH 1 27
TORSDOF 22
ENDMDL
MODEL 20
USER: ADFR SOLUTION from run 92
USER: SCORE 18.580721 LL:  -2.818 LR: -16.822 RR:   0.000 FEB: -10.259
USER: RMSD 10.842368
USER: SEED 91
USER: STATUS searching
USER: GENES 24
USER: genes 0 Translation |==|  0.56423 0.35639 0.42785
USER: genes 1 Rotation |==|  0.71443 0.44275 0.94435 0.55744
USER: genes 2 Torsion [N]-CA--C-[N] |==|  0.44452
USER: genes 3 Torsion [C]-N--CA-[CB] |==|  0.49445
USER: genes 4 Torsion [N]-CA--CB-[CG1] |==|  0.49850
USER: genes 5 Torsion [N]-CA--C-[N] |==|  0.41042
USER: genes 6 Torsion [C]-N--CA-[C] |==|  0.73257
USER: genes 7 Torsion [N]-CA--CB-[CG] |==|  0.11623
USER: genes 8 Torsion [CA]-CB--CG-[OD2] |==|  0.81884
USER: genes 9 Torsion [N]-CA--C-[OXT] |==|  0.89071
USER: genes 10 Torsion [C]-CA--CB-[CG] |==|  0.95517
USER: genes 11 Torsion [CA]-CB--CG-[CD] |==|  0.76814
USER: genes 12 Torsion [CB]-CG--CD-[OE2] |==|  0.59441
USER: genes 13 Torsion [C]-CA--N-[C] |==|  0.64498
USER: genes 14 Torsion [N]-C--CA-[N] |==|  0.32587
USER: genes 15 Torsion [C]-CA--N-[C] |==|  0.69636
USER: genes 16 Torsion [N]-C--CA-[N] |==|  0.00460
USER: genes 17 Torsion [C]-CA--N-[C] |==|  0.71575
USER: genes 18 Torsion [C]-CA--CB-[CG] |==|  0.19883
USER: genes 19 Torsion [CA]-CB--CG-[SD] |==|  0.11939
USER: genes 20 Torsion [CB]-CG--SD-[CE] |==|  0.59286
USER: genes 21 Torsion [C]-CA--CB-[CG] |==|  0.62677
USER: genes 22 Torsion [CA]-CB--CG-[CD] |==|  0.24511
USER: genes 23 Torsion [CB]-CG--CD-[OE1] |==|  0.64266
ROOT
ATOM      1  CA  GLU B   3      24.601   5.245  13.408  1.00 16.51 LIG 0.18  C 
ENDROOT
BRANCH 1 2
ATOM      2  C   GLU B   3      25.845   5.360  12.537  1.00 15.77 LIG 0.24  C 
ATOM      3 O    GLU B   3      25.969   6.305  11.769  1.00 14.97 LIG-0.27  OA
ATOM      4  N   VAL B   4      26.764   4.401  12.647  1.00 15.94 LIG-0.35  N 
ATOM      5 H    VAL B   4      26.724   3.747  13.203  1.00 15.94 LIG 0.16  HD
BRANCH 4 6
ATOM      6  CA  VAL B   4      27.948   4.414  11.787  1.00 14.46 LIG 0.18  C 
BRANCH 6 7
ATOM      7  CB  VAL B   4      28.939   3.261  12.074  1.00 12.41 LIG 0.01  C 
ATOM      8  CG1 VAL B   4      30.133   3.353  11.117  1.00 11.08 LIG 0.01  C 
ATOM      9  CG2 VAL B   4      29.394   3.288  13.519  1.00 12.26 LIG 0.01  C 
ENDBRANCH 6 7
BRANCH 6 10
ATOM     10  C   VAL B   4      27.481   4.332  10.339  1.00 16.25 LIG 0.24  C 
ATOM     11 O    VAL B   4      26.455   3.706  10.041  1.00 16.95 LIG-0.27  OA
ATOM     12  N   ASP B   5      28.237   4.964   9.447  1.00 16.26 LIG-0.34  N 
ATOM     13 H    ASP B   5      28.962   5.380   9.649  1.00 16.26 LIG 0.16  HD
BRANCH 12 14
ATOM     14  CA  ASP B   5      27.903   5.012   8.032  1.00 17.99 LIG 0.20  C 
BRANCH 14 15
ATOM     15  CB  ASP B   5      28.256   6.398   7.494  1.00 19.95 LIG 0.15  C 
BRANCH 15 16
ATOM     16  CG  ASP B   5      29.582   6.901   8.026  1.00 23.79 LIG 0.17  C 
ATOM     17 OD2  ASP B   5      29.701   7.136   9.256  1.00 26.04 LIG-0.65  OA
ATOM     18 OD1  ASP B   5      30.505   7.080   7.210  1.00 23.66 LIG-0.65  OA
ENDBRANCH 15 16
ENDBRANCH 14 15
BRANCH 14 19
ATOM     19  C   ASP B   5      28.625   3.939   7.210  1.00 17.70 LIG 0.20  C 
ATOM     20 OXT  ASP B   5      29.815   3.687   7.493  1.00 18.22 LIG-0.65  OA
ATOM     21 O    ASP B   5      27.989   3.358   6.315  1.00 17.62 LIG-0.65  OA
ENDBRANCH 14 19
ENDBRANCH 12 14
ENDBRANCH 6 10
ENDBRANCH 4 6
ENDBRANCH 1 2
BRANCH 1 22
ATOM     22  CB  GLU B   3      23.673   4.206  12.759  1.00 19.71 LIG 0.04  C 
BRANCH 22 23
ATOM     23  CG  GLU B   3      23.998   3.870  11.313  1.00 25.47 LIG 0.12  C 
BRANCH 23 24
ATOM     24  CD  GLU B   3      23.394   4.872  10.329  1.00 29.25 LIG 0.17  C 
ATOM     25 OE1  GLU B   3      23.310   6.080  10.665  1.00 30.05 LIG-0.65  OA
ATOM     26 OE2  GLU B   3      23.011   4.447   9.215  1.00 32.05 LIG-0.65  OA
ENDBRANCH 23 24
ENDBRANCH 22 23
ENDBRANCH 1 22
BRANCH 1 27
ATOM     27  N   GLU B   3      23.890   6.516  13.578  1.00 15.41 LIG-0.35  N 
ATOM     28 H    GLU B   3      23.706   6.918  12.841  1.00 15.41 LIG 0.16  HD
ATOM     29  C   GLU B   2      23.569   6.987  14.778  1.00 15.20 LIG 0.24  C 
ATOM     30 O    GLU B   2      23.855   6.400  15.819  1.00 15.89 LIG-0.27  OA
BRANCH 29 31
ATOM     31  CA  GLU B   2      22.818   8.319  14.829  1.00 14.92 LIG 0.18  C 
BRANCH 31 32
ATOM     32  N   GLU B   2      21.520   8.037  15.433  1.00 15.61 LIG-0.35  N 
ATOM     33 H    GLU B   2      21.549   7.853  16.272  1.00 15.61 LIG 0.16  HD
ATOM     34  C   MET B   1      20.399   8.072  14.715  1.00 15.57 LIG 0.24  C 
ATOM     35 O    MET B   1      20.378   8.377  13.518  1.00 13.81 LIG-0.27  OA
BRANCH 34 36
ATOM     36  CA  MET B   1      19.111   7.692  15.457  1.00 16.08 LIG 0.18  C 
BRANCH 36 37
ATOM     37  N   MET B   1      19.353   7.390  16.865  1.00 16.60 LIG-0.35  N 
ATOM     38  C   ACE B   0      19.399   6.144  17.319  1.00 26.43 LIG 0.21  C 
ATOM     39 O    ACE B   0      19.268   5.159  16.592  1.00 27.07 LIG-0.27  OA
ATOM     40  CH3 ACE B   0      19.636   5.988  18.799  1.00 28.67 LIG 0.12  C 
ATOM     41 H    MET B   1      19.459   8.084  17.362  1.00 16.60 LIG 0.16  HD
ENDBRANCH 36 37
BRANCH 36 42
ATOM     42  CB  MET B   1      18.133   8.872  15.336  1.00 17.95 LIG 0.04  C 
BRANCH 42 43
ATOM     43  CG  MET B   1      17.526   9.092  13.972  1.00 19.71 LIG 0.08  C 
BRANCH 43 44
ATOM     44 SD   MET B   1      17.034   7.509  13.250  1.00 23.85 LIG-0.17  SA
ATOM     45  CE  MET B   1      17.339   7.831  11.523  1.00 19.76 LIG 0.09  C 
ENDBRANCH 43 44
ENDBRANCH 42 43
ENDBRANCH 36 42
ENDBRANCH 34 36
ENDBRANCH 31 32
BRANCH 31 46
ATOM     46  CB  GLU B   2      23.599   9.325  15.692  1.00 14.50 LIG 0.04  C 
BRANCH 46 47
ATOM     47  CG  GLU B   2      22.741  10.093  16.684  1.00 15.26 LIG 0.12  C 
BRANCH 47 48
ATOM     48  CD  GLU B   2      22.616   9.349  17.996  1.00 15.63 LIG 0.17  C 
ATOM     49 OE1  GLU B   2      21.477   9.157  18.469  1.00 15.54 LIG-0.65  OA
ATOM     50 OE2  GLU B   2      23.651   8.934  18.548  1.00 15.63 LIG-0.65  OA
ENDBRANCH 47 48
ENDBRANCH 46 47
ENDBRANCH 31 46
ENDBRANCH 29 31
ENDBRANCH 1 27
TORSDOF 22
ENDMDL
MODEL 21
USER: ADFR SOLUTION from run 159
USER: SCORE 17.131370 LL:  -2.440 LR: -16.774 RR:   0.000 FEB: -10.211
USER: RMSD 10.954003
USER: SEED 158
USER: STATUS no improvement in best in 12 clusters for 5 generations
USER: GENES 24
USER: genes 0 Translation |==|  0.53878 0.38024 0.41838
USER: genes 1 Rotation |==|  0.62740 0.50859 0.98289 0.52257
USER: genes 2 Torsion [N]-CA--C-[N] |==|  0.50556
USER: genes 3 Torsion [C]-N--CA-[CB] |==|  0.35287
USER: genes 4 Torsion [N]-CA--CB-[CG1] |==|  0.25244
USER: genes 5 Torsion [N]-CA--C-[N] |==|  0.50711
USER: genes 6 Torsion [C]-N--CA-[C] |==|  0.66548
USER: genes 7 Torsion [N]-CA--CB-[CG] |==|  0.61032
USER: genes 8 Torsion [CA]-CB--CG-[OD2] |==|  0.67077
USER: genes 9 Torsion [N]-CA--C-[OXT] |==|  0.20594
USER: genes 10 Torsion [C]-CA--CB-[CG] |==|  0.90344
USER: genes 11 Torsion [CA]-CB--CG-[CD] |==|  0.77574
USER: genes 12 Torsion [CB]-CG--CD-[OE2] |==|  0.13731
USER: genes 13 Torsion [C]-CA--N-[C] |==|  0.75581
USER: genes 14 Torsion [N]-C--CA-[N] |==|  0.37408
USER: genes 15 Torsion [C]-CA--N-[C] |==|  0.72086
USER: genes 16 Torsion [N]-C--CA-[N] |==|  0.40394
USER: genes 17 Torsion [C]-CA--N-[C] |==|  0.81499
USER: genes 18 Torsion [C]-CA--CB-[CG] |==|  0.93199
USER: genes 19 Torsion [CA]-CB--CG-[SD] |==|  0.55616
USER: genes 20 Torsion [CB]-CG--SD-[CE] |==|  0.90511
USER: genes 21 Torsion [C]-CA--CB-[CG] |==|  0.41959
USER: genes 22 Torsion [CA]-CB--CG-[CD] |==|  0.08809
USER: genes 23 Torsion [CB]-CG--CD-[OE1] |==|  0.76649
ROOT
ATOM      1  CA  GLU B   3      23.971   5.674  13.238  1.00 16.51 LIG 0.18  C 
ENDROOT
BRANCH 1 2
ATOM      2  C   GLU B   3      25.414   5.933  12.822  1.00 15.77 LIG 0.24  C 
ATOM      3 O    GLU B   3      25.705   6.965  12.232  1.00 14.97 LIG-0.27  OA
ATOM      4  N   VAL B   4      26.316   4.999  13.120  1.00 15.94 LIG-0.35  N 
ATOM      5 H    VAL B   4      26.150   4.283  13.565  1.00 15.94 LIG 0.16  HD
BRANCH 4 6
ATOM      6  CA  VAL B   4      27.705   5.153  12.685  1.00 14.46 LIG 0.18  C 
BRANCH 6 7
ATOM      7  CB  VAL B   4      28.736   5.016  13.830  1.00 12.41 LIG 0.01  C 
ATOM      8  CG1 VAL B   4      29.179   3.555  13.958  1.00 11.08 LIG 0.01  C 
ATOM      9  CG2 VAL B   4      29.924   5.929  13.599  1.00 12.26 LIG 0.01  C 
ENDBRANCH 6 7
BRANCH 6 10
ATOM     10  C   VAL B   4      27.986   4.098  11.622  1.00 16.25 LIG 0.24  C 
ATOM     11 O    VAL B   4      27.092   3.333  11.238  1.00 16.95 LIG-0.27  OA
ATOM     12  N   ASP B   5      29.229   4.063  11.152  1.00 16.26 LIG-0.34  N 
ATOM     13 H    ASP B   5      29.858   4.578  11.434  1.00 16.26 LIG 0.16  HD
BRANCH 12 14
ATOM     14  CA  ASP B   5      29.645   3.139  10.107  1.00 17.99 LIG 0.20  C 
BRANCH 14 15
ATOM     15  CB  ASP B   5      30.094   3.950   8.891  1.00 19.95 LIG 0.15  C 
BRANCH 15 16
ATOM     16  CG  ASP B   5      29.645   3.326   7.585  1.00 23.79 LIG 0.17  C 
ATOM     17 OD2  ASP B   5      30.512   2.953   6.753  1.00 26.04 LIG-0.65  OA
ATOM     18 OD1  ASP B   5      28.422   3.225   7.381  1.00 23.66 LIG-0.65  OA
ENDBRANCH 15 16
ENDBRANCH 14 15
BRANCH 14 19
ATOM     19  C   ASP B   5      30.774   2.203  10.549  1.00 17.70 LIG 0.20  C 
ATOM     20 OXT  ASP B   5      30.488   1.269  11.328  1.00 18.22 LIG-0.65  OA
ATOM     21 O    ASP B   5      31.914   2.404  10.100  1.00 17.62 LIG-0.65  OA
ENDBRANCH 14 19
ENDBRANCH 12 14
ENDBRANCH 6 10
ENDBRANCH 4 6
ENDBRANCH 1 2
BRANCH 1 22
ATOM     22  CB  GLU B   3      23.542   4.334  12.621  1.00 19.71 LIG 0.04  C 
BRANCH 22 23
ATOM     23  CG  GLU B   3      24.134   4.038  11.252  1.00 25.47 LIG 0.12  C 
BRANCH 23 24
ATOM     24  CD  GLU B   3      23.387   4.749  10.124  1.00 29.25 LIG 0.17  C 
ATOM     25 OE1  GLU B   3      23.022   4.084   9.123  1.00 30.05 LIG-0.65  OA
ATOM     26 OE2  GLU B   3      23.160   5.975  10.248  1.00 32.05 LIG-0.65  OA
ENDBRANCH 23 24
ENDBRANCH 22 23
ENDBRANCH 1 22
BRANCH 1 27
ATOM     27  N   GLU B   3      23.047   6.736  12.825  1.00 15.41 LIG-0.35  N 
ATOM     28 H    GLU B   3      22.676   6.602  12.061  1.00 15.41 LIG 0.16  HD
ATOM     29  C   GLU B   2      22.820   7.803  13.582  1.00 15.20 LIG 0.24  C 
ATOM     30 O    GLU B   2      23.374   7.978  14.665  1.00 15.89 LIG-0.27  OA
BRANCH 29 31
ATOM     31  CA  GLU B   2      21.827   8.839  13.051  1.00 14.92 LIG 0.18  C 
BRANCH 31 32
ATOM     32  N   GLU B   2      20.954   9.184  14.168  1.00 15.61 LIG-0.35  N 
ATOM     33 H    GLU B   2      21.293   9.743  14.727  1.00 15.61 LIG 0.16  HD
ATOM     34  C   MET B   1      19.736   8.659  14.285  1.00 15.57 LIG 0.24  C 
ATOM     35 O    MET B   1      19.256   7.886  13.448  1.00 13.81 LIG-0.27  OA
BRANCH 34 36
ATOM     36  CA  MET B   1      18.948   9.055  15.539  1.00 16.08 LIG 0.18  C 
BRANCH 36 37
ATOM     37  N   MET B   1      17.516   9.169  15.280  1.00 16.60 LIG-0.35  N 
ATOM     38  C   ACE B   0      17.017  10.111  14.490  1.00 26.43 LIG 0.21  C 
ATOM     39 O    ACE B   0      17.718  10.936  13.903  1.00 27.07 LIG-0.27  OA
ATOM     40  CH3 ACE B   0      15.518  10.118  14.333  1.00 28.67 LIG 0.12  C 
ATOM     41 H    MET B   1      17.036   8.579  15.681  1.00 16.60 LIG 0.16  HD
ENDBRANCH 36 37
BRANCH 36 42
ATOM     42  CB  MET B   1      19.201   7.982  16.612  1.00 17.95 LIG 0.04  C 
BRANCH 42 43
ATOM     43  CG  MET B   1      19.598   6.618  16.104  1.00 19.71 LIG 0.08  C 
BRANCH 43 44
ATOM     44 SD   MET B   1      19.282   5.368  17.372  1.00 23.85 LIG-0.17  SA
ATOM     45  CE  MET B   1      19.636   6.306  18.847  1.00 19.76 LIG 0.09  C 
ENDBRANCH 43 44
ENDBRANCH 42 43
ENDBRANCH 36 42
ENDBRANCH 34 36
ENDBRANCH 31 32
BRANCH 31 46
ATOM     46  CB  GLU B   2      22.586  10.085  12.563  1.00 14.50 LIG 0.04  C 
BRANCH 46 47
ATOM     47  CG  GLU B   2      21.888  10.840  11.443  1.00 15.26 LIG 0.12  C 
BRANCH 47 48
ATOM     48  CD  GLU B   2      20.383  10.730  11.558  1.00 15.63 LIG 0.17  C 
ATOM     49 OE1  GLU B   2      19.819   9.725  11.080  1.00 15.54 LIG-0.65  OA
ATOM     50 OE2  GLU B   2      19.761  11.634  12.145  1.00 15.63 LIG-0.65  OA
ENDBRANCH 47 48
ENDBRANCH 46 47
ENDBRANCH 31 46
ENDBRANCH 29 31
ENDBRANCH 1 27
TORSDOF 22
ENDMDL
MODEL 22
USER: ADFR SOLUTION from run 24
USER: SCORE 18.127640 LL:  -2.468 LR: -16.730 RR:   0.000 FEB: -10.167
USER: RMSD 10.827018
USER: SEED 23
USER: STATUS no improvement in best in 9 clusters for 5 generations
USER: GENES 24
USER: genes 0 Translation |==|  0.57689 0.35828 0.42403
USER: genes 1 Rotation |==|  0.66445 0.41904 0.96310 0.54398
USER: genes 2 Torsion [N]-CA--C-[N] |==|  0.44576
USER: genes 3 Torsion [C]-N--CA-[CB] |==|  0.47936
USER: genes 4 Torsion [N]-CA--CB-[CG1] |==|  0.25390
USER: genes 5 Torsion [N]-CA--C-[N] |==|  0.46995
USER: genes 6 Torsion [C]-N--CA-[C] |==|  0.21835
USER: genes 7 Torsion [N]-CA--CB-[CG] |==|  0.57925
USER: genes 8 Torsion [CA]-CB--CG-[OD2] |==|  0.15493
USER: genes 9 Torsion [N]-CA--C-[OXT] |==|  0.81186
USER: genes 10 Torsion [C]-CA--CB-[CG] |==|  0.90450
USER: genes 11 Torsion [CA]-CB--CG-[CD] |==|  0.70327
USER: genes 12 Torsion [CB]-CG--CD-[OE2] |==|  0.14897
USER: genes 13 Torsion [C]-CA--N-[C] |==|  0.65519
USER: genes 14 Torsion [N]-C--CA-[N] |==|  0.39238
USER: genes 15 Torsion [C]-CA--N-[C] |==|  0.72020
USER: genes 16 Torsion [N]-C--CA-[N] |==|  0.39180
USER: genes 17 Torsion [C]-CA--N-[C] |==|  0.74653
USER: genes 18 Torsion [C]-CA--CB-[CG] |==|  0.30352
USER: genes 19 Torsion [CA]-CB--CG-[SD] |==|  0.11001
USER: genes 20 Torsion [CB]-CG--SD-[CE] |==|  0.74867
USER: genes 21 Torsion [C]-CA--CB-[CG] |==|  0.84597
USER: genes 22 Torsion [CA]-CB--CG-[CD] |==|  0.74724
USER: genes 23 Torsion [CB]-CG--CD-[OE1] |==|  0.51788
ROOT
ATOM      1  CA  GLU B   3      24.914   5.279  13.340  1.00 16.51 LIG 0.18  C 
ENDROOT
BRANCH 1 2
ATOM      2  C   GLU B   3      26.323   5.439  12.782  1.00 15.77 LIG 0.24  C 
ATOM      3 O    GLU B   3      26.618   6.440  12.142  1.00 14.97 LIG-0.27  OA
ATOM      4  N   VAL B   4      27.192   4.456  13.015  1.00 15.94 LIG-0.35  N 
ATOM      5 H    VAL B   4      27.027   3.760  13.491  1.00 15.94 LIG 0.16  HD
BRANCH 4 6
ATOM      6  CA  VAL B   4      28.539   4.514  12.446  1.00 14.46 LIG 0.18  C 
BRANCH 6 7
ATOM      7  CB  VAL B   4      29.479   3.397  12.955  1.00 12.41 LIG 0.01  C 
ATOM      8  CG1 VAL B   4      29.399   2.185  12.020  1.00 11.08 LIG 0.01  C 
ATOM      9  CG2 VAL B   4      30.904   3.902  13.073  1.00 12.26 LIG 0.01  C 
ENDBRANCH 6 7
BRANCH 6 10
ATOM     10  C   VAL B   4      28.416   4.422  10.930  1.00 16.25 LIG 0.24  C 
ATOM     11 O    VAL B   4      27.338   4.119  10.401  1.00 16.95 LIG-0.27  OA
ATOM     12  N   ASP B   5      29.522   4.683  10.240  1.00 16.26 LIG-0.34  N 
ATOM     13 H    ASP B   5      30.277   4.871  10.606  1.00 16.26 LIG 0.16  HD
BRANCH 12 14
ATOM     14  CA  ASP B   5      29.556   4.674   8.785  1.00 17.99 LIG 0.20  C 
BRANCH 14 15
ATOM     15  CB  ASP B   5      28.779   3.456   8.286  1.00 19.95 LIG 0.15  C 
BRANCH 15 16
ATOM     16  CG  ASP B   5      29.288   2.955   6.950  1.00 23.79 LIG 0.17  C 
ATOM     17 OD2  ASP B   5      30.504   2.652   6.830  1.00 26.04 LIG-0.65  OA
ATOM     18 OD1  ASP B   5      28.476   2.880   6.011  1.00 23.66 LIG-0.65  OA
ENDBRANCH 15 16
ENDBRANCH 14 15
BRANCH 14 19
ATOM     19  C   ASP B   5      28.973   5.948   8.165  1.00 17.70 LIG 0.20  C 
ATOM     20 OXT  ASP B   5      27.748   6.153   8.291  1.00 18.22 LIG-0.65  OA
ATOM     21 O    ASP B   5      29.747   6.726   7.583  1.00 17.62 LIG-0.65  OA
ENDBRANCH 14 19
ENDBRANCH 12 14
ENDBRANCH 6 10
ENDBRANCH 4 6
ENDBRANCH 1 2
BRANCH 1 22
ATOM     22  CB  GLU B   3      24.158   4.306  12.421  1.00 19.71 LIG 0.04  C 
BRANCH 22 23
ATOM     23  CG  GLU B   3      24.527   4.394  10.950  1.00 25.47 LIG 0.12  C 
BRANCH 23 24
ATOM     24  CD  GLU B   3      23.435   5.058  10.110  1.00 29.25 LIG 0.17  C 
ATOM     25 OE1  GLU B   3      22.988   4.452   9.105  1.00 30.05 LIG-0.65  OA
ATOM     26 OE2  GLU B   3      23.022   6.186  10.466  1.00 32.05 LIG-0.65  OA
ENDBRANCH 23 24
ENDBRANCH 22 23
ENDBRANCH 1 22
BRANCH 1 27
ATOM     27  N   GLU B   3      24.182   6.545  13.441  1.00 15.41 LIG-0.35  N 
ATOM     28 H    GLU B   3      24.125   6.980  12.702  1.00 15.41 LIG 0.16  HD
ATOM     29  C   GLU B   2      23.659   6.964  14.588  1.00 15.20 LIG 0.24  C 
ATOM     30 O    GLU B   2      23.764   6.330  15.636  1.00 15.89 LIG-0.27  OA
BRANCH 29 31
ATOM     31  CA  GLU B   2      22.906   8.296  14.568  1.00 14.92 LIG 0.18  C 
BRANCH 31 32
ATOM     32  N   GLU B   2      21.752   8.131  15.445  1.00 15.61 LIG-0.35  N 
ATOM     33 H    GLU B   2      21.928   8.198  16.284  1.00 15.61 LIG 0.16  HD
ATOM     34  C   MET B   1      20.536   7.895  14.955  1.00 15.57 LIG 0.24  C 
ATOM     35 O    MET B   1      20.301   7.840  13.743  1.00 13.81 LIG-0.27  OA
BRANCH 34 36
ATOM     36  CA  MET B   1      19.424   7.676  15.987  1.00 16.08 LIG 0.18  C 
BRANCH 36 37
ATOM     37  N   MET B   1      18.165   8.298  15.584  1.00 16.60 LIG-0.35  N 
ATOM     38  C   ACE B   0      17.849   9.537  15.935  1.00 26.43 LIG 0.21  C 
ATOM     39 O    ACE B   0      18.594  10.258  16.600  1.00 27.07 LIG-0.27  OA
ATOM     40  CH3 ACE B   0      16.507  10.037  15.464  1.00 28.67 LIG 0.12  C 
ATOM     41 H    MET B   1      17.659   7.792  15.107  1.00 16.60 LIG 0.16  HD
ENDBRANCH 36 37
BRANCH 36 42
ATOM     42  CB  MET B   1      19.228   6.160  16.154  1.00 17.95 LIG 0.04  C 
BRANCH 42 43
ATOM     43  CG  MET B   1      19.692   5.573  17.464  1.00 19.71 LIG 0.08  C 
BRANCH 43 44
ATOM     44 SD   MET B   1      19.285   6.693  18.824  1.00 23.85 LIG-0.17  SA
ATOM     45  CE  MET B   1      20.767   7.682  18.886  1.00 19.76 LIG 0.09  C 
ENDBRANCH 43 44
ENDBRANCH 42 43
ENDBRANCH 36 42
ENDBRANCH 34 36
ENDBRANCH 31 32
BRANCH 31 46
ATOM     46  CB  GLU B   2      23.819   9.417  15.096  1.00 14.50 LIG 0.04  C 
BRANCH 46 47
ATOM     47  CG  GLU B   2      24.393   9.153  16.478  1.00 15.26 LIG 0.12  C 
BRANCH 47 48
ATOM     48  CD  GLU B   2      23.498   9.712  17.563  1.00 15.63 LIG 0.17  C 
ATOM     49 OE1  GLU B   2      23.898   9.680  18.744  1.00 15.54 LIG-0.65  OA
ATOM     50 OE2  GLU B   2      22.403  10.205  17.237  1.00 15.63 LIG-0.65  OA
ENDBRANCH 47 48
ENDBRANCH 46 47
ENDBRANCH 31 46
ENDBRANCH 29 31
ENDBRANCH 1 27
TORSDOF 22
ENDMDL
MODEL 23
USER: ADFR SOLUTION from run 55
USER: SCORE 18.429190 LL:  -3.283 LR: -16.731 RR:   0.000 FEB: -10.168
USER: RMSD 9.171064
USER: SEED 54
USER: STATUS no improvement in best in 12 clusters for 5 generations
USER: GENES 24
USER: genes 0 Translation |==|  0.60105 0.35198 0.42569
USER: genes 1 Rotation |==|  0.23419 0.71461 0.74365 0.77188
USER: genes 2 Torsion [N]-CA--C-[N] |==|  0.00000
USER: genes 3 Torsion [C]-N--CA-[CB] |==|  0.24283
USER: genes 4 Torsion [N]-CA--CB-[CG1] |==|  0.23732
USER: genes 5 Torsion [N]-CA--C-[N] |==|  0.49532
USER: genes 6 Torsion [C]-N--CA-[C] |==|  0.78751
USER: genes 7 Torsion [N]-CA--CB-[CG] |==|  0.14161
USER: genes 8 Torsion [CA]-CB--CG-[OD2] |==|  0.29067
USER: genes 9 Torsion [N]-CA--C-[OXT] |==|  0.54558
USER: genes 10 Torsion [C]-CA--CB-[CG] |==|  0.53299
USER: genes 11 Torsion [CA]-CB--CG-[CD] |==|  0.77984
USER: genes 12 Torsion [CB]-CG--CD-[OE2] |==|  0.00544
USER: genes 13 Torsion [C]-CA--N-[C] |==|  0.70324
USER: genes 14 Torsion [N]-C--CA-[N] |==|  0.90903
USER: genes 15 Torsion [C]-CA--N-[C] |==|  0.65920
USER: genes 16 Torsion [N]-C--CA-[N] |==|  0.11505
USER: genes 17 Torsion [C]-CA--N-[C] |==|  0.13983
USER: genes 18 Torsion [C]-CA--CB-[CG] |==|  0.48019
USER: genes 19 Torsion [CA]-CB--CG-[SD] |==|  0.93107
USER: genes 20 Torsion [CB]-CG--SD-[CE] |==|  0.31295
USER: genes 21 Torsion [C]-CA--CB-[CG] |==|  0.30266
USER: genes 22 Torsion [CA]-CB--CG-[CD] |==|  0.27166
USER: genes 23 Torsion [CB]-CG--CD-[OE1] |==|  0.44161
ROOT
ATOM      1  CA  GLU B   3      25.512   5.166  13.369  1.00 16.51 LIG 0.18  C 
ENDROOT
BRANCH 1 2
ATOM      2  C   GLU B   3      25.659   5.428  14.863  1.00 15.77 LIG 0.24  C 
ATOM      3 O    GLU B   3      24.775   6.018  15.471  1.00 14.97 LIG-0.27  OA
ATOM      4  N   VAL B   4      26.772   4.999  15.456  1.00 15.94 LIG-0.35  N 
ATOM      5 H    VAL B   4      27.393   4.550  15.066  1.00 15.94 LIG 0.16  HD
BRANCH 4 6
ATOM      6  CA  VAL B   4      27.008   5.282  16.873  1.00 14.46 LIG 0.18  C 
BRANCH 6 7
ATOM      7  CB  VAL B   4      26.401   4.228  17.828  1.00 12.41 LIG 0.01  C 
ATOM      8  CG1 VAL B   4      27.381   3.064  18.006  1.00 11.08 LIG 0.01  C 
ATOM      9  CG2 VAL B   4      26.045   4.852  19.163  1.00 12.26 LIG 0.01  C 
ENDBRANCH 6 7
BRANCH 6 10
ATOM     10  C   VAL B   4      28.513   5.361  17.095  1.00 16.25 LIG 0.24  C 
ATOM     11 O    VAL B   4      29.301   5.163  16.161  1.00 16.95 LIG-0.27  OA
ATOM     12  N   ASP B   5      28.904   5.649  18.332  1.00 16.26 LIG-0.34  N 
ATOM     13 H    ASP B   5      28.359   5.764  18.988  1.00 16.26 LIG 0.16  HD
BRANCH 12 14
ATOM     14  CA  ASP B   5      30.305   5.798  18.695  1.00 17.99 LIG 0.20  C 
BRANCH 14 15
ATOM     15  CB  ASP B   5      30.388   6.559  20.019  1.00 19.95 LIG 0.15  C 
BRANCH 15 16
ATOM     16  CG  ASP B   5      29.497   5.956  21.086  1.00 23.79 LIG 0.17  C 
ATOM     17 OD2  ASP B   5      30.018   5.278  22.010  1.00 26.04 LIG-0.65  OA
ATOM     18 OD1  ASP B   5      28.271   6.144  20.993  1.00 23.66 LIG-0.65  OA
ENDBRANCH 15 16
ENDBRANCH 14 15
BRANCH 14 19
ATOM     19  C   ASP B   5      31.036   4.457  18.824  1.00 17.70 LIG 0.20  C 
ATOM     20 OXT  ASP B   5      32.131   4.442  19.424  1.00 18.22 LIG-0.65  OA
ATOM     21 O    ASP B   5      30.498   3.446  18.343  1.00 17.62 LIG-0.65  OA
ENDBRANCH 14 19
ENDBRANCH 12 14
ENDBRANCH 6 10
ENDBRANCH 4 6
ENDBRANCH 1 2
BRANCH 1 22
ATOM     22  CB  GLU B   3      24.227   4.348  13.165  1.00 19.71 LIG 0.04  C 
BRANCH 22 23
ATOM     23  CG  GLU B   3      24.060   3.751  11.778  1.00 25.47 LIG 0.12  C 
BRANCH 23 24
ATOM     24  CD  GLU B   3      23.561   4.773  10.755  1.00 29.25 LIG 0.17  C 
ATOM     25 OE1  GLU B   3      23.339   4.397   9.578  1.00 30.05 LIG-0.65  OA
ATOM     26 OE2  GLU B   3      23.387   5.953  11.138  1.00 32.05 LIG-0.65  OA
ENDBRANCH 23 24
ENDBRANCH 22 23
ENDBRANCH 1 22
BRANCH 1 27
ATOM     27  N   GLU B   3      26.656   4.456  12.789  1.00 15.41 LIG-0.35  N 
ATOM     28 H    GLU B   3      26.700   3.624  13.001  1.00 15.41 LIG 0.16  HD
ATOM     29  C   GLU B   2      27.537   5.067  12.005  1.00 15.20 LIG 0.24  C 
ATOM     30 O    GLU B   2      27.461   6.262  11.727  1.00 15.89 LIG-0.27  OA
BRANCH 29 31
ATOM     31  CA  GLU B   2      28.684   4.220  11.448  1.00 14.92 LIG 0.18  C 
BRANCH 31 32
ATOM     32  N   GLU B   2      28.988   3.219  12.465  1.00 15.61 LIG-0.35  N 
ATOM     33 H    GLU B   2      28.323   2.722  12.687  1.00 15.61 LIG 0.16  HD
ATOM     34  C   MET B   1      30.209   3.110  12.987  1.00 15.57 LIG 0.24  C 
ATOM     35 O    MET B   1      31.159   3.812  12.624  1.00 13.81 LIG-0.27  OA
BRANCH 34 36
ATOM     36  CA  MET B   1      30.377   2.061  14.093  1.00 16.08 LIG 0.18  C 
BRANCH 36 37
ATOM     37  N   MET B   1      29.666   0.821  13.792  1.00 16.60 LIG-0.35  N 
ATOM     38  C   ACE B   0      29.800   0.198  12.629  1.00 26.43 LIG 0.21  C 
ATOM     39 O    ACE B   0      30.544   0.600  11.733  1.00 27.07 LIG-0.27  OA
ATOM     40  CH3 ACE B   0      28.989  -1.060  12.455  1.00 28.67 LIG 0.12  C 
ATOM     41 H    MET B   1      29.162   0.540  14.430  1.00 16.60 LIG 0.16  HD
ENDBRANCH 36 37
BRANCH 36 42
ATOM     42  CB  MET B   1      31.881   1.777  14.247  1.00 17.95 LIG 0.04  C 
BRANCH 42 43
ATOM     43  CG  MET B   1      32.271   0.891  15.405  1.00 19.71 LIG 0.08  C 
BRANCH 43 44
ATOM     44 SD   MET B   1      31.014   0.976  16.702  1.00 23.85 LIG-0.17  SA
ATOM     45  CE  MET B   1      30.358  -0.680  16.627  1.00 19.76 LIG 0.09  C 
ENDBRANCH 43 44
ENDBRANCH 42 43
ENDBRANCH 36 42
ENDBRANCH 34 36
ENDBRANCH 31 32
BRANCH 31 46
ATOM     46  CB  GLU B   2      28.239   3.536  10.144  1.00 14.50 LIG 0.04  C 
BRANCH 46 47
ATOM     47  CG  GLU B   2      28.894   4.098   8.892  1.00 15.26 LIG 0.12  C 
BRANCH 47 48
ATOM     48  CD  GLU B   2      30.074   3.255   8.460  1.00 15.63 LIG 0.17  C 
ATOM     49 OE1  GLU B   2      30.463   3.331   7.277  1.00 15.54 LIG-0.65  OA
ATOM     50 OE2  GLU B   2      30.630   2.530   9.306  1.00 15.63 LIG-0.65  OA
ENDBRANCH 47 48
ENDBRANCH 46 47
ENDBRANCH 31 46
ENDBRANCH 29 31
ENDBRANCH 1 27
TORSDOF 22
ENDMDL
MODEL 24
USER: ADFR SOLUTION from run 2
USER: SCORE 18.185301 LL:  -2.436 LR: -16.696 RR:   0.000 FEB: -10.134
USER: RMSD 3.455736
USER: SEED 695495
USER: STATUS 1 or 2 clusters left
USER: GENES 24
USER: genes 0 Translation |==|  0.44902 0.45447 0.52591
USER: genes 1 Rotation |==|  0.14844 0.74747 0.70996 0.64520
USER: genes 2 Torsion [N]-CA--C-[N] |==|  0.44947
USER: genes 3 Torsion [C]-N--CA-[CB] |==|  0.17116
USER: genes 4 Torsion [N]-CA--CB-[CG1] |==|  0.17781
USER: genes 5 Torsion [N]-CA--C-[N] |==|  0.12169
USER: genes 6 Torsion [C]-N--CA-[C] |==|  0.70193
USER: genes 7 Torsion [N]-CA--CB-[CG] |==|  0.74845
USER: genes 8 Torsion [CA]-CB--CG-[OD2] |==|  0.47001
USER: genes 9 Torsion [N]-CA--C-[OXT] |==|  0.88363
USER: genes 10 Torsion [C]-CA--CB-[CG] |==|  0.18232
USER: genes 11 Torsion [CA]-CB--CG-[CD] |==|  0.15277
USER: genes 12 Torsion [CB]-CG--CD-[OE2] |==|  0.87035
USER: genes 13 Torsion [C]-CA--N-[C] |==|  0.64394
USER: genes 14 Torsion [N]-C--CA-[N] |==|  0.96111
USER: genes 15 Torsion [C]-CA--N-[C] |==|  0.75979
USER: genes 16 Torsion [N]-C--CA-[N] |==|  0.69669
USER: genes 17 Torsion [C]-CA--N-[C] |==|  0.65871
USER: genes 18 Torsion [C]-CA--CB-[CG] |==|  0.39611
USER: genes 19 Torsion [CA]-CB--CG-[SD] |==|  0.29138
USER: genes 20 Torsion [CB]-CG--SD-[CE] |==|  0.28463
USER: genes 21 Torsion [C]-CA--CB-[CG] |==|  0.26689
USER: genes 22 Torsion [CA]-CB--CG-[CD] |==|  0.70238
USER: genes 23 Torsion [CB]-CG--CD-[OE1] |==|  0.85649
ROOT
ATOM      1  CA  GLU B   3      21.749   7.011  15.173  1.00 16.51 LIG 0.18  C 
ENDROOT
BRANCH 1 2
ATOM      2  C   GLU B   3      21.788   8.082  16.256  1.00 15.77 LIG 0.24  C 
ATOM      3 O    GLU B   3      22.714   8.111  17.055  1.00 14.97 LIG-0.27  OA
ATOM      4  N   VAL B   4      20.784   8.958  16.290  1.00 15.94 LIG-0.35  N 
ATOM      5 H    VAL B   4      20.140   8.986  15.721  1.00 15.94 LIG 0.16  HD
BRANCH 4 6
ATOM      6  CA  VAL B   4      20.723   9.967  17.348  1.00 14.46 LIG 0.18  C 
BRANCH 6 7
ATOM      7  CB  VAL B   4      21.927  10.938  17.353  1.00 12.41 LIG 0.01  C 
ATOM      8  CG1 VAL B   4      21.937  11.760  16.060  1.00 11.08 LIG 0.01  C 
ATOM      9  CG2 VAL B   4      21.889  11.838  18.573  1.00 12.26 LIG 0.01  C 
ENDBRANCH 6 7
BRANCH 6 10
ATOM     10  C   VAL B   4      19.434  10.759  17.172  1.00 16.25 LIG 0.24  C 
ATOM     11 O    VAL B   4      19.431  11.993  17.278  1.00 16.95 LIG-0.27  OA
ATOM     12  N   ASP B   5      18.345  10.045  16.905  1.00 16.26 LIG-0.34  N 
ATOM     13 H    ASP B   5      18.340   9.187  16.854  1.00 16.26 LIG 0.16  HD
BRANCH 12 14
ATOM     14  CA  ASP B   5      17.045  10.658  16.672  1.00 17.99 LIG 0.20  C 
BRANCH 14 15
ATOM     15  CB  ASP B   5      16.452  10.070  15.391  1.00 19.95 LIG 0.15  C 
BRANCH 15 16
ATOM     16  CG  ASP B   5      16.830  10.869  14.161  1.00 23.79 LIG 0.17  C 
ATOM     17 OD2  ASP B   5      16.588  10.395  13.022  1.00 26.04 LIG-0.65  OA
ATOM     18 OD1  ASP B   5      17.388  11.969  14.333  1.00 23.66 LIG-0.65  OA
ENDBRANCH 15 16
ENDBRANCH 14 15
BRANCH 14 19
ATOM     19  C   ASP B   5      16.069  10.454  17.835  1.00 17.70 LIG 0.20  C 
ATOM     20 OXT  ASP B   5      16.032   9.330  18.377  1.00 18.22 LIG-0.65  OA
ATOM     21 O    ASP B   5      15.376  11.419  18.196  1.00 17.62 LIG-0.65  OA
ENDBRANCH 14 19
ENDBRANCH 12 14
ENDBRANCH 6 10
ENDBRANCH 4 6
ENDBRANCH 1 2
BRANCH 1 22
ATOM     22  CB  GLU B   3      20.718   5.955  15.600  1.00 19.71 LIG 0.04  C 
BRANCH 22 23
ATOM     23  CG  GLU B   3      19.280   6.446  15.654  1.00 25.47 LIG 0.12  C 
BRANCH 23 24
ATOM     24  CD  GLU B   3      18.823   7.066  14.333  1.00 29.25 LIG 0.17  C 
ATOM     25 OE1  GLU B   3      17.706   6.738  13.862  1.00 30.05 LIG-0.65  OA
ATOM     26 OE2  GLU B   3      19.585   7.888  13.773  1.00 32.05 LIG-0.65  OA
ENDBRANCH 23 24
ENDBRANCH 22 23
ENDBRANCH 1 22
BRANCH 1 27
ATOM     27  N   GLU B   3      23.049   6.376  14.937  1.00 15.41 LIG-0.35  N 
ATOM     28 H    GLU B   3      23.431   6.078  15.648  1.00 15.41 LIG 0.16  HD
ATOM     29  C   GLU B   2      23.574   6.280  13.721  1.00 15.20 LIG 0.24  C 
ATOM     30 O    GLU B   2      23.016   6.726  12.721  1.00 15.89 LIG-0.27  OA
BRANCH 29 31
ATOM     31  CA  GLU B   2      24.933   5.586  13.597  1.00 14.92 LIG 0.18  C 
BRANCH 31 32
ATOM     32  N   GLU B   2      25.471   5.490  14.950  1.00 15.61 LIG-0.35  N 
ATOM     33 H    GLU B   2      25.296   4.751  15.352  1.00 15.61 LIG 0.16  HD
ATOM     34  C   MET B   1      26.173   6.485  15.489  1.00 15.57 LIG 0.24  C 
ATOM     35 O    MET B   1      26.444   7.523  14.877  1.00 13.81 LIG-0.27  OA
BRANCH 34 36
ATOM     36  CA  MET B   1      26.625   6.281  16.940  1.00 16.08 LIG 0.18  C 
BRANCH 36 37
ATOM     37  N   MET B   1      25.904   7.146  17.871  1.00 16.60 LIG-0.35  N 
ATOM     38  C   ACE B   0      26.533   7.995  18.672  1.00 26.43 LIG 0.21  C 
ATOM     39 O    ACE B   0      27.756   8.135  18.676  1.00 27.07 LIG-0.27  OA
ATOM     40  CH3 ACE B   0      25.658   8.807  19.593  1.00 28.67 LIG 0.12  C 
ATOM     41 H    MET B   1      25.049   7.053  17.849  1.00 16.60 LIG 0.16  HD
ENDBRANCH 36 37
BRANCH 36 42
ATOM     42  CB  MET B   1      26.386   4.807  17.306  1.00 17.95 LIG 0.04  C 
BRANCH 42 43
ATOM     43  CG  MET B   1      27.429   4.167  18.190  1.00 19.71 LIG 0.08  C 
BRANCH 43 44
ATOM     44 SD   MET B   1      26.792   3.994  19.873  1.00 23.85 LIG-0.17  SA
ATOM     45  CE  MET B   1      26.387   2.258  19.891  1.00 19.76 LIG 0.09  C 
ENDBRANCH 43 44
ENDBRANCH 42 43
ENDBRANCH 36 42
ENDBRANCH 34 36
ENDBRANCH 31 32
BRANCH 31 46
ATOM     46  CB  GLU B   2      24.747   4.182  12.997  1.00 14.50 LIG 0.04  C 
BRANCH 46 47
ATOM     47  CG  GLU B   2      24.968   4.114  11.494  1.00 15.26 LIG 0.12  C 
BRANCH 47 48
ATOM     48  CD  GLU B   2      23.660   3.941  10.752  1.00 15.63 LIG 0.17  C 
ATOM     49 OE1  GLU B   2      22.891   3.023  11.100  1.00 15.54 LIG-0.65  OA
ATOM     50 OE2  GLU B   2      23.386   4.736   9.834  1.00 15.63 LIG-0.65  OA
ENDBRANCH 47 48
ENDBRANCH 46 47
ENDBRANCH 31 46
ENDBRANCH 29 31
ENDBRANCH 1 27
TORSDOF 22
ENDMDL
MODEL 25
USER: ADFR SOLUTION from run 176
USER: SCORE 17.745894 LL:  -2.354 LR: -16.695 RR:   0.000 FEB: -10.133
USER: RMSD 5.259042
USER: SEED 175
USER: STATUS searching
USER: GENES 24
USER: genes 0 Translation |==|  0.56336 0.32091 0.37569
USER: genes 1 Rotation |==|  0.12375 0.66953 0.70734 0.69159
USER: genes 2 Torsion [N]-CA--C-[N] |==|  0.45999
USER: genes 3 Torsion [C]-N--CA-[CB] |==|  0.19883
USER: genes 4 Torsion [N]-CA--CB-[CG1] |==|  0.71333
USER: genes 5 Torsion [N]-CA--C-[N] |==|  0.69389
USER: genes 6 Torsion [C]-N--CA-[C] |==|  0.81312
USER: genes 7 Torsion [N]-CA--CB-[CG] |==|  0.38431
USER: genes 8 Torsion [CA]-CB--CG-[OD2] |==|  0.21043
USER: genes 9 Torsion [N]-CA--C-[OXT] |==|  0.83874
USER: genes 10 Torsion [C]-CA--CB-[CG] |==|  0.38764
USER: genes 11 Torsion [CA]-CB--CG-[CD] |==|  0.00711
USER: genes 12 Torsion [CB]-CG--CD-[OE2] |==|  0.23315
USER: genes 13 Torsion [C]-CA--N-[C] |==|  0.68404
USER: genes 14 Torsion [N]-C--CA-[N] |==|  0.95598
USER: genes 15 Torsion [C]-CA--N-[C] |==|  0.65000
USER: genes 16 Torsion [N]-C--CA-[N] |==|  0.37501
USER: genes 17 Torsion [C]-CA--N-[C] |==|  0.81885
USER: genes 18 Torsion [C]-CA--CB-[CG] |==|  0.16254
USER: genes 19 Torsion [CA]-CB--CG-[SD] |==|  0.68131
USER: genes 20 Torsion [CB]-CG--SD-[CE] |==|  0.00277
USER: genes 21 Torsion [C]-CA--CB-[CG] |==|  0.26758
USER: genes 22 Torsion [CA]-CB--CG-[CD] |==|  0.38738
USER: genes 23 Torsion [CB]-CG--CD-[OE1] |==|  0.43893
ROOT
ATOM      1  CA  GLU B   3      24.579   4.606  12.469  1.00 16.51 LIG 0.18  C 
ENDROOT
BRANCH 1 2
ATOM      2  C   GLU B   3      24.168   5.372  13.721  1.00 15.77 LIG 0.24  C 
ATOM      3 O    GLU B   3      24.915   5.407  14.690  1.00 14.97 LIG-0.27  OA
ATOM      4  N   VAL B   4      22.982   5.979  13.708  1.00 15.94 LIG-0.35  N 
ATOM      5 H    VAL B   4      22.452   6.004  13.031  1.00 15.94 LIG 0.16  HD
BRANCH 4 6
ATOM      6  CA  VAL B   4      22.496   6.670  14.903  1.00 14.46 LIG 0.18  C 
BRANCH 6 7
ATOM      7  CB  VAL B   4      23.249   7.986  15.212  1.00 12.41 LIG 0.01  C 
ATOM      8  CG1 VAL B   4      24.232   7.763  16.366  1.00 11.08 LIG 0.01  C 
ATOM      9  CG2 VAL B   4      23.962   8.501  13.978  1.00 12.26 LIG 0.01  C 
ENDBRANCH 6 7
BRANCH 6 10
ATOM     10  C   VAL B   4      21.015   6.968  14.707  1.00 16.25 LIG 0.24  C 
ATOM     11 O    VAL B   4      20.180   6.054  14.707  1.00 16.95 LIG-0.27  OA
ATOM     12  N   ASP B   5      20.696   8.248  14.539  1.00 16.26 LIG-0.34  N 
ATOM     13 H    ASP B   5      21.277   8.883  14.515  1.00 16.26 LIG 0.16  HD
BRANCH 12 14
ATOM     14  CA  ASP B   5      19.321   8.698  14.379  1.00 17.99 LIG 0.20  C 
BRANCH 14 15
ATOM     15  CB  ASP B   5      19.298  10.225  14.442  1.00 19.95 LIG 0.15  C 
BRANCH 15 16
ATOM     16  CG  ASP B   5      18.371  10.830  13.407  1.00 23.79 LIG 0.17  C 
ATOM     17 OD2  ASP B   5      17.128  10.787  13.595  1.00 26.04 LIG-0.65  OA
ATOM     18 OD1  ASP B   5      18.886  11.335  12.393  1.00 23.66 LIG-0.65  OA
ENDBRANCH 15 16
ENDBRANCH 14 15
BRANCH 14 19
ATOM     19  C   ASP B   5      18.686   8.225  13.068  1.00 17.70 LIG 0.20  C 
ATOM     20 OXT  ASP B   5      19.243   8.548  11.998  1.00 18.22 LIG-0.65  OA
ATOM     21 O    ASP B   5      17.659   7.529  13.130  1.00 17.62 LIG-0.65  OA
ENDBRANCH 14 19
ENDBRANCH 12 14
ENDBRANCH 6 10
ENDBRANCH 4 6
ENDBRANCH 1 2
BRANCH 1 22
ATOM     22  CB  GLU B   3      23.727   3.329  12.405  1.00 19.71 LIG 0.04  C 
BRANCH 22 23
ATOM     23  CG  GLU B   3      23.232   2.957  11.017  1.00 25.47 LIG 0.12  C 
BRANCH 23 24
ATOM     24  CD  GLU B   3      23.742   3.912   9.937  1.00 29.25 LIG 0.17  C 
ATOM     25 OE1  GLU B   3      23.011   4.867   9.575  1.00 30.05 LIG-0.65  OA
ATOM     26 OE2  GLU B   3      24.881   3.705   9.457  1.00 32.05 LIG-0.65  OA
ENDBRANCH 23 24
ENDBRANCH 22 23
ENDBRANCH 1 22
BRANCH 1 27
ATOM     27  N   GLU B   3      26.004   4.262  12.441  1.00 15.41 LIG-0.35  N 
ATOM     28 H    GLU B   3      26.243   3.700  13.046  1.00 15.41 LIG 0.16  HD
ATOM     29  C   GLU B   2      26.835   4.785  11.547  1.00 15.20 LIG 0.24  C 
ATOM     30 O    GLU B   2      26.472   5.598  10.699  1.00 15.89 LIG-0.27  OA
BRANCH 29 31
ATOM     31  CA  GLU B   2      28.298   4.341  11.608  1.00 14.92 LIG 0.18  C 
BRANCH 31 32
ATOM     32  N   GLU B   2      28.484   3.711  12.911  1.00 15.61 LIG-0.35  N 
ATOM     33 H    GLU B   2      27.929   3.077  13.084  1.00 15.61 LIG 0.16  HD
ATOM     34  C   MET B   1      29.445   4.108  13.743  1.00 15.57 LIG 0.24  C 
ATOM     35 O    MET B   1      30.255   4.996  13.457  1.00 13.81 LIG-0.27  OA
BRANCH 34 36
ATOM     36  CA  MET B   1      29.488   3.407  15.106  1.00 16.08 LIG 0.18  C 
BRANCH 36 37
ATOM     37  N   MET B   1      30.845   3.021  15.487  1.00 16.60 LIG-0.35  N 
ATOM     38  C   ACE B   0      31.535   2.115  14.807  1.00 26.43 LIG 0.21  C 
ATOM     39 O    ACE B   0      31.100   1.554  13.801  1.00 27.07 LIG-0.27  OA
ATOM     40  CH3 ACE B   0      32.914   1.805  15.330  1.00 28.67 LIG 0.12  C 
ATOM     41 H    MET B   1      31.146   3.430  16.181  1.00 16.60 LIG 0.16  HD
ENDBRANCH 36 37
BRANCH 36 42
ATOM     42  CB  MET B   1      28.907   4.372  16.152  1.00 17.95 LIG 0.04  C 
BRANCH 42 43
ATOM     43  CG  MET B   1      27.493   4.840  15.907  1.00 19.71 LIG 0.08  C 
BRANCH 43 44
ATOM     44 SD   MET B   1      27.475   6.620  15.592  1.00 23.85 LIG-0.17  SA
ATOM     45  CE  MET B   1      29.216   6.986  15.696  1.00 19.76 LIG 0.09  C 
ENDBRANCH 43 44
ENDBRANCH 42 43
ENDBRANCH 36 42
ENDBRANCH 34 36
ENDBRANCH 31 32
BRANCH 31 46
ATOM     46  CB  GLU B   2      28.583   3.331  10.483  1.00 14.50 LIG 0.04  C 
BRANCH 46 47
ATOM     47  CG  GLU B   2      29.193   3.947   9.234  1.00 15.26 LIG 0.12  C 
BRANCH 47 48
ATOM     48  CD  GLU B   2      30.278   3.064   8.657  1.00 15.63 LIG 0.17  C 
ATOM     49 OE1  GLU B   2      30.580   3.196   7.454  1.00 15.54 LIG-0.65  OA
ATOM     50 OE2  GLU B   2      30.847   2.250   9.407  1.00 15.63 LIG-0.65  OA
ENDBRANCH 47 48
ENDBRANCH 46 47
ENDBRANCH 31 46
ENDBRANCH 29 31
ENDBRANCH 1 27
TORSDOF 22
ENDMDL
MODEL 26
USER: ADFR SOLUTION from run 55
USER: SCORE 17.730633 LL:  -2.464 LR: -16.687 RR:   0.000 FEB: -10.124
USER: RMSD 8.426319
USER: SEED 54
USER: STATUS no improvement in best in 12 clusters for 5 generations
USER: GENES 24
USER: genes 0 Translation |==|  0.58967 0.36034 0.41774
USER: genes 1 Rotation |==|  0.20517 0.74038 0.75407 0.70183
USER: genes 2 Torsion [N]-CA--C-[N] |==|  0.03998
USER: genes 3 Torsion [C]-N--CA-[CB] |==|  0.83221
USER: genes 4 Torsion [N]-CA--CB-[CG1] |==|  0.53523
USER: genes 5 Torsion [N]-CA--C-[N] |==|  0.23421
USER: genes 6 Torsion [C]-N--CA-[C] |==|  0.70186
USER: genes 7 Torsion [N]-CA--CB-[CG] |==|  0.25928
USER: genes 8 Torsion [CA]-CB--CG-[OD2] |==|  0.33497
USER: genes 9 Torsion [N]-CA--C-[OXT] |==|  0.52368
USER: genes 10 Torsion [C]-CA--CB-[CG] |==|  0.49328
USER: genes 11 Torsion [CA]-CB--CG-[CD] |==|  0.87057
USER: genes 12 Torsion [CB]-CG--CD-[OE2] |==|  0.94959
USER: genes 13 Torsion [C]-CA--N-[C] |==|  0.72691
USER: genes 14 Torsion [N]-C--CA-[N] |==|  0.93457
USER: genes 15 Torsion [C]-CA--N-[C] |==|  0.66750
USER: genes 16 Torsion [N]-C--CA-[N] |==|  0.11247
USER: genes 17 Torsion [C]-CA--N-[C] |==|  0.15383
USER: genes 18 Torsion [C]-CA--CB-[CG] |==|  0.53610
USER: genes 19 Torsion [CA]-CB--CG-[SD] |==|  0.81785
USER: genes 20 Torsion [CB]-CG--SD-[CE] |==|  0.34987
USER: genes 21 Torsion [C]-CA--CB-[CG] |==|  0.48991
USER: genes 22 Torsion [CA]-CB--CG-[CD] |==|  0.67034
USER: genes 23 Torsion [CB]-CG--CD-[OE1] |==|  0.43575
ROOT
ATOM      1  CA  GLU B   3      25.230   5.316  13.226  1.00 16.51 LIG 0.18  C 
ENDROOT
BRANCH 1 2
ATOM      2  C   GLU B   3      25.510   5.964  14.577  1.00 15.77 LIG 0.24  C 
ATOM      3 O    GLU B   3      24.581   6.330  15.284  1.00 14.97 LIG-0.27  OA
ATOM      4  N   VAL B   4      26.786   6.113  14.934  1.00 15.94 LIG-0.35  N 
ATOM      5 H    VAL B   4      27.458   5.834  14.477  1.00 15.94 LIG 0.16  HD
BRANCH 4 6
ATOM      6  CA  VAL B   4      27.124   6.793  16.185  1.00 14.46 LIG 0.18  C 
BRANCH 6 7
ATOM      7  CB  VAL B   4      26.629   8.258  16.252  1.00 12.41 LIG 0.01  C 
ATOM      8  CG1 VAL B   4      27.290   8.975  17.434  1.00 11.08 LIG 0.01  C 
ATOM      9  CG2 VAL B   4      26.907   8.981  14.949  1.00 12.26 LIG 0.01  C 
ENDBRANCH 6 7
BRANCH 6 10
ATOM     10  C   VAL B   4      26.515   6.000  17.334  1.00 16.25 LIG 0.24  C 
ATOM     11 O    VAL B   4      25.415   6.316  17.807  1.00 16.95 LIG-0.27  OA
ATOM     12  N   ASP B   5      27.234   4.973  17.777  1.00 16.26 LIG-0.34  N 
ATOM     13 H    ASP B   5      28.008   4.766  17.465  1.00 16.26 LIG 0.16  HD
BRANCH 12 14
ATOM     14  CA  ASP B   5      26.771   4.095  18.842  1.00 17.99 LIG 0.20  C 
BRANCH 14 15
ATOM     15  CB  ASP B   5      26.939   2.646  18.386  1.00 19.95 LIG 0.15  C 
BRANCH 15 16
ATOM     16  CG  ASP B   5      28.261   2.053  18.829  1.00 23.79 LIG 0.17  C 
ATOM     17 OD2  ASP B   5      28.261   1.031  19.562  1.00 26.04 LIG-0.65  OA
ATOM     18 OD1  ASP B   5      29.305   2.620  18.457  1.00 23.66 LIG-0.65  OA
ENDBRANCH 15 16
ENDBRANCH 14 15
BRANCH 14 19
ATOM     19  C   ASP B   5      27.516   4.312  20.162  1.00 17.70 LIG 0.20  C 
ATOM     20 OXT  ASP B   5      27.310   3.502  21.091  1.00 18.22 LIG-0.65  OA
ATOM     21 O    ASP B   5      28.304   5.269  20.242  1.00 17.62 LIG-0.65  OA
ENDBRANCH 14 19
ENDBRANCH 12 14
ENDBRANCH 6 10
ENDBRANCH 4 6
ENDBRANCH 1 2
BRANCH 1 22
ATOM     22  CB  GLU B   3      24.087   4.308  13.422  1.00 19.71 LIG 0.04  C 
BRANCH 22 23
ATOM     23  CG  GLU B   3      23.630   3.601  12.157  1.00 25.47 LIG 0.12  C 
BRANCH 23 24
ATOM     24  CD  GLU B   3      23.429   4.565  10.987  1.00 29.25 LIG 0.17  C 
ATOM     25 OE1  GLU B   3      23.386   4.104   9.820  1.00 30.05 LIG-0.65  OA
ATOM     26 OE2  GLU B   3      23.308   5.785  11.243  1.00 32.05 LIG-0.65  OA
ENDBRANCH 23 24
ENDBRANCH 22 23
ENDBRANCH 1 22
BRANCH 1 27
ATOM     27  N   GLU B   3      26.399   4.644  12.650  1.00 15.41 LIG-0.35  N 
ATOM     28 H    GLU B   3      26.540   3.854  12.960  1.00 15.41 LIG 0.16  HD
ATOM     29  C   GLU B   2      27.161   5.225  11.730  1.00 15.20 LIG 0.24  C 
ATOM     30 O    GLU B   2      26.947   6.361  11.313  1.00 15.89 LIG-0.27  OA
BRANCH 29 31
ATOM     31  CA  GLU B   2      28.348   4.421  11.195  1.00 14.92 LIG 0.18  C 
BRANCH 31 32
ATOM     32  N   GLU B   2      28.677   3.438  12.222  1.00 15.61 LIG-0.35  N 
ATOM     33 H    GLU B   2      28.041   2.890  12.409  1.00 15.61 LIG 0.16  HD
ATOM     34  C   MET B   1      29.874   3.417  12.804  1.00 15.57 LIG 0.24  C 
ATOM     35 O    MET B   1      30.785   4.191  12.491  1.00 13.81 LIG-0.27  OA
BRANCH 34 36
ATOM     36  CA  MET B   1      30.067   2.376  13.913  1.00 16.08 LIG 0.18  C 
BRANCH 36 37
ATOM     37  N   MET B   1      29.449   1.094  13.582  1.00 16.60 LIG-0.35  N 
ATOM     38  C   ACE B   0      29.743   0.439  12.467  1.00 26.43 LIG 0.21  C 
ATOM     39 O    ACE B   0      30.566   0.845  11.646  1.00 27.07 LIG-0.27  OA
ATOM     40  CH3 ACE B   0      29.011  -0.860  12.250  1.00 28.67 LIG 0.12  C 
ATOM     41 H    MET B   1      28.888   0.811  14.169  1.00 16.60 LIG 0.16  HD
ENDBRANCH 36 37
BRANCH 36 42
ATOM     42  CB  MET B   1      31.578   2.188  14.125  1.00 17.95 LIG 0.04  C 
BRANCH 42 43
ATOM     43  CG  MET B   1      31.987   0.994  14.953  1.00 19.71 LIG 0.08  C 
BRANCH 43 44
ATOM     44 SD   MET B   1      31.407   1.192  16.654  1.00 23.85 LIG-0.17  SA
ATOM     45  CE  MET B   1      30.505  -0.331  16.869  1.00 19.76 LIG 0.09  C 
ENDBRANCH 43 44
ENDBRANCH 42 43
ENDBRANCH 36 42
ENDBRANCH 34 36
ENDBRANCH 31 32
BRANCH 31 46
ATOM     46  CB  GLU B   2      27.949   3.712   9.888  1.00 14.50 LIG 0.04  C 
BRANCH 46 47
ATOM     47  CG  GLU B   2      29.084   2.952   9.222  1.00 15.26 LIG 0.12  C 
BRANCH 47 48
ATOM     48  CD  GLU B   2      29.379   3.500   7.842  1.00 15.63 LIG 0.17  C 
ATOM     49 OE1  GLU B   2      30.510   3.307   7.352  1.00 15.54 LIG-0.65  OA
ATOM     50 OE2  GLU B   2      28.477   4.104   7.234  1.00 15.63 LIG-0.65  OA
ENDBRANCH 47 48
ENDBRANCH 46 47
ENDBRANCH 31 46
ENDBRANCH 29 31
ENDBRANCH 1 27
TORSDOF 22
ENDMDL
MODEL 27
USER: ADFR SOLUTION from run 118
USER: SCORE 18.671235 LL:  -2.650 LR: -16.687 RR:   0.000 FEB: -10.124
USER: RMSD 3.274979
USER: SEED 117
USER: STATUS searching
USER: GENES 24
USER: genes 0 Translation |==|  0.51700 0.56757 0.61263
USER: genes 1 Rotation |==|  0.62061 0.52642 0.46455 0.98322
USER: genes 2 Torsion [N]-CA--C-[N] |==|  0.92800
USER: genes 3 Torsion [C]-N--CA-[CB] |==|  0.87678
USER: genes 4 Torsion [N]-CA--CB-[CG1] |==|  0.35034
USER: genes 5 Torsion [N]-CA--C-[N] |==|  0.40850
USER: genes 6 Torsion [C]-N--CA-[C] |==|  0.73501
USER: genes 7 Torsion [N]-CA--CB-[CG] |==|  0.82023
USER: genes 8 Torsion [CA]-CB--CG-[OD2] |==|  0.83365
USER: genes 9 Torsion [N]-CA--C-[OXT] |==|  0.01079
USER: genes 10 Torsion [C]-CA--CB-[CG] |==|  0.04186
USER: genes 11 Torsion [CA]-CB--CG-[CD] |==|  0.25618
USER: genes 12 Torsion [CB]-CG--CD-[OE2] |==|  0.55048
USER: genes 13 Torsion [C]-CA--N-[C] |==|  0.83288
USER: genes 14 Torsion [N]-C--CA-[N] |==|  0.32385
USER: genes 15 Torsion [C]-CA--N-[C] |==|  0.77222
USER: genes 16 Torsion [N]-C--CA-[N] |==|  0.88509
USER: genes 17 Torsion [C]-CA--N-[C] |==|  0.81964
USER: genes 18 Torsion [C]-CA--CB-[CG] |==|  0.54492
USER: genes 19 Torsion [CA]-CB--CG-[SD] |==|  0.39480
USER: genes 20 Torsion [CB]-CG--SD-[CE] |==|  0.52090
USER: genes 21 Torsion [C]-CA--CB-[CG] |==|  0.55003
USER: genes 22 Torsion [CA]-CB--CG-[CD] |==|  0.68901
USER: genes 23 Torsion [CB]-CG--CD-[OE1] |==|  0.06734
ROOT
ATOM      1  CA  GLU B   3      23.432   9.046  16.734  1.00 16.51 LIG 0.18  C 
ENDROOT
BRANCH 1 2
ATOM      2  C   GLU B   3      21.985   8.694  17.058  1.00 15.77 LIG 0.24  C 
ATOM      3 O    GLU B   3      21.606   8.673  18.222  1.00 14.97 LIG-0.27  OA
ATOM      4  N   VAL B   4      21.177   8.413  16.036  1.00 15.94 LIG-0.35  N 
ATOM      5 H    VAL B   4      21.403   8.455  15.208  1.00 15.94 LIG 0.16  HD
BRANCH 4 6
ATOM      6  CA  VAL B   4      19.796   7.996  16.283  1.00 14.46 LIG 0.18  C 
BRANCH 6 7
ATOM      7  CB  VAL B   4      19.653   6.953  17.417  1.00 12.41 LIG 0.01  C 
ATOM      8  CG1 VAL B   4      18.643   7.451  18.456  1.00 11.08 LIG 0.01  C 
ATOM      9  CG2 VAL B   4      19.244   5.604  16.860  1.00 12.26 LIG 0.01  C 
ENDBRANCH 6 7
BRANCH 6 10
ATOM     10  C   VAL B   4      18.984   9.237  16.631  1.00 16.25 LIG 0.24  C 
ATOM     11 O    VAL B   4      19.501  10.180  17.245  1.00 16.95 LIG-0.27  OA
ATOM     12  N   ASP B   5      17.714   9.230  16.238  1.00 16.26 LIG-0.34  N 
ATOM     13 H    ASP B   5      17.346   8.567  15.832  1.00 16.26 LIG 0.16  HD
BRANCH 12 14
ATOM     14  CA  ASP B   5      16.820  10.357  16.460  1.00 17.99 LIG 0.20  C 
BRANCH 14 15
ATOM     15  CB  ASP B   5      15.904  10.500  15.244  1.00 19.95 LIG 0.15  C 
BRANCH 15 16
ATOM     16  CG  ASP B   5      16.669  10.859  13.987  1.00 23.79 LIG 0.17  C 
ATOM     17 OD2  ASP B   5      17.336  11.926  13.957  1.00 26.04 LIG-0.65  OA
ATOM     18 OD1  ASP B   5      16.590  10.083  13.018  1.00 23.66 LIG-0.65  OA
ENDBRANCH 15 16
ENDBRANCH 14 15
BRANCH 14 19
ATOM     19  C   ASP B   5      15.974  10.208  17.729  1.00 17.70 LIG 0.20  C 
ATOM     20 OXT  ASP B   5      16.181   9.215  18.458  1.00 18.22 LIG-0.65  OA
ATOM     21 O    ASP B   5      15.136  11.089  17.984  1.00 17.62 LIG-0.65  OA
ENDBRANCH 14 19
ENDBRANCH 12 14
ENDBRANCH 6 10
ENDBRANCH 4 6
ENDBRANCH 1 2
BRANCH 1 22
ATOM     22  CB  GLU B   3      23.538  10.578  16.685  1.00 19.71 LIG 0.04  C 
BRANCH 22 23
ATOM     23  CG  GLU B   3      22.363  11.324  17.297  1.00 25.47 LIG 0.12  C 
BRANCH 23 24
ATOM     24  CD  GLU B   3      22.584  11.654  18.774  1.00 29.25 LIG 0.17  C 
ATOM     25 OE1  GLU B   3      23.752  11.630  19.234  1.00 30.05 LIG-0.65  OA
ATOM     26 OE2  GLU B   3      21.583  11.944  19.469  1.00 32.05 LIG-0.65  OA
ENDBRANCH 23 24
ENDBRANCH 22 23
ENDBRANCH 1 22
BRANCH 1 27
ATOM     27  N   GLU B   3      23.902   8.470  15.471  1.00 15.41 LIG-0.35  N 
ATOM     28 H    GLU B   3      24.155   9.051  14.890  1.00 15.41 LIG 0.16  HD
ATOM     29  C   GLU B   2      23.926   7.158  15.263  1.00 15.20 LIG 0.24  C 
ATOM     30 O    GLU B   2      23.546   6.346  16.105  1.00 15.89 LIG-0.27  OA
BRANCH 29 31
ATOM     31  CA  GLU B   2      24.447   6.673  13.909  1.00 14.92 LIG 0.18  C 
BRANCH 31 32
ATOM     32  N   GLU B   2      25.651   5.897  14.185  1.00 15.61 LIG-0.35  N 
ATOM     33 H    GLU B   2      25.530   5.046  14.210  1.00 15.61 LIG 0.16  HD
ATOM     34  C   MET B   1      26.829   6.488  14.377  1.00 15.57 LIG 0.24  C 
ATOM     35 O    MET B   1      26.986   7.711  14.299  1.00 13.81 LIG-0.27  OA
BRANCH 34 36
ATOM     36  CA  MET B   1      28.000   5.560  14.723  1.00 16.08 LIG 0.18  C 
BRANCH 36 37
ATOM     37  N   MET B   1      27.617   4.513  15.666  1.00 16.60 LIG-0.35  N 
ATOM     38  C   ACE B   0      27.239   4.788  16.908  1.00 26.43 LIG 0.21  C 
ATOM     39 O    ACE B   0      27.161   5.936  17.347  1.00 27.07 LIG-0.27  OA
ATOM     40  CH3 ACE B   0      26.893   3.603  17.772  1.00 28.67 LIG 0.12  C 
ATOM     41 H    MET B   1      27.659   3.716  15.345  1.00 16.60 LIG 0.16  HD
ENDBRANCH 36 37
BRANCH 36 42
ATOM     42  CB  MET B   1      28.502   4.927  13.415  1.00 17.95 LIG 0.04  C 
BRANCH 42 43
ATOM     43  CG  MET B   1      29.385   3.713  13.563  1.00 19.71 LIG 0.08  C 
BRANCH 43 44
ATOM     44 SD   MET B   1      29.010   2.511  12.265  1.00 23.85 LIG-0.17  SA
ATOM     45  CE  MET B   1      30.000   1.130  12.805  1.00 19.76 LIG 0.09  C 
ENDBRANCH 43 44
ENDBRANCH 42 43
ENDBRANCH 36 42
ENDBRANCH 34 36
ENDBRANCH 31 32
BRANCH 31 46
ATOM     46  CB  GLU B   2      23.388   5.789  13.229  1.00 14.50 LIG 0.04  C 
BRANCH 46 47
ATOM     47  CG  GLU B   2      23.932   4.913  12.112  1.00 15.26 LIG 0.12  C 
BRANCH 47 48
ATOM     48  CD  GLU B   2      23.406   5.352  10.762  1.00 15.63 LIG 0.17  C 
ATOM     49 OE1  GLU B   2      23.029   6.533  10.622  1.00 15.54 LIG-0.65  OA
ATOM     50 OE2  GLU B   2      23.387   4.526   9.831  1.00 15.63 LIG-0.65  OA
ENDBRANCH 47 48
ENDBRANCH 46 47
ENDBRANCH 31 46
ENDBRANCH 29 31
ENDBRANCH 1 27
TORSDOF 22
ENDMDL
MODEL 28
USER: ADFR SOLUTION from run 76
USER: SCORE 17.506965 LL:  -3.007 LR: -16.678 RR:   0.000 FEB: -10.115
USER: RMSD 11.008289
USER: SEED 75
USER: STATUS no improvement in best in 9 clusters for 5 generations
USER: GENES 24
USER: genes 0 Translation |==|  0.58335 0.34374 0.42509
USER: genes 1 Rotation |==|  0.40161 0.62862 0.02773 0.52718
USER: genes 2 Torsion [N]-CA--C-[N] |==|  0.45422
USER: genes 3 Torsion [C]-N--CA-[CB] |==|  0.37449
USER: genes 4 Torsion [N]-CA--CB-[CG1] |==|  0.91995
USER: genes 5 Torsion [N]-CA--C-[N] |==|  0.93873
USER: genes 6 Torsion [C]-N--CA-[C] |==|  0.19214
USER: genes 7 Torsion [N]-CA--CB-[CG] |==|  0.58854
USER: genes 8 Torsion [CA]-CB--CG-[OD2] |==|  0.68244
USER: genes 9 Torsion [N]-CA--C-[OXT] |==|  0.16101
USER: genes 10 Torsion [C]-CA--CB-[CG] |==|  0.81823
USER: genes 11 Torsion [CA]-CB--CG-[CD] |==|  0.70551
USER: genes 12 Torsion [CB]-CG--CD-[OE2] |==|  0.27241
USER: genes 13 Torsion [C]-CA--N-[C] |==|  0.78043
USER: genes 14 Torsion [N]-C--CA-[N] |==|  0.26166
USER: genes 15 Torsion [C]-CA--N-[C] |==|  0.61283
USER: genes 16 Torsion [N]-C--CA-[N] |==|  0.15638
USER: genes 17 Torsion [C]-CA--N-[C] |==|  0.78270
USER: genes 18 Torsion [C]-CA--CB-[CG] |==|  0.81637
USER: genes 19 Torsion [CA]-CB--CG-[SD] |==|  0.38527
USER: genes 20 Torsion [CB]-CG--SD-[CE] |==|  0.97805
USER: genes 21 Torsion [C]-CA--CB-[CG] |==|  0.78612
USER: genes 22 Torsion [CA]-CB--CG-[CD] |==|  0.70722
USER: genes 23 Torsion [CB]-CG--CD-[OE1] |==|  0.60705
ROOT
ATOM      1  CA  GLU B   3      25.074   5.017  13.359  1.00 16.51 LIG 0.18  C 
ENDROOT
BRANCH 1 2
ATOM      2  C   GLU B   3      26.524   5.484  13.346  1.00 15.77 LIG 0.24  C 
ATOM      3 O    GLU B   3      26.787   6.658  13.120  1.00 14.97 LIG-0.27  OA
ATOM      4  N   VAL B   4      27.466   4.571  13.582  1.00 15.94 LIG-0.35  N 
ATOM      5 H    VAL B   4      27.312   3.749  13.780  1.00 15.94 LIG 0.16  HD
BRANCH 4 6
ATOM      6  CA  VAL B   4      28.881   4.939  13.513  1.00 14.46 LIG 0.18  C 
BRANCH 6 7
ATOM      7  CB  VAL B   4      29.724   4.396  14.691  1.00 12.41 LIG 0.01  C 
ATOM      8  CG1 VAL B   4      28.843   4.251  15.936  1.00 11.08 LIG 0.01  C 
ATOM      9  CG2 VAL B   4      30.375   3.077  14.325  1.00 12.26 LIG 0.01  C 
ENDBRANCH 6 7
BRANCH 6 10
ATOM     10  C   VAL B   4      29.443   4.408  12.200  1.00 16.25 LIG 0.24  C 
ATOM     11 O    VAL B   4      30.463   4.904  11.703  1.00 16.95 LIG-0.27  OA
ATOM     12  N   ASP B   5      28.774   3.401  11.646  1.00 16.26 LIG-0.34  N 
ATOM     13 H    ASP B   5      28.053   3.070  11.978  1.00 16.26 LIG 0.16  HD
BRANCH 12 14
ATOM     14  CA  ASP B   5      29.207   2.759  10.413  1.00 17.99 LIG 0.20  C 
BRANCH 14 15
ATOM     15  CB  ASP B   5      29.414   3.837   9.349  1.00 19.95 LIG 0.15  C 
BRANCH 15 16
ATOM     16  CG  ASP B   5      29.105   3.336   7.954  1.00 23.79 LIG 0.17  C 
ATOM     17 OD2  ASP B   5      30.036   3.250   7.111  1.00 26.04 LIG-0.65  OA
ATOM     18 OD1  ASP B   5      27.924   3.043   7.691  1.00 23.66 LIG-0.65  OA
ENDBRANCH 15 16
ENDBRANCH 14 15
BRANCH 14 19
ATOM     19  C   ASP B   5      30.494   1.945  10.582  1.00 17.70 LIG 0.20  C 
ATOM     20 OXT  ASP B   5      30.499   1.027  11.428  1.00 18.22 LIG-0.65  OA
ATOM     21 O    ASP B   5      31.464   2.224   9.859  1.00 17.62 LIG-0.65  OA
ENDBRANCH 14 19
ENDBRANCH 12 14
ENDBRANCH 6 10
ENDBRANCH 4 6
ENDBRANCH 1 2
BRANCH 1 22
ATOM     22  CB  GLU B   3      24.826   4.235  12.060  1.00 19.71 LIG 0.04  C 
BRANCH 22 23
ATOM     23  CG  GLU B   3      24.919   5.059  10.786  1.00 25.47 LIG 0.12  C 
BRANCH 23 24
ATOM     24  CD  GLU B   3      23.549   5.339  10.167  1.00 29.25 LIG 0.17  C 
ATOM     25 OE1  GLU B   3      23.011   4.455   9.455  1.00 30.05 LIG-0.65  OA
ATOM     26 OE2  GLU B   3      23.011   6.445  10.403  1.00 32.05 LIG-0.65  OA
ENDBRANCH 23 24
ENDBRANCH 22 23
ENDBRANCH 1 22
BRANCH 1 27
ATOM     27  N   GLU B   3      24.110   6.116  13.474  1.00 15.41 LIG-0.35  N 
ATOM     28 H    GLU B   3      23.741   6.341  12.731  1.00 15.41 LIG 0.16  HD
ATOM     29  C   GLU B   2      23.846   6.699  14.638  1.00 15.20 LIG 0.24  C 
ATOM     30 O    GLU B   2      24.397   6.369  15.686  1.00 15.89 LIG-0.27  OA
BRANCH 29 31
ATOM     31  CA  GLU B   2      22.813   7.829  14.636  1.00 14.92 LIG 0.18  C 
BRANCH 31 32
ATOM     32  N   GLU B   2      21.532   7.216  14.972  1.00 15.61 LIG-0.35  N 
ATOM     33 H    GLU B   2      21.573   6.619  15.589  1.00 15.61 LIG 0.16  HD
ATOM     34  C   MET B   1      20.409   7.575  14.353  1.00 15.57 LIG 0.24  C 
ATOM     35 O    MET B   1      20.370   8.463  13.495  1.00 13.81 LIG-0.27  OA
BRANCH 34 36
ATOM     36  CA  MET B   1      19.144   6.807  14.755  1.00 16.08 LIG 0.18  C 
BRANCH 36 37
ATOM     37  N   MET B   1      18.886   6.877  16.191  1.00 16.60 LIG-0.35  N 
ATOM     38  C   ACE B   0      19.551   6.130  17.062  1.00 26.43 LIG 0.21  C 
ATOM     39 O    ACE B   0      20.442   5.346  16.732  1.00 27.07 LIG-0.27  OA
ATOM     40  CH3 ACE B   0      19.162   6.295  18.509  1.00 28.67 LIG 0.12  C 
ATOM     41 H    MET B   1      18.274   7.439  16.413  1.00 16.60 LIG 0.16  HD
ENDBRANCH 36 37
BRANCH 36 42
ATOM     42  CB  MET B   1      17.960   7.412  13.982  1.00 17.95 LIG 0.04  C 
BRANCH 42 43
ATOM     43  CG  MET B   1      17.597   8.834  14.334  1.00 19.71 LIG 0.08  C 
BRANCH 43 44
ATOM     44 SD   MET B   1      17.210   9.764  12.832  1.00 23.85 LIG-0.17  SA
ATOM     45  CE  MET B   1      17.682   8.580  11.586  1.00 19.76 LIG 0.09  C 
ENDBRANCH 43 44
ENDBRANCH 42 43
ENDBRANCH 36 42
ENDBRANCH 34 36
ENDBRANCH 31 32
BRANCH 31 46
ATOM     46  CB  GLU B   2      23.193   8.882  15.692  1.00 14.50 LIG 0.04  C 
BRANCH 46 47
ATOM     47  CG  GLU B   2      22.869   8.476  17.121  1.00 15.26 LIG 0.12  C 
BRANCH 47 48
ATOM     48  CD  GLU B   2      21.658   9.216  17.644  1.00 15.63 LIG 0.17  C 
ATOM     49 OE1  GLU B   2      21.656   9.597  18.832  1.00 15.54 LIG-0.65  OA
ATOM     50 OE2  GLU B   2      20.713   9.440  16.865  1.00 15.63 LIG-0.65  OA
ENDBRANCH 47 48
ENDBRANCH 46 47
ENDBRANCH 31 46
ENDBRANCH 29 31
ENDBRANCH 1 27
TORSDOF 22
ENDMDL
MODEL 29
USER: ADFR SOLUTION from run 75
USER: SCORE 17.667367 LL:  -2.899 LR: -16.678 RR:   0.000 FEB: -10.116
USER: RMSD 4.683078
USER: SEED 74
USER: STATUS searching
USER: GENES 24
USER: genes 0 Translation |==|  0.48211 0.47616 0.46311
USER: genes 1 Rotation |==|  0.06583 0.40825 0.65535 0.67014
USER: genes 2 Torsion [N]-CA--C-[N] |==|  0.09563
USER: genes 3 Torsion [C]-N--CA-[CB] |==|  0.26008
USER: genes 4 Torsion [N]-CA--CB-[CG1] |==|  0.76523
USER: genes 5 Torsion [N]-CA--C-[N] |==|  0.42026
USER: genes 6 Torsion [C]-N--CA-[C] |==|  0.67385
USER: genes 7 Torsion [N]-CA--CB-[CG] |==|  0.81156
USER: genes 8 Torsion [CA]-CB--CG-[OD2] |==|  0.82459
USER: genes 9 Torsion [N]-CA--C-[OXT] |==|  0.97117
USER: genes 10 Torsion [C]-CA--CB-[CG] |==|  0.42682
USER: genes 11 Torsion [CA]-CB--CG-[CD] |==|  0.72082
USER: genes 12 Torsion [CB]-CG--CD-[OE2] |==|  0.77130
USER: genes 13 Torsion [C]-CA--N-[C] |==|  0.18863
USER: genes 14 Torsion [N]-C--CA-[N] |==|  0.56895
USER: genes 15 Torsion [C]-CA--N-[C] |==|  0.68017
USER: genes 16 Torsion [N]-C--CA-[N] |==|  0.41032
USER: genes 17 Torsion [C]-CA--N-[C] |==|  0.79438
USER: genes 18 Torsion [C]-CA--CB-[CG] |==|  0.53702
USER: genes 19 Torsion [CA]-CB--CG-[SD] |==|  0.71399
USER: genes 20 Torsion [CB]-CG--SD-[CE] |==|  0.07339
USER: genes 21 Torsion [C]-CA--CB-[CG] |==|  0.38540
USER: genes 22 Torsion [CA]-CB--CG-[CD] |==|  0.02381
USER: genes 23 Torsion [CB]-CG--CD-[OE1] |==|  0.25169
ROOT
ATOM      1  CA  GLU B   3      22.568   7.401  14.043  1.00 16.51 LIG 0.18  C 
ENDROOT
BRANCH 1 2
ATOM      2  C   GLU B   3      21.235   7.088  14.710  1.00 15.77 LIG 0.24  C 
ATOM      3 O    GLU B   3      20.630   6.064  14.419  1.00 14.97 LIG-0.27  OA
ATOM      4  N   VAL B   4      20.771   7.966  15.599  1.00 15.94 LIG-0.35  N 
ATOM      5 H    VAL B   4      21.188   8.674  15.851  1.00 15.94 LIG 0.16  HD
BRANCH 4 6
ATOM      6  CA  VAL B   4      19.462   7.762  16.221  1.00 14.46 LIG 0.18  C 
BRANCH 6 7
ATOM      7  CB  VAL B   4      19.526   7.018  17.576  1.00 12.41 LIG 0.01  C 
ATOM      8  CG1 VAL B   4      19.556   5.505  17.337  1.00 11.08 LIG 0.01  C 
ATOM      9  CG2 VAL B   4      20.729   7.468  18.382  1.00 12.26 LIG 0.01  C 
ENDBRANCH 6 7
BRANCH 6 10
ATOM     10  C   VAL B   4      18.816   9.126  16.423  1.00 16.25 LIG 0.24  C 
ATOM     11 O    VAL B   4      19.512  10.136  16.592  1.00 16.95 LIG-0.27  OA
ATOM     12  N   ASP B   5      17.487   9.149  16.404  1.00 16.26 LIG-0.34  N 
ATOM     13 H    ASP B   5      17.001   8.446  16.309  1.00 16.26 LIG 0.16  HD
BRANCH 12 14
ATOM     14  CA  ASP B   5      16.723  10.381  16.543  1.00 17.99 LIG 0.20  C 
BRANCH 14 15
ATOM     15  CB  ASP B   5      15.860  10.562  15.294  1.00 19.95 LIG 0.15  C 
BRANCH 15 16
ATOM     16  CG  ASP B   5      16.688  10.839  14.056  1.00 23.79 LIG 0.17  C 
ATOM     17 OD2  ASP B   5      17.382  11.887  14.004  1.00 26.04 LIG-0.65  OA
ATOM     18 OD1  ASP B   5      16.631  10.016  13.124  1.00 23.66 LIG-0.65  OA
ENDBRANCH 15 16
ENDBRANCH 14 15
BRANCH 14 19
ATOM     19  C   ASP B   5      15.837  10.397  17.792  1.00 17.70 LIG 0.20  C 
ATOM     20 OXT  ASP B   5      15.701   9.331  18.427  1.00 18.22 LIG-0.65  OA
ATOM     21 O    ASP B   5      15.310  11.472  18.124  1.00 17.62 LIG-0.65  OA
ENDBRANCH 14 19
ENDBRANCH 12 14
ENDBRANCH 6 10
ENDBRANCH 4 6
ENDBRANCH 1 2
BRANCH 1 22
ATOM     22  CB  GLU B   3      23.173   6.071  13.566  1.00 19.71 LIG 0.04  C 
BRANCH 22 23
ATOM     23  CG  GLU B   3      24.121   6.184  12.384  1.00 25.47 LIG 0.12  C 
BRANCH 23 24
ATOM     24  CD  GLU B   3      23.457   5.800  11.061  1.00 29.25 LIG 0.17  C 
ATOM     25 OE1  GLU B   3      23.018   6.709  10.315  1.00 30.05 LIG-0.65  OA
ATOM     26 OE2  GLU B   3      23.383   4.583  10.770  1.00 32.05 LIG-0.65  OA
ENDBRANCH 23 24
ENDBRANCH 22 23
ENDBRANCH 1 22
BRANCH 1 27
ATOM     27  N   GLU B   3      23.512   8.094  14.926  1.00 15.41 LIG-0.35  N 
ATOM     28 H    GLU B   3      23.676   8.907  14.698  1.00 15.41 LIG 0.16  HD
ATOM     29  C   GLU B   2      24.054   7.498  15.982  1.00 15.20 LIG 0.24  C 
ATOM     30 O    GLU B   2      23.813   6.330  16.280  1.00 15.89 LIG-0.27  OA
BRANCH 29 31
ATOM     31  CA  GLU B   2      25.016   8.326  16.835  1.00 14.92 LIG 0.18  C 
BRANCH 31 32
ATOM     32  N   GLU B   2      25.897   7.375  17.504  1.00 15.61 LIG-0.35  N 
ATOM     33 H    GLU B   2      26.406   6.927  16.975  1.00 15.61 LIG 0.16  HD
ATOM     34  C   MET B   1      25.890   7.236  18.828  1.00 15.57 LIG 0.24  C 
ATOM     35 O    MET B   1      25.176   7.919  19.571  1.00 13.81 LIG-0.27  OA
BRANCH 34 36
ATOM     36  CA  MET B   1      26.818   6.156  19.397  1.00 16.08 LIG 0.18  C 
BRANCH 36 37
ATOM     37  N   MET B   1      27.340   6.512  20.714  1.00 16.60 LIG-0.35  N 
ATOM     38  C   ACE B   0      28.282   7.432  20.872  1.00 26.43 LIG 0.21  C 
ATOM     39 O    ACE B   0      28.766   8.066  19.933  1.00 27.07 LIG-0.27  OA
ATOM     40  CH3 ACE B   0      28.736   7.678  22.287  1.00 28.67 LIG 0.12  C 
ATOM     41 H    MET B   1      26.984   6.076  21.365  1.00 16.60 LIG 0.16  HD
ENDBRANCH 36 37
BRANCH 36 42
ATOM     42  CB  MET B   1      26.015   4.847  19.490  1.00 17.95 LIG 0.04  C 
BRANCH 42 43
ATOM     43  CG  MET B   1      26.640   3.744  20.309  1.00 19.71 LIG 0.08  C 
BRANCH 43 44
ATOM     44 SD   MET B   1      27.368   2.499  19.218  1.00 23.85 LIG-0.17  SA
ATOM     45  CE  MET B   1      27.713   3.491  17.777  1.00 19.76 LIG 0.09  C 
ENDBRANCH 43 44
ENDBRANCH 42 43
ENDBRANCH 36 42
ENDBRANCH 34 36
ENDBRANCH 31 32
BRANCH 31 46
ATOM     46  CB  GLU B   2      25.834   9.267  15.933  1.00 14.50 LIG 0.04  C 
BRANCH 46 47
ATOM     47  CG  GLU B   2      26.023  10.665  16.500  1.00 15.26 LIG 0.12  C 
BRANCH 47 48
ATOM     48  CD  GLU B   2      25.533  10.751  17.929  1.00 15.63 LIG 0.17  C 
ATOM     49 OE1  GLU B   2      26.339  10.516  18.853  1.00 15.54 LIG-0.65  OA
ATOM     50 OE2  GLU B   2      24.349  11.074  18.136  1.00 15.63 LIG-0.65  OA
ENDBRANCH 47 48
ENDBRANCH 46 47
ENDBRANCH 31 46
ENDBRANCH 29 31
ENDBRANCH 1 27
TORSDOF 22
ENDMDL
MODEL 30
USER: ADFR SOLUTION from run 118
USER: SCORE 18.651029 LL:  -2.544 LR: -16.666 RR:   0.000 FEB: -10.103
USER: RMSD 2.461628
USER: SEED 117
USER: STATUS searching
USER: GENES 24
USER: genes 0 Translation |==|  0.51700 0.56778 0.61373
USER: genes 1 Rotation |==|  0.61252 0.52237 0.46562 0.98544
USER: genes 2 Torsion [N]-CA--C-[N] |==|  0.92574
USER: genes 3 Torsion [C]-N--CA-[CB] |==|  0.87222
USER: genes 4 Torsion [N]-CA--CB-[CG1] |==|  0.34949
USER: genes 5 Torsion [N]-CA--C-[N] |==|  0.40938
USER: genes 6 Torsion [C]-N--CA-[C] |==|  0.73431
USER: genes 7 Torsion [N]-CA--CB-[CG] |==|  0.81949
USER: genes 8 Torsion [CA]-CB--CG-[OD2] |==|  0.83399
USER: genes 9 Torsion [N]-CA--C-[OXT] |==|  0.01063
USER: genes 10 Torsion [C]-CA--CB-[CG] |==|  0.04213
USER: genes 11 Torsion [CA]-CB--CG-[CD] |==|  0.26065
USER: genes 12 Torsion [CB]-CG--CD-[OE2] |==|  0.54920
USER: genes 13 Torsion [C]-CA--N-[C] |==|  0.83595
USER: genes 14 Torsion [N]-C--CA-[N] |==|  0.35070
USER: genes 15 Torsion [C]-CA--N-[C] |==|  0.75042
USER: genes 16 Torsion [N]-C--CA-[N] |==|  0.39916
USER: genes 17 Torsion [C]-CA--N-[C] |==|  0.79019
USER: genes 18 Torsion [C]-CA--CB-[CG] |==|  0.22250
USER: genes 19 Torsion [CA]-CB--CG-[SD] |==|  0.37442
USER: genes 20 Torsion [CB]-CG--SD-[CE] |==|  0.49657
USER: genes 21 Torsion [C]-CA--CB-[CG] |==|  0.55445
USER: genes 22 Torsion [CA]-CB--CG-[CD] |==|  0.68685
USER: genes 23 Torsion [CB]-CG--CD-[OE1] |==|  0.07333
ROOT
ATOM      1  CA  GLU B   3      23.432   9.050  16.754  1.00 16.51 LIG 0.18  C 
ENDROOT
BRANCH 1 2
ATOM      2  C   GLU B   3      21.981   8.705  17.069  1.00 15.77 LIG 0.24  C 
ATOM      3 O    GLU B   3      21.589   8.708  18.228  1.00 14.97 LIG-0.27  OA
ATOM      4  N   VAL B   4      21.185   8.402  16.043  1.00 15.94 LIG-0.35  N 
ATOM      5 H    VAL B   4      21.421   8.428  15.217  1.00 15.94 LIG 0.16  HD
BRANCH 4 6
ATOM      6  CA  VAL B   4      19.801   7.992  16.283  1.00 14.46 LIG 0.18  C 
BRANCH 6 7
ATOM      7  CB  VAL B   4      19.649   6.943  17.410  1.00 12.41 LIG 0.01  C 
ATOM      8  CG1 VAL B   4      18.643   7.443  18.452  1.00 11.08 LIG 0.01  C 
ATOM      9  CG2 VAL B   4      19.227   5.601  16.844  1.00 12.26 LIG 0.01  C 
ENDBRANCH 6 7
BRANCH 6 10
ATOM     10  C   VAL B   4      18.994   9.235  16.636  1.00 16.25 LIG 0.24  C 
ATOM     11 O    VAL B   4      19.516  10.174  17.252  1.00 16.95 LIG-0.27  OA
ATOM     12  N   ASP B   5      17.724   9.234  16.244  1.00 16.26 LIG-0.34  N 
ATOM     13 H    ASP B   5      17.353   8.573  15.836  1.00 16.26 LIG 0.16  HD
BRANCH 12 14
ATOM     14  CA  ASP B   5      16.834  10.363  16.471  1.00 17.99 LIG 0.20  C 
BRANCH 14 15
ATOM     15  CB  ASP B   5      15.922  10.518  15.253  1.00 19.95 LIG 0.15  C 
BRANCH 15 16
ATOM     16  CG  ASP B   5      16.691  10.888  14.001  1.00 23.79 LIG 0.17  C 
ATOM     17 OD2  ASP B   5      17.361  11.952  13.984  1.00 26.04 LIG-0.65  OA
ATOM     18 OD1  ASP B   5      16.612  10.121  13.024  1.00 23.66 LIG-0.65  OA
ENDBRANCH 15 16
ENDBRANCH 14 15
BRANCH 14 19
ATOM     19  C   ASP B   5      15.985  10.211  17.737  1.00 17.70 LIG 0.20  C 
ATOM     20 OXT  ASP B   5      16.184   9.212  18.459  1.00 18.22 LIG-0.65  OA
ATOM     21 O    ASP B   5      15.151  11.095  17.995  1.00 17.62 LIG-0.65  OA
ENDBRANCH 14 19
ENDBRANCH 12 14
ENDBRANCH 6 10
ENDBRANCH 4 6
ENDBRANCH 1 2
BRANCH 1 22
ATOM     22  CB  GLU B   3      23.535  10.580  16.654  1.00 19.71 LIG 0.04  C 
BRANCH 22 23
ATOM     23  CG  GLU B   3      22.350  11.342  17.225  1.00 25.47 LIG 0.12  C 
BRANCH 23 24
ATOM     24  CD  GLU B   3      22.567  11.758  18.680  1.00 29.25 LIG 0.17  C 
ATOM     25 OE1  GLU B   3      23.735  11.767  19.142  1.00 30.05 LIG-0.65  OA
ATOM     26 OE2  GLU B   3      21.564  12.082  19.357  1.00 32.05 LIG-0.65  OA
ENDBRANCH 23 24
ENDBRANCH 22 23
ENDBRANCH 1 22
BRANCH 1 27
ATOM     27  N   GLU B   3      23.922   8.432  15.519  1.00 15.41 LIG-0.35  N 
ATOM     28 H    GLU B   3      24.196   8.993  14.928  1.00 15.41 LIG 0.16  HD
ATOM     29  C   GLU B   2      23.932   7.114  15.348  1.00 15.20 LIG 0.24  C 
ATOM     30 O    GLU B   2      23.522   6.332  16.203  1.00 15.89 LIG-0.27  OA
BRANCH 29 31
ATOM     31  CA  GLU B   2      24.477   6.585  14.020  1.00 14.92 LIG 0.18  C 
BRANCH 31 32
ATOM     32  N   GLU B   2      25.515   5.617  14.357  1.00 15.61 LIG-0.35  N 
ATOM     33 H    GLU B   2      25.235   4.809  14.446  1.00 15.61 LIG 0.16  HD
ATOM     34  C   MET B   1      26.786   5.987  14.509  1.00 15.57 LIG 0.24  C 
ATOM     35 O    MET B   1      27.170   7.149  14.339  1.00 13.81 LIG-0.27  OA
BRANCH 34 36
ATOM     36  CA  MET B   1      27.764   4.883  14.927  1.00 16.08 LIG 0.18  C 
BRANCH 36 37
ATOM     37  N   MET B   1      29.074   5.038  14.301  1.00 16.60 LIG-0.35  N 
ATOM     38  C   ACE B   0      29.285   4.733  13.027  1.00 26.43 LIG 0.21  C 
ATOM     39 O    ACE B   0      28.397   4.324  12.278  1.00 27.07 LIG-0.27  OA
ATOM     40  CH3 ACE B   0      30.693   4.926  12.525  1.00 28.67 LIG 0.12  C 
ATOM     41 H    MET B   1      29.684   5.339  14.827  1.00 16.60 LIG 0.16  HD
ENDBRANCH 36 37
BRANCH 36 42
ATOM     42  CB  MET B   1      27.907   4.935  16.457  1.00 17.95 LIG 0.04  C 
BRANCH 42 43
ATOM     43  CG  MET B   1      26.801   4.280  17.248  1.00 19.71 LIG 0.08  C 
BRANCH 43 44
ATOM     44 SD   MET B   1      27.501   3.266  18.571  1.00 23.85 LIG-0.17  SA
ATOM     45  CE  MET B   1      26.011   2.664  19.342  1.00 19.76 LIG 0.09  C 
ENDBRANCH 43 44
ENDBRANCH 42 43
ENDBRANCH 36 42
ENDBRANCH 34 36
ENDBRANCH 31 32
BRANCH 31 46
ATOM     46  CB  GLU B   2      23.348   5.901  13.230  1.00 14.50 LIG 0.04  C 
BRANCH 46 47
ATOM     47  CG  GLU B   2      23.834   4.947  12.150  1.00 15.26 LIG 0.12  C 
BRANCH 47 48
ATOM     48  CD  GLU B   2      23.503   5.465  10.767  1.00 15.63 LIG 0.17  C 
ATOM     49 OE1  GLU B   2      23.379   6.696  10.603  1.00 15.54 LIG-0.65  OA
ATOM     50 OE2  GLU B   2      23.388   4.649   9.835  1.00 15.63 LIG-0.65  OA
ENDBRANCH 47 48
ENDBRANCH 46 47
ENDBRANCH 31 46
ENDBRANCH 29 31
ENDBRANCH 1 27
TORSDOF 22
ENDMDL
MODEL 31
USER: ADFR SOLUTION from run 11
USER: SCORE 17.999848 LL:  -3.494 LR: -16.645 RR:   0.000 FEB: -10.082
USER: RMSD 11.177517
USER: SEED 101768
USER: STATUS searching
USER: GENES 24
USER: genes 0 Translation |==|  0.67355 0.34422 0.55515
USER: genes 1 Rotation |==|  0.62489 0.80326 0.86919 0.57829
USER: genes 2 Torsion [N]-CA--C-[N] |==|  0.95791
USER: genes 3 Torsion [C]-N--CA-[CB] |==|  0.26652
USER: genes 4 Torsion [N]-CA--CB-[CG1] |==|  0.19871
USER: genes 5 Torsion [N]-CA--C-[N] |==|  0.40853
USER: genes 6 Torsion [C]-N--CA-[C] |==|  0.78072
USER: genes 7 Torsion [N]-CA--CB-[CG] |==|  0.54928
USER: genes 8 Torsion [CA]-CB--CG-[OD2] |==|  0.63918
USER: genes 9 Torsion [N]-CA--C-[OXT] |==|  0.94928
USER: genes 10 Torsion [C]-CA--CB-[CG] |==|  0.29086
USER: genes 11 Torsion [CA]-CB--CG-[CD] |==|  0.60858
USER: genes 12 Torsion [CB]-CG--CD-[OE2] |==|  0.52671
USER: genes 13 Torsion [C]-CA--N-[C] |==|  0.81692
USER: genes 14 Torsion [N]-C--CA-[N] |==|  0.56058
USER: genes 15 Torsion [C]-CA--N-[C] |==|  0.61308
USER: genes 16 Torsion [N]-C--CA-[N] |==|  0.53318
USER: genes 17 Torsion [C]-CA--N-[C] |==|  0.56775
USER: genes 18 Torsion [C]-CA--CB-[CG] |==|  0.23198
USER: genes 19 Torsion [CA]-CB--CG-[SD] |==|  0.15910
USER: genes 20 Torsion [CB]-CG--SD-[CE] |==|  0.66305
USER: genes 21 Torsion [C]-CA--CB-[CG] |==|  0.68196
USER: genes 22 Torsion [CA]-CB--CG-[CD] |==|  0.72614
USER: genes 23 Torsion [CB]-CG--CD-[OE1] |==|  0.81084
ROOT
ATOM      1  CA  GLU B   3      27.306   5.026  15.700  1.00 16.51 LIG 0.18  C 
ENDROOT
BRANCH 1 2
ATOM      2  C   GLU B   3      28.656   4.636  15.110  1.00 15.77 LIG 0.24  C 
ATOM      3 O    GLU B   3      29.688   4.912  15.707  1.00 14.97 LIG-0.27  OA
ATOM      4  N   VAL B   4      28.654   4.001  13.938  1.00 15.94 LIG-0.35  N 
ATOM      5 H    VAL B   4      27.947   3.760  13.513  1.00 15.94 LIG 0.16  HD
BRANCH 4 6
ATOM      6  CA  VAL B   4      29.918   3.663  13.282  1.00 14.46 LIG 0.18  C 
BRANCH 6 7
ATOM      7  CB  VAL B   4      30.399   2.220  13.563  1.00 12.41 LIG 0.01  C 
ATOM      8  CG1 VAL B   4      29.506   1.221  12.821  1.00 11.08 LIG 0.01  C 
ATOM      9  CG2 VAL B   4      31.853   2.050  13.169  1.00 12.26 LIG 0.01  C 
ENDBRANCH 6 7
BRANCH 6 10
ATOM     10  C   VAL B   4      29.737   3.854  11.781  1.00 16.25 LIG 0.24  C 
ATOM     11 O    VAL B   4      28.644   3.635  11.244  1.00 16.95 LIG-0.27  OA
ATOM     12  N   ASP B   5      30.813   4.260  11.113  1.00 16.26 LIG-0.34  N 
ATOM     13 H    ASP B   5      31.579   4.390  11.481  1.00 16.26 LIG 0.16  HD
BRANCH 12 14
ATOM     14  CA  ASP B   5      30.791   4.524   9.682  1.00 17.99 LIG 0.20  C 
BRANCH 14 15
ATOM     15  CB  ASP B   5      31.967   5.439   9.338  1.00 19.95 LIG 0.15  C 
BRANCH 15 16
ATOM     16  CG  ASP B   5      31.797   6.113   7.992  1.00 23.79 LIG 0.17  C 
ATOM     17 OD2  ASP B   5      32.738   6.068   7.159  1.00 26.04 LIG-0.65  OA
ATOM     18 OD1  ASP B   5      30.725   6.706   7.772  1.00 23.66 LIG-0.65  OA
ENDBRANCH 15 16
ENDBRANCH 14 15
BRANCH 14 19
ATOM     19  C   ASP B   5      30.862   3.249   8.836  1.00 17.70 LIG 0.20  C 
ATOM     20 OXT  ASP B   5      31.273   2.205   9.385  1.00 18.22 LIG-0.65  OA
ATOM     21 O    ASP B   5      30.493   3.308   7.652  1.00 17.62 LIG-0.65  OA
ENDBRANCH 14 19
ENDBRANCH 12 14
ENDBRANCH 6 10
ENDBRANCH 4 6
ENDBRANCH 1 2
BRANCH 1 22
ATOM     22  CB  GLU B   3      27.026   4.084  16.881  1.00 19.71 LIG 0.04  C 
BRANCH 22 23
ATOM     23  CG  GLU B   3      27.211   4.705  18.256  1.00 25.47 LIG 0.12  C 
BRANCH 23 24
ATOM     24  CD  GLU B   3      27.852   3.740  19.253  1.00 29.25 LIG 0.17  C 
ATOM     25 OE1  GLU B   3      28.326   2.656  18.832  1.00 30.05 LIG-0.65  OA
ATOM     26 OE2  GLU B   3      27.886   4.076  20.460  1.00 32.05 LIG-0.65  OA
ENDBRANCH 23 24
ENDBRANCH 22 23
ENDBRANCH 1 22
BRANCH 1 27
ATOM     27  N   GLU B   3      26.207   4.959  14.732  1.00 15.41 LIG-0.35  N 
ATOM     28 H    GLU B   3      25.620   4.356  14.907  1.00 15.41 LIG 0.16  HD
ATOM     29  C   GLU B   2      26.145   5.770  13.682  1.00 15.20 LIG 0.24  C 
ATOM     30 O    GLU B   2      27.004   6.616  13.446  1.00 15.89 LIG-0.27  OA
BRANCH 29 31
ATOM     31  CA  GLU B   2      24.944   5.613  12.747  1.00 14.92 LIG 0.18  C 
BRANCH 31 32
ATOM     32  N   GLU B   2      25.341   6.186  11.466  1.00 15.61 LIG-0.35  N 
ATOM     33 H    GLU B   2      26.147   6.003  11.227  1.00 15.61 LIG 0.16  HD
ATOM     34  C   MET B   1      24.501   6.928  10.747  1.00 15.57 LIG 0.24  C 
ATOM     35 O    MET B   1      23.335   7.147  11.093  1.00 13.81 LIG-0.27  OA
BRANCH 34 36
ATOM     36  CA  MET B   1      25.066   7.523   9.452  1.00 16.08 LIG 0.18  C 
BRANCH 36 37
ATOM     37  N   MET B   1      24.184   8.535   8.876  1.00 16.60 LIG-0.35  N 
ATOM     38  C   ACE B   0      24.204   8.832   7.584  1.00 26.43 LIG 0.21  C 
ATOM     39 O    ACE B   0      24.942   8.268   6.776  1.00 27.07 LIG-0.27  OA
ATOM     40  CH3 ACE B   0      23.252   9.912   7.139  1.00 28.67 LIG 0.12  C 
ATOM     41 H    MET B   1      23.662   8.913   9.446  1.00 16.60 LIG 0.16  HD
ENDBRANCH 36 37
BRANCH 36 42
ATOM     42  CB  MET B   1      26.434   8.146   9.777  1.00 17.95 LIG 0.04  C 
BRANCH 42 43
ATOM     43  CG  MET B   1      27.608   7.198   9.786  1.00 19.71 LIG 0.08  C 
BRANCH 43 44
ATOM     44 SD   MET B   1      27.745   6.366   8.186  1.00 23.85 LIG-0.17  SA
ATOM     45  CE  MET B   1      27.607   4.662   8.693  1.00 19.76 LIG 0.09  C 
ENDBRANCH 43 44
ENDBRANCH 42 43
ENDBRANCH 36 42
ENDBRANCH 34 36
ENDBRANCH 31 32
BRANCH 31 46
ATOM     46  CB  GLU B   2      24.604   4.122  12.581  1.00 14.50 LIG 0.04  C 
BRANCH 46 47
ATOM     47  CG  GLU B   2      24.813   3.589  11.173  1.00 15.26 LIG 0.12  C 
BRANCH 47 48
ATOM     48  CD  GLU B   2      23.510   3.540  10.404  1.00 15.63 LIG 0.17  C 
ATOM     49 OE1  GLU B   2      22.636   2.723  10.759  1.00 15.54 LIG-0.65  OA
ATOM     50 OE2  GLU B   2      23.346   4.331   9.457  1.00 15.63 LIG-0.65  OA
ENDBRANCH 47 48
ENDBRANCH 46 47
ENDBRANCH 31 46
ENDBRANCH 29 31
ENDBRANCH 1 27
TORSDOF 22
ENDMDL
MODEL 32
USER: ADFR SOLUTION from run 143
USER: SCORE 16.911364 LL:  -2.557 LR: -16.638 RR:   0.000 FEB: -10.075
USER: RMSD 5.972510
USER: SEED 142
USER: STATUS no improvement in best in 4 clusters for 5 generations
USER: GENES 24
USER: genes 0 Translation |==|  0.57000 0.37050 0.41786
USER: genes 1 Rotation |==|  0.09731 0.61853 0.55751 0.76550
USER: genes 2 Torsion [N]-CA--C-[N] |==|  0.39840
USER: genes 3 Torsion [C]-N--CA-[CB] |==|  0.21847
USER: genes 4 Torsion [N]-CA--CB-[CG1] |==|  0.37402
USER: genes 5 Torsion [N]-CA--C-[N] |==|  0.37887
USER: genes 6 Torsion [C]-N--CA-[C] |==|  0.71568
USER: genes 7 Torsion [N]-CA--CB-[CG] |==|  0.12031
USER: genes 8 Torsion [CA]-CB--CG-[OD2] |==|  0.79387
USER: genes 9 Torsion [N]-CA--C-[OXT] |==|  0.77274
USER: genes 10 Torsion [C]-CA--CB-[CG] |==|  0.37643
USER: genes 11 Torsion [CA]-CB--CG-[CD] |==|  0.72224
USER: genes 12 Torsion [CB]-CG--CD-[OE2] |==|  0.62669
USER: genes 13 Torsion [C]-CA--N-[C] |==|  0.84862
USER: genes 14 Torsion [N]-C--CA-[N] |==|  0.13476
USER: genes 15 Torsion [C]-CA--N-[C] |==|  0.15933
USER: genes 16 Torsion [N]-C--CA-[N] |==|  0.05616
USER: genes 17 Torsion [C]-CA--N-[C] |==|  0.51667
USER: genes 18 Torsion [C]-CA--CB-[CG] |==|  0.82059
USER: genes 19 Torsion [CA]-CB--CG-[SD] |==|  0.46772
USER: genes 20 Torsion [CB]-CG--SD-[CE] |==|  0.25433
USER: genes 21 Torsion [C]-CA--CB-[CG] |==|  0.54373
USER: genes 22 Torsion [CA]-CB--CG-[CD] |==|  0.77789
USER: genes 23 Torsion [CB]-CG--CD-[OE1] |==|  0.54600
ROOT
ATOM      1  CA  GLU B   3      24.744   5.499  13.229  1.00 16.51 LIG 0.18  C 
ENDROOT
BRANCH 1 2
ATOM      2  C   GLU B   3      23.735   6.319  14.024  1.00 15.77 LIG 0.24  C 
ATOM      3 O    GLU B   3      23.397   5.955  15.142  1.00 14.97 LIG-0.27  OA
ATOM      4  N   VAL B   4      23.249   7.419  13.451  1.00 15.94 LIG-0.35  N 
ATOM      5 H    VAL B   4      23.494   7.720  12.684  1.00 15.94 LIG 0.16  HD
BRANCH 4 6
ATOM      6  CA  VAL B   4      22.223   8.211  14.131  1.00 14.46 LIG 0.18  C 
BRANCH 6 7
ATOM      7  CB  VAL B   4      22.781   9.126  15.247  1.00 12.41 LIG 0.01  C 
ATOM      8  CG1 VAL B   4      22.161  10.523  15.131  1.00 11.08 LIG 0.01  C 
ATOM      9  CG2 VAL B   4      22.524   8.526  16.615  1.00 12.26 LIG 0.01  C 
ENDBRANCH 6 7
BRANCH 6 10
ATOM     10  C   VAL B   4      21.513   9.062  13.086  1.00 16.25 LIG 0.24  C 
ATOM     11 O    VAL B   4      22.157   9.656  12.211  1.00 16.95 LIG-0.27  OA
ATOM     12  N   ASP B   5      20.188   9.117  13.183  1.00 16.26 LIG-0.34  N 
ATOM     13 H    ASP B   5      19.741   8.724  13.803  1.00 16.26 LIG 0.16  HD
BRANCH 12 14
ATOM     14  CA  ASP B   5      19.365   9.855  12.237  1.00 17.99 LIG 0.20  C 
BRANCH 14 15
ATOM     15  CB  ASP B   5      18.161   8.991  11.861  1.00 19.95 LIG 0.15  C 
BRANCH 15 16
ATOM     16  CG  ASP B   5      17.547   8.304  13.064  1.00 23.79 LIG 0.17  C 
ATOM     17 OD2  ASP B   5      18.143   7.325  13.582  1.00 26.04 LIG-0.65  OA
ATOM     18 OD1  ASP B   5      16.456   8.732  13.483  1.00 23.66 LIG-0.65  OA
ENDBRANCH 15 16
ENDBRANCH 14 15
BRANCH 14 19
ATOM     19  C   ASP B   5      18.883  11.202  12.787  1.00 17.70 LIG 0.20  C 
ATOM     20 OXT  ASP B   5      17.881  11.205  13.532  1.00 18.22 LIG-0.65  OA
ATOM     21 O    ASP B   5      19.520  12.223  12.481  1.00 17.62 LIG-0.65  OA
ENDBRANCH 14 19
ENDBRANCH 12 14
ENDBRANCH 6 10
ENDBRANCH 4 6
ENDBRANCH 1 2
BRANCH 1 22
ATOM     22  CB  GLU B   3      23.969   4.390  12.499  1.00 19.71 LIG 0.04  C 
BRANCH 22 23
ATOM     23  CG  GLU B   3      24.362   4.181  11.046  1.00 25.47 LIG 0.12  C 
BRANCH 23 24
ATOM     24  CD  GLU B   3      23.389   4.848  10.074  1.00 29.25 LIG 0.17  C 
ATOM     25 OE1  GLU B   3      23.017   6.027  10.299  1.00 30.05 LIG-0.65  OA
ATOM     26 OE2  GLU B   3      23.003   4.189   9.081  1.00 32.05 LIG-0.65  OA
ENDBRANCH 23 24
ENDBRANCH 22 23
ENDBRANCH 1 22
BRANCH 1 27
ATOM     27  N   GLU B   3      25.800   4.912  14.059  1.00 15.41 LIG-0.35  N 
ATOM     28 H    GLU B   3      25.883   4.060  13.974  1.00 15.41 LIG 0.16  HD
ATOM     29  C   GLU B   2      26.551   5.651  14.867  1.00 15.20 LIG 0.24  C 
ATOM     30 O    GLU B   2      26.404   6.866  14.982  1.00 15.89 LIG-0.27  OA
BRANCH 29 31
ATOM     31  CA  GLU B   2      27.630   4.928  15.676  1.00 14.92 LIG 0.18  C 
BRANCH 31 32
ATOM     32  N   GLU B   2      28.352   4.080  14.734  1.00 15.61 LIG-0.35  N 
ATOM     33 H    GLU B   2      28.357   3.244  14.937  1.00 15.61 LIG 0.16  HD
ATOM     34  C   MET B   1      28.946   4.590  13.657  1.00 15.57 LIG 0.24  C 
ATOM     35 O    MET B   1      28.894   5.790  13.367  1.00 13.81 LIG-0.27  OA
BRANCH 34 36
ATOM     36  CA  MET B   1      29.727   3.599  12.785  1.00 16.08 LIG 0.18  C 
BRANCH 36 37
ATOM     37  N   MET B   1      29.309   2.217  13.009  1.00 16.60 LIG-0.35  N 
ATOM     38  C   ACE B   0      29.936   1.193  12.444  1.00 26.43 LIG 0.21  C 
ATOM     39 O    ACE B   0      30.919   1.327  11.715  1.00 27.07 LIG-0.27  OA
ATOM     40  CH3 ACE B   0      29.380  -0.174  12.750  1.00 28.67 LIG 0.12  C 
ATOM     41 H    MET B   1      28.632   2.133  13.532  1.00 16.60 LIG 0.16  HD
ENDBRANCH 36 37
BRANCH 36 42
ATOM     42  CB  MET B   1      29.496   3.982  11.314  1.00 17.95 LIG 0.04  C 
BRANCH 42 43
ATOM     43  CG  MET B   1      28.079   3.853  10.810  1.00 19.71 LIG 0.08  C 
BRANCH 43 44
ATOM     44 SD   MET B   1      27.919   4.654   9.197  1.00 23.85 LIG-0.17  SA
ATOM     45  CE  MET B   1      28.263   3.279   8.116  1.00 19.76 LIG 0.09  C 
ENDBRANCH 43 44
ENDBRANCH 42 43
ENDBRANCH 36 42
ENDBRANCH 34 36
ENDBRANCH 31 32
BRANCH 31 46
ATOM     46  CB  GLU B   2      28.584   5.957  16.307  1.00 14.50 LIG 0.04  C 
BRANCH 46 47
ATOM     47  CG  GLU B   2      29.891   5.366  16.810  1.00 15.26 LIG 0.12  C 
BRANCH 47 48
ATOM     48  CD  GLU B   2      29.714   4.704  18.160  1.00 15.63 LIG 0.17  C 
ATOM     49 OE1  GLU B   2      30.728   4.454  18.842  1.00 15.54 LIG-0.65  OA
ATOM     50 OE2  GLU B   2      28.560   4.452  18.554  1.00 15.63 LIG-0.65  OA
ENDBRANCH 47 48
ENDBRANCH 46 47
ENDBRANCH 31 46
ENDBRANCH 29 31
ENDBRANCH 1 27
TORSDOF 22
ENDMDL
MODEL 33
USER: ADFR SOLUTION from run 14
USER: SCORE 18.956247 LL:  -3.277 LR: -16.626 RR:   0.000 FEB: -10.063
USER: RMSD 5.259867
USER: SEED 505052
USER: STATUS no improvement in best in 3 clusters for 5 generations
USER: GENES 24
USER: genes 0 Translation |==|  0.48410 0.54669 0.48005
USER: genes 1 Rotation |==|  0.08516 0.38242 0.57514 0.74173
USER: genes 2 Torsion [N]-CA--C-[N] |==|  0.96416
USER: genes 3 Torsion [C]-N--CA-[CB] |==|  0.46780
USER: genes 4 Torsion [N]-CA--CB-[CG1] |==|  0.77488
USER: genes 5 Torsion [N]-CA--C-[N] |==|  0.43725
USER: genes 6 Torsion [C]-N--CA-[C] |==|  0.19280
USER: genes 7 Torsion [N]-CA--CB-[CG] |==|  0.78149
USER: genes 8 Torsion [CA]-CB--CG-[OD2] |==|  0.57373
USER: genes 9 Torsion [N]-CA--C-[OXT] |==|  0.21500
USER: genes 10 Torsion [C]-CA--CB-[CG] |==|  0.32837
USER: genes 11 Torsion [CA]-CB--CG-[CD] |==|  0.63312
USER: genes 12 Torsion [CB]-CG--CD-[OE2] |==|  0.37948
USER: genes 13 Torsion [C]-CA--N-[C] |==|  0.80706
USER: genes 14 Torsion [N]-C--CA-[N] |==|  0.00577
USER: genes 15 Torsion [C]-CA--N-[C] |==|  0.71406
USER: genes 16 Torsion [N]-C--CA-[N] |==|  0.92703
USER: genes 17 Torsion [C]-CA--N-[C] |==|  0.82468
USER: genes 18 Torsion [C]-CA--CB-[CG] |==|  0.34168
USER: genes 19 Torsion [CA]-CB--CG-[SD] |==|  0.18866
USER: genes 20 Torsion [CB]-CG--SD-[CE] |==|  0.64907
USER: genes 21 Torsion [C]-CA--CB-[CG] |==|  0.45917
USER: genes 22 Torsion [CA]-CB--CG-[CD] |==|  0.80400
USER: genes 23 Torsion [CB]-CG--CD-[OE1] |==|  0.97224
ROOT
ATOM      1  CA  GLU B   3      22.617   8.670  14.348  1.00 16.51 LIG 0.18  C 
ENDROOT
BRANCH 1 2
ATOM      2  C   GLU B   3      21.146   8.330  14.551  1.00 15.77 LIG 0.24  C 
ATOM      3 O    GLU B   3      20.373   8.366  13.603  1.00 14.97 LIG-0.27  OA
ATOM      4  N   VAL B   4      20.755   8.005  15.783  1.00 15.94 LIG-0.35  N 
ATOM      5 H    VAL B   4      21.280   7.934  16.460  1.00 15.94 LIG 0.16  HD
BRANCH 4 6
ATOM      6  CA  VAL B   4      19.343   7.737  16.060  1.00 14.46 LIG 0.18  C 
BRANCH 6 7
ATOM      7  CB  VAL B   4      19.090   7.104  17.449  1.00 12.41 LIG 0.01  C 
ATOM      8  CG1 VAL B   4      19.360   5.597  17.390  1.00 11.08 LIG 0.01  C 
ATOM      9  CG2 VAL B   4      19.943   7.771  18.509  1.00 12.26 LIG 0.01  C 
ENDBRANCH 6 7
BRANCH 6 10
ATOM     10  C   VAL B   4      18.584   9.054  15.958  1.00 16.25 LIG 0.24  C 
ATOM     11 O    VAL B   4      19.172  10.135  16.096  1.00 16.95 LIG-0.27  OA
ATOM     12  N   ASP B   5      17.281   8.957  15.716  1.00 16.26 LIG-0.34  N 
ATOM     13 H    ASP B   5      16.866   8.206  15.642  1.00 16.26 LIG 0.16  HD
BRANCH 12 14
ATOM     14  CA  ASP B   5      16.426  10.123  15.551  1.00 17.99 LIG 0.20  C 
BRANCH 14 15
ATOM     15  CB  ASP B   5      16.624  11.046  16.754  1.00 19.95 LIG 0.15  C 
BRANCH 15 16
ATOM     16  CG  ASP B   5      15.869  10.568  17.977  1.00 23.79 LIG 0.17  C 
ATOM     17 OD2  ASP B   5      15.511  11.406  18.845  1.00 26.04 LIG-0.65  OA
ATOM     18 OD1  ASP B   5      15.646   9.348  18.081  1.00 23.66 LIG-0.65  OA
ENDBRANCH 15 16
ENDBRANCH 14 15
BRANCH 14 19
ATOM     19  C   ASP B   5      16.707  10.893  14.257  1.00 17.70 LIG 0.20  C 
ATOM     20 OXT  ASP B   5      16.261  10.425  13.188  1.00 18.22 LIG-0.65  OA
ATOM     21 O    ASP B   5      17.348  11.954  14.332  1.00 17.62 LIG-0.65  OA
ENDBRANCH 14 19
ENDBRANCH 12 14
ENDBRANCH 6 10
ENDBRANCH 4 6
ENDBRANCH 1 2
BRANCH 1 22
ATOM     22  CB  GLU B   3      23.256   7.518  13.557  1.00 19.71 LIG 0.04  C 
BRANCH 22 23
ATOM     23  CG  GLU B   3      23.823   7.907  12.201  1.00 25.47 LIG 0.12  C 
BRANCH 23 24
ATOM     24  CD  GLU B   3      23.386   6.954  11.088  1.00 29.25 LIG 0.17  C 
ATOM     25 OE1  GLU B   3      23.395   5.717  11.308  1.00 30.05 LIG-0.65  OA
ATOM     26 OE2  GLU B   3      23.027   7.449   9.995  1.00 32.05 LIG-0.65  OA
ENDBRANCH 23 24
ENDBRANCH 22 23
ENDBRANCH 1 22
BRANCH 1 27
ATOM     27  N   GLU B   3      23.344   8.881  15.603  1.00 15.41 LIG-0.35  N 
ATOM     28 H    GLU B   3      23.918   8.268  15.786  1.00 15.41 LIG 0.16  HD
ATOM     29  C   GLU B   2      23.119   9.938  16.377  1.00 15.20 LIG 0.24  C 
ATOM     30 O    GLU B   2      22.283  10.796  16.101  1.00 15.89 LIG-0.27  OA
BRANCH 29 31
ATOM     31  CA  GLU B   2      23.947  10.056  17.658  1.00 14.92 LIG 0.18  C 
BRANCH 31 32
ATOM     32  N   GLU B   2      24.862   8.919  17.664  1.00 15.61 LIG-0.35  N 
ATOM     33 H    GLU B   2      25.538   9.002  17.140  1.00 15.61 LIG 0.16  HD
ATOM     34  C   MET B   1      24.639   7.854  18.432  1.00 15.57 LIG 0.24  C 
ATOM     35 O    MET B   1      23.679   7.775  19.207  1.00 13.81 LIG-0.27  OA
BRANCH 34 36
ATOM     36  CA  MET B   1      25.642   6.703  18.295  1.00 16.08 LIG 0.18  C 
BRANCH 36 37
ATOM     37  N   MET B   1      26.282   6.679  16.982  1.00 16.60 LIG-0.35  N 
ATOM     38  C   ACE B   0      25.591   6.482  15.867  1.00 26.43 LIG 0.21  C 
ATOM     39 O    ACE B   0      24.369   6.330  15.852  1.00 27.07 LIG-0.27  OA
ATOM     40  CH3 ACE B   0      26.389   6.463  14.589  1.00 28.67 LIG 0.12  C 
ATOM     41 H    MET B   1      27.132   6.803  17.002  1.00 16.60 LIG 0.16  HD
ENDBRANCH 36 37
BRANCH 36 42
ATOM     42  CB  MET B   1      26.707   6.872  19.392  1.00 17.95 LIG 0.04  C 
BRANCH 42 43
ATOM     43  CG  MET B   1      26.880   5.704  20.332  1.00 19.71 LIG 0.08  C 
BRANCH 43 44
ATOM     44 SD   MET B   1      27.581   4.293  19.445  1.00 23.85 LIG-0.17  SA
ATOM     45  CE  MET B   1      26.386   3.032  19.844  1.00 19.76 LIG 0.09  C 
ENDBRANCH 43 44
ENDBRANCH 42 43
ENDBRANCH 36 42
ENDBRANCH 34 36
ENDBRANCH 31 32
BRANCH 31 46
ATOM     46  CB  GLU B   2      24.738  11.376  17.646  1.00 14.50 LIG 0.04  C 
BRANCH 46 47
ATOM     47  CG  GLU B   2      25.313  11.769  18.997  1.00 15.26 LIG 0.12  C 
BRANCH 47 48
ATOM     48  CD  GLU B   2      24.224  12.195  19.957  1.00 15.63 LIG 0.17  C 
ATOM     49 OE1  GLU B   2      23.069  12.362  19.515  1.00 15.54 LIG-0.65  OA
ATOM     50 OE2  GLU B   2      24.511  12.343  21.159  1.00 15.63 LIG-0.65  OA
ENDBRANCH 47 48
ENDBRANCH 46 47
ENDBRANCH 31 46
ENDBRANCH 29 31
ENDBRANCH 1 27
TORSDOF 22
ENDMDL
MODEL 34
USER: ADFR SOLUTION from run 129
USER: SCORE 17.207599 LL:  -2.987 LR: -16.621 RR:   0.000 FEB: -10.059
USER: RMSD 4.282003
USER: SEED 128
USER: STATUS no improvement in best in 16 clusters for 5 generations
USER: GENES 24
USER: genes 0 Translation |==|  0.47026 0.44737 0.50158
USER: genes 1 Rotation |==|  0.07538 0.42333 0.60268 0.73082
USER: genes 2 Torsion [N]-CA--C-[N] |==|  0.08846
USER: genes 3 Torsion [C]-N--CA-[CB] |==|  0.29358
USER: genes 4 Torsion [N]-CA--CB-[CG1] |==|  0.80234
USER: genes 5 Torsion [N]-CA--C-[N] |==|  0.39650
USER: genes 6 Torsion [C]-N--CA-[C] |==|  0.72172
USER: genes 7 Torsion [N]-CA--CB-[CG] |==|  0.84107
USER: genes 8 Torsion [CA]-CB--CG-[OD2] |==|  0.26966
USER: genes 9 Torsion [N]-CA--C-[OXT] |==|  0.96065
USER: genes 10 Torsion [C]-CA--CB-[CG] |==|  0.43060
USER: genes 11 Torsion [CA]-CB--CG-[CD] |==|  0.66654
USER: genes 12 Torsion [CB]-CG--CD-[OE2] |==|  0.81955
USER: genes 13 Torsion [C]-CA--N-[C] |==|  0.67611
USER: genes 14 Torsion [N]-C--CA-[N] |==|  0.07689
USER: genes 15 Torsion [C]-CA--N-[C] |==|  0.17145
USER: genes 16 Torsion [N]-C--CA-[N] |==|  0.56226
USER: genes 17 Torsion [C]-CA--N-[C] |==|  0.17778
USER: genes 18 Torsion [C]-CA--CB-[CG] |==|  0.34278
USER: genes 19 Torsion [CA]-CB--CG-[SD] |==|  0.29354
USER: genes 20 Torsion [CB]-CG--SD-[CE] |==|  0.77865
USER: genes 21 Torsion [C]-CA--CB-[CG] |==|  0.42662
USER: genes 22 Torsion [CA]-CB--CG-[CD] |==|  0.00419
USER: genes 23 Torsion [CB]-CG--CD-[OE1] |==|  0.74495
ROOT
ATOM      1  CA  GLU B   3      22.275   6.883  14.735  1.00 16.51 LIG 0.18  C 
ENDROOT
BRANCH 1 2
ATOM      2  C   GLU B   3      20.833   6.702  15.193  1.00 15.77 LIG 0.24  C 
ATOM      3 O    GLU B   3      20.085   5.953  14.578  1.00 14.97 LIG-0.27  OA
ATOM      4  N   VAL B   4      20.437   7.388  16.264  1.00 15.94 LIG-0.35  N 
ATOM      5 H    VAL B   4      20.947   7.892  16.738  1.00 15.94 LIG 0.16  HD
BRANCH 4 6
ATOM      6  CA  VAL B   4      19.045   7.315  16.712  1.00 14.46 LIG 0.18  C 
BRANCH 6 7
ATOM      7  CB  VAL B   4      18.845   6.460  17.986  1.00 12.41 LIG 0.01  C 
ATOM      8  CG1 VAL B   4      19.044   4.978  17.653  1.00 11.08 LIG 0.01  C 
ATOM      9  CG2 VAL B   4      19.786   6.905  19.087  1.00 12.26 LIG 0.01  C 
ENDBRANCH 6 7
BRANCH 6 10
ATOM     10  C   VAL B   4      18.558   8.734  16.972  1.00 16.25 LIG 0.24  C 
ATOM     11 O    VAL B   4      19.313   9.582  17.467  1.00 16.95 LIG-0.27  OA
ATOM     12  N   ASP B   5      17.296   8.986  16.638  1.00 16.26 LIG-0.34  N 
ATOM     13 H    ASP B   5      16.763   8.393  16.315  1.00 16.26 LIG 0.16  HD
BRANCH 12 14
ATOM     14  CA  ASP B   5      16.695  10.303  16.788  1.00 17.99 LIG 0.20  C 
BRANCH 14 15
ATOM     15  CB  ASP B   5      15.852  10.598  15.547  1.00 19.95 LIG 0.15  C 
BRANCH 15 16
ATOM     16  CG  ASP B   5      16.662  10.522  14.269  1.00 23.79 LIG 0.17  C 
ATOM     17 OD2  ASP B   5      16.640   9.463  13.590  1.00 26.04 LIG-0.65  OA
ATOM     18 OD1  ASP B   5      17.338  11.517  13.950  1.00 23.66 LIG-0.65  OA
ENDBRANCH 15 16
ENDBRANCH 14 15
BRANCH 14 19
ATOM     19  C   ASP B   5      15.826  10.425  18.044  1.00 17.70 LIG 0.20  C 
ATOM     20 OXT  ASP B   5      15.501   9.374  18.635  1.00 18.22 LIG-0.65  OA
ATOM     21 O    ASP B   5      15.500  11.561  18.425  1.00 17.62 LIG-0.65  OA
ENDBRANCH 14 19
ENDBRANCH 12 14
ENDBRANCH 6 10
ENDBRANCH 4 6
ENDBRANCH 1 2
BRANCH 1 22
ATOM     22  CB  GLU B   3      22.691   5.604  13.992  1.00 19.71 LIG 0.04  C 
BRANCH 22 23
ATOM     23  CG  GLU B   3      23.810   5.785  12.979  1.00 25.47 LIG 0.12  C 
BRANCH 23 24
ATOM     24  CD  GLU B   3      23.385   5.404  11.561  1.00 29.25 LIG 0.17  C 
ATOM     25 OE1  GLU B   3      23.348   6.295  10.677  1.00 30.05 LIG-0.65  OA
ATOM     26 OE2  GLU B   3      23.093   4.207  11.335  1.00 32.05 LIG-0.65  OA
ENDBRANCH 23 24
ENDBRANCH 22 23
ENDBRANCH 1 22
BRANCH 1 27
ATOM     27  N   GLU B   3      23.205   7.148  15.837  1.00 15.41 LIG-0.35  N 
ATOM     28 H    GLU B   3      23.273   6.505  16.404  1.00 15.41 LIG 0.16  HD
ATOM     29  C   GLU B   2      23.875   8.291  15.931  1.00 15.20 LIG 0.24  C 
ATOM     30 O    GLU B   2      23.752   9.201  15.114  1.00 15.89 LIG-0.27  OA
BRANCH 29 31
ATOM     31  CA  GLU B   2      24.826   8.449  17.120  1.00 14.92 LIG 0.18  C 
BRANCH 31 32
ATOM     32  N   GLU B   2      25.258   7.103  17.483  1.00 15.61 LIG-0.35  N 
ATOM     33 H    GLU B   2      25.039   6.860  18.278  1.00 15.61 LIG 0.16  HD
ATOM     34  C   MET B   1      25.936   6.338  16.630  1.00 15.57 LIG 0.24  C 
ATOM     35 O    MET B   1      26.207   6.695  15.478  1.00 13.81 LIG-0.27  OA
BRANCH 34 36
ATOM     36  CA  MET B   1      26.386   4.972  17.161  1.00 16.08 LIG 0.18  C 
BRANCH 36 37
ATOM     37  N   MET B   1      27.519   4.433  16.412  1.00 16.60 LIG-0.35  N 
ATOM     38  C   ACE B   0      28.703   5.032  16.401  1.00 26.43 LIG 0.21  C 
ATOM     39 O    ACE B   0      28.941   6.062  17.032  1.00 27.07 LIG-0.27  OA
ATOM     40  CH3 ACE B   0      29.770   4.371  15.568  1.00 28.67 LIG 0.12  C 
ATOM     41 H    MET B   1      27.348   3.705  15.988  1.00 16.60 LIG 0.16  HD
ENDBRANCH 36 37
BRANCH 36 42
ATOM     42  CB  MET B   1      26.772   5.144  18.639  1.00 17.95 LIG 0.04  C 
BRANCH 42 43
ATOM     43  CG  MET B   1      26.042   4.260  19.621  1.00 19.71 LIG 0.08  C 
BRANCH 43 44
ATOM     44 SD   MET B   1      27.137   2.943  20.201  1.00 23.85 LIG-0.17  SA
ATOM     45  CE  MET B   1      27.040   1.811  18.827  1.00 19.76 LIG 0.09  C 
ENDBRANCH 43 44
ENDBRANCH 42 43
ENDBRANCH 36 42
ENDBRANCH 34 36
ENDBRANCH 31 32
BRANCH 31 46
ATOM     46  CB  GLU B   2      26.037   9.303  16.707  1.00 14.50 LIG 0.04  C 
BRANCH 46 47
ATOM     47  CG  GLU B   2      26.695  10.047  17.859  1.00 15.26 LIG 0.12  C 
BRANCH 47 48
ATOM     48  CD  GLU B   2      26.014   9.739  19.174  1.00 15.63 LIG 0.17  C 
ATOM     49 OE1  GLU B   2      25.085  10.481  19.556  1.00 15.54 LIG-0.65  OA
ATOM     50 OE2  GLU B   2      26.387   8.744  19.821  1.00 15.63 LIG-0.65  OA
ENDBRANCH 47 48
ENDBRANCH 46 47
ENDBRANCH 31 46
ENDBRANCH 29 31
ENDBRANCH 1 27
TORSDOF 22
ENDMDL
MODEL 35
USER: ADFR SOLUTION from run 124
USER: SCORE 17.042545 LL:  -2.438 LR: -16.623 RR:   0.000 FEB: -10.060
USER: RMSD 11.222633
USER: SEED 123
USER: STATUS no improvement in best in 10 clusters for 5 generations
USER: GENES 24
USER: genes 0 Translation |==|  0.55401 0.50135 0.30494
USER: genes 1 Rotation |==|  0.20253 0.31683 0.14608 0.55195
USER: genes 2 Torsion [N]-CA--C-[N] |==|  0.42235
USER: genes 3 Torsion [C]-N--CA-[CB] |==|  0.33345
USER: genes 4 Torsion [N]-CA--CB-[CG1] |==|  0.27618
USER: genes 5 Torsion [N]-CA--C-[N] |==|  0.95226
USER: genes 6 Torsion [C]-N--CA-[C] |==|  0.19829
USER: genes 7 Torsion [N]-CA--CB-[CG] |==|  0.48140
USER: genes 8 Torsion [CA]-CB--CG-[OD2] |==|  0.66780
USER: genes 9 Torsion [N]-CA--C-[OXT] |==|  0.86788
USER: genes 10 Torsion [C]-CA--CB-[CG] |==|  0.95628
USER: genes 11 Torsion [CA]-CB--CG-[CD] |==|  0.71003
USER: genes 12 Torsion [CB]-CG--CD-[OE2] |==|  0.84985
USER: genes 13 Torsion [C]-CA--N-[C] |==|  0.61218
USER: genes 14 Torsion [N]-C--CA-[N] |==|  0.36384
USER: genes 15 Torsion [C]-CA--N-[C] |==|  0.63893
USER: genes 16 Torsion [N]-C--CA-[N] |==|  0.31956
USER: genes 17 Torsion [C]-CA--N-[C] |==|  0.68140
USER: genes 18 Torsion [C]-CA--CB-[CG] |==|  0.38360
USER: genes 19 Torsion [CA]-CB--CG-[SD] |==|  0.18382
USER: genes 20 Torsion [CB]-CG--SD-[CE] |==|  0.70269
USER: genes 21 Torsion [C]-CA--CB-[CG] |==|  0.67489
USER: genes 22 Torsion [CA]-CB--CG-[CD] |==|  0.71309
USER: genes 23 Torsion [CB]-CG--CD-[OE1] |==|  0.13923
ROOT
ATOM      1  CA  GLU B   3      24.348   7.854  11.196  1.00 16.51 LIG 0.18  C 
ENDROOT
BRANCH 1 2
ATOM      2  C   GLU B   3      24.775   7.948   9.736  1.00 15.77 LIG 0.24  C 
ATOM      3 O    GLU B   3      23.946   7.815   8.846  1.00 14.97 LIG-0.27  OA
ATOM      4  N   VAL B   4      26.065   8.170   9.487  1.00 15.94 LIG-0.35  N 
ATOM      5 H    VAL B   4      26.664   8.305  10.088  1.00 15.94 LIG 0.16  HD
BRANCH 4 6
ATOM      6  CA  VAL B   4      26.553   8.199   8.107  1.00 14.46 LIG 0.18  C 
BRANCH 6 7
ATOM      7  CB  VAL B   4      27.199   9.545   7.703  1.00 12.41 LIG 0.01  C 
ATOM      8  CG1 VAL B   4      28.725   9.435   7.789  1.00 11.08 LIG 0.01  C 
ATOM      9  CG2 VAL B   4      26.759   9.959   6.313  1.00 12.26 LIG 0.01  C 
ENDBRANCH 6 7
BRANCH 6 10
ATOM     10  C   VAL B   4      27.572   7.079   7.943  1.00 16.25 LIG 0.24  C 
ATOM     11 O    VAL B   4      27.899   6.681   6.817  1.00 16.95 LIG-0.27  OA
ATOM     12  N   ASP B   5      28.068   6.574   9.069  1.00 16.26 LIG-0.34  N 
ATOM     13 H    ASP B   5      27.825   6.833   9.853  1.00 16.26 LIG 0.16  HD
BRANCH 12 14
ATOM     14  CA  ASP B   5      29.079   5.527   9.079  1.00 17.99 LIG 0.20  C 
BRANCH 14 15
ATOM     15  CB  ASP B   5      28.612   4.391   8.168  1.00 19.95 LIG 0.15  C 
BRANCH 15 16
ATOM     16  CG  ASP B   5      29.673   3.325   7.987  1.00 23.79 LIG 0.17  C 
ATOM     17 OD2  ASP B   5      30.110   3.083   6.832  1.00 26.04 LIG-0.65  OA
ATOM     18 OD1  ASP B   5      30.061   2.715   9.000  1.00 23.66 LIG-0.65  OA
ENDBRANCH 15 16
ENDBRANCH 14 15
BRANCH 14 19
ATOM     19  C   ASP B   5      30.456   6.021   8.624  1.00 17.70 LIG 0.20  C 
ATOM     20 OXT  ASP B   5      30.518   6.706   7.582  1.00 18.22 LIG-0.65  OA
ATOM     21 O    ASP B   5      31.443   5.733   9.322  1.00 17.62 LIG-0.65  OA
ENDBRANCH 14 19
ENDBRANCH 12 14
ENDBRANCH 6 10
ENDBRANCH 4 6
ENDBRANCH 1 2
BRANCH 1 22
ATOM     22  CB  GLU B   3      24.557   6.401  11.649  1.00 19.71 LIG 0.04  C 
BRANCH 22 23
ATOM     23  CG  GLU B   3      24.744   5.397  10.523  1.00 25.47 LIG 0.12  C 
BRANCH 23 24
ATOM     24  CD  GLU B   3      23.497   4.545  10.285  1.00 29.25 LIG 0.17  C 
ATOM     25 OE1  GLU B   3      23.011   4.489   9.128  1.00 30.05 LIG-0.65  OA
ATOM     26 OE2  GLU B   3      23.011   3.926  11.260  1.00 32.05 LIG-0.65  OA
ENDBRANCH 23 24
ENDBRANCH 22 23
ENDBRANCH 1 22
BRANCH 1 27
ATOM     27  N   GLU B   3      22.956   8.255  11.421  1.00 15.41 LIG-0.35  N 
ATOM     28 H    GLU B   3      22.408   7.982  10.817  1.00 15.41 LIG 0.16  HD
ATOM     29  C   GLU B   2      22.594   8.977  12.475  1.00 15.20 LIG 0.24  C 
ATOM     30 O    GLU B   2      23.398   9.367  13.320  1.00 15.89 LIG-0.27  OA
BRANCH 29 31
ATOM     31  CA  GLU B   2      21.110   9.325  12.610  1.00 14.92 LIG 0.18  C 
BRANCH 31 32
ATOM     32  N   GLU B   2      20.729   8.987  13.977  1.00 15.61 LIG-0.35  N 
ATOM     33 H    GLU B   2      21.251   9.304  14.582  1.00 15.61 LIG 0.16  HD
ATOM     34  C   MET B   1      19.654   8.244  14.234  1.00 15.57 LIG 0.24  C 
ATOM     35 O    MET B   1      18.897   7.831  13.349  1.00 13.81 LIG-0.27  OA
BRANCH 34 36
ATOM     36  CA  MET B   1      19.404   7.908  15.709  1.00 16.08 LIG 0.18  C 
BRANCH 36 37
ATOM     37  N   MET B   1      18.172   8.509  16.212  1.00 16.60 LIG-0.35  N 
ATOM     38  C   ACE B   0      18.179   9.441  17.155  1.00 26.43 LIG 0.21  C 
ATOM     39 O    ACE B   0      19.214   9.884  17.655  1.00 27.07 LIG-0.27  OA
ATOM     40  CH3 ACE B   0      16.829   9.953  17.590  1.00 28.67 LIG 0.12  C 
ATOM     41 H    MET B   1      17.455   8.205  15.846  1.00 16.60 LIG 0.16  HD
ENDBRANCH 36 37
BRANCH 36 42
ATOM     42  CB  MET B   1      19.329   6.377  15.837  1.00 17.95 LIG 0.04  C 
BRANCH 42 43
ATOM     43  CG  MET B   1      20.033   5.777  17.029  1.00 19.71 LIG 0.08  C 
BRANCH 43 44
ATOM     44 SD   MET B   1      19.213   6.292  18.556  1.00 23.85 LIG-0.17  SA
ATOM     45  CE  MET B   1      20.406   7.456  19.189  1.00 19.76 LIG 0.09  C 
ENDBRANCH 43 44
ENDBRANCH 42 43
ENDBRANCH 36 42
ENDBRANCH 34 36
ENDBRANCH 31 32
BRANCH 31 46
ATOM     46  CB  GLU B   2      20.903  10.828  12.356  1.00 14.50 LIG 0.04  C 
BRANCH 46 47
ATOM     47  CG  GLU B   2      20.361  11.593  13.553  1.00 15.26 LIG 0.12  C 
BRANCH 47 48
ATOM     48  CD  GLU B   2      18.887  11.896  13.393  1.00 15.63 LIG 0.17  C 
ATOM     49 OE1  GLU B   2      18.115  10.966  13.084  1.00 15.54 LIG-0.65  OA
ATOM     50 OE2  GLU B   2      18.491  13.058  13.596  1.00 15.63 LIG-0.65  OA
ENDBRANCH 47 48
ENDBRANCH 46 47
ENDBRANCH 31 46
ENDBRANCH 29 31
ENDBRANCH 1 27
TORSDOF 22
ENDMDL
MODEL 36
USER: ADFR SOLUTION from run 167
USER: SCORE 18.116218 LL:  -2.821 LR: -16.604 RR:   0.000 FEB: -10.041
USER: RMSD 5.255888
USER: SEED 166
USER: STATUS searching
USER: GENES 24
USER: genes 0 Translation |==|  0.57314 0.33255 0.36731
USER: genes 1 Rotation |==|  0.09613 0.68780 0.65896 0.66233
USER: genes 2 Torsion [N]-CA--C-[N] |==|  0.35166
USER: genes 3 Torsion [C]-N--CA-[CB] |==|  0.25500
USER: genes 4 Torsion [N]-CA--CB-[CG1] |==|  0.74135
USER: genes 5 Torsion [N]-CA--C-[N] |==|  0.42803
USER: genes 6 Torsion [C]-N--CA-[C] |==|  0.71628
USER: genes 7 Torsion [N]-CA--CB-[CG] |==|  0.64044
USER: genes 8 Torsion [CA]-CB--CG-[OD2] |==|  0.25161
USER: genes 9 Torsion [N]-CA--C-[OXT] |==|  0.00049
USER: genes 10 Torsion [C]-CA--CB-[CG] |==|  0.34918
USER: genes 11 Torsion [CA]-CB--CG-[CD] |==|  0.00789
USER: genes 12 Torsion [CB]-CG--CD-[OE2] |==|  0.21708
USER: genes 13 Torsion [C]-CA--N-[C] |==|  0.69501
USER: genes 14 Torsion [N]-C--CA-[N] |==|  0.95623
USER: genes 15 Torsion [C]-CA--N-[C] |==|  0.76111
USER: genes 16 Torsion [N]-C--CA-[N] |==|  0.33506
USER: genes 17 Torsion [C]-CA--N-[C] |==|  0.76859
USER: genes 18 Torsion [C]-CA--CB-[CG] |==|  0.39088
USER: genes 19 Torsion [CA]-CB--CG-[SD] |==|  0.23202
USER: genes 20 Torsion [CB]-CG--SD-[CE] |==|  0.59056
USER: genes 21 Torsion [C]-CA--CB-[CG] |==|  0.16769
USER: genes 22 Torsion [CA]-CB--CG-[CD] |==|  0.36684
USER: genes 23 Torsion [CB]-CG--CD-[OE1] |==|  0.03217
ROOT
ATOM      1  CA  GLU B   3      24.821   4.816  12.319  1.00 16.51 LIG 0.18  C 
ENDROOT
BRANCH 1 2
ATOM      2  C   GLU B   3      24.309   5.857  13.306  1.00 15.77 LIG 0.24  C 
ATOM      3 O    GLU B   3      24.406   5.658  14.510  1.00 14.97 LIG-0.27  OA
ATOM      4  N   VAL B   4      23.760   6.963  12.804  1.00 15.94 LIG-0.35  N 
ATOM      5 H    VAL B   4      23.711   7.148  11.966  1.00 15.94 LIG 0.16  HD
BRANCH 4 6
ATOM      6  CA  VAL B   4      23.184   7.969  13.698  1.00 14.46 LIG 0.18  C 
BRANCH 6 7
ATOM      7  CB  VAL B   4      24.180   9.077  14.114  1.00 12.41 LIG 0.01  C 
ATOM      8  CG1 VAL B   4      24.855   8.698  15.436  1.00 11.08 LIG 0.01  C 
ATOM      9  CG2 VAL B   4      25.207   9.315  13.024  1.00 12.26 LIG 0.01  C 
ENDBRANCH 6 7
BRANCH 6 10
ATOM     10  C   VAL B   4      21.990   8.600  12.991  1.00 16.25 LIG 0.24  C 
ATOM     11 O    VAL B   4      21.927   8.623  11.755  1.00 16.95 LIG-0.27  OA
ATOM     12  N   ASP B   5      21.050   9.110  13.781  1.00 16.26 LIG-0.34  N 
ATOM     13 H    ASP B   5      21.103   9.115  14.639  1.00 16.26 LIG 0.16  HD
BRANCH 12 14
ATOM     14  CA  ASP B   5      19.832   9.711  13.259  1.00 17.99 LIG 0.20  C 
BRANCH 14 15
ATOM     15  CB  ASP B   5      18.649   9.214  14.090  1.00 19.95 LIG 0.15  C 
BRANCH 15 16
ATOM     16  CG  ASP B   5      17.525   8.676  13.227  1.00 23.79 LIG 0.17  C 
ATOM     17 OD2  ASP B   5      17.512   7.455  12.926  1.00 26.04 LIG-0.65  OA
ATOM     18 OD1  ASP B   5      16.661   9.480  12.833  1.00 23.66 LIG-0.65  OA
ENDBRANCH 15 16
ENDBRANCH 14 15
BRANCH 14 19
ATOM     19  C   ASP B   5      19.867  11.243  13.274  1.00 17.70 LIG 0.20  C 
ATOM     20 OXT  ASP B   5      20.895  11.801  13.711  1.00 18.22 LIG-0.65  OA
ATOM     21 O    ASP B   5      18.881  11.857  12.835  1.00 17.62 LIG-0.65  OA
ENDBRANCH 14 19
ENDBRANCH 12 14
ENDBRANCH 6 10
ENDBRANCH 4 6
ENDBRANCH 1 2
BRANCH 1 22
ATOM     22  CB  GLU B   3      23.912   3.582  12.431  1.00 19.71 LIG 0.04  C 
BRANCH 22 23
ATOM     23  CG  GLU B   3      23.297   3.117  11.121  1.00 25.47 LIG 0.12  C 
BRANCH 23 24
ATOM     24  CD  GLU B   3      23.770   3.943   9.925  1.00 29.25 LIG 0.17  C 
ATOM     25 OE1  GLU B   3      23.011   4.830   9.460  1.00 30.05 LIG-0.65  OA
ATOM     26 OE2  GLU B   3      24.907   3.705   9.456  1.00 32.05 LIG-0.65  OA
ENDBRANCH 23 24
ENDBRANCH 22 23
ENDBRANCH 1 22
BRANCH 1 27
ATOM     27  N   GLU B   3      26.217   4.433  12.549  1.00 15.41 LIG-0.35  N 
ATOM     28 H    GLU B   3      26.343   3.970  13.262  1.00 15.41 LIG 0.16  HD
ATOM     29  C   GLU B   2      27.189   4.782  11.713  1.00 15.20 LIG 0.24  C 
ATOM     30 O    GLU B   2      26.986   5.456  10.705  1.00 15.89 LIG-0.27  OA
BRANCH 29 31
ATOM     31  CA  GLU B   2      28.606   4.315  12.053  1.00 14.92 LIG 0.18  C 
BRANCH 31 32
ATOM     32  N   GLU B   2      28.578   3.897  13.450  1.00 15.61 LIG-0.35  N 
ATOM     33 H    GLU B   2      28.438   3.057  13.569  1.00 15.61 LIG 0.16  HD
ATOM     34  C   MET B   1      28.759   4.770  14.439  1.00 15.57 LIG 0.24  C 
ATOM     35 O    MET B   1      28.996   5.967  14.242  1.00 13.81 LIG-0.27  OA
BRANCH 34 36
ATOM     36  CA  MET B   1      28.641   4.212  15.862  1.00 16.08 LIG 0.18  C 
BRANCH 36 37
ATOM     37  N   MET B   1      29.867   4.398  16.633  1.00 16.60 LIG-0.35  N 
ATOM     38  C   ACE B   0      30.889   3.557  16.544  1.00 26.43 LIG 0.21  C 
ATOM     39 O    ACE B   0      30.891   2.579  15.795  1.00 27.07 LIG-0.27  OA
ATOM     40  CH3 ACE B   0      32.079   3.866  17.415  1.00 28.67 LIG 0.12  C 
ATOM     41 H    MET B   1      29.863   5.092  17.141  1.00 16.60 LIG 0.16  HD
ENDBRANCH 36 37
BRANCH 36 42
ATOM     42  CB  MET B   1      27.473   4.932  16.556  1.00 17.95 LIG 0.04  C 
BRANCH 42 43
ATOM     43  CG  MET B   1      26.601   4.077  17.443  1.00 19.71 LIG 0.08  C 
BRANCH 43 44
ATOM     44 SD   MET B   1      27.349   3.923  19.082  1.00 23.85 LIG-0.17  SA
ATOM     45  CE  MET B   1      26.819   2.281  19.528  1.00 19.76 LIG 0.09  C 
ENDBRANCH 43 44
ENDBRANCH 42 43
ENDBRANCH 36 42
ENDBRANCH 34 36
ENDBRANCH 31 32
BRANCH 31 46
ATOM     46  CB  GLU B   2      28.993   3.130  11.150  1.00 14.50 LIG 0.04  C 
BRANCH 46 47
ATOM     47  CG  GLU B   2      28.985   3.452   9.664  1.00 15.26 LIG 0.12  C 
BRANCH 47 48
ATOM     48  CD  GLU B   2      30.250   2.967   8.989  1.00 15.63 LIG 0.17  C 
ATOM     49 OE1  GLU B   2      31.010   2.205   9.619  1.00 15.54 LIG-0.65  OA
ATOM     50 OE2  GLU B   2      30.478   3.328   7.820  1.00 15.63 LIG-0.65  OA
ENDBRANCH 47 48
ENDBRANCH 46 47
ENDBRANCH 31 46
ENDBRANCH 29 31
ENDBRANCH 1 27
TORSDOF 22
ENDMDL
MODEL 37
USER: ADFR SOLUTION from run 40
USER: SCORE 16.809089 LL:  -2.774 LR: -16.583 RR:   0.000 FEB: -10.021
USER: RMSD 11.135238
USER: SEED 39
USER: STATUS no improvement in best in 15 clusters for 5 generations
USER: GENES 24
USER: genes 0 Translation |==|  0.63006 0.31915 0.38845
USER: genes 1 Rotation |==|  0.58245 0.25298 0.92369 0.55168
USER: genes 2 Torsion [N]-CA--C-[N] |==|  0.42510
USER: genes 3 Torsion [C]-N--CA-[CB] |==|  0.41685
USER: genes 4 Torsion [N]-CA--CB-[CG1] |==|  0.75668
USER: genes 5 Torsion [N]-CA--C-[N] |==|  0.13082
USER: genes 6 Torsion [C]-N--CA-[C] |==|  0.58040
USER: genes 7 Torsion [N]-CA--CB-[CG] |==|  0.57714
USER: genes 8 Torsion [CA]-CB--CG-[OD2] |==|  0.58834
USER: genes 9 Torsion [N]-CA--C-[OXT] |==|  0.80727
USER: genes 10 Torsion [C]-CA--CB-[CG] |==|  0.41374
USER: genes 11 Torsion [CA]-CB--CG-[CD] |==|  0.36745
USER: genes 12 Torsion [CB]-CG--CD-[OE2] |==|  0.31805
USER: genes 13 Torsion [C]-CA--N-[C] |==|  0.56562
USER: genes 14 Torsion [N]-C--CA-[N] |==|  0.48317
USER: genes 15 Torsion [C]-CA--N-[C] |==|  0.72988
USER: genes 16 Torsion [N]-C--CA-[N] |==|  0.03538
USER: genes 17 Torsion [C]-CA--N-[C] |==|  0.61575
USER: genes 18 Torsion [C]-CA--CB-[CG] |==|  0.46512
USER: genes 19 Torsion [CA]-CB--CG-[SD] |==|  0.81587
USER: genes 20 Torsion [CB]-CG--SD-[CE] |==|  0.85639
USER: genes 21 Torsion [C]-CA--CB-[CG] |==|  0.51130
USER: genes 22 Torsion [CA]-CB--CG-[CD] |==|  0.26403
USER: genes 23 Torsion [CB]-CG--CD-[OE1] |==|  0.75724
ROOT
ATOM      1  CA  GLU B   3      26.230   4.575  12.699  1.00 16.51 LIG 0.18  C 
ENDROOT
BRANCH 1 2
ATOM      2  C   GLU B   3      27.747   4.443  12.632  1.00 15.77 LIG 0.24  C 
ATOM      3 O    GLU B   3      28.450   5.444  12.664  1.00 14.97 LIG-0.27  OA
ATOM      4  N   VAL B   4      28.253   3.214  12.532  1.00 15.94 LIG-0.35  N 
ATOM      5 H    VAL B   4      27.788   2.491  12.544  1.00 15.94 LIG 0.16  HD
BRANCH 4 6
ATOM      6  CA  VAL B   4      29.697   3.023  12.390  1.00 14.46 LIG 0.18  C 
BRANCH 6 7
ATOM      7  CB  VAL B   4      30.212   1.696  12.996  1.00 12.41 LIG 0.01  C 
ATOM      8  CG1 VAL B   4      30.540   1.895  14.479  1.00 11.08 LIG 0.01  C 
ATOM      9  CG2 VAL B   4      29.198   0.586  12.804  1.00 12.26 LIG 0.01  C 
ENDBRANCH 6 7
BRANCH 6 10
ATOM     10  C   VAL B   4      30.036   3.067  10.906  1.00 16.25 LIG 0.24  C 
ATOM     11 O    VAL B   4      30.770   2.209  10.399  1.00 16.95 LIG-0.27  OA
ATOM     12  N   ASP B   5      29.499   4.070  10.217  1.00 16.26 LIG-0.34  N 
ATOM     13 H    ASP B   5      29.008   4.680  10.571  1.00 16.26 LIG 0.16  HD
BRANCH 12 14
ATOM     14  CA  ASP B   5      29.696   4.228   8.783  1.00 17.99 LIG 0.20  C 
BRANCH 14 15
ATOM     15  CB  ASP B   5      28.627   3.416   8.052  1.00 19.95 LIG 0.15  C 
BRANCH 15 16
ATOM     16  CG  ASP B   5      29.089   2.954   6.685  1.00 23.79 LIG 0.17  C 
ATOM     17 OD2  ASP B   5      28.246   2.834   5.760  1.00 26.04 LIG-0.65  OA
ATOM     18 OD1  ASP B   5      30.298   2.693   6.539  1.00 23.66 LIG-0.65  OA
ENDBRANCH 15 16
ENDBRANCH 14 15
BRANCH 14 19
ATOM     19  C   ASP B   5      29.636   5.690   8.328  1.00 17.70 LIG 0.20  C 
ATOM     20 OXT  ASP B   5      28.532   6.271   8.372  1.00 18.22 LIG-0.65  OA
ATOM     21 O    ASP B   5      30.689   6.233   7.956  1.00 17.62 LIG-0.65  OA
ENDBRANCH 14 19
ENDBRANCH 12 14
ENDBRANCH 6 10
ENDBRANCH 4 6
ENDBRANCH 1 2
BRANCH 1 22
ATOM     22  CB  GLU B   3      25.700   4.584  11.257  1.00 19.71 LIG 0.04  C 
BRANCH 22 23
ATOM     23  CG  GLU B   3      24.314   3.985  11.078  1.00 25.47 LIG 0.12  C 
BRANCH 23 24
ATOM     24  CD  GLU B   3      23.395   4.875  10.241  1.00 29.25 LIG 0.17  C 
ATOM     25 OE1  GLU B   3      23.062   6.000  10.690  1.00 30.05 LIG-0.65  OA
ATOM     26 OE2  GLU B   3      23.012   4.445   9.128  1.00 32.05 LIG-0.65  OA
ENDBRANCH 23 24
ENDBRANCH 22 23
ENDBRANCH 1 22
BRANCH 1 27
ATOM     27  N   GLU B   3      25.782   5.778  13.407  1.00 15.41 LIG-0.35  N 
ATOM     28 H    GLU B   3      26.360   6.414  13.422  1.00 15.41 LIG 0.16  HD
ATOM     29  C   GLU B   2      24.581   5.856  13.969  1.00 15.20 LIG 0.24  C 
ATOM     30 O    GLU B   2      23.776   4.927  13.946  1.00 15.89 LIG-0.27  OA
BRANCH 29 31
ATOM     31  CA  GLU B   2      24.221   7.167  14.671  1.00 14.92 LIG 0.18  C 
BRANCH 31 32
ATOM     32  N   GLU B   2      22.822   7.052  15.068  1.00 15.61 LIG-0.35  N 
ATOM     33 H    GLU B   2      22.694   6.629  15.806  1.00 15.61 LIG 0.16  HD
ATOM     34  C   MET B   1      21.845   7.570  14.326  1.00 15.57 LIG 0.24  C 
ATOM     35 O    MET B   1      22.057   8.206  13.288  1.00 13.81 LIG-0.27  OA
BRANCH 34 36
ATOM     36  CA  MET B   1      20.416   7.321  14.823  1.00 16.08 LIG 0.18  C 
BRANCH 36 37
ATOM     37  N   MET B   1      20.388   6.806  16.190  1.00 16.60 LIG-0.35  N 
ATOM     38  C   ACE B   0      19.565   5.833  16.558  1.00 26.43 LIG 0.21  C 
ATOM     39 O    ACE B   0      18.789   5.279  15.779  1.00 27.07 LIG-0.27  OA
ATOM     40  CH3 ACE B   0      19.634   5.420  18.006  1.00 28.67 LIG 0.12  C 
ATOM     41 H    MET B   1      20.945   7.188  16.723  1.00 16.60 LIG 0.16  HD
ENDBRANCH 36 37
BRANCH 36 42
ATOM     42  CB  MET B   1      19.653   8.654  14.751  1.00 17.95 LIG 0.04  C 
BRANCH 42 43
ATOM     43  CG  MET B   1      18.155   8.569  14.916  1.00 19.71 LIG 0.08  C 
BRANCH 43 44
ATOM     44 SD   MET B   1      17.428   7.682  13.518  1.00 23.85 LIG-0.17  SA
ATOM     45  CE  MET B   1      18.143   8.580  12.155  1.00 19.76 LIG 0.09  C 
ENDBRANCH 43 44
ENDBRANCH 42 43
ENDBRANCH 36 42
ENDBRANCH 34 36
ENDBRANCH 31 32
BRANCH 31 46
ATOM     46  CB  GLU B   2      25.113   7.356  15.911  1.00 14.50 LIG 0.04  C 
BRANCH 46 47
ATOM     47  CG  GLU B   2      24.773   8.584  16.740  1.00 15.26 LIG 0.12  C 
BRANCH 47 48
ATOM     48  CD  GLU B   2      23.843   8.237  17.883  1.00 15.63 LIG 0.17  C 
ATOM     49 OE1  GLU B   2      22.612   8.248  17.677  1.00 15.54 LIG-0.65  OA
ATOM     50 OE2  GLU B   2      24.337   7.931  18.983  1.00 15.63 LIG-0.65  OA
ENDBRANCH 47 48
ENDBRANCH 46 47
ENDBRANCH 31 46
ENDBRANCH 29 31
ENDBRANCH 1 27
TORSDOF 22
ENDMDL
MODEL 38
USER: ADFR SOLUTION from run 129
USER: SCORE 17.996274 LL:  -2.887 LR: -16.559 RR:   0.000 FEB:  -9.996
USER: RMSD 7.242588
USER: SEED 128
USER: STATUS no improvement in best in 16 clusters for 5 generations
USER: GENES 24
USER: genes 0 Translation |==|  0.44090 0.47660 0.47981
USER: genes 1 Rotation |==|  0.90045 0.65819 0.28175 0.63032
USER: genes 2 Torsion [N]-CA--C-[N] |==|  0.91169
USER: genes 3 Torsion [C]-N--CA-[CB] |==|  0.25822
USER: genes 4 Torsion [N]-CA--CB-[CG1] |==|  0.75658
USER: genes 5 Torsion [N]-CA--C-[N] |==|  0.26140
USER: genes 6 Torsion [C]-N--CA-[C] |==|  0.79440
USER: genes 7 Torsion [N]-CA--CB-[CG] |==|  0.81996
USER: genes 8 Torsion [CA]-CB--CG-[OD2] |==|  0.26631
USER: genes 9 Torsion [N]-CA--C-[OXT] |==|  0.93807
USER: genes 10 Torsion [C]-CA--CB-[CG] |==|  0.41267
USER: genes 11 Torsion [CA]-CB--CG-[CD] |==|  0.90189
USER: genes 12 Torsion [CB]-CG--CD-[OE2] |==|  0.80814
USER: genes 13 Torsion [C]-CA--N-[C] |==|  0.80267
USER: genes 14 Torsion [N]-C--CA-[N] |==|  0.38048
USER: genes 15 Torsion [C]-CA--N-[C] |==|  0.76667
USER: genes 16 Torsion [N]-C--CA-[N] |==|  0.40122
USER: genes 17 Torsion [C]-CA--N-[C] |==|  0.69705
USER: genes 18 Torsion [C]-CA--CB-[CG] |==|  0.91649
USER: genes 19 Torsion [CA]-CB--CG-[SD] |==|  0.51732
USER: genes 20 Torsion [CB]-CG--SD-[CE] |==|  0.43349
USER: genes 21 Torsion [C]-CA--CB-[CG] |==|  0.45270
USER: genes 22 Torsion [CA]-CB--CG-[CD] |==|  0.24452
USER: genes 23 Torsion [CB]-CG--CD-[OE1] |==|  0.80868
ROOT
ATOM      1  CA  GLU B   3      21.548   7.409  14.344  1.00 16.51 LIG 0.18  C 
ENDROOT
BRANCH 1 2
ATOM      2  C   GLU B   3      20.472   7.027  15.352  1.00 15.77 LIG 0.24  C 
ATOM      3 O    GLU B   3      19.969   5.911  15.317  1.00 14.97 LIG-0.27  OA
ATOM      4  N   VAL B   4      20.112   7.947  16.246  1.00 15.94 LIG-0.35  N 
ATOM      5 H    VAL B   4      20.472   8.725  16.319  1.00 15.94 LIG 0.16  HD
BRANCH 4 6
ATOM      6  CA  VAL B   4      19.034   7.669  17.195  1.00 14.46 LIG 0.18  C 
BRANCH 6 7
ATOM      7  CB  VAL B   4      19.525   7.095  18.546  1.00 12.41 LIG 0.01  C 
ATOM      8  CG1 VAL B   4      19.628   5.569  18.454  1.00 11.08 LIG 0.01  C 
ATOM      9  CG2 VAL B   4      20.852   7.710  18.942  1.00 12.26 LIG 0.01  C 
ENDBRANCH 6 7
BRANCH 6 10
ATOM     10  C   VAL B   4      18.276   8.967  17.442  1.00 16.25 LIG 0.24  C 
ATOM     11 O    VAL B   4      18.659   9.769  18.305  1.00 16.95 LIG-0.27  OA
ATOM     12  N   ASP B   5      17.202   9.167  16.685  1.00 16.26 LIG-0.34  N 
ATOM     13 H    ASP B   5      16.920   8.601  16.101  1.00 16.26 LIG 0.16  HD
BRANCH 12 14
ATOM     14  CA  ASP B   5      16.395  10.375  16.773  1.00 17.99 LIG 0.20  C 
BRANCH 14 15
ATOM     15  CB  ASP B   5      15.511  10.463  15.529  1.00 19.95 LIG 0.15  C 
BRANCH 15 16
ATOM     16  CG  ASP B   5      16.319  10.635  14.259  1.00 23.79 LIG 0.17  C 
ATOM     17 OD2  ASP B   5      16.605   9.622  13.570  1.00 26.04 LIG-0.65  OA
ATOM     18 OD1  ASP B   5      16.686  11.786  13.957  1.00 23.66 LIG-0.65  OA
ENDBRANCH 15 16
ENDBRANCH 14 15
BRANCH 14 19
ATOM     19  C   ASP B   5      15.522  10.421  18.031  1.00 17.70 LIG 0.20  C 
ATOM     20 OXT  ASP B   5      15.248   9.340  18.593  1.00 18.22 LIG-0.65  OA
ATOM     21 O    ASP B   5      15.145  11.530  18.444  1.00 17.62 LIG-0.65  OA
ENDBRANCH 14 19
ENDBRANCH 12 14
ENDBRANCH 6 10
ENDBRANCH 4 6
ENDBRANCH 1 2
BRANCH 1 22
ATOM     22  CB  GLU B   3      22.909   7.036  14.952  1.00 19.71 LIG 0.04  C 
BRANCH 22 23
ATOM     23  CG  GLU B   3      23.972   6.627  13.945  1.00 25.47 LIG 0.12  C 
BRANCH 23 24
ATOM     24  CD  GLU B   3      23.391   5.856  12.760  1.00 29.25 LIG 0.17  C 
ATOM     25 OE1  GLU B   3      23.386   6.397  11.626  1.00 30.05 LIG-0.65  OA
ATOM     26 OE2  GLU B   3      22.946   4.704  12.967  1.00 32.05 LIG-0.65  OA
ENDBRANCH 23 24
ENDBRANCH 22 23
ENDBRANCH 1 22
BRANCH 1 27
ATOM     27  N   GLU B   3      21.531   8.830  13.986  1.00 15.41 LIG-0.35  N 
ATOM     28 H    GLU B   3      22.193   9.281  14.299  1.00 15.41 LIG 0.16  HD
ATOM     29  C   GLU B   2      20.565   9.356  13.241  1.00 15.20 LIG 0.24  C 
ATOM     30 O    GLU B   2      19.621   8.694  12.816  1.00 15.89 LIG-0.27  OA
BRANCH 29 31
ATOM     31  CA  GLU B   2      20.660  10.850  12.923  1.00 14.92 LIG 0.18  C 
BRANCH 31 32
ATOM     32  N   GLU B   2      20.316  10.994  11.513  1.00 15.61 LIG-0.35  N 
ATOM     33 H    GLU B   2      19.494  11.199  11.365  1.00 15.61 LIG 0.16  HD
ATOM     34  C   MET B   1      21.225  10.817  10.556  1.00 15.57 LIG 0.24  C 
ATOM     35 O    MET B   1      22.410  10.560  10.795  1.00 13.81 LIG-0.27  OA
BRANCH 34 36
ATOM     36  CA  MET B   1      20.717  10.934   9.114  1.00 16.08 LIG 0.18  C 
BRANCH 36 37
ATOM     37  N   MET B   1      21.704  11.542   8.226  1.00 16.60 LIG-0.35  N 
ATOM     38  C   ACE B   0      21.550  12.764   7.735  1.00 26.43 LIG 0.21  C 
ATOM     39 O    ACE B   0      20.586  13.480   8.006  1.00 27.07 LIG-0.27  OA
ATOM     40  CH3 ACE B   0      22.642  13.251   6.817  1.00 28.67 LIG 0.12  C 
ATOM     41 H    MET B   1      22.382  11.041   8.056  1.00 16.60 LIG 0.16  HD
ENDBRANCH 36 37
BRANCH 36 42
ATOM     42  CB  MET B   1      20.371   9.519   8.619  1.00 17.95 LIG 0.04  C 
BRANCH 42 43
ATOM     43  CG  MET B   1      21.181   8.394   9.215  1.00 19.71 LIG 0.08  C 
BRANCH 43 44
ATOM     44 SD   MET B   1      20.773   6.835   8.394  1.00 23.85 LIG-0.17  SA
ATOM     45  CE  MET B   1      22.261   5.904   8.707  1.00 19.76 LIG 0.09  C 
ENDBRANCH 43 44
ENDBRANCH 42 43
ENDBRANCH 36 42
ENDBRANCH 34 36
ENDBRANCH 31 32
BRANCH 31 46
ATOM     46  CB  GLU B   2      19.665  11.632  13.797  1.00 14.50 LIG 0.04  C 
BRANCH 46 47
ATOM     47  CG  GLU B   2      19.943  13.125  13.874  1.00 15.26 LIG 0.12  C 
BRANCH 47 48
ATOM     48  CD  GLU B   2      19.261  13.871  12.748  1.00 15.63 LIG 0.17  C 
ATOM     49 OE1  GLU B   2      19.673  13.702  11.582  1.00 15.54 LIG-0.65  OA
ATOM     50 OE2  GLU B   2      18.298  14.612  13.019  1.00 15.63 LIG-0.65  OA
ENDBRANCH 47 48
ENDBRANCH 46 47
ENDBRANCH 31 46
ENDBRANCH 29 31
ENDBRANCH 1 27
TORSDOF 22
ENDMDL
MODEL 39
USER: ADFR SOLUTION from run 93
USER: SCORE 18.163647 LL:  -3.080 LR: -16.553 RR:   0.000 FEB:  -9.990
USER: RMSD 4.782877
USER: SEED 92
USER: STATUS no improvement in best in 6 clusters for 5 generations
USER: GENES 24
USER: genes 0 Translation |==|  0.51644 0.54718 0.65773
USER: genes 1 Rotation |==|  0.45886 0.36202 0.53118 0.97780
USER: genes 2 Torsion [N]-CA--C-[N] |==|  0.42615
USER: genes 3 Torsion [C]-N--CA-[CB] |==|  0.25468
USER: genes 4 Torsion [N]-CA--CB-[CG1] |==|  0.70081
USER: genes 5 Torsion [N]-CA--C-[N] |==|  0.44051
USER: genes 6 Torsion [C]-N--CA-[C] |==|  0.77279
USER: genes 7 Torsion [N]-CA--CB-[CG] |==|  0.76410
USER: genes 8 Torsion [CA]-CB--CG-[OD2] |==|  0.36433
USER: genes 9 Torsion [N]-CA--C-[OXT] |==|  0.92583
USER: genes 10 Torsion [C]-CA--CB-[CG] |==|  0.22969
USER: genes 11 Torsion [CA]-CB--CG-[CD] |==|  0.10147
USER: genes 12 Torsion [CB]-CG--CD-[OE2] |==|  0.64915
USER: genes 13 Torsion [C]-CA--N-[C] |==|  0.63867
USER: genes 14 Torsion [N]-C--CA-[N] |==|  0.08745
USER: genes 15 Torsion [C]-CA--N-[C] |==|  0.65781
USER: genes 16 Torsion [N]-C--CA-[N] |==|  0.34426
USER: genes 17 Torsion [C]-CA--N-[C] |==|  0.75267
USER: genes 18 Torsion [C]-CA--CB-[CG] |==|  0.14070
USER: genes 19 Torsion [CA]-CB--CG-[SD] |==|  0.54351
USER: genes 20 Torsion [CB]-CG--SD-[CE] |==|  0.06444
USER: genes 21 Torsion [C]-CA--CB-[CG] |==|  0.23217
USER: genes 22 Torsion [CA]-CB--CG-[CD] |==|  0.29144
USER: genes 23 Torsion [CB]-CG--CD-[OE1] |==|  0.77330
ROOT
ATOM      1  CA  GLU B   3      23.418   8.679  17.546  1.00 16.51 LIG 0.18  C 
ENDROOT
BRANCH 1 2
ATOM      2  C   GLU B   3      22.057   8.102  17.177  1.00 15.77 LIG 0.24  C 
ATOM      3 O    GLU B   3      21.982   7.166  16.392  1.00 14.97 LIG-0.27  OA
ATOM      4  N   VAL B   4      20.982   8.659  17.734  1.00 15.94 LIG-0.35  N 
ATOM      5 H    VAL B   4      21.004   9.291  18.315  1.00 15.94 LIG 0.16  HD
BRANCH 4 6
ATOM      6  CA  VAL B   4      19.642   8.199  17.366  1.00 14.46 LIG 0.18  C 
BRANCH 6 7
ATOM      7  CB  VAL B   4      19.097   7.073  18.277  1.00 12.41 LIG 0.01  C 
ATOM      8  CG1 VAL B   4      19.096   5.744  17.514  1.00 11.08 LIG 0.01  C 
ATOM      9  CG2 VAL B   4      19.910   6.971  19.552  1.00 12.26 LIG 0.01  C 
ENDBRANCH 6 7
BRANCH 6 10
ATOM     10  C   VAL B   4      18.700   9.396  17.422  1.00 16.25 LIG 0.24  C 
ATOM     11 O    VAL B   4      18.988  10.396  18.093  1.00 16.95 LIG-0.27  OA
ATOM     12  N   ASP B   5      17.579   9.286  16.716  1.00 16.26 LIG-0.34  N 
ATOM     13 H    ASP B   5      17.366   8.584  16.268  1.00 16.26 LIG 0.16  HD
BRANCH 12 14
ATOM     14  CA  ASP B   5      16.597  10.358  16.636  1.00 17.99 LIG 0.20  C 
BRANCH 14 15
ATOM     15  CB  ASP B   5      15.785  10.180  15.353  1.00 19.95 LIG 0.15  C 
BRANCH 15 16
ATOM     16  CG  ASP B   5      16.465  10.803  14.151  1.00 23.79 LIG 0.17  C 
ATOM     17 OD2  ASP B   5      16.584  10.130  13.095  1.00 26.04 LIG-0.65  OA
ATOM     18 OD1  ASP B   5      16.899  11.964  14.267  1.00 23.66 LIG-0.65  OA
ENDBRANCH 15 16
ENDBRANCH 14 15
BRANCH 14 19
ATOM     19  C   ASP B   5      15.654  10.397  17.843  1.00 17.70 LIG 0.20  C 
ATOM     20 OXT  ASP B   5      15.445   9.330  18.458  1.00 18.22 LIG-0.65  OA
ATOM     21 O    ASP B   5      15.156  11.488  18.165  1.00 17.62 LIG-0.65  OA
ENDBRANCH 14 19
ENDBRANCH 12 14
ENDBRANCH 6 10
ENDBRANCH 4 6
ENDBRANCH 1 2
BRANCH 1 22
ATOM     22  CB  GLU B   3      23.679   9.880  16.624  1.00 19.71 LIG 0.04  C 
BRANCH 22 23
ATOM     23  CG  GLU B   3      23.036  11.184  17.069  1.00 25.47 LIG 0.12  C 
BRANCH 23 24
ATOM     24  CD  GLU B   3      23.041  11.350  18.589  1.00 29.25 LIG 0.17  C 
ATOM     25 OE1  GLU B   3      24.129  11.253  19.208  1.00 30.05 LIG-0.65  OA
ATOM     26 OE2  GLU B   3      21.951  11.586  19.160  1.00 32.05 LIG-0.65  OA
ENDBRANCH 23 24
ENDBRANCH 22 23
ENDBRANCH 1 22
BRANCH 1 27
ATOM     27  N   GLU B   3      24.512   7.710  17.430  1.00 15.41 LIG-0.35  N 
ATOM     28 H    GLU B   3      24.531   7.288  16.681  1.00 15.41 LIG 0.16  HD
ATOM     29  C   GLU B   2      25.386   7.516  18.411  1.00 15.20 LIG 0.24  C 
ATOM     30 O    GLU B   2      25.329   8.122  19.479  1.00 15.89 LIG-0.27  OA
BRANCH 29 31
ATOM     31  CA  GLU B   2      26.491   6.485  18.170  1.00 14.92 LIG 0.18  C 
BRANCH 31 32
ATOM     32  N   GLU B   2      26.776   6.514  16.739  1.00 15.61 LIG-0.35  N 
ATOM     33 H    GLU B   2      27.002   7.287  16.435  1.00 15.61 LIG 0.16  HD
ATOM     34  C   MET B   1      26.687   5.416  15.992  1.00 15.57 LIG 0.24  C 
ATOM     35 O    MET B   1      26.398   4.309  16.459  1.00 13.81 LIG-0.27  OA
BRANCH 34 36
ATOM     36  CA  MET B   1      26.950   5.598  14.492  1.00 16.08 LIG 0.18  C 
BRANCH 36 37
ATOM     37  N   MET B   1      28.015   4.724  14.007  1.00 16.60 LIG-0.35  N 
ATOM     38  C   ACE B   0      29.289   5.095  14.020  1.00 26.43 LIG 0.21  C 
ATOM     39 O    ACE B   0      29.668   6.181  14.460  1.00 27.07 LIG-0.27  OA
ATOM     40  CH3 ACE B   0      30.274   4.097  13.469  1.00 28.67 LIG 0.12  C 
ATOM     41 H    MET B   1      27.742   3.962  13.717  1.00 16.60 LIG 0.16  HD
ENDBRANCH 36 37
BRANCH 36 42
ATOM     42  CB  MET B   1      25.642   5.291  13.744  1.00 17.95 LIG 0.04  C 
BRANCH 42 43
ATOM     43  CG  MET B   1      24.410   6.005  14.244  1.00 19.71 LIG 0.08  C 
BRANCH 43 44
ATOM     44 SD   MET B   1      22.924   5.210  13.588  1.00 23.85 LIG-0.17  SA
ATOM     45  CE  MET B   1      23.555   3.580  13.238  1.00 19.76 LIG 0.09  C 
ENDBRANCH 43 44
ENDBRANCH 42 43
ENDBRANCH 36 42
ENDBRANCH 34 36
ENDBRANCH 31 32
BRANCH 31 46
ATOM     46  CB  GLU B   2      27.746   6.872  18.971  1.00 14.50 LIG 0.04  C 
BRANCH 46 47
ATOM     47  CG  GLU B   2      27.725   6.413  20.421  1.00 15.26 LIG 0.12  C 
BRANCH 47 48
ATOM     48  CD  GLU B   2      28.635   5.224  20.636  1.00 15.63 LIG 0.17  C 
ATOM     49 OE1  GLU B   2      28.214   4.087  20.343  1.00 15.54 LIG-0.65  OA
ATOM     50 OE2  GLU B   2      29.782   5.422  21.078  1.00 15.63 LIG-0.65  OA
ENDBRANCH 47 48
ENDBRANCH 46 47
ENDBRANCH 31 46
ENDBRANCH 29 31
ENDBRANCH 1 27
TORSDOF 22
ENDMDL
MODEL 40
USER: ADFR SOLUTION from run 76
USER: SCORE 17.614855 LL:  -2.249 LR: -16.486 RR:   0.000 FEB:  -9.923
USER: RMSD 10.673402
USER: SEED 75
USER: STATUS no improvement in best in 9 clusters for 5 generations
USER: GENES 24
USER: genes 0 Translation |==|  0.56791 0.33534 0.40473
USER: genes 1 Rotation |==|  0.64052 0.44389 0.97654 0.50341
USER: genes 2 Torsion [N]-CA--C-[N] |==|  0.44212
USER: genes 3 Torsion [C]-N--CA-[CB] |==|  0.48623
USER: genes 4 Torsion [N]-CA--CB-[CG1] |==|  0.20586
USER: genes 5 Torsion [N]-CA--C-[N] |==|  0.46142
USER: genes 6 Torsion [C]-N--CA-[C] |==|  0.20760
USER: genes 7 Torsion [N]-CA--CB-[CG] |==|  0.68590
USER: genes 8 Torsion [CA]-CB--CG-[OD2] |==|  0.74398
USER: genes 9 Torsion [N]-CA--C-[OXT] |==|  0.34738
USER: genes 10 Torsion [C]-CA--CB-[CG] |==|  0.87087
USER: genes 11 Torsion [CA]-CB--CG-[CD] |==|  0.75222
USER: genes 12 Torsion [CB]-CG--CD-[OE2] |==|  0.17381
USER: genes 13 Torsion [C]-CA--N-[C] |==|  0.69341
USER: genes 14 Torsion [N]-C--CA-[N] |==|  0.43132
USER: genes 15 Torsion [C]-CA--N-[C] |==|  0.62279
USER: genes 16 Torsion [N]-C--CA-[N] |==|  0.86667
USER: genes 17 Torsion [C]-CA--N-[C] |==|  0.78600
USER: genes 18 Torsion [C]-CA--CB-[CG] |==|  0.52232
USER: genes 19 Torsion [CA]-CB--CG-[SD] |==|  0.31429
USER: genes 20 Torsion [CB]-CG--SD-[CE] |==|  0.73503
USER: genes 21 Torsion [C]-CA--CB-[CG] |==|  0.35342
USER: genes 22 Torsion [CA]-CB--CG-[CD] |==|  0.12621
USER: genes 23 Torsion [CB]-CG--CD-[OE1] |==|  0.75473
ROOT
ATOM      1  CA  GLU B   3      24.692   4.866  12.992  1.00 16.51 LIG 0.18  C 
ENDROOT
BRANCH 1 2
ATOM      2  C   GLU B   3      26.113   5.245  12.596  1.00 15.77 LIG 0.24  C 
ATOM      3 O    GLU B   3      26.313   6.239  11.910  1.00 14.97 LIG-0.27  OA
ATOM      4  N   VAL B   4      27.100   4.455  13.017  1.00 15.94 LIG-0.35  N 
ATOM      5 H    VAL B   4      26.996   3.772  13.529  1.00 15.94 LIG 0.16  HD
BRANCH 4 6
ATOM      6  CA  VAL B   4      28.481   4.721  12.611  1.00 14.46 LIG 0.18  C 
BRANCH 6 7
ATOM      7  CB  VAL B   4      29.518   3.789  13.280  1.00 12.41 LIG 0.01  C 
ATOM      8  CG1 VAL B   4      29.442   2.393  12.654  1.00 11.08 LIG 0.01  C 
ATOM      9  CG2 VAL B   4      30.916   4.365  13.163  1.00 12.26 LIG 0.01  C 
ENDBRANCH 6 7
BRANCH 6 10
ATOM     10  C   VAL B   4      28.566   4.570  11.098  1.00 16.25 LIG 0.24  C 
ATOM     11 O    VAL B   4      27.651   4.026  10.465  1.00 16.95 LIG-0.27  OA
ATOM     12  N   ASP B   5      29.665   5.050  10.526  1.00 16.26 LIG-0.34  N 
ATOM     13 H    ASP B   5      30.312   5.407  10.966  1.00 16.26 LIG 0.16  HD
BRANCH 12 14
ATOM     14  CA  ASP B   5      29.877   5.016   9.086  1.00 17.99 LIG 0.20  C 
BRANCH 14 15
ATOM     15  CB  ASP B   5      29.538   3.615   8.576  1.00 19.95 LIG 0.15  C 
BRANCH 15 16
ATOM     16  CG  ASP B   5      30.757   2.879   8.061  1.00 23.79 LIG 0.17  C 
ATOM     17 OD2  ASP B   5      31.051   2.955   6.840  1.00 26.04 LIG-0.65  OA
ATOM     18 OD1  ASP B   5      31.415   2.206   8.876  1.00 23.66 LIG-0.65  OA
ENDBRANCH 15 16
ENDBRANCH 14 15
BRANCH 14 19
ATOM     19  C   ASP B   5      29.042   6.057   8.333  1.00 17.70 LIG 0.20  C 
ATOM     20 OXT  ASP B   5      29.640   6.855   7.582  1.00 18.22 LIG-0.65  OA
ATOM     21 O    ASP B   5      27.810   6.047   8.491  1.00 17.62 LIG-0.65  OA
ENDBRANCH 14 19
ENDBRANCH 12 14
ENDBRANCH 6 10
ENDBRANCH 4 6
ENDBRANCH 1 2
BRANCH 1 22
ATOM     22  CB  GLU B   3      24.234   3.736  12.057  1.00 19.71 LIG 0.04  C 
BRANCH 22 23
ATOM     23  CG  GLU B   3      24.522   3.965  10.583  1.00 25.47 LIG 0.12  C 
BRANCH 23 24
ATOM     24  CD  GLU B   3      23.386   4.701   9.871  1.00 29.25 LIG 0.17  C 
ATOM     25 OE1  GLU B   3      22.771   4.119   8.944  1.00 30.05 LIG-0.65  OA
ATOM     26 OE2  GLU B   3      23.108   5.863  10.250  1.00 32.05 LIG-0.65  OA
ENDBRANCH 23 24
ENDBRANCH 22 23
ENDBRANCH 1 22
BRANCH 1 27
ATOM     27  N   GLU B   3      23.750   5.988  12.922  1.00 15.41 LIG-0.35  N 
ATOM     28 H    GLU B   3      23.576   6.253  12.123  1.00 15.41 LIG 0.16  HD
ATOM     29  C   GLU B   2      23.225   6.533  14.014  1.00 15.20 LIG 0.24  C 
ATOM     30 O    GLU B   2      23.500   6.145  15.147  1.00 15.89 LIG-0.27  OA
BRANCH 29 31
ATOM     31  CA  GLU B   2      22.245   7.691  13.815  1.00 14.92 LIG 0.18  C 
BRANCH 31 32
ATOM     32  N   GLU B   2      21.390   7.715  14.996  1.00 15.61 LIG-0.35  N 
ATOM     33 H    GLU B   2      21.807   7.619  15.742  1.00 15.61 LIG 0.16  HD
ATOM     34  C   MET B   1      20.071   7.874  14.895  1.00 15.57 LIG 0.24  C 
ATOM     35 O    MET B   1      19.498   8.048  13.814  1.00 13.81 LIG-0.27  OA
BRANCH 34 36
ATOM     36  CA  MET B   1      19.282   7.815  16.208  1.00 16.08 LIG 0.18  C 
BRANCH 36 37
ATOM     37  N   MET B   1      19.655   6.664  17.027  1.00 16.60 LIG-0.35  N 
ATOM     38  C   ACE B   0      19.227   5.439  16.753  1.00 26.43 LIG 0.21  C 
ATOM     39 O    ACE B   0      18.511   5.178  15.786  1.00 27.07 LIG-0.27  OA
ATOM     40  CH3 ACE B   0      19.678   4.354  17.698  1.00 28.67 LIG 0.12  C 
ATOM     41 H    MET B   1      20.168   6.854  17.690  1.00 16.60 LIG 0.16  HD
ENDBRANCH 36 37
BRANCH 36 42
ATOM     42  CB  MET B   1      19.556   9.116  16.981  1.00 17.95 LIG 0.04  C 
BRANCH 42 43
ATOM     43  CG  MET B   1      19.019   9.174  18.390  1.00 19.71 LIG 0.08  C 
BRANCH 43 44
ATOM     44 SD   MET B   1      20.386   9.215  19.573  1.00 23.85 LIG-0.17  SA
ATOM     45  CE  MET B   1      20.516   7.483  19.979  1.00 19.76 LIG 0.09  C 
ENDBRANCH 43 44
ENDBRANCH 42 43
ENDBRANCH 36 42
ENDBRANCH 34 36
ENDBRANCH 31 32
BRANCH 31 46
ATOM     46  CB  GLU B   2      23.021   9.014  13.693  1.00 14.50 LIG 0.04  C 
BRANCH 46 47
ATOM     47  CG  GLU B   2      22.673   9.829  12.457  1.00 15.26 LIG 0.12  C 
BRANCH 47 48
ATOM     48  CD  GLU B   2      21.176   9.901  12.249  1.00 15.63 LIG 0.17  C 
ATOM     49 OE1  GLU B   2      20.620   9.004  11.583  1.00 15.54 LIG-0.65  OA
ATOM     50 OE2  GLU B   2      20.546  10.841  12.767  1.00 15.63 LIG-0.65  OA
ENDBRANCH 47 48
ENDBRANCH 46 47
ENDBRANCH 31 46
ENDBRANCH 29 31
ENDBRANCH 1 27
TORSDOF 22
ENDMDL
MODEL 41
USER: ADFR SOLUTION from run 189
USER: SCORE 17.505048 LL:  -2.653 LR: -16.485 RR:   0.000 FEB:  -9.922
USER: RMSD 10.835928
USER: SEED 188
USER: STATUS no improvement in best in 7 clusters for 5 generations
USER: GENES 24
USER: genes 0 Translation |==|  0.56761 0.34400 0.43727
USER: genes 1 Rotation |==|  0.43465 0.58153 0.01398 0.55350
USER: genes 2 Torsion [N]-CA--C-[N] |==|  0.53821
USER: genes 3 Torsion [C]-N--CA-[CB] |==|  0.22429
USER: genes 4 Torsion [N]-CA--CB-[CG1] |==|  0.75107
USER: genes 5 Torsion [N]-CA--C-[N] |==|  0.93691
USER: genes 6 Torsion [C]-N--CA-[C] |==|  0.80882
USER: genes 7 Torsion [N]-CA--CB-[CG] |==|  0.46211
USER: genes 8 Torsion [CA]-CB--CG-[OD2] |==|  0.15568
USER: genes 9 Torsion [N]-CA--C-[OXT] |==|  0.88860
USER: genes 10 Torsion [C]-CA--CB-[CG] |==|  0.82055
USER: genes 11 Torsion [CA]-CB--CG-[CD] |==|  0.74650
USER: genes 12 Torsion [CB]-CG--CD-[OE2] |==|  0.72949
USER: genes 13 Torsion [C]-CA--N-[C] |==|  0.76207
USER: genes 14 Torsion [N]-C--CA-[N] |==|  0.44252
USER: genes 15 Torsion [C]-CA--N-[C] |==|  0.69931
USER: genes 16 Torsion [N]-C--CA-[N] |==|  0.94885
USER: genes 17 Torsion [C]-CA--N-[C] |==|  0.66764
USER: genes 18 Torsion [C]-CA--CB-[CG] |==|  0.98268
USER: genes 19 Torsion [CA]-CB--CG-[SD] |==|  0.33963
USER: genes 20 Torsion [CB]-CG--SD-[CE] |==|  0.74350
USER: genes 21 Torsion [C]-CA--CB-[CG] |==|  0.38319
USER: genes 22 Torsion [CA]-CB--CG-[CD] |==|  0.14647
USER: genes 23 Torsion [CB]-CG--CD-[OE1] |==|  0.79106
ROOT
ATOM      1  CA  GLU B   3      24.684   5.022  13.578  1.00 16.51 LIG 0.18  C 
ENDROOT
BRANCH 1 2
ATOM      2  C   GLU B   3      26.069   5.642  13.723  1.00 15.77 LIG 0.24  C 
ATOM      3 O    GLU B   3      26.184   6.849  13.888  1.00 14.97 LIG-0.27  OA
ATOM      4  N   VAL B   4      27.119   4.824  13.656  1.00 15.94 LIG-0.35  N 
ATOM      5 H    VAL B   4      27.069   3.970  13.577  1.00 15.94 LIG 0.16  HD
BRANCH 4 6
ATOM      6  CA  VAL B   4      28.477   5.365  13.714  1.00 14.46 LIG 0.18  C 
BRANCH 6 7
ATOM      7  CB  VAL B   4      28.961   5.679  15.150  1.00 12.41 LIG 0.01  C 
ATOM      8  CG1 VAL B   4      28.588   7.118  15.520  1.00 11.08 LIG 0.01  C 
ATOM      9  CG2 VAL B   4      28.381   4.691  16.143  1.00 12.26 LIG 0.01  C 
ENDBRANCH 6 7
BRANCH 6 10
ATOM     10  C   VAL B   4      29.417   4.352  13.073  1.00 16.25 LIG 0.24  C 
ATOM     11 O    VAL B   4      30.512   4.706  12.617  1.00 16.95 LIG-0.27  OA
ATOM     12  N   ASP B   5      28.983   3.096  13.041  1.00 16.26 LIG-0.34  N 
ATOM     13 H    ASP B   5      28.213   2.851  13.336  1.00 16.26 LIG 0.16  HD
BRANCH 12 14
ATOM     14  CA  ASP B   5      29.781   2.006  12.497  1.00 17.99 LIG 0.20  C 
BRANCH 14 15
ATOM     15  CB  ASP B   5      29.108   0.682  12.858  1.00 19.95 LIG 0.15  C 
BRANCH 15 16
ATOM     16  CG  ASP B   5      29.669  -0.483  12.069  1.00 23.79 LIG 0.17  C 
ATOM     17 OD2  ASP B   5      30.904  -0.715  12.110  1.00 26.04 LIG-0.65  OA
ATOM     18 OD1  ASP B   5      28.875  -1.160  11.390  1.00 23.66 LIG-0.65  OA
ENDBRANCH 15 16
ENDBRANCH 14 15
BRANCH 14 19
ATOM     19  C   ASP B   5      29.962   2.097  10.979  1.00 17.70 LIG 0.20  C 
ATOM     20 OXT  ASP B   5      28.981   2.454  10.293  1.00 18.22 LIG-0.65  OA
ATOM     21 O    ASP B   5      31.078   1.830  10.503  1.00 17.62 LIG-0.65  OA
ENDBRANCH 14 19
ENDBRANCH 12 14
ENDBRANCH 6 10
ENDBRANCH 4 6
ENDBRANCH 1 2
BRANCH 1 22
ATOM     22  CB  GLU B   3      24.741   4.026  12.409  1.00 19.71 LIG 0.04  C 
BRANCH 22 23
ATOM     23  CG  GLU B   3      25.011   4.646  11.049  1.00 25.47 LIG 0.12  C 
BRANCH 23 24
ATOM     24  CD  GLU B   3      23.726   5.017  10.308  1.00 29.25 LIG 0.17  C 
ATOM     25 OE1  GLU B   3      23.164   6.108  10.573  1.00 30.05 LIG-0.65  OA
ATOM     26 OE2  GLU B   3      23.285   4.212   9.454  1.00 32.05 LIG-0.65  OA
ENDBRANCH 23 24
ENDBRANCH 22 23
ENDBRANCH 1 22
BRANCH 1 27
ATOM     27  N   GLU B   3      23.626   6.010  13.345  1.00 15.41 LIG-0.35  N 
ATOM     28 H    GLU B   3      23.441   6.139  12.515  1.00 15.41 LIG 0.16  HD
ATOM     29  C   GLU B   2      23.019   6.639  14.345  1.00 15.20 LIG 0.24  C 
ATOM     30 O    GLU B   2      23.311   6.446  15.523  1.00 15.89 LIG-0.27  OA
BRANCH 29 31
ATOM     31  CA  GLU B   2      21.922   7.640  13.978  1.00 14.92 LIG 0.18  C 
BRANCH 31 32
ATOM     32  N   GLU B   2      21.099   7.805  15.172  1.00 15.61 LIG-0.35  N 
ATOM     33 H    GLU B   2      21.476   8.246  15.807  1.00 15.61 LIG 0.16  HD
ATOM     34  C   MET B   1      19.868   7.303  15.240  1.00 15.57 LIG 0.24  C 
ATOM     35 O    MET B   1      19.334   6.706  14.299  1.00 13.81 LIG-0.27  OA
BRANCH 34 36
ATOM     36  CA  MET B   1      19.137   7.491  16.575  1.00 16.08 LIG 0.18  C 
BRANCH 36 37
ATOM     37  N   MET B   1      20.052   7.805  17.668  1.00 16.60 LIG-0.35  N 
ATOM     38  C   ACE B   0      20.163   7.027  18.737  1.00 26.43 LIG 0.21  C 
ATOM     39 O    ACE B   0      19.528   5.981  18.876  1.00 27.07 LIG-0.27  OA
ATOM     40  CH3 ACE B   0      21.134   7.488  19.794  1.00 28.67 LIG 0.12  C 
ATOM     41 H    MET B   1      20.504   8.528  17.555  1.00 16.60 LIG 0.16  HD
ENDBRANCH 36 37
BRANCH 36 42
ATOM     42  CB  MET B   1      18.123   8.634  16.399  1.00 17.95 LIG 0.04  C 
BRANCH 42 43
ATOM     43  CG  MET B   1      18.178   9.372  15.083  1.00 19.71 LIG 0.08  C 
BRANCH 43 44
ATOM     44 SD   MET B   1      16.573   9.283  14.255  1.00 23.85 LIG-0.17  SA
ATOM     45  CE  MET B   1      16.808   7.831  13.247  1.00 19.76 LIG 0.09  C 
ENDBRANCH 43 44
ENDBRANCH 42 43
ENDBRANCH 36 42
ENDBRANCH 34 36
ENDBRANCH 31 32
BRANCH 31 46
ATOM     46  CB  GLU B   2      22.556   8.984  13.578  1.00 14.50 LIG 0.04  C 
BRANCH 46 47
ATOM     47  CG  GLU B   2      21.914   9.639  12.366  1.00 15.26 LIG 0.12  C 
BRANCH 47 48
ATOM     48  CD  GLU B   2      20.416   9.764  12.536  1.00 15.63 LIG 0.17  C 
ATOM     49 OE1  GLU B   2      19.712   8.741  12.409  1.00 15.54 LIG-0.65  OA
ATOM     50 OE2  GLU B   2      19.938  10.878  12.819  1.00 15.63 LIG-0.65  OA
ENDBRANCH 47 48
ENDBRANCH 46 47
ENDBRANCH 31 46
ENDBRANCH 29 31
ENDBRANCH 1 27
TORSDOF 22
ENDMDL
MODEL 42
USER: ADFR SOLUTION from run 71
USER: SCORE 18.279798 LL:  -3.024 LR: -16.474 RR:   0.000 FEB:  -9.911
USER: RMSD 10.592550
USER: SEED 70
USER: STATUS no improvement in best in 3 clusters for 5 generations
USER: GENES 24
USER: genes 0 Translation |==|  0.55572 0.34062 0.43111
USER: genes 1 Rotation |==|  0.70298 0.47005 0.95560 0.51836
USER: genes 2 Torsion [N]-CA--C-[N] |==|  0.45822
USER: genes 3 Torsion [C]-N--CA-[CB] |==|  0.47222
USER: genes 4 Torsion [N]-CA--CB-[CG1] |==|  0.28213
USER: genes 5 Torsion [N]-CA--C-[N] |==|  0.46473
USER: genes 6 Torsion [C]-N--CA-[C] |==|  0.66531
USER: genes 7 Torsion [N]-CA--CB-[CG] |==|  0.11466
USER: genes 8 Torsion [CA]-CB--CG-[OD2] |==|  0.26132
USER: genes 9 Torsion [N]-CA--C-[OXT] |==|  0.42028
USER: genes 10 Torsion [C]-CA--CB-[CG] |==|  0.94050
USER: genes 11 Torsion [CA]-CB--CG-[CD] |==|  0.78377
USER: genes 12 Torsion [CB]-CG--CD-[OE2] |==|  0.07436
USER: genes 13 Torsion [C]-CA--N-[C] |==|  0.69411
USER: genes 14 Torsion [N]-C--CA-[N] |==|  0.96353
USER: genes 15 Torsion [C]-CA--N-[C] |==|  0.78669
USER: genes 16 Torsion [N]-C--CA-[N] |==|  0.33954
USER: genes 17 Torsion [C]-CA--N-[C] |==|  0.66668
USER: genes 18 Torsion [C]-CA--CB-[CG] |==|  0.49042
USER: genes 19 Torsion [CA]-CB--CG-[SD] |==|  0.76539
USER: genes 20 Torsion [CB]-CG--SD-[CE] |==|  0.23072
USER: genes 21 Torsion [C]-CA--CB-[CG] |==|  0.54206
USER: genes 22 Torsion [CA]-CB--CG-[CD] |==|  0.25176
USER: genes 23 Torsion [CB]-CG--CD-[OE1] |==|  0.72822
ROOT
ATOM      1  CA  GLU B   3      24.390   4.961  13.467  1.00 16.51 LIG 0.18  C 
ENDROOT
BRANCH 1 2
ATOM      2  C   GLU B   3      25.649   5.276  12.669  1.00 15.77 LIG 0.24  C 
ATOM      3 O    GLU B   3      25.680   6.254  11.934  1.00 14.97 LIG-0.27  OA
ATOM      4  N   VAL B   4      26.686   4.449  12.804  1.00 15.94 LIG-0.35  N 
ATOM      5 H    VAL B   4      26.708   3.777  13.339  1.00 15.94 LIG 0.16  HD
BRANCH 4 6
ATOM      6  CA  VAL B   4      27.899   4.654  12.011  1.00 14.46 LIG 0.18  C 
BRANCH 6 7
ATOM      7  CB  VAL B   4      29.089   3.771  12.454  1.00 12.41 LIG 0.01  C 
ATOM      8  CG1 VAL B   4      29.237   2.582  11.499  1.00 11.08 LIG 0.01  C 
ATOM      9  CG2 VAL B   4      30.368   4.582  12.519  1.00 12.26 LIG 0.01  C 
ENDBRANCH 6 7
BRANCH 6 10
ATOM     10  C   VAL B   4      27.565   4.361  10.554  1.00 16.25 LIG 0.24  C 
ATOM     11 O    VAL B   4      26.506   3.796  10.249  1.00 16.95 LIG-0.27  OA
ATOM     12  N   ASP B   5      28.472   4.746   9.661  1.00 16.26 LIG-0.34  N 
ATOM     13 H    ASP B   5      29.218   5.117   9.873  1.00 16.26 LIG 0.16  HD
BRANCH 12 14
ATOM     14  CA  ASP B   5      28.282   4.572   8.229  1.00 17.99 LIG 0.20  C 
BRANCH 14 15
ATOM     15  CB  ASP B   5      28.261   5.951   7.569  1.00 19.95 LIG 0.15  C 
BRANCH 15 16
ATOM     16  CG  ASP B   5      29.309   6.882   8.146  1.00 23.79 LIG 0.17  C 
ATOM     17 OD2  ASP B   5      30.430   6.969   7.582  1.00 26.04 LIG-0.65  OA
ATOM     18 OD1  ASP B   5      29.018   7.515   9.177  1.00 23.66 LIG-0.65  OA
ENDBRANCH 15 16
ENDBRANCH 14 15
BRANCH 14 19
ATOM     19  C   ASP B   5      29.369   3.707   7.582  1.00 17.70 LIG 0.20  C 
ATOM     20 OXT  ASP B   5      29.065   3.050   6.564  1.00 18.22 LIG-0.65  OA
ATOM     21 O    ASP B   5      30.503   3.713   8.087  1.00 17.62 LIG-0.65  OA
ENDBRANCH 14 19
ENDBRANCH 12 14
ENDBRANCH 6 10
ENDBRANCH 4 6
ENDBRANCH 1 2
BRANCH 1 22
ATOM     22  CB  GLU B   3      23.716   3.746  12.811  1.00 19.71 LIG 0.04  C 
BRANCH 22 23
ATOM     23  CG  GLU B   3      24.102   3.502  11.362  1.00 25.47 LIG 0.12  C 
BRANCH 23 24
ATOM     24  CD  GLU B   3      23.386   4.448  10.397  1.00 29.25 LIG 0.17  C 
ATOM     25 OE1  GLU B   3      23.185   4.073   9.215  1.00 30.05 LIG-0.65  OA
ATOM     26 OE2  GLU B   3      23.019   5.565  10.830  1.00 32.05 LIG-0.65  OA
ENDBRANCH 23 24
ENDBRANCH 22 23
ENDBRANCH 1 22
BRANCH 1 27
ATOM     27  N   GLU B   3      23.448   6.083  13.534  1.00 15.41 LIG-0.35  N 
ATOM     28 H    GLU B   3      23.061   6.263  12.788  1.00 15.41 LIG 0.16  HD
ATOM     29  C   GLU B   2      23.228   6.749  14.661  1.00 15.20 LIG 0.24  C 
ATOM     30 O    GLU B   2      23.805   6.481  15.713  1.00 15.89 LIG-0.27  OA
BRANCH 29 31
ATOM     31  CA  GLU B   2      22.215   7.894  14.611  1.00 14.92 LIG 0.18  C 
BRANCH 31 32
ATOM     32  N   GLU B   2      21.964   8.161  13.199  1.00 15.61 LIG-0.35  N 
ATOM     33 H    GLU B   2      21.218   7.852  12.903  1.00 15.61 LIG 0.16  HD
ATOM     34  C   MET B   1      22.840   8.833  12.454  1.00 15.57 LIG 0.24  C 
ATOM     35 O    MET B   1      23.889   9.301  12.910  1.00 13.81 LIG-0.27  OA
BRANCH 34 36
ATOM     36  CA  MET B   1      22.484   8.987  10.970  1.00 16.08 LIG 0.18  C 
BRANCH 36 37
ATOM     37  N   MET B   1      22.416  10.387  10.560  1.00 16.60 LIG-0.35  N 
ATOM     38  C   ACE B   0      21.307  10.923  10.068  1.00 26.43 LIG 0.21  C 
ATOM     39 O    ACE B   0      20.255  10.294   9.944  1.00 27.07 LIG-0.27  OA
ATOM     40  CH3 ACE B   0      21.393  12.374   9.669  1.00 28.67 LIG 0.12  C 
ATOM     41 H    MET B   1      23.151  10.822  10.666  1.00 16.60 LIG 0.16  HD
ENDBRANCH 36 37
BRANCH 36 42
ATOM     42  CB  MET B   1      23.559   8.254  10.149  1.00 17.95 LIG 0.04  C 
BRANCH 42 43
ATOM     43  CG  MET B   1      23.343   8.221   8.656  1.00 19.71 LIG 0.08  C 
BRANCH 43 44
ATOM     44 SD   MET B   1      22.250   6.849   8.218  1.00 23.85 LIG-0.17  SA
ATOM     45  CE  MET B   1      20.658   7.592   8.521  1.00 19.76 LIG 0.09  C 
ENDBRANCH 43 44
ENDBRANCH 42 43
ENDBRANCH 36 42
ENDBRANCH 34 36
ENDBRANCH 31 32
BRANCH 31 46
ATOM     46  CB  GLU B   2      20.913   7.468  15.311  1.00 14.50 LIG 0.04  C 
BRANCH 46 47
ATOM     47  CG  GLU B   2      19.723   8.367  15.014  1.00 15.26 LIG 0.12  C 
BRANCH 47 48
ATOM     48  CD  GLU B   2      18.951   7.878  13.808  1.00 15.63 LIG 0.17  C 
ATOM     49 OE1  GLU B   2      19.172   8.409  12.701  1.00 15.54 LIG-0.65  OA
ATOM     50 OE2  GLU B   2      18.137   6.948  13.957  1.00 15.63 LIG-0.65  OA
ENDBRANCH 47 48
ENDBRANCH 46 47
ENDBRANCH 31 46
ENDBRANCH 29 31
ENDBRANCH 1 27
TORSDOF 22
ENDMDL
MODEL 43
USER: ADFR SOLUTION from run 11
USER: SCORE 17.656635 LL:  -3.478 LR: -16.428 RR:   0.000 FEB:  -9.865
USER: RMSD 11.120011
USER: SEED 101768
USER: STATUS searching
USER: GENES 24
USER: genes 0 Translation |==|  0.70502 0.34236 0.50043
USER: genes 1 Rotation |==|  0.64378 0.84364 0.81325 0.61449
USER: genes 2 Torsion [N]-CA--C-[N] |==|  0.95159
USER: genes 3 Torsion [C]-N--CA-[CB] |==|  0.31979
USER: genes 4 Torsion [N]-CA--CB-[CG1] |==|  0.79424
USER: genes 5 Torsion [N]-CA--C-[N] |==|  0.11383
USER: genes 6 Torsion [C]-N--CA-[C] |==|  0.50924
USER: genes 7 Torsion [N]-CA--CB-[CG] |==|  0.58419
USER: genes 8 Torsion [CA]-CB--CG-[OD2] |==|  0.59116
USER: genes 9 Torsion [N]-CA--C-[OXT] |==|  0.93384
USER: genes 10 Torsion [C]-CA--CB-[CG] |==|  0.23246
USER: genes 11 Torsion [CA]-CB--CG-[CD] |==|  0.61563
USER: genes 12 Torsion [CB]-CG--CD-[OE2] |==|  0.76863
USER: genes 13 Torsion [C]-CA--N-[C] |==|  0.76934
USER: genes 14 Torsion [N]-C--CA-[N] |==|  0.50556
USER: genes 15 Torsion [C]-CA--N-[C] |==|  0.62062
USER: genes 16 Torsion [N]-C--CA-[N] |==|  0.48114
USER: genes 17 Torsion [C]-CA--N-[C] |==|  0.61873
USER: genes 18 Torsion [C]-CA--CB-[CG] |==|  0.30971
USER: genes 19 Torsion [CA]-CB--CG-[SD] |==|  0.19704
USER: genes 20 Torsion [CB]-CG--SD-[CE] |==|  0.67746
USER: genes 21 Torsion [C]-CA--CB-[CG] |==|  0.61708
USER: genes 22 Torsion [CA]-CB--CG-[CD] |==|  0.77430
USER: genes 23 Torsion [CB]-CG--CD-[OE1] |==|  0.85087
ROOT
ATOM      1  CA  GLU B   3      28.085   4.992  14.715  1.00 16.51 LIG 0.18  C 
ENDROOT
BRANCH 1 2
ATOM      2  C   GLU B   3      29.324   4.256  14.220  1.00 15.77 LIG 0.24  C 
ATOM      3 O    GLU B   3      30.428   4.552  14.656  1.00 14.97 LIG-0.27  OA
ATOM      4  N   VAL B   4      29.147   3.301  13.306  1.00 15.94 LIG-0.35  N 
ATOM      5 H    VAL B   4      28.383   3.045  13.008  1.00 15.94 LIG 0.16  HD
BRANCH 4 6
ATOM      6  CA  VAL B   4      30.301   2.606  12.736  1.00 14.46 LIG 0.18  C 
BRANCH 6 7
ATOM      7  CB  VAL B   4      30.355   1.099  13.084  1.00 12.41 LIG 0.01  C 
ATOM      8  CG1 VAL B   4      30.775   0.919  14.547  1.00 11.08 LIG 0.01  C 
ATOM      9  CG2 VAL B   4      29.020   0.435  12.813  1.00 12.26 LIG 0.01  C 
ENDBRANCH 6 7
BRANCH 6 10
ATOM     10  C   VAL B   4      30.255   2.775  11.223  1.00 16.25 LIG 0.24  C 
ATOM     11 O    VAL B   4      30.533   1.830  10.472  1.00 16.95 LIG-0.27  OA
ATOM     12  N   ASP B   5      29.904   3.979  10.783  1.00 16.26 LIG-0.34  N 
ATOM     13 H    ASP B   5      29.733   4.643  11.302  1.00 16.26 LIG 0.16  HD
BRANCH 12 14
ATOM     14  CA  ASP B   5      29.775   4.288   9.366  1.00 17.99 LIG 0.20  C 
BRANCH 14 15
ATOM     15  CB  ASP B   5      28.686   3.395   8.770  1.00 19.95 LIG 0.15  C 
BRANCH 15 16
ATOM     16  CG  ASP B   5      28.939   3.076   7.311  1.00 23.79 LIG 0.17  C 
ATOM     17 OD2  ASP B   5      27.959   2.927   6.536  1.00 26.04 LIG-0.65  OA
ATOM     18 OD1  ASP B   5      30.121   2.955   6.939  1.00 23.66 LIG-0.65  OA
ENDBRANCH 15 16
ENDBRANCH 14 15
BRANCH 14 19
ATOM     19  C   ASP B   5      29.440   5.759   9.102  1.00 17.70 LIG 0.20  C 
ATOM     20 OXT  ASP B   5      28.880   6.404  10.013  1.00 18.22 LIG-0.65  OA
ATOM     21 O    ASP B   5      29.756   6.246   8.004  1.00 17.62 LIG-0.65  OA
ENDBRANCH 14 19
ENDBRANCH 12 14
ENDBRANCH 6 10
ENDBRANCH 4 6
ENDBRANCH 1 2
BRANCH 1 22
ATOM     22  CB  GLU B   3      27.759   4.462  16.119  1.00 19.71 LIG 0.04  C 
BRANCH 22 23
ATOM     23  CG  GLU B   3      28.538   5.115  17.250  1.00 25.47 LIG 0.12  C 
BRANCH 23 24
ATOM     24  CD  GLU B   3      29.011   4.104  18.295  1.00 29.25 LIG 0.17  C 
ATOM     25 OE1  GLU B   3      30.184   3.660  18.225  1.00 30.05 LIG-0.65  OA
ATOM     26 OE2  GLU B   3      28.205   3.762  19.192  1.00 32.05 LIG-0.65  OA
ENDBRANCH 23 24
ENDBRANCH 22 23
ENDBRANCH 1 22
BRANCH 1 27
ATOM     27  N   GLU B   3      26.923   4.833  13.835  1.00 15.41 LIG-0.35  N 
ATOM     28 H    GLU B   3      26.376   4.217  14.082  1.00 15.41 LIG 0.16  HD
ATOM     29  C   GLU B   2      26.751   5.586  12.755  1.00 15.20 LIG 0.24  C 
ATOM     30 O    GLU B   2      27.554   6.452  12.415  1.00 15.89 LIG-0.27  OA
BRANCH 29 31
ATOM     31  CA  GLU B   2      25.493   5.335  11.920  1.00 14.92 LIG 0.18  C 
BRANCH 31 32
ATOM     32  N   GLU B   2      25.566   6.244  10.782  1.00 15.61 LIG-0.35  N 
ATOM     33 H    GLU B   2      26.341   6.294  10.413  1.00 15.61 LIG 0.16  HD
ATOM     34  C   MET B   1      24.499   6.928  10.371  1.00 15.57 LIG 0.24  C 
ATOM     35 O    MET B   1      23.386   6.812  10.894  1.00 13.81 LIG-0.27  OA
BRANCH 34 36
ATOM     36  CA  MET B   1      24.728   7.897   9.205  1.00 16.08 LIG 0.18  C 
BRANCH 36 37
ATOM     37  N   MET B   1      23.481   8.483   8.720  1.00 16.60 LIG-0.35  N 
ATOM     38  C   ACE B   0      23.225   8.617   7.425  1.00 26.43 LIG 0.21  C 
ATOM     39 O    ACE B   0      23.999   8.241   6.545  1.00 27.07 LIG-0.27  OA
ATOM     40  CH3 ACE B   0      21.906   9.258   7.075  1.00 28.67 LIG 0.12  C 
ATOM     41 H    MET B   1      22.940   8.728   9.342  1.00 16.60 LIG 0.16  HD
ENDBRANCH 36 37
BRANCH 36 42
ATOM     42  CB  MET B   1      25.671   9.009   9.695  1.00 17.95 LIG 0.04  C 
BRANCH 42 43
ATOM     43  CG  MET B   1      27.052   9.021   9.087  1.00 19.71 LIG 0.08  C 
BRANCH 43 44
ATOM     44 SD   MET B   1      26.963   9.544   7.358  1.00 23.85 LIG-0.17  SA
ATOM     45  CE  MET B   1      27.530   8.063   6.541  1.00 19.76 LIG 0.09  C 
ENDBRANCH 43 44
ENDBRANCH 42 43
ENDBRANCH 36 42
ENDBRANCH 34 36
ENDBRANCH 31 32
BRANCH 31 46
ATOM     46  CB  GLU B   2      25.474   3.875  11.435  1.00 14.50 LIG 0.04  C 
BRANCH 46 47
ATOM     47  CG  GLU B   2      25.034   3.705   9.990  1.00 15.26 LIG 0.12  C 
BRANCH 47 48
ATOM     48  CD  GLU B   2      23.526   3.734   9.866  1.00 15.63 LIG 0.17  C 
ATOM     49 OE1  GLU B   2      22.852   2.954  10.569  1.00 15.54 LIG-0.65  OA
ATOM     50 OE2  GLU B   2      23.007   4.552   9.083  1.00 15.63 LIG-0.65  OA
ENDBRANCH 47 48
ENDBRANCH 46 47
ENDBRANCH 31 46
ENDBRANCH 29 31
ENDBRANCH 1 27
TORSDOF 22
ENDMDL
MODEL 44
USER: ADFR SOLUTION from run 177
USER: SCORE 17.103558 LL:  -2.495 LR: -16.426 RR:   0.000 FEB:  -9.864
USER: RMSD 5.788505
USER: SEED 176
USER: STATUS no improvement in best in 11 clusters for 5 generations
USER: GENES 24
USER: genes 0 Translation |==|  0.57196 0.31371 0.36827
USER: genes 1 Rotation |==|  0.15574 0.68923 0.73659 0.69925
USER: genes 2 Torsion [N]-CA--C-[N] |==|  0.42096
USER: genes 3 Torsion [C]-N--CA-[CB] |==|  0.18959
USER: genes 4 Torsion [N]-CA--CB-[CG1] |==|  0.22111
USER: genes 5 Torsion [N]-CA--C-[N] |==|  0.40179
USER: genes 6 Torsion [C]-N--CA-[C] |==|  0.58148
USER: genes 7 Torsion [N]-CA--CB-[CG] |==|  0.72629
USER: genes 8 Torsion [CA]-CB--CG-[OD2] |==|  0.52101
USER: genes 9 Torsion [N]-CA--C-[OXT] |==|  0.96860
USER: genes 10 Torsion [C]-CA--CB-[CG] |==|  0.39606
USER: genes 11 Torsion [CA]-CB--CG-[CD] |==|  0.02026
USER: genes 12 Torsion [CB]-CG--CD-[OE2] |==|  0.70284
USER: genes 13 Torsion [C]-CA--N-[C] |==|  0.71352
USER: genes 14 Torsion [N]-C--CA-[N] |==|  0.94734
USER: genes 15 Torsion [C]-CA--N-[C] |==|  0.60008
USER: genes 16 Torsion [N]-C--CA-[N] |==|  0.13590
USER: genes 17 Torsion [C]-CA--N-[C] |==|  0.14776
USER: genes 18 Torsion [C]-CA--CB-[CG] |==|  0.45332
USER: genes 19 Torsion [CA]-CB--CG-[SD] |==|  0.25635
USER: genes 20 Torsion [CB]-CG--SD-[CE] |==|  0.70720
USER: genes 21 Torsion [C]-CA--CB-[CG] |==|  0.46903
USER: genes 22 Torsion [CA]-CB--CG-[CD] |==|  0.61508
USER: genes 23 Torsion [CB]-CG--CD-[OE1] |==|  0.50242
ROOT
ATOM      1  CA  GLU B   3      24.792   4.477  12.336  1.00 16.51 LIG 0.18  C 
ENDROOT
BRANCH 1 2
ATOM      2  C   GLU B   3      24.643   5.159  13.690  1.00 15.77 LIG 0.24  C 
ATOM      3 O    GLU B   3      25.394   4.863  14.610  1.00 14.97 LIG-0.27  OA
ATOM      4  N   VAL B   4      23.674   6.065  13.819  1.00 15.94 LIG-0.35  N 
ATOM      5 H    VAL B   4      23.155   6.320  13.183  1.00 15.94 LIG 0.16  HD
BRANCH 4 6
ATOM      6  CA  VAL B   4      23.430   6.703  15.113  1.00 14.46 LIG 0.18  C 
BRANCH 6 7
ATOM      7  CB  VAL B   4      24.568   7.649  15.565  1.00 12.41 LIG 0.01  C 
ATOM      8  CG1 VAL B   4      24.440   8.995  14.844  1.00 11.08 LIG 0.01  C 
ATOM      9  CG2 VAL B   4      24.552   7.831  17.069  1.00 12.26 LIG 0.01  C 
ENDBRANCH 6 7
BRANCH 6 10
ATOM     10  C   VAL B   4      22.128   7.487  15.016  1.00 16.25 LIG 0.24  C 
ATOM     11 O    VAL B   4      21.811   8.057  13.964  1.00 16.95 LIG-0.27  OA
ATOM     12  N   ASP B   5      21.381   7.512  16.115  1.00 16.26 LIG-0.34  N 
ATOM     13 H    ASP B   5      21.610   7.136  16.854  1.00 16.26 LIG 0.16  HD
BRANCH 12 14
ATOM     14  CA  ASP B   5      20.091   8.185  16.169  1.00 17.99 LIG 0.20  C 
BRANCH 14 15
ATOM     15  CB  ASP B   5      19.011   7.207  15.706  1.00 19.95 LIG 0.15  C 
BRANCH 15 16
ATOM     16  CG  ASP B   5      18.629   7.416  14.255  1.00 23.79 LIG 0.17  C 
ATOM     17 OD2  ASP B   5      17.654   6.780  13.779  1.00 26.04 LIG-0.65  OA
ATOM     18 OD1  ASP B   5      19.317   8.205  13.582  1.00 23.66 LIG-0.65  OA
ENDBRANCH 15 16
ENDBRANCH 14 15
BRANCH 14 19
ATOM     19  C   ASP B   5      19.749   8.710  17.567  1.00 17.70 LIG 0.20  C 
ATOM     20 OXT  ASP B   5      20.460   8.336  18.523  1.00 18.22 LIG-0.65  OA
ATOM     21 O    ASP B   5      18.793   9.495  17.682  1.00 17.62 LIG-0.65  OA
ENDBRANCH 14 19
ENDBRANCH 12 14
ENDBRANCH 6 10
ENDBRANCH 4 6
ENDBRANCH 1 2
BRANCH 1 22
ATOM     22  CB  GLU B   3      23.845   3.267  12.318  1.00 19.71 LIG 0.04  C 
BRANCH 22 23
ATOM     23  CG  GLU B   3      23.166   3.002  10.984  1.00 25.47 LIG 0.12  C 
BRANCH 23 24
ATOM     24  CD  GLU B   3      23.700   3.899   9.866  1.00 29.25 LIG 0.17  C 
ATOM     25 OE1  GLU B   3      24.842   3.669   9.396  1.00 30.05 LIG-0.65  OA
ATOM     26 OE2  GLU B   3      22.969   4.830   9.457  1.00 32.05 LIG-0.65  OA
ENDBRANCH 23 24
ENDBRANCH 22 23
ENDBRANCH 1 22
BRANCH 1 27
ATOM     27  N   GLU B   3      26.164   4.046  12.050  1.00 15.41 LIG-0.35  N 
ATOM     28 H    GLU B   3      26.402   3.330  12.463  1.00 15.41 LIG 0.16  HD
ATOM     29  C   GLU B   2      26.953   4.718  11.220  1.00 15.20 LIG 0.24  C 
ATOM     30 O    GLU B   2      26.594   5.747  10.651  1.00 15.89 LIG-0.27  OA
BRANCH 29 31
ATOM     31  CA  GLU B   2      28.362   4.165  10.992  1.00 14.92 LIG 0.18  C 
BRANCH 31 32
ATOM     32  N   GLU B   2      28.637   3.265  12.107  1.00 15.61 LIG-0.35  N 
ATOM     33 H    GLU B   2      27.956   2.817  12.381  1.00 15.61 LIG 0.16  HD
ATOM     34  C   MET B   1      29.855   3.167  12.635  1.00 15.57 LIG 0.24  C 
ATOM     35 O    MET B   1      30.827   3.794  12.199  1.00 13.81 LIG-0.27  OA
BRANCH 34 36
ATOM     36  CA  MET B   1      29.993   2.233  13.843  1.00 16.08 LIG 0.18  C 
BRANCH 36 37
ATOM     37  N   MET B   1      29.386   0.927  13.605  1.00 16.60 LIG-0.35  N 
ATOM     38  C   ACE B   0      29.696   0.190  12.547  1.00 26.43 LIG 0.21  C 
ATOM     39 O    ACE B   0      30.528   0.536  11.707  1.00 27.07 LIG-0.27  OA
ATOM     40  CH3 ACE B   0      28.974  -1.127  12.423  1.00 28.67 LIG 0.12  C 
ATOM     41 H    MET B   1      28.819   0.686  14.205  1.00 16.60 LIG 0.16  HD
ENDBRANCH 36 37
BRANCH 36 42
ATOM     42  CB  MET B   1      31.493   2.066  14.141  1.00 17.95 LIG 0.04  C 
BRANCH 42 43
ATOM     43  CG  MET B   1      31.840   1.518  15.503  1.00 19.71 LIG 0.08  C 
BRANCH 43 44
ATOM     44 SD   MET B   1      31.996  -0.282  15.426  1.00 23.85 LIG-0.17  SA
ATOM     45  CE  MET B   1      30.479  -0.773  16.223  1.00 19.76 LIG 0.09  C 
ENDBRANCH 43 44
ENDBRANCH 42 43
ENDBRANCH 36 42
ENDBRANCH 34 36
ENDBRANCH 31 32
BRANCH 31 46
ATOM     46  CB  GLU B   2      28.408   3.395   9.661  1.00 14.50 LIG 0.04  C 
BRANCH 46 47
ATOM     47  CG  GLU B   2      29.811   3.031   9.202  1.00 15.26 LIG 0.12  C 
BRANCH 47 48
ATOM     48  CD  GLU B   2      29.975   3.238   7.712  1.00 15.63 LIG 0.17  C 
ATOM     49 OE1  GLU B   2      31.073   2.965   7.186  1.00 15.54 LIG-0.65  OA
ATOM     50 OE2  GLU B   2      29.001   3.655   7.057  1.00 15.63 LIG-0.65  OA
ENDBRANCH 47 48
ENDBRANCH 46 47
ENDBRANCH 31 46
ENDBRANCH 29 31
ENDBRANCH 1 27
TORSDOF 22
ENDMDL
