MODEL 1
USER: ADFR SOLUTION from run 104
USER: SCORE 13.584049 LL:  -3.369 LR: -10.371 RR:   0.000 FEB:  -7.984
USER: RMSD 0.999075
USER: SEED 103
USER: STATUS no improvement in best in 2 clusters for 5 generations
USER: GENES 10
USER: genes 0 Translation |==|  0.48830 0.55884 0.55609
USER: genes 1 Rotation |==|  0.45151 0.48023 0.52664 0.99654
USER: genes 2 Torsion [O]-C--CA-[N] |==|  0.94705
USER: genes 3 Torsion [N]-C--CA-[N] |==|  0.36247
USER: genes 4 Torsion [C]-CA--N-[C] |==|  0.65639
USER: genes 5 Torsion [C]-CA--CB-[CG] |==|  0.43450
USER: genes 6 Torsion [CA]-CB--CG-[CD1] |==|  0.34054
USER: genes 7 Torsion [N]-CA--C-[O] |==|  0.99082
USER: genes 8 Torsion [N]-CA--C-[N] |==|  0.45584
USER: genes 9 Torsion [N]-CA--C-[O] |==|  0.89976
ROOT
ATOM      1  C   PRO B1002      19.689  21.649  18.933  1.00 33.09 LIG 0.24  C 
ATOM      2 O    PRO B1002      19.644  20.832  18.008  1.00 32.82 LIG-0.27  OA
ATOM      3  N   PRO B1003      19.924  22.949  18.719  1.00 33.61 LIG-0.34  N 
ATOM      4  CA  PRO B1003      20.146  23.442  17.358  1.00 34.05 LIG 0.18  C 
ATOM      5  CB  PRO B1003      20.170  24.956  17.548  1.00 34.65 LIG 0.04  C 
ATOM      6  CG  PRO B1003      20.763  25.106  18.910  1.00 34.15 LIG 0.02  C 
ATOM      7  CD  PRO B1003      20.030  24.043  19.699  1.00 34.31 LIG 0.13  C 
ENDROOT
BRANCH 1 8
ATOM      8  CA  PRO B1002      19.470  21.206  20.375  1.00 32.09 LIG 0.18  C 
ATOM      9  N   PRO B1002      18.792  19.911  20.370  1.00 31.87 LIG-0.34  N 
ATOM     10  C   PHE B1001      17.470  19.855  20.148  1.00 31.39 LIG 0.24  C 
ATOM     11  CD  PRO B1002      19.720  18.834  20.759  1.00 31.65 LIG 0.13  C 
ATOM     12 O    PHE B1001      16.794  20.870  19.958  1.00 31.36 LIG-0.27  OA
ATOM     13  CG  PRO B1002      21.077  19.512  20.634  1.00 31.59 LIG 0.02  C 
ATOM     14  CB  PRO B1002      20.780  20.902  21.095  1.00 32.35 LIG 0.04  C 
BRANCH 10 15
ATOM     15  CA  PHE B1001      16.826  18.478  20.145  1.00 30.70 LIG 0.18  C 
BRANCH 15 16
ATOM     16  N   PHE B1001      15.642  18.450  20.999  1.00 31.26 LIG-0.35  N 
ATOM     17  C   ACE B1000      15.515  17.581  22.000  1.00 32.54 LIG 0.21  C 
ATOM     18  CH3 ACE B1000      14.083  17.457  22.522  1.00 32.86 LIG 0.12  C 
ATOM     19 O    ACE B1000      16.355  16.708  22.246  1.00 32.71 LIG-0.27  OA
ATOM     20 H    PHE B1001      15.046  19.037  20.797  1.00 31.26 LIG 0.16  HD
ENDBRANCH 15 16
BRANCH 15 21
ATOM     21  CB  PHE B1001      16.472  18.140  18.692  1.00 29.45 LIG 0.07  C 
BRANCH 21 22
ATOM     22  CG  PHE B1001      16.356  16.675  18.414  1.00 29.10 LIG-0.06  A 
ATOM     23  CD2 PHE B1001      17.427  15.824  18.664  1.00 29.14 LIG 0.01  A 
ATOM     24  CE2 PHE B1001      17.327  14.462  18.402  1.00 28.22 LIG 0.00  A 
ATOM     25  CZ  PHE B1001      16.151  13.943  17.885  1.00 28.72 LIG 0.00  A 
ATOM     26  CE1 PHE B1001      15.075  14.786  17.633  1.00 29.15 LIG 0.00  A 
ATOM     27  CD1 PHE B1001      15.182  16.144  17.898  1.00 28.88 LIG 0.01  A 
ENDBRANCH 21 22
ENDBRANCH 15 21
ENDBRANCH 10 15
ENDBRANCH 1 8
BRANCH 4 28
ATOM     28  C   PRO B1003      21.451  22.905  16.773  1.00 33.85 LIG 0.24  C 
ATOM     29 O    PRO B1003      22.202  22.203  17.450  1.00 33.94 LIG-0.27  OA
ATOM     30  N   PRO B1004      21.726  23.213  15.497  1.00 34.14 LIG-0.34  N 
ATOM     31  CA  PRO B1004      22.958  22.742  14.863  1.00 34.66 LIG 0.18  C 
ATOM     32  CD  PRO B1004      20.882  23.939  14.531  1.00 34.36 LIG 0.13  C 
ATOM     33  CB  PRO B1004      22.736  23.082  13.389  1.00 34.44 LIG 0.04  C 
ATOM     34  CG  PRO B1004      21.872  24.300  13.452  1.00 34.41 LIG 0.02  C 
BRANCH 31 35
ATOM     35  C   PRO B1004      24.180  23.443  15.462  1.00 35.04 LIG 0.24  C 
ATOM     36  N   PRO B1005      25.383  22.898  15.227  1.00 35.67 LIG-0.34  N 
ATOM     37  CD  PRO B1005      25.639  21.648  14.492  1.00 35.53 LIG 0.13  C 
ATOM     38  CA  PRO B1005      26.640  23.457  15.739  1.00 36.27 LIG 0.17  C 
ATOM     39  CG  PRO B1005      26.999  21.250  15.008  1.00 36.24 LIG 0.02  C 
ATOM     40  CB  PRO B1005      27.698  22.558  15.106  1.00 36.11 LIG 0.04  C 
ATOM     41 O    PRO B1004      24.048  24.461  16.143  1.00 35.22 LIG-0.27  OA
BRANCH 38 42
ATOM     42  C   PRO B1005      26.837  24.927  15.372  1.00 36.62 LIG 0.22  C 
ATOM     43 O    PRO B1005      26.432  25.309  14.253  1.00 36.45 LIG-0.29  OA
ENDBRANCH 38 42
ENDBRANCH 31 35
ENDBRANCH 4 28
TORSDOF 8
ENDMDL
MODEL 2
USER: ADFR SOLUTION from run 194
USER: SCORE 12.951816 LL:  -3.199 LR: -10.009 RR:   0.000 FEB:  -7.622
USER: RMSD 10.517166
USER: SEED 193
USER: STATUS no improvement in best in 6 clusters for 5 generations
USER: GENES 10
USER: genes 0 Translation |==|  0.56545 0.62740 0.46891
USER: genes 1 Rotation |==|  0.64219 0.08359 0.26285 0.51201
USER: genes 2 Torsion [O]-C--CA-[N] |==|  0.02987
USER: genes 3 Torsion [N]-C--CA-[N] |==|  0.32564
USER: genes 4 Torsion [C]-CA--N-[C] |==|  0.62245
USER: genes 5 Torsion [C]-CA--CB-[CG] |==|  0.67511
USER: genes 6 Torsion [CA]-CB--CG-[CD1] |==|  0.73914
USER: genes 7 Torsion [N]-CA--C-[O] |==|  0.98913
USER: genes 8 Torsion [N]-CA--C-[N] |==|  0.47504
USER: genes 9 Torsion [N]-CA--C-[O] |==|  0.68087
ROOT
ATOM      1  C   PRO B1002      21.425  23.037  17.495  1.00 33.09 LIG 0.24  C 
ATOM      2 O    PRO B1002      22.194  22.080  17.630  1.00 32.82 LIG-0.27  OA
ATOM      3  N   PRO B1003      20.533  23.366  18.438  1.00 33.61 LIG-0.34  N 
ATOM      4  CA  PRO B1003      20.442  22.582  19.671  1.00 34.05 LIG 0.18  C 
ATOM      5  CB  PRO B1003      19.474  23.399  20.521  1.00 34.65 LIG 0.04  C 
ATOM      6  CG  PRO B1003      18.565  23.998  19.498  1.00 34.15 LIG 0.02  C 
ATOM      7  CD  PRO B1003      19.538  24.452  18.430  1.00 34.31 LIG 0.13  C 
ENDROOT
BRANCH 1 8
ATOM      8  CA  PRO B1002      21.462  23.896  16.237  1.00 32.09 LIG 0.18  C 
ATOM      9  N   PRO B1002      22.306  23.235  15.243  1.00 31.87 LIG-0.34  N 
ATOM     10  C   PHE B1001      23.640  23.319  15.345  1.00 31.39 LIG 0.24  C 
ATOM     11  CD  PRO B1002      21.486  22.659  14.162  1.00 31.65 LIG 0.13  C 
ATOM     12 O    PHE B1001      24.190  23.952  16.250  1.00 31.36 LIG-0.27  OA
ATOM     13  CG  PRO B1002      20.087  22.693  14.760  1.00 31.59 LIG 0.02  C 
ATOM     14  CB  PRO B1002      20.106  23.967  15.541  1.00 32.35 LIG 0.04  C 
BRANCH 10 15
ATOM     15  CA  PHE B1001      24.462  22.602  14.286  1.00 30.70 LIG 0.18  C 
BRANCH 15 16
ATOM     16  N   PHE B1001      25.260  23.548  13.510  1.00 31.26 LIG-0.35  N 
ATOM     17  C   ACE B1000      25.354  23.469  12.184  1.00 32.54 LIG 0.21  C 
ATOM     18  CH3 ACE B1000      26.507  24.289  11.604  1.00 32.86 LIG 0.12  C 
ATOM     19 O    ACE B1000      24.823  22.569  11.522  1.00 32.71 LIG-0.27  OA
ATOM     20 H    PHE B1001      25.656  24.148  13.982  1.00 31.26 LIG 0.16  HD
ENDBRANCH 15 16
BRANCH 15 21
ATOM     21  CB  PHE B1001      25.353  21.584  15.008  1.00 29.45 LIG 0.07  C 
BRANCH 21 22
ATOM     22  CG  PHE B1001      26.820  21.840  14.862  1.00 29.10 LIG-0.06  A 
ATOM     23  CD2 PHE B1001      27.473  22.710  15.729  1.00 29.14 LIG 0.01  A 
ATOM     24  CE2 PHE B1001      28.834  22.956  15.595  1.00 28.22 LIG 0.00  A 
ATOM     25  CZ  PHE B1001      29.552  22.332  14.588  1.00 28.72 LIG 0.00  A 
ATOM     26  CE1 PHE B1001      28.908  21.460  13.717  1.00 29.15 LIG 0.00  A 
ATOM     27  CD1 PHE B1001      27.549  21.218  13.858  1.00 28.88 LIG 0.01  A 
ENDBRANCH 21 22
ENDBRANCH 15 21
ENDBRANCH 10 15
ENDBRANCH 1 8
BRANCH 4 28
ATOM     28  C   PRO B1003      19.930  21.168  19.399  1.00 33.85 LIG 0.24  C 
ATOM     29 O    PRO B1003      19.583  20.832  18.266  1.00 33.94 LIG-0.27  OA
ATOM     30  N   PRO B1004      19.897  20.315  20.433  1.00 34.14 LIG-0.34  N 
ATOM     31  CA  PRO B1004      19.415  18.944  20.258  1.00 34.66 LIG 0.18  C 
ATOM     32  CD  PRO B1004      20.381  20.530  21.809  1.00 34.36 LIG 0.13  C 
ATOM     33  CB  PRO B1004      19.796  18.276  21.579  1.00 34.44 LIG 0.04  C 
ATOM     34  CG  PRO B1004      19.718  19.402  22.559  1.00 34.41 LIG 0.02  C 
BRANCH 31 35
ATOM     35  C   PRO B1004      17.908  18.927  19.991  1.00 35.04 LIG 0.24  C 
ATOM     36  N   PRO B1005      17.357  17.760  19.627  1.00 35.67 LIG-0.34  N 
ATOM     37  CD  PRO B1005      18.077  16.495  19.402  1.00 35.53 LIG 0.13  C 
ATOM     38  CA  PRO B1005      15.927  17.594  19.336  1.00 36.27 LIG 0.17  C 
ATOM     39  CG  PRO B1005      17.120  15.740  18.514  1.00 36.24 LIG 0.02  C 
ATOM     40  CB  PRO B1005      15.799  16.093  19.097  1.00 36.11 LIG 0.04  C 
ATOM     41 O    PRO B1004      17.240  19.957  20.096  1.00 35.22 LIG-0.27  OA
BRANCH 38 42
ATOM     42  C   PRO B1005      15.024  18.077  20.469  1.00 36.62 LIG 0.22  C 
ATOM     43 O    PRO B1005      14.327  17.228  21.064  1.00 36.45 LIG-0.29  OA
ENDBRANCH 38 42
ENDBRANCH 31 35
ENDBRANCH 4 28
TORSDOF 8
ENDMDL
MODEL 3
USER: ADFR SOLUTION from run 28
USER: SCORE 12.454568 LL:  -2.775 LR:  -9.814 RR:   0.000 FEB:  -7.428
USER: RMSD 10.629977
USER: SEED 27
USER: STATUS no improvement in best in 21 clusters for 5 generations
USER: GENES 10
USER: genes 0 Translation |==|  0.55826 0.59973 0.61098
USER: genes 1 Rotation |==|  0.36612 0.84970 0.83072 0.52031
USER: genes 2 Torsion [O]-C--CA-[N] |==|  0.84157
USER: genes 3 Torsion [N]-C--CA-[N] |==|  0.48239
USER: genes 4 Torsion [C]-CA--N-[C] |==|  0.76939
USER: genes 5 Torsion [C]-CA--CB-[CG] |==|  0.44695
USER: genes 6 Torsion [CA]-CB--CG-[CD1] |==|  0.62542
USER: genes 7 Torsion [N]-CA--C-[O] |==|  0.05859
USER: genes 8 Torsion [N]-CA--C-[N] |==|  0.50149
USER: genes 9 Torsion [N]-CA--C-[O] |==|  0.84548
ROOT
ATOM      1  C   PRO B1002      21.263  22.477  19.839  1.00 33.09 LIG 0.24  C 
ATOM      2 O    PRO B1002      22.008  21.553  19.499  1.00 32.82 LIG-0.27  OA
ATOM      3  N   PRO B1003      20.395  22.349  20.851  1.00 33.61 LIG-0.34  N 
ATOM      4  CA  PRO B1003      20.301  21.086  21.585  1.00 34.05 LIG 0.18  C 
ATOM      5  CB  PRO B1003      19.368  21.436  22.741  1.00 34.65 LIG 0.04  C 
ATOM      6  CG  PRO B1003      18.461  22.454  22.132  1.00 34.15 LIG 0.02  C 
ATOM      7  CD  PRO B1003      19.428  23.333  21.369  1.00 34.31 LIG 0.13  C 
ENDROOT
BRANCH 1 8
ATOM      8  CA  PRO B1002      21.304  23.818  19.118  1.00 32.09 LIG 0.18  C 
ATOM      9  N   PRO B1002      22.665  24.346  19.188  1.00 31.87 LIG-0.34  N 
ATOM     10  C   PHE B1001      23.091  24.935  20.315  1.00 31.39 LIG 0.24  C 
ATOM     11  CD  PRO B1002      23.334  24.243  17.878  1.00 31.65 LIG 0.13  C 
ATOM     12 O    PHE B1001      22.364  25.060  21.304  1.00 31.36 LIG-0.27  OA
ATOM     13  CG  PRO B1002      22.423  23.286  17.122  1.00 31.59 LIG 0.02  C 
ATOM     14  CB  PRO B1002      21.069  23.678  17.616  1.00 32.35 LIG 0.04  C 
BRANCH 10 15
ATOM     15  CA  PHE B1001      24.520  25.454  20.328  1.00 30.70 LIG 0.18  C 
BRANCH 15 16
ATOM     16  N   PHE B1001      24.797  26.198  21.554  1.00 31.26 LIG-0.35  N 
ATOM     17  C   ACE B1000      24.464  27.480  21.691  1.00 32.54 LIG 0.21  C 
ATOM     18  CH3 ACE B1000      25.160  28.169  22.867  1.00 32.86 LIG 0.12  C 
ATOM     19 O    ACE B1000      23.949  28.145  20.784  1.00 32.71 LIG-0.27  OA
ATOM     20 H    PHE B1001      25.188  25.738  22.166  1.00 31.26 LIG 0.16  HD
ENDBRANCH 15 16
BRANCH 15 21
ATOM     21  CB  PHE B1001      25.450  24.243  20.190  1.00 29.45 LIG 0.07  C 
BRANCH 21 22
ATOM     22  CG  PHE B1001      26.835  24.583  19.739  1.00 29.10 LIG-0.06  A 
ATOM     23  CD2 PHE B1001      27.516  25.657  20.302  1.00 29.14 LIG 0.01  A 
ATOM     24  CE2 PHE B1001      28.802  25.980  19.883  1.00 28.22 LIG 0.00  A 
ATOM     25  CZ  PHE B1001      29.415  25.229  18.893  1.00 28.72 LIG 0.00  A 
ATOM     26  CE1 PHE B1001      28.742  24.153  18.325  1.00 29.15 LIG 0.00  A 
ATOM     27  CD1 PHE B1001      27.460  23.836  18.750  1.00 28.88 LIG 0.01  A 
ENDBRANCH 21 22
ENDBRANCH 15 21
ENDBRANCH 10 15
ENDBRANCH 1 8
BRANCH 4 28
ATOM     28  C   PRO B1003      19.748  19.965  20.706  1.00 33.85 LIG 0.24  C 
ATOM     29 O    PRO B1003      19.801  20.045  19.478  1.00 33.94 LIG-0.27  OA
ATOM     30  N   PRO B1004      19.228  18.896  21.326  1.00 34.14 LIG-0.34  N 
ATOM     31  CA  PRO B1004      18.672  17.782  20.557  1.00 34.66 LIG 0.18  C 
ATOM     32  CD  PRO B1004      19.196  18.605  22.771  1.00 34.36 LIG 0.13  C 
ATOM     33  CB  PRO B1004      18.452  16.707  21.621  1.00 34.44 LIG 0.04  C 
ATOM     34  CG  PRO B1004      18.165  17.507  22.851  1.00 34.41 LIG 0.02  C 
BRANCH 31 35
ATOM     35  C   PRO B1004      17.380  18.199  19.850  1.00 35.04 LIG 0.24  C 
ATOM     36  N   PRO B1005      16.751  17.273  19.113  1.00 35.67 LIG-0.34  N 
ATOM     37  CD  PRO B1005      17.217  15.897  18.868  1.00 35.53 LIG 0.13  C 
ATOM     38  CA  PRO B1005      15.506  17.529  18.378  1.00 36.27 LIG 0.17  C 
ATOM     39  CG  PRO B1005      16.483  15.535  17.602  1.00 36.24 LIG 0.02  C 
ATOM     40  CB  PRO B1005      15.150  16.156  17.817  1.00 36.11 LIG 0.04  C 
ATOM     41 O    PRO B1004      16.953  19.350  19.952  1.00 35.22 LIG-0.27  OA
BRANCH 38 42
ATOM     42  C   PRO B1005      14.395  18.099  19.259  1.00 36.62 LIG 0.22  C 
ATOM     43 O    PRO B1005      14.067  17.453  20.277  1.00 36.45 LIG-0.29  OA
ENDBRANCH 38 42
ENDBRANCH 31 35
ENDBRANCH 4 28
TORSDOF 8
ENDMDL
MODEL 4
USER: ADFR SOLUTION from run 122
USER: SCORE 12.414610 LL:  -2.790 LR:  -9.658 RR:   0.000 FEB:  -7.271
USER: RMSD 10.764488
USER: SEED 121
USER: STATUS no improvement in best in 17 clusters for 5 generations
USER: GENES 10
USER: genes 0 Translation |==|  0.43812 0.47882 0.62005
USER: genes 1 Rotation |==|  0.48260 0.37674 0.01611 0.51871
USER: genes 2 Torsion [O]-C--CA-[N] |==|  0.90518
USER: genes 3 Torsion [N]-C--CA-[N] |==|  0.89445
USER: genes 4 Torsion [C]-CA--N-[C] |==|  0.83079
USER: genes 5 Torsion [C]-CA--CB-[CG] |==|  0.40467
USER: genes 6 Torsion [CA]-CB--CG-[CD1] |==|  0.96128
USER: genes 7 Torsion [N]-CA--C-[O] |==|  0.04635
USER: genes 8 Torsion [N]-CA--C-[N] |==|  0.50884
USER: genes 9 Torsion [N]-CA--C-[O] |==|  0.78217
ROOT
ATOM      1  C   PRO B1002      18.560  20.028  19.989  1.00 33.09 LIG 0.24  C 
ATOM      2 O    PRO B1002      18.652  20.067  18.758  1.00 32.82 LIG-0.27  OA
ATOM      3  N   PRO B1003      18.312  18.887  20.644  1.00 33.61 LIG-0.34  N 
ATOM      4  CA  PRO B1003      18.133  17.637  19.903  1.00 34.05 LIG 0.18  C 
ATOM      5  CB  PRO B1003      18.077  16.592  21.013  1.00 34.65 LIG 0.04  C 
ATOM      6  CG  PRO B1003      17.430  17.338  22.134  1.00 34.15 LIG 0.02  C 
ATOM      7  CD  PRO B1003      18.151  18.668  22.092  1.00 34.31 LIG 0.13  C 
ENDROOT
BRANCH 1 8
ATOM      8  CA  PRO B1002      18.731  21.291  20.824  1.00 32.09 LIG 0.18  C 
ATOM      9  N   PRO B1002      19.724  22.148  20.179  1.00 31.87 LIG-0.34  N 
ATOM     10  C   PHE B1001      21.029  21.874  20.318  1.00 31.39 LIG 0.24  C 
ATOM     11  CD  PRO B1002      19.077  23.314  19.549  1.00 31.65 LIG 0.13  C 
ATOM     12 O    PHE B1001      21.430  20.919  20.990  1.00 31.36 LIG-0.27  OA
ATOM     13  CG  PRO B1002      17.610  22.906  19.537  1.00 31.59 LIG 0.02  C 
ATOM     14  CB  PRO B1002      17.478  22.162  20.826  1.00 32.35 LIG 0.04  C 
BRANCH 10 15
ATOM     15  CA  PHE B1001      22.010  22.796  19.614  1.00 30.70 LIG 0.18  C 
BRANCH 15 16
ATOM     16  N   PHE B1001      21.502  23.208  18.309  1.00 31.26 LIG-0.35  N 
ATOM     17  C   ACE B1000      21.238  22.327  17.345  1.00 32.54 LIG 0.21  C 
ATOM     18  CH3 ACE B1000      21.081  22.963  15.963  1.00 32.86 LIG 0.12  C 
ATOM     19 O    ACE B1000      21.452  21.114  17.462  1.00 32.71 LIG-0.27  OA
ATOM     20 H    PHE B1001      21.390  24.056  18.224  1.00 31.26 LIG 0.16  HD
ENDBRANCH 15 16
BRANCH 15 21
ATOM     21  CB  PHE B1001      22.241  24.006  20.528  1.00 29.45 LIG 0.07  C 
BRANCH 21 22
ATOM     22  CG  PHE B1001      23.628  24.561  20.472  1.00 29.10 LIG-0.06  A 
ATOM     23  CD2 PHE B1001      23.908  25.814  21.007  1.00 29.14 LIG 0.01  A 
ATOM     24  CE2 PHE B1001      25.195  26.338  20.954  1.00 28.22 LIG 0.00  A 
ATOM     25  CZ  PHE B1001      26.212  25.609  20.361  1.00 28.72 LIG 0.00  A 
ATOM     26  CE1 PHE B1001      25.943  24.355  19.824  1.00 29.15 LIG 0.00  A 
ATOM     27  CD1 PHE B1001      24.656  23.838  19.883  1.00 28.88 LIG 0.01  A 
ENDBRANCH 21 22
ENDBRANCH 15 21
ENDBRANCH 10 15
ENDBRANCH 1 8
BRANCH 4 28
ATOM     28  C   PRO B1003      16.860  17.662  19.059  1.00 33.85 LIG 0.24  C 
ATOM     29 O    PRO B1003      16.292  18.726  18.809  1.00 33.94 LIG-0.27  OA
ATOM     30  N   PRO B1004      16.408  16.489  18.591  1.00 34.14 LIG-0.34  N 
ATOM     31  CA  PRO B1004      15.191  16.426  17.780  1.00 34.66 LIG 0.18  C 
ATOM     32  CD  PRO B1004      17.032  15.159  18.707  1.00 34.36 LIG 0.13  C 
ATOM     33  CB  PRO B1004      15.202  14.990  17.258  1.00 34.44 LIG 0.04  C 
ATOM     34  CG  PRO B1004      15.889  14.240  18.354  1.00 34.41 LIG 0.02  C 
BRANCH 31 35
ATOM     35  C   PRO B1004      13.956  16.748  18.625  1.00 35.04 LIG 0.24  C 
ATOM     36  N   PRO B1005      12.758  16.664  18.027  1.00 35.67 LIG-0.34  N 
ATOM     37  CD  PRO B1005      12.519  16.348  16.608  1.00 35.53 LIG 0.13  C 
ATOM     38  CA  PRO B1005      11.490  16.946  18.710  1.00 36.27 LIG 0.17  C 
ATOM     39  CG  PRO B1005      11.145  16.928  16.382  1.00 36.24 LIG 0.02  C 
ATOM     40  CB  PRO B1005      10.447  16.597  17.652  1.00 36.11 LIG 0.04  C 
ATOM     41 O    PRO B1004      14.072  17.082  19.805  1.00 35.22 LIG-0.27  OA
BRANCH 38 42
ATOM     42  C   PRO B1005      11.305  16.135  19.992  1.00 36.62 LIG 0.22  C 
ATOM     43 O    PRO B1005      10.952  14.942  19.883  1.00 36.45 LIG-0.29  OA
ENDBRANCH 38 42
ENDBRANCH 31 35
ENDBRANCH 4 28
TORSDOF 8
ENDMDL
MODEL 5
USER: ADFR SOLUTION from run 111
USER: SCORE 12.793158 LL:  -3.372 LR:  -9.623 RR:   0.000 FEB:  -7.237
USER: RMSD 2.518352
USER: SEED 110
USER: STATUS no improvement in best in 3 clusters for 5 generations
USER: GENES 10
USER: genes 0 Translation |==|  0.50649 0.52823 0.58087
USER: genes 1 Rotation |==|  0.34406 0.34285 0.70294 0.89975
USER: genes 2 Torsion [O]-C--CA-[N] |==|  0.79618
USER: genes 3 Torsion [N]-C--CA-[N] |==|  0.32778
USER: genes 4 Torsion [C]-CA--N-[C] |==|  0.68599
USER: genes 5 Torsion [C]-CA--CB-[CG] |==|  0.44054
USER: genes 6 Torsion [CA]-CB--CG-[CD1] |==|  0.81750
USER: genes 7 Torsion [N]-CA--C-[O] |==|  0.00094
USER: genes 8 Torsion [N]-CA--C-[N] |==|  0.30488
USER: genes 9 Torsion [N]-CA--C-[O] |==|  0.88633
ROOT
ATOM      1  C   PRO B1002      20.098  21.029  19.342  1.00 33.09 LIG 0.24  C 
ATOM      2 O    PRO B1002      21.077  20.312  19.111  1.00 32.82 LIG-0.27  OA
ATOM      3  N   PRO B1003      19.677  21.954  18.471  1.00 33.61 LIG-0.34  N 
ATOM      4  CA  PRO B1003      20.384  22.149  17.205  1.00 34.05 LIG 0.18  C 
ATOM      5  CB  PRO B1003      19.479  23.124  16.458  1.00 34.65 LIG 0.04  C 
ATOM      6  CG  PRO B1003      18.902  23.946  17.563  1.00 34.15 LIG 0.02  C 
ATOM      7  CD  PRO B1003      18.552  22.897  18.596  1.00 34.31 LIG 0.13  C 
ENDROOT
BRANCH 1 8
ATOM      8  CA  PRO B1002      19.315  20.883  20.642  1.00 32.09 LIG 0.18  C 
ATOM      9  N   PRO B1002      18.528  19.654  20.579  1.00 31.87 LIG-0.34  N 
ATOM     10  C   PHE B1001      17.382  19.634  19.882  1.00 31.39 LIG 0.24  C 
ATOM     11  CD  PRO B1002      19.106  18.617  21.454  1.00 31.65 LIG 0.13  C 
ATOM     12 O    PHE B1001      16.956  20.632  19.294  1.00 31.36 LIG-0.27  OA
ATOM     13  CG  PRO B1002      20.489  19.178  21.752  1.00 31.59 LIG 0.02  C 
ATOM     14  CB  PRO B1002      20.224  20.646  21.845  1.00 32.35 LIG 0.04  C 
BRANCH 10 15
ATOM     15  CA  PHE B1001      16.614  18.323  19.847  1.00 30.70 LIG 0.18  C 
BRANCH 15 16
ATOM     16  N   PHE B1001      15.295  18.469  20.456  1.00 31.26 LIG-0.35  N 
ATOM     17  C   ACE B1000      14.971  17.856  21.592  1.00 32.54 LIG 0.21  C 
ATOM     18  CH3 ACE B1000      13.466  17.826  21.862  1.00 32.86 LIG 0.12  C 
ATOM     19 O    ACE B1000      15.734  17.083  22.184  1.00 32.71 LIG-0.27  OA
ATOM     20 H    PHE B1001      14.758  18.979  20.019  1.00 31.26 LIG 0.16  HD
ENDBRANCH 15 16
BRANCH 15 21
ATOM     21  CB  PHE B1001      16.505  17.893  18.379  1.00 29.45 LIG 0.07  C 
BRANCH 21 22
ATOM     22  CG  PHE B1001      16.245  16.433  18.185  1.00 29.10 LIG-0.06  A 
ATOM     23  CD2 PHE B1001      15.044  15.999  17.633  1.00 29.14 LIG 0.01  A 
ATOM     24  CE2 PHE B1001      14.795  14.643  17.456  1.00 28.22 LIG 0.00  A 
ATOM     25  CZ  PHE B1001      15.748  13.710  17.831  1.00 28.72 LIG 0.00  A 
ATOM     26  CE1 PHE B1001      16.952  14.135  18.382  1.00 29.15 LIG 0.00  A 
ATOM     27  CD1 PHE B1001      17.194  15.491  18.555  1.00 28.88 LIG 0.01  A 
ENDBRANCH 21 22
ENDBRANCH 15 21
ENDBRANCH 10 15
ENDBRANCH 1 8
BRANCH 4 28
ATOM     28  C   PRO B1003      21.789  22.709  17.427  1.00 33.85 LIG 0.24  C 
ATOM     29 O    PRO B1003      22.203  22.936  18.564  1.00 33.94 LIG-0.27  OA
ATOM     30  N   PRO B1004      22.547  22.919  16.340  1.00 34.14 LIG-0.34  N 
ATOM     31  CA  PRO B1004      23.901  23.459  16.467  1.00 34.66 LIG 0.18  C 
ATOM     32  CD  PRO B1004      22.239  22.594  14.936  1.00 34.36 LIG 0.13  C 
ATOM     33  CB  PRO B1004      24.472  23.283  15.060  1.00 34.44 LIG 0.04  C 
ATOM     34  CG  PRO B1004      23.263  23.411  14.189  1.00 34.41 LIG 0.02  C 
BRANCH 31 35
ATOM     35  C   PRO B1004      23.865  24.921  16.920  1.00 35.04 LIG 0.24  C 
ATOM     36  N   PRO B1005      24.284  25.194  18.164  1.00 35.67 LIG-0.34  N 
ATOM     37  CD  PRO B1005      24.725  24.207  19.165  1.00 35.53 LIG 0.13  C 
ATOM     38  CA  PRO B1005      24.303  26.546  18.735  1.00 36.27 LIG 0.17  C 
ATOM     39  CG  PRO B1005      24.530  24.959  20.458  1.00 36.24 LIG 0.02  C 
ATOM     40  CB  PRO B1005      24.962  26.334  20.095  1.00 36.11 LIG 0.04  C 
ATOM     41 O    PRO B1004      23.451  25.802  16.165  1.00 35.22 LIG-0.27  OA
BRANCH 38 42
ATOM     42  C   PRO B1005      25.066  27.551  17.874  1.00 36.62 LIG 0.22  C 
ATOM     43 O    PRO B1005      26.134  27.176  17.345  1.00 36.45 LIG-0.29  OA
ENDBRANCH 38 42
ENDBRANCH 31 35
ENDBRANCH 4 28
TORSDOF 8
ENDMDL
MODEL 6
USER: ADFR SOLUTION from run 131
USER: SCORE 12.929144 LL:  -3.747 LR:  -9.450 RR:   0.000 FEB:  -7.063
USER: RMSD 9.516239
USER: SEED 130
USER: STATUS no improvement in best in 11 clusters for 5 generations
USER: GENES 10
USER: genes 0 Translation |==|  0.61283 0.64274 0.61326
USER: genes 1 Rotation |==|  0.52048 0.58027 0.97585 0.62924
USER: genes 2 Torsion [O]-C--CA-[N] |==|  0.98534
USER: genes 3 Torsion [N]-C--CA-[N] |==|  0.49093
USER: genes 4 Torsion [C]-CA--N-[C] |==|  0.64444
USER: genes 5 Torsion [C]-CA--CB-[CG] |==|  0.80596
USER: genes 6 Torsion [CA]-CB--CG-[CD1] |==|  0.30960
USER: genes 7 Torsion [N]-CA--C-[O] |==|  0.83890
USER: genes 8 Torsion [N]-CA--C-[N] |==|  0.50012
USER: genes 9 Torsion [N]-CA--C-[O] |==|  0.56778
ROOT
ATOM      1  C   PRO B1002      22.491  23.347  19.877  1.00 33.09 LIG 0.24  C 
ATOM      2 O    PRO B1002      22.786  23.443  18.681  1.00 32.82 LIG-0.27  OA
ATOM      3  N   PRO B1003      21.560  22.487  20.309  1.00 33.61 LIG-0.34  N 
ATOM      4  CA  PRO B1003      20.852  21.629  19.358  1.00 34.05 LIG 0.18  C 
ATOM      5  CB  PRO B1003      20.059  20.697  20.269  1.00 34.65 LIG 0.04  C 
ATOM      6  CG  PRO B1003      19.753  21.568  21.442  1.00 34.15 LIG 0.02  C 
ATOM      7  CD  PRO B1003      21.077  22.261  21.682  1.00 34.31 LIG 0.13  C 
ENDROOT
BRANCH 1 8
ATOM      8  CA  PRO B1002      23.185  24.210  20.923  1.00 32.09 LIG 0.18  C 
ATOM      9  N   PRO B1002      24.246  24.976  20.270  1.00 31.87 LIG-0.34  N 
ATOM     10  C   PHE B1001      25.412  24.381  19.981  1.00 31.39 LIG 0.24  C 
ATOM     11  CD  PRO B1002      23.867  26.395  20.148  1.00 31.65 LIG 0.13  C 
ATOM     12 O    PHE B1001      25.631  23.199  20.260  1.00 31.36 LIG-0.27  OA
ATOM     13  CG  PRO B1002      22.371  26.358  20.430  1.00 31.59 LIG 0.02  C 
ATOM     14  CB  PRO B1002      22.272  25.299  21.479  1.00 32.35 LIG 0.04  C 
BRANCH 10 15
ATOM     15  CA  PHE B1001      26.470  25.227  19.293  1.00 30.70 LIG 0.18  C 
BRANCH 15 16
ATOM     16  N   PHE B1001      27.709  24.474  19.110  1.00 31.26 LIG-0.35  N 
ATOM     17  C   ACE B1000      28.887  24.948  19.511  1.00 32.54 LIG 0.21  C 
ATOM     18  CH3 ACE B1000      30.080  24.206  18.907  1.00 32.86 LIG 0.12  C 
ATOM     19 O    ACE B1000      29.028  26.070  20.013  1.00 32.71 LIG-0.27  OA
ATOM     20 H    PHE B1001      27.606  23.711  18.727  1.00 31.26 LIG 0.16  HD
ENDBRANCH 15 16
BRANCH 15 21
ATOM     21  CB  PHE B1001      25.892  25.681  17.947  1.00 29.45 LIG 0.07  C 
BRANCH 21 22
ATOM     22  CG  PHE B1001      25.739  24.582  16.944  1.00 29.10 LIG-0.06  A 
ATOM     23  CD2 PHE B1001      26.859  23.980  16.381  1.00 29.14 LIG 0.01  A 
ATOM     24  CE2 PHE B1001      26.722  22.962  15.444  1.00 28.22 LIG 0.00  A 
ATOM     25  CZ  PHE B1001      25.459  22.541  15.061  1.00 28.72 LIG 0.00  A 
ATOM     26  CE1 PHE B1001      24.333  23.137  15.619  1.00 29.15 LIG 0.00  A 
ATOM     27  CD1 PHE B1001      24.478  24.151  16.555  1.00 28.88 LIG 0.01  A 
ENDBRANCH 21 22
ENDBRANCH 15 21
ENDBRANCH 10 15
ENDBRANCH 1 8
BRANCH 4 28
ATOM     28  C   PRO B1003      19.952  22.445  18.430  1.00 33.85 LIG 0.24  C 
ATOM     29 O    PRO B1003      19.066  23.166  18.888  1.00 33.94 LIG-0.27  OA
ATOM     30  N   PRO B1004      20.185  22.356  17.112  1.00 34.14 LIG-0.34  N 
ATOM     31  CA  PRO B1004      19.364  23.100  16.155  1.00 34.66 LIG 0.18  C 
ATOM     32  CD  PRO B1004      21.269  21.632  16.423  1.00 34.36 LIG 0.13  C 
ATOM     33  CB  PRO B1004      20.126  22.923  14.842  1.00 34.44 LIG 0.04  C 
ATOM     34  CG  PRO B1004      20.766  21.582  15.003  1.00 34.41 LIG 0.02  C 
BRANCH 31 35
ATOM     35  C   PRO B1004      17.942  22.537  16.104  1.00 35.04 LIG 0.24  C 
ATOM     36  N   PRO B1005      17.074  23.123  15.266  1.00 35.67 LIG-0.34  N 
ATOM     37  CD  PRO B1005      17.343  24.302  14.427  1.00 35.53 LIG 0.13  C 
ATOM     38  CA  PRO B1005      15.679  22.693  15.113  1.00 36.27 LIG 0.17  C 
ATOM     39  CG  PRO B1005      15.954  24.830  14.167  1.00 36.24 LIG 0.02  C 
ATOM     40  CB  PRO B1005      15.169  23.581  13.982  1.00 36.11 LIG 0.04  C 
ATOM     41 O    PRO B1004      17.616  21.590  16.821  1.00 35.22 LIG-0.27  OA
BRANCH 38 42
ATOM     42  C   PRO B1005      15.540  21.207  14.788  1.00 36.62 LIG 0.22  C 
ATOM     43 O    PRO B1005      14.506  20.832  14.196  1.00 36.45 LIG-0.29  OA
ENDBRANCH 38 42
ENDBRANCH 31 35
ENDBRANCH 4 28
TORSDOF 8
ENDMDL
MODEL 7
USER: ADFR SOLUTION from run 79
USER: SCORE 12.257965 LL:  -3.337 LR:  -9.341 RR:   0.000 FEB:  -6.955
USER: RMSD 10.783708
USER: SEED 78
USER: STATUS no improvement in best in 12 clusters for 5 generations
USER: GENES 10
USER: genes 0 Translation |==|  0.54823 0.62047 0.52263
USER: genes 1 Rotation |==|  0.29013 0.89842 0.71130 0.55067
USER: genes 2 Torsion [O]-C--CA-[N] |==|  0.94105
USER: genes 3 Torsion [N]-C--CA-[N] |==|  0.25158
USER: genes 4 Torsion [C]-CA--N-[C] |==|  0.66424
USER: genes 5 Torsion [C]-CA--CB-[CG] |==|  0.50079
USER: genes 6 Torsion [CA]-CB--CG-[CD1] |==|  0.37815
USER: genes 7 Torsion [N]-CA--C-[O] |==|  0.98035
USER: genes 8 Torsion [N]-CA--C-[N] |==|  0.49133
USER: genes 9 Torsion [N]-CA--C-[O] |==|  0.91275
ROOT
ATOM      1  C   PRO B1002      21.037  22.896  18.381  1.00 33.09 LIG 0.24  C 
ATOM      2 O    PRO B1002      21.827  22.036  18.782  1.00 32.82 LIG-0.27  OA
ATOM      3  N   PRO B1003      19.833  23.068  18.942  1.00 33.61 LIG-0.34  N 
ATOM      4  CA  PRO B1003      19.413  22.219  20.057  1.00 34.05 LIG 0.18  C 
ATOM      5  CB  PRO B1003      18.107  22.869  20.504  1.00 34.65 LIG 0.04  C 
ATOM      6  CG  PRO B1003      17.552  23.402  19.223  1.00 34.15 LIG 0.02  C 
ATOM      7  CD  PRO B1003      18.772  24.023  18.578  1.00 34.31 LIG 0.13  C 
ENDROOT
BRANCH 1 8
ATOM      8  CA  PRO B1002      21.407  23.815  17.223  1.00 32.09 LIG 0.18  C 
ATOM      9  N   PRO B1002      22.862  23.842  17.093  1.00 31.87 LIG-0.34  N 
ATOM     10  C   PHE B1001      23.589  24.599  17.928  1.00 31.39 LIG 0.24  C 
ATOM     11  CD  PRO B1002      23.296  23.080  15.907  1.00 31.65 LIG 0.13  C 
ATOM     12 O    PHE B1001      23.067  25.291  18.807  1.00 31.36 LIG-0.27  OA
ATOM     13  CG  PRO B1002      22.044  22.290  15.552  1.00 31.59 LIG 0.02  C 
ATOM     14  CB  PRO B1002      20.954  23.260  15.875  1.00 32.35 LIG 0.04  C 
BRANCH 10 15
ATOM     15  CA  PHE B1001      25.098  24.577  17.749  1.00 30.70 LIG 0.18  C 
BRANCH 15 16
ATOM     16  N   PHE B1001      25.533  25.623  16.827  1.00 31.26 LIG-0.35  N 
ATOM     17  C   ACE B1000      26.196  25.344  15.707  1.00 32.54 LIG 0.21  C 
ATOM     18  CH3 ACE B1000      26.880  26.562  15.084  1.00 32.86 LIG 0.12  C 
ATOM     19 O    ACE B1000      26.536  24.197  15.391  1.00 32.71 LIG-0.27  OA
ATOM     20 H    PHE B1001      25.324  26.420  17.073  1.00 31.26 LIG 0.16  HD
ENDBRANCH 15 16
BRANCH 15 21
ATOM     21  CB  PHE B1001      25.728  24.759  19.135  1.00 29.45 LIG 0.07  C 
BRANCH 21 22
ATOM     22  CG  PHE B1001      27.224  24.766  19.132  1.00 29.10 LIG-0.06  A 
ATOM     23  CD2 PHE B1001      27.932  23.833  18.383  1.00 29.14 LIG 0.01  A 
ATOM     24  CE2 PHE B1001      29.322  23.831  18.381  1.00 28.22 LIG 0.00  A 
ATOM     25  CZ  PHE B1001      30.014  24.767  19.132  1.00 28.72 LIG 0.00  A 
ATOM     26  CE1 PHE B1001      29.315  25.705  19.883  1.00 29.15 LIG 0.00  A 
ATOM     27  CD1 PHE B1001      27.927  25.701  19.879  1.00 28.88 LIG 0.01  A 
ENDBRANCH 21 22
ENDBRANCH 15 21
ENDBRANCH 10 15
ENDBRANCH 1 8
BRANCH 4 28
ATOM     28  C   PRO B1003      19.222  20.768  19.617  1.00 33.85 LIG 0.24  C 
ATOM     29 O    PRO B1003      19.292  20.457  18.427  1.00 33.94 LIG-0.27  OA
ATOM     30  N   PRO B1004      19.000  19.857  20.576  1.00 34.14 LIG-0.34  N 
ATOM     31  CA  PRO B1004      18.802  18.447  20.238  1.00 34.66 LIG 0.18  C 
ATOM     32  CD  PRO B1004      19.002  20.052  22.038  1.00 34.36 LIG 0.13  C 
ATOM     33  CB  PRO B1004      18.854  17.758  21.601  1.00 34.44 LIG 0.04  C 
ATOM     34  CG  PRO B1004      18.316  18.801  22.526  1.00 34.41 LIG 0.02  C 
BRANCH 31 35
ATOM     35  C   PRO B1004      17.468  18.243  19.514  1.00 35.04 LIG 0.24  C 
ATOM     36  N   PRO B1005      17.180  17.006  19.084  1.00 35.67 LIG-0.34  N 
ATOM     37  CD  PRO B1005      18.056  15.827  19.190  1.00 35.53 LIG 0.13  C 
ATOM     38  CA  PRO B1005      15.943  16.662  18.373  1.00 36.27 LIG 0.17  C 
ATOM     39  CG  PRO B1005      17.513  14.930  18.106  1.00 36.24 LIG 0.02  C 
ATOM     40  CB  PRO B1005      16.046  15.148  18.218  1.00 36.11 LIG 0.04  C 
ATOM     41 O    PRO B1004      16.704  19.192  19.328  1.00 35.22 LIG-0.27  OA
BRANCH 38 42
ATOM     42  C   PRO B1005      14.682  17.081  19.127  1.00 36.62 LIG 0.22  C 
ATOM     43 O    PRO B1005      14.720  17.080  20.376  1.00 36.45 LIG-0.29  OA
ENDBRANCH 38 42
ENDBRANCH 31 35
ENDBRANCH 4 28
TORSDOF 8
ENDMDL
MODEL 8
USER: ADFR SOLUTION from run 78
USER: SCORE 12.101975 LL:  -3.189 LR:  -9.297 RR:   0.000 FEB:  -6.911
USER: RMSD 10.286181
USER: SEED 77
USER: STATUS no improvement in best in 13 clusters for 5 generations
USER: GENES 10
USER: genes 0 Translation |==|  0.55605 0.61511 0.46436
USER: genes 1 Rotation |==|  0.60245 0.09807 0.22728 0.55982
USER: genes 2 Torsion [O]-C--CA-[N] |==|  0.91014
USER: genes 3 Torsion [N]-C--CA-[N] |==|  0.85068
USER: genes 4 Torsion [C]-CA--N-[C] |==|  0.70894
USER: genes 5 Torsion [C]-CA--CB-[CG] |==|  0.63566
USER: genes 6 Torsion [CA]-CB--CG-[CD1] |==|  0.30893
USER: genes 7 Torsion [N]-CA--C-[O] |==|  0.03173
USER: genes 8 Torsion [N]-CA--C-[N] |==|  0.45486
USER: genes 9 Torsion [N]-CA--C-[O] |==|  0.66158
ROOT
ATOM      1  C   PRO B1002      21.213  22.788  17.420  1.00 33.09 LIG 0.24  C 
ATOM      2 O    PRO B1002      21.951  21.811  17.258  1.00 32.82 LIG-0.27  OA
ATOM      3  N   PRO B1003      20.626  23.045  18.596  1.00 33.61 LIG-0.34  N 
ATOM      4  CA  PRO B1003      20.842  22.153  19.736  1.00 34.05 LIG 0.18  C 
ATOM      5  CB  PRO B1003      20.176  22.906  20.884  1.00 34.65 LIG 0.04  C 
ATOM      6  CG  PRO B1003      19.049  23.610  20.204  1.00 34.15 LIG 0.02  C 
ATOM      7  CD  PRO B1003      19.711  24.143  18.952  1.00 34.31 LIG 0.13  C 
ENDROOT
BRANCH 1 8
ATOM      8  CA  PRO B1002      20.941  23.757  16.276  1.00 32.09 LIG 0.18  C 
ATOM      9  N   PRO B1002      22.131  23.828  15.429  1.00 31.87 LIG-0.34  N 
ATOM     10  C   PHE B1001      23.177  24.572  15.815  1.00 31.39 LIG 0.24  C 
ATOM     11  CD  PRO B1002      21.907  23.121  14.154  1.00 31.65 LIG 0.13  C 
ATOM     12 O    PHE B1001      23.169  25.217  16.867  1.00 31.36 LIG-0.27  OA
ATOM     13  CG  PRO B1002      20.651  22.313  14.446  1.00 31.59 LIG 0.02  C 
ATOM     14  CB  PRO B1002      19.870  23.241  15.319  1.00 32.35 LIG 0.04  C 
BRANCH 10 15
ATOM     15  CA  PHE B1001      24.388  24.595  14.896  1.00 30.70 LIG 0.18  C 
BRANCH 15 16
ATOM     16  N   PHE B1001      24.848  23.242  14.599  1.00 31.26 LIG-0.35  N 
ATOM     17  C   ACE B1000      25.942  22.730  15.161  1.00 32.54 LIG 0.21  C 
ATOM     18  CH3 ACE B1000      26.461  21.477  14.454  1.00 32.86 LIG 0.12  C 
ATOM     19 O    ACE B1000      26.671  23.371  15.926  1.00 32.71 LIG-0.27  OA
ATOM     20 H    PHE B1001      24.356  22.816  14.037  1.00 31.26 LIG 0.16  HD
ENDBRANCH 15 16
BRANCH 15 21
ATOM     21  CB  PHE B1001      23.980  25.338  13.618  1.00 29.45 LIG 0.07  C 
BRANCH 21 22
ATOM     22  CG  PHE B1001      24.340  24.625  12.354  1.00 29.10 LIG-0.06  A 
ATOM     23  CD2 PHE B1001      25.672  24.492  11.975  1.00 29.14 LIG 0.01  A 
ATOM     24  CE2 PHE B1001      26.013  23.836  10.798  1.00 28.22 LIG 0.00  A 
ATOM     25  CZ  PHE B1001      25.019  23.309   9.989  1.00 28.72 LIG 0.00  A 
ATOM     26  CE1 PHE B1001      23.685  23.436  10.360  1.00 29.15 LIG 0.00  A 
ATOM     27  CD1 PHE B1001      23.353  24.091  11.537  1.00 28.88 LIG 0.01  A 
ENDBRANCH 21 22
ENDBRANCH 15 21
ENDBRANCH 10 15
ENDBRANCH 1 8
BRANCH 4 28
ATOM     28  C   PRO B1003      20.219  20.778  19.499  1.00 33.85 LIG 0.24  C 
ATOM     29 O    PRO B1003      19.810  20.457  18.383  1.00 33.94 LIG-0.27  OA
ATOM     30  N   PRO B1004      20.158  19.941  20.546  1.00 34.14 LIG-0.34  N 
ATOM     31  CA  PRO B1004      19.570  18.608  20.404  1.00 34.66 LIG 0.18  C 
ATOM     32  CD  PRO B1004      20.702  20.134  21.902  1.00 34.36 LIG 0.13  C 
ATOM     33  CB  PRO B1004      19.945  17.927  21.720  1.00 34.44 LIG 0.04  C 
ATOM     34  CG  PRO B1004      19.984  19.066  22.687  1.00 34.41 LIG 0.02  C 
BRANCH 31 35
ATOM     35  C   PRO B1004      18.058  18.700  20.186  1.00 35.04 LIG 0.24  C 
ATOM     36  N   PRO B1005      17.434  17.612  19.712  1.00 35.67 LIG-0.34  N 
ATOM     37  CD  PRO B1005      18.077  16.345  19.322  1.00 35.53 LIG 0.13  C 
ATOM     38  CA  PRO B1005      15.990  17.554  19.451  1.00 36.27 LIG 0.17  C 
ATOM     39  CG  PRO B1005      17.056  15.747  18.387  1.00 36.24 LIG 0.02  C 
ATOM     40  CB  PRO B1005      15.773  16.099  19.049  1.00 36.11 LIG 0.04  C 
ATOM     41 O    PRO B1004      17.452  19.745  20.428  1.00 35.22 LIG-0.27  OA
BRANCH 38 42
ATOM     42  C   PRO B1005      15.146  17.951  20.661  1.00 36.62 LIG 0.22  C 
ATOM     43 O    PRO B1005      14.322  17.119  21.097  1.00 36.45 LIG-0.29  OA
ENDBRANCH 38 42
ENDBRANCH 31 35
ENDBRANCH 4 28
TORSDOF 8
ENDMDL
MODEL 9
USER: ADFR SOLUTION from run 170
USER: SCORE 12.886692 LL:  -3.820 LR:  -9.225 RR:   0.000 FEB:  -6.839
USER: RMSD 10.608246
USER: SEED 169
USER: STATUS no improvement in best in 12 clusters for 5 generations
USER: GENES 10
USER: genes 0 Translation |==|  0.68524 0.66405 0.35411
USER: genes 1 Rotation |==|  0.18490 0.86582 0.40006 0.58307
USER: genes 2 Torsion [O]-C--CA-[N] |==|  0.03427
USER: genes 3 Torsion [N]-C--CA-[N] |==|  0.46620
USER: genes 4 Torsion [C]-CA--N-[C] |==|  0.54445
USER: genes 5 Torsion [C]-CA--CB-[CG] |==|  0.80935
USER: genes 6 Torsion [CA]-CB--CG-[CD1] |==|  0.82206
USER: genes 7 Torsion [N]-CA--C-[O] |==|  0.81885
USER: genes 8 Torsion [N]-CA--C-[N] |==|  0.51541
USER: genes 9 Torsion [N]-CA--C-[O] |==|  0.89356
ROOT
ATOM      1  C   PRO B1002      24.120  23.779  15.601  1.00 33.09 LIG 0.24  C 
ATOM      2 O    PRO B1002      24.150  23.988  16.818  1.00 32.82 LIG-0.27  OA
ATOM      3  N   PRO B1003      22.970  23.578  14.946  1.00 33.61 LIG-0.34  N 
ATOM      4  CA  PRO B1003      21.698  23.593  15.669  1.00 34.05 LIG 0.18  C 
ATOM      5  CB  PRO B1003      20.668  23.528  14.545  1.00 34.65 LIG 0.04  C 
ATOM      6  CG  PRO B1003      21.365  22.707  13.511  1.00 34.15 LIG 0.02  C 
ATOM      7  CD  PRO B1003      22.758  23.298  13.515  1.00 34.31 LIG 0.13  C 
ENDROOT
BRANCH 1 8
ATOM      8  CA  PRO B1002      25.406  23.747  14.784  1.00 32.09 LIG 0.18  C 
ATOM      9  N   PRO B1002      26.542  23.695  15.701  1.00 31.87 LIG-0.34  N 
ATOM     10  C   PHE B1001      26.954  24.816  16.311  1.00 31.39 LIG 0.24  C 
ATOM     11  CD  PRO B1002      27.156  22.355  15.697  1.00 31.65 LIG 0.13  C 
ATOM     12 O    PHE B1001      26.410  25.906  16.115  1.00 31.36 LIG-0.27  OA
ATOM     13  CG  PRO B1002      26.093  21.511  15.008  1.00 31.59 LIG 0.02  C 
ATOM     14  CB  PRO B1002      25.554  22.456  13.983  1.00 32.35 LIG 0.04  C 
BRANCH 10 15
ATOM     15  CA  PHE B1001      28.135  24.695  17.260  1.00 30.70 LIG 0.18  C 
BRANCH 15 16
ATOM     16  N   PHE B1001      28.653  26.011  17.626  1.00 31.26 LIG-0.35  N 
ATOM     17  C   ACE B1000      29.853  26.166  18.182  1.00 32.54 LIG 0.21  C 
ATOM     18  CH3 ACE B1000      30.054  27.539  18.824  1.00 32.86 LIG 0.12  C 
ATOM     19 O    ACE B1000      30.589  25.217  18.477  1.00 32.71 LIG-0.27  OA
ATOM     20 H    PHE B1001      28.119  26.662  17.451  1.00 31.26 LIG 0.16  HD
ENDBRANCH 15 16
BRANCH 15 21
ATOM     21  CB  PHE B1001      27.654  23.924  18.495  1.00 29.45 LIG 0.07  C 
BRANCH 21 22
ATOM     22  CG  PHE B1001      26.675  24.672  19.343  1.00 29.10 LIG-0.06  A 
ATOM     23  CD2 PHE B1001      25.373  24.207  19.494  1.00 29.14 LIG 0.01  A 
ATOM     24  CE2 PHE B1001      24.458  24.902  20.276  1.00 28.22 LIG 0.00  A 
ATOM     25  CZ  PHE B1001      24.840  26.071  20.913  1.00 28.72 LIG 0.00  A 
ATOM     26  CE1 PHE B1001      26.140  26.543  20.769  1.00 29.15 LIG 0.00  A 
ATOM     27  CD1 PHE B1001      27.049  25.843  19.988  1.00 28.88 LIG 0.01  A 
ENDBRANCH 21 22
ENDBRANCH 15 21
ENDBRANCH 10 15
ENDBRANCH 1 8
BRANCH 4 28
ATOM     28  C   PRO B1003      21.587  22.412  16.633  1.00 33.85 LIG 0.24  C 
ATOM     29 O    PRO B1003      21.541  21.257  16.209  1.00 33.94 LIG-0.27  OA
ATOM     30  N   PRO B1004      21.563  22.688  17.945  1.00 34.14 LIG-0.34  N 
ATOM     31  CA  PRO B1004      21.452  21.614  18.933  1.00 34.66 LIG 0.18  C 
ATOM     32  CD  PRO B1004      21.722  23.996  18.606  1.00 34.36 LIG 0.13  C 
ATOM     33  CB  PRO B1004      21.728  22.334  20.253  1.00 34.44 LIG 0.04  C 
ATOM     34  CG  PRO B1004      21.213  23.713  19.997  1.00 34.41 LIG 0.02  C 
BRANCH 31 35
ATOM     35  C   PRO B1004      20.066  20.967  18.882  1.00 35.04 LIG 0.24  C 
ATOM     36  N   PRO B1005      19.779  20.042  19.809  1.00 35.67 LIG-0.34  N 
ATOM     37  CD  PRO B1005      20.698  19.541  20.845  1.00 35.53 LIG 0.13  C 
ATOM     38  CA  PRO B1005      18.494  19.337  19.882  1.00 36.27 LIG 0.17  C 
ATOM     39  CG  PRO B1005      20.087  18.207  21.193  1.00 36.24 LIG 0.02  C 
ATOM     40  CB  PRO B1005      18.631  18.504  21.152  1.00 36.11 LIG 0.04  C 
ATOM     41 O    PRO B1004      19.258  21.285  18.008  1.00 35.22 LIG-0.27  OA
BRANCH 38 42
ATOM     42  C   PRO B1005      17.294  20.281  19.937  1.00 36.62 LIG 0.22  C 
ATOM     43 O    PRO B1005      17.405  21.329  20.610  1.00 36.45 LIG-0.29  OA
ENDBRANCH 38 42
ENDBRANCH 31 35
ENDBRANCH 4 28
TORSDOF 8
ENDMDL
MODEL 10
USER: ADFR SOLUTION from run 135
USER: SCORE 11.796957 LL:  -3.318 LR:  -9.095 RR:   0.000 FEB:  -6.708
USER: RMSD 4.678117
USER: SEED 134
USER: STATUS no improvement in best in 11 clusters for 5 generations
USER: GENES 10
USER: genes 0 Translation |==|  0.37470 0.55893 0.48304
USER: genes 1 Rotation |==|  0.19773 0.20240 0.62146 0.73519
USER: genes 2 Torsion [O]-C--CA-[N] |==|  0.93684
USER: genes 3 Torsion [N]-C--CA-[N] |==|  0.16269
USER: genes 4 Torsion [C]-CA--N-[C] |==|  0.56829
USER: genes 5 Torsion [C]-CA--CB-[CG] |==|  0.24698
USER: genes 6 Torsion [CA]-CB--CG-[CD1] |==|  0.47593
USER: genes 7 Torsion [N]-CA--C-[O] |==|  0.79789
USER: genes 8 Torsion [N]-CA--C-[N] |==|  0.47247
USER: genes 9 Torsion [N]-CA--C-[O] |==|  0.80697
ROOT
ATOM      1  C   PRO B1002      17.133  21.650  17.728  1.00 33.09 LIG 0.24  C 
ATOM      2 O    PRO B1002      17.699  21.074  18.662  1.00 32.82 LIG-0.27  OA
ATOM      3  N   PRO B1003      17.817  22.196  16.714  1.00 33.61 LIG-0.34  N 
ATOM      4  CA  PRO B1003      19.279  22.128  16.692  1.00 34.05 LIG 0.18  C 
ATOM      5  CB  PRO B1003      19.621  22.674  15.309  1.00 34.65 LIG 0.04  C 
ATOM      6  CG  PRO B1003      18.537  23.674  15.074  1.00 34.15 LIG 0.02  C 
ATOM      7  CD  PRO B1003      17.306  22.930  15.544  1.00 34.31 LIG 0.13  C 
ENDROOT
BRANCH 1 8
ATOM      8  CA  PRO B1002      15.614  21.761  17.687  1.00 32.09 LIG 0.18  C 
ATOM      9  N   PRO B1002      15.044  20.695  18.508  1.00 31.87 LIG-0.34  N 
ATOM     10  C   PHE B1001      14.969  19.449  18.020  1.00 31.39 LIG 0.24  C 
ATOM     11  CD  PRO B1002      14.500  21.239  19.767  1.00 31.65 LIG 0.13  C 
ATOM     12 O    PHE B1001      15.358  19.167  16.883  1.00 31.36 LIG-0.27  OA
ATOM     13  CG  PRO B1002      15.112  22.632  19.811  1.00 31.59 LIG 0.02  C 
ATOM     14  CB  PRO B1002      15.105  23.028  18.370  1.00 32.35 LIG 0.04  C 
BRANCH 10 15
ATOM     15  CA  PHE B1001      14.376  18.383  18.926  1.00 30.70 LIG 0.18  C 
BRANCH 15 16
ATOM     16  N   PHE B1001      13.014  18.730  19.325  1.00 31.26 LIG-0.35  N 
ATOM     17  C   ACE B1000      12.465  18.258  20.443  1.00 32.54 LIG 0.21  C 
ATOM     18  CH3 ACE B1000      10.945  18.423  20.492  1.00 32.86 LIG 0.12  C 
ATOM     19 O    ACE B1000      13.038  17.457  21.191  1.00 32.71 LIG-0.27  OA
ATOM     20 H    PHE B1001      12.610  19.259  18.781  1.00 31.26 LIG 0.16  HD
ENDBRANCH 15 16
BRANCH 15 21
ATOM     21  CB  PHE B1001      14.409  17.056  18.159  1.00 29.45 LIG 0.07  C 
BRANCH 21 22
ATOM     22  CG  PHE B1001      15.673  16.276  18.336  1.00 29.10 LIG-0.06  A 
ATOM     23  CD2 PHE B1001      16.764  16.842  18.987  1.00 29.14 LIG 0.01  A 
ATOM     24  CE2 PHE B1001      17.944  16.124  19.149  1.00 28.22 LIG 0.00  A 
ATOM     25  CZ  PHE B1001      18.038  14.832  18.659  1.00 28.72 LIG 0.00  A 
ATOM     26  CE1 PHE B1001      16.952  14.258  18.009  1.00 29.15 LIG 0.00  A 
ATOM     27  CD1 PHE B1001      15.778  14.980  17.851  1.00 28.88 LIG 0.01  A 
ENDBRANCH 21 22
ENDBRANCH 15 21
ENDBRANCH 10 15
ENDBRANCH 1 8
BRANCH 4 28
ATOM     28  C   PRO B1003      19.896  22.957  17.817  1.00 33.85 LIG 0.24  C 
ATOM     29 O    PRO B1003      19.892  24.187  17.767  1.00 33.94 LIG-0.27  OA
ATOM     30  N   PRO B1004      20.417  22.291  18.858  1.00 34.14 LIG-0.34  N 
ATOM     31  CA  PRO B1004      21.033  23.010  19.974  1.00 34.66 LIG 0.18  C 
ATOM     32  CD  PRO B1004      20.398  20.839  19.115  1.00 34.36 LIG 0.13  C 
ATOM     33  CB  PRO B1004      21.237  21.912  21.018  1.00 34.44 LIG 0.04  C 
ATOM     34  CG  PRO B1004      21.452  20.691  20.183  1.00 34.41 LIG 0.02  C 
BRANCH 31 35
ATOM     35  C   PRO B1004      22.342  23.673  19.539  1.00 35.04 LIG 0.24  C 
ATOM     36  N   PRO B1005      22.914  24.534  20.393  1.00 35.67 LIG-0.34  N 
ATOM     37  CD  PRO B1005      22.370  24.950  21.697  1.00 35.53 LIG 0.13  C 
ATOM     38  CA  PRO B1005      24.167  25.245  20.111  1.00 36.27 LIG 0.17  C 
ATOM     39  CG  PRO B1005      23.075  26.263  21.929  1.00 36.24 LIG 0.02  C 
ATOM     40  CB  PRO B1005      24.442  25.986  21.415  1.00 36.11 LIG 0.04  C 
ATOM     41 O    PRO B1004      22.834  23.427  18.436  1.00 35.22 LIG-0.27  OA
BRANCH 38 42
ATOM     42  C   PRO B1005      25.313  24.312  19.723  1.00 36.62 LIG 0.22  C 
ATOM     43 O    PRO B1005      25.787  23.570  20.609  1.00 36.45 LIG-0.29  OA
ENDBRANCH 38 42
ENDBRANCH 31 35
ENDBRANCH 4 28
TORSDOF 8
ENDMDL
MODEL 11
USER: ADFR SOLUTION from run 89
USER: SCORE 11.920393 LL:  -3.230 LR:  -9.080 RR:   0.000 FEB:  -6.693
USER: RMSD 10.409326
USER: SEED 88
USER: STATUS no improvement in best in 15 clusters for 5 generations
USER: GENES 10
USER: genes 0 Translation |==|  0.60649 0.63543 0.60682
USER: genes 1 Rotation |==|  0.52006 0.52759 0.98943 0.59639
USER: genes 2 Torsion [O]-C--CA-[N] |==|  0.98626
USER: genes 3 Torsion [N]-C--CA-[N] |==|  0.27238
USER: genes 4 Torsion [C]-CA--N-[C] |==|  0.63052
USER: genes 5 Torsion [C]-CA--CB-[CG] |==|  0.64367
USER: genes 6 Torsion [CA]-CB--CG-[CD1] |==|  0.28137
USER: genes 7 Torsion [N]-CA--C-[O] |==|  0.86041
USER: genes 8 Torsion [N]-CA--C-[N] |==|  0.51015
USER: genes 9 Torsion [N]-CA--C-[O] |==|  0.55443
ROOT
ATOM      1  C   PRO B1002      22.348  23.200  19.770  1.00 33.09 LIG 0.24  C 
ATOM      2 O    PRO B1002      22.655  23.586  18.638  1.00 32.82 LIG-0.27  OA
ATOM      3  N   PRO B1003      21.531  22.156  19.964  1.00 33.61 LIG-0.34  N 
ATOM      4  CA  PRO B1003      20.966  21.441  18.819  1.00 34.05 LIG 0.18  C 
ATOM      5  CB  PRO B1003      20.284  20.243  19.472  1.00 34.65 LIG 0.04  C 
ATOM      6  CG  PRO B1003      19.838  20.796  20.786  1.00 34.15 LIG 0.02  C 
ATOM      7  CD  PRO B1003      21.051  21.582  21.233  1.00 34.31 LIG 0.13  C 
ENDROOT
BRANCH 1 8
ATOM      8  CA  PRO B1002      22.897  23.898  21.009  1.00 32.09 LIG 0.18  C 
ATOM      9  N   PRO B1002      23.854  24.918  20.585  1.00 31.87 LIG-0.34  N 
ATOM     10  C   PHE B1001      25.097  24.557  20.234  1.00 31.39 LIG 0.24  C 
ATOM     11  CD  PRO B1002      23.286  26.268  20.750  1.00 31.65 LIG 0.13  C 
ATOM     12 O    PHE B1001      25.471  23.381  20.266  1.00 31.36 LIG-0.27  OA
ATOM     13  CG  PRO B1002      21.805  25.977  20.944  1.00 31.59 LIG 0.02  C 
ATOM     14  CB  PRO B1002      21.831  24.711  21.738  1.00 32.35 LIG 0.04  C 
BRANCH 10 15
ATOM     15  CA  PHE B1001      26.042  25.663  19.793  1.00 30.70 LIG 0.18  C 
BRANCH 15 16
ATOM     16  N   PHE B1001      26.914  26.077  20.888  1.00 31.26 LIG-0.35  N 
ATOM     17  C   ACE B1000      27.115  27.360  21.184  1.00 32.54 LIG 0.21  C 
ATOM     18  CH3 ACE B1000      28.324  27.595  22.091  1.00 32.86 LIG 0.12  C 
ATOM     19 O    ACE B1000      26.627  28.288  20.527  1.00 32.71 LIG-0.27  OA
ATOM     20 H    PHE B1001      27.278  25.426  21.316  1.00 31.26 LIG 0.16  HD
ENDBRANCH 15 16
BRANCH 15 21
ATOM     21  CB  PHE B1001      26.854  25.129  18.607  1.00 29.45 LIG 0.07  C 
BRANCH 21 22
ATOM     22  CG  PHE B1001      28.334  25.285  18.757  1.00 29.10 LIG-0.06  A 
ATOM     23  CD2 PHE B1001      28.940  26.513  18.517  1.00 29.14 LIG 0.01  A 
ATOM     24  CE2 PHE B1001      30.316  26.662  18.649  1.00 28.22 LIG 0.00  A 
ATOM     25  CZ  PHE B1001      31.096  25.580  19.022  1.00 28.72 LIG 0.00  A 
ATOM     26  CE1 PHE B1001      30.498  24.348  19.265  1.00 29.15 LIG 0.00  A 
ATOM     27  CD1 PHE B1001      29.124  24.207  19.132  1.00 28.88 LIG 0.01  A 
ENDBRANCH 21 22
ENDBRANCH 15 21
ENDBRANCH 10 15
ENDBRANCH 1 8
BRANCH 4 28
ATOM     28  C   PRO B1003      19.987  22.317  18.039  1.00 33.85 LIG 0.24  C 
ATOM     29 O    PRO B1003      19.083  22.921  18.618  1.00 33.94 LIG-0.27  OA
ATOM     30  N   PRO B1004      20.169  22.414  16.713  1.00 34.14 LIG-0.34  N 
ATOM     31  CA  PRO B1004      19.271  23.228  15.893  1.00 34.66 LIG 0.18  C 
ATOM     32  CD  PRO B1004      21.261  21.850  15.899  1.00 34.36 LIG 0.13  C 
ATOM     33  CB  PRO B1004      19.986  23.268  14.542  1.00 34.44 LIG 0.04  C 
ATOM     34  CG  PRO B1004      20.702  21.957  14.502  1.00 34.41 LIG 0.02  C 
BRANCH 31 35
ATOM     35  C   PRO B1004      17.879  22.595  15.816  1.00 35.04 LIG 0.24  C 
ATOM     36  N   PRO B1005      16.970  23.194  15.034  1.00 35.67 LIG-0.34  N 
ATOM     37  CD  PRO B1005      17.164  24.445  14.281  1.00 35.53 LIG 0.13  C 
ATOM     38  CA  PRO B1005      15.597  22.703  14.865  1.00 36.27 LIG 0.17  C 
ATOM     39  CG  PRO B1005      15.746  24.915  14.076  1.00 36.24 LIG 0.02  C 
ATOM     40  CB  PRO B1005      15.024  23.643  13.809  1.00 36.11 LIG 0.04  C 
ATOM     41 O    PRO B1004      17.615  21.582  16.464  1.00 35.22 LIG-0.27  OA
BRANCH 38 42
ATOM     42  C   PRO B1005      15.531  21.240  14.433  1.00 36.62 LIG 0.22  C 
ATOM     43 O    PRO B1005      14.473  20.832  13.908  1.00 36.45 LIG-0.29  OA
ENDBRANCH 38 42
ENDBRANCH 31 35
ENDBRANCH 4 28
TORSDOF 8
ENDMDL
MODEL 12
USER: ADFR SOLUTION from run 40
USER: SCORE 11.983596 LL:  -2.970 LR:  -9.043 RR:   0.000 FEB:  -6.656
USER: RMSD 10.524774
USER: SEED 39
USER: STATUS no improvement in best in 10 clusters for 5 generations
USER: GENES 10
USER: genes 0 Translation |==|  0.44015 0.48134 0.61989
USER: genes 1 Rotation |==|  0.48767 0.36469 0.01895 0.51156
USER: genes 2 Torsion [O]-C--CA-[N] |==|  0.95311
USER: genes 3 Torsion [N]-C--CA-[N] |==|  0.43888
USER: genes 4 Torsion [C]-CA--N-[C] |==|  0.80277
USER: genes 5 Torsion [C]-CA--CB-[CG] |==|  0.60081
USER: genes 6 Torsion [CA]-CB--CG-[CD1] |==|  0.34791
USER: genes 7 Torsion [N]-CA--C-[O] |==|  0.03614
USER: genes 8 Torsion [N]-CA--C-[N] |==|  0.50874
USER: genes 9 Torsion [N]-CA--C-[O] |==|  0.77562
ROOT
ATOM      1  C   PRO B1002      18.605  20.079  19.986  1.00 33.09 LIG 0.24  C 
ATOM      2 O    PRO B1002      18.733  20.055  18.758  1.00 32.82 LIG-0.27  OA
ATOM      3  N   PRO B1003      18.315  18.977  20.689  1.00 33.61 LIG-0.34  N 
ATOM      4  CA  PRO B1003      18.131  17.696  20.007  1.00 34.05 LIG 0.18  C 
ATOM      5  CB  PRO B1003      18.022  16.708  21.165  1.00 34.65 LIG 0.04  C 
ATOM      6  CG  PRO B1003      17.361  17.523  22.228  1.00 34.15 LIG 0.02  C 
ATOM      7  CD  PRO B1003      18.110  18.835  22.141  1.00 34.31 LIG 0.13  C 
ENDROOT
BRANCH 1 8
ATOM      8  CA  PRO B1002      18.781  21.379  20.763  1.00 32.09 LIG 0.18  C 
ATOM      9  N   PRO B1002      19.477  22.342  19.912  1.00 31.87 LIG-0.34  N 
ATOM     10  C   PHE B1001      20.806  22.252  19.756  1.00 31.39 LIG 0.24  C 
ATOM     11  CD  PRO B1002      18.551  23.390  19.443  1.00 31.65 LIG 0.13  C 
ATOM     12 O    PHE B1001      21.474  21.381  20.321  1.00 31.36 LIG-0.27  OA
ATOM     13  CG  PRO B1002      17.190  22.787  19.760  1.00 31.59 LIG 0.02  C 
ATOM     14  CB  PRO B1002      17.451  22.071  21.046  1.00 32.35 LIG 0.04  C 
BRANCH 10 15
ATOM     15  CA  PHE B1001      21.469  23.277  18.851  1.00 30.70 LIG 0.18  C 
BRANCH 15 16
ATOM     16  N   PHE B1001      22.891  23.408  19.159  1.00 31.26 LIG-0.35  N 
ATOM     17  C   ACE B1000      23.319  23.988  20.279  1.00 32.54 LIG 0.21  C 
ATOM     18  CH3 ACE B1000      24.801  24.363  20.244  1.00 32.86 LIG 0.12  C 
ATOM     19 O    ACE B1000      22.557  24.500  21.108  1.00 32.71 LIG-0.27  OA
ATOM     20 H    PHE B1001      23.414  23.082  18.560  1.00 31.26 LIG 0.16  HD
ENDBRANCH 15 16
BRANCH 15 21
ATOM     21  CB  PHE B1001      21.254  22.819  17.404  1.00 29.45 LIG 0.07  C 
BRANCH 21 22
ATOM     22  CG  PHE B1001      22.409  23.097  16.495  1.00 29.10 LIG-0.06  A 
ATOM     23  CD2 PHE B1001      22.913  24.387  16.371  1.00 29.14 LIG 0.01  A 
ATOM     24  CE2 PHE B1001      23.983  24.653  15.523  1.00 28.22 LIG 0.00  A 
ATOM     25  CZ  PHE B1001      24.554  23.625  14.790  1.00 28.72 LIG 0.00  A 
ATOM     26  CE1 PHE B1001      24.057  22.332  14.908  1.00 29.15 LIG 0.00  A 
ATOM     27  CD1 PHE B1001      22.990  22.075  15.758  1.00 28.88 LIG 0.01  A 
ENDBRANCH 21 22
ENDBRANCH 15 21
ENDBRANCH 10 15
ENDBRANCH 1 8
BRANCH 4 28
ATOM     28  C   PRO B1003      16.882  17.704  19.126  1.00 33.85 LIG 0.24  C 
ATOM     29 O    PRO B1003      16.305  18.760  18.863  1.00 33.94 LIG-0.27  OA
ATOM     30  N   PRO B1004      16.462  16.526  18.642  1.00 34.14 LIG-0.34  N 
ATOM     31  CA  PRO B1004      15.270  16.447  17.796  1.00 34.66 LIG 0.18  C 
ATOM     32  CD  PRO B1004      17.103  15.205  18.772  1.00 34.36 LIG 0.13  C 
ATOM     33  CB  PRO B1004      15.319  15.012  17.270  1.00 34.44 LIG 0.04  C 
ATOM     34  CG  PRO B1004      15.986  14.270  18.382  1.00 34.41 LIG 0.02  C 
BRANCH 31 35
ATOM     35  C   PRO B1004      14.006  16.746  18.605  1.00 35.04 LIG 0.24  C 
ATOM     36  N   PRO B1005      12.828  16.647  17.973  1.00 35.67 LIG-0.34  N 
ATOM     37  CD  PRO B1005      12.634  16.332  16.547  1.00 35.53 LIG 0.13  C 
ATOM     38  CA  PRO B1005      11.536  16.906  18.620  1.00 36.27 LIG 0.17  C 
ATOM     39  CG  PRO B1005      11.259  16.892  16.283  1.00 36.24 LIG 0.02  C 
ATOM     40  CB  PRO B1005      10.530  16.546  17.531  1.00 36.11 LIG 0.04  C 
ATOM     41 O    PRO B1004      14.084  17.077  19.789  1.00 35.22 LIG-0.27  OA
BRANCH 38 42
ATOM     42  C   PRO B1005      11.327  16.088  19.893  1.00 36.62 LIG 0.22  C 
ATOM     43 O    PRO B1005      10.952  14.902  19.771  1.00 36.45 LIG-0.29  OA
ENDBRANCH 38 42
ENDBRANCH 31 35
ENDBRANCH 4 28
TORSDOF 8
ENDMDL
MODEL 13
USER: ADFR SOLUTION from run 62
USER: SCORE 11.828218 LL:  -3.255 LR:  -8.939 RR:   0.000 FEB:  -6.553
USER: RMSD 4.380257
USER: SEED 61
USER: STATUS no improvement in best in 9 clusters for 5 generations
USER: GENES 10
USER: genes 0 Translation |==|  0.32676 0.55915 0.42586
USER: genes 1 Rotation |==|  0.32624 0.29282 0.52703 0.91970
USER: genes 2 Torsion [O]-C--CA-[N] |==|  0.03103
USER: genes 3 Torsion [N]-C--CA-[N] |==|  0.27943
USER: genes 4 Torsion [C]-CA--N-[C] |==|  0.62905
USER: genes 5 Torsion [C]-CA--CB-[CG] |==|  0.30634
USER: genes 6 Torsion [CA]-CB--CG-[CD1] |==|  0.43396
USER: genes 7 Torsion [N]-CA--C-[O] |==|  0.04367
USER: genes 8 Torsion [N]-CA--C-[N] |==|  0.29742
USER: genes 9 Torsion [N]-CA--C-[O] |==|  0.87396
ROOT
ATOM      1  C   PRO B1002      16.054  21.655  16.785  1.00 33.09 LIG 0.24  C 
ATOM      2 O    PRO B1002      16.577  20.552  16.598  1.00 32.82 LIG-0.27  OA
ATOM      3  N   PRO B1003      16.536  22.770  16.222  1.00 33.61 LIG-0.34  N 
ATOM      4  CA  PRO B1003      17.720  22.710  15.364  1.00 34.05 LIG 0.18  C 
ATOM      5  CB  PRO B1003      17.796  24.122  14.793  1.00 34.65 LIG 0.04  C 
ATOM      6  CG  PRO B1003      17.256  24.956  15.909  1.00 34.15 LIG 0.02  C 
ATOM      7  CD  PRO B1003      16.051  24.155  16.354  1.00 34.31 LIG 0.13  C 
ENDROOT
BRANCH 1 8
ATOM      8  CA  PRO B1002      14.820  21.793  17.668  1.00 32.09 LIG 0.18  C 
ATOM      9  N   PRO B1002      14.613  20.536  18.384  1.00 31.87 LIG-0.34  N 
ATOM     10  C   PHE B1001      14.048  19.498  17.752  1.00 31.39 LIG 0.24  C 
ATOM     11  CD  PRO B1002      14.972  20.680  19.807  1.00 31.65 LIG 0.13  C 
ATOM     12 O    PHE B1001      13.680  19.568  16.576  1.00 31.36 LIG-0.27  OA
ATOM     13  CG  PRO B1002      15.754  21.985  19.816  1.00 31.59 LIG 0.02  C 
ATOM     14  CB  PRO B1002      15.024  22.800  18.798  1.00 32.35 LIG 0.04  C 
BRANCH 10 15
ATOM     15  CA  PHE B1001      13.869  18.215  18.547  1.00 30.70 LIG 0.18  C 
BRANCH 15 16
ATOM     16  N   PHE B1001      12.494  18.077  19.021  1.00 31.26 LIG-0.35  N 
ATOM     17  C   ACE B1000      12.212  17.734  20.276  1.00 32.54 LIG 0.21  C 
ATOM     18  CH3 ACE B1000      10.765  17.281  20.475  1.00 32.86 LIG 0.12  C 
ATOM     19 O    ACE B1000      13.081  17.457  21.112  1.00 32.71 LIG-0.27  OA
ATOM     20 H    PHE B1001      11.897  18.236  18.424  1.00 31.26 LIG 0.16  HD
ENDBRANCH 15 16
BRANCH 15 21
ATOM     21  CB  PHE B1001      14.261  17.048  17.633  1.00 29.45 LIG 0.07  C 
BRANCH 21 22
ATOM     22  CG  PHE B1001      15.531  16.362  18.025  1.00 29.10 LIG-0.06  A 
ATOM     23  CD2 PHE B1001      16.493  17.034  18.772  1.00 29.14 LIG 0.01  A 
ATOM     24  CE2 PHE B1001      17.678  16.403  19.135  1.00 28.22 LIG 0.00  A 
ATOM     25  CZ  PHE B1001      17.908  15.092  18.749  1.00 28.72 LIG 0.00  A 
ATOM     26  CE1 PHE B1001      16.952  14.413  18.002  1.00 29.15 LIG 0.00  A 
ATOM     27  CD1 PHE B1001      15.771  15.049  17.646  1.00 28.88 LIG 0.01  A 
ENDBRANCH 21 22
ENDBRANCH 15 21
ENDBRANCH 10 15
ENDBRANCH 1 8
BRANCH 4 28
ATOM     28  C   PRO B1003      18.970  22.332  16.159  1.00 33.85 LIG 0.24  C 
ATOM     29 O    PRO B1003      18.875  21.845  17.286  1.00 33.94 LIG-0.27  OA
ATOM     30  N   PRO B1004      20.158  22.533  15.570  1.00 34.14 LIG-0.34  N 
ATOM     31  CA  PRO B1004      21.403  22.204  16.266  1.00 34.66 LIG 0.18  C 
ATOM     32  CD  PRO B1004      20.430  22.996  14.197  1.00 34.36 LIG 0.13  C 
ATOM     33  CB  PRO B1004      22.454  22.332  15.164  1.00 34.44 LIG 0.04  C 
ATOM     34  CG  PRO B1004      21.883  23.390  14.276  1.00 34.41 LIG 0.02  C 
BRANCH 31 35
ATOM     35  C   PRO B1004      21.642  23.160  17.437  1.00 35.04 LIG 0.24  C 
ATOM     36  N   PRO B1005      21.465  22.678  18.676  1.00 35.67 LIG-0.34  N 
ATOM     37  CD  PRO B1005      21.001  21.322  19.019  1.00 35.53 LIG 0.13  C 
ATOM     38  CA  PRO B1005      21.654  23.477  19.892  1.00 36.27 LIG 0.17  C 
ATOM     39  CG  PRO B1005      20.466  21.516  20.416  1.00 36.24 LIG 0.02  C 
ATOM     40  CB  PRO B1005      21.452  22.457  21.008  1.00 36.11 LIG 0.04  C 
ATOM     41 O    PRO B1004      21.972  24.329  17.234  1.00 35.22 LIG-0.27  OA
BRANCH 38 42
ATOM     42  C   PRO B1005      23.026  24.146  19.963  1.00 36.62 LIG 0.22  C 
ATOM     43 O    PRO B1005      24.028  23.457  19.676  1.00 36.45 LIG-0.29  OA
ENDBRANCH 38 42
ENDBRANCH 31 35
ENDBRANCH 4 28
TORSDOF 8
ENDMDL
MODEL 14
USER: ADFR SOLUTION from run 190
USER: SCORE 12.935981 LL:  -4.197 LR:  -8.740 RR:   0.000 FEB:  -6.353
USER: RMSD 8.795404
USER: SEED 189
USER: STATUS no improvement in best in 9 clusters for 5 generations
USER: GENES 10
USER: genes 0 Translation |==|  0.41992 0.60002 0.51338
USER: genes 1 Rotation |==|  0.16019 0.80487 0.41573 0.68570
USER: genes 2 Torsion [O]-C--CA-[N] |==|  0.07795
USER: genes 3 Torsion [N]-C--CA-[N] |==|  0.38761
USER: genes 4 Torsion [C]-CA--N-[C] |==|  0.81701
USER: genes 5 Torsion [C]-CA--CB-[CG] |==|  0.18029
USER: genes 6 Torsion [CA]-CB--CG-[CD1] |==|  0.67609
USER: genes 7 Torsion [N]-CA--C-[O] |==|  0.96564
USER: genes 8 Torsion [N]-CA--C-[N] |==|  0.36011
USER: genes 9 Torsion [N]-CA--C-[O] |==|  0.84612
ROOT
ATOM      1  C   PRO B1002      18.150  22.482  18.229  1.00 33.09 LIG 0.24  C 
ATOM      2 O    PRO B1002      17.820  22.346  19.411  1.00 32.82 LIG-0.27  OA
ATOM      3  N   PRO B1003      17.327  22.163  17.223  1.00 33.61 LIG-0.34  N 
ATOM      4  CA  PRO B1003      15.994  21.626  17.504  1.00 34.05 LIG 0.18  C 
ATOM      5  CB  PRO B1003      15.344  21.595  16.124  1.00 34.65 LIG 0.04  C 
ATOM      6  CG  PRO B1003      16.502  21.317  15.223  1.00 34.15 LIG 0.02  C 
ATOM      7  CD  PRO B1003      17.566  22.243  15.771  1.00 34.31 LIG 0.13  C 
ENDROOT
BRANCH 1 8
ATOM      8  CA  PRO B1002      19.523  23.033  17.861  1.00 32.09 LIG 0.18  C 
ATOM      9  N   PRO B1002      20.461  22.703  18.932  1.00 31.87 LIG-0.34  N 
ATOM     10  C   PHE B1001      20.467  23.431  20.058  1.00 31.39 LIG 0.24  C 
ATOM     11  CD  PRO B1002      21.384  21.634  18.506  1.00 31.65 LIG 0.13  C 
ATOM     12 O    PHE B1001      19.707  24.390  20.222  1.00 31.36 LIG-0.27  OA
ATOM     13  CG  PRO B1002      20.702  21.092  17.258  1.00 31.59 LIG 0.02  C 
ATOM     14  CB  PRO B1002      20.126  22.329  16.649  1.00 32.35 LIG 0.04  C 
BRANCH 10 15
ATOM     15  CA  PHE B1001      21.460  23.031  21.137  1.00 30.70 LIG 0.18  C 
BRANCH 15 16
ATOM     16  N   PHE B1001      22.064  24.207  21.758  1.00 31.26 LIG-0.35  N 
ATOM     17  C   ACE B1000      22.861  25.031  21.081  1.00 32.54 LIG 0.21  C 
ATOM     18  CH3 ACE B1000      23.678  25.963  21.977  1.00 32.86 LIG 0.12  C 
ATOM     19 O    ACE B1000      23.190  24.836  19.905  1.00 32.71 LIG-0.27  OA
ATOM     20 H    PHE B1001      21.858  24.314  22.586  1.00 31.26 LIG 0.16  HD
ENDBRANCH 15 16
BRANCH 15 21
ATOM     21  CB  PHE B1001      20.702  22.186  22.168  1.00 29.45 LIG 0.07  C 
BRANCH 21 22
ATOM     22  CG  PHE B1001      20.191  20.884  21.637  1.00 29.10 LIG-0.06  A 
ATOM     23  CD2 PHE B1001      21.077  19.911  21.185  1.00 29.14 LIG 0.01  A 
ATOM     24  CE2 PHE B1001      20.608  18.702  20.685  1.00 28.22 LIG 0.00  A 
ATOM     25  CZ  PHE B1001      19.245  18.458  20.633  1.00 28.72 LIG 0.00  A 
ATOM     26  CE1 PHE B1001      18.352  19.424  21.084  1.00 29.15 LIG 0.00  A 
ATOM     27  CD1 PHE B1001      18.828  20.629  21.583  1.00 28.88 LIG 0.01  A 
ENDBRANCH 21 22
ENDBRANCH 15 21
ENDBRANCH 10 15
ENDBRANCH 1 8
BRANCH 4 28
ATOM     28  C   PRO B1003      16.071  20.241  18.145  1.00 33.85 LIG 0.24  C 
ATOM     29 O    PRO B1003      17.131  19.614  18.161  1.00 33.94 LIG-0.27  OA
ATOM     30  N   PRO B1004      14.951  19.757  18.702  1.00 34.14 LIG-0.34  N 
ATOM     31  CA  PRO B1004      14.940  18.436  19.332  1.00 34.66 LIG 0.18  C 
ATOM     32  CD  PRO B1004      13.648  20.428  18.863  1.00 34.36 LIG 0.13  C 
ATOM     33  CB  PRO B1004      13.588  18.409  20.044  1.00 34.44 LIG 0.04  C 
ATOM     34  CG  PRO B1004      12.732  19.271  19.174  1.00 34.41 LIG 0.02  C 
BRANCH 31 35
ATOM     35  C   PRO B1004      15.086  17.331  18.282  1.00 35.04 LIG 0.24  C 
ATOM     36  N   PRO B1005      16.022  16.395  18.495  1.00 35.67 LIG-0.34  N 
ATOM     37  CD  PRO B1005      16.970  16.359  19.622  1.00 35.53 LIG 0.13  C 
ATOM     38  CA  PRO B1005      16.277  15.279  17.576  1.00 36.27 LIG 0.17  C 
ATOM     39  CG  PRO B1005      18.077  15.492  19.077  1.00 36.24 LIG 0.02  C 
ATOM     40  CB  PRO B1005      17.326  14.457  18.318  1.00 36.11 LIG 0.04  C 
ATOM     41 O    PRO B1004      14.373  17.322  17.278  1.00 35.22 LIG-0.27  OA
BRANCH 38 42
ATOM     42  C   PRO B1005      15.025  14.465  17.258  1.00 36.62 LIG 0.22  C 
ATOM     43 O    PRO B1005      14.380  13.985  18.215  1.00 36.45 LIG-0.29  OA
ENDBRANCH 38 42
ENDBRANCH 31 35
ENDBRANCH 4 28
TORSDOF 8
ENDMDL
MODEL 15
USER: ADFR SOLUTION from run 1
USER: SCORE 12.394870 LL:  -3.946 LR:  -8.729 RR:   0.000 FEB:  -6.342
USER: RMSD 9.389547
USER: SEED 591215
USER: STATUS no improvement in best in 11 clusters for 5 generations
USER: GENES 10
USER: genes 0 Translation |==|  0.43701 0.58720 0.47987
USER: genes 1 Rotation |==|  0.23495 0.86738 0.63449 0.66339
USER: genes 2 Torsion [O]-C--CA-[N] |==|  0.93764
USER: genes 3 Torsion [N]-C--CA-[N] |==|  0.49990
USER: genes 4 Torsion [C]-CA--N-[C] |==|  0.55562
USER: genes 5 Torsion [C]-CA--CB-[CG] |==|  0.86152
USER: genes 6 Torsion [CA]-CB--CG-[CD1] |==|  0.38946
USER: genes 7 Torsion [N]-CA--C-[O] |==|  0.83874
USER: genes 8 Torsion [N]-CA--C-[N] |==|  0.53144
USER: genes 9 Torsion [N]-CA--C-[O] |==|  0.63269
ROOT
ATOM      1  C   PRO B1002      18.535  22.223  17.676  1.00 33.09 LIG 0.24  C 
ATOM      2 O    PRO B1002      18.956  21.382  18.476  1.00 32.82 LIG-0.27  OA
ATOM      3  N   PRO B1003      17.225  22.390  17.450  1.00 33.61 LIG-0.34  N 
ATOM      4  CA  PRO B1003      16.245  21.561  18.152  1.00 34.05 LIG 0.18  C 
ATOM      5  CB  PRO B1003      14.917  22.203  17.762  1.00 34.65 LIG 0.04  C 
ATOM      6  CG  PRO B1003      15.188  22.700  16.379  1.00 34.15 LIG 0.02  C 
ATOM      7  CD  PRO B1003      16.560  23.322  16.523  1.00 34.31 LIG 0.13  C 
ENDROOT
BRANCH 1 8
ATOM      8  CA  PRO B1002      19.498  23.120  16.908  1.00 32.09 LIG 0.18  C 
ATOM      9  N   PRO B1002      20.760  23.188  17.641  1.00 31.87 LIG-0.34  N 
ATOM     10  C   PHE B1001      20.864  23.988  18.711  1.00 31.39 LIG 0.24  C 
ATOM     11  CD  PRO B1002      21.806  22.407  16.954  1.00 31.65 LIG 0.13  C 
ATOM     12 O    PHE B1001      19.924  24.688  19.099  1.00 31.36 LIG-0.27  OA
ATOM     13  CG  PRO B1002      20.997  21.570  15.974  1.00 31.59 LIG 0.02  C 
ATOM     14  CB  PRO B1002      19.912  22.515  15.569  1.00 32.35 LIG 0.04  C 
BRANCH 10 15
ATOM     15  CA  PHE B1001      22.199  24.007  19.437  1.00 30.70 LIG 0.18  C 
BRANCH 15 16
ATOM     16  N   PHE B1001      22.166  24.920  20.577  1.00 31.26 LIG-0.35  N 
ATOM     17  C   ACE B1000      23.278  25.407  21.122  1.00 32.54 LIG 0.21  C 
ATOM     18  CH3 ACE B1000      23.060  26.024  22.505  1.00 32.86 LIG 0.12  C 
ATOM     19 O    ACE B1000      24.412  25.086  20.745  1.00 32.71 LIG-0.27  OA
ATOM     20 H    PHE B1001      21.375  25.108  20.856  1.00 31.26 LIG 0.16  HD
ENDBRANCH 15 16
BRANCH 15 21
ATOM     21  CB  PHE B1001      22.500  22.571  19.883  1.00 29.45 LIG 0.07  C 
BRANCH 21 22
ATOM     22  CG  PHE B1001      21.372  21.903  20.604  1.00 29.10 LIG-0.06  A 
ATOM     23  CD2 PHE B1001      20.604  22.613  21.520  1.00 29.14 LIG 0.01  A 
ATOM     24  CE2 PHE B1001      19.558  21.996  22.198  1.00 28.22 LIG 0.00  A 
ATOM     25  CZ  PHE B1001      19.275  20.661  21.962  1.00 28.72 LIG 0.00  A 
ATOM     26  CE1 PHE B1001      20.037  19.944  21.046  1.00 29.15 LIG 0.00  A 
ATOM     27  CD1 PHE B1001      21.078  20.567  20.373  1.00 28.88 LIG 0.01  A 
ENDBRANCH 21 22
ENDBRANCH 15 21
ENDBRANCH 10 15
ENDBRANCH 1 8
BRANCH 4 28
ATOM     28  C   PRO B1003      16.336  20.098  17.719  1.00 33.85 LIG 0.24  C 
ATOM     29 O    PRO B1003      16.192  19.781  16.538  1.00 33.94 LIG-0.27  OA
ATOM     30  N   PRO B1004      16.598  19.190  18.671  1.00 34.14 LIG-0.34  N 
ATOM     31  CA  PRO B1004      16.695  17.767  18.341  1.00 34.66 LIG 0.18  C 
ATOM     32  CD  PRO B1004      16.906  19.421  20.094  1.00 34.36 LIG 0.13  C 
ATOM     33  CB  PRO B1004      17.256  17.156  19.625  1.00 34.44 LIG 0.04  C 
ATOM     34  CG  PRO B1004      16.707  18.050  20.689  1.00 34.41 LIG 0.02  C 
BRANCH 31 35
ATOM     35  C   PRO B1004      15.326  17.202  17.956  1.00 35.04 LIG 0.24  C 
ATOM     36  N   PRO B1005      15.212  15.870  17.853  1.00 35.67 LIG-0.34  N 
ATOM     37  CD  PRO B1005      16.301  14.893  18.020  1.00 35.53 LIG 0.13  C 
ATOM     38  CA  PRO B1005      13.964  15.189  17.490  1.00 36.27 LIG 0.17  C 
ATOM     39  CG  PRO B1005      15.769  13.696  17.272  1.00 36.24 LIG 0.02  C 
ATOM     40  CB  PRO B1005      14.326  13.713  17.629  1.00 36.11 LIG 0.04  C 
ATOM     41 O    PRO B1004      14.376  17.956  17.738  1.00 35.22 LIG-0.27  OA
BRANCH 38 42
ATOM     42  C   PRO B1005      12.785  15.580  18.380  1.00 36.62 LIG 0.22  C 
ATOM     43 O    PRO B1005      12.077  14.663  18.849  1.00 36.45 LIG-0.29  OA
ENDBRANCH 38 42
ENDBRANCH 31 35
ENDBRANCH 4 28
TORSDOF 8
ENDMDL
MODEL 16
USER: ADFR SOLUTION from run 197
USER: SCORE 11.908312 LL:  -3.431 LR:  -8.655 RR:   0.000 FEB:  -6.268
USER: RMSD 10.421773
USER: SEED 196
USER: STATUS no improvement in best in 8 clusters for 5 generations
USER: GENES 10
USER: genes 0 Translation |==|  0.61631 0.65343 0.48237
USER: genes 1 Rotation |==|  0.25353 0.11689 0.29481 0.51946
USER: genes 2 Torsion [O]-C--CA-[N] |==|  0.80786
USER: genes 3 Torsion [N]-C--CA-[N] |==|  0.28355
USER: genes 4 Torsion [C]-CA--N-[C] |==|  0.74985
USER: genes 5 Torsion [C]-CA--CB-[CG] |==|  0.68577
USER: genes 6 Torsion [CA]-CB--CG-[CD1] |==|  0.23515
USER: genes 7 Torsion [N]-CA--C-[O] |==|  0.80172
USER: genes 8 Torsion [N]-CA--C-[N] |==|  0.29329
USER: genes 9 Torsion [N]-CA--C-[O] |==|  0.90628
ROOT
ATOM      1  C   PRO B1002      22.569  23.564  17.717  1.00 33.09 LIG 0.24  C 
ATOM      2 O    PRO B1002      21.827  22.607  17.960  1.00 32.82 LIG-0.27  OA
ATOM      3  N   PRO B1003      23.401  24.066  18.638  1.00 33.61 LIG-0.34  N 
ATOM      4  CA  PRO B1003      23.446  23.489  19.982  1.00 34.05 LIG 0.18  C 
ATOM      5  CB  PRO B1003      24.632  24.207  20.619  1.00 34.65 LIG 0.04  C 
ATOM      6  CG  PRO B1003      24.585  25.553  19.973  1.00 34.15 LIG 0.02  C 
ATOM      7  CD  PRO B1003      24.329  25.205  18.523  1.00 34.31 LIG 0.13  C 
ENDROOT
BRANCH 1 8
ATOM      8  CA  PRO B1002      22.573  24.217  16.340  1.00 32.09 LIG 0.18  C 
ATOM      9  N   PRO B1002      23.158  23.282  15.381  1.00 31.87 LIG-0.34  N 
ATOM     10  C   PHE B1001      24.490  23.140  15.321  1.00 31.39 LIG 0.24  C 
ATOM     11  CD  PRO B1002      22.118  22.716  14.503  1.00 31.65 LIG 0.13  C 
ATOM     12 O    PHE B1001      25.251  23.785  16.047  1.00 31.36 LIG-0.27  OA
ATOM     13  CG  PRO B1002      20.836  23.083  15.237  1.00 31.59 LIG 0.02  C 
ATOM     14  CB  PRO B1002      21.164  24.430  15.794  1.00 32.35 LIG 0.04  C 
BRANCH 10 15
ATOM     15  CA  PHE B1001      25.036  22.145  14.309  1.00 30.70 LIG 0.18  C 
BRANCH 15 16
ATOM     16  N   PHE B1001      25.553  22.828  13.126  1.00 31.26 LIG-0.35  N 
ATOM     17  C   ACE B1000      24.784  23.089  12.071  1.00 32.54 LIG 0.21  C 
ATOM     18  CH3 ACE B1000      25.576  23.457  10.815  1.00 32.86 LIG 0.12  C 
ATOM     19 O    ACE B1000      23.603  22.731  11.991  1.00 32.71 LIG-0.27  OA
ATOM     20 H    PHE B1001      26.385  23.041  13.176  1.00 31.26 LIG 0.16  HD
ENDBRANCH 15 16
BRANCH 15 21
ATOM     21  CB  PHE B1001      26.134  21.335  15.008  1.00 29.45 LIG 0.07  C 
BRANCH 21 22
ATOM     22  CG  PHE B1001      27.509  21.574  14.470  1.00 29.10 LIG-0.06  A 
ATOM     23  CD2 PHE B1001      28.047  20.726  13.508  1.00 29.14 LIG 0.01  A 
ATOM     24  CE2 PHE B1001      29.327  20.940  13.009  1.00 28.22 LIG 0.00  A 
ATOM     25  CZ  PHE B1001      30.079  22.007  13.472  1.00 28.72 LIG 0.00  A 
ATOM     26  CE1 PHE B1001      29.549  22.861  14.433  1.00 29.15 LIG 0.00  A 
ATOM     27  CD1 PHE B1001      28.270  22.642  14.925  1.00 28.88 LIG 0.01  A 
ENDBRANCH 21 22
ENDBRANCH 15 21
ENDBRANCH 10 15
ENDBRANCH 1 8
BRANCH 4 28
ATOM     28  C   PRO B1003      22.141  23.730  20.741  1.00 33.85 LIG 0.24  C 
ATOM     29 O    PRO B1003      21.847  24.855  21.143  1.00 33.94 LIG-0.27  OA
ATOM     30  N   PRO B1004      21.333  22.675  20.925  1.00 34.14 LIG-0.34  N 
ATOM     31  CA  PRO B1004      20.068  22.820  21.647  1.00 34.66 LIG 0.18  C 
ATOM     32  CD  PRO B1004      21.490  21.303  20.410  1.00 34.36 LIG 0.13  C 
ATOM     33  CB  PRO B1004      19.374  21.483  21.392  1.00 34.44 LIG 0.04  C 
ATOM     34  CG  PRO B1004      20.518  20.530  21.265  1.00 34.41 LIG 0.02  C 
BRANCH 31 35
ATOM     35  C   PRO B1004      20.316  23.093  23.133  1.00 35.04 LIG 0.24  C 
ATOM     36  N   PRO B1005      20.112  24.342  23.576  1.00 35.67 LIG-0.34  N 
ATOM     37  CD  PRO B1005      19.725  25.500  22.752  1.00 35.53 LIG 0.13  C 
ATOM     38  CA  PRO B1005      20.312  24.750  24.971  1.00 36.27 LIG 0.17  C 
ATOM     39  CG  PRO B1005      20.180  26.659  23.602  1.00 36.24 LIG 0.02  C 
ATOM     40  CB  PRO B1005      19.839  26.201  24.975  1.00 36.11 LIG 0.04  C 
ATOM     41 O    PRO B1004      20.702  22.192  23.879  1.00 35.22 LIG-0.27  OA
BRANCH 38 42
ATOM     42  C   PRO B1005      19.536  23.888  25.966  1.00 36.62 LIG 0.22  C 
ATOM     43 O    PRO B1005      18.426  23.440  25.610  1.00 36.45 LIG-0.29  OA
ENDBRANCH 38 42
ENDBRANCH 31 35
ENDBRANCH 4 28
TORSDOF 8
ENDMDL
MODEL 17
USER: ADFR SOLUTION from run 118
USER: SCORE 12.112179 LL:  -3.696 LR:  -8.584 RR:   0.000 FEB:  -6.197
USER: RMSD 8.911281
USER: SEED 117
USER: STATUS no improvement in best in 16 clusters for 5 generations
USER: GENES 10
USER: genes 0 Translation |==|  0.33686 0.51424 0.67846
USER: genes 1 Rotation |==|  0.28933 0.86881 0.73261 0.62446
USER: genes 2 Torsion [O]-C--CA-[N] |==|  0.99863
USER: genes 3 Torsion [N]-C--CA-[N] |==|  0.32792
USER: genes 4 Torsion [C]-CA--N-[C] |==|  0.70813
USER: genes 5 Torsion [C]-CA--CB-[CG] |==|  0.13068
USER: genes 6 Torsion [CA]-CB--CG-[CD1] |==|  0.66406
USER: genes 7 Torsion [N]-CA--C-[O] |==|  0.42335
USER: genes 8 Torsion [N]-CA--C-[N] |==|  0.47021
USER: genes 9 Torsion [N]-CA--C-[O] |==|  0.37578
ROOT
ATOM      1  C   PRO B1002      16.281  20.745  20.953  1.00 33.09 LIG 0.24  C 
ATOM      2 O    PRO B1002      16.932  19.749  21.281  1.00 32.82 LIG-0.27  OA
ATOM      3  N   PRO B1003      14.991  20.888  21.282  1.00 33.61 LIG-0.34  N 
ATOM      4  CA  PRO B1003      14.307  19.845  22.047  1.00 34.05 LIG 0.18  C 
ATOM      5  CB  PRO B1003      12.961  20.487  22.366  1.00 34.65 LIG 0.04  C 
ATOM      6  CG  PRO B1003      12.718  21.349  21.170  1.00 34.15 LIG 0.02  C 
ATOM      7  CD  PRO B1003      14.071  21.992  20.957  1.00 34.31 LIG 0.13  C 
ENDROOT
BRANCH 1 8
ATOM      8  CA  PRO B1002      16.928  21.870  20.154  1.00 32.09 LIG 0.18  C 
ATOM      9  N   PRO B1002      18.329  21.529  19.915  1.00 31.87 LIG-0.34  N 
ATOM     10  C   PHE B1001      19.230  21.702  20.893  1.00 31.39 LIG 0.24  C 
ATOM     11  CD  PRO B1002      18.542  21.149  18.506  1.00 31.65 LIG 0.13  C 
ATOM     12 O    PHE B1001      18.919  22.154  21.998  1.00 31.36 LIG-0.27  OA
ATOM     13  CG  PRO B1002      17.120  20.924  18.011  1.00 31.59 LIG 0.02  C 
ATOM     14  CB  PRO B1002      16.359  21.983  18.742  1.00 32.35 LIG 0.04  C 
BRANCH 10 15
ATOM     15  CA  PHE B1001      20.669  21.319  20.586  1.00 30.70 LIG 0.18  C 
BRANCH 15 16
ATOM     16  N   PHE B1001      21.553  22.478  20.678  1.00 31.26 LIG-0.35  N 
ATOM     17  C   ACE B1000      22.040  23.081  19.596  1.00 32.54 LIG 0.21  C 
ATOM     18  CH3 ACE B1000      23.216  24.011  19.893  1.00 32.86 LIG 0.12  C 
ATOM     19 O    ACE B1000      21.827  22.679  18.446  1.00 32.71 LIG-0.27  OA
ATOM     20 H    PHE B1001      21.724  22.729  21.483  1.00 31.26 LIG 0.16  HD
ENDBRANCH 15 16
BRANCH 15 21
ATOM     21  CB  PHE B1001      21.077  20.228  21.582  1.00 29.45 LIG 0.07  C 
BRANCH 21 22
ATOM     22  CG  PHE B1001      20.074  19.128  21.733  1.00 29.10 LIG-0.06  A 
ATOM     23  CD2 PHE B1001      19.690  18.369  20.633  1.00 29.14 LIG 0.01  A 
ATOM     24  CE2 PHE B1001      18.754  17.350  20.766  1.00 28.22 LIG 0.00  A 
ATOM     25  CZ  PHE B1001      18.194  17.084  22.004  1.00 28.72 LIG 0.00  A 
ATOM     26  CE1 PHE B1001      18.572  17.837  23.110  1.00 29.15 LIG 0.00  A 
ATOM     27  CD1 PHE B1001      19.508  18.852  22.970  1.00 28.88 LIG 0.01  A 
ENDBRANCH 21 22
ENDBRANCH 15 21
ENDBRANCH 10 15
ENDBRANCH 1 8
BRANCH 4 28
ATOM     28  C   PRO B1003      14.163  18.558  21.235  1.00 33.85 LIG 0.24  C 
ATOM     29 O    PRO B1003      14.099  17.464  21.797  1.00 33.94 LIG-0.27  OA
ATOM     30  N   PRO B1004      14.090  18.676  19.901  1.00 34.14 LIG-0.34  N 
ATOM     31  CA  PRO B1004      13.958  17.492  19.052  1.00 34.66 LIG 0.18  C 
ATOM     32  CD  PRO B1004      14.038  19.910  19.096  1.00 34.36 LIG 0.13  C 
ATOM     33  CB  PRO B1004      13.646  18.089  17.680  1.00 34.44 LIG 0.04  C 
ATOM     34  CG  PRO B1004      14.362  19.400  17.714  1.00 34.41 LIG 0.02  C 
BRANCH 31 35
ATOM     35  C   PRO B1004      15.245  16.663  19.067  1.00 35.04 LIG 0.24  C 
ATOM     36  N   PRO B1005      15.201  15.442  18.516  1.00 35.67 LIG-0.34  N 
ATOM     37  CD  PRO B1005      14.010  14.792  17.945  1.00 35.53 LIG 0.13  C 
ATOM     38  CA  PRO B1005      16.355  14.536  18.461  1.00 36.27 LIG 0.17  C 
ATOM     39  CG  PRO B1005      14.385  13.332  18.008  1.00 36.24 LIG 0.02  C 
ATOM     40  CB  PRO B1005      15.827  13.358  17.648  1.00 36.11 LIG 0.04  C 
ATOM     41 O    PRO B1004      16.271  17.109  19.582  1.00 35.22 LIG-0.27  OA
BRANCH 38 42
ATOM     42  C   PRO B1005      17.588  15.172  17.822  1.00 36.62 LIG 0.22  C 
ATOM     43 O    PRO B1005      18.691  15.001  18.383  1.00 36.45 LIG-0.29  OA
ENDBRANCH 38 42
ENDBRANCH 31 35
ENDBRANCH 4 28
TORSDOF 8
ENDMDL
MODEL 18
USER: ADFR SOLUTION from run 19
USER: SCORE 11.862405 LL:  -3.305 LR:  -8.571 RR:   0.000 FEB:  -6.185
USER: RMSD 10.220362
USER: SEED 18
USER: STATUS no improvement in best in 9 clusters for 5 generations
USER: GENES 10
USER: genes 0 Translation |==|  0.47889 0.55141 0.56412
USER: genes 1 Rotation |==|  0.51223 0.75156 0.93193 0.50187
USER: genes 2 Torsion [O]-C--CA-[N] |==|  0.94431
USER: genes 3 Torsion [N]-C--CA-[N] |==|  0.42195
USER: genes 4 Torsion [C]-CA--N-[C] |==|  0.81342
USER: genes 5 Torsion [C]-CA--CB-[CG] |==|  0.55669
USER: genes 6 Torsion [CA]-CB--CG-[CD1] |==|  0.73921
USER: genes 7 Torsion [N]-CA--C-[O] |==|  0.98219
USER: genes 8 Torsion [N]-CA--C-[N] |==|  0.33129
USER: genes 9 Torsion [N]-CA--C-[O] |==|  0.25094
ROOT
ATOM      1  C   PRO B1002      19.477  21.498  19.066  1.00 33.09 LIG 0.24  C 
ATOM      2 O    PRO B1002      19.617  20.876  18.008  1.00 32.82 LIG-0.27  OA
ATOM      3  N   PRO B1003      19.135  20.886  20.207  1.00 33.61 LIG-0.34  N 
ATOM      4  CA  PRO B1003      18.908  19.440  20.227  1.00 34.05 LIG 0.18  C 
ATOM      5  CB  PRO B1003      18.747  19.144  21.715  1.00 34.65 LIG 0.04  C 
ATOM      6  CG  PRO B1003      18.107  20.391  22.229  1.00 34.15 LIG 0.02  C 
ATOM      7  CD  PRO B1003      18.909  21.473  21.539  1.00 34.31 LIG 0.13  C 
ENDROOT
BRANCH 1 8
ATOM      8  CA  PRO B1002      19.695  23.005  19.119  1.00 32.09 LIG 0.18  C 
ATOM      9  N   PRO B1002      20.503  23.402  17.968  1.00 31.87 LIG-0.34  N 
ATOM     10  C   PHE B1001      21.829  23.206  17.988  1.00 31.39 LIG 0.24  C 
ATOM     11  CD  PRO B1002      19.679  24.110  16.971  1.00 31.65 LIG 0.13  C 
ATOM     12 O    PHE B1001      22.403  22.707  18.960  1.00 31.36 LIG-0.27  OA
ATOM     13  CG  PRO B1002      18.264  23.784  17.426  1.00 31.59 LIG 0.02  C 
ATOM     14  CB  PRO B1002      18.401  23.788  18.914  1.00 32.35 LIG 0.04  C 
BRANCH 10 15
ATOM     15  CA  PHE B1001      22.612  23.631  16.757  1.00 30.70 LIG 0.18  C 
BRANCH 15 16
ATOM     16  N   PHE B1001      23.984  23.992  17.104  1.00 31.26 LIG-0.35  N 
ATOM     17  C   ACE B1000      24.265  25.063  17.843  1.00 32.54 LIG 0.21  C 
ATOM     18  CH3 ACE B1000      25.736  25.478  17.781  1.00 32.86 LIG 0.12  C 
ATOM     19 O    ACE B1000      23.402  25.854  18.242  1.00 32.71 LIG-0.27  OA
ATOM     20 H    PHE B1001      24.580  23.457  16.792  1.00 31.26 LIG 0.16  HD
ENDBRANCH 15 16
BRANCH 15 21
ATOM     21  CB  PHE B1001      22.579  22.462  15.765  1.00 29.45 LIG 0.07  C 
BRANCH 21 22
ATOM     22  CG  PHE B1001      23.663  22.500  14.735  1.00 29.10 LIG-0.06  A 
ATOM     23  CD2 PHE B1001      24.914  21.957  15.008  1.00 29.14 LIG 0.01  A 
ATOM     24  CE2 PHE B1001      25.927  21.995  14.056  1.00 28.22 LIG 0.00  A 
ATOM     25  CZ  PHE B1001      25.693  22.580  12.823  1.00 28.72 LIG 0.00  A 
ATOM     26  CE1 PHE B1001      24.446  23.124  12.540  1.00 29.15 LIG 0.00  A 
ATOM     27  CD1 PHE B1001      23.439  23.082  13.495  1.00 28.88 LIG 0.01  A 
ENDBRANCH 21 22
ENDBRANCH 15 21
ENDBRANCH 10 15
ENDBRANCH 1 8
BRANCH 4 28
ATOM     28  C   PRO B1003      17.670  19.056  19.417  1.00 33.85 LIG 0.24  C 
ATOM     29 O    PRO B1003      16.934  19.922  18.945  1.00 33.94 LIG-0.27  OA
ATOM     30  N   PRO B1004      17.440  17.748  19.229  1.00 34.14 LIG-0.34  N 
ATOM     31  CA  PRO B1004      16.272  17.296  18.469  1.00 34.66 LIG 0.18  C 
ATOM     32  CD  PRO B1004      18.281  16.605  19.628  1.00 34.36 LIG 0.13  C 
ATOM     33  CB  PRO B1004      16.545  15.804  18.280  1.00 34.44 LIG 0.04  C 
ATOM     34  CG  PRO B1004      17.324  15.447  19.504  1.00 34.41 LIG 0.02  C 
BRANCH 31 35
ATOM     35  C   PRO B1004      14.980  17.577  19.240  1.00 35.04 LIG 0.24  C 
ATOM     36  N   PRO B1005      14.081  18.389  18.666  1.00 35.67 LIG-0.34  N 
ATOM     37  CD  PRO B1005      14.244  19.091  17.381  1.00 35.53 LIG 0.13  C 
ATOM     38  CA  PRO B1005      12.801  18.750  19.286  1.00 36.27 LIG 0.17  C 
ATOM     39  CG  PRO B1005      13.260  20.226  17.512  1.00 36.24 LIG 0.02  C 
ATOM     40  CB  PRO B1005      12.115  19.576  18.202  1.00 36.11 LIG 0.04  C 
ATOM     41 O    PRO B1004      14.791  17.078  20.350  1.00 35.22 LIG-0.27  OA
BRANCH 38 42
ATOM     42  C   PRO B1005      11.970  17.536  19.699  1.00 36.62 LIG 0.22  C 
ATOM     43 O    PRO B1005      12.131  17.082  20.852  1.00 36.45 LIG-0.29  OA
ENDBRANCH 38 42
ENDBRANCH 31 35
ENDBRANCH 4 28
TORSDOF 8
ENDMDL
MODEL 19
USER: ADFR SOLUTION from run 134
USER: SCORE 12.468703 LL:  -3.897 LR:  -8.573 RR:   0.000 FEB:  -6.186
USER: RMSD 10.232841
USER: SEED 133
USER: STATUS no improvement in best in 7 clusters for 5 generations
USER: GENES 10
USER: genes 0 Translation |==|  0.57233 0.64149 0.46909
USER: genes 1 Rotation |==|  0.29344 0.92452 0.65028 0.56732
USER: genes 2 Torsion [O]-C--CA-[N] |==|  0.90382
USER: genes 3 Torsion [N]-C--CA-[N] |==|  0.39398
USER: genes 4 Torsion [C]-CA--N-[C] |==|  0.81748
USER: genes 5 Torsion [C]-CA--CB-[CG] |==|  0.89506
USER: genes 6 Torsion [CA]-CB--CG-[CD1] |==|  0.25345
USER: genes 7 Torsion [N]-CA--C-[O] |==|  0.91769
USER: genes 8 Torsion [N]-CA--C-[N] |==|  0.49439
USER: genes 9 Torsion [N]-CA--C-[O] |==|  0.71531
ROOT
ATOM      1  C   PRO B1002      21.579  23.322  17.498  1.00 33.09 LIG 0.24  C 
ATOM      2 O    PRO B1002      22.202  22.499  18.176  1.00 32.82 LIG-0.27  OA
ATOM      3  N   PRO B1003      20.344  23.719  17.827  1.00 33.61 LIG-0.34  N 
ATOM      4  CA  PRO B1003      19.686  23.172  19.014  1.00 34.05 LIG 0.18  C 
ATOM      5  CB  PRO B1003      18.422  24.020  19.121  1.00 34.65 LIG 0.04  C 
ATOM      6  CG  PRO B1003      18.103  24.314  17.692  1.00 34.15 LIG 0.02  C 
ATOM      7  CD  PRO B1003      19.461  24.667  17.125  1.00 34.31 LIG 0.13  C 
ENDROOT
BRANCH 1 8
ATOM      8  CA  PRO B1002      22.201  23.932  16.248  1.00 32.09 LIG 0.18  C 
ATOM      9  N   PRO B1002      23.637  24.091  16.468  1.00 31.87 LIG-0.34  N 
ATOM     10  C   PHE B1001      24.086  25.122  17.199  1.00 31.39 LIG 0.24  C 
ATOM     11  CD  PRO B1002      24.398  23.094  15.693  1.00 31.65 LIG 0.13  C 
ATOM     12 O    PHE B1001      23.324  25.959  17.688  1.00 31.36 LIG-0.27  OA
ATOM     13  CG  PRO B1002      23.318  22.099  15.292  1.00 31.59 LIG 0.02  C 
ATOM     14  CB  PRO B1002      22.142  22.988  15.049  1.00 32.35 LIG 0.04  C 
BRANCH 10 15
ATOM     15  CA  PHE B1001      25.589  25.226  17.400  1.00 30.70 LIG 0.18  C 
BRANCH 15 16
ATOM     16  N   PHE B1001      26.031  26.617  17.355  1.00 31.26 LIG-0.35  N 
ATOM     17  C   ACE B1000      25.948  27.348  16.245  1.00 32.54 LIG 0.21  C 
ATOM     18  CH3 ACE B1000      26.788  28.625  16.290  1.00 32.86 LIG 0.12  C 
ATOM     19 O    ACE B1000      25.545  26.894  15.167  1.00 32.71 LIG-0.27  OA
ATOM     20 H    PHE B1001      26.343  26.914  18.100  1.00 31.26 LIG 0.16  HD
ENDBRANCH 15 16
BRANCH 15 21
ATOM     21  CB  PHE B1001      25.917  24.582  18.753  1.00 29.45 LIG 0.07  C 
BRANCH 21 22
ATOM     22  CG  PHE B1001      24.902  24.844  19.819  1.00 29.10 LIG-0.06  A 
ATOM     23  CD2 PHE B1001      25.008  25.966  20.633  1.00 29.14 LIG 0.01  A 
ATOM     24  CE2 PHE B1001      24.070  26.212  21.630  1.00 28.22 LIG 0.00  A 
ATOM     25  CZ  PHE B1001      23.018  25.331  21.819  1.00 28.72 LIG 0.00  A 
ATOM     26  CE1 PHE B1001      22.902  24.207  21.009  1.00 29.15 LIG 0.00  A 
ATOM     27  CD1 PHE B1001      23.841  23.970  20.016  1.00 28.88 LIG 0.01  A 
ENDBRANCH 21 22
ENDBRANCH 15 21
ENDBRANCH 10 15
ENDBRANCH 1 8
BRANCH 4 28
ATOM     28  C   PRO B1003      19.379  21.684  18.849  1.00 33.85 LIG 0.24  C 
ATOM     29 O    PRO B1003      19.157  21.207  17.736  1.00 33.94 LIG-0.27  OA
ATOM     30  N   PRO B1004      19.383  20.928  19.957  1.00 34.14 LIG-0.34  N 
ATOM     31  CA  PRO B1004      19.093  19.495  19.886  1.00 34.66 LIG 0.18  C 
ATOM     32  CD  PRO B1004      19.738  21.325  21.332  1.00 34.36 LIG 0.13  C 
ATOM     33  CB  PRO B1004      19.464  19.002  21.284  1.00 34.44 LIG 0.04  C 
ATOM     34  CG  PRO B1004      19.175  20.188  22.146  1.00 34.41 LIG 0.02  C 
BRANCH 31 35
ATOM     35  C   PRO B1004      17.623  19.254  19.535  1.00 35.04 LIG 0.24  C 
ATOM     36  N   PRO B1005      17.221  17.982  19.394  1.00 35.67 LIG-0.34  N 
ATOM     37  CD  PRO B1005      18.078  16.788  19.488  1.00 35.53 LIG 0.13  C 
ATOM     38  CA  PRO B1005      15.845  17.600  19.057  1.00 36.27 LIG 0.17  C 
ATOM     39  CG  PRO B1005      17.277  15.764  18.723  1.00 36.24 LIG 0.02  C 
ATOM     40  CB  PRO B1005      15.883  16.077  19.134  1.00 36.11 LIG 0.04  C 
ATOM     41 O    PRO B1004      16.852  20.202  19.377  1.00 35.22 LIG-0.27  OA
BRANCH 38 42
ATOM     42  C   PRO B1005      14.806  18.199  20.003  1.00 36.62 LIG 0.22  C 
ATOM     43 O    PRO B1005      14.318  17.457  20.882  1.00 36.45 LIG-0.29  OA
ENDBRANCH 38 42
ENDBRANCH 31 35
ENDBRANCH 4 28
TORSDOF 8
ENDMDL
MODEL 20
USER: ADFR SOLUTION from run 170
USER: SCORE 11.713209 LL:  -3.324 LR:  -8.560 RR:   0.000 FEB:  -6.174
USER: RMSD 10.362643
USER: SEED 169
USER: STATUS no improvement in best in 12 clusters for 5 generations
USER: GENES 10
USER: genes 0 Translation |==|  0.55834 0.62447 0.46441
USER: genes 1 Rotation |==|  0.63044 0.08542 0.25424 0.52663
USER: genes 2 Torsion [O]-C--CA-[N] |==|  0.88086
USER: genes 3 Torsion [N]-C--CA-[N] |==|  0.40964
USER: genes 4 Torsion [C]-CA--N-[C] |==|  0.85089
USER: genes 5 Torsion [C]-CA--CB-[CG] |==|  0.33951
USER: genes 6 Torsion [CA]-CB--CG-[CD1] |==|  0.80813
USER: genes 7 Torsion [N]-CA--C-[O] |==|  0.97623
USER: genes 8 Torsion [N]-CA--C-[N] |==|  0.45479
USER: genes 9 Torsion [N]-CA--C-[O] |==|  0.84656
ROOT
ATOM      1  C   PRO B1002      21.265  22.978  17.421  1.00 33.09 LIG 0.24  C 
ATOM      2 O    PRO B1002      22.032  22.012  17.479  1.00 32.82 LIG-0.27  OA
ATOM      3  N   PRO B1003      20.456  23.301  18.438  1.00 33.61 LIG-0.34  N 
ATOM      4  CA  PRO B1003      20.456  22.500  19.662  1.00 34.05 LIG 0.18  C 
ATOM      5  CB  PRO B1003      19.569  23.314  20.599  1.00 34.65 LIG 0.04  C 
ATOM      6  CG  PRO B1003      18.587  23.937  19.661  1.00 34.15 LIG 0.02  C 
ATOM      7  CD  PRO B1003      19.475  24.397  18.525  1.00 34.31 LIG 0.13  C 
ENDROOT
BRANCH 1 8
ATOM      8  CA  PRO B1002      21.210  23.855  16.176  1.00 32.09 LIG 0.18  C 
ATOM      9  N   PRO B1002      22.575  24.104  15.718  1.00 31.87 LIG-0.34  N 
ATOM     10  C   PHE B1001      23.326  25.026  16.338  1.00 31.39 LIG 0.24  C 
ATOM     11  CD  PRO B1002      22.863  23.336  14.493  1.00 31.65 LIG 0.13  C 
ATOM     12 O    PHE B1001      22.898  25.689  17.287  1.00 31.36 LIG-0.27  OA
ATOM     13  CG  PRO B1002      21.718  22.333  14.460  1.00 31.59 LIG 0.02  C 
ATOM     14  CB  PRO B1002      20.575  23.139  14.987  1.00 32.35 LIG 0.04  C 
BRANCH 10 15
ATOM     15  CA  PHE B1001      24.740  25.230  15.821  1.00 30.70 LIG 0.18  C 
BRANCH 15 16
ATOM     16  N   PHE B1001      25.161  26.620  15.976  1.00 31.26 LIG-0.35  N 
ATOM     17  C   ACE B1000      24.440  27.632  15.495  1.00 32.54 LIG 0.21  C 
ATOM     18  CH3 ACE B1000      25.213  28.950  15.423  1.00 32.86 LIG 0.12  C 
ATOM     19 O    ACE B1000      23.402  27.472  14.843  1.00 32.71 LIG-0.27  OA
ATOM     20 H    PHE B1001      25.903  26.721  16.398  1.00 31.26 LIG 0.16  HD
ENDBRANCH 15 16
BRANCH 15 21
ATOM     21  CB  PHE B1001      25.657  24.282  16.603  1.00 29.45 LIG 0.07  C 
BRANCH 21 22
ATOM     22  CG  PHE B1001      26.425  23.327  15.746  1.00 29.10 LIG-0.06  A 
ATOM     23  CD2 PHE B1001      27.804  23.455  15.609  1.00 29.14 LIG 0.01  A 
ATOM     24  CE2 PHE B1001      28.522  22.573  14.809  1.00 28.22 LIG 0.00  A 
ATOM     25  CZ  PHE B1001      27.863  21.556  14.138  1.00 28.72 LIG 0.00  A 
ATOM     26  CE1 PHE B1001      26.486  21.420  14.270  1.00 29.15 LIG 0.00  A 
ATOM     27  CD1 PHE B1001      25.776  22.303  15.071  1.00 28.88 LIG 0.01  A 
ENDBRANCH 21 22
ENDBRANCH 15 21
ENDBRANCH 10 15
ENDBRANCH 1 8
BRANCH 4 28
ATOM     28  C   PRO B1003      19.909  21.095  19.413  1.00 33.85 LIG 0.24  C 
ATOM     29 O    PRO B1003      19.390  20.804  18.334  1.00 33.94 LIG-0.27  OA
ATOM     30  N   PRO B1004      20.037  20.199  20.403  1.00 34.14 LIG-0.34  N 
ATOM     31  CA  PRO B1004      19.534  18.834  20.246  1.00 34.66 LIG 0.18  C 
ATOM     32  CD  PRO B1004      20.728  20.360  21.695  1.00 34.36 LIG 0.13  C 
ATOM     33  CB  PRO B1004      20.116  18.114  21.463  1.00 34.44 LIG 0.04  C 
ATOM     34  CG  PRO B1004      20.190  19.197  22.490  1.00 34.41 LIG 0.02  C 
BRANCH 31 35
ATOM     35  C   PRO B1004      18.004  18.818  20.215  1.00 35.04 LIG 0.24  C 
ATOM     36  N   PRO B1005      17.406  17.712  19.749  1.00 35.67 LIG-0.34  N 
ATOM     37  CD  PRO B1005      18.086  16.523  19.205  1.00 35.53 LIG 0.13  C 
ATOM     38  CA  PRO B1005      15.949  17.554  19.658  1.00 36.27 LIG 0.17  C 
ATOM     39  CG  PRO B1005      17.004  15.899  18.360  1.00 36.24 LIG 0.02  C 
ATOM     40  CB  PRO B1005      15.789  16.111  19.191  1.00 36.11 LIG 0.04  C 
ATOM     41 O    PRO B1004      17.358  19.796  20.594  1.00 35.22 LIG-0.27  OA
BRANCH 38 42
ATOM     42  C   PRO B1005      15.233  17.816  20.982  1.00 36.62 LIG 0.22  C 
ATOM     43 O    PRO B1005      15.593  17.158  21.981  1.00 36.45 LIG-0.29  OA
ENDBRANCH 38 42
ENDBRANCH 31 35
ENDBRANCH 4 28
TORSDOF 8
ENDMDL
MODEL 21
USER: ADFR SOLUTION from run 131
USER: SCORE 11.270355 LL:  -3.285 LR:  -8.481 RR:   0.000 FEB:  -6.095
USER: RMSD 10.103784
USER: SEED 130
USER: STATUS no improvement in best in 11 clusters for 5 generations
USER: GENES 10
USER: genes 0 Translation |==|  0.38719 0.35367 0.62074
USER: genes 1 Rotation |==|  0.38153 0.67912 0.05753 0.59000
USER: genes 2 Torsion [O]-C--CA-[N] |==|  0.95313
USER: genes 3 Torsion [N]-C--CA-[N] |==|  0.18166
USER: genes 4 Torsion [C]-CA--N-[C] |==|  0.61897
USER: genes 5 Torsion [C]-CA--CB-[CG] |==|  0.18586
USER: genes 6 Torsion [CA]-CB--CG-[CD1] |==|  0.04189
USER: genes 7 Torsion [N]-CA--C-[O] |==|  0.81137
USER: genes 8 Torsion [N]-CA--C-[N] |==|  0.50813
USER: genes 9 Torsion [N]-CA--C-[O] |==|  0.21544
ROOT
ATOM      1  C   PRO B1002      17.414  17.494  20.000  1.00 33.09 LIG 0.24  C 
ATOM      2 O    PRO B1002      16.909  18.584  19.715  1.00 32.82 LIG-0.27  OA
ATOM      3  N   PRO B1003      17.312  16.433  19.189  1.00 33.61 LIG-0.34  N 
ATOM      4  CA  PRO B1003      16.580  16.541  17.926  1.00 34.05 LIG 0.18  C 
ATOM      5  CB  PRO B1003      16.879  15.207  17.248  1.00 34.65 LIG 0.04  C 
ATOM      6  CG  PRO B1003      16.995  14.270  18.406  1.00 34.15 LIG 0.02  C 
ATOM      7  CD  PRO B1003      17.831  15.068  19.383  1.00 34.31 LIG 0.13  C 
ENDROOT
BRANCH 1 8
ATOM      8  CA  PRO B1002      18.188  17.309  21.300  1.00 32.09 LIG 0.18  C 
ATOM      9  N   PRO B1002      18.535  18.626  21.830  1.00 31.87 LIG-0.34  N 
ATOM     10  C   PHE B1001      19.569  19.300  21.306  1.00 31.39 LIG 0.24  C 
ATOM     11  CD  PRO B1002      17.711  18.949  23.009  1.00 31.65 LIG 0.13  C 
ATOM     12 O    PHE B1001      20.255  18.839  20.390  1.00 31.36 LIG-0.27  OA
ATOM     13  CG  PRO B1002      16.601  17.911  22.925  1.00 31.59 LIG 0.02  C 
ATOM     14  CB  PRO B1002      17.327  16.710  22.409  1.00 32.35 LIG 0.04  C 
BRANCH 10 15
ATOM     15  CA  PHE B1001      19.873  20.668  21.894  1.00 30.70 LIG 0.18  C 
BRANCH 15 16
ATOM     16  N   PHE B1001      20.305  20.559  23.285  1.00 31.26 LIG-0.35  N 
ATOM     17  C   ACE B1000      19.867  21.393  24.226  1.00 32.54 LIG 0.21  C 
ATOM     18  CH3 ACE B1000      20.702  21.359  25.507  1.00 32.86 LIG 0.12  C 
ATOM     19 O    ACE B1000      19.113  22.344  23.988  1.00 32.71 LIG-0.27  OA
ATOM     20 H    PHE B1001      20.858  19.918  23.434  1.00 31.26 LIG 0.16  HD
ENDBRANCH 15 16
BRANCH 15 21
ATOM     21  CB  PHE B1001      20.959  21.312  21.023  1.00 29.45 LIG 0.07  C 
BRANCH 21 22
ATOM     22  CG  PHE B1001      20.515  21.644  19.634  1.00 29.10 LIG-0.06  A 
ATOM     23  CD2 PHE B1001      21.449  21.939  18.647  1.00 29.14 LIG 0.01  A 
ATOM     24  CE2 PHE B1001      21.042  22.255  17.356  1.00 28.22 LIG 0.00  A 
ATOM     25  CZ  PHE B1001      19.693  22.278  17.044  1.00 28.72 LIG 0.00  A 
ATOM     26  CE1 PHE B1001      18.751  21.983  18.024  1.00 29.15 LIG 0.00  A 
ATOM     27  CD1 PHE B1001      19.166  21.668  19.310  1.00 28.88 LIG 0.01  A 
ENDBRANCH 21 22
ENDBRANCH 15 21
ENDBRANCH 10 15
ENDBRANCH 1 8
BRANCH 4 28
ATOM     28  C   PRO B1003      15.085  16.756  18.160  1.00 33.85 LIG 0.24  C 
ATOM     29 O    PRO B1003      14.391  15.864  18.649  1.00 33.94 LIG-0.27  OA
ATOM     30  N   PRO B1004      14.577  17.953  17.833  1.00 34.14 LIG-0.34  N 
ATOM     31  CA  PRO B1004      13.154  18.238  18.020  1.00 34.66 LIG 0.18  C 
ATOM     32  CD  PRO B1004      15.293  19.148  17.350  1.00 34.36 LIG 0.13  C 
ATOM     33  CB  PRO B1004      13.073  19.746  17.783  1.00 34.44 LIG 0.04  C 
ATOM     34  CG  PRO B1004      14.171  19.990  16.798  1.00 34.41 LIG 0.02  C 
BRANCH 31 35
ATOM     35  C   PRO B1004      12.303  17.430  17.037  1.00 35.04 LIG 0.24  C 
ATOM     36  N   PRO B1005      10.978  17.634  17.053  1.00 35.67 LIG-0.34  N 
ATOM     37  CD  PRO B1005      10.250  18.526  17.972  1.00 35.53 LIG 0.13  C 
ATOM     38  CA  PRO B1005      10.038  16.930  16.171  1.00 36.27 LIG 0.17  C 
ATOM     39  CG  PRO B1005       8.854  17.955  17.927  1.00 36.24 LIG 0.02  C 
ATOM     40  CB  PRO B1005       8.703  17.594  16.493  1.00 36.11 LIG 0.04  C 
ATOM     41 O    PRO B1004      12.827  16.616  16.276  1.00 35.22 LIG-0.27  OA
BRANCH 38 42
ATOM     42  C   PRO B1005      10.400  17.049  14.692  1.00 36.62 LIG 0.22  C 
ATOM     43 O    PRO B1005      11.327  16.332  14.257  1.00 36.45 LIG-0.29  OA
ENDBRANCH 38 42
ENDBRANCH 31 35
ENDBRANCH 4 28
TORSDOF 8
ENDMDL
MODEL 22
USER: ADFR SOLUTION from run 94
USER: SCORE 11.713642 LL:  -3.408 LR:  -8.470 RR:   0.000 FEB:  -6.084
USER: RMSD 10.160992
USER: SEED 93
USER: STATUS no improvement in best in 12 clusters for 5 generations
USER: GENES 10
USER: genes 0 Translation |==|  0.50685 0.53289 0.58433
USER: genes 1 Rotation |==|  0.35663 0.31648 0.05784 0.51611
USER: genes 2 Torsion [O]-C--CA-[N] |==|  0.00944
USER: genes 3 Torsion [N]-C--CA-[N] |==|  0.29800
USER: genes 4 Torsion [C]-CA--N-[C] |==|  0.74475
USER: genes 5 Torsion [C]-CA--CB-[CG] |==|  0.72504
USER: genes 6 Torsion [CA]-CB--CG-[CD1] |==|  0.17173
USER: genes 7 Torsion [N]-CA--C-[O] |==|  0.96093
USER: genes 8 Torsion [N]-CA--C-[N] |==|  0.32520
USER: genes 9 Torsion [N]-CA--C-[O] |==|  0.93724
ROOT
ATOM      1  C   PRO B1002      20.106  21.123  19.399  1.00 33.09 LIG 0.24  C 
ATOM      2 O    PRO B1002      19.600  20.832  18.311  1.00 32.82 LIG-0.27  OA
ATOM      3  N   PRO B1003      20.152  20.250  20.414  1.00 33.61 LIG-0.34  N 
ATOM      4  CA  PRO B1003      19.587  18.909  20.258  1.00 34.05 LIG 0.18  C 
ATOM      5  CB  PRO B1003      20.023  18.207  21.540  1.00 34.65 LIG 0.04  C 
ATOM      6  CG  PRO B1003      20.026  19.319  22.538  1.00 34.15 LIG 0.02  C 
ATOM      7  CD  PRO B1003      20.696  20.438  21.770  1.00 34.31 LIG 0.13  C 
ENDROOT
BRANCH 1 8
ATOM      8  CA  PRO B1002      20.712  22.501  19.634  1.00 32.09 LIG 0.18  C 
ATOM      9  N   PRO B1002      20.493  23.318  18.442  1.00 31.87 LIG-0.34  N 
ATOM     10  C   PHE B1001      21.280  23.151  17.369  1.00 31.39 LIG 0.24  C 
ATOM     11  CD  PRO B1002      19.457  24.337  18.690  1.00 31.65 LIG 0.13  C 
ATOM     12 O    PHE B1001      22.202  22.331  17.354  1.00 31.36 LIG-0.27  OA
ATOM     13  CG  PRO B1002      18.811  23.839  19.975  1.00 31.59 LIG 0.02  C 
ATOM     14  CB  PRO B1002      19.979  23.281  20.722  1.00 32.35 LIG 0.04  C 
BRANCH 10 15
ATOM     15  CA  PHE B1001      20.995  24.024  16.158  1.00 30.70 LIG 0.18  C 
BRANCH 15 16
ATOM     16  N   PHE B1001      22.019  25.053  15.998  1.00 31.26 LIG-0.35  N 
ATOM     17  C   ACE B1000      21.891  26.264  16.538  1.00 32.54 LIG 0.21  C 
ATOM     18  CH3 ACE B1000      22.860  27.295  15.957  1.00 32.86 LIG 0.12  C 
ATOM     19 O    ACE B1000      20.885  26.622  17.162  1.00 32.71 LIG-0.27  OA
ATOM     20 H    PHE B1001      22.698  24.807  15.532  1.00 31.26 LIG 0.16  HD
ENDBRANCH 15 16
BRANCH 15 21
ATOM     21  CB  PHE B1001      20.936  23.104  14.932  1.00 29.45 LIG 0.07  C 
BRANCH 21 22
ATOM     22  CG  PHE B1001      22.196  23.072  14.128  1.00 29.10 LIG-0.06  A 
ATOM     23  CD2 PHE B1001      22.196  23.491  12.801  1.00 29.14 LIG 0.01  A 
ATOM     24  CE2 PHE B1001      23.363  23.458  12.046  1.00 28.22 LIG 0.00  A 
ATOM     25  CZ  PHE B1001      24.541  23.004  12.616  1.00 28.72 LIG 0.00  A 
ATOM     26  CE1 PHE B1001      24.552  22.585  13.942  1.00 29.15 LIG 0.00  A 
ATOM     27  CD1 PHE B1001      23.383  22.622  14.689  1.00 28.88 LIG 0.01  A 
ENDBRANCH 21 22
ENDBRANCH 15 21
ENDBRANCH 10 15
ENDBRANCH 1 8
BRANCH 4 28
ATOM     28  C   PRO B1003      18.067  18.956  20.105  1.00 33.85 LIG 0.24  C 
ATOM     29 O    PRO B1003      17.439  19.981  20.375  1.00 33.94 LIG-0.27  OA
ATOM     30  N   PRO B1004      17.459  17.851  19.649  1.00 34.14 LIG-0.34  N 
ATOM     31  CA  PRO B1004      16.006  17.812  19.481  1.00 34.66 LIG 0.18  C 
ATOM     32  CD  PRO B1004      18.077  16.597  19.180  1.00 34.36 LIG 0.13  C 
ATOM     33  CB  PRO B1004      15.786  16.509  18.712  1.00 34.44 LIG 0.04  C 
ATOM     34  CG  PRO B1004      16.909  15.645  19.189  1.00 34.41 LIG 0.02  C 
BRANCH 31 35
ATOM     35  C   PRO B1004      15.299  17.833  20.838  1.00 35.04 LIG 0.24  C 
ATOM     36  N   PRO B1005      14.508  18.882  21.108  1.00 35.67 LIG-0.34  N 
ATOM     37  CD  PRO B1005      14.298  20.053  20.241  1.00 35.53 LIG 0.13  C 
ATOM     38  CA  PRO B1005      13.771  19.039  22.367  1.00 36.27 LIG 0.17  C 
ATOM     39  CG  PRO B1005      13.824  21.094  21.224  1.00 36.24 LIG 0.02  C 
ATOM     40  CB  PRO B1005      12.950  20.302  22.129  1.00 36.11 LIG 0.04  C 
ATOM     41 O    PRO B1004      15.470  16.921  21.648  1.00 35.22 LIG-0.27  OA
BRANCH 38 42
ATOM     42  C   PRO B1005      12.893  17.834  22.703  1.00 36.62 LIG 0.22  C 
ATOM     43 O    PRO B1005      12.540  17.088  21.764  1.00 36.45 LIG-0.29  OA
ENDBRANCH 38 42
ENDBRANCH 31 35
ENDBRANCH 4 28
TORSDOF 8
ENDMDL
MODEL 23
USER: ADFR SOLUTION from run 49
USER: SCORE 11.756654 LL:  -3.384 LR:  -8.467 RR:   0.000 FEB:  -6.080
USER: RMSD 11.399287
USER: SEED 48
USER: STATUS no improvement in best in 9 clusters for 5 generations
USER: GENES 10
USER: genes 0 Translation |==|  0.67203 0.65563 0.33334
USER: genes 1 Rotation |==|  0.18055 0.87332 0.41501 0.53685
USER: genes 2 Torsion [O]-C--CA-[N] |==|  0.97714
USER: genes 3 Torsion [N]-C--CA-[N] |==|  0.45027
USER: genes 4 Torsion [C]-CA--N-[C] |==|  0.63115
USER: genes 5 Torsion [C]-CA--CB-[CG] |==|  0.38994
USER: genes 6 Torsion [CA]-CB--CG-[CD1] |==|  0.35772
USER: genes 7 Torsion [N]-CA--C-[O] |==|  0.85521
USER: genes 8 Torsion [N]-CA--C-[N] |==|  0.49862
USER: genes 9 Torsion [N]-CA--C-[O] |==|  0.85715
ROOT
ATOM      1  C   PRO B1002      23.823  23.609  15.258  1.00 33.09 LIG 0.24  C 
ATOM      2 O    PRO B1002      24.079  23.896  16.432  1.00 32.82 LIG-0.27  OA
ATOM      3  N   PRO B1003      22.568  23.410  14.836  1.00 33.61 LIG-0.34  N 
ATOM      4  CA  PRO B1003      21.449  23.523  15.773  1.00 34.05 LIG 0.18  C 
ATOM      5  CB  PRO B1003      20.231  23.425  14.860  1.00 34.65 LIG 0.04  C 
ATOM      6  CG  PRO B1003      20.706  22.510  13.779  1.00 34.15 LIG 0.02  C 
ATOM      7  CD  PRO B1003      22.092  23.044  13.490  1.00 34.31 LIG 0.13  C 
ENDROOT
BRANCH 1 8
ATOM      8  CA  PRO B1002      24.937  23.472  14.228  1.00 32.09 LIG 0.18  C 
ATOM      9  N   PRO B1002      26.190  23.920  14.831  1.00 31.87 LIG-0.34  N 
ATOM     10  C   PHE B1001      26.444  25.233  14.936  1.00 31.39 LIG 0.24  C 
ATOM     11  CD  PRO B1002      27.069  22.773  15.124  1.00 31.65 LIG 0.13  C 
ATOM     12 O    PHE B1001      25.654  26.088  14.527  1.00 31.36 LIG-0.27  OA
ATOM     13  CG  PRO B1002      26.116  21.593  15.003  1.00 31.59 LIG 0.02  C 
ATOM     14  CB  PRO B1002      25.229  22.015  13.877  1.00 32.35 LIG 0.04  C 
BRANCH 10 15
ATOM     15  CA  PHE B1001      27.760  25.635  15.583  1.00 30.70 LIG 0.18  C 
BRANCH 15 16
ATOM     16  N   PHE B1001      28.101  27.019  15.263  1.00 31.26 LIG-0.35  N 
ATOM     17  C   ACE B1000      29.318  27.367  14.849  1.00 32.54 LIG 0.21  C 
ATOM     18  CH3 ACE B1000      29.582  28.871  14.929  1.00 32.86 LIG 0.12  C 
ATOM     19 O    ACE B1000      30.255  26.565  14.757  1.00 32.71 LIG-0.27  OA
ATOM     20 H    PHE B1001      27.454  27.576  15.365  1.00 31.26 LIG 0.16  HD
ENDBRANCH 15 16
BRANCH 15 21
ATOM     21  CB  PHE B1001      27.609  25.436  17.095  1.00 29.45 LIG 0.07  C 
BRANCH 21 22
ATOM     22  CG  PHE B1001      28.823  24.874  17.764  1.00 29.10 LIG-0.06  A 
ATOM     23  CD2 PHE B1001      29.427  23.721  17.273  1.00 29.14 LIG 0.01  A 
ATOM     24  CE2 PHE B1001      30.553  23.190  17.894  1.00 28.22 LIG 0.00  A 
ATOM     25  CZ  PHE B1001      31.081  23.812  19.014  1.00 28.72 LIG 0.00  A 
ATOM     26  CE1 PHE B1001      30.485  24.966  19.510  1.00 29.15 LIG 0.00  A 
ATOM     27  CD1 PHE B1001      29.362  25.490  18.884  1.00 28.88 LIG 0.01  A 
ENDBRANCH 21 22
ENDBRANCH 15 21
ENDBRANCH 10 15
ENDBRANCH 1 8
BRANCH 4 28
ATOM     28  C   PRO B1003      21.483  22.414  16.824  1.00 33.85 LIG 0.24  C 
ATOM     29 O    PRO B1003      21.572  21.232  16.488  1.00 33.94 LIG-0.27  OA
ATOM     30  N   PRO B1004      21.435  22.784  18.112  1.00 34.14 LIG-0.34  N 
ATOM     31  CA  PRO B1004      21.457  21.782  19.179  1.00 34.66 LIG 0.18  C 
ATOM     32  CD  PRO B1004      21.443  24.148  18.671  1.00 34.36 LIG 0.13  C 
ATOM     33  CB  PRO B1004      21.654  22.628  20.437  1.00 34.44 LIG 0.04  C 
ATOM     34  CG  PRO B1004      20.978  23.914  20.086  1.00 34.41 LIG 0.02  C 
BRANCH 31 35
ATOM     35  C   PRO B1004      20.156  20.976  19.196  1.00 35.04 LIG 0.24  C 
ATOM     36  N   PRO B1005      20.038  20.011  20.120  1.00 35.67 LIG-0.34  N 
ATOM     37  CD  PRO B1005      21.071  19.609  21.089  1.00 35.53 LIG 0.13  C 
ATOM     38  CA  PRO B1005      18.851  19.157  20.253  1.00 36.27 LIG 0.17  C 
ATOM     39  CG  PRO B1005      20.644  18.207  21.444  1.00 36.24 LIG 0.02  C 
ATOM     40  CB  PRO B1005      19.164  18.328  21.495  1.00 36.11 LIG 0.04  C 
ATOM     41 O    PRO B1004      19.264  21.207  18.378  1.00 35.22 LIG-0.27  OA
BRANCH 38 42
ATOM     42  C   PRO B1005      17.554  19.950  20.400  1.00 36.62 LIG 0.22  C 
ATOM     43 O    PRO B1005      17.510  20.842  21.274  1.00 36.45 LIG-0.29  OA
ENDBRANCH 38 42
ENDBRANCH 31 35
ENDBRANCH 4 28
TORSDOF 8
ENDMDL
MODEL 24
USER: ADFR SOLUTION from run 85
USER: SCORE 11.642645 LL:  -3.215 LR:  -8.428 RR:   0.000 FEB:  -6.041
USER: RMSD 10.864003
USER: SEED 84
USER: STATUS no improvement in best in 12 clusters for 5 generations
USER: GENES 10
USER: genes 0 Translation |==|  0.36253 0.49902 0.50043
USER: genes 1 Rotation |==|  0.41293 0.34429 0.03691 0.56104
USER: genes 2 Torsion [O]-C--CA-[N] |==|  0.80703
USER: genes 3 Torsion [N]-C--CA-[N] |==|  0.39367
USER: genes 4 Torsion [C]-CA--N-[C] |==|  0.82321
USER: genes 5 Torsion [C]-CA--CB-[CG] |==|  0.37072
USER: genes 6 Torsion [CA]-CB--CG-[CD1] |==|  0.77049
USER: genes 7 Torsion [N]-CA--C-[O] |==|  0.02698
USER: genes 8 Torsion [N]-CA--C-[N] |==|  0.47906
USER: genes 9 Torsion [N]-CA--C-[O] |==|  0.88624
ROOT
ATOM      1  C   PRO B1002      16.859  20.437  18.015  1.00 33.09 LIG 0.24  C 
ATOM      2 O    PRO B1002      16.577  20.281  16.823  1.00 32.82 LIG-0.27  OA
ATOM      3  N   PRO B1003      16.961  19.403  18.860  1.00 33.61 LIG-0.34  N 
ATOM      4  CA  PRO B1003      16.727  18.039  18.384  1.00 34.05 LIG 0.18  C 
ATOM      5  CB  PRO B1003      17.134  17.188  19.584  1.00 34.65 LIG 0.04  C 
ATOM      6  CG  PRO B1003      16.761  18.056  20.741  1.00 34.15 LIG 0.02  C 
ATOM      7  CD  PRO B1003      17.265  19.413  20.301  1.00 34.31 LIG 0.13  C 
ENDROOT
BRANCH 1 8
ATOM      8  CA  PRO B1002      17.112  21.829  18.580  1.00 32.09 LIG 0.18  C 
ATOM      9  N   PRO B1002      18.369  22.336  18.032  1.00 31.87 LIG-0.34  N 
ATOM     10  C   PHE B1001      19.534  21.913  18.543  1.00 31.39 LIG 0.24  C 
ATOM     11  CD  PRO B1002      18.116  23.388  17.031  1.00 31.65 LIG 0.13  C 
ATOM     12 O    PHE B1001      19.586  21.110  19.479  1.00 31.36 LIG-0.27  OA
ATOM     13  CG  PRO B1002      16.631  23.216  16.746  1.00 31.59 LIG 0.02  C 
ATOM     14  CB  PRO B1002      16.090  22.851  18.090  1.00 32.35 LIG 0.04  C 
BRANCH 10 15
ATOM     15  CA  PHE B1001      20.806  22.468  17.923  1.00 30.70 LIG 0.18  C 
BRANCH 15 16
ATOM     16  N   PHE B1001      21.822  22.719  18.943  1.00 31.26 LIG-0.35  N 
ATOM     17  C   ACE B1000      21.644  23.619  19.908  1.00 32.54 LIG 0.21  C 
ATOM     18  CH3 ACE B1000      22.936  24.000  20.632  1.00 32.86 LIG 0.12  C 
ATOM     19 O    ACE B1000      20.641  24.339  19.984  1.00 32.71 LIG-0.27  OA
ATOM     20 H    PHE B1001      22.531  22.240  18.861  1.00 31.26 LIG 0.16  HD
ENDBRANCH 15 16
BRANCH 15 21
ATOM     21  CB  PHE B1001      21.297  21.449  16.889  1.00 29.45 LIG 0.07  C 
BRANCH 21 22
ATOM     22  CG  PHE B1001      21.684  22.047  15.574  1.00 29.10 LIG-0.06  A 
ATOM     23  CD2 PHE B1001      23.016  22.332  15.295  1.00 29.14 LIG 0.01  A 
ATOM     24  CE2 PHE B1001      23.381  22.893  14.076  1.00 28.22 LIG 0.00  A 
ATOM     25  CZ  PHE B1001      22.412  23.175  13.128  1.00 28.72 LIG 0.00  A 
ATOM     26  CE1 PHE B1001      21.078  22.892  13.397  1.00 29.15 LIG 0.00  A 
ATOM     27  CD1 PHE B1001      20.721  22.330  14.615  1.00 28.88 LIG 0.01  A 
ENDBRANCH 21 22
ENDBRANCH 15 21
ENDBRANCH 10 15
ENDBRANCH 1 8
BRANCH 4 28
ATOM     28  C   PRO B1003      15.268  17.826  17.984  1.00 33.85 LIG 0.24  C 
ATOM     29 O    PRO B1003      14.491  18.778  17.909  1.00 33.94 LIG-0.27  OA
ATOM     30  N   PRO B1004      14.884  16.572  17.701  1.00 34.14 LIG-0.34  N 
ATOM     31  CA  PRO B1004      13.502  16.283  17.315  1.00 34.66 LIG 0.18  C 
ATOM     32  CD  PRO B1004      15.714  15.356  17.634  1.00 34.36 LIG 0.13  C 
ATOM     33  CB  PRO B1004      13.577  14.832  16.838  1.00 34.44 LIG 0.04  C 
ATOM     34  CG  PRO B1004      14.678  14.262  17.673  1.00 34.41 LIG 0.02  C 
BRANCH 31 35
ATOM     35  C   PRO B1004      12.553  16.476  18.501  1.00 35.04 LIG 0.24  C 
ATOM     36  N   PRO B1005      11.237  16.397  18.260  1.00 35.67 LIG-0.34  N 
ATOM     37  CD  PRO B1005      10.608  16.200  16.943  1.00 35.53 LIG 0.13  C 
ATOM     38  CA  PRO B1005      10.211  16.563  19.297  1.00 36.27 LIG 0.17  C 
ATOM     39  CG  PRO B1005       9.219  16.740  17.171  1.00 36.24 LIG 0.02  C 
ATOM     40  CB  PRO B1005       8.916  16.268  18.548  1.00 36.11 LIG 0.04  C 
ATOM     41 O    PRO B1004      12.997  16.707  19.627  1.00 35.22 LIG-0.27  OA
BRANCH 38 42
ATOM     42  C   PRO B1005      10.411  15.634  20.493  1.00 36.62 LIG 0.22  C 
ATOM     43 O    PRO B1005      10.759  14.456  20.267  1.00 36.45 LIG-0.29  OA
ENDBRANCH 38 42
ENDBRANCH 31 35
ENDBRANCH 4 28
TORSDOF 8
ENDMDL
MODEL 25
USER: ADFR SOLUTION from run 37
USER: SCORE 11.860250 LL:  -3.607 LR:  -8.405 RR:   0.000 FEB:  -6.018
USER: RMSD 9.617101
USER: SEED 36
USER: STATUS no improvement in best in 4 clusters for 5 generations
USER: GENES 10
USER: genes 0 Translation |==|  0.43680 0.48455 0.65626
USER: genes 1 Rotation |==|  0.55190 0.36637 0.02139 0.51953
USER: genes 2 Torsion [O]-C--CA-[N] |==|  0.93802
USER: genes 3 Torsion [N]-C--CA-[N] |==|  0.37409
USER: genes 4 Torsion [C]-CA--N-[C] |==|  0.65322
USER: genes 5 Torsion [C]-CA--CB-[CG] |==|  0.23505
USER: genes 6 Torsion [CA]-CB--CG-[CD1] |==|  0.11511
USER: genes 7 Torsion [N]-CA--C-[O] |==|  0.03376
USER: genes 8 Torsion [N]-CA--C-[N] |==|  0.28351
USER: genes 9 Torsion [N]-CA--C-[O] |==|  0.91820
ROOT
ATOM      1  C   PRO B1002      18.530  20.144  20.586  1.00 33.09 LIG 0.24  C 
ATOM      2 O    PRO B1002      18.945  20.160  19.423  1.00 32.82 LIG-0.27  OA
ATOM      3  N   PRO B1003      18.195  19.003  21.202  1.00 33.61 LIG-0.34  N 
ATOM      4  CA  PRO B1003      18.306  17.726  20.497  1.00 34.05 LIG 0.18  C 
ATOM      5  CB  PRO B1003      18.027  16.707  21.598  1.00 34.65 LIG 0.04  C 
ATOM      6  CG  PRO B1003      17.056  17.428  22.473  1.00 34.15 LIG 0.02  C 
ATOM      7  CD  PRO B1003      17.669  18.809  22.565  1.00 34.31 LIG 0.13  C 
ENDROOT
BRANCH 1 8
ATOM      8  CA  PRO B1002      18.386  21.437  21.380  1.00 32.09 LIG 0.18  C 
ATOM      9  N   PRO B1002      19.263  22.447  20.793  1.00 31.87 LIG-0.34  N 
ATOM     10  C   PHE B1001      20.576  22.424  21.063  1.00 31.39 LIG 0.24  C 
ATOM     11  CD  PRO B1002      18.479  23.457  20.058  1.00 31.65 LIG 0.13  C 
ATOM     12 O    PHE B1001      21.077  21.577  21.808  1.00 31.36 LIG-0.27  OA
ATOM     13  CG  PRO B1002      17.120  22.784  19.930  1.00 31.59 LIG 0.02  C 
ATOM     14  CB  PRO B1002      17.000  22.059  21.232  1.00 32.35 LIG 0.04  C 
BRANCH 10 15
ATOM     15  CA  PHE B1001      21.437  23.496  20.414  1.00 30.70 LIG 0.18  C 
BRANCH 15 16
ATOM     16  N   PHE B1001      22.364  24.081  21.378  1.00 31.26 LIG-0.35  N 
ATOM     17  C   ACE B1000      22.413  25.393  21.603  1.00 32.54 LIG 0.21  C 
ATOM     18  CH3 ACE B1000      23.674  25.838  22.345  1.00 32.86 LIG 0.12  C 
ATOM     19 O    ACE B1000      21.723  26.210  20.982  1.00 32.71 LIG-0.27  OA
ATOM     20 H    PHE B1001      22.866  23.509  21.779  1.00 31.26 LIG 0.16  HD
ENDBRANCH 15 16
BRANCH 15 21
ATOM     21  CB  PHE B1001      22.187  22.839  19.249  1.00 29.45 LIG 0.07  C 
BRANCH 21 22
ATOM     22  CG  PHE B1001      21.408  22.780  17.973  1.00 29.10 LIG-0.06  A 
ATOM     23  CD2 PHE B1001      21.446  21.641  17.177  1.00 29.14 LIG 0.01  A 
ATOM     24  CE2 PHE B1001      20.728  21.582  15.987  1.00 28.22 LIG 0.00  A 
ATOM     25  CZ  PHE B1001      19.967  22.667  15.586  1.00 28.72 LIG 0.00  A 
ATOM     26  CE1 PHE B1001      19.922  23.810  16.376  1.00 29.15 LIG 0.00  A 
ATOM     27  CD1 PHE B1001      20.640  23.861  17.563  1.00 28.88 LIG 0.01  A 
ENDBRANCH 21 22
ENDBRANCH 15 21
ENDBRANCH 10 15
ENDBRANCH 1 8
BRANCH 4 28
ATOM     28  C   PRO B1003      17.306  17.631  19.346  1.00 33.85 LIG 0.24  C 
ATOM     29 O    PRO B1003      16.693  18.628  18.962  1.00 33.94 LIG-0.27  OA
ATOM     30  N   PRO B1004      17.146  16.432  18.767  1.00 34.14 LIG-0.34  N 
ATOM     31  CA  PRO B1004      16.202  16.256  17.662  1.00 34.66 LIG 0.18  C 
ATOM     32  CD  PRO B1004      17.882  15.183  19.034  1.00 34.36 LIG 0.13  C 
ATOM     33  CB  PRO B1004      16.533  14.854  17.150  1.00 34.44 LIG 0.04  C 
ATOM     34  CG  PRO B1004      16.999  14.149  18.383  1.00 34.41 LIG 0.02  C 
BRANCH 31 35
ATOM     35  C   PRO B1004      14.758  16.390  18.151  1.00 35.04 LIG 0.24  C 
ATOM     36  N   PRO B1005      14.127  17.547  17.906  1.00 35.67 LIG-0.34  N 
ATOM     37  CD  PRO B1005      14.712  18.733  17.258  1.00 35.53 LIG 0.13  C 
ATOM     38  CA  PRO B1005      12.744  17.819  18.318  1.00 36.27 LIG 0.17  C 
ATOM     39  CG  PRO B1005      13.807  19.838  17.742  1.00 36.24 LIG 0.02  C 
ATOM     40  CB  PRO B1005      12.469  19.191  17.710  1.00 36.11 LIG 0.04  C 
ATOM     41 O    PRO B1004      14.213  15.467  18.758  1.00 35.22 LIG-0.27  OA
BRANCH 38 42
ATOM     42  C   PRO B1005      11.754  16.763  17.832  1.00 36.62 LIG 0.22  C 
ATOM     43 O    PRO B1005      12.013  16.165  16.766  1.00 36.45 LIG-0.29  OA
ENDBRANCH 38 42
ENDBRANCH 31 35
ENDBRANCH 4 28
TORSDOF 8
ENDMDL
MODEL 26
USER: ADFR SOLUTION from run 177
USER: SCORE 11.932457 LL:  -3.629 LR:  -8.387 RR:   0.000 FEB:  -6.000
USER: RMSD 10.072789
USER: SEED 176
USER: STATUS no improvement in best in 6 clusters for 5 generations
USER: GENES 10
USER: genes 0 Translation |==|  0.48153 0.53460 0.59867
USER: genes 1 Rotation |==|  0.47063 0.30775 0.03941 0.50566
USER: genes 2 Torsion [O]-C--CA-[N] |==|  0.94274
USER: genes 3 Torsion [N]-C--CA-[N] |==|  0.87222
USER: genes 4 Torsion [C]-CA--N-[C] |==|  0.84256
USER: genes 5 Torsion [C]-CA--CB-[CG] |==|  0.08113
USER: genes 6 Torsion [CA]-CB--CG-[CD1] |==|  0.70316
USER: genes 7 Torsion [N]-CA--C-[O] |==|  0.00900
USER: genes 8 Torsion [N]-CA--C-[N] |==|  0.36030
USER: genes 9 Torsion [N]-CA--C-[O] |==|  0.24329
ROOT
ATOM      1  C   PRO B1002      19.536  21.158  19.636  1.00 33.09 LIG 0.24  C 
ATOM      2 O    PRO B1002      19.590  20.834  18.446  1.00 32.82 LIG-0.27  OA
ATOM      3  N   PRO B1003      19.259  20.270  20.599  1.00 33.61 LIG-0.34  N 
ATOM      4  CA  PRO B1003      19.001  18.870  20.258  1.00 34.05 LIG 0.18  C 
ATOM      5  CB  PRO B1003      18.934  18.196  21.625  1.00 34.65 LIG 0.04  C 
ATOM      6  CG  PRO B1003      18.360  19.268  22.491  1.00 34.15 LIG 0.02  C 
ATOM      7  CD  PRO B1003      19.138  20.489  22.051  1.00 34.31 LIG 0.13  C 
ENDROOT
BRANCH 1 8
ATOM      8  CA  PRO B1002      19.792  22.597  20.064  1.00 32.09 LIG 0.18  C 
ATOM      9  N   PRO B1002      20.541  23.275  19.007  1.00 31.87 LIG-0.34  N 
ATOM     10  C   PHE B1001      21.861  23.070  18.893  1.00 31.39 LIG 0.24  C 
ATOM     11  CD  PRO B1002      19.677  24.224  18.281  1.00 31.65 LIG 0.13  C 
ATOM     12 O    PHE B1001      22.478  22.331  19.665  1.00 31.36 LIG-0.27  OA
ATOM     13  CG  PRO B1002      18.283  23.800  18.724  1.00 31.59 LIG 0.02  C 
ATOM     14  CB  PRO B1002      18.507  23.416  20.151  1.00 32.35 LIG 0.04  C 
BRANCH 10 15
ATOM     15  CA  PHE B1001      22.580  23.795  17.767  1.00 30.70 LIG 0.18  C 
BRANCH 15 16
ATOM     16  N   PHE B1001      21.842  23.680  16.512  1.00 31.26 LIG-0.35  N 
ATOM     17  C   ACE B1000      21.524  22.499  15.987  1.00 32.54 LIG 0.21  C 
ATOM     18  CH3 ACE B1000      21.099  22.577  14.520  1.00 32.86 LIG 0.12  C 
ATOM     19 O    ACE B1000      21.871  21.422  16.487  1.00 32.71 LIG-0.27  OA
ATOM     20 H    PHE B1001      21.637  24.434  16.152  1.00 31.26 LIG 0.16  HD
ENDBRANCH 15 16
BRANCH 15 21
ATOM     21  CB  PHE B1001      22.735  25.261  18.189  1.00 29.45 LIG 0.07  C 
BRANCH 21 22
ATOM     22  CG  PHE B1001      22.830  25.467  19.667  1.00 29.10 LIG-0.06  A 
ATOM     23  CD2 PHE B1001      23.985  25.113  20.355  1.00 29.14 LIG 0.01  A 
ATOM     24  CE2 PHE B1001      24.077  25.297  21.730  1.00 28.22 LIG 0.00  A 
ATOM     25  CZ  PHE B1001      23.008  25.837  22.427  1.00 28.72 LIG 0.00  A 
ATOM     26  CE1 PHE B1001      21.849  26.195  21.748  1.00 29.15 LIG 0.00  A 
ATOM     27  CD1 PHE B1001      21.766  26.010  20.375  1.00 28.88 LIG 0.01  A 
ENDBRANCH 21 22
ENDBRANCH 15 21
ENDBRANCH 10 15
ENDBRANCH 1 8
BRANCH 4 28
ATOM     28  C   PRO B1003      17.702  18.717  19.467  1.00 33.85 LIG 0.24  C 
ATOM     29 O    PRO B1003      17.045  19.705  19.139  1.00 33.94 LIG-0.27  OA
ATOM     30  N   PRO B1004      17.329  17.473  19.132  1.00 34.14 LIG-0.34  N 
ATOM     31  CA  PRO B1004      16.095  17.239  18.380  1.00 34.66 LIG 0.18  C 
ATOM     32  CD  PRO B1004      18.059  16.211  19.350  1.00 34.36 LIG 0.13  C 
ATOM     33  CB  PRO B1004      16.202  15.763  17.998  1.00 34.44 LIG 0.04  C 
ATOM     34  CG  PRO B1004      16.981  15.179  19.131  1.00 34.41 LIG 0.02  C 
BRANCH 31 35
ATOM     35  C   PRO B1004      14.866  17.548  19.239  1.00 35.04 LIG 0.24  C 
ATOM     36  N   PRO B1005      13.930  18.352  18.714  1.00 35.67 LIG-0.34  N 
ATOM     37  CD  PRO B1005      13.998  19.019  17.403  1.00 35.53 LIG 0.13  C 
ATOM     38  CA  PRO B1005      12.703  18.738  19.421  1.00 36.27 LIG 0.17  C 
ATOM     39  CG  PRO B1005      13.033  20.164  17.580  1.00 36.24 LIG 0.02  C 
ATOM     40  CB  PRO B1005      11.940  19.540  18.372  1.00 36.11 LIG 0.04  C 
ATOM     41 O    PRO B1004      14.761  17.080  20.374  1.00 35.22 LIG-0.27  OA
BRANCH 38 42
ATOM     42  C   PRO B1005      11.901  17.540  19.928  1.00 36.62 LIG 0.22  C 
ATOM     43 O    PRO B1005      12.183  17.082  21.055  1.00 36.45 LIG-0.29  OA
ENDBRANCH 38 42
ENDBRANCH 31 35
ENDBRANCH 4 28
TORSDOF 8
ENDMDL
