MODEL 1
USER: ADFR SOLUTION from run 31
USER: SCORE 8.661914 LL:  -1.044 LR:  -7.995 RR:   0.000 FEB:  -6.504
USER: RMSD 6.728443
USER: SEED 30
USER: STATUS no improvement in best in 27 clusters for 5 generations
USER: GENES 7
USER: genes 0 Translation |==|  0.71879 0.38230 0.74947
USER: genes 1 Rotation |==|  0.43995 0.27810 0.35038 0.91805
USER: genes 2 Torsion [C]-CA--N-[C] |==|  0.74444
USER: genes 3 Torsion [N]-C--CA-[N] |==|  0.11187
USER: genes 4 Torsion [N]-CA--C-[N] |==|  0.64733
USER: genes 5 Torsion [C]-N--CA-[CB] |==|  0.35411
USER: genes 6 Torsion [N]-CA--C-[OXT] |==|  0.37416
ROOT
ATOM      1  CA  GLY P 572      36.717  71.241  93.219  0.73  6.50 LIG 0.23  C 
ENDROOT
BRANCH 1 2
ATOM      2  N   GLY P 572      36.786  71.416  91.776  0.73  9.23 LIG-0.35  N 
ATOM      3  C   PRO P 571      37.008  72.584  91.157  0.73  8.22 LIG 0.25  C 
ATOM      4 O    PRO P 571      37.231  73.651  91.734  0.73  7.23 LIG-0.27  OA
ATOM      5 H    GLY P 572      36.669  70.682  91.343  0.73  9.23 LIG 0.16  HD
BRANCH 3 6
ATOM      6  CA  PRO P 571      37.015  72.523  89.624  0.73  9.03 LIG 0.35  C 
ATOM      7  N   PRO P 571      35.951  71.626  89.070  0.73 10.09 LIG 0.32  N 
ATOM      8  CD  PRO P 571      35.380  72.475  88.004  0.73  9.16 LIG 0.32  C 
ATOM      9  CG  PRO P 571      36.386  73.597  87.721  0.73  9.15 LIG 0.04  C 
ATOM     10  CB  PRO P 571      36.854  73.920  89.030  0.73  9.69 LIG 0.05  C 
ENDBRANCH 3 6
ENDBRANCH 1 2
BRANCH 1 11
ATOM     11  C   GLY P 572      38.145  70.890  93.630  0.73  5.30 LIG 0.24  C 
ATOM     12  N   ALA P 573      38.245  69.775  94.350  0.73  5.43 LIG-0.35  N 
ATOM     13 H    ALA P 573      37.559  69.310  94.580  0.73  5.43 LIG 0.16  HD
ATOM     14 O    GLY P 572      39.107  71.615  93.362  0.73  3.60 LIG-0.27  OA
BRANCH 12 15
ATOM     15  CA  ALA P 573      39.503  69.217  94.825  0.73  6.34 LIG 0.18  C 
ATOM     16  CB  ALA P 573      39.442  68.968  96.313  0.73  5.76 LIG 0.04  C 
BRANCH 15 17
ATOM     17  C   ALA P 573      39.706  67.897  94.083  0.73  7.45 LIG 0.20  C 
ATOM     18 OXT  ALA P 573      40.831  67.648  93.602  0.73  4.81 LIG-0.65  OA
ATOM     19 O    ALA P 573      38.731  67.117  94.005  0.73  9.82 LIG-0.65  OA
ENDBRANCH 15 17
ENDBRANCH 12 15
ENDBRANCH 1 11
TORSDOF 5
ENDMDL
MODEL 2
USER: ADFR SOLUTION from run 25
USER: SCORE 8.913366 LL:  -1.147 LR:  -7.969 RR:   0.000 FEB:  -6.477
USER: RMSD 6.695766
USER: SEED 24
USER: STATUS no improvement in best in 31 clusters for 5 generations
USER: GENES 7
USER: genes 0 Translation |==|  0.09541 0.55436 0.61122
USER: genes 1 Rotation |==|  0.26026 0.14904 0.60376 0.74205
USER: genes 2 Torsion [C]-CA--N-[C] |==|  0.15834
USER: genes 3 Torsion [N]-C--CA-[N] |==|  0.12829
USER: genes 4 Torsion [N]-CA--C-[N] |==|  0.12777
USER: genes 5 Torsion [C]-N--CA-[CB] |==|  0.85548
USER: genes 6 Torsion [N]-CA--C-[OXT] |==|  0.80889
ROOT
ATOM      1  CA  GLY P 572      26.431  73.435  91.352  0.73  6.50 LIG 0.23  C 
ENDROOT
BRANCH 1 2
ATOM      2  N   GLY P 572      27.260  72.276  91.059  0.73  9.23 LIG-0.35  N 
ATOM      3  C   PRO P 571      28.096  71.694  91.929  0.73  8.22 LIG 0.25  C 
ATOM      4 O    PRO P 571      28.233  72.037  93.105  0.73  7.23 LIG-0.27  OA
ATOM      5 H    GLY P 572      27.162  71.989  90.253  0.73  9.23 LIG 0.16  HD
BRANCH 3 6
ATOM      6  CA  PRO P 571      28.883  70.496  91.381  0.73  9.03 LIG 0.35  C 
ATOM      7  N   PRO P 571      29.484  70.757  90.034  0.73 10.09 LIG 0.32  N 
ATOM      8  CD  PRO P 571      30.861  70.256  90.226  0.73  9.16 LIG 0.32  C 
ATOM      9  CG  PRO P 571      30.857  69.371  91.478  0.73  9.15 LIG 0.04  C 
ATOM     10  CB  PRO P 571      29.988  70.089  92.353  0.73  9.69 LIG 0.05  C 
ENDBRANCH 3 6
ENDBRANCH 1 2
BRANCH 1 11
ATOM     11  C   GLY P 572      27.421  74.508  91.802  0.73  5.30 LIG 0.24  C 
ATOM     12  N   ALA P 573      28.494  74.618  91.023  0.73  5.43 LIG-0.35  N 
ATOM     13 H    ALA P 573      28.625  74.111  90.341  0.73  5.43 LIG 0.16  HD
ATOM     14 O    GLY P 572      27.256  75.168  92.832  0.73  3.60 LIG-0.27  OA
BRANCH 12 15
ATOM     15  CA  ALA P 573      29.557  75.593  91.226  0.73  6.34 LIG 0.18  C 
ATOM     16  CB  ALA P 573      28.982  76.983  91.351  0.73  5.76 LIG 0.04  C 
BRANCH 15 17
ATOM     17  C   ALA P 573      30.269  75.203  92.519  0.73  7.45 LIG 0.20  C 
ATOM     18 OXT  ALA P 573      29.658  75.334  93.601  0.73  4.81 LIG-0.65  OA
ATOM     19 O    ALA P 573      31.433  74.755  92.430  0.73  9.82 LIG-0.65  OA
ENDBRANCH 15 17
ENDBRANCH 12 15
ENDBRANCH 1 11
TORSDOF 5
ENDMDL
MODEL 3
USER: ADFR SOLUTION from run 101
USER: SCORE 8.005669 LL:  -0.600 LR:  -7.793 RR:   0.000 FEB:  -6.301
USER: RMSD 6.825311
USER: SEED 100
USER: STATUS no improvement in best in 32 clusters for 5 generations
USER: GENES 7
USER: genes 0 Translation |==|  0.40905 0.62812 0.44155
USER: genes 1 Rotation |==|  0.25979 0.39039 0.07797 0.54663
USER: genes 2 Torsion [C]-CA--N-[C] |==|  0.70559
USER: genes 3 Torsion [N]-C--CA-[N] |==|  0.25448
USER: genes 4 Torsion [N]-CA--C-[N] |==|  0.66427
USER: genes 5 Torsion [C]-N--CA-[CB] |==|  0.94341
USER: genes 6 Torsion [N]-CA--C-[OXT] |==|  0.69467
ROOT
ATOM      1  CA  GLY P 572      31.606  74.376  89.062  0.73  6.50 LIG 0.23  C 
ENDROOT
BRANCH 1 2
ATOM      2  N   GLY P 572      31.656  73.867  87.699  0.73  9.23 LIG-0.35  N 
ATOM      3  C   PRO P 571      32.664  73.146  87.190  0.73  8.22 LIG 0.25  C 
ATOM      4 O    PRO P 571      33.654  72.778  87.825  0.73  7.23 LIG-0.27  OA
ATOM      5 H    GLY P 572      30.962  74.077  87.237  0.73  9.23 LIG 0.16  HD
BRANCH 3 6
ATOM      6  CA  PRO P 571      32.501  72.740  85.719  0.73  9.03 LIG 0.35  C 
ATOM      7  N   PRO P 571      33.107  73.728  84.769  0.73 10.09 LIG 0.32  N 
ATOM      8  CD  PRO P 571      33.856  72.837  83.859  0.73  9.16 LIG 0.32  C 
ATOM      9  CG  PRO P 571      33.313  71.417  84.058  0.73  9.15 LIG 0.04  C 
ATOM     10  CB  PRO P 571      33.113  71.364  85.469  0.73  9.69 LIG 0.05  C 
ENDBRANCH 3 6
ENDBRANCH 1 2
BRANCH 1 11
ATOM     11  C   GLY P 572      30.588  73.482  89.766  0.73  5.30 LIG 0.24  C 
ATOM     12  N   ALA P 573      29.547  74.138  90.272  0.73  5.43 LIG-0.35  N 
ATOM     13 H    ALA P 573      29.471  74.993  90.225  0.73  5.43 LIG 0.16  HD
ATOM     14 O    GLY P 572      30.756  72.266  89.898  0.73  3.60 LIG-0.27  OA
BRANCH 12 15
ATOM     15  CA  ALA P 573      28.430  73.500  90.955  0.73  6.34 LIG 0.18  C 
ATOM     16  CB  ALA P 573      28.350  72.039  90.586  0.73  5.76 LIG 0.04  C 
BRANCH 15 17
ATOM     17  C   ALA P 573      28.688  73.647  92.453  0.73  7.45 LIG 0.20  C 
ATOM     18 OXT  ALA P 573      28.982  72.628  93.112  0.73  4.81 LIG-0.65  OA
ATOM     19 O    ALA P 573      28.607  74.793  92.947  0.73  9.82 LIG-0.65  OA
ENDBRANCH 15 17
ENDBRANCH 12 15
ENDBRANCH 1 11
TORSDOF 5
ENDMDL
MODEL 4
USER: ADFR SOLUTION from run 23
USER: SCORE 8.390887 LL:  -0.907 LR:  -7.757 RR:   0.000 FEB:  -6.265
USER: RMSD 6.819521
USER: SEED 22
USER: STATUS no improvement in best in 26 clusters for 5 generations
USER: GENES 7
USER: genes 0 Translation |==|  0.41628 0.64706 0.47721
USER: genes 1 Rotation |==|  0.44548 0.17594 0.12471 0.53419
USER: genes 2 Torsion [C]-CA--N-[C] |==|  0.51345
USER: genes 3 Torsion [N]-C--CA-[N] |==|  0.40660
USER: genes 4 Torsion [N]-CA--C-[N] |==|  0.53154
USER: genes 5 Torsion [C]-N--CA-[CB] |==|  0.88700
USER: genes 6 Torsion [N]-CA--C-[OXT] |==|  0.19034
ROOT
ATOM      1  CA  GLY P 572      31.726  74.617  89.543  0.73  6.50 LIG 0.23  C 
ENDROOT
BRANCH 1 2
ATOM      2  N   GLY P 572      32.861  73.769  89.212  0.73  9.23 LIG-0.35  N 
ATOM      3  C   PRO P 571      33.990  74.196  88.632  0.73  8.22 LIG 0.25  C 
ATOM      4 O    PRO P 571      34.232  75.372  88.352  0.73  7.23 LIG-0.27  OA
ATOM      5 H    GLY P 572      32.737  72.945  89.427  0.73  9.23 LIG 0.16  HD
BRANCH 3 6
ATOM      6  CA  PRO P 571      35.039  73.110  88.360  0.73  9.03 LIG 0.35  C 
ATOM      7  N   PRO P 571      35.833  73.362  87.115  0.73 10.09 LIG 0.32  N 
ATOM      8  CD  PRO P 571      37.210  73.119  87.591  0.73  9.16 LIG 0.32  C 
ATOM      9  CG  PRO P 571      37.109  72.348  88.913  0.73  9.15 LIG 0.04  C 
ATOM     10  CB  PRO P 571      35.994  72.975  89.544  0.73  9.69 LIG 0.05  C 
ENDBRANCH 3 6
ENDBRANCH 1 2
BRANCH 1 11
ATOM     11  C   GLY P 572      30.762  73.693  90.285  0.73  5.30 LIG 0.24  C 
ATOM     12  N   ALA P 573      29.550  74.209  90.473  0.73  5.43 LIG-0.35  N 
ATOM     13 H    ALA P 573      29.340  75.003  90.217  0.73  5.43 LIG 0.16  HD
ATOM     14 O    GLY P 572      31.108  72.591  90.720  0.73  3.60 LIG-0.27  OA
BRANCH 12 15
ATOM     15  CA  ALA P 573      28.452  73.506  91.120  0.73  6.34 LIG 0.18  C 
ATOM     16  CB  ALA P 573      28.416  72.062  90.681  0.73  5.76 LIG 0.04  C 
BRANCH 15 17
ATOM     17  C   ALA P 573      28.704  73.588  92.625  0.73  7.45 LIG 0.20  C 
ATOM     18 OXT  ALA P 573      28.607  74.698  93.188  0.73  4.81 LIG-0.65  OA
ATOM     19 O    ALA P 573      28.983  72.527  93.226  0.73  9.82 LIG-0.65  OA
ENDBRANCH 15 17
ENDBRANCH 12 15
ENDBRANCH 1 11
TORSDOF 5
ENDMDL
MODEL 5
USER: ADFR SOLUTION from run 84
USER: SCORE 8.431064 LL:  -0.933 LR:  -7.595 RR:   0.000 FEB:  -6.104
USER: RMSD 6.683546
USER: SEED 83
USER: STATUS no improvement in best in 27 clusters for 5 generations
USER: GENES 7
USER: genes 0 Translation |==|  0.38898 0.60544 0.45538
USER: genes 1 Rotation |==|  0.52946 0.08467 0.22452 0.52722
USER: genes 2 Torsion [C]-CA--N-[C] |==|  0.79804
USER: genes 3 Torsion [N]-C--CA-[N] |==|  0.13355
USER: genes 4 Torsion [N]-CA--C-[N] |==|  0.46111
USER: genes 5 Torsion [C]-N--CA-[CB] |==|  0.86763
USER: genes 6 Torsion [N]-CA--C-[OXT] |==|  0.70008
ROOT
ATOM      1  CA  GLY P 572      31.275  74.086  89.249  0.73  6.50 LIG 0.23  C 
ENDROOT
BRANCH 1 2
ATOM      2  N   GLY P 572      32.594  73.586  89.607  0.73  9.23 LIG-0.35  N 
ATOM      3  C   PRO P 571      33.251  73.902  90.730  0.73  8.22 LIG 0.25  C 
ATOM      4 O    PRO P 571      32.801  74.617  91.628  0.73  7.23 LIG-0.27  OA
ATOM      5 H    GLY P 572      32.923  73.055  89.015  0.73  9.23 LIG 0.16  HD
BRANCH 3 6
ATOM      6  CA  PRO P 571      34.641  73.267  90.877  0.73  9.03 LIG 0.35  C 
ATOM      7  N   PRO P 571      35.484  73.414  89.648  0.73 10.09 LIG 0.32  N 
ATOM      8  CD  PRO P 571      36.766  73.867  90.225  0.73  9.16 LIG 0.32  C 
ATOM      9  CG  PRO P 571      36.731  73.552  91.726  0.73  9.15 LIG 0.04  C 
ATOM     10  CB  PRO P 571      35.383  73.867  92.069  0.73  9.69 LIG 0.05  C 
ENDBRANCH 3 6
ENDBRANCH 1 2
BRANCH 1 11
ATOM     11  C   GLY P 572      30.320  73.349  90.185  0.73  5.30 LIG 0.24  C 
ATOM     12  N   ALA P 573      29.095  73.867  90.231  0.73  5.43 LIG-0.35  N 
ATOM     13 H    ALA P 573      28.873  74.570  89.787  0.73  5.43 LIG 0.16  HD
ATOM     14 O    GLY P 572      30.681  72.394  90.878  0.73  3.60 LIG-0.27  OA
BRANCH 12 15
ATOM     15  CA  ALA P 573      28.002  73.318  91.020  0.73  6.34 LIG 0.18  C 
ATOM     16  CB  ALA P 573      27.896  71.827  90.811  0.73  5.76 LIG 0.04  C 
BRANCH 15 17
ATOM     17  C   ALA P 573      28.323  73.619  92.483  0.73  7.45 LIG 0.20  C 
ATOM     18 OXT  ALA P 573      28.672  72.676  93.225  0.73  4.81 LIG-0.65  OA
ATOM     19 O    ALA P 573      28.234  74.806  92.866  0.73  9.82 LIG-0.65  OA
ENDBRANCH 15 17
ENDBRANCH 12 15
ENDBRANCH 1 11
TORSDOF 5
ENDMDL
MODEL 6
USER: ADFR SOLUTION from run 198
USER: SCORE 8.276403 LL:  -0.911 LR:  -7.565 RR:   0.000 FEB:  -6.074
USER: RMSD 6.140190
USER: SEED 197
USER: STATUS no improvement in best in 23 clusters for 5 generations
USER: GENES 7
USER: genes 0 Translation |==|  0.79277 0.41280 0.64014
USER: genes 1 Rotation |==|  0.97193 0.40160 0.60272 0.58393
USER: genes 2 Torsion [C]-CA--N-[C] |==|  0.30480
USER: genes 3 Torsion [N]-C--CA-[N] |==|  0.72223
USER: genes 4 Torsion [N]-CA--C-[N] |==|  0.42269
USER: genes 5 Torsion [C]-N--CA-[CB] |==|  0.11093
USER: genes 6 Torsion [N]-CA--C-[OXT] |==|  0.75660
ROOT
ATOM      1  CA  GLY P 572      37.938  71.630  91.743  0.73  6.50 LIG 0.23  C 
ENDROOT
BRANCH 1 2
ATOM      2  N   GLY P 572      36.625  72.239  91.898  0.73  9.23 LIG-0.35  N 
ATOM      3  C   PRO P 571      36.382  73.555  91.837  0.73  8.22 LIG 0.25  C 
ATOM      4 O    PRO P 571      37.232  74.414  91.591  0.73  7.23 LIG-0.27  OA
ATOM      5 H    GLY P 572      36.002  71.662  92.037  0.73  9.23 LIG 0.16  HD
BRANCH 3 6
ATOM      6  CA  PRO P 571      34.918  73.962  92.053  0.73  9.03 LIG 0.35  C 
ATOM      7  N   PRO P 571      34.194  74.243  90.772  0.73 10.09 LIG 0.32  N 
ATOM      8  CD  PRO P 571      32.937  73.493  90.977  0.73  9.16 LIG 0.32  C 
ATOM      9  CG  PRO P 571      32.821  73.192  92.476  0.73  9.15 LIG 0.04  C 
ATOM     10  CB  PRO P 571      34.168  72.881  92.827  0.73  9.69 LIG 0.05  C 
ENDBRANCH 3 6
ENDBRANCH 1 2
BRANCH 1 11
ATOM     11  C   GLY P 572      38.290  71.121  93.139  0.73  5.30 LIG 0.24  C 
ATOM     12  N   ALA P 573      39.107  70.071  93.145  0.73  5.43 LIG-0.35  N 
ATOM     13 H    ALA P 573      39.390  69.701  92.422  0.73  5.43 LIG 0.16  HD
ATOM     14 O    GLY P 572      37.806  71.613  94.162  0.73  3.60 LIG-0.27  OA
BRANCH 12 15
ATOM     15  CA  ALA P 573      39.613  69.433  94.352  0.73  6.34 LIG 0.18  C 
ATOM     16  CB  ALA P 573      38.531  69.357  95.402  0.73  5.76 LIG 0.04  C 
BRANCH 15 17
ATOM     17  C   ALA P 573      40.054  68.027  93.954  0.73  7.45 LIG 0.20  C 
ATOM     18 OXT  ALA P 573      39.211  67.106  93.976  0.73  4.81 LIG-0.65  OA
ATOM     19 O    ALA P 573      41.246  67.867  93.608  0.73  9.82 LIG-0.65  OA
ENDBRANCH 15 17
ENDBRANCH 12 15
ENDBRANCH 1 11
TORSDOF 5
ENDMDL
MODEL 7
USER: ADFR SOLUTION from run 69
USER: SCORE 8.748003 LL:  -1.232 LR:  -7.573 RR:   0.000 FEB:  -6.082
USER: RMSD 6.907260
USER: SEED 68
USER: STATUS no improvement in best in 25 clusters for 5 generations
USER: GENES 7
USER: genes 0 Translation |==|  0.27748 0.75395 0.60157
USER: genes 1 Rotation |==|  0.42940 0.21744 0.09806 0.56019
USER: genes 2 Torsion [C]-CA--N-[C] |==|  0.80384
USER: genes 3 Torsion [N]-C--CA-[N] |==|  0.04958
USER: genes 4 Torsion [N]-CA--C-[N] |==|  0.91667
USER: genes 5 Torsion [C]-N--CA-[CB] |==|  0.46495
USER: genes 6 Torsion [N]-CA--C-[OXT] |==|  0.96905
ROOT
ATOM      1  CA  GLY P 572      29.435  75.980  91.222  0.73  6.50 LIG 0.23  C 
ENDROOT
BRANCH 1 2
ATOM      2  N   GLY P 572      30.524  75.240  90.601  0.73  9.23 LIG-0.35  N 
ATOM      3  C   PRO P 571      31.503  74.617  91.270  0.73  8.22 LIG 0.25  C 
ATOM      4 O    PRO P 571      31.580  74.549  92.498  0.73  7.23 LIG-0.27  OA
ATOM      5 H    GLY P 572      30.481  75.239  89.742  0.73  9.23 LIG 0.16  HD
BRANCH 3 6
ATOM      6  CA  PRO P 571      32.554  73.921  90.395  0.73  9.03 LIG 0.35  C 
ATOM      7  N   PRO P 571      32.548  74.404  88.977  0.73 10.09 LIG 0.32  N 
ATOM      8  CD  PRO P 571      33.990  74.617  88.735  0.73  9.16 LIG 0.32  C 
ATOM      9  CG  PRO P 571      34.756  73.864  89.830  0.73  9.15 LIG 0.04  C 
ATOM     10  CB  PRO P 571      33.951  74.106  90.982  0.73  9.69 LIG 0.05  C 
ENDBRANCH 3 6
ENDBRANCH 1 2
BRANCH 1 11
ATOM     11  C   GLY P 572      28.564  74.905  91.869  0.73  5.30 LIG 0.24  C 
ATOM     12  N   ALA P 573      28.587  73.734  91.239  0.73  5.43 LIG-0.35  N 
ATOM     13 H    ALA P 573      29.038  73.605  90.518  0.73  5.43 LIG 0.16  HD
ATOM     14 O    GLY P 572      27.858  75.134  92.855  0.73  3.60 LIG-0.27  OA
BRANCH 12 15
ATOM     15  CA  ALA P 573      27.869  72.549  91.685  0.73  6.34 LIG 0.18  C 
ATOM     16  CB  ALA P 573      27.857  71.499  90.601  0.73  5.76 LIG 0.04  C 
BRANCH 15 17
ATOM     17  C   ALA P 573      28.610  72.023  92.913  0.73  7.45 LIG 0.20  C 
ATOM     18 OXT  ALA P 573      29.732  72.499  93.185  0.73  4.81 LIG-0.65  OA
ATOM     19 O    ALA P 573      28.045  71.144  93.601  0.73  9.82 LIG-0.65  OA
ENDBRANCH 15 17
ENDBRANCH 12 15
ENDBRANCH 1 11
TORSDOF 5
ENDMDL
MODEL 8
USER: ADFR SOLUTION from run 71
USER: SCORE 8.290116 LL:  -1.133 LR:  -7.417 RR:   0.000 FEB:  -5.926
USER: RMSD 6.393656
USER: SEED 70
USER: STATUS no improvement in best in 27 clusters for 5 generations
USER: GENES 7
USER: genes 0 Translation |==|  0.55318 0.60668 0.65500
USER: genes 1 Rotation |==|  0.57097 0.42731 0.97881 0.60208
USER: genes 2 Torsion [C]-CA--N-[C] |==|  0.47406
USER: genes 3 Torsion [N]-C--CA-[N] |==|  0.75455
USER: genes 4 Torsion [N]-CA--C-[N] |==|  0.52183
USER: genes 5 Torsion [C]-N--CA-[CB] |==|  0.14628
USER: genes 6 Torsion [N]-CA--C-[OXT] |==|  0.04852
ROOT
ATOM      1  CA  GLY P 572      33.984  74.102  91.944  0.73  6.50 LIG 0.23  C 
ENDROOT
BRANCH 1 2
ATOM      2  N   GLY P 572      34.841  73.870  90.790  0.73  9.23 LIG-0.35  N 
ATOM      3  C   PRO P 571      36.180  73.867  90.822  0.73  8.22 LIG 0.25  C 
ATOM      4 O    PRO P 571      36.858  74.012  91.842  0.73  7.23 LIG-0.27  OA
ATOM      5 H    GLY P 572      34.398  73.731  90.066  0.73  9.23 LIG 0.16  HD
BRANCH 3 6
ATOM      6  CA  PRO P 571      36.867  73.621  89.472  0.73  9.03 LIG 0.35  C 
ATOM      7  N   PRO P 571      37.085  72.167  89.184  0.73 10.09 LIG 0.32  N 
ATOM      8  CD  PRO P 571      36.608  72.071  87.789  0.73  9.16 LIG 0.32  C 
ATOM      9  CG  PRO P 571      36.550  73.496  87.224  0.73  9.15 LIG 0.04  C 
ATOM     10  CB  PRO P 571      36.059  74.242  88.336  0.73  9.69 LIG 0.05  C 
ENDBRANCH 3 6
ENDBRANCH 1 2
BRANCH 1 11
ATOM     11  C   GLY P 572      32.582  74.241  91.356  0.73  5.30 LIG 0.24  C 
ATOM     12  N   ALA P 573      31.659  74.624  92.235  0.73  5.43 LIG-0.35  N 
ATOM     13 H    ALA P 573      31.838  74.758  93.065  0.73  5.43 LIG 0.16  HD
ATOM     14 O    GLY P 572      32.328  73.962  90.181  0.73  3.60 LIG-0.27  OA
BRANCH 12 15
ATOM     15  CA  ALA P 573      30.261  74.860  91.904  0.73  6.34 LIG 0.18  C 
ATOM     16  CB  ALA P 573      29.678  73.665  91.190  0.73  5.76 LIG 0.04  C 
BRANCH 15 17
ATOM     17  C   ALA P 573      29.530  75.086  93.226  0.73  7.45 LIG 0.20  C 
ATOM     18 OXT  ALA P 573      30.201  75.367  94.241  0.73  4.81 LIG-0.65  OA
ATOM     19 O    ALA P 573      28.282  74.992  93.224  0.73  9.82 LIG-0.65  OA
ENDBRANCH 15 17
ENDBRANCH 12 15
ENDBRANCH 1 11
TORSDOF 5
ENDMDL
MODEL 9
USER: ADFR SOLUTION from run 167
USER: SCORE 8.025590 LL:  -1.032 LR:  -7.422 RR:   0.000 FEB:  -5.930
USER: RMSD 7.055911
USER: SEED 166
USER: STATUS no improvement in best in 39 clusters for 5 generations
USER: GENES 7
USER: genes 0 Translation |==|  0.18013 0.39584 0.55907
USER: genes 1 Rotation |==|  0.29966 0.05347 0.59915 0.52530
USER: genes 2 Torsion [C]-CA--N-[C] |==|  0.12623
USER: genes 3 Torsion [N]-C--CA-[N] |==|  0.61881
USER: genes 4 Torsion [N]-CA--C-[N] |==|  0.15000
USER: genes 5 Torsion [C]-N--CA-[CB] |==|  0.87452
USER: genes 6 Torsion [N]-CA--C-[OXT] |==|  0.27210
ROOT
ATOM      1  CA  GLY P 572      27.829  71.414  90.648  0.73  6.50 LIG 0.23  C 
ENDROOT
BRANCH 1 2
ATOM      2  N   GLY P 572      28.907  70.823  91.428  0.73  9.23 LIG-0.35  N 
ATOM      3  C   PRO P 571      29.061  70.969  92.751  0.73  8.22 LIG 0.25  C 
ATOM      4 O    PRO P 571      28.281  71.582  93.484  0.73  7.23 LIG-0.27  OA
ATOM      5 H    GLY P 572      29.451  70.359  90.950  0.73  9.23 LIG 0.16  HD
BRANCH 3 6
ATOM      6  CA  PRO P 571      30.288  70.269  93.349  0.73  9.03 LIG 0.35  C 
ATOM      7  N   PRO P 571      29.991  69.571  94.641  0.73 10.09 LIG 0.32  N 
ATOM      8  CD  PRO P 571      30.638  68.261  94.420  0.73  9.16 LIG 0.32  C 
ATOM      9  CG  PRO P 571      31.605  68.419  93.241  0.73  9.15 LIG 0.04  C 
ATOM     10  CB  PRO P 571      30.870  69.264  92.358  0.73  9.69 LIG 0.05  C 
ENDBRANCH 3 6
ENDBRANCH 1 2
BRANCH 1 11
ATOM     11  C   GLY P 572      27.748  72.857  91.141  0.73  5.30 LIG 0.24  C 
ATOM     12  N   ALA P 573      28.901  73.517  91.084  0.73  5.43 LIG-0.35  N 
ATOM     13 H    ALA P 573      29.631  73.152  90.814  0.73  5.43 LIG 0.16  HD
ATOM     14 O    GLY P 572      26.710  73.338  91.605  0.73  3.60 LIG-0.27  OA
BRANCH 12 15
ATOM     15  CA  ALA P 573      29.066  74.913  91.462  0.73  6.34 LIG 0.18  C 
ATOM     16  CB  ALA P 573      27.950  75.752  90.888  0.73  5.76 LIG 0.04  C 
BRANCH 15 17
ATOM     17  C   ALA P 573      29.024  74.963  92.988  0.73  7.45 LIG 0.20  C 
ATOM     18 OXT  ALA P 573      30.104  74.996  93.616  0.73  4.81 LIG-0.65  OA
ATOM     19 O    ALA P 573      27.901  74.982  93.539  0.73  9.82 LIG-0.65  OA
ENDBRANCH 15 17
ENDBRANCH 12 15
ENDBRANCH 1 11
TORSDOF 5
ENDMDL
MODEL 10
USER: ADFR SOLUTION from run 121
USER: SCORE 9.041082 LL:  -1.634 LR:  -7.415 RR:   0.000 FEB:  -5.924
USER: RMSD 7.533290
USER: SEED 120
USER: STATUS no improvement in best in 30 clusters for 5 generations
USER: GENES 7
USER: genes 0 Translation |==|  0.12527 0.70331 0.59071
USER: genes 1 Rotation |==|  0.59887 0.22758 0.10629 0.60489
USER: genes 2 Torsion [C]-CA--N-[C] |==|  0.77539
USER: genes 3 Torsion [N]-C--CA-[N] |==|  0.53600
USER: genes 4 Torsion [N]-CA--C-[N] |==|  0.99673
USER: genes 5 Torsion [C]-N--CA-[CB] |==|  0.30430
USER: genes 6 Torsion [N]-CA--C-[OXT] |==|  0.63034
ROOT
ATOM      1  CA  GLY P 572      26.924  75.334  91.076  0.73  6.50 LIG 0.23  C 
ENDROOT
BRANCH 1 2
ATOM      2  N   GLY P 572      28.377  75.351  90.996  0.73  9.23 LIG-0.35  N 
ATOM      3  C   PRO P 571      29.200  75.318  92.053  0.73  8.22 LIG 0.25  C 
ATOM      4 O    PRO P 571      28.832  75.219  93.225  0.73  7.23 LIG-0.27  OA
ATOM      5 H    GLY P 572      28.668  75.385  90.187  0.73  9.23 LIG 0.16  HD
BRANCH 3 6
ATOM      6  CA  PRO P 571      30.697  75.367  91.719  0.73  9.03 LIG 0.35  C 
ATOM      7  N   PRO P 571      31.568  75.020  92.888  0.73 10.09 LIG 0.32  N 
ATOM      8  CD  PRO P 571      32.517  74.069  92.272  0.73  9.16 LIG 0.32  C 
ATOM      9  CG  PRO P 571      32.421  74.244  90.751  0.73  9.15 LIG 0.04  C 
ATOM     10  CB  PRO P 571      31.020  74.431  90.557  0.73  9.69 LIG 0.05  C 
ENDBRANCH 3 6
ENDBRANCH 1 2
BRANCH 1 11
ATOM     11  C   GLY P 572      26.569  73.862  91.275  0.73  5.30 LIG 0.24  C 
ATOM     12  N   ALA P 573      27.620  73.047  91.293  0.73  5.43 LIG-0.35  N 
ATOM     13 H    ALA P 573      28.426  73.327  91.179  0.73  5.43 LIG 0.16  HD
ATOM     14 O    GLY P 572      25.402  73.469  91.351  0.73  3.60 LIG-0.27  OA
BRANCH 12 15
ATOM     15  CA  ALA P 573      27.539  71.609  91.506  0.73  6.34 LIG 0.18  C 
ATOM     16  CB  ALA P 573      27.858  70.867  90.230  0.73  5.76 LIG 0.04  C 
BRANCH 15 17
ATOM     17  C   ALA P 573      28.567  71.265  92.581  0.73  7.45 LIG 0.20  C 
ATOM     18 OXT  ALA P 573      29.329  70.293  92.391  0.73  4.81 LIG-0.65  OA
ATOM     19 O    ALA P 573      28.607  71.988  93.601  0.73  9.82 LIG-0.65  OA
ENDBRANCH 15 17
ENDBRANCH 12 15
ENDBRANCH 1 11
TORSDOF 5
ENDMDL
MODEL 11
USER: ADFR SOLUTION from run 64
USER: SCORE 8.119622 LL:  -1.057 LR:  -7.375 RR:   0.000 FEB:  -5.884
USER: RMSD 6.615935
USER: SEED 63
USER: STATUS no improvement in best in 34 clusters for 5 generations
USER: GENES 7
USER: genes 0 Translation |==|  0.44960 0.60217 0.46329
USER: genes 1 Rotation |==|  0.44487 0.01499 0.45080 0.59646
USER: genes 2 Torsion [C]-CA--N-[C] |==|  0.65709
USER: genes 3 Torsion [N]-C--CA-[N] |==|  0.80921
USER: genes 4 Torsion [N]-CA--C-[N] |==|  0.47251
USER: genes 5 Torsion [C]-N--CA-[CB] |==|  0.44443
USER: genes 6 Torsion [N]-CA--C-[OXT] |==|  0.06527
ROOT
ATOM      1  CA  GLY P 572      32.275  74.045  89.355  0.73  6.50 LIG 0.23  C 
ENDROOT
BRANCH 1 2
ATOM      2  N   GLY P 572      33.673  73.728  89.611  0.73  9.23 LIG-0.35  N 
ATOM      3  C   PRO P 571      34.705  74.204  88.903  0.73  8.22 LIG 0.25  C 
ATOM      4 O    PRO P 571      34.607  75.011  87.976  0.73  7.23 LIG-0.27  OA
ATOM      5 H    GLY P 572      33.779  73.192  90.276  0.73  9.23 LIG 0.16  HD
BRANCH 3 6
ATOM      6  CA  PRO P 571      36.088  73.710  89.347  0.73  9.03 LIG 0.35  C 
ATOM      7  N   PRO P 571      36.497  74.242  90.687  0.73 10.09 LIG 0.32  N 
ATOM      8  CD  PRO P 571      36.987  73.016  91.351  0.73  9.16 LIG 0.32  C 
ATOM      9  CG  PRO P 571      37.232  71.969  90.258  0.73  9.15 LIG 0.04  C 
ATOM     10  CB  PRO P 571      36.129  72.184  89.380  0.73  9.69 LIG 0.05  C 
ENDBRANCH 3 6
ENDBRANCH 1 2
BRANCH 1 11
ATOM     11  C   GLY P 572      31.766  74.617  90.677  0.73  5.30 LIG 0.24  C 
ATOM     12  N   ALA P 573      30.556  75.165  90.601  0.73  5.43 LIG-0.35  N 
ATOM     13 H    ALA P 573      30.114  75.212  89.865  0.73  5.43 LIG 0.16  HD
ATOM     14 O    GLY P 572      32.450  74.617  91.703  0.73  3.60 LIG-0.27  OA
BRANCH 12 15
ATOM     15  CA  ALA P 573      29.846  75.742  91.733  0.73  6.34 LIG 0.18  C 
ATOM     16  CB  ALA P 573      28.768  76.686  91.256  0.73  5.76 LIG 0.04  C 
BRANCH 15 17
ATOM     17  C   ALA P 573      29.219  74.578  92.498  0.73  7.45 LIG 0.20  C 
ATOM     18 OXT  ALA P 573      29.723  73.442  92.376  0.73  4.81 LIG-0.65  OA
ATOM     19 O    ALA P 573      28.232  74.824  93.226  0.73  9.82 LIG-0.65  OA
ENDBRANCH 15 17
ENDBRANCH 12 15
ENDBRANCH 1 11
TORSDOF 5
ENDMDL
MODEL 12
USER: ADFR SOLUTION from run 78
USER: SCORE 8.146740 LL:  -1.073 LR:  -7.234 RR:   0.000 FEB:  -5.743
USER: RMSD 7.837427
USER: SEED 77
USER: STATUS no improvement in best in 24 clusters for 5 generations
USER: GENES 7
USER: genes 0 Translation |==|  0.11351 0.42347 0.58827
USER: genes 1 Rotation |==|  0.33317 0.11771 0.72834 0.65453
USER: genes 2 Torsion [C]-CA--N-[C] |==|  0.19923
USER: genes 3 Torsion [N]-C--CA-[N] |==|  0.62268
USER: genes 4 Torsion [N]-CA--C-[N] |==|  0.59960
USER: genes 5 Torsion [C]-N--CA-[CB] |==|  0.51447
USER: genes 6 Torsion [N]-CA--C-[OXT] |==|  0.90606
ROOT
ATOM      1  CA  GLY P 572      26.730  71.766  91.043  0.73  6.50 LIG 0.23  C 
ENDROOT
BRANCH 1 2
ATOM      2  N   GLY P 572      28.082  71.228  91.073  0.73  9.23 LIG-0.35  N 
ATOM      3  C   PRO P 571      28.904  71.288  92.129  0.73  8.22 LIG 0.25  C 
ATOM      4 O    PRO P 571      28.602  71.762  93.226  0.73  7.23 LIG-0.27  OA
ATOM      5 H    GLY P 572      28.312  70.858  90.331  0.73  9.23 LIG 0.16  HD
BRANCH 3 6
ATOM      6  CA  PRO P 571      30.292  70.670  91.914  0.73  9.03 LIG 0.35  C 
ATOM      7  N   PRO P 571      30.739  69.822  93.066  0.73 10.09 LIG 0.32  N 
ATOM      8  CD  PRO P 571      31.232  68.617  92.367  0.73  9.16 LIG 0.32  C 
ATOM      9  CG  PRO P 571      31.439  68.992  90.895  0.73  9.15 LIG 0.04  C 
ATOM     10  CB  PRO P 571      30.317  69.834  90.637  0.73  9.69 LIG 0.05  C 
ENDBRANCH 3 6
ENDBRANCH 1 2
BRANCH 1 11
ATOM     11  C   GLY P 572      26.922  73.281  91.014  0.73  5.30 LIG 0.24  C 
ATOM     12  N   ALA P 573      26.004  73.959  91.699  0.73  5.43 LIG-0.35  N 
ATOM     13 H    ALA P 573      25.349  73.574  92.101  0.73  5.43 LIG 0.16  HD
ATOM     14 O    GLY P 572      27.820  73.820  90.362  0.73  3.60 LIG-0.27  OA
BRANCH 12 15
ATOM     15  CA  ALA P 573      25.998  75.407  91.850  0.73  6.34 LIG 0.18  C 
ATOM     16  CB  ALA P 573      24.896  75.835  92.788  0.73  5.76 LIG 0.04  C 
BRANCH 15 17
ATOM     17  C   ALA P 573      27.357  75.794  92.429  0.73  7.45 LIG 0.20  C 
ATOM     18 OXT  ALA P 573      27.913  75.009  93.226  0.73  4.81 LIG-0.65  OA
ATOM     19 O    ALA P 573      27.857  76.880  92.063  0.73  9.82 LIG-0.65  OA
ENDBRANCH 15 17
ENDBRANCH 12 15
ENDBRANCH 1 11
TORSDOF 5
ENDMDL
MODEL 13
USER: ADFR SOLUTION from run 188
USER: SCORE 7.720810 LL:  -1.081 LR:  -7.162 RR:   0.000 FEB:  -5.671
USER: RMSD 6.255818
USER: SEED 187
USER: STATUS no improvement in best in 28 clusters for 5 generations
USER: GENES 7
USER: genes 0 Translation |==|  0.60129 0.48906 0.70175
USER: genes 1 Rotation |==|  0.31474 0.56506 0.05609 0.61996
USER: genes 2 Torsion [C]-CA--N-[C] |==|  0.59891
USER: genes 3 Torsion [N]-C--CA-[N] |==|  0.61558
USER: genes 4 Torsion [N]-CA--C-[N] |==|  0.63681
USER: genes 5 Torsion [C]-N--CA-[CB] |==|  0.20432
USER: genes 6 Torsion [N]-CA--C-[OXT] |==|  0.85095
ROOT
ATOM      1  CA  GLY P 572      34.778  72.602  92.575  0.73  6.50 LIG 0.23  C 
ENDROOT
BRANCH 1 2
ATOM      2  N   GLY P 572      34.973  73.205  91.264  0.73  9.23 LIG-0.35  N 
ATOM      3  C   PRO P 571      36.153  73.616  90.780  0.73  8.22 LIG 0.25  C 
ATOM      4 O    PRO P 571      37.231  73.491  91.364  0.73  7.23 LIG-0.27  OA
ATOM      5 H    GLY P 572      34.242  73.276  90.816  0.73  9.23 LIG 0.16  HD
BRANCH 3 6
ATOM      6  CA  PRO P 571      36.104  74.242  89.380  0.73  9.03 LIG 0.35  C 
ATOM      7  N   PRO P 571      37.241  73.806  88.506  0.73 10.09 LIG 0.32  N 
ATOM      8  CD  PRO P 571      36.533  73.471  87.253  0.73  9.16 LIG 0.32  C 
ATOM      9  CG  PRO P 571      35.143  74.116  87.323  0.73  9.15 LIG 0.04  C 
ATOM     10  CB  PRO P 571      34.784  73.912  88.689  0.73  9.69 LIG 0.05  C 
ENDBRANCH 3 6
ENDBRANCH 1 2
BRANCH 1 11
ATOM     11  C   GLY P 572      33.683  71.560  92.357  0.73  5.30 LIG 0.24  C 
ATOM     12  N   ALA P 573      32.691  71.622  93.241  0.73  5.43 LIG-0.35  N 
ATOM     13 H    ALA P 573      32.683  72.185  93.890  0.73  5.43 LIG 0.16  HD
ATOM     14 O    GLY P 572      33.754  70.705  91.471  0.73  3.60 LIG-0.27  OA
BRANCH 12 15
ATOM     15  CA  ALA P 573      31.518  70.759  93.217  0.73  6.34 LIG 0.18  C 
ATOM     16  CB  ALA P 573      31.879  69.364  93.668  0.73  5.76 LIG 0.04  C 
BRANCH 15 17
ATOM     17  C   ALA P 573      30.502  71.373  94.179  0.73  7.45 LIG 0.20  C 
ATOM     18 OXT  ALA P 573      30.859  71.615  95.351  0.73  4.81 LIG-0.65  OA
ATOM     19 O    ALA P 573      29.358  71.617  93.738  0.73  9.82 LIG-0.65  OA
ENDBRANCH 15 17
ENDBRANCH 12 15
ENDBRANCH 1 11
TORSDOF 5
ENDMDL
MODEL 14
USER: ADFR SOLUTION from run 193
USER: SCORE 7.911289 LL:  -1.197 LR:  -7.151 RR:   0.000 FEB:  -5.659
USER: RMSD 6.119860
USER: SEED 192
USER: STATUS no improvement in best in 29 clusters for 5 generations
USER: GENES 7
USER: genes 0 Translation |==|  0.38016 0.56349 0.47445
USER: genes 1 Rotation |==|  0.81260 0.85472 0.63436 0.59169
USER: genes 2 Torsion [C]-CA--N-[C] |==|  0.18736
USER: genes 3 Torsion [N]-C--CA-[N] |==|  0.84631
USER: genes 4 Torsion [N]-CA--C-[N] |==|  0.70555
USER: genes 5 Torsion [C]-N--CA-[CB] |==|  0.47125
USER: genes 6 Torsion [N]-CA--C-[OXT] |==|  0.22457
ROOT
ATOM      1  CA  GLY P 572      31.130  73.552  89.506  0.73  6.50 LIG 0.23  C 
ENDROOT
BRANCH 1 2
ATOM      2  N   GLY P 572      30.906  72.240  90.096  0.73  9.23 LIG-0.35  N 
ATOM      3  C   PRO P 571      29.725  71.798  90.549  0.73  8.22 LIG 0.25  C 
ATOM      4 O    PRO P 571      28.667  72.427  90.478  0.73  7.23 LIG-0.27  OA
ATOM      5 H    GLY P 572      31.620  71.761  90.129  0.73  9.23 LIG 0.16  HD
BRANCH 3 6
ATOM      6  CA  PRO P 571      29.741  70.386  91.150  0.73  9.03 LIG 0.35  C 
ATOM      7  N   PRO P 571      30.288  69.356  90.210  0.73 10.09 LIG 0.32  N 
ATOM      8  CD  PRO P 571      31.221  68.623  91.091  0.73  9.16 LIG 0.32  C 
ATOM      9  CG  PRO P 571      30.857  68.973  92.539  0.73  9.15 LIG 0.04  C 
ATOM     10  CB  PRO P 571      30.549  70.363  92.446  0.73  9.69 LIG 0.05  C 
ENDBRANCH 3 6
ENDBRANCH 1 2
BRANCH 1 11
ATOM     11  C   GLY P 572      30.924  74.530  90.661  0.73  5.30 LIG 0.24  C 
ATOM     12  N   ALA P 573      29.781  75.209  90.601  0.73  5.43 LIG-0.35  N 
ATOM     13 H    ALA P 573      29.222  75.118  89.954  0.73  5.43 LIG 0.16  HD
ATOM     14 O    GLY P 572      31.777  74.709  91.534  0.73  3.60 LIG-0.27  OA
BRANCH 12 15
ATOM     15  CA  ALA P 573      29.346  76.170  91.604  0.73  6.34 LIG 0.18  C 
ATOM     16  CB  ALA P 573      28.143  76.938  91.113  0.73  5.76 LIG 0.04  C 
BRANCH 15 17
ATOM     17  C   ALA P 573      28.979  75.367  92.851  0.73  7.45 LIG 0.20  C 
ATOM     18 OXT  ALA P 573      29.896  74.994  93.613  0.73  4.81 LIG-0.65  OA
ATOM     19 O    ALA P 573      27.768  75.133  93.057  0.73  9.82 LIG-0.65  OA
ENDBRANCH 15 17
ENDBRANCH 12 15
ENDBRANCH 1 11
TORSDOF 5
ENDMDL
MODEL 15
USER: ADFR SOLUTION from run 15
USER: SCORE 7.892186 LL:  -0.909 LR:  -7.120 RR:   0.000 FEB:  -5.628
USER: RMSD 6.787294
USER: SEED 436436
USER: STATUS no improvement in best in 21 clusters for 5 generations
USER: GENES 7
USER: genes 0 Translation |==|  0.27534 0.49963 0.47218
USER: genes 1 Rotation |==|  0.58780 0.07755 0.65952 0.69590
USER: genes 2 Torsion [C]-CA--N-[C] |==|  0.30373
USER: genes 3 Torsion [N]-C--CA-[N] |==|  0.33716
USER: genes 4 Torsion [N]-CA--C-[N] |==|  0.99442
USER: genes 5 Torsion [C]-N--CA-[CB] |==|  0.80505
USER: genes 6 Torsion [N]-CA--C-[OXT] |==|  0.21464
ROOT
ATOM      1  CA  GLY P 572      29.400  72.737  89.475  0.73  6.50 LIG 0.23  C 
ENDROOT
BRANCH 1 2
ATOM      2  N   GLY P 572      30.558  73.398  88.891  0.73  9.23 LIG-0.35  N 
ATOM      3  C   PRO P 571      31.830  73.034  89.099  0.73  8.22 LIG 0.25  C 
ATOM      4 O    PRO P 571      32.180  72.062  89.771  0.73  7.23 LIG-0.27  OA
ATOM      5 H    GLY P 572      30.346  74.062  88.387  0.73  9.23 LIG 0.16  HD
BRANCH 3 6
ATOM      6  CA  PRO P 571      32.883  73.898  88.391  0.73  9.03 LIG 0.35  C 
ATOM      7  N   PRO P 571      33.855  74.529  89.340  0.73 10.09 LIG 0.32  N 
ATOM      8  CD  PRO P 571      35.142  74.242  88.673  0.73  9.16 LIG 0.32  C 
ATOM      9  CG  PRO P 571      34.831  73.861  87.221  0.73  9.15 LIG 0.04  C 
ATOM     10  CB  PRO P 571      33.650  73.074  87.360  0.73  9.69 LIG 0.05  C 
ENDBRANCH 3 6
ENDBRANCH 1 2
BRANCH 1 11
ATOM     11  C   GLY P 572      28.866  73.737  90.500  0.73  5.30 LIG 0.24  C 
ATOM     12  N   ALA P 573      29.589  74.849  90.601  0.73  5.43 LIG-0.35  N 
ATOM     13 H    ALA P 573      30.306  74.979  90.144  0.73  5.43 LIG 0.16  HD
ATOM     14 O    GLY P 572      27.884  73.496  91.207  0.73  3.60 LIG-0.27  OA
BRANCH 12 15
ATOM     15  CA  ALA P 573      29.260  75.963  91.480  0.73  6.34 LIG 0.18  C 
ATOM     16  CB  ALA P 573      28.033  76.686  90.979  0.73  5.76 LIG 0.04  C 
BRANCH 15 17
ATOM     17  C   ALA P 573      28.988  75.368  92.860  0.73  7.45 LIG 0.20  C 
ATOM     18 OXT  ALA P 573      29.960  75.021  93.564  0.73  4.81 LIG-0.65  OA
ATOM     19 O    ALA P 573      27.796  75.269  93.226  0.73  9.82 LIG-0.65  OA
ENDBRANCH 15 17
ENDBRANCH 12 15
ENDBRANCH 1 11
TORSDOF 5
ENDMDL
MODEL 16
USER: ADFR SOLUTION from run 103
USER: SCORE 7.946857 LL:  -0.985 LR:  -7.106 RR:   0.000 FEB:  -5.614
USER: RMSD 7.285259
USER: SEED 102
USER: STATUS no improvement in best in 32 clusters for 5 generations
USER: GENES 7
USER: genes 0 Translation |==|  0.15399 0.55427 0.55591
USER: genes 1 Rotation |==|  0.77787 0.30036 0.28876 0.79718
USER: genes 2 Torsion [C]-CA--N-[C] |==|  0.81111
USER: genes 3 Torsion [N]-C--CA-[N] |==|  0.89179
USER: genes 4 Torsion [N]-CA--C-[N] |==|  0.47435
USER: genes 5 Torsion [C]-N--CA-[CB] |==|  0.84638
USER: genes 6 Torsion [N]-CA--C-[OXT] |==|  0.07726
ROOT
ATOM      1  CA  GLY P 572      27.398  73.434  90.606  0.73  6.50 LIG 0.23  C 
ENDROOT
BRANCH 1 2
ATOM      2  N   GLY P 572      27.763  74.843  90.636  0.73  9.23 LIG-0.35  N 
ATOM      3  C   PRO P 571      27.935  75.563  91.752  0.73  8.22 LIG 0.25  C 
ATOM      4 O    PRO P 571      27.855  75.112  92.896  0.73  7.23 LIG-0.27  OA
ATOM      5 H    GLY P 572      27.860  75.180  89.850  0.73  9.23 LIG 0.16  HD
BRANCH 3 6
ATOM      6  CA  PRO P 571      28.297  77.038  91.530  0.73  9.03 LIG 0.35  C 
ATOM      7  N   PRO P 571      29.244  77.242  90.388  0.73 10.09 LIG 0.32  N 
ATOM      8  CD  PRO P 571      28.600  78.363  89.672  0.73  9.16 LIG 0.32  C 
ATOM      9  CG  PRO P 571      27.595  79.007  90.635  0.73  9.15 LIG 0.04  C 
ATOM     10  CB  PRO P 571      27.039  77.871  91.295  0.73  9.69 LIG 0.05  C 
ENDBRANCH 3 6
ENDBRANCH 1 2
BRANCH 1 11
ATOM     11  C   GLY P 572      28.619  72.711  91.169  0.73  5.30 LIG 0.24  C 
ATOM     12  N   ALA P 573      28.423  71.417  91.409  0.73  5.43 LIG-0.35  N 
ATOM     13 H    ALA P 573      27.665  71.032  91.279  0.73  5.43 LIG 0.16  HD
ATOM     14 O    GLY P 572      29.673  73.299  91.429  0.73  3.60 LIG-0.27  OA
BRANCH 12 15
ATOM     15  CA  ALA P 573      29.446  70.512  91.911  0.73  6.34 LIG 0.18  C 
ATOM     16  CB  ALA P 573      30.661  70.539  91.015  0.73  5.76 LIG 0.04  C 
BRANCH 15 17
ATOM     17  C   ALA P 573      29.818  71.001  93.309  0.73  7.45 LIG 0.20  C 
ATOM     18 OXT  ALA P 573      28.959  71.617  93.976  0.73  4.81 LIG-0.65  OA
ATOM     19 O    ALA P 573      30.969  70.747  93.728  0.73  9.82 LIG-0.65  OA
ENDBRANCH 15 17
ENDBRANCH 12 15
ENDBRANCH 1 11
TORSDOF 5
ENDMDL
MODEL 17
USER: ADFR SOLUTION from run 28
USER: SCORE 8.164909 LL:  -1.254 LR:  -7.091 RR:   0.000 FEB:  -5.600
USER: RMSD 7.027027
USER: SEED 27
USER: STATUS no improvement in best in 32 clusters for 5 generations
USER: GENES 7
USER: genes 0 Translation |==|  0.16086 0.56764 0.58646
USER: genes 1 Rotation |==|  0.77844 0.27943 0.34697 0.81686
USER: genes 2 Torsion [C]-CA--N-[C] |==|  0.81617
USER: genes 3 Torsion [N]-C--CA-[N] |==|  0.85615
USER: genes 4 Torsion [N]-CA--C-[N] |==|  0.87222
USER: genes 5 Torsion [C]-N--CA-[CB] |==|  0.52526
USER: genes 6 Torsion [N]-CA--C-[OXT] |==|  0.85253
ROOT
ATOM      1  CA  GLY P 572      27.511  73.604  91.018  0.73  6.50 LIG 0.23  C 
ENDROOT
BRANCH 1 2
ATOM      2  N   GLY P 572      27.706  75.036  90.846  0.73  9.23 LIG-0.35  N 
ATOM      3  C   PRO P 571      27.652  75.939  91.834  0.73  8.22 LIG 0.25  C 
ATOM      4 O    PRO P 571      27.480  75.666  93.024  0.73  7.23 LIG-0.27  OA
ATOM      5 H    GLY P 572      27.864  75.257  90.029  0.73  9.23 LIG 0.16  HD
BRANCH 3 6
ATOM      6  CA  PRO P 571      27.869  77.396  91.404  0.73  9.03 LIG 0.35  C 
ATOM      7  N   PRO P 571      29.112  77.587  90.590  0.73 10.09 LIG 0.32  N 
ATOM      8  CD  PRO P 571      28.608  78.416  89.476  0.73  9.16 LIG 0.32  C 
ATOM      9  CG  PRO P 571      27.259  79.000  89.913  0.73  9.15 LIG 0.04  C 
ATOM     10  CB  PRO P 571      26.668  77.907  90.611  0.73  9.69 LIG 0.05  C 
ENDBRANCH 3 6
ENDBRANCH 1 2
BRANCH 1 11
ATOM     11  C   GLY P 572      28.702  73.156  91.863  0.73  5.30 LIG 0.24  C 
ATOM     12  N   ALA P 573      29.872  73.639  91.454  0.73  5.43 LIG-0.35  N 
ATOM     13 H    ALA P 573      29.948  74.141  90.759  0.73  5.43 LIG 0.16  HD
ATOM     14 O    GLY P 572      28.583  72.367  92.804  0.73  3.60 LIG-0.27  OA
BRANCH 12 15
ATOM     15  CA  ALA P 573      31.142  73.383  92.118  0.73  6.34 LIG 0.18  C 
ATOM     16  CB  ALA P 573      32.229  74.252  91.533  0.73  5.76 LIG 0.04  C 
BRANCH 15 17
ATOM     17  C   ALA P 573      30.941  73.722  93.594  0.73  7.45 LIG 0.20  C 
ATOM     18 OXT  ALA P 573      30.484  74.845  93.893  0.73  4.81 LIG-0.65  OA
ATOM     19 O    ALA P 573      31.232  72.845  94.437  0.73  9.82 LIG-0.65  OA
ENDBRANCH 15 17
ENDBRANCH 12 15
ENDBRANCH 1 11
TORSDOF 5
ENDMDL
MODEL 18
USER: ADFR SOLUTION from run 98
USER: SCORE 7.762907 LL:  -1.364 LR:  -7.054 RR:   0.000 FEB:  -5.563
USER: RMSD 7.021322
USER: SEED 97
USER: STATUS no improvement in best in 29 clusters for 5 generations
USER: GENES 7
USER: genes 0 Translation |==|  0.20454 0.34131 0.50005
USER: genes 1 Rotation |==|  0.35110 0.02290 0.50182 0.51433
USER: genes 2 Torsion [C]-CA--N-[C] |==|  0.77773
USER: genes 3 Torsion [N]-C--CA-[N] |==|  0.56072
USER: genes 4 Torsion [N]-CA--C-[N] |==|  0.24371
USER: genes 5 Torsion [C]-N--CA-[CB] |==|  0.87304
USER: genes 6 Torsion [N]-CA--C-[OXT] |==|  0.96788
ROOT
ATOM      1  CA  GLY P 572      28.232  70.719  89.852  0.73  6.50 LIG 0.23  C 
ENDROOT
BRANCH 1 2
ATOM      2  N   GLY P 572      29.323  70.092  90.582  0.73  9.23 LIG-0.35  N 
ATOM      3  C   PRO P 571      30.571  70.574  90.653  0.73  8.22 LIG 0.25  C 
ATOM      4 O    PRO P 571      30.942  71.636  90.149  0.73  7.23 LIG-0.27  OA
ATOM      5 H    GLY P 572      29.089  69.364  90.976  0.73  9.23 LIG 0.16  HD
BRANCH 3 6
ATOM      6  CA  PRO P 571      31.557  69.724  91.466  0.73  9.03 LIG 0.35  C 
ATOM      7  N   PRO P 571      32.738  70.506  91.954  0.73 10.09 LIG 0.32  N 
ATOM      8  CD  PRO P 571      32.807  70.080  93.367  0.73  9.16 LIG 0.32  C 
ATOM      9  CG  PRO P 571      31.971  68.802  93.502  0.73  9.15 LIG 0.04  C 
ATOM     10  CB  PRO P 571      30.855  69.080  92.659  0.73  9.69 LIG 0.05  C 
ENDBRANCH 3 6
ENDBRANCH 1 2
BRANCH 1 11
ATOM     11  C   GLY P 572      27.742  71.831  90.776  0.73  5.30 LIG 0.24  C 
ATOM     12  N   ALA P 573      28.387  72.986  90.626  0.73  5.43 LIG-0.35  N 
ATOM     13 H    ALA P 573      29.037  73.085  90.072  0.73  5.43 LIG 0.16  HD
ATOM     14 O    GLY P 572      26.866  71.646  91.625  0.73  3.60 LIG-0.27  OA
BRANCH 12 15
ATOM     15  CA  ALA P 573      28.075  74.200  91.366  0.73  6.34 LIG 0.18  C 
ATOM     16  CB  ALA P 573      26.584  74.437  91.390  0.73  5.76 LIG 0.04  C 
BRANCH 15 17
ATOM     17  C   ALA P 573      28.594  73.993  92.788  0.73  7.45 LIG 0.20  C 
ATOM     18 OXT  ALA P 573      28.952  72.847  93.133  0.73  4.81 LIG-0.65  OA
ATOM     19 O    ALA P 573      28.648  74.992  93.539  0.73  9.82 LIG-0.65  OA
ENDBRANCH 15 17
ENDBRANCH 12 15
ENDBRANCH 1 11
TORSDOF 5
ENDMDL
MODEL 19
USER: ADFR SOLUTION from run 101
USER: SCORE 8.062564 LL:  -1.184 LR:  -7.023 RR:   0.000 FEB:  -5.532
USER: RMSD 6.414516
USER: SEED 100
USER: STATUS no improvement in best in 32 clusters for 5 generations
USER: GENES 7
USER: genes 0 Translation |==|  0.51377 0.59862 0.52313
USER: genes 1 Rotation |==|  0.63803 0.48565 0.95745 0.64657
USER: genes 2 Torsion [C]-CA--N-[C] |==|  0.27738
USER: genes 3 Torsion [N]-C--CA-[N] |==|  0.86215
USER: genes 4 Torsion [N]-CA--C-[N] |==|  0.46304
USER: genes 5 Torsion [C]-N--CA-[CB] |==|  0.16028
USER: genes 6 Torsion [N]-CA--C-[OXT] |==|  0.49393
ROOT
ATOM      1  CA  GLY P 572      33.334  73.999  90.163  0.73  6.50 LIG 0.23  C 
ENDROOT
BRANCH 1 2
ATOM      2  N   GLY P 572      33.717  73.467  88.864  0.73  9.23 LIG-0.35  N 
ATOM      3  C   PRO P 571      34.287  74.180  87.884  0.73  8.22 LIG 0.25  C 
ATOM      4 O    PRO P 571      34.607  75.367  87.976  0.73  7.23 LIG-0.27  OA
ATOM      5 H    GLY P 572      33.538  72.629  88.780  0.73  9.23 LIG 0.16  HD
BRANCH 3 6
ATOM      6  CA  PRO P 571      34.580  73.403  86.593  0.73  9.03 LIG 0.35  C 
ATOM      7  N   PRO P 571      35.301  72.113  86.838  0.73 10.09 LIG 0.32  N 
ATOM      8  CD  PRO P 571      34.521  71.179  86.000  0.73  9.16 LIG 0.32  C 
ATOM      9  CG  PRO P 571      33.697  72.021  85.019  0.73  9.15 LIG 0.04  C 
ATOM     10  CB  PRO P 571      33.287  73.119  85.832  0.73  9.69 LIG 0.05  C 
ENDBRANCH 3 6
ENDBRANCH 1 2
BRANCH 1 11
ATOM     11  C   GLY P 572      31.831  74.244  90.048  0.73  5.30 LIG 0.24  C 
ATOM     12  N   ALA P 573      31.226  74.470  91.211  0.73  5.43 LIG-0.35  N 
ATOM     13 H    ALA P 573      31.646  74.455  91.962  0.73  5.43 LIG 0.16  HD
ATOM     14 O    GLY P 572      31.232  74.178  88.971  0.73  3.60 LIG-0.27  OA
BRANCH 12 15
ATOM     15  CA  ALA P 573      29.808  74.766  91.354  0.73  6.34 LIG 0.18  C 
ATOM     16  CB  ALA P 573      28.975  73.655  90.762  0.73  5.76 LIG 0.04  C 
BRANCH 15 17
ATOM     17  C   ALA P 573      29.532  74.884  92.851  0.73  7.45 LIG 0.20  C 
ATOM     18 OXT  ALA P 573      28.377  75.178  93.225  0.73  4.81 LIG-0.65  OA
ATOM     19 O    ALA P 573      30.480  74.665  93.637  0.73  9.82 LIG-0.65  OA
ENDBRANCH 15 17
ENDBRANCH 12 15
ENDBRANCH 1 11
TORSDOF 5
ENDMDL
MODEL 20
USER: ADFR SOLUTION from run 8
USER: SCORE 8.316764 LL:  -1.584 LR:  -6.988 RR:   0.000 FEB:  -5.496
USER: RMSD 6.525537
USER: SEED 576317
USER: STATUS no improvement in best in 27 clusters for 5 generations
USER: GENES 7
USER: genes 0 Translation |==|  0.36825 0.67589 0.62562
USER: genes 1 Rotation |==|  0.06506 0.53568 0.29126 0.62642
USER: genes 2 Torsion [C]-CA--N-[C] |==|  0.16272
USER: genes 3 Torsion [N]-C--CA-[N] |==|  0.20246
USER: genes 4 Torsion [N]-CA--C-[N] |==|  0.14442
USER: genes 5 Torsion [C]-N--CA-[CB] |==|  0.87561
USER: genes 6 Torsion [N]-CA--C-[OXT] |==|  0.61943
ROOT
ATOM      1  CA  GLY P 572      30.933  74.985  91.547  0.73  6.50 LIG 0.23  C 
ENDROOT
BRANCH 1 2
ATOM      2  N   GLY P 572      29.554  75.013  91.083  0.73  9.23 LIG-0.35  N 
ATOM      3  C   PRO P 571      28.481  75.083  91.882  0.73  8.22 LIG 0.25  C 
ATOM      4 O    PRO P 571      28.527  75.182  93.110  0.73  7.23 LIG-0.27  OA
ATOM      5 H    GLY P 572      29.488  74.980  90.226  0.73  9.23 LIG 0.16  HD
BRANCH 3 6
ATOM      6  CA  PRO P 571      27.126  75.077  91.162  0.73  9.03 LIG 0.35  C 
ATOM      7  N   PRO P 571      26.767  73.735  90.601  0.73 10.09 LIG 0.32  N 
ATOM      8  CD  PRO P 571      25.366  73.597  91.047  0.73  9.16 LIG 0.32  C 
ATOM      9  CG  PRO P 571      24.872  74.992  91.449  0.73  9.15 LIG 0.04  C 
ATOM     10  CB  PRO P 571      26.015  75.541  92.102  0.73  9.69 LIG 0.05  C 
ENDBRANCH 3 6
ENDBRANCH 1 2
BRANCH 1 11
ATOM     11  C   GLY P 572      31.007  73.755  92.450  0.73  5.30 LIG 0.24  C 
ATOM     12  N   ALA P 573      30.553  72.639  91.887  0.73  5.43 LIG-0.35  N 
ATOM     13 H    ALA P 573      30.225  72.621  91.092  0.73  5.43 LIG 0.16  HD
ATOM     14 O    GLY P 572      31.401  73.817  93.618  0.73  3.60 LIG-0.27  OA
BRANCH 12 15
ATOM     15  CA  ALA P 573      30.555  71.335  92.534  0.73  6.34 LIG 0.18  C 
ATOM     16  CB  ALA P 573      31.878  71.086  93.217  0.73  5.76 LIG 0.04  C 
BRANCH 15 17
ATOM     17  C   ALA P 573      29.430  71.355  93.567  0.73  7.45 LIG 0.20  C 
ATOM     18 OXT  ALA P 573      29.645  70.867  94.696  0.73  4.81 LIG-0.65  OA
ATOM     19 O    ALA P 573      28.343  71.878  93.234  0.73  9.82 LIG-0.65  OA
ENDBRANCH 15 17
ENDBRANCH 12 15
ENDBRANCH 1 11
TORSDOF 5
ENDMDL
MODEL 21
USER: ADFR SOLUTION from run 172
USER: SCORE 7.912679 LL:  -1.068 LR:  -6.956 RR:   0.000 FEB:  -5.464
USER: RMSD 6.511159
USER: SEED 171
USER: STATUS no improvement in best in 29 clusters for 5 generations
USER: GENES 7
USER: genes 0 Translation |==|  0.38827 0.55888 0.43137
USER: genes 1 Rotation |==|  0.46793 0.04546 0.53050 0.70356
USER: genes 2 Torsion [C]-CA--N-[C] |==|  0.25499
USER: genes 3 Torsion [N]-C--CA-[N] |==|  0.90534
USER: genes 4 Torsion [N]-CA--C-[N] |==|  0.45991
USER: genes 5 Torsion [C]-N--CA-[CB] |==|  0.35900
USER: genes 6 Torsion [N]-CA--C-[OXT] |==|  0.63015
ROOT
ATOM      1  CA  GLY P 572      31.264  73.493  88.925  0.73  6.50 LIG 0.23  C 
ENDROOT
BRANCH 1 2
ATOM      2  N   GLY P 572      32.668  73.423  88.549  0.73  9.23 LIG-0.35  N 
ATOM      3  C   PRO P 571      33.512  72.453  88.925  0.73  8.22 LIG 0.25  C 
ATOM      4 O    PRO P 571      33.194  71.469  89.596  0.73  7.23 LIG-0.27  OA
ATOM      5 H    GLY P 572      32.914  74.080  88.050  0.73  9.23 LIG 0.16  HD
BRANCH 3 6
ATOM      6  CA  PRO P 571      34.953  72.607  88.421  0.73  9.03 LIG 0.35  C 
ATOM      7  N   PRO P 571      35.034  73.233  87.062  0.73 10.09 LIG 0.32  N 
ATOM      8  CD  PRO P 571      36.094  74.242  87.268  0.73  9.16 LIG 0.32  C 
ATOM      9  CG  PRO P 571      36.841  73.868  88.554  0.73  9.15 LIG 0.04  C 
ATOM     10  CB  PRO P 571      35.781  73.433  89.403  0.73  9.69 LIG 0.05  C 
ENDBRANCH 3 6
ENDBRANCH 1 2
BRANCH 1 11
ATOM     11  C   GLY P 572      31.251  74.330  90.202  0.73  5.30 LIG 0.24  C 
ATOM     12  N   ALA P 573      30.045  74.771  90.551  0.73  5.43 LIG-0.35  N 
ATOM     13 H    ALA P 573      29.341  74.615  90.082  0.73  5.43 LIG 0.16  HD
ATOM     14 O    GLY P 572      32.284  74.615  90.814  0.73  3.60 LIG-0.27  OA
BRANCH 12 15
ATOM     15  CA  ALA P 573      29.774  75.556  91.747  0.73  6.34 LIG 0.18  C 
ATOM     16  CB  ALA P 573      28.982  76.793  91.399  0.73  5.76 LIG 0.04  C 
BRANCH 15 17
ATOM     17  C   ALA P 573      28.964  74.663  92.684  0.73  7.45 LIG 0.20  C 
ATOM     18 OXT  ALA P 573      27.943  75.136  93.226  0.73  4.81 LIG-0.65  OA
ATOM     19 O    ALA P 573      29.357  73.487  92.852  0.73  9.82 LIG-0.65  OA
ENDBRANCH 15 17
ENDBRANCH 12 15
ENDBRANCH 1 11
TORSDOF 5
ENDMDL
MODEL 22
USER: ADFR SOLUTION from run 19
USER: SCORE 7.412489 LL:  -1.058 LR:  -6.947 RR:   0.000 FEB:  -5.456
USER: RMSD 6.284200
USER: SEED 18
USER: STATUS no improvement in best in 27 clusters for 5 generations
USER: GENES 7
USER: genes 0 Translation |==|  0.49484 0.59901 0.69273
USER: genes 1 Rotation |==|  0.63611 0.29997 0.92238 0.61428
USER: genes 2 Torsion [C]-CA--N-[C] |==|  0.75559
USER: genes 3 Torsion [N]-C--CA-[N] |==|  0.19555
USER: genes 4 Torsion [N]-CA--C-[N] |==|  0.21628
USER: genes 5 Torsion [C]-N--CA-[CB] |==|  0.48929
USER: genes 6 Torsion [N]-CA--C-[OXT] |==|  0.81294
ROOT
ATOM      1  CA  GLY P 572      33.022  74.004  92.453  0.73  6.50 LIG 0.23  C 
ENDROOT
BRANCH 1 2
ATOM      2  N   GLY P 572      33.655  74.389  91.200  0.73  9.23 LIG-0.35  N 
ATOM      3  C   PRO P 571      33.634  73.658  90.078  0.73  8.22 LIG 0.25  C 
ATOM      4 O    PRO P 571      33.033  72.589  89.949  0.73  7.23 LIG-0.27  OA
ATOM      5 H    GLY P 572      34.056  75.148  91.247  0.73  9.23 LIG 0.16  HD
BRANCH 3 6
ATOM      6  CA  PRO P 571      34.393  74.260  88.888  0.73  9.03 LIG 0.35  C 
ATOM      7  N   PRO P 571      35.880  74.242  89.074  0.73 10.09 LIG 0.32  N 
ATOM      8  CD  PRO P 571      36.330  73.717  87.768  0.73  9.16 LIG 0.32  C 
ATOM      9  CG  PRO P 571      35.162  73.866  86.785  0.73  9.15 LIG 0.04  C 
ATOM     10  CB  PRO P 571      34.039  73.527  87.597  0.73  9.69 LIG 0.05  C 
ENDBRANCH 3 6
ENDBRANCH 1 2
BRANCH 1 11
ATOM     11  C   GLY P 572      31.596  74.540  92.340  0.73  5.30 LIG 0.24  C 
ATOM     12  N   ALA P 573      30.796  73.799  91.578  0.73  5.43 LIG-0.35  N 
ATOM     13 H    ALA P 573      31.068  73.094  91.169  0.73  5.43 LIG 0.16  HD
ATOM     14 O    GLY P 572      31.246  75.600  92.866  0.73  3.60 LIG-0.27  OA
BRANCH 12 15
ATOM     15  CA  ALA P 573      29.386  74.085  91.350  0.73  6.34 LIG 0.18  C 
ATOM     16  CB  ALA P 573      28.801  73.102  90.365  0.73  5.76 LIG 0.04  C 
BRANCH 15 17
ATOM     17  C   ALA P 573      28.687  73.951  92.701  0.73  7.45 LIG 0.20  C 
ATOM     18 OXT  ALA P 573      28.612  72.820  93.226  0.73  4.81 LIG-0.65  OA
ATOM     19 O    ALA P 573      28.231  74.991  93.226  0.73  9.82 LIG-0.65  OA
ENDBRANCH 15 17
ENDBRANCH 12 15
ENDBRANCH 1 11
TORSDOF 5
ENDMDL
MODEL 23
USER: ADFR SOLUTION from run 59
USER: SCORE 7.864055 LL:  -1.111 LR:  -6.944 RR:   0.000 FEB:  -5.452
USER: RMSD 7.162711
USER: SEED 58
USER: STATUS no improvement in best in 30 clusters for 5 generations
USER: GENES 7
USER: genes 0 Translation |==|  0.37284 0.67429 0.61874
USER: genes 1 Rotation |==|  0.13402 0.66473 0.24862 0.66041
USER: genes 2 Torsion [C]-CA--N-[C] |==|  0.16309
USER: genes 3 Torsion [N]-C--CA-[N] |==|  0.54803
USER: genes 4 Torsion [N]-CA--C-[N] |==|  0.12778
USER: genes 5 Torsion [C]-N--CA-[CB] |==|  0.85822
USER: genes 6 Torsion [N]-CA--C-[OXT] |==|  0.79611
ROOT
ATOM      1  CA  GLY P 572      31.009  74.964  91.454  0.73  6.50 LIG 0.23  C 
ENDROOT
BRANCH 1 2
ATOM      2  N   GLY P 572      29.902  75.781  90.978  0.73  9.23 LIG-0.35  N 
ATOM      3  C   PRO P 571      28.801  76.063  91.686  0.73  8.22 LIG 0.25  C 
ATOM      4 O    PRO P 571      28.607  75.708  92.851  0.73  7.23 LIG-0.27  OA
ATOM      5 H    GLY P 572      30.022  76.074  90.178  0.73  9.23 LIG 0.16  HD
BRANCH 3 6
ATOM      6  CA  PRO P 571      27.759  76.927  90.963  0.73  9.03 LIG 0.35  C 
ATOM      7  N   PRO P 571      26.767  77.551  91.896  0.73 10.09 LIG 0.32  N 
ATOM      8  CD  PRO P 571      26.747  78.946  91.410  0.73  9.16 LIG 0.32  C 
ATOM      9  CG  PRO P 571      27.369  78.953  90.009  0.73  9.15 LIG 0.04  C 
ATOM     10  CB  PRO P 571      28.442  78.024  90.150  0.73  9.69 LIG 0.05  C 
ENDBRANCH 3 6
ENDBRANCH 1 2
BRANCH 1 11
ATOM     11  C   GLY P 572      30.374  73.615  91.785  0.73  5.30 LIG 0.24  C 
ATOM     12  N   ALA P 573      29.545  73.160  90.848  0.73  5.43 LIG-0.35  N 
ATOM     13 H    ALA P 573      29.369  73.602  90.132  0.73  5.43 LIG 0.16  HD
ATOM     14 O    GLY P 572      30.573  73.037  92.856  0.73  3.60 LIG-0.27  OA
BRANCH 12 15
ATOM     15  CA  ALA P 573      28.851  71.883  90.919  0.73  6.34 LIG 0.18  C 
ATOM     16  CB  ALA P 573      29.824  70.768  91.222  0.73  5.76 LIG 0.04  C 
BRANCH 15 17
ATOM     17  C   ALA P 573      27.826  72.002  92.045  0.73  7.45 LIG 0.20  C 
ATOM     18 OXT  ALA P 573      28.232  71.993  93.226  0.73  4.81 LIG-0.65  OA
ATOM     19 O    ALA P 573      26.622  72.118  91.726  0.73  9.82 LIG-0.65  OA
ENDBRANCH 15 17
ENDBRANCH 12 15
ENDBRANCH 1 11
TORSDOF 5
ENDMDL
MODEL 24
USER: ADFR SOLUTION from run 87
USER: SCORE 7.480368 LL:  -0.891 LR:  -6.879 RR:   0.000 FEB:  -5.388
USER: RMSD 7.317950
USER: SEED 86
USER: STATUS no improvement in best in 20 clusters for 5 generations
USER: GENES 7
USER: genes 0 Translation |==|  0.29461 0.75954 0.59907
USER: genes 1 Rotation |==|  0.39761 0.26490 0.07155 0.52601
USER: genes 2 Torsion [C]-CA--N-[C] |==|  0.78073
USER: genes 3 Torsion [N]-C--CA-[N] |==|  0.88159
USER: genes 4 Torsion [N]-CA--C-[N] |==|  0.86850
USER: genes 5 Torsion [C]-N--CA-[CB] |==|  0.85553
USER: genes 6 Torsion [N]-CA--C-[OXT] |==|  0.82488
ROOT
ATOM      1  CA  GLY P 572      29.718  76.051  91.188  0.73  6.50 LIG 0.23  C 
ENDROOT
BRANCH 1 2
ATOM      2  N   GLY P 572      30.607  75.218  90.393  0.73  9.23 LIG-0.35  N 
ATOM      3  C   PRO P 571      31.543  74.402  90.897  0.73  8.22 LIG 0.25  C 
ATOM      4 O    PRO P 571      31.738  74.217  92.100  0.73  7.23 LIG-0.27  OA
ATOM      5 H    GLY P 572      30.474  75.298  89.547  0.73  9.23 LIG 0.16  HD
BRANCH 3 6
ATOM      6  CA  PRO P 571      32.375  73.639  89.858  0.73  9.03 LIG 0.35  C 
ATOM      7  N   PRO P 571      31.549  73.093  88.733  0.73 10.09 LIG 0.32  N 
ATOM      8  CD  PRO P 571      32.351  73.497  87.559  0.73  9.16 LIG 0.32  C 
ATOM      9  CG  PRO P 571      33.754  73.855  88.063  0.73  9.15 LIG 0.04  C 
ATOM     10  CB  PRO P 571      33.473  74.533  89.286  0.73  9.69 LIG 0.05  C 
ENDBRANCH 3 6
ENDBRANCH 1 2
BRANCH 1 11
ATOM     11  C   GLY P 572      28.638  75.092  91.685  0.73  5.30 LIG 0.24  C 
ATOM     12  N   ALA P 573      28.134  74.304  90.739  0.73  5.43 LIG-0.35  N 
ATOM     13 H    ALA P 573      28.382  74.351  89.917  0.73  5.43 LIG 0.16  HD
ATOM     14 O    GLY P 572      28.235  75.099  92.851  0.73  3.60 LIG-0.27  OA
BRANCH 12 15
ATOM     15  CA  ALA P 573      27.122  73.285  90.975  0.73  6.34 LIG 0.18  C 
ATOM     16  CB  ALA P 573      27.542  72.374  92.104  0.73  5.76 LIG 0.04  C 
BRANCH 15 17
ATOM     17  C   ALA P 573      25.837  74.020  91.349  0.73  7.45 LIG 0.20  C 
ATOM     18 OXT  ALA P 573      25.823  74.709  92.390  0.73  4.81 LIG-0.65  OA
ATOM     19 O    ALA P 573      24.857  73.907  90.579  0.73  9.82 LIG-0.65  OA
ENDBRANCH 15 17
ENDBRANCH 12 15
ENDBRANCH 1 11
TORSDOF 5
ENDMDL
MODEL 25
USER: ADFR SOLUTION from run 160
USER: SCORE 7.651353 LL:  -1.006 LR:  -6.885 RR:   0.000 FEB:  -5.393
USER: RMSD 6.939428
USER: SEED 159
USER: STATUS no improvement in best in 21 clusters for 5 generations
USER: GENES 7
USER: genes 0 Translation |==|  0.39733 0.58892 0.55916
USER: genes 1 Rotation |==|  0.48496 0.02230 0.60801 0.59953
USER: genes 2 Torsion [C]-CA--N-[C] |==|  0.26667
USER: genes 3 Torsion [N]-C--CA-[N] |==|  0.51723
USER: genes 4 Torsion [N]-CA--C-[N] |==|  0.39170
USER: genes 5 Torsion [C]-N--CA-[CB] |==|  0.42576
USER: genes 6 Torsion [N]-CA--C-[OXT] |==|  0.63777
ROOT
ATOM      1  CA  GLY P 572      31.413  73.876  90.650  0.73  6.50 LIG 0.23  C 
ENDROOT
BRANCH 1 2
ATOM      2  N   GLY P 572      32.840  74.100  90.827  0.73  9.23 LIG-0.35  N 
ATOM      3  C   PRO P 571      33.614  73.440  91.699  0.73  8.22 LIG 0.25  C 
ATOM      4 O    PRO P 571      33.227  72.524  92.427  0.73  7.23 LIG-0.27  OA
ATOM      5 H    GLY P 572      33.150  74.712  90.307  0.73  9.23 LIG 0.16  HD
BRANCH 3 6
ATOM      6  CA  PRO P 571      35.088  73.868  91.720  0.73  9.03 LIG 0.35  C 
ATOM      7  N   PRO P 571      35.935  73.002  92.602  0.73 10.09 LIG 0.32  N 
ATOM      8  CD  PRO P 571      37.095  72.739  91.725  0.73  9.16 LIG 0.32  C 
ATOM      9  CG  PRO P 571      37.063  73.778  90.597  0.73  9.15 LIG 0.04  C 
ATOM     10  CB  PRO P 571      35.669  73.867  90.308  0.73  9.69 LIG 0.05  C 
ENDBRANCH 3 6
ENDBRANCH 1 2
BRANCH 1 11
ATOM     11  C   GLY P 572      30.748  74.942  91.518  0.73  5.30 LIG 0.24  C 
ATOM     12  N   ALA P 573      29.659  75.483  90.976  0.73  5.43 LIG-0.35  N 
ATOM     13 H    ALA P 573      29.373  75.264  90.195  0.73  5.43 LIG 0.16  HD
ATOM     14 O    GLY P 572      31.222  75.303  92.598  0.73  3.60 LIG-0.27  OA
BRANCH 12 15
ATOM     15  CA  ALA P 573      28.835  76.490  91.627  0.73  6.34 LIG 0.18  C 
ATOM     16  CB  ALA P 573      28.129  77.341  90.599  0.73  5.76 LIG 0.04  C 
BRANCH 15 17
ATOM     17  C   ALA P 573      27.811  75.739  92.475  0.73  7.45 LIG 0.20  C 
ATOM     18 OXT  ALA P 573      26.605  76.051  92.373  0.73  4.81 LIG-0.65  OA
ATOM     19 O    ALA P 573      28.231  74.831  93.226  0.73  9.82 LIG-0.65  OA
ENDBRANCH 15 17
ENDBRANCH 12 15
ENDBRANCH 1 11
TORSDOF 5
ENDMDL
MODEL 26
USER: ADFR SOLUTION from run 44
USER: SCORE 7.673028 LL:  -1.038 LR:  -6.827 RR:   0.000 FEB:  -5.335
USER: RMSD 6.563767
USER: SEED 43
USER: STATUS no improvement in best in 33 clusters for 5 generations
USER: GENES 7
USER: genes 0 Translation |==|  0.29505 0.52941 0.44646
USER: genes 1 Rotation |==|  0.63008 0.10605 0.32894 0.72051
USER: genes 2 Torsion [C]-CA--N-[C] |==|  0.16111
USER: genes 3 Torsion [N]-C--CA-[N] |==|  0.31052
USER: genes 4 Torsion [N]-CA--C-[N] |==|  0.56417
USER: genes 5 Torsion [C]-N--CA-[CB] |==|  0.82898
USER: genes 6 Torsion [N]-CA--C-[OXT] |==|  0.07423
ROOT
ATOM      1  CA  GLY P 572      29.725  73.117  89.128  0.73  6.50 LIG 0.23  C 
ENDROOT
BRANCH 1 2
ATOM      2  N   GLY P 572      30.990  73.789  88.868  0.73  9.23 LIG-0.35  N 
ATOM      3  C   PRO P 571      32.183  73.181  88.828  0.73  8.22 LIG 0.25  C 
ATOM      4 O    PRO P 571      32.357  71.968  88.957  0.73  7.23 LIG-0.27  OA
ATOM      5 H    GLY P 572      30.900  74.635  88.739  0.73  9.23 LIG 0.16  HD
BRANCH 3 6
ATOM      6  CA  PRO P 571      33.380  74.104  88.558  0.73  9.03 LIG 0.35  C 
ATOM      7  N   PRO P 571      34.290  74.242  89.740  0.73 10.09 LIG 0.32  N 
ATOM      8  CD  PRO P 571      35.614  74.052  89.113  0.73  9.16 LIG 0.32  C 
ATOM      9  CG  PRO P 571      35.437  74.242  87.601  0.73  9.15 LIG 0.04  C 
ATOM     10  CB  PRO P 571      34.184  73.604  87.361  0.73  9.69 LIG 0.05  C 
ENDBRANCH 3 6
ENDBRANCH 1 2
BRANCH 1 11
ATOM     11  C   GLY P 572      29.915  72.460  90.494  0.73  5.30 LIG 0.24  C 
ATOM     12  N   ALA P 573      29.110  71.425  90.716  0.73  5.43 LIG-0.35  N 
ATOM     13 H    ALA P 573      28.520  71.167  90.146  0.73  5.43 LIG 0.16  HD
ATOM     14 O    GLY P 572      30.709  72.898  91.332  0.73  3.60 LIG-0.27  OA
BRANCH 12 15
ATOM     15  CA  ALA P 573      29.130  70.617  91.927  0.73  6.34 LIG 0.18  C 
ATOM     16  CB  ALA P 573      30.470  69.942  92.090  0.73  5.76 LIG 0.04  C 
BRANCH 15 17
ATOM     17  C   ALA P 573      28.878  71.568  93.094  0.73  7.45 LIG 0.20  C 
ATOM     18 OXT  ALA P 573      28.232  72.616  92.883  0.73  4.81 LIG-0.65  OA
ATOM     19 O    ALA P 573      29.323  71.242  94.217  0.73  9.82 LIG-0.65  OA
ENDBRANCH 15 17
ENDBRANCH 12 15
ENDBRANCH 1 11
TORSDOF 5
ENDMDL
MODEL 27
USER: ADFR SOLUTION from run 117
USER: SCORE 7.957030 LL:  -1.205 LR:  -6.804 RR:   0.000 FEB:  -5.312
USER: RMSD 6.637486
USER: SEED 116
USER: STATUS no improvement in best in 24 clusters for 5 generations
USER: GENES 7
USER: genes 0 Translation |==|  0.35199 0.39457 0.66606
USER: genes 1 Rotation |==|  0.61825 0.14617 0.82131 0.58708
USER: genes 2 Torsion [C]-CA--N-[C] |==|  0.19720
USER: genes 3 Torsion [N]-C--CA-[N] |==|  0.73703
USER: genes 4 Torsion [N]-CA--C-[N] |==|  0.07778
USER: genes 5 Torsion [C]-N--CA-[CB] |==|  0.85769
USER: genes 6 Torsion [N]-CA--C-[OXT] |==|  0.53202
ROOT
ATOM      1  CA  GLY P 572      30.665  71.398  92.093  0.73  6.50 LIG 0.23  C 
ENDROOT
BRANCH 1 2
ATOM      2  N   GLY P 572      31.575  72.329  91.443  0.73  9.23 LIG-0.35  N 
ATOM      3  C   PRO P 571      32.132  73.393  92.037  0.73  8.22 LIG 0.25  C 
ATOM      4 O    PRO P 571      31.983  73.690  93.225  0.73  7.23 LIG-0.27  OA
ATOM      5 H    GLY P 572      31.727  72.130  90.620  0.73  9.23 LIG 0.16  HD
BRANCH 3 6
ATOM      6  CA  PRO P 571      33.042  74.243  91.141  0.73  9.03 LIG 0.35  C 
ATOM      7  N   PRO P 571      34.488  73.866  91.252  0.73 10.09 LIG 0.32  N 
ATOM      8  CD  PRO P 571      34.882  73.801  89.829  0.73  9.16 LIG 0.32  C 
ATOM      9  CG  PRO P 571      33.807  74.536  89.020  0.73  9.15 LIG 0.04  C 
ATOM     10  CB  PRO P 571      32.607  74.140  89.681  0.73  9.69 LIG 0.05  C 
ENDBRANCH 3 6
ENDBRANCH 1 2
BRANCH 1 11
ATOM     11  C   GLY P 572      29.374  72.193  92.281  0.73  5.30 LIG 0.24  C 
ATOM     12  N   ALA P 573      29.190  73.152  91.377  0.73  5.43 LIG-0.35  N 
ATOM     13 H    ALA P 573      29.762  73.321  90.757  0.73  5.43 LIG 0.16  HD
ATOM     14 O    GLY P 572      28.607  71.992  93.226  0.73  3.60 LIG-0.27  OA
BRANCH 12 15
ATOM     15  CA  ALA P 573      28.020  74.016  91.326  0.73  6.34 LIG 0.18  C 
ATOM     16  CB  ALA P 573      26.754  73.194  91.351  0.73  5.76 LIG 0.04  C 
BRANCH 15 17
ATOM     17  C   ALA P 573      28.083  74.914  92.560  0.73  7.45 LIG 0.20  C 
ATOM     18 OXT  ALA P 573      27.078  75.594  92.857  0.73  4.81 LIG-0.65  OA
ATOM     19 O    ALA P 573      29.142  74.914  93.226  0.73  9.82 LIG-0.65  OA
ENDBRANCH 15 17
ENDBRANCH 12 15
ENDBRANCH 1 11
TORSDOF 5
ENDMDL
MODEL 28
USER: ADFR SOLUTION from run 173
USER: SCORE 7.737794 LL:  -1.422 LR:  -6.798 RR:   0.000 FEB:  -5.306
USER: RMSD 6.706207
USER: SEED 172
USER: STATUS no improvement in best in 25 clusters for 5 generations
USER: GENES 7
USER: genes 0 Translation |==|  0.34099 0.73518 0.69235
USER: genes 1 Rotation |==|  0.43634 0.81824 0.87783 0.54376
USER: genes 2 Torsion [C]-CA--N-[C] |==|  0.24030
USER: genes 3 Torsion [N]-C--CA-[N] |==|  0.36851
USER: genes 4 Torsion [N]-CA--C-[N] |==|  0.85003
USER: genes 5 Torsion [C]-N--CA-[CB] |==|  0.39500
USER: genes 6 Torsion [N]-CA--C-[OXT] |==|  0.21624
ROOT
ATOM      1  CA  GLY P 572      30.483  75.741  92.448  0.73  6.50 LIG 0.23  C 
ENDROOT
BRANCH 1 2
ATOM      2  N   GLY P 572      31.678  74.976  92.773  0.73  9.23 LIG-0.35  N 
ATOM      3  C   PRO P 571      32.393  74.264  91.891  0.73  8.22 LIG 0.25  C 
ATOM      4 O    PRO P 571      32.157  74.206  90.683  0.73  7.23 LIG-0.27  OA
ATOM      5 H    GLY P 572      31.891  75.024  93.605  0.73  9.23 LIG 0.16  HD
BRANCH 3 6
ATOM      6  CA  PRO P 571      33.602  73.522  92.475  0.73  9.03 LIG 0.35  C 
ATOM      7  N   PRO P 571      33.683  72.094  92.030  0.73 10.09 LIG 0.32  N 
ATOM      8  CD  PRO P 571      35.106  71.987  91.648  0.73  9.16 LIG 0.32  C 
ATOM      9  CG  PRO P 571      35.841  73.178  92.275  0.73  9.15 LIG 0.04  C 
ATOM     10  CB  PRO P 571      34.901  74.236  92.106  0.73  9.69 LIG 0.05  C 
ENDBRANCH 3 6
ENDBRANCH 1 2
BRANCH 1 11
ATOM     11  C   GLY P 572      29.343  74.731  92.557  0.73  5.30 LIG 0.24  C 
ATOM     12  N   ALA P 573      29.516  73.633  91.826  0.73  5.43 LIG-0.35  N 
ATOM     13 H    ALA P 573      30.201  73.518  91.319  0.73  5.43 LIG 0.16  HD
ATOM     14 O    GLY P 572      28.328  74.952  93.224  0.73  3.60 LIG-0.27  OA
BRANCH 12 15
ATOM     15  CA  ALA P 573      28.585  72.514  91.795  0.73  6.34 LIG 0.18  C 
ATOM     16  CB  ALA P 573      28.485  71.949  90.398  0.73  5.76 LIG 0.04  C 
BRANCH 15 17
ATOM     17  C   ALA P 573      29.139  71.456  92.747  0.73  7.45 LIG 0.20  C 
ATOM     18 OXT  ALA P 573      28.981  71.617  93.976  0.73  4.81 LIG-0.65  OA
ATOM     19 O    ALA P 573      29.714  70.466  92.246  0.73  9.82 LIG-0.65  OA
ENDBRANCH 15 17
ENDBRANCH 12 15
ENDBRANCH 1 11
TORSDOF 5
ENDMDL
MODEL 29
USER: ADFR SOLUTION from run 94
USER: SCORE 7.767831 LL:  -1.134 LR:  -6.749 RR:   0.000 FEB:  -5.257
USER: RMSD 7.487168
USER: SEED 93
USER: STATUS no improvement in best in 25 clusters for 5 generations
USER: GENES 7
USER: genes 0 Translation |==|  0.27222 0.58651 0.54432
USER: genes 1 Rotation |==|  0.08713 0.71675 0.35057 0.60113
USER: genes 2 Torsion [C]-CA--N-[C] |==|  0.18697
USER: genes 3 Torsion [N]-C--CA-[N] |==|  0.39335
USER: genes 4 Torsion [N]-CA--C-[N] |==|  0.56594
USER: genes 5 Torsion [C]-N--CA-[CB] |==|  0.43033
USER: genes 6 Torsion [N]-CA--C-[OXT] |==|  0.64962
ROOT
ATOM      1  CA  GLY P 572      29.349  73.845  90.449  0.73  6.50 LIG 0.23  C 
ENDROOT
BRANCH 1 2
ATOM      2  N   GLY P 572      28.222  74.754  90.602  0.73  9.23 LIG-0.35  N 
ATOM      3  C   PRO P 571      27.775  75.227  91.773  0.73  8.22 LIG 0.25  C 
ATOM      4 O    PRO P 571      28.293  74.992  92.867  0.73  7.23 LIG-0.27  OA
ATOM      5 H    GLY P 572      27.859  74.966  89.851  0.73  9.23 LIG 0.16  HD
BRANCH 3 6
ATOM      6  CA  PRO P 571      26.557  76.155  91.682  0.73  9.03 LIG 0.35  C 
ATOM      7  N   PRO P 571      25.579  75.946  92.798  0.73 10.09 LIG 0.32  N 
ATOM      8  CD  PRO P 571      25.312  77.337  93.217  0.73  9.16 LIG 0.32  C 
ATOM      9  CG  PRO P 571      25.792  78.257  92.088  0.73  9.15 LIG 0.04  C 
ATOM     10  CB  PRO P 571      26.995  77.618  91.667  0.73  9.69 LIG 0.05  C 
ENDBRANCH 3 6
ENDBRANCH 1 2
BRANCH 1 11
ATOM     11  C   GLY P 572      28.874  72.539  91.083  0.73  5.30 LIG 0.24  C 
ATOM     12  N   ALA P 573      29.859  71.748  91.501  0.73  5.43 LIG-0.35  N 
ATOM     13 H    ALA P 573      30.689  71.949  91.400  0.73  5.43 LIG 0.16  HD
ATOM     14 O    GLY P 572      27.681  72.230  91.142  0.73  3.60 LIG-0.27  OA
BRANCH 12 15
ATOM     15  CA  ALA P 573      29.656  70.471  92.170  0.73  6.34 LIG 0.18  C 
ATOM     16  CB  ALA P 573      30.853  69.573  91.969  0.73  5.76 LIG 0.04  C 
BRANCH 15 17
ATOM     17  C   ALA P 573      29.476  70.776  93.655  0.73  7.45 LIG 0.20  C 
ATOM     18 OXT  ALA P 573      30.209  70.189  94.480  0.73  4.81 LIG-0.65  OA
ATOM     19 O    ALA P 573      28.607  71.617  93.976  0.73  9.82 LIG-0.65  OA
ENDBRANCH 15 17
ENDBRANCH 12 15
ENDBRANCH 1 11
TORSDOF 5
ENDMDL
MODEL 30
USER: ADFR SOLUTION from run 168
USER: SCORE 7.555702 LL:  -1.023 LR:  -6.740 RR:   0.000 FEB:  -5.248
USER: RMSD 7.115710
USER: SEED 167
USER: STATUS no improvement in best in 32 clusters for 5 generations
USER: GENES 7
USER: genes 0 Translation |==|  0.23021 0.38219 0.57790
USER: genes 1 Rotation |==|  0.90762 0.29209 0.58794 0.68135
USER: genes 2 Torsion [C]-CA--N-[C] |==|  0.16667
USER: genes 3 Torsion [N]-C--CA-[N] |==|  0.15069
USER: genes 4 Torsion [N]-CA--C-[N] |==|  0.54016
USER: genes 5 Torsion [C]-N--CA-[CB] |==|  0.50664
USER: genes 6 Torsion [N]-CA--C-[OXT] |==|  0.93808
ROOT
ATOM      1  CA  GLY P 572      28.655  71.240  90.903  0.73  6.50 LIG 0.23  C 
ENDROOT
BRANCH 1 2
ATOM      2  N   GLY P 572      27.878  72.463  90.766  0.73  9.23 LIG-0.35  N 
ATOM      3  C   PRO P 571      28.259  73.664  91.219  0.73  8.22 LIG 0.25  C 
ATOM      4 O    PRO P 571      29.339  73.897  91.766  0.73  7.23 LIG-0.27  OA
ATOM      5 H    GLY P 572      27.131  72.341  90.356  0.73  9.23 LIG 0.16  HD
BRANCH 3 6
ATOM      6  CA  PRO P 571      27.260  74.803  90.976  0.73  9.03 LIG 0.35  C 
ATOM      7  N   PRO P 571      25.891  74.503  91.506  0.73 10.09 LIG 0.32  N 
ATOM      8  CD  PRO P 571      25.570  75.759  92.215  0.73  9.16 LIG 0.32  C 
ATOM      9  CG  PRO P 571      26.544  76.832  91.711  0.73  9.15 LIG 0.04  C 
ATOM     10  CB  PRO P 571      27.764  76.103  91.597  0.73  9.69 LIG 0.05  C 
ENDBRANCH 3 6
ENDBRANCH 1 2
BRANCH 1 11
ATOM     11  C   GLY P 572      28.815  71.055  92.410  0.73  5.30 LIG 0.24  C 
ATOM     12  N   ALA P 573      29.744  70.168  92.754  0.73  5.43 LIG-0.35  N 
ATOM     13 H    ALA P 573      30.197  69.723  92.174  0.73  5.43 LIG 0.16  HD
ATOM     14 O    GLY P 572      28.097  71.640  93.226  0.73  3.60 LIG-0.27  OA
BRANCH 12 15
ATOM     15  CA  ALA P 573      30.104  69.849  94.129  0.73  6.34 LIG 0.18  C 
ATOM     16  CB  ALA P 573      31.232  68.846  94.160  0.73  5.76 LIG 0.04  C 
BRANCH 15 17
ATOM     17  C   ALA P 573      30.548  71.156  94.782  0.73  7.45 LIG 0.20  C 
ATOM     18 OXT  ALA P 573      30.941  72.088  94.048  0.73  4.81 LIG-0.65  OA
ATOM     19 O    ALA P 573      30.482  71.235  96.028  0.73  9.82 LIG-0.65  OA
ENDBRANCH 15 17
ENDBRANCH 12 15
ENDBRANCH 1 11
TORSDOF 5
ENDMDL
MODEL 31
USER: ADFR SOLUTION from run 155
USER: SCORE 7.728809 LL:  -1.219 LR:  -6.730 RR:   0.000 FEB:  -5.238
USER: RMSD 6.358697
USER: SEED 154
USER: STATUS no improvement in best in 31 clusters for 5 generations
USER: GENES 7
USER: genes 0 Translation |==|  0.38181 0.35638 0.75118
USER: genes 1 Rotation |==|  0.48463 0.10474 0.80524 0.51886
USER: genes 2 Torsion [C]-CA--N-[C] |==|  0.68333
USER: genes 3 Torsion [N]-C--CA-[N] |==|  0.41124
USER: genes 4 Torsion [N]-CA--C-[N] |==|  0.07129
USER: genes 5 Torsion [C]-N--CA-[CB] |==|  0.85027
USER: genes 6 Torsion [N]-CA--C-[OXT] |==|  0.63471
ROOT
ATOM      1  CA  GLY P 572      31.157  70.911  93.242  0.73  6.50 LIG 0.23  C 
ENDROOT
BRANCH 1 2
ATOM      2  N   GLY P 572      32.443  71.586  93.332  0.73  9.23 LIG-0.35  N 
ATOM      3  C   PRO P 571      33.472  71.383  92.499  0.73  8.22 LIG 0.25  C 
ATOM      4 O    PRO P 571      33.444  70.635  91.519  0.73  7.23 LIG-0.27  OA
ATOM      5 H    GLY P 572      32.484  72.143  93.987  0.73  9.23 LIG 0.16  HD
BRANCH 3 6
ATOM      6  CA  PRO P 571      34.736  72.197  92.808  0.73  9.03 LIG 0.35  C 
ATOM      7  N   PRO P 571      35.998  71.479  92.438  0.73 10.09 LIG 0.32  N 
ATOM      8  CD  PRO P 571      36.739  72.540  91.724  0.73  9.16 LIG 0.32  C 
ATOM      9  CG  PRO P 571      36.083  73.879  92.083  0.73  9.15 LIG 0.04  C 
ATOM     10  CB  PRO P 571      34.696  73.545  92.091  0.73  9.69 LIG 0.05  C 
ENDBRANCH 3 6
ENDBRANCH 1 2
BRANCH 1 11
ATOM     11  C   GLY P 572      30.166  72.020  92.893  0.73  5.30 LIG 0.24  C 
ATOM     12  N   ALA P 573      30.711  73.057  92.263  0.73  5.43 LIG-0.35  N 
ATOM     13 H    ALA P 573      31.552  73.104  92.090  0.73  5.43 LIG 0.16  HD
ATOM     14 O    GLY P 572      28.979  71.973  93.226  0.73  3.60 LIG-0.27  OA
BRANCH 12 15
ATOM     15  CA  ALA P 573      29.965  74.216  91.796  0.73  6.34 LIG 0.18  C 
ATOM     16  CB  ALA P 573      28.814  73.786  90.919  0.73  5.76 LIG 0.04  C 
BRANCH 15 17
ATOM     17  C   ALA P 573      29.436  74.928  93.039  0.73  7.45 LIG 0.20  C 
ATOM     18 OXT  ALA P 573      28.232  75.257  93.074  0.73  4.81 LIG-0.65  OA
ATOM     19 O    ALA P 573      30.239  75.136  93.976  0.73  9.82 LIG-0.65  OA
ENDBRANCH 15 17
ENDBRANCH 12 15
ENDBRANCH 1 11
TORSDOF 5
ENDMDL
MODEL 32
USER: ADFR SOLUTION from run 200
USER: SCORE 7.641961 LL:  -1.522 LR:  -6.695 RR:   0.000 FEB:  -5.204
USER: RMSD 6.700717
USER: SEED 199
USER: STATUS no improvement in best in 27 clusters for 5 generations
USER: GENES 7
USER: genes 0 Translation |==|  0.32776 0.50088 0.47356
USER: genes 1 Rotation |==|  0.11310 0.80762 0.43307 0.53462
USER: genes 2 Torsion [C]-CA--N-[C] |==|  0.22452
USER: genes 3 Torsion [N]-C--CA-[N] |==|  0.83851
USER: genes 4 Torsion [N]-CA--C-[N] |==|  0.79468
USER: genes 5 Torsion [C]-N--CA-[CB] |==|  0.36795
USER: genes 6 Torsion [N]-CA--C-[OXT] |==|  0.59053
ROOT
ATOM      1  CA  GLY P 572      30.265  72.753  89.494  0.73  6.50 LIG 0.23  C 
ENDROOT
BRANCH 1 2
ATOM      2  N   GLY P 572      29.699  73.957  90.084  0.73  9.23 LIG-0.35  N 
ATOM      3  C   PRO P 571      30.144  74.541  91.205  0.73  8.22 LIG 0.25  C 
ATOM      4 O    PRO P 571      31.122  74.160  91.852  0.73  7.23 LIG-0.27  OA
ATOM      5 H    GLY P 572      29.034  74.269  89.636  0.73  9.23 LIG 0.16  HD
BRANCH 3 6
ATOM      6  CA  PRO P 571      29.371  75.791  91.645  0.73  9.03 LIG 0.35  C 
ATOM      7  N   PRO P 571      29.357  76.867  90.602  0.73 10.09 LIG 0.32  N 
ATOM      8  CD  PRO P 571      27.930  77.249  90.596  0.73  9.16 LIG 0.32  C 
ATOM      9  CG  PRO P 571      27.303  76.705  91.886  0.73  9.15 LIG 0.04  C 
ATOM     10  CB  PRO P 571      27.934  75.432  92.015  0.73  9.69 LIG 0.05  C 
ENDBRANCH 3 6
ENDBRANCH 1 2
BRANCH 1 11
ATOM     11  C   GLY P 572      29.657  71.609  90.303  0.73  5.30 LIG 0.24  C 
ATOM     12  N   ALA P 573      30.164  71.478  91.526  0.73  5.43 LIG-0.35  N 
ATOM     13 H    ALA P 573      30.796  71.981  91.821  0.73  5.43 LIG 0.16  HD
ATOM     14 O    GLY P 572      28.811  70.844  89.831  0.73  3.60 LIG-0.27  OA
BRANCH 12 15
ATOM     15  CA  ALA P 573      29.720  70.487  92.495  0.73  6.34 LIG 0.18  C 
ATOM     16  CB  ALA P 573      30.905  69.781  93.110  0.73  5.76 LIG 0.04  C 
BRANCH 15 17
ATOM     17  C   ALA P 573      28.946  71.242  93.573  0.73  7.45 LIG 0.20  C 
ATOM     18 OXT  ALA P 573      28.988  70.819  94.747  0.73  4.81 LIG-0.65  OA
ATOM     19 O    ALA P 573      28.313  72.264  93.226  0.73  9.82 LIG-0.65  OA
ENDBRANCH 15 17
ENDBRANCH 12 15
ENDBRANCH 1 11
TORSDOF 5
ENDMDL
MODEL 33
USER: ADFR SOLUTION from run 94
USER: SCORE 7.953800 LL:  -1.452 LR:  -6.662 RR:   0.000 FEB:  -5.171
USER: RMSD 6.546025
USER: SEED 93
USER: STATUS no improvement in best in 25 clusters for 5 generations
USER: GENES 7
USER: genes 0 Translation |==|  0.36581 0.47060 0.48225
USER: genes 1 Rotation |==|  0.72514 0.87181 0.64742 0.69834
USER: genes 2 Torsion [C]-CA--N-[C] |==|  0.83330
USER: genes 3 Torsion [N]-C--CA-[N] |==|  0.21309
USER: genes 4 Torsion [N]-CA--C-[N] |==|  0.87816
USER: genes 5 Torsion [C]-N--CA-[CB] |==|  0.44640
USER: genes 6 Torsion [N]-CA--C-[OXT] |==|  0.39006
ROOT
ATOM      1  CA  GLY P 572      30.893  72.367  89.611  0.73  6.50 LIG 0.23  C 
ENDROOT
BRANCH 1 2
ATOM      2  N   GLY P 572      30.588  71.242  90.483  0.73  9.23 LIG-0.35  N 
ATOM      3  C   PRO P 571      30.847  71.201  91.796  0.73  8.22 LIG 0.25  C 
ATOM      4 O    PRO P 571      31.333  72.131  92.444  0.73  7.23 LIG-0.27  OA
ATOM      5 H    GLY P 572      30.216  70.587  90.066  0.73  9.23 LIG 0.16  HD
BRANCH 3 6
ATOM      6  CA  PRO P 571      30.455  69.896  92.501  0.73  9.03 LIG 0.35  C 
ATOM      7  N   PRO P 571      31.416  68.777  92.239  0.73 10.09 LIG 0.32  N 
ATOM      8  CD  PRO P 571      31.620  68.242  93.601  0.73  9.16 LIG 0.32  C 
ATOM      9  CG  PRO P 571      30.481  68.775  94.479  0.73  9.15 LIG 0.04  C 
ATOM     10  CB  PRO P 571      30.337  70.113  94.008  0.73  9.69 LIG 0.05  C 
ENDBRANCH 3 6
ENDBRANCH 1 2
BRANCH 1 11
ATOM     11  C   GLY P 572      30.102  73.533  90.201  0.73  5.30 LIG 0.24  C 
ATOM     12  N   ALA P 573      28.857  73.222  90.553  0.73  5.43 LIG-0.35  N 
ATOM     13 H    ALA P 573      28.524  72.438  90.435  0.73  5.43 LIG 0.16  HD
ATOM     14 O    GLY P 572      30.568  74.672  90.285  0.73  3.60 LIG-0.27  OA
BRANCH 12 15
ATOM     15  CA  ALA P 573      27.923  74.153  91.171  0.73  6.34 LIG 0.18  C 
ATOM     16  CB  ALA P 573      26.505  73.661  91.013  0.73  5.76 LIG 0.04  C 
BRANCH 15 17
ATOM     17  C   ALA P 573      28.289  74.224  92.652  0.73  7.45 LIG 0.20  C 
ATOM     18 OXT  ALA P 573      28.244  75.333  93.226  0.73  4.81 LIG-0.65  OA
ATOM     19 O    ALA P 573      28.606  73.159  93.225  0.73  9.82 LIG-0.65  OA
ENDBRANCH 15 17
ENDBRANCH 12 15
ENDBRANCH 1 11
TORSDOF 5
ENDMDL
MODEL 34
USER: ADFR SOLUTION from run 37
USER: SCORE 7.736436 LL:  -1.215 LR:  -6.625 RR:   0.000 FEB:  -5.134
USER: RMSD 6.271892
USER: SEED 36
USER: STATUS no improvement in best in 15 clusters for 5 generations
USER: GENES 7
USER: genes 0 Translation |==|  0.32189 0.29602 0.72068
USER: genes 1 Rotation |==|  0.54542 0.19004 0.84265 0.68561
USER: genes 2 Torsion [C]-CA--N-[C] |==|  0.70119
USER: genes 3 Torsion [N]-C--CA-[N] |==|  0.79690
USER: genes 4 Torsion [N]-CA--C-[N] |==|  0.01782
USER: genes 5 Torsion [C]-N--CA-[CB] |==|  0.84974
USER: genes 6 Torsion [N]-CA--C-[OXT] |==|  0.10924
ROOT
ATOM      1  CA  GLY P 572      30.168  70.141  92.830  0.73  6.50 LIG 0.23  C 
ENDROOT
BRANCH 1 2
ATOM      2  N   GLY P 572      31.241  70.396  91.881  0.73  9.23 LIG-0.35  N 
ATOM      3  C   PRO P 571      31.351  69.816  90.678  0.73  8.22 LIG 0.25  C 
ATOM      4 O    PRO P 571      30.530  69.029  90.202  0.73  7.23 LIG-0.27  OA
ATOM      5 H    GLY P 572      31.815  70.969  92.169  0.73  9.23 LIG 0.16  HD
BRANCH 3 6
ATOM      6  CA  PRO P 571      32.583  70.228  89.862  0.73  9.03 LIG 0.35  C 
ATOM      7  N   PRO P 571      32.481  71.616  89.308  0.73 10.09 LIG 0.32  N 
ATOM      8  CD  PRO P 571      33.807  72.167  89.654  0.73  9.16 LIG 0.32  C 
ATOM      9  CG  PRO P 571      34.724  70.984  89.986  0.73  9.15 LIG 0.04  C 
ATOM     10  CB  PRO P 571      33.850  70.117  90.707  0.73  9.69 LIG 0.05  C 
ENDBRANCH 3 6
ENDBRANCH 1 2
BRANCH 1 11
ATOM     11  C   GLY P 572      29.316  71.408  92.793  0.73  5.30 LIG 0.24  C 
ATOM     12  N   ALA P 573      29.683  72.282  91.859  0.73  5.43 LIG-0.35  N 
ATOM     13 H    ALA P 573      30.356  72.151  91.340  0.73  5.43 LIG 0.16  HD
ATOM     14 O    GLY P 572      28.408  71.617  93.601  0.73  3.60 LIG-0.27  OA
BRANCH 12 15
ATOM     15  CA  ALA P 573      29.002  73.544  91.605  0.73  6.34 LIG 0.18  C 
ATOM     16  CB  ALA P 573      27.530  73.310  91.362  0.73  5.76 LIG 0.04  C 
BRANCH 15 17
ATOM     17  C   ALA P 573      29.195  74.406  92.851  0.73  7.45 LIG 0.20  C 
ATOM     18 OXT  ALA P 573      30.301  74.381  93.430  0.73  4.81 LIG-0.65  OA
ATOM     19 O    ALA P 573      28.232  75.111  93.225  0.73  9.82 LIG-0.65  OA
ENDBRANCH 15 17
ENDBRANCH 12 15
ENDBRANCH 1 11
TORSDOF 5
ENDMDL
MODEL 35
USER: ADFR SOLUTION from run 86
USER: SCORE 7.970683 LL:  -1.429 LR:  -6.620 RR:   0.000 FEB:  -5.129
USER: RMSD 5.899589
USER: SEED 85
USER: STATUS no improvement in best in 32 clusters for 5 generations
USER: GENES 7
USER: genes 0 Translation |==|  0.48118 0.60617 0.69444
USER: genes 1 Rotation |==|  0.61962 0.70285 0.87168 0.73748
USER: genes 2 Torsion [C]-CA--N-[C] |==|  0.81552
USER: genes 3 Torsion [N]-C--CA-[N] |==|  0.40340
USER: genes 4 Torsion [N]-CA--C-[N] |==|  0.90147
USER: genes 5 Torsion [C]-N--CA-[CB] |==|  0.51135
USER: genes 6 Torsion [N]-CA--C-[OXT] |==|  0.84216
ROOT
ATOM      1  CA  GLY P 572      32.796  74.096  92.476  0.73  6.50 LIG 0.23  C 
ENDROOT
BRANCH 1 2
ATOM      2  N   GLY P 572      32.688  72.684  92.140  0.73  9.23 LIG-0.35  N 
ATOM      3  C   PRO P 571      32.105  71.758  92.913  0.73  8.22 LIG 0.25  C 
ATOM      4 O    PRO P 571      31.542  71.992  93.984  0.73  7.23 LIG-0.27  OA
ATOM      5 H    GLY P 572      33.042  72.492  91.380  0.73  9.23 LIG 0.16  HD
BRANCH 3 6
ATOM      6  CA  PRO P 571      32.132  70.328  92.357  0.73  9.03 LIG 0.35  C 
ATOM      7  N   PRO P 571      32.274  69.287  93.425  0.73 10.09 LIG 0.32  N 
ATOM      8  CD  PRO P 571      31.232  68.318  93.028  0.73  9.16 LIG 0.32  C 
ATOM      9  CG  PRO P 571      30.857  68.617  91.572  0.73  9.15 LIG 0.04  C 
ATOM     10  CB  PRO P 571      30.873  70.043  91.542  0.73  9.69 LIG 0.05  C 
ENDBRANCH 3 6
ENDBRANCH 1 2
BRANCH 1 11
ATOM     11  C   GLY P 572      31.356  74.603  92.463  0.73  5.30 LIG 0.24  C 
ATOM     12  N   ALA P 573      30.588  74.036  91.536  0.73  5.43 LIG-0.35  N 
ATOM     13 H    ALA P 573      30.888  73.452  90.981  0.73  5.43 LIG 0.16  HD
ATOM     14 O    GLY P 572      30.967  75.503  93.212  0.73  3.60 LIG-0.27  OA
BRANCH 12 15
ATOM     15  CA  ALA P 573      29.174  74.327  91.354  0.73  6.34 LIG 0.18  C 
ATOM     16  CB  ALA P 573      28.585  73.439  90.284  0.73  5.76 LIG 0.04  C 
BRANCH 15 17
ATOM     17  C   ALA P 573      28.492  74.054  92.693  0.73  7.45 LIG 0.20  C 
ATOM     18 OXT  ALA P 573      28.607  72.919  93.202  0.73  4.81 LIG-0.65  OA
ATOM     19 O    ALA P 573      27.859  74.992  93.226  0.73  9.82 LIG-0.65  OA
ENDBRANCH 15 17
ENDBRANCH 12 15
ENDBRANCH 1 11
TORSDOF 5
ENDMDL
MODEL 36
USER: ADFR SOLUTION from run 120
USER: SCORE 7.530417 LL:  -1.337 LR:  -6.593 RR:   0.000 FEB:  -5.102
USER: RMSD 7.478953
USER: SEED 119
USER: STATUS no improvement in best in 37 clusters for 5 generations
USER: GENES 7
USER: genes 0 Translation |==|  0.23554 0.43912 0.54242
USER: genes 1 Rotation |==|  0.51986 0.01020 0.59815 0.50816
USER: genes 2 Torsion [C]-CA--N-[C] |==|  0.15787
USER: genes 3 Torsion [N]-C--CA-[N] |==|  0.82616
USER: genes 4 Torsion [N]-CA--C-[N] |==|  0.16666
USER: genes 5 Torsion [C]-N--CA-[CB] |==|  0.89680
USER: genes 6 Torsion [N]-CA--C-[OXT] |==|  0.55140
ROOT
ATOM      1  CA  GLY P 572      28.743  71.966  90.424  0.73  6.50 LIG 0.23  C 
ENDROOT
BRANCH 1 2
ATOM      2  N   GLY P 572      29.959  72.440  91.069  0.73  9.23 LIG-0.35  N 
ATOM      3  C   PRO P 571      30.171  72.441  92.391  0.73  8.22 LIG 0.25  C 
ATOM      4 O    PRO P 571      29.384  71.994  93.228  0.73  7.23 LIG-0.27  OA
ATOM      5 H    GLY P 572      30.545  72.729  90.508  0.73  9.23 LIG 0.16  HD
BRANCH 3 6
ATOM      6  CA  PRO P 571      31.523  73.013  92.838  0.73  9.03 LIG 0.35  C 
ATOM      7  N   PRO P 571      32.689  72.226  92.322  0.73 10.09 LIG 0.32  N 
ATOM      8  CD  PRO P 571      33.568  73.302  91.819  0.73  9.16 LIG 0.32  C 
ATOM      9  CG  PRO P 571      33.083  74.618  92.437  0.73  9.15 LIG 0.04  C 
ATOM     10  CB  PRO P 571      31.665  74.467  92.395  0.73  9.69 LIG 0.05  C 
ENDBRANCH 3 6
ENDBRANCH 1 2
BRANCH 1 11
ATOM     11  C   GLY P 572      27.627  72.795  91.055  0.73  5.30 LIG 0.24  C 
ATOM     12  N   ALA P 573      27.754  74.107  90.871  0.73  5.43 LIG-0.35  N 
ATOM     13 H    ALA P 573      28.420  74.454  90.452  0.73  5.43 LIG 0.16  HD
ATOM     14 O    GLY P 572      26.724  72.286  91.725  0.73  3.60 LIG-0.27  OA
BRANCH 12 15
ATOM     15  CA  ALA P 573      26.798  75.097  91.345  0.73  6.34 LIG 0.18  C 
ATOM     16  CB  ALA P 573      25.388  74.572  91.220  0.73  5.76 LIG 0.04  C 
BRANCH 15 17
ATOM     17  C   ALA P 573      27.128  75.359  92.813  0.73  7.45 LIG 0.20  C 
ATOM     18 OXT  ALA P 573      26.260  75.892  93.536  0.73  4.81 LIG-0.65  OA
ATOM     19 O    ALA P 573      28.257  75.012  93.226  0.73  9.82 LIG-0.65  OA
ENDBRANCH 15 17
ENDBRANCH 12 15
ENDBRANCH 1 11
TORSDOF 5
ENDMDL
MODEL 37
USER: ADFR SOLUTION from run 47
USER: SCORE 7.263306 LL:  -0.963 LR:  -6.577 RR:   0.000 FEB:  -5.086
USER: RMSD 6.494668
USER: SEED 46
USER: STATUS no improvement in best in 30 clusters for 5 generations
USER: GENES 7
USER: genes 0 Translation |==|  0.46662 0.29382 0.54891
USER: genes 1 Rotation |==|  0.63609 0.04545 0.46745 0.65428
USER: genes 2 Torsion [C]-CA--N-[C] |==|  0.34993
USER: genes 3 Torsion [N]-C--CA-[N] |==|  0.77262
USER: genes 4 Torsion [N]-CA--C-[N] |==|  0.43562
USER: genes 5 Torsion [C]-N--CA-[CB] |==|  0.87840
USER: genes 6 Torsion [N]-CA--C-[OXT] |==|  0.23988
ROOT
ATOM      1  CA  GLY P 572      32.556  70.113  90.511  0.73  6.50 LIG 0.23  C 
ENDROOT
BRANCH 1 2
ATOM      2  N   GLY P 572      33.796  70.876  90.537  0.73  9.23 LIG-0.35  N 
ATOM      3  C   PRO P 571      34.968  70.445  90.052  0.73  8.22 LIG 0.25  C 
ATOM      4 O    PRO P 571      35.134  69.368  89.476  0.73  7.23 LIG-0.27  OA
ATOM      5 H    GLY P 572      33.705  71.649  90.903  0.73  9.23 LIG 0.16  HD
BRANCH 3 6
ATOM      6  CA  PRO P 571      36.142  71.420  90.214  0.73  9.03 LIG 0.35  C 
ATOM      7  N   PRO P 571      36.175  72.477  89.153  0.73 10.09 LIG 0.32  N 
ATOM      8  CD  PRO P 571      36.398  73.694  89.961  0.73  9.16 LIG 0.32  C 
ATOM      9  CG  PRO P 571      36.897  73.245  91.340  0.73  9.15 LIG 0.04  C 
ATOM     10  CB  PRO P 571      36.102  72.087  91.587  0.73  9.69 LIG 0.05  C 
ENDBRANCH 3 6
ENDBRANCH 1 2
BRANCH 1 11
ATOM     11  C   GLY P 572      32.088  70.096  91.965  0.73  5.30 LIG 0.24  C 
ATOM     12  N   ALA P 573      30.781  69.892  92.113  0.73  5.43 LIG-0.35  N 
ATOM     13 H    ALA P 573      30.248  69.802  91.444  0.73  5.43 LIG 0.16  HD
ATOM     14 O    GLY P 572      32.854  70.313  92.908  0.73  3.60 LIG-0.27  OA
BRANCH 12 15
ATOM     15  CA  ALA P 573      30.107  69.798  93.399  0.73  6.34 LIG 0.18  C 
ATOM     16  CB  ALA P 573      30.905  68.941  94.352  0.73  5.76 LIG 0.04  C 
BRANCH 15 17
ATOM     17  C   ALA P 573      29.997  71.220  93.943  0.73  7.45 LIG 0.20  C 
ATOM     18 OXT  ALA P 573      29.019  71.918  93.601  0.73  4.81 LIG-0.65  OA
ATOM     19 O    ALA P 573      30.892  71.616  94.722  0.73  9.82 LIG-0.65  OA
ENDBRANCH 15 17
ENDBRANCH 12 15
ENDBRANCH 1 11
TORSDOF 5
ENDMDL
MODEL 38
USER: ADFR SOLUTION from run 5
USER: SCORE 7.378047 LL:  -1.326 LR:  -6.575 RR:   0.000 FEB:  -5.084
USER: RMSD 7.248440
USER: SEED 280481
USER: STATUS no improvement in best in 20 clusters for 5 generations
USER: GENES 7
USER: genes 0 Translation |==|  0.26358 0.42883 0.53188
USER: genes 1 Rotation |==|  0.57509 0.03754 0.66144 0.56658
USER: genes 2 Torsion [C]-CA--N-[C] |==|  0.71120
USER: genes 3 Torsion [N]-C--CA-[N] |==|  0.90203
USER: genes 4 Torsion [N]-CA--C-[N] |==|  0.14344
USER: genes 5 Torsion [C]-N--CA-[CB] |==|  0.86697
USER: genes 6 Torsion [N]-CA--C-[OXT] |==|  0.05371
ROOT
ATOM      1  CA  GLY P 572      29.206  71.835  90.281  0.73  6.50 LIG 0.23  C 
ENDROOT
BRANCH 1 2
ATOM      2  N   GLY P 572      30.410  72.641  90.419  0.73  9.23 LIG-0.35  N 
ATOM      3  C   PRO P 571      30.957  73.371  89.438  0.73  8.22 LIG 0.25  C 
ATOM      4 O    PRO P 571      30.482  73.492  88.307  0.73  7.23 LIG-0.27  OA
ATOM      5 H    GLY P 572      30.748  72.606  91.210  0.73  9.23 LIG 0.16  HD
BRANCH 3 6
ATOM      6  CA  PRO P 571      32.241  74.121  89.817  0.73  9.03 LIG 0.35  C 
ATOM      7  N   PRO P 571      32.232  74.617  91.231  0.73 10.09 LIG 0.32  N 
ATOM      8  CD  PRO P 571      33.571  74.197  91.696  0.73  9.16 LIG 0.32  C 
ATOM      9  CG  PRO P 571      34.411  73.882  90.452  0.73  9.15 LIG 0.04  C 
ATOM     10  CB  PRO P 571      33.465  73.234  89.604  0.73  9.69 LIG 0.05  C 
ENDBRANCH 3 6
ENDBRANCH 1 2
BRANCH 1 11
ATOM     11  C   GLY P 572      28.119  72.649  90.979  0.73  5.30 LIG 0.24  C 
ATOM     12  N   ALA P 573      28.038  73.912  90.568  0.73  5.43 LIG-0.35  N 
ATOM     13 H    ALA P 573      28.569  74.242  89.978  0.73  5.43 LIG 0.16  HD
ATOM     14 O    GLY P 572      27.422  72.182  91.884  0.73  3.60 LIG-0.27  OA
BRANCH 12 15
ATOM     15  CA  ALA P 573      27.058  74.871  91.057  0.73  6.34 LIG 0.18  C 
ATOM     16  CB  ALA P 573      25.675  74.266  91.045  0.73  5.76 LIG 0.04  C 
BRANCH 15 17
ATOM     17  C   ALA P 573      27.462  75.222  92.487  0.73  7.45 LIG 0.20  C 
ATOM     18 OXT  ALA P 573      28.635  74.992  92.851  0.73  4.81 LIG-0.65  OA
ATOM     19 O    ALA P 573      26.596  75.741  93.226  0.73  9.82 LIG-0.65  OA
ENDBRANCH 15 17
ENDBRANCH 12 15
ENDBRANCH 1 11
TORSDOF 5
ENDMDL
MODEL 39
USER: ADFR SOLUTION from run 86
USER: SCORE 7.603878 LL:  -1.302 LR:  -6.568 RR:   0.000 FEB:  -5.077
USER: RMSD 7.044161
USER: SEED 85
USER: STATUS no improvement in best in 32 clusters for 5 generations
USER: GENES 7
USER: genes 0 Translation |==|  0.06971 0.58472 0.62966
USER: genes 1 Rotation |==|  0.30902 0.14797 0.61161 0.77775
USER: genes 2 Torsion [C]-CA--N-[C] |==|  0.15606
USER: genes 3 Torsion [N]-C--CA-[N] |==|  0.23712
USER: genes 4 Torsion [N]-CA--C-[N] |==|  0.14444
USER: genes 5 Torsion [C]-N--CA-[CB] |==|  0.34527
USER: genes 6 Torsion [N]-CA--C-[OXT] |==|  0.57894
ROOT
ATOM      1  CA  GLY P 572      26.007  73.822  91.601  0.73  6.50 LIG 0.23  C 
ENDROOT
BRANCH 1 2
ATOM      2  N   GLY P 572      26.903  72.833  91.021  0.73  9.23 LIG-0.35  N 
ATOM      3  C   PRO P 571      27.938  72.272  91.659  0.73  8.22 LIG 0.25  C 
ATOM      4 O    PRO P 571      28.234  72.485  92.837  0.73  7.23 LIG-0.27  OA
ATOM      5 H    GLY P 572      26.703  72.636  90.207  0.73  9.23 LIG 0.16  HD
BRANCH 3 6
ATOM      6  CA  PRO P 571      28.754  71.270  90.832  0.73  9.03 LIG 0.35  C 
ATOM      7  N   PRO P 571      29.815  71.925  90.000  0.73 10.09 LIG 0.32  N 
ATOM      8  CD  PRO P 571      30.982  71.065  90.285  0.73  9.16 LIG 0.32  C 
ATOM      9  CG  PRO P 571      30.453  69.760  90.894  0.73  9.15 LIG 0.04  C 
ATOM     10  CB  PRO P 571      29.401  70.225  91.737  0.73  9.69 LIG 0.05  C 
ENDBRANCH 3 6
ENDBRANCH 1 2
BRANCH 1 11
ATOM     11  C   GLY P 572      26.929  74.950  92.060  0.73  5.30 LIG 0.24  C 
ATOM     12  N   ALA P 573      27.760  75.391  91.118  0.73  5.43 LIG-0.35  N 
ATOM     13 H    ALA P 573      27.787  75.050  90.329  0.73  5.43 LIG 0.16  HD
ATOM     14 O    GLY P 572      26.934  75.367  93.221  0.73  3.60 LIG-0.27  OA
BRANCH 12 15
ATOM     15  CA  ALA P 573      28.705  76.482  91.305  0.73  6.34 LIG 0.18  C 
ATOM     16  CB  ALA P 573      30.107  76.028  90.978  0.73  5.76 LIG 0.04  C 
BRANCH 15 17
ATOM     17  C   ALA P 573      28.281  77.597  90.351  0.73  7.45 LIG 0.20  C 
ATOM     18 OXT  ALA P 573      29.156  78.376  89.915  0.73  4.81 LIG-0.65  OA
ATOM     19 O    ALA P 573      27.072  77.668  90.038  0.73  9.82 LIG-0.65  OA
ENDBRANCH 15 17
ENDBRANCH 12 15
ENDBRANCH 1 11
TORSDOF 5
ENDMDL
MODEL 40
USER: ADFR SOLUTION from run 134
USER: SCORE 7.574226 LL:  -1.150 LR:  -6.563 RR:   0.000 FEB:  -5.072
USER: RMSD 6.524222
USER: SEED 133
USER: STATUS no improvement in best in 27 clusters for 5 generations
USER: GENES 7
USER: genes 0 Translation |==|  0.60050 0.31588 0.77778
USER: genes 1 Rotation |==|  0.61071 0.35911 0.96676 0.50513
USER: genes 2 Torsion [C]-CA--N-[C] |==|  0.24995
USER: genes 3 Torsion [N]-C--CA-[N] |==|  0.14350
USER: genes 4 Torsion [N]-CA--C-[N] |==|  0.53673
USER: genes 5 Torsion [C]-N--CA-[CB] |==|  0.34253
USER: genes 6 Torsion [N]-CA--C-[OXT] |==|  0.42181
ROOT
ATOM      1  CA  GLY P 572      34.765  70.394  93.601  0.73  6.50 LIG 0.23  C 
ENDROOT
BRANCH 1 2
ATOM      2  N   GLY P 572      35.522  70.873  92.454  0.73  9.23 LIG-0.35  N 
ATOM      3  C   PRO P 571      35.695  72.163  92.137  0.73  8.22 LIG 0.25  C 
ATOM      4 O    PRO P 571      35.278  73.111  92.806  0.73  7.23 LIG-0.27  OA
ATOM      5 H    GLY P 572      35.857  70.235  91.984  0.73  9.23 LIG 0.16  HD
BRANCH 3 6
ATOM      6  CA  PRO P 571      36.515  72.422  90.866  0.73  9.03 LIG 0.35  C 
ATOM      7  N   PRO P 571      36.013  71.655  89.681  0.73 10.09 LIG 0.32  N 
ATOM      8  CD  PRO P 571      35.995  72.704  88.641  0.73  9.16 LIG 0.32  C 
ATOM      9  CG  PRO P 571      36.862  73.865  89.143  0.73  9.15 LIG 0.04  C 
ATOM     10  CB  PRO P 571      36.530  73.911  90.530  0.73  9.69 LIG 0.05  C 
ENDBRANCH 3 6
ENDBRANCH 1 2
BRANCH 1 11
ATOM     11  C   GLY P 572      33.340  70.232  93.077  0.73  5.30 LIG 0.24  C 
ATOM     12  N   ALA P 573      32.426  70.067  94.030  0.73  5.43 LIG-0.35  N 
ATOM     13 H    ALA P 573      32.629  70.033  94.865  0.73  5.43 LIG 0.16  HD
ATOM     14 O    GLY P 572      33.080  70.199  91.872  0.73  3.60 LIG-0.27  OA
BRANCH 12 15
ATOM     15  CA  ALA P 573      30.998  69.929  93.781  0.73  6.34 LIG 0.18  C 
ATOM     16  CB  ALA P 573      30.480  68.641  94.374  0.73  5.76 LIG 0.04  C 
BRANCH 15 17
ATOM     17  C   ALA P 573      30.318  71.122  94.450  0.73  7.45 LIG 0.20  C 
ATOM     18 OXT  ALA P 573      29.241  71.540  93.976  0.73  4.81 LIG-0.65  OA
ATOM     19 O    ALA P 573      30.871  71.617  95.458  0.73  9.82 LIG-0.65  OA
ENDBRANCH 15 17
ENDBRANCH 12 15
ENDBRANCH 1 11
TORSDOF 5
ENDMDL
MODEL 41
USER: ADFR SOLUTION from run 107
USER: SCORE 8.282851 LL:  -1.837 LR:  -6.516 RR:   0.000 FEB:  -5.025
USER: RMSD 6.120843
USER: SEED 106
USER: STATUS no improvement in best in 19 clusters for 5 generations
USER: GENES 7
USER: genes 0 Translation |==|  0.37525 0.21747 0.53986
USER: genes 1 Rotation |==|  0.91840 0.39267 0.59033 0.73507
USER: genes 2 Torsion [C]-CA--N-[C] |==|  0.18118
USER: genes 3 Torsion [N]-C--CA-[N] |==|  0.07008
USER: genes 4 Torsion [N]-CA--C-[N] |==|  0.08543
USER: genes 5 Torsion [C]-N--CA-[CB] |==|  0.11130
USER: genes 6 Torsion [N]-CA--C-[OXT] |==|  0.93817
ROOT
ATOM      1  CA  GLY P 572      31.049  69.140  90.389  0.73  6.50 LIG 0.23  C 
ENDROOT
BRANCH 1 2
ATOM      2  N   GLY P 572      29.899  70.019  90.232  0.73  9.23 LIG-0.35  N 
ATOM      3  C   PRO P 571      29.956  71.357  90.230  0.73  8.22 LIG 0.25  C 
ATOM      4 O    PRO P 571      30.996  72.015  90.311  0.73  7.23 LIG-0.27  OA
ATOM      5 H    GLY P 572      29.160  69.590  90.138  0.73  9.23 LIG 0.16  HD
BRANCH 3 6
ATOM      6  CA  PRO P 571      28.607  72.071  90.070  0.73  9.03 LIG 0.35  C 
ATOM      7  N   PRO P 571      27.449  71.241  90.535  0.73 10.09 LIG 0.32  N 
ATOM      8  CD  PRO P 571      26.699  72.218  91.351  0.73  9.16 LIG 0.32  C 
ATOM      9  CG  PRO P 571      27.207  73.616  90.976  0.73  9.15 LIG 0.04  C 
ATOM     10  CB  PRO P 571      28.608  73.398  90.825  0.73  9.69 LIG 0.05  C 
ENDBRANCH 3 6
ENDBRANCH 1 2
BRANCH 1 11
ATOM     11  C   GLY P 572      31.547  69.412  91.807  0.73  5.30 LIG 0.24  C 
ATOM     12  N   ALA P 573      30.589  69.761  92.662  0.73  5.43 LIG-0.35  N 
ATOM     13 H    ALA P 573      29.766  69.847  92.426  0.73  5.43 LIG 0.16  HD
ATOM     14 O    GLY P 572      32.743  69.367  92.106  0.73  3.60 LIG-0.27  OA
BRANCH 12 15
ATOM     15  CA  ALA P 573      30.812  70.034  94.075  0.73  6.34 LIG 0.18  C 
ATOM     16  CB  ALA P 573      32.095  70.805  94.268  0.73  5.76 LIG 0.04  C 
BRANCH 15 17
ATOM     17  C   ALA P 573      29.624  70.867  94.553  0.73  7.45 LIG 0.20  C 
ATOM     18 OXT  ALA P 573      28.965  71.509  93.709  0.73  4.81 LIG-0.65  OA
ATOM     19 O    ALA P 573      29.360  70.854  95.776  0.73  9.82 LIG-0.65  OA
ENDBRANCH 15 17
ENDBRANCH 12 15
ENDBRANCH 1 11
TORSDOF 5
ENDMDL
MODEL 42
USER: ADFR SOLUTION from run 86
USER: SCORE 7.542212 LL:  -1.177 LR:  -6.487 RR:   0.000 FEB:  -4.996
USER: RMSD 7.442945
USER: SEED 85
USER: STATUS no improvement in best in 32 clusters for 5 generations
USER: GENES 7
USER: genes 0 Translation |==|  0.22930 0.57226 0.60836
USER: genes 1 Rotation |==|  0.55092 0.14716 0.73192 0.76291
USER: genes 2 Torsion [C]-CA--N-[C] |==|  0.21071
USER: genes 3 Torsion [N]-C--CA-[N] |==|  0.55745
USER: genes 4 Torsion [N]-CA--C-[N] |==|  0.10432
USER: genes 5 Torsion [C]-N--CA-[CB] |==|  0.48640
USER: genes 6 Torsion [N]-CA--C-[OXT] |==|  0.91972
ROOT
ATOM      1  CA  GLY P 572      28.640  73.663  91.314  0.73  6.50 LIG 0.23  C 
ENDROOT
BRANCH 1 2
ATOM      2  N   GLY P 572      29.620  73.901  90.264  0.73  9.23 LIG-0.35  N 
ATOM      3  C   PRO P 571      30.919  74.150  90.474  0.73  8.22 LIG 0.25  C 
ATOM      4 O    PRO P 571      31.461  74.159  91.581  0.73  7.23 LIG-0.27  OA
ATOM      5 H    GLY P 572      29.280  73.867  89.474  0.73  9.23 LIG 0.16  HD
BRANCH 3 6
ATOM      6  CA  PRO P 571      31.753  74.391  89.209  0.73  9.03 LIG 0.35  C 
ATOM      7  N   PRO P 571      33.220  74.175  89.425  0.73 10.09 LIG 0.32  N 
ATOM      8  CD  PRO P 571      33.570  73.350  88.250  0.73  9.16 LIG 0.32  C 
ATOM      9  CG  PRO P 571      32.431  73.492  87.233  0.73  9.15 LIG 0.04  C 
ATOM     10  CB  PRO P 571      31.276  73.492  88.070  0.73  9.69 LIG 0.05  C 
ENDBRANCH 3 6
ENDBRANCH 1 2
BRANCH 1 11
ATOM     11  C   GLY P 572      28.363  75.047  91.898  0.73  5.30 LIG 0.24  C 
ATOM     12  N   ALA P 573      28.341  76.024  90.995  0.73  5.43 LIG-0.35  N 
ATOM     13 H    ALA P 573      28.493  75.886  90.160  0.73  5.43 LIG 0.16  HD
ATOM     14 O    GLY P 572      28.231  75.237  93.110  0.73  3.60 LIG-0.27  OA
BRANCH 12 15
ATOM     15  CA  ALA P 573      28.060  77.419  91.303  0.73  6.34 LIG 0.18  C 
ATOM     16  CB  ALA P 573      28.232  78.277  90.074  0.73  5.76 LIG 0.04  C 
BRANCH 15 17
ATOM     17  C   ALA P 573      26.611  77.479  91.784  0.73  7.45 LIG 0.20  C 
ATOM     18 OXT  ALA P 573      25.802  76.632  91.352  0.73  4.81 LIG-0.65  OA
ATOM     19 O    ALA P 573      26.307  78.373  92.604  0.73  9.82 LIG-0.65  OA
ENDBRANCH 15 17
ENDBRANCH 12 15
ENDBRANCH 1 11
TORSDOF 5
ENDMDL
MODEL 43
USER: ADFR SOLUTION from run 149
USER: SCORE 7.256619 LL:  -1.111 LR:  -6.470 RR:   0.000 FEB:  -4.978
USER: RMSD 6.452208
USER: SEED 148
USER: STATUS no improvement in best in 20 clusters for 5 generations
USER: GENES 7
USER: genes 0 Translation |==|  0.46832 0.31167 0.56741
USER: genes 1 Rotation |==|  0.54238 0.12678 0.82288 0.56826
USER: genes 2 Torsion [C]-CA--N-[C] |==|  0.58410
USER: genes 3 Torsion [N]-C--CA-[N] |==|  0.76236
USER: genes 4 Torsion [N]-CA--C-[N] |==|  0.54444
USER: genes 5 Torsion [C]-N--CA-[CB] |==|  0.34641
USER: genes 6 Torsion [N]-CA--C-[OXT] |==|  0.87427
ROOT
ATOM      1  CA  GLY P 572      32.584  70.341  90.761  0.73  6.50 LIG 0.23  C 
ENDROOT
BRANCH 1 2
ATOM      2  N   GLY P 572      33.784  71.081  90.402  0.73  9.23 LIG-0.35  N 
ATOM      3  C   PRO P 571      34.868  70.546  89.823  0.73  8.22 LIG 0.25  C 
ATOM      4 O    PRO P 571      34.966  69.367  89.476  0.73  7.23 LIG-0.27  OA
ATOM      5 H    GLY P 572      33.734  71.917  90.600  0.73  9.23 LIG 0.16  HD
BRANCH 3 6
ATOM      6  CA  PRO P 571      36.021  71.523  89.559  0.73  9.03 LIG 0.35  C 
ATOM      7  N   PRO P 571      35.879  72.258  88.261  0.73 10.09 LIG 0.32  N 
ATOM      8  CD  PRO P 571      36.167  73.646  88.678  0.73  9.16 LIG 0.32  C 
ATOM      9  CG  PRO P 571      36.857  73.581  90.046  0.73  9.15 LIG 0.04  C 
ATOM     10  CB  PRO P 571      36.139  72.535  90.697  0.73  9.69 LIG 0.05  C 
ENDBRANCH 3 6
ENDBRANCH 1 2
BRANCH 1 11
ATOM     11  C   GLY P 572      31.454  71.361  90.635  0.73  5.30 LIG 0.24  C 
ATOM     12  N   ALA P 573      30.323  70.996  91.234  0.73  5.43 LIG-0.35  N 
ATOM     13 H    ALA P 573      30.235  70.240  91.635  0.73  5.43 LIG 0.16  HD
ATOM     14 O    GLY P 572      31.574  72.401  89.983  0.73  3.60 LIG-0.27  OA
BRANCH 12 15
ATOM     15  CA  ALA P 573      29.121  71.815  91.283  0.73  6.34 LIG 0.18  C 
ATOM     16  CB  ALA P 573      27.940  71.055  90.729  0.73  5.76 LIG 0.04  C 
BRANCH 15 17
ATOM     17  C   ALA P 573      28.881  72.154  92.753  0.73  7.45 LIG 0.20  C 
ATOM     18 OXT  ALA P 573      28.981  71.243  93.601  0.73  4.81 LIG-0.65  OA
ATOM     19 O    ALA P 573      28.607  73.341  93.039  0.73  9.82 LIG-0.65  OA
ENDBRANCH 15 17
ENDBRANCH 12 15
ENDBRANCH 1 11
TORSDOF 5
ENDMDL
MODEL 44
USER: ADFR SOLUTION from run 34
USER: SCORE 7.635284 LL:  -1.170 LR:  -6.466 RR:   0.000 FEB:  -4.975
USER: RMSD 6.638725
USER: SEED 33
USER: STATUS no improvement in best in 33 clusters for 5 generations
USER: GENES 7
USER: genes 0 Translation |==|  0.37920 0.66518 0.70133
USER: genes 1 Rotation |==|  0.59964 0.19303 0.12515 0.57302
USER: genes 2 Torsion [C]-CA--N-[C] |==|  0.23166
USER: genes 3 Torsion [N]-C--CA-[N] |==|  0.18739
USER: genes 4 Torsion [N]-CA--C-[N] |==|  0.00022
USER: genes 5 Torsion [C]-N--CA-[CB] |==|  0.49216
USER: genes 6 Torsion [N]-CA--C-[OXT] |==|  0.81230
ROOT
ATOM      1  CA  GLY P 572      31.114  74.848  92.569  0.73  6.50 LIG 0.23  C 
ENDROOT
BRANCH 1 2
ATOM      2  N   GLY P 572      32.559  74.705  92.666  0.73  9.23 LIG-0.35  N 
ATOM      3  C   PRO P 571      33.348  74.242  91.688  0.73  8.22 LIG 0.25  C 
ATOM      4 O    PRO P 571      32.957  73.926  90.562  0.73  7.23 LIG-0.27  OA
ATOM      5 H    GLY P 572      32.869  74.951  93.430  0.73  9.23 LIG 0.16  HD
BRANCH 3 6
ATOM      6  CA  PRO P 571      34.841  74.161  92.033  0.73  9.03 LIG 0.35  C 
ATOM      7  N   PRO P 571      35.145  73.131  93.077  0.73 10.09 LIG 0.32  N 
ATOM      8  CD  PRO P 571      36.303  72.439  92.476  0.73  9.16 LIG 0.32  C 
ATOM      9  CG  PRO P 571      36.857  73.345  91.370  0.73  9.15 LIG 0.04  C 
ATOM     10  CB  PRO P 571      35.667  73.867  90.782  0.73  9.69 LIG 0.05  C 
ENDBRANCH 3 6
ENDBRANCH 1 2
BRANCH 1 11
ATOM     11  C   GLY P 572      30.570  73.458  92.894  0.73  5.30 LIG 0.24  C 
ATOM     12  N   ALA P 573      31.510  72.556  93.162  0.73  5.43 LIG-0.35  N 
ATOM     13 H    ALA P 573      32.350  72.738  93.130  0.73  5.43 LIG 0.16  HD
ATOM     14 O    GLY P 572      29.365  73.195  92.851  0.73  3.60 LIG-0.27  OA
BRANCH 12 15
ATOM     15  CA  ALA P 573      31.237  71.175  93.535  0.73  6.34 LIG 0.18  C 
ATOM     16  CB  ALA P 573      32.527  70.408  93.701  0.73  5.76 LIG 0.04  C 
BRANCH 15 17
ATOM     17  C   ALA P 573      30.482  71.220  94.862  0.73  7.45 LIG 0.20  C 
ATOM     18 OXT  ALA P 573      31.085  71.617  95.881  0.73  4.81 LIG-0.65  OA
ATOM     19 O    ALA P 573      29.282  70.867  94.860  0.73  9.82 LIG-0.65  OA
ENDBRANCH 15 17
ENDBRANCH 12 15
ENDBRANCH 1 11
TORSDOF 5
ENDMDL
MODEL 45
USER: ADFR SOLUTION from run 100
USER: SCORE 7.268702 LL:  -1.055 LR:  -6.455 RR:   0.000 FEB:  -4.964
USER: RMSD 5.256365
USER: SEED 99
USER: STATUS no improvement in best in 22 clusters for 5 generations
USER: GENES 7
USER: genes 0 Translation |==|  0.74962 0.53081 0.33919
USER: genes 1 Rotation |==|  0.90831 0.50831 0.78221 0.55972
USER: genes 2 Torsion [C]-CA--N-[C] |==|  0.19874
USER: genes 3 Torsion [N]-C--CA-[N] |==|  0.77165
USER: genes 4 Torsion [N]-CA--C-[N] |==|  0.66104
USER: genes 5 Torsion [C]-N--CA-[CB] |==|  0.82309
USER: genes 6 Torsion [N]-CA--C-[OXT] |==|  0.62711
ROOT
ATOM      1  CA  GLY P 572      37.226  73.135  87.680  0.73  6.50 LIG 0.23  C 
ENDROOT
BRANCH 1 2
ATOM      2  N   GLY P 572      36.038  72.994  86.851  0.73  9.23 LIG-0.35  N 
ATOM      3  C   PRO P 571      35.021  73.866  86.819  0.73  8.22 LIG 0.25  C 
ATOM      4 O    PRO P 571      34.985  74.924  87.451  0.73  7.23 LIG-0.27  OA
ATOM      5 H    GLY P 572      36.047  72.281  86.370  0.73  9.23 LIG 0.16  HD
BRANCH 3 6
ATOM      6  CA  PRO P 571      33.866  73.492  85.882  0.73  9.03 LIG 0.35  C 
ATOM      7  N   PRO P 571      34.126  73.867  84.455  0.73 10.09 LIG 0.32  N 
ATOM      8  CD  PRO P 571      33.732  72.629  83.751  0.73  9.16 LIG 0.32  C 
ATOM      9  CG  PRO P 571      32.890  71.795  84.725  0.73  9.15 LIG 0.04  C 
ATOM     10  CB  PRO P 571      33.571  71.996  85.962  0.73  9.69 LIG 0.05  C 
ENDBRANCH 3 6
ENDBRANCH 1 2
BRANCH 1 11
ATOM     11  C   GLY P 572      36.733  72.869  89.101  0.73  5.30 LIG 0.24  C 
ATOM     12  N   ALA P 573      36.954  73.870  89.949  0.73  5.43 LIG-0.35  N 
ATOM     13 H    ALA P 573      37.359  74.592  89.718  0.73  5.43 LIG 0.16  HD
ATOM     14 O    GLY P 572      36.230  71.793  89.435  0.73  3.60 LIG-0.27  OA
BRANCH 12 15
ATOM     15  CA  ALA P 573      36.542  73.867  91.346  0.73  6.34 LIG 0.18  C 
ATOM     16  CB  ALA P 573      35.037  73.814  91.453  0.73  5.76 LIG 0.04  C 
BRANCH 15 17
ATOM     17  C   ALA P 573      37.155  72.621  91.981  0.73  7.45 LIG 0.20  C 
ATOM     18 OXT  ALA P 573      36.437  71.906  92.711  0.73  4.81 LIG-0.65  OA
ATOM     19 O    ALA P 573      38.353  72.367  91.726  0.73  9.82 LIG-0.65  OA
ENDBRANCH 15 17
ENDBRANCH 12 15
ENDBRANCH 1 11
TORSDOF 5
ENDMDL
MODEL 46
USER: ADFR SOLUTION from run 7
USER: SCORE 7.414134 LL:  -1.060 LR:  -6.448 RR:   0.000 FEB:  -4.956
USER: RMSD 6.503517
USER: SEED 269456
USER: STATUS no improvement in best in 44 clusters for 5 generations
USER: GENES 7
USER: genes 0 Translation |==|  0.60046 0.28050 0.42721
USER: genes 1 Rotation |==|  0.39491 0.24022 0.55995 0.90973
USER: genes 2 Torsion [C]-CA--N-[C] |==|  0.23338
USER: genes 3 Torsion [N]-C--CA-[N] |==|  0.18076
USER: genes 4 Torsion [N]-CA--C-[N] |==|  0.49318
USER: genes 5 Torsion [C]-N--CA-[CB] |==|  0.44842
USER: genes 6 Torsion [N]-CA--C-[OXT] |==|  0.19365
ROOT
ATOM      1  CA  GLY P 572      34.765  69.943  88.868  0.73  6.50 LIG 0.23  C 
ENDROOT
BRANCH 1 2
ATOM      2  N   GLY P 572      34.963  69.341  87.558  0.73  9.23 LIG-0.35  N 
ATOM      3  C   PRO P 571      35.624  68.198  87.335  0.73  8.22 LIG 0.25  C 
ATOM      4 O    PRO P 571      36.107  67.484  88.217  0.73  7.23 LIG-0.27  OA
ATOM      5 H    GLY P 572      34.606  69.798  86.922  0.73  9.23 LIG 0.16  HD
BRANCH 3 6
ATOM      6  CA  PRO P 571      35.722  67.773  85.864  0.73  9.03 LIG 0.35  C 
ATOM      7  N   PRO P 571      36.527  68.725  85.033  0.73 10.09 LIG 0.32  N 
ATOM      8  CD  PRO P 571      37.399  67.794  84.286  0.73  9.16 LIG 0.32  C 
ATOM      9  CG  PRO P 571      36.779  66.396  84.397  0.73  9.15 LIG 0.04  C 
ATOM     10  CB  PRO P 571      36.321  66.374  85.747  0.73  9.69 LIG 0.05  C 
ENDBRANCH 3 6
ENDBRANCH 1 2
BRANCH 1 11
ATOM     11  C   GLY P 572      36.043  70.741  89.119  0.73  5.30 LIG 0.24  C 
ATOM     12  N   ALA P 573      36.043  71.422  90.262  0.73  5.43 LIG-0.35  N 
ATOM     13 H    ALA P 573      35.371  71.427  90.798  0.73  5.43 LIG 0.16  HD
ATOM     14 O    GLY P 572      36.962  70.789  88.297  0.73  3.60 LIG-0.27  OA
BRANCH 12 15
ATOM     15  CA  ALA P 573      37.161  72.225  90.737  0.73  6.34 LIG 0.18  C 
ATOM     16  CB  ALA P 573      36.700  73.202  91.791  0.73  5.76 LIG 0.04  C 
BRANCH 15 17
ATOM     17  C   ALA P 573      38.177  71.253  91.334  0.73  7.45 LIG 0.20  C 
ATOM     18 OXT  ALA P 573      38.800  70.492  90.565  0.73  4.81 LIG-0.65  OA
ATOM     19 O    ALA P 573      38.347  71.278  92.573  0.73  9.82 LIG-0.65  OA
ENDBRANCH 15 17
ENDBRANCH 12 15
ENDBRANCH 1 11
TORSDOF 5
ENDMDL
MODEL 47
USER: ADFR SOLUTION from run 72
USER: SCORE 7.659659 LL:  -1.578 LR:  -6.430 RR:   0.000 FEB:  -4.939
USER: RMSD 6.526955
USER: SEED 71
USER: STATUS no improvement in best in 22 clusters for 5 generations
USER: GENES 7
USER: genes 0 Translation |==|  0.40082 0.62687 0.62873
USER: genes 1 Rotation |==|  0.74788 0.68636 0.78433 0.77015
USER: genes 2 Torsion [C]-CA--N-[C] |==|  0.80004
USER: genes 3 Torsion [N]-C--CA-[N] |==|  0.69153
USER: genes 4 Torsion [N]-CA--C-[N] |==|  0.84664
USER: genes 5 Torsion [C]-N--CA-[CB] |==|  0.42984
USER: genes 6 Torsion [N]-CA--C-[OXT] |==|  0.08619
ROOT
ATOM      1  CA  GLY P 572      31.471  74.360  91.589  0.73  6.50 LIG 0.23  C 
ENDROOT
BRANCH 1 2
ATOM      2  N   GLY P 572      30.586  73.242  91.293  0.73  9.23 LIG-0.35  N 
ATOM      3  C   PRO P 571      30.006  72.463  92.215  0.73  8.22 LIG 0.25  C 
ATOM      4 O    PRO P 571      30.107  72.624  93.433  0.73  7.23 LIG-0.27  OA
ATOM      5 H    GLY P 572      30.467  73.124  90.449  0.73  9.23 LIG 0.16  HD
BRANCH 3 6
ATOM      6  CA  PRO P 571      29.131  71.331  91.659  0.73  9.03 LIG 0.35  C 
ATOM      7  N   PRO P 571      27.671  71.535  91.926  0.73 10.09 LIG 0.32  N 
ATOM      8  CD  PRO P 571      27.088  71.242  90.601  0.73  9.16 LIG 0.32  C 
ATOM      9  CG  PRO P 571      28.150  70.492  89.788  0.73  9.15 LIG 0.04  C 
ATOM     10  CB  PRO P 571      29.348  71.171  90.156  0.73  9.69 LIG 0.05  C 
ENDBRANCH 3 6
ENDBRANCH 1 2
BRANCH 1 11
ATOM     11  C   GLY P 572      30.547  75.439  92.150  0.73  5.30 LIG 0.24  C 
ATOM     12  N   ALA P 573      29.533  75.757  91.349  0.73  5.43 LIG-0.35  N 
ATOM     13 H    ALA P 573      29.425  75.399  90.574  0.73  5.43 LIG 0.16  HD
ATOM     14 O    GLY P 572      30.767  76.001  93.226  0.73  3.60 LIG-0.27  OA
BRANCH 12 15
ATOM     15  CA  ALA P 573      28.501  76.729  91.680  0.73  6.34 LIG 0.18  C 
ATOM     16  CB  ALA P 573      27.898  77.308  90.423  0.73  5.76 LIG 0.04  C 
BRANCH 15 17
ATOM     17  C   ALA P 573      27.433  75.982  92.476  0.73  7.45 LIG 0.20  C 
ATOM     18 OXT  ALA P 573      27.784  75.021  93.192  0.73  4.81 LIG-0.65  OA
ATOM     19 O    ALA P 573      26.252  76.383  92.383  0.73  9.82 LIG-0.65  OA
ENDBRANCH 15 17
ENDBRANCH 12 15
ENDBRANCH 1 11
TORSDOF 5
ENDMDL
MODEL 48
USER: ADFR SOLUTION from run 17
USER: SCORE 7.386134 LL:  -1.153 LR:  -6.432 RR:   0.000 FEB:  -4.940
USER: RMSD 6.310633
USER: SEED 16
USER: STATUS no improvement in best in 25 clusters for 5 generations
USER: GENES 7
USER: genes 0 Translation |==|  0.61362 0.26404 0.37436
USER: genes 1 Rotation |==|  0.36212 0.23730 0.63873 0.87780
USER: genes 2 Torsion [C]-CA--N-[C] |==|  0.28500
USER: genes 3 Torsion [N]-C--CA-[N] |==|  0.80530
USER: genes 4 Torsion [N]-CA--C-[N] |==|  0.50546
USER: genes 5 Torsion [C]-N--CA-[CB] |==|  0.19879
USER: genes 6 Torsion [N]-CA--C-[OXT] |==|  0.38831
ROOT
ATOM      1  CA  GLY P 572      34.982  69.734  88.155  0.73  6.50 LIG 0.23  C 
ENDROOT
BRANCH 1 2
ATOM      2  N   GLY P 572      35.369  68.833  87.079  0.73  9.23 LIG-0.35  N 
ATOM      3  C   PRO P 571      35.965  67.646  87.254  0.73  8.22 LIG 0.25  C 
ATOM      4 O    PRO P 571      36.216  67.143  88.351  0.73  7.23 LIG-0.27  OA
ATOM      5 H    GLY P 572      35.176  69.141  86.299  0.73  9.23 LIG 0.16  HD
BRANCH 3 6
ATOM      6  CA  PRO P 571      36.298  66.884  85.965  0.73  9.03 LIG 0.35  C 
ATOM      7  N   PRO P 571      35.082  66.367  85.259  0.73 10.09 LIG 0.32  N 
ATOM      8  CD  PRO P 571      35.357  66.774  83.866  0.73  9.16 LIG 0.32  C 
ATOM      9  CG  PRO P 571      36.852  67.102  83.770  0.73  9.15 LIG 0.04  C 
ATOM     10  CB  PRO P 571      37.095  67.768  85.008  0.73  9.69 LIG 0.05  C 
ENDBRANCH 3 6
ENDBRANCH 1 2
BRANCH 1 11
ATOM     11  C   GLY P 572      36.058  70.818  88.152  0.73  5.30 LIG 0.24  C 
ATOM     12  N   ALA P 573      35.909  71.734  89.105  0.73  5.43 LIG-0.35  N 
ATOM     13 H    ALA P 573      35.249  71.725  89.657  0.73  5.43 LIG 0.16  HD
ATOM     14 O    GLY P 572      36.948  70.861  87.299  0.73  3.60 LIG-0.27  OA
BRANCH 12 15
ATOM     15  CA  ALA P 573      36.826  72.842  89.327  0.73  6.34 LIG 0.18  C 
ATOM     16  CB  ALA P 573      36.697  73.864  88.223  0.73  5.76 LIG 0.04  C 
BRANCH 15 17
ATOM     17  C   ALA P 573      36.443  73.469  90.666  0.73  7.45 LIG 0.20  C 
ATOM     18 OXT  ALA P 573      37.354  73.840  91.435  0.73  4.81 LIG-0.65  OA
ATOM     19 O    ALA P 573      35.225  73.594  90.922  0.73  9.82 LIG-0.65  OA
ENDBRANCH 15 17
ENDBRANCH 12 15
ENDBRANCH 1 11
TORSDOF 5
ENDMDL
MODEL 49
USER: ADFR SOLUTION from run 198
USER: SCORE 8.230195 LL:  -1.824 LR:  -6.409 RR:   0.000 FEB:  -4.917
USER: RMSD 5.261174
USER: SEED 197
USER: STATUS no improvement in best in 23 clusters for 5 generations
USER: GENES 7
USER: genes 0 Translation |==|  0.46879 0.59549 0.47178
USER: genes 1 Rotation |==|  0.38505 0.11032 0.40379 0.77510
USER: genes 2 Torsion [C]-CA--N-[C] |==|  0.76446
USER: genes 3 Torsion [N]-C--CA-[N] |==|  0.61343
USER: genes 4 Torsion [N]-CA--C-[N] |==|  0.98620
USER: genes 5 Torsion [C]-N--CA-[CB] |==|  0.23707
USER: genes 6 Torsion [N]-CA--C-[OXT] |==|  0.67431
ROOT
ATOM      1  CA  GLY P 572      32.592  73.960  89.470  0.73  6.50 LIG 0.23  C 
ENDROOT
BRANCH 1 2
ATOM      2  N   GLY P 572      33.606  73.412  88.581  0.73  9.23 LIG-0.35  N 
ATOM      3  C   PRO P 571      34.499  74.141  87.899  0.73  8.22 LIG 0.25  C 
ATOM      4 O    PRO P 571      34.607  75.367  87.976  0.73  7.23 LIG-0.27  OA
ATOM      5 H    GLY P 572      33.580  72.553  88.532  0.73  9.23 LIG 0.16  HD
BRANCH 3 6
ATOM      6  CA  PRO P 571      35.456  73.340  87.007  0.73  9.03 LIG 0.35  C 
ATOM      7  N   PRO P 571      36.863  73.851  87.052  0.73 10.09 LIG 0.32  N 
ATOM      8  CD  PRO P 571      37.624  72.597  87.226  0.73  9.16 LIG 0.32  C 
ATOM      9  CG  PRO P 571      36.692  71.438  86.851  0.73  9.15 LIG 0.04  C 
ATOM     10  CB  PRO P 571      35.446  71.864  87.397  0.73  9.69 LIG 0.05  C 
ENDBRANCH 3 6
ENDBRANCH 1 2
BRANCH 1 11
ATOM     11  C   GLY P 572      33.310  74.134  90.807  0.73  5.30 LIG 0.24  C 
ATOM     12  N   ALA P 573      34.554  73.664  90.821  0.73  5.43 LIG-0.35  N 
ATOM     13 H    ALA P 573      34.911  73.276  90.141  0.73  5.43 LIG 0.16  HD
ATOM     14 O    GLY P 572      32.753  74.617  91.797  0.73  3.60 LIG-0.27  OA
BRANCH 12 15
ATOM     15  CA  ALA P 573      35.449  73.749  91.966  0.73  6.34 LIG 0.18  C 
ATOM     16  CB  ALA P 573      35.217  72.589  92.905  0.73  5.76 LIG 0.04  C 
BRANCH 15 17
ATOM     17  C   ALA P 573      36.873  73.698  91.416  0.73  7.45 LIG 0.20  C 
ATOM     18 OXT  ALA P 573      37.607  72.742  91.743  0.73  4.81 LIG-0.65  OA
ATOM     19 O    ALA P 573      37.232  74.617  90.647  0.73  9.82 LIG-0.65  OA
ENDBRANCH 15 17
ENDBRANCH 12 15
ENDBRANCH 1 11
TORSDOF 5
ENDMDL
MODEL 50
USER: ADFR SOLUTION from run 143
USER: SCORE 7.596150 LL:  -1.510 LR:  -6.396 RR:   0.000 FEB:  -4.904
USER: RMSD 6.349981
USER: SEED 142
USER: STATUS no improvement in best in 26 clusters for 5 generations
USER: GENES 7
USER: genes 0 Translation |==|  0.21517 0.42058 0.58649
USER: genes 1 Rotation |==|  0.61723 0.11931 0.37110 0.77334
USER: genes 2 Torsion [C]-CA--N-[C] |==|  0.80083
USER: genes 3 Torsion [N]-C--CA-[N] |==|  0.71103
USER: genes 4 Torsion [N]-CA--C-[N] |==|  0.85000
USER: genes 5 Torsion [C]-N--CA-[CB] |==|  0.50631
USER: genes 6 Torsion [N]-CA--C-[OXT] |==|  0.39847
ROOT
ATOM      1  CA  GLY P 572      28.407  71.729  91.019  0.73  6.50 LIG 0.23  C 
ENDROOT
BRANCH 1 2
ATOM      2  N   GLY P 572      29.517  72.462  90.426  0.73  9.23 LIG-0.35  N 
ATOM      3  C   PRO P 571      29.878  73.707  90.765  0.73  8.22 LIG 0.25  C 
ATOM      4 O    PRO P 571      29.347  74.372  91.658  0.73  7.23 LIG-0.27  OA
ATOM      5 H    GLY P 572      29.931  72.012  89.822  0.73  9.23 LIG 0.16  HD
BRANCH 3 6
ATOM      6  CA  PRO P 571      31.067  74.280  89.984  0.73  9.03 LIG 0.35  C 
ATOM      7  N   PRO P 571      32.338  74.289  90.778  0.73 10.09 LIG 0.32  N 
ATOM      8  CD  PRO P 571      33.296  73.727  89.803  0.73  9.16 LIG 0.32  C 
ATOM      9  CG  PRO P 571      32.650  73.826  88.416  0.73  9.15 LIG 0.04  C 
ATOM     10  CB  PRO P 571      31.289  73.498  88.692  0.73  9.69 LIG 0.05  C 
ENDBRANCH 3 6
ENDBRANCH 1 2
BRANCH 1 11
ATOM     11  C   GLY P 572      28.887  71.383  92.426  0.73  5.30 LIG 0.24  C 
ATOM     12  N   ALA P 573      30.055  70.746  92.461  0.73  5.43 LIG-0.35  N 
ATOM     13 H    ALA P 573      30.486  70.530  91.749  0.73  5.43 LIG 0.16  HD
ATOM     14 O    GLY P 572      28.214  71.625  93.432  0.73  3.60 LIG-0.27  OA
BRANCH 12 15
ATOM     15  CA  ALA P 573      30.733  70.345  93.686  0.73  6.34 LIG 0.18  C 
ATOM     16  CB  ALA P 573      32.059  69.696  93.367  0.73  5.76 LIG 0.04  C 
BRANCH 15 17
ATOM     17  C   ALA P 573      30.958  71.617  94.500  0.73  7.45 LIG 0.20  C 
ATOM     18 OXT  ALA P 573      30.858  71.557  95.743  0.73  4.81 LIG-0.65  OA
ATOM     19 O    ALA P 573      31.248  72.663  93.878  0.73  9.82 LIG-0.65  OA
ENDBRANCH 15 17
ENDBRANCH 12 15
ENDBRANCH 1 11
TORSDOF 5
ENDMDL
MODEL 51
USER: ADFR SOLUTION from run 177
USER: SCORE 7.254533 LL:  -1.094 LR:  -6.400 RR:   0.000 FEB:  -4.909
USER: RMSD 6.703255
USER: SEED 176
USER: STATUS no improvement in best in 33 clusters for 5 generations
USER: GENES 7
USER: genes 0 Translation |==|  0.54667 0.33337 0.55410
USER: genes 1 Rotation |==|  0.72380 0.51203 0.94667 0.51602
USER: genes 2 Torsion [C]-CA--N-[C] |==|  0.66917
USER: genes 3 Torsion [N]-C--CA-[N] |==|  0.23201
USER: genes 4 Torsion [N]-CA--C-[N] |==|  0.55317
USER: genes 5 Torsion [C]-N--CA-[CB] |==|  0.25146
USER: genes 6 Torsion [N]-CA--C-[OXT] |==|  0.90577
ROOT
ATOM      1  CA  GLY P 572      33.877  70.618  90.581  0.73  6.50 LIG 0.23  C 
ENDROOT
BRANCH 1 2
ATOM      2  N   GLY P 572      33.960  70.424  89.141  0.73  9.23 LIG-0.35  N 
ATOM      3  C   PRO P 571      34.874  69.664  88.524  0.73  8.22 LIG 0.25  C 
ATOM      4 O    PRO P 571      35.732  68.992  89.101  0.73  7.23 LIG-0.27  OA
ATOM      5 H    GLY P 572      33.351  70.853  88.710  0.73  9.23 LIG 0.16  HD
BRANCH 3 6
ATOM      6  CA  PRO P 571      34.774  69.631  86.993  0.73  9.03 LIG 0.35  C 
ATOM      7  N   PRO P 571      35.457  70.793  86.338  0.73 10.09 LIG 0.32  N 
ATOM      8  CD  PRO P 571      36.223  70.117  85.271  0.73  9.16 LIG 0.32  C 
ATOM      9  CG  PRO P 571      35.629  68.714  85.097  0.73  9.15 LIG 0.04  C 
ATOM     10  CB  PRO P 571      35.357  68.331  86.444  0.73  9.69 LIG 0.05  C 
ENDBRANCH 3 6
ENDBRANCH 1 2
BRANCH 1 11
ATOM     11  C   GLY P 572      32.500  70.077  90.961  0.73  5.30 LIG 0.24  C 
ATOM     12  N   ALA P 573      32.052  70.509  92.137  0.73  5.43 LIG-0.35  N 
ATOM     13 H    ALA P 573      32.512  71.028  92.646  0.73  5.43 LIG 0.16  HD
ATOM     14 O    GLY P 572      31.892  69.266  90.257  0.73  3.60 LIG-0.27  OA
BRANCH 12 15
ATOM     15  CA  ALA P 573      30.753  70.162  92.696  0.73  6.34 LIG 0.18  C 
ATOM     16  CB  ALA P 573      30.857  68.916  93.542  0.73  5.76 LIG 0.04  C 
BRANCH 15 17
ATOM     17  C   ALA P 573      30.318  71.344  93.560  0.73  7.45 LIG 0.20  C 
ATOM     18 OXT  ALA P 573      31.193  71.992  94.173  0.73  4.81 LIG-0.65  OA
ATOM     19 O    ALA P 573      29.098  71.617  93.601  0.73  9.82 LIG-0.65  OA
ENDBRANCH 15 17
ENDBRANCH 12 15
ENDBRANCH 1 11
TORSDOF 5
ENDMDL
MODEL 52
USER: ADFR SOLUTION from run 41
USER: SCORE 7.128872 LL:  -1.000 LR:  -6.399 RR:   0.000 FEB:  -4.908
USER: RMSD 6.355460
USER: SEED 40
USER: STATUS no improvement in best in 37 clusters for 5 generations
USER: GENES 7
USER: genes 0 Translation |==|  0.41424 0.64699 0.65095
USER: genes 1 Rotation |==|  0.40698 0.21495 0.12777 0.64677
USER: genes 2 Torsion [C]-CA--N-[C] |==|  0.78968
USER: genes 3 Torsion [N]-C--CA-[N] |==|  0.06810
USER: genes 4 Torsion [N]-CA--C-[N] |==|  0.86111
USER: genes 5 Torsion [C]-N--CA-[CB] |==|  0.82037
USER: genes 6 Torsion [N]-CA--C-[OXT] |==|  0.62430
ROOT
ATOM      1  CA  GLY P 572      31.692  74.616  91.889  0.73  6.50 LIG 0.23  C 
ENDROOT
BRANCH 1 2
ATOM      2  N   GLY P 572      32.715  74.109  90.987  0.73  9.23 LIG-0.35  N 
ATOM      3  C   PRO P 571      33.988  73.873  91.331  0.73  8.22 LIG 0.25  C 
ATOM      4 O    PRO P 571      34.443  74.008  92.469  0.73  7.23 LIG-0.27  OA
ATOM      5 H    GLY P 572      32.421  73.971  90.190  0.73  9.23 LIG 0.16  HD
BRANCH 3 6
ATOM      6  CA  PRO P 571      34.889  73.361  90.199  0.73  9.03 LIG 0.35  C 
ATOM      7  N   PRO P 571      34.398  73.751  88.839  0.73 10.09 LIG 0.32  N 
ATOM      8  CD  PRO P 571      35.641  74.244  88.210  0.73  9.16 LIG 0.32  C 
ATOM      9  CG  PRO P 571      36.816  73.729  89.050  0.73  9.15 LIG 0.04  C 
ATOM     10  CB  PRO P 571      36.319  73.865  90.380  0.73  9.69 LIG 0.05  C 
ENDBRANCH 3 6
ENDBRANCH 1 2
BRANCH 1 11
ATOM     11  C   GLY P 572      31.321  73.416  92.758  0.73  5.30 LIG 0.24  C 
ATOM     12  N   ALA P 573      31.048  72.310  92.070  0.73  5.43 LIG-0.35  N 
ATOM     13 H    ALA P 573      31.059  72.285  91.211  0.73  5.43 LIG 0.16  HD
ATOM     14 O    GLY P 572      31.228  73.495  93.986  0.73  3.60 LIG-0.27  OA
BRANCH 12 15
ATOM     15  CA  ALA P 573      30.706  71.032  92.677  0.73  6.34 LIG 0.18  C 
ATOM     16  CB  ALA P 573      31.873  70.495  93.470  0.73  5.76 LIG 0.04  C 
BRANCH 15 17
ATOM     17  C   ALA P 573      29.519  71.288  93.602  0.73  7.45 LIG 0.20  C 
ATOM     18 OXT  ALA P 573      29.530  70.782  94.744  0.73  4.81 LIG-0.65  OA
ATOM     19 O    ALA P 573      28.592  72.011  93.174  0.73  9.82 LIG-0.65  OA
ENDBRANCH 15 17
ENDBRANCH 12 15
ENDBRANCH 1 11
TORSDOF 5
ENDMDL
MODEL 53
USER: ADFR SOLUTION from run 10
USER: SCORE 7.488824 LL:  -1.221 LR:  -6.388 RR:   0.000 FEB:  -4.897
USER: RMSD 6.543902
USER: SEED 721537
USER: STATUS no improvement in best in 19 clusters for 5 generations
USER: GENES 7
USER: genes 0 Translation |==|  0.43319 0.59273 0.37542
USER: genes 1 Rotation |==|  0.41572 0.08567 0.32124 0.69818
USER: genes 2 Torsion [C]-CA--N-[C] |==|  0.76984
USER: genes 3 Torsion [N]-C--CA-[N] |==|  0.55720
USER: genes 4 Torsion [N]-CA--C-[N] |==|  0.52895
USER: genes 5 Torsion [C]-N--CA-[CB] |==|  0.25031
USER: genes 6 Torsion [N]-CA--C-[OXT] |==|  0.44389
ROOT
ATOM      1  CA  GLY P 572      32.005  73.924  88.169  0.73  6.50 LIG 0.23  C 
ENDROOT
BRANCH 1 2
ATOM      2  N   GLY P 572      33.245  73.410  87.609  0.73  9.23 LIG-0.35  N 
ATOM      3  C   PRO P 571      34.396  74.093  87.544  0.73  8.22 LIG 0.25  C 
ATOM      4 O    PRO P 571      34.563  75.227  87.997  0.73  7.23 LIG-0.27  OA
ATOM      5 H    GLY P 572      33.171  72.605  87.314  0.73  9.23 LIG 0.16  HD
BRANCH 3 6
ATOM      6  CA  PRO P 571      35.565  73.347  86.888  0.73  9.03 LIG 0.35  C 
ATOM      7  N   PRO P 571      36.902  73.910  87.263  0.73 10.09 LIG 0.32  N 
ATOM      8  CD  PRO P 571      37.654  72.682  87.594  0.73  9.16 LIG 0.32  C 
ATOM      9  CG  PRO P 571      36.883  71.497  86.999  0.73  9.15 LIG 0.04  C 
ATOM     10  CB  PRO P 571      35.527  71.864  87.248  0.73  9.69 LIG 0.05  C 
ENDBRANCH 3 6
ENDBRANCH 1 2
BRANCH 1 11
ATOM     11  C   GLY P 572      32.144  73.701  89.674  0.73  5.30 LIG 0.24  C 
ATOM     12  N   ALA P 573      31.022  73.904  90.359  0.73  5.43 LIG-0.35  N 
ATOM     13 H    ALA P 573      30.291  74.162  89.986  0.73  5.43 LIG 0.16  HD
ATOM     14 O    GLY P 572      33.222  73.414  90.201  0.73  3.60 LIG-0.27  OA
BRANCH 12 15
ATOM     15  CA  ALA P 573      30.896  73.718  91.798  0.73  6.34 LIG 0.18  C 
ATOM     16  CB  ALA P 573      31.218  75.001  92.527  0.73  5.76 LIG 0.04  C 
BRANCH 15 17
ATOM     17  C   ALA P 573      29.446  73.317  92.064  0.73  7.45 LIG 0.20  C 
ATOM     18 OXT  ALA P 573      29.173  72.739  93.137  0.73  4.81 LIG-0.65  OA
ATOM     19 O    ALA P 573      28.595  73.602  91.193  0.73  9.82 LIG-0.65  OA
ENDBRANCH 15 17
ENDBRANCH 12 15
ENDBRANCH 1 11
TORSDOF 5
ENDMDL
MODEL 54
USER: ADFR SOLUTION from run 141
USER: SCORE 8.193658 LL:  -1.899 LR:  -6.377 RR:   0.000 FEB:  -4.886
USER: RMSD 6.426872
USER: SEED 140
USER: STATUS no improvement in best in 29 clusters for 5 generations
USER: GENES 7
USER: genes 0 Translation |==|  0.22953 0.29412 0.47223
USER: genes 1 Rotation |==|  0.89261 0.31980 0.42397 0.74000
USER: genes 2 Torsion [C]-CA--N-[C] |==|  0.16750
USER: genes 3 Torsion [N]-C--CA-[N] |==|  0.05587
USER: genes 4 Torsion [N]-CA--C-[N] |==|  0.08078
USER: genes 5 Torsion [C]-N--CA-[CB] |==|  0.13845
USER: genes 6 Torsion [N]-CA--C-[OXT] |==|  0.50734
ROOT
ATOM      1  CA  GLY P 572      28.644  70.117  89.476  0.73  6.50 LIG 0.23  C 
ENDROOT
BRANCH 1 2
ATOM      2  N   GLY P 572      28.232  71.471  89.814  0.73  9.23 LIG-0.35  N 
ATOM      3  C   PRO P 571      29.056  72.525  89.885  0.73  8.22 LIG 0.25  C 
ATOM      4 O    PRO P 571      30.260  72.492  89.623  0.73  7.23 LIG-0.27  OA
ATOM      5 H    GLY P 572      27.388  71.535  89.970  0.73  9.23 LIG 0.16  HD
BRANCH 3 6
ATOM      6  CA  PRO P 571      28.392  73.850  90.283  0.73  9.03 LIG 0.35  C 
ATOM      7  N   PRO P 571      27.077  73.661  90.976  0.73 10.09 LIG 0.32  N 
ATOM      8  CD  PRO P 571      27.218  74.577  92.127  0.73  9.16 LIG 0.32  C 
ATOM      9  CG  PRO P 571      28.377  75.531  91.814  0.73  9.15 LIG 0.04  C 
ATOM     10  CB  PRO P 571      29.319  74.667  91.181  0.73  9.69 LIG 0.05  C 
ENDBRANCH 3 6
ENDBRANCH 1 2
BRANCH 1 11
ATOM     11  C   GLY P 572      29.654  69.744  90.559  0.73  5.30 LIG 0.24  C 
ATOM     12  N   ALA P 573      29.448  70.347  91.727  0.73  5.43 LIG-0.35  N 
ATOM     13 H    ALA P 573      28.814  70.915  91.849  0.73  5.43 LIG 0.16  HD
ATOM     14 O    GLY P 572      30.609  68.992  90.340  0.73  3.60 LIG-0.27  OA
BRANCH 12 15
ATOM     15  CA  ALA P 573      30.254  70.124  92.918  0.73  6.34 LIG 0.18  C 
ATOM     16  CB  ALA P 573      31.723  70.249  92.593  0.73  5.76 LIG 0.04  C 
BRANCH 15 17
ATOM     17  C   ALA P 573      29.850  71.196  93.929  0.73  7.45 LIG 0.20  C 
ATOM     18 OXT  ALA P 573      30.448  71.240  95.024  0.73  4.81 LIG-0.65  OA
ATOM     19 O    ALA P 573      28.943  71.992  93.601  0.73  9.82 LIG-0.65  OA
ENDBRANCH 15 17
ENDBRANCH 12 15
ENDBRANCH 1 11
TORSDOF 5
ENDMDL
MODEL 55
USER: ADFR SOLUTION from run 62
USER: SCORE 7.427474 LL:  -1.484 LR:  -6.384 RR:   0.000 FEB:  -4.892
USER: RMSD 6.724740
USER: SEED 61
USER: STATUS no improvement in best in 34 clusters for 5 generations
USER: GENES 7
USER: genes 0 Translation |==|  0.26140 0.37255 0.59369
USER: genes 1 Rotation |==|  0.47231 0.04883 0.38341 0.67913
USER: genes 2 Torsion [C]-CA--N-[C] |==|  0.26158
USER: genes 3 Torsion [N]-C--CA-[N] |==|  0.81693
USER: genes 4 Torsion [N]-CA--C-[N] |==|  0.87839
USER: genes 5 Torsion [C]-N--CA-[CB] |==|  0.45669
USER: genes 6 Torsion [N]-CA--C-[OXT] |==|  0.94092
ROOT
ATOM      1  CA  GLY P 572      29.170  71.117  91.116  0.73  6.50 LIG 0.23  C 
ENDROOT
BRANCH 1 2
ATOM      2  N   GLY P 572      30.584  70.908  90.839  0.73  9.23 LIG-0.35  N 
ATOM      3  C   PRO P 571      31.157  69.712  90.653  0.73  8.22 LIG 0.25  C 
ATOM      4 O    PRO P 571      30.550  68.638  90.643  0.73  7.23 LIG-0.27  OA
ATOM      5 H    GLY P 572      31.031  71.642  90.805  0.73  9.23 LIG 0.16  HD
BRANCH 3 6
ATOM      6  CA  PRO P 571      32.669  69.742  90.397  0.73  9.03 LIG 0.35  C 
ATOM      7  N   PRO P 571      33.030  70.407  89.104  0.73 10.09 LIG 0.32  N 
ATOM      8  CD  PRO P 571      34.128  71.299  89.530  0.73  9.16 LIG 0.32  C 
ATOM      9  CG  PRO P 571      34.615  70.806  90.898  0.73  9.15 LIG 0.04  C 
ATOM     10  CB  PRO P 571      33.394  70.445  91.542  0.73  9.69 LIG 0.05  C 
ENDBRANCH 3 6
ENDBRANCH 1 2
BRANCH 1 11
ATOM     11  C   GLY P 572      29.085  71.182  92.639  0.73  5.30 LIG 0.24  C 
ATOM     12  N   ALA P 573      29.804  70.253  93.264  0.73  5.43 LIG-0.35  N 
ATOM     13 H    ALA P 573      30.257  69.656  92.842  0.73  5.43 LIG 0.16  HD
ATOM     14 O    GLY P 572      28.362  71.992  93.226  0.73  3.60 LIG-0.27  OA
BRANCH 12 15
ATOM     15  CA  ALA P 573      29.911  70.135  94.711  0.73  6.34 LIG 0.18  C 
ATOM     16  CB  ALA P 573      30.471  68.786  95.092  0.73  5.76 LIG 0.04  C 
BRANCH 15 17
ATOM     17  C   ALA P 573      30.857  71.242  95.172  0.73  7.45 LIG 0.20  C 
ATOM     18 OXT  ALA P 573      31.649  71.737  94.343  0.73  4.81 LIG-0.65  OA
ATOM     19 O    ALA P 573      30.783  71.611  96.365  0.73  9.82 LIG-0.65  OA
ENDBRANCH 15 17
ENDBRANCH 12 15
ENDBRANCH 1 11
TORSDOF 5
ENDMDL
MODEL 56
USER: ADFR SOLUTION from run 111
USER: SCORE 8.118168 LL:  -1.840 LR:  -6.380 RR:   0.000 FEB:  -4.888
USER: RMSD 8.207404
USER: SEED 110
USER: STATUS no improvement in best in 32 clusters for 5 generations
USER: GENES 7
USER: genes 0 Translation |==|  0.02173 0.56989 0.56544
USER: genes 1 Rotation |==|  0.74202 0.27884 0.19178 0.71798
USER: genes 2 Torsion [C]-CA--N-[C] |==|  0.70012
USER: genes 3 Torsion [N]-C--CA-[N] |==|  0.83298
USER: genes 4 Torsion [N]-CA--C-[N] |==|  0.03889
USER: genes 5 Torsion [C]-N--CA-[CB] |==|  0.21392
USER: genes 6 Torsion [N]-CA--C-[OXT] |==|  0.90706
ROOT
ATOM      1  CA  GLY P 572      25.216  73.633  90.734  0.73  6.50 LIG 0.23  C 
ENDROOT
BRANCH 1 2
ATOM      2  N   GLY P 572      26.193  74.687  90.963  0.73  9.23 LIG-0.35  N 
ATOM      3  C   PRO P 571      26.201  75.503  92.025  0.73  8.22 LIG 0.25  C 
ATOM      4 O    PRO P 571      25.411  75.433  92.969  0.73  7.23 LIG-0.27  OA
ATOM      5 H    GLY P 572      26.781  74.740  90.337  0.73  9.23 LIG 0.16  HD
BRANCH 3 6
ATOM      6  CA  PRO P 571      27.320  76.554  92.036  0.73  9.03 LIG 0.35  C 
ATOM      7  N   PRO P 571      28.690  75.949  92.021  0.73 10.09 LIG 0.32  N 
ATOM      8  CD  PRO P 571      29.354  76.755  90.976  0.73  9.16 LIG 0.32  C 
ATOM      9  CG  PRO P 571      28.506  78.014  90.759  0.73  9.15 LIG 0.04  C 
ATOM     10  CB  PRO P 571      27.177  77.503  90.848  0.73  9.69 LIG 0.05  C 
ENDBRANCH 3 6
ENDBRANCH 1 2
BRANCH 1 11
ATOM     11  C   GLY P 572      25.987  72.338  90.977  0.73  5.30 LIG 0.24  C 
ATOM     12  N   ALA P 573      27.158  72.508  91.587  0.73  5.43 LIG-0.35  N 
ATOM     13 H    ALA P 573      27.459  73.284  91.802  0.73  5.43 LIG 0.16  HD
ATOM     14 O    GLY P 572      25.578  71.242  90.584  0.73  3.60 LIG-0.27  OA
BRANCH 12 15
ATOM     15  CA  ALA P 573      28.054  71.422  91.958  0.73  6.34 LIG 0.18  C 
ATOM     16  CB  ALA P 573      28.798  70.914  90.746  0.73  5.76 LIG 0.04  C 
BRANCH 15 17
ATOM     17  C   ALA P 573      29.040  71.995  92.974  0.73  7.45 LIG 0.20  C 
ATOM     18 OXT  ALA P 573      29.389  73.189  92.862  0.73  4.81 LIG-0.65  OA
ATOM     19 O    ALA P 573      29.442  71.237  93.885  0.73  9.82 LIG-0.65  OA
ENDBRANCH 15 17
ENDBRANCH 12 15
ENDBRANCH 1 11
TORSDOF 5
ENDMDL
MODEL 57
USER: ADFR SOLUTION from run 54
USER: SCORE 7.540946 LL:  -1.293 LR:  -6.356 RR:   0.000 FEB:  -4.865
USER: RMSD 6.303888
USER: SEED 53
USER: STATUS no improvement in best in 29 clusters for 5 generations
USER: GENES 7
USER: genes 0 Translation |==|  0.43785 0.26002 0.56467
USER: genes 1 Rotation |==|  0.65274 0.07936 0.71723 0.55050
USER: genes 2 Torsion [C]-CA--N-[C] |==|  0.22222
USER: genes 3 Torsion [N]-C--CA-[N] |==|  0.38590
USER: genes 4 Torsion [N]-CA--C-[N] |==|  0.09439
USER: genes 5 Torsion [C]-N--CA-[CB] |==|  0.85122
USER: genes 6 Torsion [N]-CA--C-[OXT] |==|  0.70449
ROOT
ATOM      1  CA  GLY P 572      32.082  69.682  90.724  0.73  6.50 LIG 0.23  C 
ENDROOT
BRANCH 1 2
ATOM      2  N   GLY P 572      32.916  70.870  90.618  0.73  9.23 LIG-0.35  N 
ATOM      3  C   PRO P 571      33.593  71.421  91.634  0.73  8.22 LIG 0.25  C 
ATOM      4 O    PRO P 571      33.636  70.963  92.777  0.73  7.23 LIG-0.27  OA
ATOM      5 H    GLY P 572      32.935  71.196  89.822  0.73  9.23 LIG 0.16  HD
BRANCH 3 6
ATOM      6  CA  PRO P 571      34.388  72.686  91.282  0.73  9.03 LIG 0.35  C 
ATOM      7  N   PRO P 571      34.297  73.745  92.338  0.73 10.09 LIG 0.32  N 
ATOM      8  CD  PRO P 571      35.713  74.142  92.476  0.73  9.16 LIG 0.32  C 
ATOM      9  CG  PRO P 571      36.458  73.625  91.239  0.73  9.15 LIG 0.04  C 
ATOM     10  CB  PRO P 571      35.856  72.348  91.036  0.73  9.69 LIG 0.05  C 
ENDBRANCH 3 6
ENDBRANCH 1 2
BRANCH 1 11
ATOM     11  C   GLY P 572      30.768  70.189  91.316  0.73  5.30 LIG 0.24  C 
ATOM     12  N   ALA P 573      30.434  71.417  90.926  0.73  5.43 LIG-0.35  N 
ATOM     13 H    ALA P 573      30.930  71.888  90.405  0.73  5.43 LIG 0.16  HD
ATOM     14 O    GLY P 572      30.114  69.532  92.130  0.73  3.60 LIG-0.27  OA
BRANCH 12 15
ATOM     15  CA  ALA P 573      29.212  72.099  91.326  0.73  6.34 LIG 0.18  C 
ATOM     16  CB  ALA P 573      28.006  71.244  91.022  0.73  5.76 LIG 0.04  C 
BRANCH 15 17
ATOM     17  C   ALA P 573      29.315  72.340  92.831  0.73  7.45 LIG 0.20  C 
ATOM     18 OXT  ALA P 573      28.619  71.642  93.597  0.73  4.81 LIG-0.65  OA
ATOM     19 O    ALA P 573      30.110  73.222  93.226  0.73  9.82 LIG-0.65  OA
ENDBRANCH 15 17
ENDBRANCH 12 15
ENDBRANCH 1 11
TORSDOF 5
ENDMDL
MODEL 58
USER: ADFR SOLUTION from run 84
USER: SCORE 7.387861 LL:  -1.122 LR:  -6.357 RR:   0.000 FEB:  -4.865
USER: RMSD 6.676790
USER: SEED 83
USER: STATUS no improvement in best in 27 clusters for 5 generations
USER: GENES 7
USER: genes 0 Translation |==|  0.34094 0.23430 0.55467
USER: genes 1 Rotation |==|  0.48306 0.14167 0.79541 0.68452
USER: genes 2 Torsion [C]-CA--N-[C] |==|  0.22269
USER: genes 3 Torsion [N]-C--CA-[N] |==|  0.12476
USER: genes 4 Torsion [N]-CA--C-[N] |==|  0.50207
USER: genes 5 Torsion [C]-N--CA-[CB] |==|  0.41871
USER: genes 6 Torsion [N]-CA--C-[OXT] |==|  0.41839
ROOT
ATOM      1  CA  GLY P 572      30.483  69.354  90.589  0.73  6.50 LIG 0.23  C 
ENDROOT
BRANCH 1 2
ATOM      2  N   GLY P 572      31.783  69.448  89.943  0.73  9.23 LIG-0.35  N 
ATOM      3  C   PRO P 571      32.911  69.839  90.551  0.73  8.22 LIG 0.25  C 
ATOM      4 O    PRO P 571      33.001  70.122  91.747  0.73  7.23 LIG-0.27  OA
ATOM      5 H    GLY P 572      31.762  69.223  89.113  0.73  9.23 LIG 0.16  HD
BRANCH 3 6
ATOM      6  CA  PRO P 571      34.157  69.880  89.656  0.73  9.03 LIG 0.35  C 
ATOM      7  N   PRO P 571      33.901  70.517  88.325  0.73 10.09 LIG 0.32  N 
ATOM      8  CD  PRO P 571      35.057  71.431  88.211  0.73  9.16 LIG 0.32  C 
ATOM      9  CG  PRO P 571      36.104  70.976  89.235  0.73  9.15 LIG 0.04  C 
ATOM     10  CB  PRO P 571      35.297  70.618  90.355  0.73  9.69 LIG 0.05  C 
ENDBRANCH 3 6
ENDBRANCH 1 2
BRANCH 1 11
ATOM     11  C   GLY P 572      29.962  70.790  90.608  0.73  5.30 LIG 0.24  C 
ATOM     12  N   ALA P 573      28.769  70.928  91.182  0.73  5.43 LIG-0.35  N 
ATOM     13 H    ALA P 573      28.324  70.260  91.492  0.73  5.43 LIG 0.16  HD
ATOM     14 O    GLY P 572      30.576  71.722  90.082  0.73  3.60 LIG-0.27  OA
BRANCH 12 15
ATOM     15  CA  ALA P 573      28.084  72.201  91.353  0.73  6.34 LIG 0.18  C 
ATOM     16  CB  ALA P 573      26.588  72.002  91.345  0.73  5.76 LIG 0.04  C 
BRANCH 15 17
ATOM     17  C   ALA P 573      28.529  72.762  92.702  0.73  7.45 LIG 0.20  C 
ATOM     18 OXT  ALA P 573      28.561  74.001  92.854  0.73  4.81 LIG-0.65  OA
ATOM     19 O    ALA P 573      28.829  71.945  93.601  0.73  9.82 LIG-0.65  OA
ENDBRANCH 15 17
ENDBRANCH 12 15
ENDBRANCH 1 11
TORSDOF 5
ENDMDL
MODEL 59
USER: ADFR SOLUTION from run 46
USER: SCORE 7.885630 LL:  -1.663 LR:  -6.308 RR:   0.000 FEB:  -4.816
USER: RMSD 4.994290
USER: SEED 45
USER: STATUS no improvement in best in 31 clusters for 5 generations
USER: GENES 7
USER: genes 0 Translation |==|  0.75000 0.61372 0.43246
USER: genes 1 Rotation |==|  0.15907 0.38699 0.17213 0.61618
USER: genes 2 Torsion [C]-CA--N-[C] |==|  0.28809
USER: genes 3 Torsion [N]-C--CA-[N] |==|  0.10562
USER: genes 4 Torsion [N]-CA--C-[N] |==|  0.01059
USER: genes 5 Torsion [C]-N--CA-[CB] |==|  0.15185
USER: genes 6 Torsion [N]-CA--C-[OXT] |==|  0.27529
ROOT
ATOM      1  CA  GLY P 572      37.232  74.192  88.939  0.73  6.50 LIG 0.23  C 
ENDROOT
BRANCH 1 2
ATOM      2  N   GLY P 572      36.610  73.630  87.750  0.73  9.23 LIG-0.35  N 
ATOM      3  C   PRO P 571      35.449  74.046  87.226  0.73  8.22 LIG 0.25  C 
ATOM      4 O    PRO P 571      34.786  74.992  87.655  0.73  7.23 LIG-0.27  OA
ATOM      5 H    GLY P 572      37.067  72.988  87.404  0.73  9.23 LIG 0.16  HD
BRANCH 3 6
ATOM      6  CA  PRO P 571      34.982  73.283  85.979  0.73  9.03 LIG 0.35  C 
ATOM      7  N   PRO P 571      35.268  71.814  86.051  0.73 10.09 LIG 0.32  N 
ATOM      8  CD  PRO P 571      33.976  71.243  85.619  0.73  9.16 LIG 0.32  C 
ATOM      9  CG  PRO P 571      33.186  72.363  84.931  0.73  9.15 LIG 0.04  C 
ATOM     10  CB  PRO P 571      33.487  73.492  85.750  0.73  9.69 LIG 0.05  C 
ENDBRANCH 3 6
ENDBRANCH 1 2
BRANCH 1 11
ATOM     11  C   GLY P 572      36.952  73.168  90.037  0.73  5.30 LIG 0.24  C 
ATOM     12  N   ALA P 573      36.329  72.072  89.612  0.73  5.43 LIG-0.35  N 
ATOM     13 H    ALA P 573      36.086  71.965  88.794  0.73  5.43 LIG 0.16  HD
ATOM     14 O    GLY P 572      37.232  73.376  91.221  0.73  3.60 LIG-0.27  OA
BRANCH 12 15
ATOM     15  CA  ALA P 573      35.989  70.941  90.464  0.73  6.34 LIG 0.18  C 
ATOM     16  CB  ALA P 573      35.181  71.399  91.653  0.73  5.76 LIG 0.04  C 
BRANCH 15 17
ATOM     17  C   ALA P 573      35.163  69.981  89.610  0.73  7.45 LIG 0.20  C 
ATOM     18 OXT  ALA P 573      35.732  68.992  89.101  0.73  4.81 LIG-0.65  OA
ATOM     19 O    ALA P 573      33.944  70.226  89.472  0.73  9.82 LIG-0.65  OA
ENDBRANCH 15 17
ENDBRANCH 12 15
ENDBRANCH 1 11
TORSDOF 5
ENDMDL
MODEL 60
USER: ADFR SOLUTION from run 136
USER: SCORE 7.303042 LL:  -1.175 LR:  -6.281 RR:   0.000 FEB:  -4.790
USER: RMSD 7.773746
USER: SEED 135
USER: STATUS no improvement in best in 27 clusters for 5 generations
USER: GENES 7
USER: genes 0 Translation |==|  0.13700 0.41212 0.58995
USER: genes 1 Rotation |==|  0.28958 0.07253 0.56982 0.63461
USER: genes 2 Torsion [C]-CA--N-[C] |==|  0.78428
USER: genes 3 Torsion [N]-C--CA-[N] |==|  0.51658
USER: genes 4 Torsion [N]-CA--C-[N] |==|  0.41780
USER: genes 5 Torsion [C]-N--CA-[CB] |==|  0.35906
USER: genes 6 Torsion [N]-CA--C-[OXT] |==|  0.82056
ROOT
ATOM      1  CA  GLY P 572      27.118  71.622  91.065  0.73  6.50 LIG 0.23  C 
ENDROOT
BRANCH 1 2
ATOM      2  N   GLY P 572      28.243  70.719  91.260  0.73  9.23 LIG-0.35  N 
ATOM      3  C   PRO P 571      29.423  70.824  90.634  0.73  8.22 LIG 0.25  C 
ATOM      4 O    PRO P 571      29.723  71.727  89.851  0.73  7.23 LIG-0.27  OA
ATOM      5 H    GLY P 572      28.077  70.095  91.828  0.73  9.23 LIG 0.16  HD
BRANCH 3 6
ATOM      6  CA  PRO P 571      30.450  69.740  90.987  0.73  9.03 LIG 0.35  C 
ATOM      7  N   PRO P 571      31.793  69.985  90.370  0.73 10.09 LIG 0.32  N 
ATOM      8  CD  PRO P 571      32.689  69.752  91.522  0.73  9.16 LIG 0.32  C 
ATOM      9  CG  PRO P 571      31.885  68.992  92.584  0.73  9.15 LIG 0.04  C 
ATOM     10  CB  PRO P 571      30.607  69.619  92.501  0.73  9.69 LIG 0.05  C 
ENDBRANCH 3 6
ENDBRANCH 1 2
BRANCH 1 11
ATOM     11  C   GLY P 572      27.482  72.866  91.872  0.73  5.30 LIG 0.24  C 
ATOM     12  N   ALA P 573      26.974  73.996  91.387  0.73  5.43 LIG-0.35  N 
ATOM     13 H    ALA P 573      26.502  74.021  90.669  0.73  5.43 LIG 0.16  HD
ATOM     14 O    GLY P 572      28.232  72.822  92.851  0.73  3.60 LIG-0.27  OA
BRANCH 12 15
ATOM     15  CA  ALA P 573      27.151  75.304  92.002  0.73  6.34 LIG 0.18  C 
ATOM     16  CB  ALA P 573      27.636  76.306  90.982  0.73  5.76 LIG 0.04  C 
BRANCH 15 17
ATOM     17  C   ALA P 573      25.785  75.725  92.539  0.73  7.45 LIG 0.20  C 
ATOM     18 OXT  ALA P 573      24.858  75.923  91.726  0.73  4.81 LIG-0.65  OA
ATOM     19 O    ALA P 573      25.657  75.839  93.778  0.73  9.82 LIG-0.65  OA
ENDBRANCH 15 17
ENDBRANCH 12 15
ENDBRANCH 1 11
TORSDOF 5
ENDMDL
MODEL 61
USER: ADFR SOLUTION from run 101
USER: SCORE 7.490622 LL:  -1.334 LR:  -6.247 RR:   0.000 FEB:  -4.756
USER: RMSD 4.995113
USER: SEED 100
USER: STATUS no improvement in best in 32 clusters for 5 generations
USER: GENES 7
USER: genes 0 Translation |==|  0.73708 0.59021 0.45967
USER: genes 1 Rotation |==|  0.88292 0.60747 0.79452 0.57126
USER: genes 2 Torsion [C]-CA--N-[C] |==|  0.28185
USER: genes 3 Torsion [N]-C--CA-[N] |==|  0.53677
USER: genes 4 Torsion [N]-CA--C-[N] |==|  0.93889
USER: genes 5 Torsion [C]-N--CA-[CB] |==|  0.41544
USER: genes 6 Torsion [N]-CA--C-[OXT] |==|  0.97955
ROOT
ATOM      1  CA  GLY P 572      37.019  73.892  89.307  0.73  6.50 LIG 0.23  C 
ENDROOT
BRANCH 1 2
ATOM      2  N   GLY P 572      36.005  73.185  88.538  0.73  9.23 LIG-0.35  N 
ATOM      3  C   PRO P 571      35.071  73.776  87.781  0.73  8.22 LIG 0.25  C 
ATOM      4 O    PRO P 571      34.982  74.992  87.599  0.73  7.23 LIG-0.27  OA
ATOM      5 H    GLY P 572      36.060  72.330  88.617  0.73  9.23 LIG 0.16  HD
BRANCH 3 6
ATOM      6  CA  PRO P 571      34.094  72.821  87.082  0.73  9.03 LIG 0.35  C 
ATOM      7  N   PRO P 571      33.283  73.492  86.015  0.73 10.09 LIG 0.32  N 
ATOM      8  CD  PRO P 571      33.407  72.527  84.904  0.73  9.16 LIG 0.32  C 
ATOM      9  CG  PRO P 571      33.896  71.201  85.499  0.73  9.15 LIG 0.04  C 
ATOM     10  CB  PRO P 571      34.842  71.638  86.473  0.73  9.69 LIG 0.05  C 
ENDBRANCH 3 6
ENDBRANCH 1 2
BRANCH 1 11
ATOM     11  C   GLY P 572      36.498  73.867  90.742  0.73  5.30 LIG 0.24  C 
ATOM     12  N   ALA P 573      35.184  73.680  90.840  0.73  5.43 LIG-0.35  N 
ATOM     13 H    ALA P 573      34.674  73.605  90.152  0.73  5.43 LIG 0.16  HD
ATOM     14 O    GLY P 572      37.232  74.062  91.714  0.73  3.60 LIG-0.27  OA
BRANCH 12 15
ATOM     15  CA  ALA P 573      34.462  73.582  92.101  0.73  6.34 LIG 0.18  C 
ATOM     16  CB  ALA P 573      33.055  74.105  91.946  0.73  5.76 LIG 0.04  C 
BRANCH 15 17
ATOM     17  C   ALA P 573      34.431  72.101  92.474  0.73  7.45 LIG 0.20  C 
ATOM     18 OXT  ALA P 573      34.854  71.266  91.648  0.73  4.81 LIG-0.65  OA
ATOM     19 O    ALA P 573      33.993  71.796  93.606  0.73  9.82 LIG-0.65  OA
ENDBRANCH 15 17
ENDBRANCH 12 15
ENDBRANCH 1 11
TORSDOF 5
ENDMDL
MODEL 62
USER: ADFR SOLUTION from run 37
USER: SCORE 7.553867 LL:  -1.572 LR:  -6.245 RR:   0.000 FEB:  -4.753
USER: RMSD 4.598214
USER: SEED 36
USER: STATUS no improvement in best in 15 clusters for 5 generations
USER: GENES 7
USER: genes 0 Translation |==|  0.59273 0.61764 0.56752
USER: genes 1 Rotation |==|  0.25668 0.29827 0.39849 0.87390
USER: genes 2 Torsion [C]-CA--N-[C] |==|  0.73919
USER: genes 3 Torsion [N]-C--CA-[N] |==|  0.35740
USER: genes 4 Torsion [N]-CA--C-[N] |==|  0.91116
USER: genes 5 Torsion [C]-N--CA-[CB] |==|  0.24722
USER: genes 6 Torsion [N]-CA--C-[OXT] |==|  0.43308
ROOT
ATOM      1  CA  GLY P 572      34.637  74.242  90.763  0.73  6.50 LIG 0.23  C 
ENDROOT
BRANCH 1 2
ATOM      2  N   GLY P 572      34.303  73.461  89.581  0.73  9.23 LIG-0.35  N 
ATOM      3  C   PRO P 571      34.449  73.885  88.319  0.73  8.22 LIG 0.25  C 
ATOM      4 O    PRO P 571      34.932  74.973  87.996  0.73  7.23 LIG-0.27  OA
ATOM      5 H    GLY P 572      33.994  72.681  89.771  0.73  9.23 LIG 0.16  HD
BRANCH 3 6
ATOM      6  CA  PRO P 571      34.006  72.890  87.237  0.73  9.03 LIG 0.35  C 
ATOM      7  N   PRO P 571      33.066  73.492  86.239  0.73 10.09 LIG 0.32  N 
ATOM      8  CD  PRO P 571      33.654  73.027  84.966  0.73  9.16 LIG 0.32  C 
ATOM      9  CG  PRO P 571      34.607  71.871  85.296  0.73  9.15 LIG 0.04  C 
ATOM     10  CB  PRO P 571      35.218  72.318  86.505  0.73  9.69 LIG 0.05  C 
ENDBRANCH 3 6
ENDBRANCH 1 2
BRANCH 1 11
ATOM     11  C   GLY P 572      36.065  73.823  91.106  0.73  5.30 LIG 0.24  C 
ATOM     12  N   ALA P 573      36.350  72.560  90.799  0.73  5.43 LIG-0.35  N 
ATOM     13 H    ALA P 573      35.770  72.024  90.459  0.73  5.43 LIG 0.16  HD
ATOM     14 O    GLY P 572      36.857  74.582  91.672  0.73  3.60 LIG-0.27  OA
BRANCH 12 15
ATOM     15  CA  ALA P 573      37.654  71.943  90.996  0.73  6.34 LIG 0.18  C 
ATOM     16  CB  ALA P 573      37.748  71.338  92.376  0.73  5.76 LIG 0.04  C 
BRANCH 15 17
ATOM     17  C   ALA P 573      37.788  70.852  89.937  0.73  7.45 LIG 0.20  C 
ATOM     18 OXT  ALA P 573      38.933  70.492  89.590  0.73  4.81 LIG-0.65  OA
ATOM     19 O    ALA P 573      36.736  70.357  89.474  0.73  9.82 LIG-0.65  OA
ENDBRANCH 15 17
ENDBRANCH 12 15
ENDBRANCH 1 11
TORSDOF 5
ENDMDL
MODEL 63
USER: ADFR SOLUTION from run 110
USER: SCORE 7.575072 LL:  -1.397 LR:  -6.204 RR:   0.000 FEB:  -4.713
USER: RMSD 6.385831
USER: SEED 109
USER: STATUS no improvement in best in 24 clusters for 5 generations
USER: GENES 7
USER: genes 0 Translation |==|  0.36268 0.55837 0.46098
USER: genes 1 Rotation |==|  0.44093 0.91207 0.77654 0.48472
USER: genes 2 Torsion [C]-CA--N-[C] |==|  0.75000
USER: genes 3 Torsion [N]-C--CA-[N] |==|  0.31590
USER: genes 4 Torsion [N]-CA--C-[N] |==|  0.98124
USER: genes 5 Torsion [C]-N--CA-[CB] |==|  0.43670
USER: genes 6 Torsion [N]-CA--C-[OXT] |==|  0.87367
ROOT
ATOM      1  CA  GLY P 572      30.841  73.486  89.324  0.73  6.50 LIG 0.23  C 
ENDROOT
BRANCH 1 2
ATOM      2  N   GLY P 572      32.150  73.073  89.810  0.73  9.23 LIG-0.35  N 
ATOM      3  C   PRO P 571      32.804  73.651  90.826  0.73  8.22 LIG 0.25  C 
ATOM      4 O    PRO P 571      32.360  74.574  91.512  0.73  7.23 LIG-0.27  OA
ATOM      5 H    GLY P 572      32.474  72.406  89.374  0.73  9.23 LIG 0.16  HD
BRANCH 3 6
ATOM      6  CA  PRO P 571      34.182  73.054  91.142  0.73  9.03 LIG 0.35  C 
ATOM      7  N   PRO P 571      35.308  74.003  90.868  0.73 10.09 LIG 0.32  N 
ATOM      8  CD  PRO P 571      36.112  73.867  92.100  0.73  9.16 LIG 0.32  C 
ATOM      9  CG  PRO P 571      35.662  72.579  92.801  0.73  9.15 LIG 0.04  C 
ATOM     10  CB  PRO P 571      34.251  72.601  92.599  0.73  9.69 LIG 0.05  C 
ENDBRANCH 3 6
ENDBRANCH 1 2
BRANCH 1 11
ATOM     11  C   GLY P 572      29.852  72.661  90.144  0.73  5.30 LIG 0.24  C 
ATOM     12  N   ALA P 573      30.421  71.742  90.920  0.73  5.43 LIG-0.35  N 
ATOM     13 H    ALA P 573      31.271  71.613  90.937  0.73  5.43 LIG 0.16  HD
ATOM     14 O    GLY P 572      28.630  72.803  90.042  0.73  3.60 LIG-0.27  OA
BRANCH 12 15
ATOM     15  CA  ALA P 573      29.690  70.861  91.818  0.73  6.34 LIG 0.18  C 
ATOM     16  CB  ALA P 573      30.497  69.620  92.115  0.73  5.76 LIG 0.04  C 
BRANCH 15 17
ATOM     17  C   ALA P 573      29.450  71.647  93.105  0.73  7.45 LIG 0.20  C 
ATOM     18 OXT  ALA P 573      30.398  72.294  93.598  0.73  4.81 LIG-0.65  OA
ATOM     19 O    ALA P 573      28.301  71.617  93.600  0.73  9.82 LIG-0.65  OA
ENDBRANCH 15 17
ENDBRANCH 12 15
ENDBRANCH 1 11
TORSDOF 5
ENDMDL
MODEL 64
USER: ADFR SOLUTION from run 92
USER: SCORE 7.497220 LL:  -1.446 LR:  -6.156 RR:   0.000 FEB:  -4.664
USER: RMSD 6.644871
USER: SEED 91
USER: STATUS no improvement in best in 28 clusters for 5 generations
USER: GENES 7
USER: genes 0 Translation |==|  0.34950 0.22346 0.53201
USER: genes 1 Rotation |==|  0.50618 0.95976 0.31370 0.56223
USER: genes 2 Torsion [C]-CA--N-[C] |==|  0.28889
USER: genes 3 Torsion [N]-C--CA-[N] |==|  0.78939
USER: genes 4 Torsion [N]-CA--C-[N] |==|  0.94069
USER: genes 5 Torsion [C]-N--CA-[CB] |==|  0.12531
USER: genes 6 Torsion [N]-CA--C-[OXT] |==|  0.42907
ROOT
ATOM      1  CA  GLY P 572      30.624  69.216  90.283  0.73  6.50 LIG 0.23  C 
ENDROOT
BRANCH 1 2
ATOM      2  N   GLY P 572      31.635  69.913  91.064  0.73  9.23 LIG-0.35  N 
ATOM      3  C   PRO P 571      31.927  69.649  92.345  0.73  8.22 LIG 0.25  C 
ATOM      4 O    PRO P 571      31.411  68.748  93.010  0.73  7.23 LIG-0.27  OA
ATOM      5 H    GLY P 572      32.039  70.527  90.618  0.73  9.23 LIG 0.16  HD
BRANCH 3 6
ATOM      6  CA  PRO P 571      33.017  70.533  92.964  0.73  9.03 LIG 0.35  C 
ATOM      7  N   PRO P 571      34.397  70.162  92.515  0.73 10.09 LIG 0.32  N 
ATOM      8  CD  PRO P 571      34.961  71.486  92.180  0.73  9.16 LIG 0.32  C 
ATOM      9  CG  PRO P 571      34.068  72.546  92.838  0.73  9.15 LIG 0.04  C 
ATOM     10  CB  PRO P 571      32.763  72.004  92.643  0.73  9.69 LIG 0.05  C 
ENDBRANCH 3 6
ENDBRANCH 1 2
BRANCH 1 11
ATOM     11  C   GLY P 572      29.451  70.193  90.217  0.73  5.30 LIG 0.24  C 
ATOM     12  N   ALA P 573      29.455  71.112  91.178  0.73  5.43 LIG-0.35  N 
ATOM     13 H    ALA P 573      30.054  71.136  91.795  0.73  5.43 LIG 0.16  HD
ATOM     14 O    GLY P 572      28.555  70.091  89.375  0.73  3.60 LIG-0.27  OA
BRANCH 12 15
ATOM     15  CA  ALA P 573      28.464  72.172  91.302  0.73  6.34 LIG 0.18  C 
ATOM     16  CB  ALA P 573      27.073  71.620  91.105  0.73  5.76 LIG 0.04  C 
BRANCH 15 17
ATOM     17  C   ALA P 573      28.605  72.742  92.712  0.73  7.45 LIG 0.20  C 
ATOM     18 OXT  ALA P 573      28.245  73.920  92.920  0.73  4.81 LIG-0.65  OA
ATOM     19 O    ALA P 573      29.063  71.990  93.601  0.73  9.82 LIG-0.65  OA
ENDBRANCH 15 17
ENDBRANCH 12 15
ENDBRANCH 1 11
TORSDOF 5
ENDMDL
MODEL 65
USER: ADFR SOLUTION from run 132
USER: SCORE 7.212945 LL:  -1.176 LR:  -6.154 RR:   0.000 FEB:  -4.663
USER: RMSD 6.110977
USER: SEED 131
USER: STATUS no improvement in best in 27 clusters for 5 generations
USER: GENES 7
USER: genes 0 Translation |==|  0.48245 0.61995 0.60483
USER: genes 1 Rotation |==|  0.66656 0.58170 0.95878 0.57147
USER: genes 2 Torsion [C]-CA--N-[C] |==|  0.16667
USER: genes 3 Torsion [N]-C--CA-[N] |==|  0.48398
USER: genes 4 Torsion [N]-CA--C-[N] |==|  0.11089
USER: genes 5 Torsion [C]-N--CA-[CB] |==|  0.47672
USER: genes 6 Torsion [N]-CA--C-[OXT] |==|  0.93901
ROOT
ATOM      1  CA  GLY P 572      32.817  74.271  91.266  0.73  6.50 LIG 0.23  C 
ENDROOT
BRANCH 1 2
ATOM      2  N   GLY P 572      33.174  73.579  90.037  0.73  9.23 LIG-0.35  N 
ATOM      3  C   PRO P 571      32.599  73.791  88.846  0.73  8.22 LIG 0.25  C 
ATOM      4 O    PRO P 571      31.728  74.637  88.629  0.73  7.23 LIG-0.27  OA
ATOM      5 H    GLY P 572      33.805  73.004  90.147  0.73  9.23 LIG 0.16  HD
BRANCH 3 6
ATOM      6  CA  PRO P 571      33.129  72.923  87.697  0.73  9.03 LIG 0.35  C 
ATOM      7  N   PRO P 571      32.360  73.104  86.424  0.73 10.09 LIG 0.32  N 
ATOM      8  CD  PRO P 571      33.453  73.253  85.441  0.73  9.16 LIG 0.32  C 
ATOM      9  CG  PRO P 571      34.737  72.737  86.101  0.73  9.15 LIG 0.04  C 
ATOM     10  CB  PRO P 571      34.604  73.217  87.438  0.73  9.69 LIG 0.05  C 
ENDBRANCH 3 6
ENDBRANCH 1 2
BRANCH 1 11
ATOM     11  C   GLY P 572      31.343  73.935  91.480  0.73  5.30 LIG 0.24  C 
ATOM     12  N   ALA P 573      31.025  72.676  91.190  0.73  5.43 LIG-0.35  N 
ATOM     13 H    ALA P 573      31.598  72.112  90.887  0.73  5.43 LIG 0.16  HD
ATOM     14 O    GLY P 572      30.518  74.782  91.834  0.73  3.60 LIG-0.27  OA
BRANCH 12 15
ATOM     15  CA  ALA P 573      29.693  72.111  91.349  0.73  6.34 LIG 0.18  C 
ATOM     16  CB  ALA P 573      29.629  70.730  90.742  0.73  5.76 LIG 0.04  C 
BRANCH 15 17
ATOM     17  C   ALA P 573      29.424  72.034  92.850  0.73  7.45 LIG 0.20  C 
ATOM     18 OXT  ALA P 573      30.398  72.024  93.633  0.73  4.81 LIG-0.65  OA
ATOM     19 O    ALA P 573      28.232  71.999  93.227  0.73  9.82 LIG-0.65  OA
ENDBRANCH 15 17
ENDBRANCH 12 15
ENDBRANCH 1 11
TORSDOF 5
ENDMDL
MODEL 66
USER: ADFR SOLUTION from run 53
USER: SCORE 7.507565 LL:  -1.797 LR:  -6.136 RR:   0.000 FEB:  -4.645
USER: RMSD 6.845599
USER: SEED 52
USER: STATUS no improvement in best in 20 clusters for 5 generations
USER: GENES 7
USER: genes 0 Translation |==|  0.29945 0.26038 0.52757
USER: genes 1 Rotation |==|  0.60482 0.95847 0.46303 0.66568
USER: genes 2 Torsion [C]-CA--N-[C] |==|  0.63943
USER: genes 3 Torsion [N]-C--CA-[N] |==|  0.73654
USER: genes 4 Torsion [N]-CA--C-[N] |==|  0.08856
USER: genes 5 Torsion [C]-N--CA-[CB] |==|  0.13856
USER: genes 6 Torsion [N]-CA--C-[OXT] |==|  0.49932
ROOT
ATOM      1  CA  GLY P 572      29.798  69.687  90.223  0.73  6.50 LIG 0.23  C 
ENDROOT
BRANCH 1 2
ATOM      2  N   GLY P 572      30.216  69.577  91.613  0.73  9.23 LIG-0.35  N 
ATOM      3  C   PRO P 571      31.489  69.521  92.025  0.73  8.22 LIG 0.25  C 
ATOM      4 O    PRO P 571      32.471  69.606  91.283  0.73  7.23 LIG-0.27  OA
ATOM      5 H    GLY P 572      29.553  69.551  92.161  0.73  9.23 LIG 0.16  HD
BRANCH 3 6
ATOM      6  CA  PRO P 571      31.682  69.384  93.541  0.73  9.03 LIG 0.35  C 
ATOM      7  N   PRO P 571      31.892  70.700  94.225  0.73 10.09 LIG 0.32  N 
ATOM      8  CD  PRO P 571      30.969  70.583  95.373  0.73  9.16 LIG 0.32  C 
ATOM      9  CG  PRO P 571      30.616  69.099  95.529  0.73  9.15 LIG 0.04  C 
ATOM     10  CB  PRO P 571      30.487  68.675  94.173  0.73  9.69 LIG 0.05  C 
ENDBRANCH 3 6
ENDBRANCH 1 2
BRANCH 1 11
ATOM     11  C   GLY P 572      28.805  70.847  90.214  0.73  5.30 LIG 0.24  C 
ATOM     12  N   ALA P 573      29.064  71.792  91.114  0.73  5.43 LIG-0.35  N 
ATOM     13 H    ALA P 573      29.721  71.738  91.666  0.73  5.43 LIG 0.16  HD
ATOM     14 O    GLY P 572      27.819  70.866  89.472  0.73  3.60 LIG-0.27  OA
BRANCH 12 15
ATOM     15  CA  ALA P 573      28.283  73.011  91.270  0.73  6.34 LIG 0.18  C 
ATOM     16  CB  ALA P 573      26.811  72.687  91.361  0.73  5.76 LIG 0.04  C 
BRANCH 15 17
ATOM     17  C   ALA P 573      28.753  73.670  92.565  0.73  7.45 LIG 0.20  C 
ATOM     18 OXT  ALA P 573      28.225  74.747  92.914  0.73  4.81 LIG-0.65  OA
ATOM     19 O    ALA P 573      29.641  73.087  93.226  0.73  9.82 LIG-0.65  OA
ENDBRANCH 15 17
ENDBRANCH 12 15
ENDBRANCH 1 11
TORSDOF 5
ENDMDL
MODEL 67
USER: ADFR SOLUTION from run 143
USER: SCORE 7.690603 LL:  -1.641 LR:  -6.128 RR:   0.000 FEB:  -4.636
USER: RMSD 6.717689
USER: SEED 142
USER: STATUS no improvement in best in 26 clusters for 5 generations
USER: GENES 7
USER: genes 0 Translation |==|  0.30777 0.45279 0.60058
USER: genes 1 Rotation |==|  0.54687 0.06230 0.31419 0.64730
USER: genes 2 Torsion [C]-CA--N-[C] |==|  0.81441
USER: genes 3 Torsion [N]-C--CA-[N] |==|  0.38340
USER: genes 4 Torsion [N]-CA--C-[N] |==|  0.90003
USER: genes 5 Torsion [C]-N--CA-[CB] |==|  0.40137
USER: genes 6 Torsion [N]-CA--C-[OXT] |==|  0.31429
ROOT
ATOM      1  CA  GLY P 572      29.935  72.140  91.209  0.73  6.50 LIG 0.23  C 
ENDROOT
BRANCH 1 2
ATOM      2  N   GLY P 572      31.389  72.191  91.168  0.73  9.23 LIG-0.35  N 
ATOM      3  C   PRO P 571      32.144  73.027  91.893  0.73  8.22 LIG 0.25  C 
ATOM      4 O    PRO P 571      31.707  73.825  92.725  0.73  7.23 LIG-0.27  OA
ATOM      5 H    GLY P 572      31.729  71.621  90.620  0.73  9.23 LIG 0.16  HD
BRANCH 3 6
ATOM      6  CA  PRO P 571      33.657  72.910  91.662  0.73  9.03 LIG 0.35  C 
ATOM      7  N   PRO P 571      34.342  74.241  91.590  0.73 10.09 LIG 0.32  N 
ATOM      8  CD  PRO P 571      35.504  74.020  92.476  0.73  9.16 LIG 0.32  C 
ATOM      9  CG  PRO P 571      35.660  72.505  92.658  0.73  9.15 LIG 0.04  C 
ATOM     10  CB  PRO P 571      34.305  72.071  92.761  0.73  9.69 LIG 0.05  C 
ENDBRANCH 3 6
ENDBRANCH 1 2
BRANCH 1 11
ATOM     11  C   GLY P 572      29.610  71.633  92.612  0.73  5.30 LIG 0.24  C 
ATOM     12  N   ALA P 573      30.472  70.732  93.078  0.73  5.43 LIG-0.35  N 
ATOM     13 H    ALA P 573      31.138  70.446  92.615  0.73  5.43 LIG 0.16  HD
ATOM     14 O    GLY P 572      28.602  71.992  93.227  0.73  3.60 LIG-0.27  OA
BRANCH 12 15
ATOM     15  CA  ALA P 573      30.394  70.132  94.402  0.73  6.34 LIG 0.18  C 
ATOM     16  CB  ALA P 573      30.840  68.690  94.356  0.73  5.76 LIG 0.04  C 
BRANCH 15 17
ATOM     17  C   ALA P 573      31.325  70.938  95.305  0.73  7.45 LIG 0.20  C 
ATOM     18 OXT  ALA P 573      30.825  71.617  96.226  0.73  4.81 LIG-0.65  OA
ATOM     19 O    ALA P 573      32.554  70.867  95.085  0.73  9.82 LIG-0.65  OA
ENDBRANCH 15 17
ENDBRANCH 12 15
ENDBRANCH 1 11
TORSDOF 5
ENDMDL
MODEL 68
USER: ADFR SOLUTION from run 139
USER: SCORE 7.176588 LL:  -1.199 LR:  -6.096 RR:   0.000 FEB:  -4.605
USER: RMSD 3.395362
USER: SEED 138
USER: STATUS no improvement in best in 28 clusters for 5 generations
USER: GENES 7
USER: genes 0 Translation |==|  0.47744 0.61818 0.44531
USER: genes 1 Rotation |==|  0.97756 0.55024 0.61690 0.57582
USER: genes 2 Torsion [C]-CA--N-[C] |==|  0.81534
USER: genes 3 Torsion [N]-C--CA-[N] |==|  0.44297
USER: genes 4 Torsion [N]-CA--C-[N] |==|  0.42430
USER: genes 5 Torsion [C]-N--CA-[CB] |==|  0.22492
USER: genes 6 Torsion [N]-CA--C-[OXT] |==|  0.64698
ROOT
ATOM      1  CA  GLY P 572      32.735  74.249  89.113  0.73  6.50 LIG 0.23  C 
ENDROOT
BRANCH 1 2
ATOM      2  N   GLY P 572      31.308  74.042  89.311  0.73  9.23 LIG-0.35  N 
ATOM      3  C   PRO P 571      30.754  72.900  89.740  0.73  8.22 LIG 0.25  C 
ATOM      4 O    PRO P 571      31.387  71.895  90.069  0.73  7.23 LIG-0.27  OA
ATOM      5 H    GLY P 572      30.839  74.739  89.123  0.73  9.23 LIG 0.16  HD
BRANCH 3 6
ATOM      6  CA  PRO P 571      29.223  72.915  89.850  0.73  9.03 LIG 0.35  C 
ATOM      7  N   PRO P 571      28.624  71.542  89.848  0.73 10.09 LIG 0.32  N 
ATOM      8  CD  PRO P 571      27.674  71.637  90.976  0.73  9.16 LIG 0.32  C 
ATOM      9  CG  PRO P 571      27.468  73.126  91.279  0.73  9.15 LIG 0.04  C 
ATOM     10  CB  PRO P 571      28.782  73.654  91.111  0.73  9.69 LIG 0.05  C 
ENDBRANCH 3 6
ENDBRANCH 1 2
BRANCH 1 11
ATOM     11  C   GLY P 572      33.330  74.174  90.517  0.73  5.30 LIG 0.24  C 
ATOM     12  N   ALA P 573      34.598  73.771  90.549  0.73  5.43 LIG-0.35  N 
ATOM     13 H    ALA P 573      35.032  73.551  89.840  0.73  5.43 LIG 0.16  HD
ATOM     14 O    GLY P 572      32.666  74.412  91.529  0.73  3.60 LIG-0.27  OA
BRANCH 12 15
ATOM     15  CA  ALA P 573      35.390  73.656  91.765  0.73  6.34 LIG 0.18  C 
ATOM     16  CB  ALA P 573      35.081  72.362  92.478  0.73  5.76 LIG 0.04  C 
BRANCH 15 17
ATOM     17  C   ALA P 573      36.856  73.679  91.338  0.73  7.45 LIG 0.20  C 
ATOM     18 OXT  ALA P 573      37.607  72.759  91.726  0.73  4.81 LIG-0.65  OA
ATOM     19 O    ALA P 573      37.233  74.617  90.601  0.73  9.82 LIG-0.65  OA
ENDBRANCH 15 17
ENDBRANCH 12 15
ENDBRANCH 1 11
TORSDOF 5
ENDMDL
MODEL 69
USER: ADFR SOLUTION from run 18
USER: SCORE 7.460944 LL:  -1.409 LR:  -6.083 RR:   0.000 FEB:  -4.592
USER: RMSD 6.377984
USER: SEED 17
USER: STATUS no improvement in best in 26 clusters for 5 generations
USER: GENES 7
USER: genes 0 Translation |==|  0.46520 0.26671 0.52624
USER: genes 1 Rotation |==|  0.71451 0.04858 0.49610 0.51384
USER: genes 2 Torsion [C]-CA--N-[C] |==|  0.74049
USER: genes 3 Torsion [N]-C--CA-[N] |==|  0.92955
USER: genes 4 Torsion [N]-CA--C-[N] |==|  0.02655
USER: genes 5 Torsion [C]-N--CA-[CB] |==|  0.24830
USER: genes 6 Torsion [N]-CA--C-[OXT] |==|  0.79241
ROOT
ATOM      1  CA  GLY P 572      32.533  69.768  90.205  0.73  6.50 LIG 0.23  C 
ENDROOT
BRANCH 1 2
ATOM      2  N   GLY P 572      33.276  70.771  90.953  0.73  9.23 LIG-0.35  N 
ATOM      3  C   PRO P 571      33.050  72.090  90.894  0.73  8.22 LIG 0.25  C 
ATOM      4 O    PRO P 571      32.150  72.618  90.236  0.73  7.23 LIG-0.27  OA
ATOM      5 H    GLY P 572      33.891  70.432  91.450  0.73  9.23 LIG 0.16  HD
BRANCH 3 6
ATOM      6  CA  PRO P 571      33.978  72.954  91.757  0.73  9.03 LIG 0.35  C 
ATOM      7  N   PRO P 571      34.544  72.212  92.930  0.73 10.09 LIG 0.32  N 
ATOM      8  CD  PRO P 571      35.971  72.584  92.850  0.73  9.16 LIG 0.32  C 
ATOM      9  CG  PRO P 571      36.076  73.813  91.939  0.73  9.15 LIG 0.04  C 
ATOM     10  CB  PRO P 571      35.125  73.515  90.919  0.73  9.69 LIG 0.05  C 
ENDBRANCH 3 6
ENDBRANCH 1 2
BRANCH 1 11
ATOM     11  C   GLY P 572      31.424  69.325  91.158  0.73  5.30 LIG 0.24  C 
ATOM     12  N   ALA P 573      31.316  70.075  92.252  0.73  5.43 LIG-0.35  N 
ATOM     13 H    ALA P 573      31.842  70.736  92.414  0.73  5.43 LIG 0.16  HD
ATOM     14 O    GLY P 572      30.735  68.323  90.949  0.73  3.60 LIG-0.27  OA
BRANCH 12 15
ATOM     15  CA  ALA P 573      30.312  69.874  93.287  0.73  6.34 LIG 0.18  C 
ATOM     16  CB  ALA P 573      30.822  68.919  94.339  0.73  5.76 LIG 0.04  C 
BRANCH 15 17
ATOM     17  C   ALA P 573      30.044  71.242  93.910  0.73  7.45 LIG 0.20  C 
ATOM     18 OXT  ALA P 573      30.897  71.725  94.684  0.73  4.81 LIG-0.65  OA
ATOM     19 O    ALA P 573      28.980  71.824  93.601  0.73  9.82 LIG-0.65  OA
ENDBRANCH 15 17
ENDBRANCH 12 15
ENDBRANCH 1 11
TORSDOF 5
ENDMDL
MODEL 70
USER: ADFR SOLUTION from run 81
USER: SCORE 7.498805 LL:  -1.788 LR:  -6.077 RR:   0.000 FEB:  -4.586
USER: RMSD 6.141651
USER: SEED 80
USER: STATUS no improvement in best in 22 clusters for 5 generations
USER: GENES 7
USER: genes 0 Translation |==|  0.46626 0.55669 0.37343
USER: genes 1 Rotation |==|  0.46015 0.99403 0.55853 0.53038
USER: genes 2 Torsion [C]-CA--N-[C] |==|  0.63340
USER: genes 3 Torsion [N]-C--CA-[N] |==|  0.87528
USER: genes 4 Torsion [N]-CA--C-[N] |==|  0.02362
USER: genes 5 Torsion [C]-N--CA-[CB] |==|  0.13861
USER: genes 6 Torsion [N]-CA--C-[OXT] |==|  0.52858
ROOT
ATOM      1  CA  GLY P 572      32.550  73.465  88.142  0.73  6.50 LIG 0.23  C 
ENDROOT
BRANCH 1 2
ATOM      2  N   GLY P 572      33.644  73.530  89.100  0.73  9.23 LIG-0.35  N 
ATOM      3  C   PRO P 571      34.761  74.252  88.937  0.73  8.22 LIG 0.25  C 
ATOM      4 O    PRO P 571      34.982  74.992  87.976  0.73  7.23 LIG-0.27  OA
ATOM      5 H    GLY P 572      33.505  73.050  89.801  0.73  9.23 LIG 0.16  HD
BRANCH 3 6
ATOM      6  CA  PRO P 571      35.783  74.144  90.075  0.73  9.03 LIG 0.35  C 
ATOM      7  N   PRO P 571      35.159  74.242  91.434  0.73 10.09 LIG 0.32  N 
ATOM      8  CD  PRO P 571      35.804  73.112  92.134  0.73  9.16 LIG 0.32  C 
ATOM      9  CG  PRO P 571      37.036  72.707  91.315  0.73  9.15 LIG 0.04  C 
ATOM     10  CB  PRO P 571      36.564  72.835  89.975  0.73  9.69 LIG 0.05  C 
ENDBRANCH 3 6
ENDBRANCH 1 2
BRANCH 1 11
ATOM     11  C   GLY P 572      31.294  73.687  88.982  0.73  5.30 LIG 0.24  C 
ATOM     12  N   ALA P 573      31.537  74.044  90.240  0.73  5.43 LIG-0.35  N 
ATOM     13 H    ALA P 573      32.334  74.118  90.555  0.73  5.43 LIG 0.16  HD
ATOM     14 O    GLY P 572      30.160  73.492  88.536  0.73  3.60 LIG-0.27  OA
BRANCH 12 15
ATOM     15  CA  ALA P 573      30.503  74.346  91.220  0.73  6.34 LIG 0.18  C 
ATOM     16  CB  ALA P 573      29.465  73.251  91.249  0.73  5.76 LIG 0.04  C 
BRANCH 15 17
ATOM     17  C   ALA P 573      31.199  74.443  92.576  0.73  7.45 LIG 0.20  C 
ATOM     18 OXT  ALA P 573      30.495  74.503  93.606  0.73  4.81 LIG-0.65  OA
ATOM     19 O    ALA P 573      32.450  74.443  92.590  0.73  9.82 LIG-0.65  OA
ENDBRANCH 15 17
ENDBRANCH 12 15
ENDBRANCH 1 11
TORSDOF 5
ENDMDL
MODEL 71
USER: ADFR SOLUTION from run 55
USER: SCORE 7.671434 LL:  -1.668 LR:  -6.057 RR:   0.000 FEB:  -4.565
USER: RMSD 5.487616
USER: SEED 54
USER: STATUS no improvement in best in 24 clusters for 5 generations
USER: GENES 7
USER: genes 0 Translation |==|  0.53101 0.46019 0.69419
USER: genes 1 Rotation |==|  0.67047 0.75748 0.67842 0.85044
USER: genes 2 Torsion [C]-CA--N-[C] |==|  0.27778
USER: genes 3 Torsion [N]-C--CA-[N] |==|  0.73268
USER: genes 4 Torsion [N]-CA--C-[N] |==|  0.97237
USER: genes 5 Torsion [C]-N--CA-[CB] |==|  0.22274
USER: genes 6 Torsion [N]-CA--C-[OXT] |==|  0.94306
ROOT
ATOM      1  CA  GLY P 572      33.619  72.234  92.473  0.73  6.50 LIG 0.23  C 
ENDROOT
BRANCH 1 2
ATOM      2  N   GLY P 572      32.575  71.334  92.938  0.73  9.23 LIG-0.35  N 
ATOM      3  C   PRO P 571      31.936  70.443  92.168  0.73  8.22 LIG 0.25  C 
ATOM      4 O    PRO P 571      32.186  70.238  90.978  0.73  7.23 LIG-0.27  OA
ATOM      5 H    GLY P 572      32.400  71.427  93.775  0.73  9.23 LIG 0.16  HD
BRANCH 3 6
ATOM      6  CA  PRO P 571      30.855  69.618  92.879  0.73  9.03 LIG 0.35  C 
ATOM      7  N   PRO P 571      31.350  68.282  93.344  0.73 10.09 LIG 0.32  N 
ATOM      8  CD  PRO P 571      30.830  68.242  94.726  0.73  9.16 LIG 0.32  C 
ATOM      9  CG  PRO P 571      29.740  69.315  94.838  0.73  9.15 LIG 0.04  C 
ATOM     10  CB  PRO P 571      30.290  70.386  94.072  0.73  9.69 LIG 0.05  C 
ENDBRANCH 3 6
ENDBRANCH 1 2
BRANCH 1 11
ATOM     11  C   GLY P 572      32.907  73.569  92.265  0.73  5.30 LIG 0.24  C 
ATOM     12  N   ALA P 573      31.580  73.497  92.345  0.73  5.43 LIG-0.35  N 
ATOM     13 H    ALA P 573      31.165  72.756  92.479  0.73  5.43 LIG 0.16  HD
ATOM     14 O    GLY P 572      33.516  74.606  91.988  0.73  3.60 LIG-0.27  OA
BRANCH 12 15
ATOM     15  CA  ALA P 573      30.688  74.640  92.219  0.73  6.34 LIG 0.18  C 
ATOM     16  CB  ALA P 573      30.482  74.992  90.766  0.73  5.76 LIG 0.04  C 
BRANCH 15 17
ATOM     17  C   ALA P 573      29.359  74.231  92.851  0.73  7.45 LIG 0.20  C 
ATOM     18 OXT  ALA P 573      29.106  73.015  92.979  0.73  4.81 LIG-0.65  OA
ATOM     19 O    ALA P 573      28.588  75.142  93.226  0.73  9.82 LIG-0.65  OA
ENDBRANCH 15 17
ENDBRANCH 12 15
ENDBRANCH 1 11
TORSDOF 5
ENDMDL
MODEL 72
USER: ADFR SOLUTION from run 70
USER: SCORE 7.826529 LL:  -1.818 LR:  -6.009 RR:   0.000 FEB:  -4.517
USER: RMSD 1.788777
USER: SEED 69
USER: STATUS no improvement in best in 25 clusters for 5 generations
USER: GENES 7
USER: genes 0 Translation |==|  0.64113 0.59629 0.67629
USER: genes 1 Rotation |==|  0.40073 0.53881 0.41272 0.98065
USER: genes 2 Torsion [C]-CA--N-[C] |==|  0.22848
USER: genes 3 Torsion [N]-C--CA-[N] |==|  0.20088
USER: genes 4 Torsion [N]-CA--C-[N] |==|  0.00850
USER: genes 5 Torsion [C]-N--CA-[CB] |==|  0.17555
USER: genes 6 Torsion [N]-CA--C-[OXT] |==|  0.13664
ROOT
ATOM      1  CA  GLY P 572      35.436  73.970  92.231  0.73  6.50 LIG 0.23  C 
ENDROOT
BRANCH 1 2
ATOM      2  N   GLY P 572      34.162  74.206  91.567  0.73  9.23 LIG-0.35  N 
ATOM      3  C   PRO P 571      33.363  73.246  91.084  0.73  8.22 LIG 0.25  C 
ATOM      4 O    PRO P 571      33.580  72.037  91.184  0.73  7.23 LIG-0.27  OA
ATOM      5 H    GLY P 572      33.964  75.042  91.511  0.73  9.23 LIG 0.16  HD
BRANCH 3 6
ATOM      6  CA  PRO P 571      32.080  73.742  90.404  0.73  9.03 LIG 0.35  C 
ATOM      7  N   PRO P 571      32.333  74.382  89.073  0.73 10.09 LIG 0.32  N 
ATOM      8  CD  PRO P 571      31.296  73.739  88.239  0.73  9.16 LIG 0.32  C 
ATOM      9  CG  PRO P 571      30.264  73.117  89.187  0.73  9.15 LIG 0.04  C 
ATOM     10  CB  PRO P 571      31.086  72.596  90.229  0.73  9.69 LIG 0.05  C 
ENDBRANCH 3 6
ENDBRANCH 1 2
BRANCH 1 11
ATOM     11  C   GLY P 572      36.434  73.788  91.089  0.73  5.30 LIG 0.24  C 
ATOM     12  N   ALA P 573      35.910  73.954  89.877  0.73  5.43 LIG-0.35  N 
ATOM     13 H    ALA P 573      35.076  74.125  89.753  0.73  5.43 LIG 0.16  HD
ATOM     14 O    GLY P 572      37.607  73.459  91.284  0.73  3.60 LIG-0.27  OA
BRANCH 12 15
ATOM     15  CA  ALA P 573      36.669  73.869  88.638  0.73  6.34 LIG 0.18  C 
ATOM     16  CB  ALA P 573      37.231  72.480  88.457  0.73  5.76 LIG 0.04  C 
BRANCH 15 17
ATOM     17  C   ALA P 573      35.697  74.191  87.505  0.73  7.45 LIG 0.20  C 
ATOM     18 OXT  ALA P 573      34.982  75.210  87.601  0.73  4.81 LIG-0.65  OA
ATOM     19 O    ALA P 573      35.675  73.418  86.521  0.73  9.82 LIG-0.65  OA
ENDBRANCH 15 17
ENDBRANCH 12 15
ENDBRANCH 1 11
TORSDOF 5
ENDMDL
