MODEL 1
USER: ADFR SOLUTION from run 104
USER: SCORE 13.005085 LL:  -3.001 LR: -11.766 RR:   0.000 FEB:  -7.292
USER: RMSD 8.188792
USER: SEED 103
USER: STATUS no improvement in best in 14 clusters for 5 generations
USER: GENES 17
USER: genes 0 Translation |==|  0.52380 0.52058 0.42002
USER: genes 1 Rotation |==|  0.24247 0.92438 0.55955 0.50588
USER: genes 2 Torsion [C]-CA--CB-[OG] |==|  0.22550
USER: genes 3 Torsion [CA]-CB--OG-[HG] |==|  0.98001
USER: genes 4 Torsion [N]-CA--C-[N] |==|  0.55233
USER: genes 5 Torsion [C]-N--CA-[C] |==|  0.80556
USER: genes 6 Torsion [N]-CA--C-[N] |==|  0.95036
USER: genes 7 Torsion [C]-N--CA-[C] |==|  0.77961
USER: genes 8 Torsion [N]-CA--C-[O] |==|  0.34452
USER: genes 9 Torsion [N]-CA--CB-[CG] |==|  0.59444
USER: genes 10 Torsion [CA]-CB--CG-[CD2] |==|  0.83978
USER: genes 11 Torsion [CB]-CA--N-[C] |==|  0.40191
USER: genes 12 Torsion [N]-C--CA-[N] |==|  0.35723
USER: genes 13 Torsion [C]-CA--CB-[CG] |==|  0.11512
USER: genes 14 Torsion [CA]-CB--CG-[CD2] |==|  0.19373
USER: genes 15 Torsion [C]-CA--N-[C] |==|  0.78428
USER: genes 16 Torsion [N]-C--CA-[N] |==|  0.10801
ROOT
ATOM      1  CA  SER E  44      27.007  -7.122  17.509  1.00 44.79 LIG 0.20  C 
ENDROOT
BRANCH 1 2
ATOM      2  CB  SER E  44      27.506  -8.564  17.595  1.00 46.10 LIG 0.20  C 
BRANCH 2 3
ATOM      3 OG   SER E  44      26.841  -9.369  16.644  1.00 47.85 LIG-0.40  OA
ATOM      4 HG   SER E  44      26.229  -8.925  16.279  1.00 47.85 LIG 0.21  HD
ENDBRANCH 2 3
ENDBRANCH 1 2
BRANCH 1 5
ATOM      5  C   SER E  44      25.704  -6.985  18.264  1.00 42.78 LIG 0.24  C 
ATOM      6  N   PHE E  45      24.881  -8.017  18.154  1.00 43.36 LIG-0.35  N 
ATOM      7 H    PHE E  45      25.047  -8.717  17.683  1.00 43.36 LIG 0.16  HD
ATOM      8 O    SER E  44      25.434  -5.968  18.905  1.00 37.54 LIG-0.27  OA
BRANCH 6 9
ATOM      9  CA  PHE E  45      23.601  -8.042  18.842  1.00 46.68 LIG 0.18  C 
BRANCH 9 10
ATOM     10  C   PHE E  45      23.862  -8.189  20.334  1.00 48.11 LIG 0.24  C 
ATOM     11 O    PHE E  45      22.985  -7.914  21.155  1.00 49.85 LIG-0.27  OA
ATOM     12  N   GLY E  46      25.063  -8.623  20.694  1.00 50.71 LIG-0.35  N 
ATOM     13 H    GLY E  46      25.701  -8.823  20.152  1.00 50.71 LIG 0.16  HD
BRANCH 12 14
ATOM     14  CA  GLY E  46      25.363  -8.790  22.102  1.00 54.23 LIG 0.21  C 
BRANCH 14 15
ATOM     15  C   GLY E  46      25.698  -7.483  22.785  1.00 55.55 LIG 0.21  C 
ATOM     16 O    GLY E  46      25.022  -7.166  23.783  1.00 59.11 LIG-0.29  OA
ENDBRANCH 14 15
ENDBRANCH 12 14
ENDBRANCH 9 10
BRANCH 9 17
ATOM     17  CB  PHE E  45      22.739  -9.204  18.338  1.00 43.03 LIG 0.07  C 
BRANCH 17 18
ATOM     18  CG  PHE E  45      21.263  -8.901  18.315  1.00 41.93 LIG-0.06  A 
ATOM     19  CD2 PHE E  45      20.594  -8.517  19.477  1.00 42.38 LIG 0.01  A 
ATOM     20  CE2 PHE E  45      19.231  -8.208  19.449  1.00 42.73 LIG 0.00  A 
ATOM     21  CZ  PHE E  45      18.526  -8.283  18.252  1.00 42.74 LIG 0.00  A 
ATOM     22  CE1 PHE E  45      19.183  -8.664  17.085  1.00 41.89 LIG 0.00  A 
ATOM     23  CD1 PHE E  45      20.546  -8.970  17.123  1.00 42.01 LIG 0.01  A 
ENDBRANCH 17 18
ENDBRANCH 9 17
ENDBRANCH 6 9
ENDBRANCH 1 5
BRANCH 1 24
ATOM     24  N   SER E  44      28.026  -6.213  17.990  1.00 46.50 LIG-0.34  N 
ATOM     25  C   PHE E  43      28.138  -5.041  17.404  1.00 47.40 LIG 0.24  C 
ATOM     26 O    PHE E  43      27.432  -4.722  16.451  1.00 45.80 LIG-0.27  OA
ATOM     27 H    SER E  44      28.508  -6.496  18.643  1.00 46.50 LIG 0.16  HD
BRANCH 25 28
ATOM     28  CA  PHE E  43      29.215  -4.114  17.922  1.00 47.87 LIG 0.18  C 
BRANCH 28 29
ATOM     29  CB  PHE E  43      28.551  -2.881  18.529  1.00 42.32 LIG 0.07  C 
BRANCH 29 30
ATOM     30  CG  PHE E  43      27.312  -3.153  19.362  1.00 35.12 LIG-0.06  A 
ATOM     31  CD2 PHE E  43      27.353  -3.793  20.607  1.00 32.72 LIG 0.01  A 
ATOM     32  CE2 PHE E  43      26.148  -4.051  21.318  1.00 30.40 LIG 0.00  A 
ATOM     33  CZ  PHE E  43      24.917  -3.660  20.775  1.00 28.92 LIG 0.00  A 
ATOM     34  CE1 PHE E  43      24.888  -3.026  19.538  1.00 29.46 LIG 0.00  A 
ATOM     35  CD1 PHE E  43      26.079  -2.782  18.849  1.00 34.02 LIG 0.01  A 
ENDBRANCH 29 30
ENDBRANCH 28 29
BRANCH 28 36
ATOM     36  N   PHE E  43      29.839  -3.815  16.666  1.00 51.92 LIG-0.35  N 
ATOM     37  C   GLY E  42      30.669  -4.587  15.989  1.00 55.92 LIG 0.25  C 
ATOM     38 O    GLY E  42      31.065  -5.709  16.332  1.00 57.26 LIG-0.27  OA
ATOM     39 H    PHE E  43      29.611  -3.039  16.372  1.00 51.92 LIG 0.16  HD
BRANCH 37 40
ATOM     40  CA  GLY E  42      31.093  -3.931  14.699  1.00 58.33 LIG 0.47  C 
ATOM     41  N   GLY E  42      31.324  -2.516  14.787  1.00 60.94 LIG 0.61  N 
ENDBRANCH 37 40
ENDBRANCH 28 36
ENDBRANCH 25 28
ENDBRANCH 1 24
TORSDOF 15
ENDMDL
MODEL 2
USER: ADFR SOLUTION from run 83
USER: SCORE 12.951901 LL:  -2.542 LR: -11.695 RR:   0.000 FEB:  -7.221
USER: RMSD 8.569046
USER: SEED 82
USER: STATUS no improvement in best in 14 clusters for 5 generations
USER: GENES 17
USER: genes 0 Translation |==|  0.46624 0.34853 0.38902
USER: genes 1 Rotation |==|  0.16628 0.86320 0.42181 0.52454
USER: genes 2 Torsion [C]-CA--CB-[OG] |==|  0.53273
USER: genes 3 Torsion [CA]-CB--OG-[HG] |==|  0.13268
USER: genes 4 Torsion [N]-CA--C-[N] |==|  0.18618
USER: genes 5 Torsion [C]-N--CA-[C] |==|  0.70045
USER: genes 6 Torsion [N]-CA--C-[N] |==|  0.02713
USER: genes 7 Torsion [C]-N--CA-[C] |==|  0.17517
USER: genes 8 Torsion [N]-CA--C-[O] |==|  0.10826
USER: genes 9 Torsion [N]-CA--CB-[CG] |==|  0.62993
USER: genes 10 Torsion [CA]-CB--CG-[CD2] |==|  0.70877
USER: genes 11 Torsion [CB]-CA--N-[C] |==|  0.82097
USER: genes 12 Torsion [N]-C--CA-[N] |==|  0.02916
USER: genes 13 Torsion [C]-CA--CB-[CG] |==|  0.51503
USER: genes 14 Torsion [CA]-CB--CG-[CD2] |==|  0.73486
USER: genes 15 Torsion [C]-CA--N-[C] |==|  0.60242
USER: genes 16 Torsion [N]-C--CA-[N] |==|  0.46475
ROOT
ATOM      1  CA  SER E  44      25.669 -10.606  17.114  1.00 44.79 LIG 0.20  C 
ENDROOT
BRANCH 1 2
ATOM      2  CB  SER E  44      26.449 -11.593  17.981  1.00 46.10 LIG 0.20  C 
BRANCH 2 3
ATOM      3 OG   SER E  44      27.816 -11.241  18.016  1.00 47.85 LIG-0.40  OA
ATOM      4 HG   SER E  44      27.890 -10.420  18.176  1.00 47.85 LIG 0.21  HD
ENDBRANCH 2 3
ENDBRANCH 1 2
BRANCH 1 5
ATOM      5  C   SER E  44      24.184 -10.811  17.312  1.00 42.78 LIG 0.24  C 
ATOM      6  N   PHE E  45      23.409 -10.158  16.459  1.00 43.36 LIG-0.35  N 
ATOM      7 H    PHE E  45      23.705  -9.639  15.840  1.00 43.36 LIG 0.16  HD
ATOM      8 O    SER E  44      23.745 -11.514  18.224  1.00 37.54 LIG-0.27  OA
BRANCH 6 9
ATOM      9  CA  PHE E  45      21.961 -10.275  16.508  1.00 46.68 LIG 0.18  C 
BRANCH 9 10
ATOM     10  C   PHE E  45      21.507 -11.102  15.313  1.00 48.11 LIG 0.24  C 
ATOM     11 O    PHE E  45      20.311 -11.191  15.030  1.00 49.85 LIG-0.27  OA
ATOM     12  N   GLY E  46      22.453 -11.707  14.607  1.00 50.71 LIG-0.35  N 
ATOM     13 H    GLY E  46      23.296 -11.671  14.774  1.00 50.71 LIG 0.16  HD
BRANCH 12 14
ATOM     14  CA  GLY E  46      22.077 -12.501  13.454  1.00 54.23 LIG 0.21  C 
BRANCH 14 15
ATOM     15  C   GLY E  46      21.419 -11.678  12.369  1.00 55.55 LIG 0.21  C 
ATOM     16 O    GLY E  46      21.876 -10.539  12.154  1.00 59.11 LIG-0.29  OA
ENDBRANCH 14 15
ENDBRANCH 12 14
ENDBRANCH 9 10
BRANCH 9 17
ATOM     17  CB  PHE E  45      21.306  -8.890  16.474  1.00 43.03 LIG 0.07  C 
BRANCH 17 18
ATOM     18  CG  PHE E  45      20.224  -8.705  17.506  1.00 41.93 LIG-0.06  A 
ATOM     19  CD2 PHE E  45      18.878  -8.721  17.143  1.00 42.38 LIG 0.01  A 
ATOM     20  CE2 PHE E  45      17.874  -8.578  18.105  1.00 42.73 LIG 0.00  A 
ATOM     21  CZ  PHE E  45      18.215  -8.415  19.444  1.00 42.74 LIG 0.00  A 
ATOM     22  CE1 PHE E  45      19.555  -8.399  19.820  1.00 41.89 LIG 0.00  A 
ATOM     23  CD1 PHE E  45      20.550  -8.543  18.851  1.00 42.01 LIG 0.01  A 
ENDBRANCH 17 18
ENDBRANCH 9 17
ENDBRANCH 6 9
ENDBRANCH 1 5
BRANCH 1 24
ATOM     24  N   SER E  44      26.086  -9.250  17.404  1.00 46.50 LIG-0.34  N 
ATOM     25  C   PHE E  43      25.852  -8.774  18.607  1.00 47.40 LIG 0.24  C 
ATOM     26 O    PHE E  43      25.266  -9.432  19.463  1.00 45.80 LIG-0.27  OA
ATOM     27 H    SER E  44      26.469  -8.827  16.762  1.00 46.50 LIG 0.16  HD
BRANCH 25 28
ATOM     28  CA  PHE E  43      26.292  -7.353  18.881  1.00 47.87 LIG 0.18  C 
BRANCH 28 29
ATOM     29  CB  PHE E  43      25.102  -6.566  19.422  1.00 42.32 LIG 0.07  C 
BRANCH 29 30
ATOM     30  CG  PHE E  43      25.344  -5.082  19.628  1.00 35.12 LIG-0.06  A 
ATOM     31  CD2 PHE E  43      25.718  -4.532  20.860  1.00 32.72 LIG 0.01  A 
ATOM     32  CE2 PHE E  43      25.892  -3.126  20.993  1.00 30.40 LIG 0.00  A 
ATOM     33  CZ  PHE E  43      25.693  -2.289  19.887  1.00 28.92 LIG 0.00  A 
ATOM     34  CE1 PHE E  43      25.320  -2.845  18.669  1.00 29.46 LIG 0.00  A 
ATOM     35  CD1 PHE E  43      25.150  -4.227  18.554  1.00 34.02 LIG 0.01  A 
ENDBRANCH 29 30
ENDBRANCH 28 29
BRANCH 28 36
ATOM     36  N   PHE E  43      26.604  -6.980  17.532  1.00 51.92 LIG-0.35  N 
ATOM     37  C   GLY E  42      27.594  -6.204  17.131  1.00 55.92 LIG 0.25  C 
ATOM     38 O    GLY E  42      28.425  -5.648  17.862  1.00 57.26 LIG-0.27  OA
ATOM     39 H    PHE E  43      26.055  -7.329  16.968  1.00 51.92 LIG 0.16  HD
BRANCH 37 40
ATOM     40  CA  GLY E  42      27.607  -6.068  15.629  1.00 58.33 LIG 0.47  C 
ATOM     41  N   GLY E  42      28.458  -5.028  15.124  1.00 60.94 LIG 0.61  N 
ENDBRANCH 37 40
ENDBRANCH 28 36
ENDBRANCH 25 28
ENDBRANCH 1 24
TORSDOF 15
ENDMDL
MODEL 3
USER: ADFR SOLUTION from run 22
USER: SCORE 13.746666 LL:  -2.855 LR: -11.462 RR:   0.000 FEB:  -6.988
USER: RMSD 8.361427
USER: SEED 21
USER: STATUS no improvement in best in 1 clusters for 5 generations
USER: GENES 17
USER: genes 0 Translation |==|  0.45303 0.47925 0.55966
USER: genes 1 Rotation |==|  0.74195 0.32605 0.88981 0.59620
USER: genes 2 Torsion [C]-CA--CB-[OG] |==|  0.81758
USER: genes 3 Torsion [CA]-CB--OG-[HG] |==|  0.17563
USER: genes 4 Torsion [N]-CA--C-[N] |==|  0.10000
USER: genes 5 Torsion [C]-N--CA-[C] |==|  0.55022
USER: genes 6 Torsion [N]-CA--C-[N] |==|  0.48748
USER: genes 7 Torsion [C]-N--CA-[C] |==|  0.66106
USER: genes 8 Torsion [N]-CA--C-[O] |==|  0.26303
USER: genes 9 Torsion [N]-CA--CB-[CG] |==|  0.65596
USER: genes 10 Torsion [CA]-CB--CG-[CD2] |==|  0.65497
USER: genes 11 Torsion [CB]-CA--N-[C] |==|  0.16557
USER: genes 12 Torsion [N]-C--CA-[N] |==|  0.88153
USER: genes 13 Torsion [C]-CA--CB-[CG] |==|  0.08489
USER: genes 14 Torsion [CA]-CB--CG-[CD2] |==|  0.13910
USER: genes 15 Torsion [C]-CA--N-[C] |==|  0.72820
USER: genes 16 Torsion [N]-C--CA-[N] |==|  0.72717
ROOT
ATOM      1  CA  SER E  44      25.362  -7.959  19.290  1.00 44.79 LIG 0.20  C 
ENDROOT
BRANCH 1 2
ATOM      2  CB  SER E  44      25.298  -6.950  20.435  1.00 46.10 LIG 0.20  C 
BRANCH 2 3
ATOM      3 OG   SER E  44      24.576  -5.803  20.038  1.00 47.85 LIG-0.40  OA
ATOM      4 HG   SER E  44      23.782  -6.017  19.865  1.00 47.85 LIG 0.21  HD
ENDBRANCH 2 3
ENDBRANCH 1 2
BRANCH 1 5
ATOM      5  C   SER E  44      23.975  -8.479  18.986  1.00 42.78 LIG 0.24  C 
ATOM      6  N   PHE E  45      23.824  -9.003  17.779  1.00 43.36 LIG-0.35  N 
ATOM      7 H    PHE E  45      24.450  -9.042  17.189  1.00 43.36 LIG 0.16  HD
ATOM      8 O    SER E  44      23.057  -8.386  19.803  1.00 37.54 LIG-0.27  OA
BRANCH 6 9
ATOM      9  CA  PHE E  45      22.555  -9.566  17.350  1.00 46.68 LIG 0.18  C 
BRANCH 9 10
ATOM     10  C   PHE E  45      22.811 -10.463  16.147  1.00 48.11 LIG 0.24  C 
ATOM     11 O    PHE E  45      23.937 -10.546  15.654  1.00 49.85 LIG-0.27  OA
ATOM     12  N   GLY E  46      21.774 -11.140  15.672  1.00 50.71 LIG-0.35  N 
ATOM     13 H    GLY E  46      20.974 -11.108  15.986  1.00 50.71 LIG 0.16  HD
BRANCH 12 14
ATOM     14  CA  GLY E  46      21.962 -12.017  14.533  1.00 54.23 LIG 0.21  C 
BRANCH 14 15
ATOM     15  C   GLY E  46      21.072 -11.656  13.366  1.00 55.55 LIG 0.21  C 
ATOM     16 O    GLY E  46      21.549 -10.915  12.486  1.00 59.11 LIG-0.29  OA
ENDBRANCH 14 15
ENDBRANCH 12 14
ENDBRANCH 9 10
BRANCH 9 17
ATOM     17  CB  PHE E  45      21.567  -8.454  16.981  1.00 43.03 LIG 0.07  C 
BRANCH 17 18
ATOM     18  CG  PHE E  45      20.269  -8.516  17.743  1.00 41.93 LIG-0.06  A 
ATOM     19  CD2 PHE E  45      19.048  -8.577  17.073  1.00 42.38 LIG 0.01  A 
ATOM     20  CE2 PHE E  45      17.845  -8.664  17.781  1.00 42.73 LIG 0.00  A 
ATOM     21  CZ  PHE E  45      17.860  -8.689  19.172  1.00 42.74 LIG 0.00  A 
ATOM     22  CE1 PHE E  45      19.072  -8.631  19.853  1.00 41.89 LIG 0.00  A 
ATOM     23  CD1 PHE E  45      20.269  -8.544  19.136  1.00 42.01 LIG 0.01  A 
ENDBRANCH 17 18
ENDBRANCH 9 17
ENDBRANCH 6 9
ENDBRANCH 1 5
BRANCH 1 24
ATOM     24  N   SER E  44      25.996  -7.361  18.134  1.00 46.50 LIG-0.34  N 
ATOM     25  C   PHE E  43      27.227  -6.918  18.262  1.00 47.40 LIG 0.24  C 
ATOM     26 O    PHE E  43      27.826  -6.968  19.333  1.00 45.80 LIG-0.27  OA
ATOM     27 H    SER E  44      25.523  -7.330  17.417  1.00 46.50 LIG 0.16  HD
BRANCH 25 28
ATOM     28  CA  PHE E  43      27.863  -6.291  17.041  1.00 47.87 LIG 0.18  C 
BRANCH 28 29
ATOM     29  CB  PHE E  43      27.240  -4.917  16.813  1.00 42.32 LIG 0.07  C 
BRANCH 29 30
ATOM     30  CG  PHE E  43      26.777  -4.197  18.066  1.00 35.12 LIG-0.06  A 
ATOM     31  CD2 PHE E  43      27.586  -4.035  19.198  1.00 32.72 LIG 0.01  A 
ATOM     32  CE2 PHE E  43      27.075  -3.382  20.354  1.00 30.40 LIG 0.00  A 
ATOM     33  CZ  PHE E  43      25.761  -2.896  20.360  1.00 28.92 LIG 0.00  A 
ATOM     34  CE1 PHE E  43      24.967  -3.063  19.232  1.00 29.46 LIG 0.00  A 
ATOM     35  CD1 PHE E  43      25.480  -3.709  18.104  1.00 34.02 LIG 0.01  A 
ENDBRANCH 29 30
ENDBRANCH 28 29
BRANCH 28 36
ATOM     36  N   PHE E  43      27.409  -7.246  16.072  1.00 51.92 LIG-0.35  N 
ATOM     37  C   GLY E  42      28.088  -8.270  15.588  1.00 55.92 LIG 0.25  C 
ATOM     38 O    GLY E  42      29.251  -8.579  15.883  1.00 57.26 LIG-0.27  OA
ATOM     39 H    PHE E  43      26.604  -7.084  15.815  1.00 51.92 LIG 0.16  HD
BRANCH 37 40
ATOM     40  CA  GLY E  42      27.259  -9.058  14.604  1.00 58.33 LIG 0.47  C 
ATOM     41  N   GLY E  42      26.634 -10.232  15.145  1.00 60.94 LIG 0.61  N 
ENDBRANCH 37 40
ENDBRANCH 28 36
ENDBRANCH 25 28
ENDBRANCH 1 24
TORSDOF 15
ENDMDL
MODEL 4
USER: ADFR SOLUTION from run 88
USER: SCORE 13.074238 LL:  -2.157 LR: -11.425 RR:   0.000 FEB:  -6.951
USER: RMSD 9.530724
USER: SEED 87
USER: STATUS no improvement in best in 6 clusters for 5 generations
USER: GENES 17
USER: genes 0 Translation |==|  0.43188 0.34224 0.40644
USER: genes 1 Rotation |==|  0.17450 0.87761 0.46327 0.51083
USER: genes 2 Torsion [C]-CA--CB-[OG] |==|  0.52955
USER: genes 3 Torsion [CA]-CB--OG-[HG] |==|  0.08640
USER: genes 4 Torsion [N]-CA--C-[N] |==|  0.37219
USER: genes 5 Torsion [C]-N--CA-[C] |==|  0.59935
USER: genes 6 Torsion [N]-CA--C-[N] |==|  0.38617
USER: genes 7 Torsion [C]-N--CA-[C] |==|  0.58316
USER: genes 8 Torsion [N]-CA--C-[O] |==|  0.26323
USER: genes 9 Torsion [N]-CA--CB-[CG] |==|  0.69818
USER: genes 10 Torsion [CA]-CB--CG-[CD2] |==|  0.05650
USER: genes 11 Torsion [CB]-CA--N-[C] |==|  0.84721
USER: genes 12 Torsion [N]-C--CA-[N] |==|  0.98033
USER: genes 13 Torsion [C]-CA--CB-[CG] |==|  0.54485
USER: genes 14 Torsion [CA]-CB--CG-[CD2] |==|  0.76502
USER: genes 15 Torsion [C]-CA--N-[C] |==|  0.66041
USER: genes 16 Torsion [N]-C--CA-[N] |==|  0.37116
ROOT
ATOM      1  CA  SER E  44      24.870 -10.734  17.336  1.00 44.79 LIG 0.20  C 
ENDROOT
BRANCH 1 2
ATOM      2  CB  SER E  44      25.696 -11.843  17.985  1.00 46.10 LIG 0.20  C 
BRANCH 2 3
ATOM      3 OG   SER E  44      27.076 -11.586  17.821  1.00 47.85 LIG-0.40  OA
ATOM      4 HG   SER E  44      27.206 -10.756  17.805  1.00 47.85 LIG 0.21  HD
ENDBRANCH 2 3
ENDBRANCH 1 2
BRANCH 1 5
ATOM      5  C   SER E  44      23.419 -10.874  17.736  1.00 42.78 LIG 0.24  C 
ATOM      6  N   PHE E  45      22.629 -11.395  16.809  1.00 43.36 LIG-0.35  N 
ATOM      7 H    PHE E  45      22.896 -11.629  16.025  1.00 43.36 LIG 0.16  HD
ATOM      8 O    SER E  44      23.013 -10.499  18.838  1.00 37.54 LIG-0.27  OA
BRANCH 6 9
ATOM      9  CA  PHE E  45      21.214 -11.615  17.054  1.00 46.68 LIG 0.18  C 
BRANCH 9 10
ATOM     10  C   PHE E  45      20.797 -12.894  16.342  1.00 48.11 LIG 0.24  C 
ATOM     11 O    PHE E  45      21.220 -13.150  15.213  1.00 49.85 LIG-0.27  OA
ATOM     12  N   GLY E  46      19.971 -13.702  16.993  1.00 50.71 LIG-0.35  N 
ATOM     13 H    GLY E  46      19.653 -13.558  17.779  1.00 50.71 LIG 0.16  HD
BRANCH 12 14
ATOM     14  CA  GLY E  46      19.548 -14.938  16.365  1.00 54.23 LIG 0.21  C 
BRANCH 14 15
ATOM     15  C   GLY E  46      18.169 -15.373  16.804  1.00 55.55 LIG 0.21  C 
ATOM     16 O    GLY E  46      17.205 -15.039  16.089  1.00 59.11 LIG-0.29  OA
ENDBRANCH 14 15
ENDBRANCH 12 14
ENDBRANCH 9 10
BRANCH 9 17
ATOM     17  CB  PHE E  45      20.386 -10.430  16.545  1.00 43.03 LIG 0.07  C 
BRANCH 17 18
ATOM     18  CG  PHE E  45      19.801  -9.580  17.644  1.00 41.93 LIG-0.06  A 
ATOM     19  CD2 PHE E  45      20.335  -9.609  18.932  1.00 42.38 LIG 0.01  A 
ATOM     20  CE2 PHE E  45      19.810  -8.799  19.943  1.00 42.73 LIG 0.00  A 
ATOM     21  CZ  PHE E  45      18.740  -7.953  19.668  1.00 42.74 LIG 0.00  A 
ATOM     22  CE1 PHE E  45      18.199  -7.914  18.386  1.00 41.89 LIG 0.00  A 
ATOM     23  CD1 PHE E  45      18.731  -8.727  17.382  1.00 42.01 LIG 0.01  A 
ENDBRANCH 17 18
ENDBRANCH 9 17
ENDBRANCH 6 9
ENDBRANCH 1 5
BRANCH 1 24
ATOM     24  N   SER E  44      25.418  -9.438  17.680  1.00 46.50 LIG-0.34  N 
ATOM     25  C   PHE E  43      25.568  -9.147  18.954  1.00 47.40 LIG 0.24  C 
ATOM     26 O    PHE E  43      25.228  -9.925  19.841  1.00 45.80 LIG-0.27  OA
ATOM     27 H    SER E  44      25.616  -8.925  17.020  1.00 46.50 LIG 0.16  HD
BRANCH 25 28
ATOM     28  CA  PHE E  43      26.136  -7.785  19.285  1.00 47.87 LIG 0.18  C 
BRANCH 28 29
ATOM     29  CB  PHE E  43      25.029  -6.924  19.884  1.00 42.32 LIG 0.07  C 
BRANCH 29 30
ATOM     30  CG  PHE E  43      25.312  -5.433  19.919  1.00 35.12 LIG-0.06  A 
ATOM     31  CD2 PHE E  43      26.035  -4.816  20.948  1.00 32.72 LIG 0.01  A 
ATOM     32  CE2 PHE E  43      26.232  -3.407  20.938  1.00 30.40 LIG 0.00  A 
ATOM     33  CZ  PHE E  43      25.705  -2.634  19.895  1.00 28.92 LIG 0.00  A 
ATOM     34  CE1 PHE E  43      24.989  -3.256  18.880  1.00 29.46 LIG 0.00  A 
ATOM     35  CD1 PHE E  43      24.800  -4.641  18.903  1.00 34.02 LIG 0.01  A 
ENDBRANCH 29 30
ENDBRANCH 28 29
BRANCH 28 36
ATOM     36  N   PHE E  43      26.460  -7.377  17.949  1.00 51.92 LIG-0.35  N 
ATOM     37  C   GLY E  42      27.647  -7.021  17.493  1.00 55.92 LIG 0.25  C 
ATOM     38 O    GLY E  42      28.694  -6.966  18.153  1.00 57.26 LIG-0.27  OA
ATOM     39 H    PHE E  43      25.770  -7.385  17.435  1.00 51.92 LIG 0.16  HD
BRANCH 37 40
ATOM     40  CA  GLY E  42      27.588  -6.682  16.025  1.00 58.33 LIG 0.47  C 
ATOM     41  N   GLY E  42      28.258  -5.465  15.658  1.00 60.94 LIG 0.61  N 
ENDBRANCH 37 40
ENDBRANCH 28 36
ENDBRANCH 25 28
ENDBRANCH 1 24
TORSDOF 15
ENDMDL
MODEL 5
USER: ADFR SOLUTION from run 71
USER: SCORE 11.939861 LL:  -2.516 LR: -11.409 RR:   0.000 FEB:  -6.934
USER: RMSD 2.151766
USER: SEED 70
USER: STATUS no improvement in best in 10 clusters for 5 generations
USER: GENES 17
USER: genes 0 Translation |==|  0.49788 0.46976 0.49439
USER: genes 1 Rotation |==|  0.55104 0.53998 0.51075 0.99566
USER: genes 2 Torsion [C]-CA--CB-[OG] |==|  0.72163
USER: genes 3 Torsion [CA]-CB--OG-[HG] |==|  0.05794
USER: genes 4 Torsion [N]-CA--C-[N] |==|  0.57468
USER: genes 5 Torsion [C]-N--CA-[C] |==|  0.56929
USER: genes 6 Torsion [N]-CA--C-[N] |==|  0.43520
USER: genes 7 Torsion [C]-N--CA-[C] |==|  0.34608
USER: genes 8 Torsion [N]-CA--C-[O] |==|  0.00614
USER: genes 9 Torsion [N]-CA--CB-[CG] |==|  0.79696
USER: genes 10 Torsion [CA]-CB--CG-[CD2] |==|  0.32690
USER: genes 11 Torsion [CB]-CA--N-[C] |==|  0.31644
USER: genes 12 Torsion [N]-C--CA-[N] |==|  0.42414
USER: genes 13 Torsion [C]-CA--CB-[CG] |==|  0.46857
USER: genes 14 Torsion [CA]-CB--CG-[CD2] |==|  0.83842
USER: genes 15 Torsion [C]-CA--N-[C] |==|  0.60556
USER: genes 16 Torsion [N]-C--CA-[N] |==|  0.38233
ROOT
ATOM      1  CA  SER E  44      26.405  -8.151  18.457  1.00 44.79 LIG 0.20  C 
ENDROOT
BRANCH 1 2
ATOM      2  CB  SER E  44      27.357  -9.038  17.656  1.00 46.10 LIG 0.20  C 
BRANCH 2 3
ATOM      3 OG   SER E  44      26.692  -9.583  16.535  1.00 47.85 LIG-0.40  OA
ATOM      4 HG   SER E  44      26.017  -9.116  16.355  1.00 47.85 LIG 0.21  HD
ENDBRANCH 2 3
ENDBRANCH 1 2
BRANCH 1 5
ATOM      5  C   SER E  44      26.655  -6.698  18.125  1.00 42.78 LIG 0.24  C 
ATOM      6  N   PHE E  45      27.901  -6.407  17.783  1.00 43.36 LIG-0.35  N 
ATOM      7 H    PHE E  45      28.541  -6.982  17.759  1.00 43.36 LIG 0.16  HD
ATOM      8 O    SER E  44      25.760  -5.855  18.200  1.00 37.54 LIG-0.27  OA
BRANCH 6 9
ATOM      9  CA  PHE E  45      28.291  -5.057  17.412  1.00 46.68 LIG 0.18  C 
BRANCH 9 10
ATOM     10  C   PHE E  45      29.518  -5.141  16.516  1.00 48.11 LIG 0.24  C 
ATOM     11 O    PHE E  45      30.256  -6.127  16.554  1.00 49.85 LIG-0.27  OA
ATOM     12  N   GLY E  46      29.741  -4.115  15.706  1.00 50.71 LIG-0.35  N 
ATOM     13 H    GLY E  46      29.251  -3.410  15.652  1.00 50.71 LIG 0.16  HD
BRANCH 12 14
ATOM     14  CA  GLY E  46      30.891  -4.146  14.824  1.00 54.23 LIG 0.21  C 
BRANCH 14 15
ATOM     15  C   GLY E  46      30.518  -3.950  13.372  1.00 55.55 LIG 0.21  C 
ATOM     16 O    GLY E  46      29.317  -3.748  13.109  1.00 59.11 LIG-0.29  OA
ENDBRANCH 14 15
ENDBRANCH 12 14
ENDBRANCH 9 10
BRANCH 9 17
ATOM     17  CB  PHE E  45      28.601  -4.222  18.660  1.00 43.03 LIG 0.07  C 
BRANCH 17 18
ATOM     18  CG  PHE E  45      27.378  -3.827  19.447  1.00 41.93 LIG-0.06  A 
ATOM     19  CD2 PHE E  45      27.201  -4.260  20.760  1.00 42.38 LIG 0.01  A 
ATOM     20  CE2 PHE E  45      26.081  -3.869  21.499  1.00 42.73 LIG 0.00  A 
ATOM     21  CZ  PHE E  45      25.125  -3.039  20.922  1.00 42.74 LIG 0.00  A 
ATOM     22  CE1 PHE E  45      25.290  -2.599  19.612  1.00 41.89 LIG 0.00  A 
ATOM     23  CD1 PHE E  45      26.414  -2.995  18.882  1.00 42.01 LIG 0.01  A 
ENDBRANCH 17 18
ENDBRANCH 9 17
ENDBRANCH 6 9
ENDBRANCH 1 5
BRANCH 1 24
ATOM     24  N   SER E  44      25.033  -8.548  18.217  1.00 46.50 LIG-0.34  N 
ATOM     25  C   PHE E  43      24.351  -9.058  19.219  1.00 47.40 LIG 0.24  C 
ATOM     26 O    PHE E  43      24.855  -9.234  20.324  1.00 45.80 LIG-0.27  OA
ATOM     27 H    SER E  44      24.739  -8.424  17.419  1.00 46.50 LIG 0.16  HD
BRANCH 25 28
ATOM     28  CA  PHE E  43      22.922  -9.469  18.938  1.00 47.87 LIG 0.18  C 
BRANCH 28 29
ATOM     29  CB  PHE E  43      22.003  -8.289  19.238  1.00 42.32 LIG 0.07  C 
BRANCH 29 30
ATOM     30  CG  PHE E  43      20.571  -8.442  18.758  1.00 35.12 LIG-0.06  A 
ATOM     31  CD2 PHE E  43      20.234  -8.663  17.416  1.00 32.72 LIG 0.01  A 
ATOM     32  CE2 PHE E  43      18.869  -8.759  17.029  1.00 30.40 LIG 0.00  A 
ATOM     33  CZ  PHE E  43      17.857  -8.638  17.992  1.00 28.92 LIG 0.00  A 
ATOM     34  CE1 PHE E  43      18.203  -8.418  19.320  1.00 29.46 LIG 0.00  A 
ATOM     35  CD1 PHE E  43      19.549  -8.322  19.686  1.00 34.02 LIG 0.01  A 
ENDBRANCH 29 30
ENDBRANCH 28 29
BRANCH 28 36
ATOM     36  N   PHE E  43      22.813 -10.494  19.935  1.00 51.92 LIG-0.35  N 
ATOM     37  C   GLY E  42      22.180 -11.647  19.823  1.00 55.92 LIG 0.25  C 
ATOM     38 O    GLY E  42      21.554 -12.041  18.829  1.00 57.26 LIG-0.27  OA
ATOM     39 H    PHE E  43      23.222 -10.279  20.661  1.00 51.92 LIG 0.16  HD
BRANCH 37 40
ATOM     40  CA  GLY E  42      22.312 -12.466  21.082  1.00 58.33 LIG 0.47  C 
ATOM     41  N   GLY E  42      21.107 -13.123  21.504  1.00 60.94 LIG 0.61  N 
ENDBRANCH 37 40
ENDBRANCH 28 36
ENDBRANCH 25 28
ENDBRANCH 1 24
TORSDOF 15
ENDMDL
MODEL 6
USER: ADFR SOLUTION from run 69
USER: SCORE 12.873712 LL:  -2.329 LR: -11.294 RR:   0.000 FEB:  -6.820
USER: RMSD 9.028428
USER: SEED 68
USER: STATUS no improvement in best in 17 clusters for 5 generations
USER: GENES 17
USER: genes 0 Translation |==|  0.47233 0.46063 0.54080
USER: genes 1 Rotation |==|  0.82265 0.31148 0.82865 0.54845
USER: genes 2 Torsion [C]-CA--CB-[OG] |==|  0.77895
USER: genes 3 Torsion [CA]-CB--OG-[HG] |==|  0.16693
USER: genes 4 Torsion [N]-CA--C-[N] |==|  0.07026
USER: genes 5 Torsion [C]-N--CA-[C] |==|  0.66581
USER: genes 6 Torsion [N]-CA--C-[N] |==|  0.86694
USER: genes 7 Torsion [C]-N--CA-[C] |==|  0.25668
USER: genes 8 Torsion [N]-CA--C-[O] |==|  0.95890
USER: genes 9 Torsion [N]-CA--CB-[CG] |==|  0.67099
USER: genes 10 Torsion [CA]-CB--CG-[CD2] |==|  0.62786
USER: genes 11 Torsion [CB]-CA--N-[C] |==|  0.15755
USER: genes 12 Torsion [N]-C--CA-[N] |==|  0.32222
USER: genes 13 Torsion [C]-CA--CB-[CG] |==|  0.44268
USER: genes 14 Torsion [CA]-CB--CG-[CD2] |==|  0.35701
USER: genes 15 Torsion [C]-CA--N-[C] |==|  0.78211
USER: genes 16 Torsion [N]-C--CA-[N] |==|  0.28834
ROOT
ATOM      1  CA  SER E  44      25.811  -8.336  19.049  1.00 44.79 LIG 0.20  C 
ENDROOT
BRANCH 1 2
ATOM      2  CB  SER E  44      25.966  -7.687  20.423  1.00 46.10 LIG 0.20  C 
BRANCH 2 3
ATOM      3 OG   SER E  44      25.237  -6.479  20.480  1.00 47.85 LIG-0.40  OA
ATOM      4 HG   SER E  44      24.423  -6.636  20.343  1.00 47.85 LIG 0.21  HD
ENDBRANCH 2 3
ENDBRANCH 1 2
BRANCH 1 5
ATOM      5  C   SER E  44      24.485  -9.059  18.971  1.00 42.78 LIG 0.24  C 
ATOM      6  N   PHE E  45      23.933  -9.089  17.767  1.00 43.36 LIG-0.35  N 
ATOM      7 H    PHE E  45      24.276  -8.719  17.070  1.00 43.36 LIG 0.16  HD
ATOM      8 O    SER E  44      23.958  -9.552  19.969  1.00 37.54 LIG-0.27  OA
BRANCH 6 9
ATOM      9  CA  PHE E  45      22.670  -9.768  17.529  1.00 46.68 LIG 0.18  C 
BRANCH 9 10
ATOM     10  C   PHE E  45      22.900 -10.857  16.490  1.00 48.11 LIG 0.24  C 
ATOM     11 O    PHE E  45      22.473 -11.998  16.673  1.00 49.85 LIG-0.27  OA
ATOM     12  N   GLY E  46      23.570 -10.513  15.398  1.00 50.71 LIG-0.35  N 
ATOM     13 H    GLY E  46      23.886  -9.729  15.236  1.00 50.71 LIG 0.16  HD
BRANCH 12 14
ATOM     14  CA  GLY E  46      23.811 -11.508  14.372  1.00 54.23 LIG 0.21  C 
BRANCH 14 15
ATOM     15  C   GLY E  46      22.740 -11.516  13.305  1.00 55.55 LIG 0.21  C 
ATOM     16 O    GLY E  46      21.677 -10.915  13.553  1.00 59.11 LIG-0.29  OA
ENDBRANCH 14 15
ENDBRANCH 12 14
ENDBRANCH 9 10
BRANCH 9 17
ATOM     17  CB  PHE E  45      21.609  -8.779  17.034  1.00 43.03 LIG 0.07  C 
BRANCH 17 18
ATOM     18  CG  PHE E  45      20.417  -8.657  17.948  1.00 41.93 LIG-0.06  A 
ATOM     19  CD2 PHE E  45      19.120  -8.679  17.439  1.00 42.38 LIG 0.01  A 
ATOM     20  CE2 PHE E  45      18.014  -8.596  18.290  1.00 42.73 LIG 0.00  A 
ATOM     21  CZ  PHE E  45      18.204  -8.488  19.665  1.00 42.74 LIG 0.00  A 
ATOM     22  CE1 PHE E  45      19.495  -8.467  20.186  1.00 41.89 LIG 0.00  A 
ATOM     23  CD1 PHE E  45      20.593  -8.551  19.326  1.00 42.01 LIG 0.01  A 
ENDBRANCH 17 18
ENDBRANCH 9 17
ENDBRANCH 6 9
ENDBRANCH 1 5
BRANCH 1 24
ATOM     24  N   SER E  44      25.963  -7.342  18.008  1.00 46.50 LIG-0.34  N 
ATOM     25  C   PHE E  43      27.076  -6.641  17.978  1.00 47.40 LIG 0.24  C 
ATOM     26 O    PHE E  43      27.957  -6.787  18.821  1.00 45.80 LIG-0.27  OA
ATOM     27 H    SER E  44      25.306  -7.265  17.460  1.00 46.50 LIG 0.16  HD
BRANCH 25 28
ATOM     28  CA  PHE E  43      27.206  -5.605  16.884  1.00 47.87 LIG 0.18  C 
BRANCH 28 29
ATOM     29  CB  PHE E  43      28.524  -5.829  16.149  1.00 42.32 LIG 0.07  C 
BRANCH 29 30
ATOM     30  CG  PHE E  43      28.602  -5.229  14.757  1.00 35.12 LIG-0.06  A 
ATOM     31  CD2 PHE E  43      29.653  -4.402  14.339  1.00 32.72 LIG 0.01  A 
ATOM     32  CE2 PHE E  43      29.645  -3.842  13.031  1.00 30.40 LIG 0.00  A 
ATOM     33  CZ  PHE E  43      28.585  -4.121  12.157  1.00 28.92 LIG 0.00  A 
ATOM     34  CE1 PHE E  43      27.548  -4.942  12.583  1.00 29.46 LIG 0.00  A 
ATOM     35  CD1 PHE E  43      27.567  -5.483  13.871  1.00 34.02 LIG 0.01  A 
ENDBRANCH 29 30
ENDBRANCH 28 29
BRANCH 28 36
ATOM     36  N   PHE E  43      27.257  -4.441  17.721  1.00 51.92 LIG-0.35  N 
ATOM     37  C   GLY E  42      26.239  -3.840  18.308  1.00 55.92 LIG 0.25  C 
ATOM     38 O    GLY E  42      25.049  -4.175  18.227  1.00 57.26 LIG-0.27  OA
ATOM     39 H    PHE E  43      28.061  -4.149  17.814  1.00 51.92 LIG 0.16  HD
BRANCH 37 40
ATOM     40  CA  GLY E  42      26.700  -2.660  19.126  1.00 58.33 LIG 0.47  C 
ATOM     41  N   GLY E  42      26.454  -1.378  18.529  1.00 60.94 LIG 0.61  N 
ENDBRANCH 37 40
ENDBRANCH 28 36
ENDBRANCH 25 28
ENDBRANCH 1 24
TORSDOF 15
ENDMDL
MODEL 7
USER: ADFR SOLUTION from run 69
USER: SCORE 12.790354 LL:  -2.924 LR: -11.094 RR:   0.000 FEB:  -6.619
USER: RMSD 8.525609
USER: SEED 68
USER: STATUS no improvement in best in 17 clusters for 5 generations
USER: GENES 17
USER: genes 0 Translation |==|  0.52608 0.52577 0.41742
USER: genes 1 Rotation |==|  0.78422 0.15908 0.27090 0.52256
USER: genes 2 Torsion [C]-CA--CB-[OG] |==|  0.10999
USER: genes 3 Torsion [CA]-CB--OG-[HG] |==|  0.08036
USER: genes 4 Torsion [N]-CA--C-[N] |==|  0.41259
USER: genes 5 Torsion [C]-N--CA-[C] |==|  0.66708
USER: genes 6 Torsion [N]-CA--C-[N] |==|  0.98333
USER: genes 7 Torsion [C]-N--CA-[C] |==|  0.30067
USER: genes 8 Torsion [N]-CA--C-[O] |==|  0.76516
USER: genes 9 Torsion [N]-CA--CB-[CG] |==|  0.28573
USER: genes 10 Torsion [CA]-CB--CG-[CD2] |==|  0.33535
USER: genes 11 Torsion [CB]-CA--N-[C] |==|  0.23082
USER: genes 12 Torsion [N]-C--CA-[N] |==|  0.41145
USER: genes 13 Torsion [C]-CA--CB-[CG] |==|  0.06790
USER: genes 14 Torsion [CA]-CB--CG-[CD2] |==|  0.74718
USER: genes 15 Torsion [C]-CA--N-[C] |==|  0.77901
USER: genes 16 Torsion [N]-C--CA-[N] |==|  0.12419
ROOT
ATOM      1  CA  SER E  44      27.060  -7.017  17.476  1.00 44.79 LIG 0.20  C 
ENDROOT
BRANCH 1 2
ATOM      2  CB  SER E  44      27.741  -8.026  16.553  1.00 46.10 LIG 0.20  C 
BRANCH 2 3
ATOM      3 OG   SER E  44      26.877  -9.114  16.294  1.00 47.85 LIG-0.40  OA
ATOM      4 HG   SER E  44      26.079  -8.855  16.337  1.00 47.85 LIG 0.21  HD
ENDBRANCH 2 3
ENDBRANCH 1 2
BRANCH 1 5
ATOM      5  C   SER E  44      26.270  -7.747  18.539  1.00 42.78 LIG 0.24  C 
ATOM      6  N   PHE E  45      25.023  -8.043  18.205  1.00 43.36 LIG-0.35  N 
ATOM      7 H    PHE E  45      24.663  -7.834  17.452  1.00 43.36 LIG 0.16  HD
ATOM      8 O    SER E  44      26.757  -8.011  19.639  1.00 37.54 LIG-0.27  OA
BRANCH 6 9
ATOM      9  CA  PHE E  45      24.146  -8.765  19.113  1.00 46.68 LIG 0.18  C 
BRANCH 9 10
ATOM     10  C   PHE E  45      23.718 -10.059  18.437  1.00 48.11 LIG 0.24  C 
ATOM     11 O    PHE E  45      23.055 -10.898  19.050  1.00 49.85 LIG-0.27  OA
ATOM     12  N   GLY E  46      24.089 -10.229  17.174  1.00 50.71 LIG-0.35  N 
ATOM     13 H    GLY E  46      24.552  -9.669  16.715  1.00 50.71 LIG 0.16  HD
BRANCH 12 14
ATOM     14  CA  GLY E  46      23.700 -11.440  16.479  1.00 54.23 LIG 0.21  C 
BRANCH 14 15
ATOM     15  C   GLY E  46      22.635 -11.196  15.434  1.00 55.55 LIG 0.21  C 
ATOM     16 O    GLY E  46      21.449 -11.184  15.814  1.00 59.11 LIG-0.29  OA
ENDBRANCH 14 15
ENDBRANCH 12 14
ENDBRANCH 9 10
BRANCH 9 17
ATOM     17  CB  PHE E  45      22.918  -7.919  19.465  1.00 43.03 LIG 0.07  C 
BRANCH 17 18
ATOM     18  CG  PHE E  45      21.667  -8.330  18.733  1.00 41.93 LIG-0.06  A 
ATOM     19  CD2 PHE E  45      20.530  -8.735  19.431  1.00 42.38 LIG 0.01  A 
ATOM     20  CE2 PHE E  45      19.360  -9.089  18.753  1.00 42.73 LIG 0.00  A 
ATOM     21  CZ  PHE E  45      19.323  -9.040  17.363  1.00 42.74 LIG 0.00  A 
ATOM     22  CE1 PHE E  45      20.451  -8.636  16.654  1.00 41.89 LIG 0.00  A 
ATOM     23  CD1 PHE E  45      21.615  -8.284  17.342  1.00 42.01 LIG 0.01  A 
ENDBRANCH 17 18
ENDBRANCH 9 17
ENDBRANCH 6 9
ENDBRANCH 1 5
BRANCH 1 24
ATOM     24  N   SER E  44      28.043  -6.114  18.037  1.00 46.50 LIG-0.34  N 
ATOM     25  C   PHE E  43      28.415  -5.078  17.317  1.00 47.40 LIG 0.24  C 
ATOM     26 O    PHE E  43      27.981  -4.886  16.185  1.00 45.80 LIG-0.27  OA
ATOM     27 H    SER E  44      28.331  -6.309  18.823  1.00 46.50 LIG 0.16  HD
BRANCH 25 28
ATOM     28  CA  PHE E  43      29.447  -4.155  17.925  1.00 47.87 LIG 0.18  C 
BRANCH 28 29
ATOM     29  CB  PHE E  43      28.728  -2.986  18.593  1.00 42.32 LIG 0.07  C 
BRANCH 29 30
ATOM     30  CG  PHE E  43      27.298  -3.260  19.018  1.00 35.12 LIG-0.06  A 
ATOM     31  CD2 PHE E  43      26.193  -3.015  18.192  1.00 32.72 LIG 0.01  A 
ATOM     32  CE2 PHE E  43      24.875  -3.260  18.668  1.00 30.40 LIG 0.00  A 
ATOM     33  CZ  PHE E  43      24.680  -3.752  19.966  1.00 28.92 LIG 0.00  A 
ATOM     34  CE1 PHE E  43      25.783  -3.990  20.778  1.00 29.46 LIG 0.00  A 
ATOM     35  CD1 PHE E  43      27.072  -3.743  20.298  1.00 34.02 LIG 0.01  A 
ENDBRANCH 29 30
ENDBRANCH 28 29
BRANCH 28 36
ATOM     36  N   PHE E  43      30.094  -3.754  16.709  1.00 51.92 LIG-0.35  N 
ATOM     37  C   GLY E  42      30.992  -4.439  16.025  1.00 55.92 LIG 0.25  C 
ATOM     38 O    GLY E  42      31.444  -5.552  16.326  1.00 57.26 LIG-0.27  OA
ATOM     39 H    PHE E  43      29.829  -2.979  16.446  1.00 51.92 LIG 0.16  HD
BRANCH 37 40
ATOM     40  CA  GLY E  42      31.418  -3.692  14.786  1.00 58.33 LIG 0.47  C 
ATOM     41  N   GLY E  42      31.686  -2.295  14.984  1.00 60.94 LIG 0.61  N 
ENDBRANCH 37 40
ENDBRANCH 28 36
ENDBRANCH 25 28
ENDBRANCH 1 24
TORSDOF 15
ENDMDL
MODEL 8
USER: ADFR SOLUTION from run 187
USER: SCORE 12.818857 LL:  -2.916 LR: -11.045 RR:   0.000 FEB:  -6.571
USER: RMSD 4.536659
USER: SEED 186
USER: STATUS no improvement in best in 8 clusters for 5 generations
USER: GENES 17
USER: genes 0 Translation |==|  0.49532 0.38235 0.43579
USER: genes 1 Rotation |==|  0.69089 0.51684 0.40900 0.95277
USER: genes 2 Torsion [C]-CA--CB-[OG] |==|  0.71358
USER: genes 3 Torsion [CA]-CB--OG-[HG] |==|  0.09130
USER: genes 4 Torsion [N]-CA--C-[N] |==|  0.95581
USER: genes 5 Torsion [C]-N--CA-[C] |==|  0.57557
USER: genes 6 Torsion [N]-CA--C-[N] |==|  0.52668
USER: genes 7 Torsion [C]-N--CA-[C] |==|  0.23237
USER: genes 8 Torsion [N]-CA--C-[O] |==|  0.59336
USER: genes 9 Torsion [N]-CA--CB-[CG] |==|  0.10802
USER: genes 10 Torsion [CA]-CB--CG-[CD2] |==|  0.76259
USER: genes 11 Torsion [CB]-CA--N-[C] |==|  0.23271
USER: genes 12 Torsion [N]-C--CA-[N] |==|  0.44150
USER: genes 13 Torsion [C]-CA--CB-[CG] |==|  0.51823
USER: genes 14 Torsion [CA]-CB--CG-[CD2] |==|  0.43774
USER: genes 15 Torsion [C]-CA--N-[C] |==|  0.63519
USER: genes 16 Torsion [N]-C--CA-[N] |==|  0.54859
ROOT
ATOM      1  CA  SER E  44      26.345  -9.921  17.710  1.00 44.79 LIG 0.20  C 
ENDROOT
BRANCH 1 2
ATOM      2  CB  SER E  44      26.945 -10.596  16.478  1.00 46.10 LIG 0.20  C 
BRANCH 2 3
ATOM      3 OG   SER E  44      26.242 -10.207  15.316  1.00 47.85 LIG-0.40  OA
ATOM      4 HG   SER E  44      25.969  -9.417  15.404  1.00 47.85 LIG 0.21  HD
ENDBRANCH 2 3
ENDBRANCH 1 2
BRANCH 1 5
ATOM      5  C   SER E  44      27.226  -8.772  18.146  1.00 42.78 LIG 0.24  C 
ATOM      6  N   PHE E  45      26.738  -7.566  17.898  1.00 43.36 LIG-0.35  N 
ATOM      7 H    PHE E  45      25.985  -7.422  17.506  1.00 43.36 LIG 0.16  HD
ATOM      8 O    SER E  44      28.327  -8.963  18.665  1.00 37.54 LIG-0.27  OA
BRANCH 6 9
ATOM      9  CA  PHE E  45      27.458  -6.363  18.280  1.00 46.68 LIG 0.18  C 
BRANCH 9 10
ATOM     10  C   PHE E  45      26.445  -5.249  18.503  1.00 48.11 LIG 0.24  C 
ATOM     11 O    PHE E  45      25.238  -5.494  18.529  1.00 49.85 LIG-0.27  OA
ATOM     12  N   GLY E  46      26.927  -4.024  18.668  1.00 50.71 LIG-0.35  N 
ATOM     13 H    GLY E  46      27.761  -3.813  18.654  1.00 50.71 LIG 0.16  HD
BRANCH 12 14
ATOM     14  CA  GLY E  46      26.008  -2.925  18.892  1.00 54.23 LIG 0.21  C 
BRANCH 14 15
ATOM     15  C   GLY E  46      25.597  -2.796  20.342  1.00 55.55 LIG 0.21  C 
ATOM     16 O    GLY E  46      24.440  -2.400  20.578  1.00 59.11 LIG-0.29  OA
ENDBRANCH 14 15
ENDBRANCH 12 14
ENDBRANCH 9 10
BRANCH 9 17
ATOM     17  CB  PHE E  45      28.457  -5.962  17.190  1.00 43.03 LIG 0.07  C 
BRANCH 17 18
ATOM     18  CG  PHE E  45      27.939  -6.161  15.788  1.00 41.93 LIG-0.06  A 
ATOM     19  CD2 PHE E  45      28.052  -7.396  15.152  1.00 42.38 LIG 0.01  A 
ATOM     20  CE2 PHE E  45      27.546  -7.588  13.864  1.00 42.73 LIG 0.00  A 
ATOM     21  CZ  PHE E  45      26.922  -6.536  13.200  1.00 42.74 LIG 0.00  A 
ATOM     22  CE1 PHE E  45      26.802  -5.298  13.825  1.00 41.89 LIG 0.00  A 
ATOM     23  CD1 PHE E  45      27.310  -5.117  15.113  1.00 42.01 LIG 0.01  A 
ENDBRANCH 17 18
ENDBRANCH 9 17
ENDBRANCH 6 9
ENDBRANCH 1 5
BRANCH 1 24
ATOM     24  N   SER E  44      24.985  -9.507  17.440  1.00 46.50 LIG-0.34  N 
ATOM     25  C   PHE E  43      24.026 -10.396  17.578  1.00 47.40 LIG 0.24  C 
ATOM     26 O    PHE E  43      24.262 -11.560  17.892  1.00 45.80 LIG-0.27  OA
ATOM     27 H    SER E  44      24.880  -8.688  17.200  1.00 46.50 LIG 0.16  HD
BRANCH 25 28
ATOM     28  CA  PHE E  43      22.616  -9.938  17.282  1.00 47.87 LIG 0.18  C 
BRANCH 28 29
ATOM     29  CB  PHE E  43      22.039  -9.283  18.534  1.00 42.32 LIG 0.07  C 
BRANCH 29 30
ATOM     30  CG  PHE E  43      20.572  -8.905  18.452  1.00 35.12 LIG-0.06  A 
ATOM     31  CD2 PHE E  43      19.763  -8.730  19.583  1.00 32.72 LIG 0.01  A 
ATOM     32  CE2 PHE E  43      18.384  -8.413  19.434  1.00 30.40 LIG 0.00  A 
ATOM     33  CZ  PHE E  43      17.833  -8.271  18.154  1.00 28.92 LIG 0.00  A 
ATOM     34  CE1 PHE E  43      18.644  -8.448  17.039  1.00 29.46 LIG 0.00  A 
ATOM     35  CD1 PHE E  43      19.996  -8.762  17.199  1.00 34.02 LIG 0.01  A 
ENDBRANCH 29 30
ENDBRANCH 28 29
BRANCH 28 36
ATOM     36  N   PHE E  43      22.035 -11.228  17.044  1.00 51.92 LIG-0.35  N 
ATOM     37  C   GLY E  42      21.278 -11.581  16.022  1.00 55.92 LIG 0.25  C 
ATOM     38 O    GLY E  42      20.925 -10.847  15.089  1.00 57.26 LIG-0.27  OA
ATOM     39 H    PHE E  43      22.236 -11.788  17.665  1.00 51.92 LIG 0.16  HD
BRANCH 37 40
ATOM     40  CA  GLY E  42      20.880 -13.033  16.115  1.00 58.33 LIG 0.47  C 
ATOM     41  N   GLY E  42      20.403 -13.608  14.889  1.00 60.94 LIG 0.61  N 
ENDBRANCH 37 40
ENDBRANCH 28 36
ENDBRANCH 25 28
ENDBRANCH 1 24
TORSDOF 15
ENDMDL
MODEL 9
USER: ADFR SOLUTION from run 68
USER: SCORE 13.278331 LL:  -3.349 LR: -10.964 RR:   0.000 FEB:  -6.490
USER: RMSD 8.762353
USER: SEED 67
USER: STATUS no improvement in best in 6 clusters for 5 generations
USER: GENES 17
USER: genes 0 Translation |==|  0.44448 0.39883 0.48331
USER: genes 1 Rotation |==|  0.69441 0.38187 0.91300 0.66637
USER: genes 2 Torsion [C]-CA--CB-[OG] |==|  0.69697
USER: genes 3 Torsion [CA]-CB--OG-[HG] |==|  0.10062
USER: genes 4 Torsion [N]-CA--C-[N] |==|  0.96413
USER: genes 5 Torsion [C]-N--CA-[C] |==|  0.61234
USER: genes 6 Torsion [N]-CA--C-[N] |==|  0.48811
USER: genes 7 Torsion [C]-N--CA-[C] |==|  0.77292
USER: genes 8 Torsion [N]-CA--C-[O] |==|  0.16140
USER: genes 9 Torsion [N]-CA--CB-[CG] |==|  0.70487
USER: genes 10 Torsion [CA]-CB--CG-[CD2] |==|  0.15675
USER: genes 11 Torsion [CB]-CA--N-[C] |==|  0.22222
USER: genes 12 Torsion [N]-C--CA-[N] |==|  0.99711
USER: genes 13 Torsion [C]-CA--CB-[CG] |==|  0.72841
USER: genes 14 Torsion [CA]-CB--CG-[CD2] |==|  0.27991
USER: genes 15 Torsion [C]-CA--N-[C] |==|  0.65148
USER: genes 16 Torsion [N]-C--CA-[N] |==|  0.54266
ROOT
ATOM      1  CA  SER E  44      25.163  -9.588  18.316  1.00 44.79 LIG 0.20  C 
ENDROOT
BRANCH 1 2
ATOM      2  CB  SER E  44      25.242  -8.226  19.003  1.00 46.10 LIG 0.20  C 
BRANCH 2 3
ATOM      3 OG   SER E  44      25.707  -7.246  18.097  1.00 47.85 LIG-0.40  OA
ATOM      4 HG   SER E  44      25.401  -7.405  17.331  1.00 47.85 LIG 0.21  HD
ENDBRANCH 2 3
ENDBRANCH 1 2
BRANCH 1 5
ATOM      5  C   SER E  44      23.716  -9.976  18.112  1.00 42.78 LIG 0.24  C 
ATOM      6  N   PHE E  45      23.305  -9.967  16.853  1.00 43.36 LIG-0.35  N 
ATOM      7 H    PHE E  45      23.802  -9.746  16.186  1.00 43.36 LIG 0.16  HD
ATOM      8 O    SER E  44      22.980 -10.248  19.062  1.00 37.54 LIG-0.27  OA
BRANCH 6 9
ATOM      9  CA  PHE E  45      21.947 -10.340  16.496  1.00 46.68 LIG 0.18  C 
BRANCH 9 10
ATOM     10  C   PHE E  45      21.998 -11.174  15.224  1.00 48.11 LIG 0.24  C 
ATOM     11 O    PHE E  45      23.065 -11.360  14.638  1.00 49.85 LIG-0.27  OA
ATOM     12  N   GLY E  46      20.850 -11.681  14.792  1.00 50.71 LIG-0.35  N 
ATOM     13 H    GLY E  46      20.086 -11.572  15.171  1.00 50.71 LIG 0.16  HD
BRANCH 12 14
ATOM     14  CA  GLY E  46      20.842 -12.491  13.590  1.00 54.23 LIG 0.21  C 
BRANCH 14 15
ATOM     15  C   GLY E  46      20.822 -11.659  12.327  1.00 55.55 LIG 0.21  C 
ATOM     16 O    GLY E  46      21.753 -10.849  12.158  1.00 59.11 LIG-0.29  OA
ENDBRANCH 14 15
ENDBRANCH 12 14
ENDBRANCH 9 10
BRANCH 9 17
ATOM     17  CB  PHE E  45      21.083  -9.093  16.278  1.00 43.03 LIG 0.07  C 
BRANCH 17 18
ATOM     18  CG  PHE E  45      20.103  -8.830  17.392  1.00 41.93 LIG-0.06  A 
ATOM     19  CD2 PHE E  45      20.537  -8.688  18.710  1.00 42.38 LIG 0.01  A 
ATOM     20  CE2 PHE E  45      19.631  -8.416  19.738  1.00 42.73 LIG 0.00  A 
ATOM     21  CZ  PHE E  45      18.276  -8.285  19.451  1.00 42.74 LIG 0.00  A 
ATOM     22  CE1 PHE E  45      17.829  -8.423  18.140  1.00 41.89 LIG 0.00  A 
ATOM     23  CD1 PHE E  45      18.743  -8.695  17.119  1.00 42.01 LIG 0.01  A 
ENDBRANCH 17 18
ENDBRANCH 9 17
ENDBRANCH 6 9
ENDBRANCH 1 5
BRANCH 1 24
ATOM     24  N   SER E  44      25.912  -9.566  17.077  1.00 46.50 LIG-0.34  N 
ATOM     25  C   PHE E  43      27.219  -9.701  17.140  1.00 47.40 LIG 0.24  C 
ATOM     26 O    PHE E  43      27.809  -9.808  18.212  1.00 45.80 LIG-0.27  OA
ATOM     27 H    SER E  44      25.451  -9.464  16.359  1.00 46.50 LIG 0.16  HD
BRANCH 25 28
ATOM     28  CA  PHE E  43      27.976  -9.667  15.832  1.00 47.87 LIG 0.18  C 
BRANCH 28 29
ATOM     29  CB  PHE E  43      28.879  -8.437  15.818  1.00 42.32 LIG 0.07  C 
BRANCH 29 30
ATOM     30  CG  PHE E  43      28.324  -7.232  15.082  1.00 35.12 LIG-0.06  A 
ATOM     31  CD2 PHE E  43      27.736  -6.141  15.736  1.00 32.72 LIG 0.01  A 
ATOM     32  CE2 PHE E  43      27.200  -5.059  14.982  1.00 30.40 LIG 0.00  A 
ATOM     33  CZ  PHE E  43      27.265  -5.082  13.583  1.00 28.92 LIG 0.00  A 
ATOM     34  CE1 PHE E  43      27.850  -6.170  12.944  1.00 29.46 LIG 0.00  A 
ATOM     35  CD1 PHE E  43      28.369  -7.227  13.697  1.00 34.02 LIG 0.01  A 
ENDBRANCH 29 30
ENDBRANCH 28 29
BRANCH 28 36
ATOM     36  N   PHE E  43      26.851  -9.509  14.957  1.00 51.92 LIG-0.35  N 
ATOM     37  C   GLY E  42      26.533 -10.270  13.926  1.00 55.92 LIG 0.25  C 
ATOM     38 O    GLY E  42      27.167 -11.257  13.527  1.00 57.26 LIG-0.27  OA
ATOM     39 H    PHE E  43      26.369  -8.830  15.175  1.00 51.92 LIG 0.16  HD
BRANCH 37 40
ATOM     40  CA  GLY E  42      25.263  -9.794  13.267  1.00 58.33 LIG 0.47  C 
ATOM     41  N   GLY E  42      24.655 -10.738  12.373  1.00 60.94 LIG 0.61  N 
ENDBRANCH 37 40
ENDBRANCH 28 36
ENDBRANCH 25 28
ENDBRANCH 1 24
TORSDOF 15
ENDMDL
MODEL 10
USER: ADFR SOLUTION from run 53
USER: SCORE 12.477776 LL:  -3.253 LR: -10.939 RR:   0.000 FEB:  -6.465
USER: RMSD 4.988910
USER: SEED 52
USER: STATUS no improvement in best in 10 clusters for 5 generations
USER: GENES 17
USER: genes 0 Translation |==|  0.49421 0.48125 0.55526
USER: genes 1 Rotation |==|  0.82641 0.54720 0.62293 0.85514
USER: genes 2 Torsion [C]-CA--CB-[OG] |==|  0.72681
USER: genes 3 Torsion [CA]-CB--OG-[HG] |==|  0.81611
USER: genes 4 Torsion [N]-CA--C-[N] |==|  0.55000
USER: genes 5 Torsion [C]-N--CA-[C] |==|  0.15066
USER: genes 6 Torsion [N]-CA--C-[N] |==|  0.12045
USER: genes 7 Torsion [C]-N--CA-[C] |==|  0.37771
USER: genes 8 Torsion [N]-CA--C-[O] |==|  0.81944
USER: genes 9 Torsion [N]-CA--CB-[CG] |==|  0.91931
USER: genes 10 Torsion [CA]-CB--CG-[CD2] |==|  0.81231
USER: genes 11 Torsion [CB]-CA--N-[C] |==|  0.46751
USER: genes 12 Torsion [N]-C--CA-[N] |==|  0.51383
USER: genes 13 Torsion [C]-CA--CB-[CG] |==|  0.58478
USER: genes 14 Torsion [CA]-CB--CG-[CD2] |==|  0.76686
USER: genes 15 Torsion [C]-CA--N-[C] |==|  0.57407
USER: genes 16 Torsion [N]-C--CA-[N] |==|  0.69811
ROOT
ATOM      1  CA  SER E  44      26.319  -7.919  19.234  1.00 44.79 LIG 0.20  C 
ENDROOT
BRANCH 1 2
ATOM      2  CB  SER E  44      27.227  -7.080  18.335  1.00 46.10 LIG 0.20  C 
BRANCH 2 3
ATOM      3 OG   SER E  44      26.455  -6.356  17.399  1.00 47.85 LIG-0.40  OA
ATOM      4 HG   SER E  44      26.084  -6.890  16.869  1.00 47.85 LIG 0.21  HD
ENDBRANCH 2 3
ENDBRANCH 1 2
BRANCH 1 5
ATOM      5  C   SER E  44      26.086  -7.199  20.543  1.00 42.78 LIG 0.24  C 
ATOM      6  N   PHE E  45      27.143  -6.566  21.031  1.00 43.36 LIG-0.35  N 
ATOM      7 H    PHE E  45      27.917  -6.562  20.656  1.00 43.36 LIG 0.16  HD
ATOM      8 O    SER E  44      24.995  -7.235  21.114  1.00 37.54 LIG-0.27  OA
BRANCH 6 9
ATOM      9  CA  PHE E  45      27.068  -5.809  22.269  1.00 46.68 LIG 0.18  C 
BRANCH 9 10
ATOM     10  C   PHE E  45      26.523  -6.724  23.357  1.00 48.11 LIG 0.24  C 
ATOM     11 O    PHE E  45      25.668  -6.320  24.147  1.00 49.85 LIG-0.27  OA
ATOM     12  N   GLY E  46      27.010  -7.957  23.404  1.00 50.71 LIG-0.35  N 
ATOM     13 H    GLY E  46      27.608  -8.275  22.873  1.00 50.71 LIG 0.16  HD
BRANCH 12 14
ATOM     14  CA  GLY E  46      26.521  -8.874  24.415  1.00 54.23 LIG 0.21  C 
BRANCH 14 15
ATOM     15  C   GLY E  46      26.240 -10.254  23.864  1.00 55.55 LIG 0.21  C 
ATOM     16 O    GLY E  46      25.327 -10.362  23.023  1.00 59.11 LIG-0.29  OA
ENDBRANCH 14 15
ENDBRANCH 12 14
ENDBRANCH 9 10
BRANCH 9 17
ATOM     17  CB  PHE E  45      26.160  -4.586  22.101  1.00 43.03 LIG 0.07  C 
BRANCH 17 18
ATOM     18  CG  PHE E  45      26.124  -4.044  20.695  1.00 41.93 LIG-0.06  A 
ATOM     19  CD2 PHE E  45      27.251  -3.447  20.130  1.00 42.38 LIG 0.01  A 
ATOM     20  CE2 PHE E  45      27.226  -2.971  18.816  1.00 42.73 LIG 0.00  A 
ATOM     21  CZ  PHE E  45      26.065  -3.089  18.058  1.00 42.74 LIG 0.00  A 
ATOM     22  CE1 PHE E  45      24.935  -3.683  18.610  1.00 41.89 LIG 0.00  A 
ATOM     23  CD1 PHE E  45      24.970  -4.157  19.924  1.00 42.01 LIG 0.01  A 
ENDBRANCH 17 18
ENDBRANCH 9 17
ENDBRANCH 6 9
ENDBRANCH 1 5
BRANCH 1 24
ATOM     24  N   SER E  44      25.085  -8.230  18.544  1.00 46.50 LIG-0.34  N 
ATOM     25  C   PHE E  43      24.291  -9.135  19.073  1.00 47.40 LIG 0.24  C 
ATOM     26 O    PHE E  43      24.586  -9.735  20.102  1.00 45.80 LIG-0.27  OA
ATOM     27 H    SER E  44      24.940  -7.798  17.815  1.00 46.50 LIG 0.16  HD
BRANCH 25 28
ATOM     28  CA  PHE E  43      23.011  -9.445  18.328  1.00 47.87 LIG 0.18  C 
BRANCH 28 29
ATOM     29  CB  PHE E  43      22.196  -8.162  18.196  1.00 42.32 LIG 0.07  C 
BRANCH 29 30
ATOM     30  CG  PHE E  43      20.690  -8.350  18.164  1.00 35.12 LIG-0.06  A 
ATOM     31  CD2 PHE E  43      19.983  -8.663  16.996  1.00 32.72 LIG 0.01  A 
ATOM     32  CE2 PHE E  43      18.566  -8.788  17.029  1.00 30.40 LIG 0.00  A 
ATOM     33  CZ  PHE E  43      17.875  -8.602  18.234  1.00 28.92 LIG 0.00  A 
ATOM     34  CE1 PHE E  43      18.587  -8.291  19.387  1.00 29.46 LIG 0.00  A 
ATOM     35  CD1 PHE E  43      19.978  -8.168  19.339  1.00 34.02 LIG 0.01  A 
ENDBRANCH 29 30
ENDBRANCH 28 29
BRANCH 28 36
ATOM     36  N   PHE E  43      22.437 -10.342  19.288  1.00 51.92 LIG-0.35  N 
ATOM     37  C   GLY E  42      21.579 -11.317  19.050  1.00 55.92 LIG 0.25  C 
ATOM     38 O    GLY E  42      21.109 -11.620  17.945  1.00 57.26 LIG-0.27  OA
ATOM     39 H    PHE E  43      22.717 -10.180  20.086  1.00 51.92 LIG 0.16  HD
BRANCH 37 40
ATOM     40  CA  GLY E  42      21.226 -12.054  20.318  1.00 58.33 LIG 0.47  C 
ATOM     41  N   GLY E  42      21.770 -13.379  20.418  1.00 60.94 LIG 0.61  N 
ENDBRANCH 37 40
ENDBRANCH 28 36
ENDBRANCH 25 28
ENDBRANCH 1 24
TORSDOF 15
ENDMDL
MODEL 11
USER: ADFR SOLUTION from run 37
USER: SCORE 11.990564 LL:  -2.584 LR: -10.908 RR:   0.000 FEB:  -6.434
USER: RMSD 8.406136
USER: SEED 36
USER: STATUS no improvement in best in 11 clusters for 5 generations
USER: GENES 17
USER: genes 0 Translation |==|  0.45271 0.46106 0.52153
USER: genes 1 Rotation |==|  0.17399 0.80911 0.62702 0.67899
USER: genes 2 Torsion [C]-CA--CB-[OG] |==|  0.22345
USER: genes 3 Torsion [CA]-CB--OG-[HG] |==|  0.99768
USER: genes 4 Torsion [N]-CA--C-[N] |==|  0.46515
USER: genes 5 Torsion [C]-N--CA-[C] |==|  0.61170
USER: genes 6 Torsion [N]-CA--C-[N] |==|  0.88688
USER: genes 7 Torsion [C]-N--CA-[C] |==|  0.20604
USER: genes 8 Torsion [N]-CA--C-[O] |==|  0.13089
USER: genes 9 Torsion [N]-CA--CB-[CG] |==|  0.69614
USER: genes 10 Torsion [CA]-CB--CG-[CD2] |==|  0.62838
USER: genes 11 Torsion [CB]-CA--N-[C] |==|  0.20660
USER: genes 12 Torsion [N]-C--CA-[N] |==|  0.39746
USER: genes 13 Torsion [C]-CA--CB-[CG] |==|  0.91067
USER: genes 14 Torsion [CA]-CB--CG-[CD2] |==|  0.77309
USER: genes 15 Torsion [C]-CA--N-[C] |==|  0.81308
USER: genes 16 Torsion [N]-C--CA-[N] |==|  0.75509
ROOT
ATOM      1  CA  SER E  44      25.354  -8.328  18.804  1.00 44.79 LIG 0.20  C 
ENDROOT
BRANCH 1 2
ATOM      2  CB  SER E  44      26.457  -9.326  18.456  1.00 46.10 LIG 0.20  C 
BRANCH 2 3
ATOM      3 OG   SER E  44      26.613  -9.415  17.054  1.00 47.85 LIG-0.40  OA
ATOM      4 HG   SER E  44      26.059  -8.909  16.678  1.00 47.85 LIG 0.21  HD
ENDBRANCH 2 3
ENDBRANCH 1 2
BRANCH 1 5
ATOM      5  C   SER E  44      24.001  -8.985  18.651  1.00 42.78 LIG 0.24  C 
ATOM      6  N   PHE E  45      23.647  -9.256  17.404  1.00 43.36 LIG-0.35  N 
ATOM      7 H    PHE E  45      24.127  -9.069  16.715  1.00 43.36 LIG 0.16  HD
ATOM      8 O    SER E  44      23.282  -9.215  19.625  1.00 37.54 LIG-0.27  OA
BRANCH 6 9
ATOM      9  CA  PHE E  45      22.385  -9.909  17.100  1.00 46.68 LIG 0.18  C 
BRANCH 9 10
ATOM     10  C   PHE E  45      22.624 -10.920  15.987  1.00 48.11 LIG 0.24  C 
ATOM     11 O    PHE E  45      22.082 -12.026  16.015  1.00 49.85 LIG-0.27  OA
ATOM     12  N   GLY E  46      23.432 -10.547  15.002  1.00 50.71 LIG-0.35  N 
ATOM     13 H    GLY E  46      23.830  -9.787  14.947  1.00 50.71 LIG 0.16  HD
BRANCH 12 14
ATOM     14  CA  GLY E  46      23.689 -11.467  13.911  1.00 54.23 LIG 0.21  C 
BRANCH 14 15
ATOM     15  C   GLY E  46      22.515 -11.592  12.965  1.00 55.55 LIG 0.21  C 
ATOM     16 O    GLY E  46      21.974 -10.539  12.578  1.00 59.11 LIG-0.29  OA
ENDBRANCH 14 15
ENDBRANCH 12 14
ENDBRANCH 9 10
BRANCH 9 17
ATOM     17  CB  PHE E  45      21.335  -8.881  16.665  1.00 43.03 LIG 0.07  C 
BRANCH 17 18
ATOM     18  CG  PHE E  45      20.239  -8.666  17.678  1.00 41.93 LIG-0.06  A 
ATOM     19  CD2 PHE E  45      18.901  -8.638  17.289  1.00 42.38 LIG 0.01  A 
ATOM     20  CE2 PHE E  45      17.884  -8.468  18.233  1.00 42.73 LIG 0.00  A 
ATOM     21  CZ  PHE E  45      18.204  -8.323  19.579  1.00 42.74 LIG 0.00  A 
ATOM     22  CE1 PHE E  45      19.536  -8.350  19.980  1.00 41.89 LIG 0.00  A 
ATOM     23  CD1 PHE E  45      20.546  -8.521  19.029  1.00 42.01 LIG 0.01  A 
ENDBRANCH 17 18
ENDBRANCH 9 17
ENDBRANCH 6 9
ENDBRANCH 1 5
BRANCH 1 24
ATOM     24  N   SER E  44      25.566  -7.794  20.133  1.00 46.50 LIG-0.34  N 
ATOM     25  C   PHE E  43      26.527  -6.913  20.302  1.00 47.40 LIG 0.24  C 
ATOM     26 O    PHE E  43      27.259  -6.566  19.378  1.00 45.80 LIG-0.27  OA
ATOM     27 H    SER E  44      25.041  -8.090  20.746  1.00 46.50 LIG 0.16  HD
BRANCH 25 28
ATOM     28  CA  PHE E  43      26.731  -6.378  21.701  1.00 47.87 LIG 0.18  C 
BRANCH 28 29
ATOM     29  CB  PHE E  43      26.084  -4.999  21.799  1.00 42.32 LIG 0.07  C 
BRANCH 29 30
ATOM     30  CG  PHE E  43      26.103  -4.180  20.522  1.00 35.12 LIG-0.06  A 
ATOM     31  CD2 PHE E  43      27.215  -3.436  20.107  1.00 32.72 LIG 0.01  A 
ATOM     32  CE2 PHE E  43      27.153  -2.659  18.917  1.00 30.40 LIG 0.00  A 
ATOM     33  CZ  PHE E  43      25.978  -2.641  18.154  1.00 28.92 LIG 0.00  A 
ATOM     34  CE1 PHE E  43      24.880  -3.383  18.575  1.00 29.46 LIG 0.00  A 
ATOM     35  CD1 PHE E  43      24.954  -4.139  19.748  1.00 34.02 LIG 0.01  A 
ENDBRANCH 29 30
ENDBRANCH 28 29
BRANCH 28 36
ATOM     36  N   PHE E  43      28.162  -6.290  21.673  1.00 51.92 LIG-0.35  N 
ATOM     37  C   GLY E  42      29.017  -7.294  21.615  1.00 55.92 LIG 0.25  C 
ATOM     38 O    GLY E  42      28.728  -8.498  21.586  1.00 57.26 LIG-0.27  OA
ATOM     39 H    PHE E  43      28.433  -5.474  21.699  1.00 51.92 LIG 0.16  HD
BRANCH 37 40
ATOM     40  CA  GLY E  42      30.441  -6.796  21.578  1.00 58.33 LIG 0.47  C 
ATOM     41  N   GLY E  42      30.951  -6.521  20.265  1.00 60.94 LIG 0.61  N 
ENDBRANCH 37 40
ENDBRANCH 28 36
ENDBRANCH 25 28
ENDBRANCH 1 24
TORSDOF 15
ENDMDL
MODEL 12
USER: ADFR SOLUTION from run 190
USER: SCORE 12.177550 LL:  -2.859 LR: -10.819 RR:   0.000 FEB:  -6.344
USER: RMSD 8.170964
USER: SEED 189
USER: STATUS no improvement in best in 23 clusters for 5 generations
USER: GENES 17
USER: genes 0 Translation |==|  0.46886 0.61450 0.54995
USER: genes 1 Rotation |==|  0.67953 0.59226 0.95548 0.54236
USER: genes 2 Torsion [C]-CA--CB-[OG] |==|  0.67252
USER: genes 3 Torsion [CA]-CB--OG-[HG] |==|  0.30502
USER: genes 4 Torsion [N]-CA--C-[N] |==|  0.81968
USER: genes 5 Torsion [C]-N--CA-[C] |==|  0.82933
USER: genes 6 Torsion [N]-CA--C-[N] |==|  0.88708
USER: genes 7 Torsion [C]-N--CA-[C] |==|  0.60437
USER: genes 8 Torsion [N]-CA--C-[O] |==|  0.03451
USER: genes 9 Torsion [N]-CA--CB-[CG] |==|  0.66084
USER: genes 10 Torsion [CA]-CB--CG-[CD2] |==|  0.00765
USER: genes 11 Torsion [CB]-CA--N-[C] |==|  0.19509
USER: genes 12 Torsion [N]-C--CA-[N] |==|  0.58333
USER: genes 13 Torsion [C]-CA--CB-[CG] |==|  0.32935
USER: genes 14 Torsion [CA]-CB--CG-[CD2] |==|  0.53094
USER: genes 15 Torsion [C]-CA--N-[C] |==|  0.18175
USER: genes 16 Torsion [N]-C--CA-[N] |==|  0.15340
ROOT
ATOM      1  CA  SER E  44      25.730  -5.220  19.166  1.00 44.79 LIG 0.20  C 
ENDROOT
BRANCH 1 2
ATOM      2  CB  SER E  44      24.714  -4.083  19.077  1.00 46.10 LIG 0.20  C 
BRANCH 2 3
ATOM      3 OG   SER E  44      24.665  -3.572  17.761  1.00 47.85 LIG-0.40  OA
ATOM      4 HG   SER E  44      23.934  -3.784  17.405  1.00 47.85 LIG 0.21  HD
ENDBRANCH 2 3
ENDBRANCH 1 2
BRANCH 1 5
ATOM      5  C   SER E  44      25.030  -6.503  19.556  1.00 42.78 LIG 0.24  C 
ATOM      6  N   PHE E  45      24.064  -6.886  18.735  1.00 43.36 LIG-0.35  N 
ATOM      7 H    PHE E  45      23.824  -6.448  18.035  1.00 43.36 LIG 0.16  HD
ATOM      8 O    SER E  44      25.331  -7.117  20.581  1.00 37.54 LIG-0.27  OA
BRANCH 6 9
ATOM      9  CA  PHE E  45      23.317  -8.112  18.964  1.00 46.68 LIG 0.18  C 
BRANCH 9 10
ATOM     10  C   PHE E  45      24.289  -9.282  18.914  1.00 48.11 LIG 0.24  C 
ATOM     11 O    PHE E  45      24.190 -10.214  19.713  1.00 49.85 LIG-0.27  OA
ATOM     12  N   GLY E  46      25.227  -9.243  17.977  1.00 50.71 LIG-0.35  N 
ATOM     13 H    GLY E  46      25.330  -8.610  17.404  1.00 50.71 LIG 0.16  HD
BRANCH 12 14
ATOM     14  CA  GLY E  46      26.175 -10.336  17.878  1.00 54.23 LIG 0.21  C 
BRANCH 14 15
ATOM     15  C   GLY E  46      27.569  -9.868  17.524  1.00 55.55 LIG 0.21  C 
ATOM     16 O    GLY E  46      27.801  -8.647  17.595  1.00 59.11 LIG-0.29  OA
ENDBRANCH 14 15
ENDBRANCH 12 14
ENDBRANCH 9 10
BRANCH 9 17
ATOM     17  CB  PHE E  45      22.223  -8.284  17.904  1.00 43.03 LIG 0.07  C 
BRANCH 17 18
ATOM     18  CG  PHE E  45      20.834  -8.398  18.477  1.00 41.93 LIG-0.06  A 
ATOM     19  CD2 PHE E  45      20.614  -8.287  19.849  1.00 42.38 LIG 0.01  A 
ATOM     20  CE2 PHE E  45      19.322  -8.363  20.376  1.00 42.73 LIG 0.00  A 
ATOM     21  CZ  PHE E  45      18.237  -8.553  19.527  1.00 42.74 LIG 0.00  A 
ATOM     22  CE1 PHE E  45      18.442  -8.664  18.155  1.00 41.89 LIG 0.00  A 
ATOM     23  CD1 PHE E  45      19.738  -8.586  17.638  1.00 42.01 LIG 0.01  A 
ENDBRANCH 17 18
ENDBRANCH 9 17
ENDBRANCH 6 9
ENDBRANCH 1 5
BRANCH 1 24
ATOM     24  N   SER E  44      26.455  -5.340  17.919  1.00 46.50 LIG-0.34  N 
ATOM     25  C   PHE E  43      27.311  -4.393  17.605  1.00 47.40 LIG 0.24  C 
ATOM     26 O    PHE E  43      27.479  -3.408  18.320  1.00 45.80 LIG-0.27  OA
ATOM     27 H    SER E  44      26.281  -6.037  17.446  1.00 46.50 LIG 0.16  HD
BRANCH 25 28
ATOM     28  CA  PHE E  43      28.049  -4.540  16.294  1.00 47.87 LIG 0.18  C 
BRANCH 28 29
ATOM     29  CB  PHE E  43      28.296  -6.023  16.032  1.00 42.32 LIG 0.07  C 
BRANCH 29 30
ATOM     30  CG  PHE E  43      27.652  -6.577  14.775  1.00 35.12 LIG-0.06  A 
ATOM     31  CD2 PHE E  43      27.579  -7.948  14.493  1.00 32.72 LIG 0.01  A 
ATOM     32  CE2 PHE E  43      26.995  -8.398  13.277  1.00 30.40 LIG 0.00  A 
ATOM     33  CZ  PHE E  43      26.487  -7.469  12.359  1.00 28.92 LIG 0.00  A 
ATOM     34  CE1 PHE E  43      26.565  -6.112  12.648  1.00 29.46 LIG 0.00  A 
ATOM     35  CD1 PHE E  43      27.144  -5.683  13.845  1.00 34.02 LIG 0.01  A 
ENDBRANCH 29 30
ENDBRANCH 28 29
BRANCH 28 36
ATOM     36  N   PHE E  43      29.255  -3.860  16.669  1.00 51.92 LIG-0.35  N 
ATOM     37  C   GLY E  42      30.131  -4.242  17.580  1.00 55.92 LIG 0.25  C 
ATOM     38 O    GLY E  42      30.054  -5.259  18.284  1.00 57.26 LIG-0.27  OA
ATOM     39 H    PHE E  43      29.367  -3.135  16.220  1.00 51.92 LIG 0.16  HD
BRANCH 37 40
ATOM     40  CA  GLY E  42      31.283  -3.273  17.670  1.00 58.33 LIG 0.47  C 
ATOM     41  N   GLY E  42      30.907  -1.909  17.916  1.00 60.94 LIG 0.61  N 
ENDBRANCH 37 40
ENDBRANCH 28 36
ENDBRANCH 25 28
ENDBRANCH 1 24
TORSDOF 15
ENDMDL
MODEL 13
USER: ADFR SOLUTION from run 27
USER: SCORE 12.409250 LL:  -2.329 LR: -10.809 RR:   0.000 FEB:  -6.335
USER: RMSD 9.439151
USER: SEED 26
USER: STATUS no improvement in best in 8 clusters for 5 generations
USER: GENES 17
USER: genes 0 Translation |==|  0.38939 0.41992 0.56356
USER: genes 1 Rotation |==|  0.56913 0.19026 0.87356 0.59866
USER: genes 2 Torsion [C]-CA--CB-[OG] |==|  0.98855
USER: genes 3 Torsion [CA]-CB--OG-[HG] |==|  0.82797
USER: genes 4 Torsion [N]-CA--C-[N] |==|  0.34591
USER: genes 5 Torsion [C]-N--CA-[C] |==|  0.77977
USER: genes 6 Torsion [N]-CA--C-[N] |==|  0.94863
USER: genes 7 Torsion [C]-N--CA-[C] |==|  0.46823
USER: genes 8 Torsion [N]-CA--C-[O] |==|  0.63628
USER: genes 9 Torsion [N]-CA--CB-[CG] |==|  0.73354
USER: genes 10 Torsion [CA]-CB--CG-[CD2] |==|  0.62021
USER: genes 11 Torsion [CB]-CA--N-[C] |==|  0.83907
USER: genes 12 Torsion [N]-C--CA-[N] |==|  0.30913
USER: genes 13 Torsion [C]-CA--CB-[CG] |==|  0.85686
USER: genes 14 Torsion [CA]-CB--CG-[CD2] |==|  0.81746
USER: genes 15 Torsion [C]-CA--N-[C] |==|  0.52778
USER: genes 16 Torsion [N]-C--CA-[N] |==|  0.34014
ROOT
ATOM      1  CA  SER E  44      23.882  -9.161  19.339  1.00 44.79 LIG 0.20  C 
ENDROOT
BRANCH 1 2
ATOM      2  CB  SER E  44      23.499  -8.438  20.630  1.00 46.10 LIG 0.20  C 
BRANCH 2 3
ATOM      3 OG   SER E  44      22.436  -7.539  20.391  1.00 47.85 LIG-0.40  OA
ATOM      4 HG   SER E  44      22.680  -6.956  19.838  1.00 47.85 LIG 0.21  HD
ENDBRANCH 2 3
ENDBRANCH 1 2
BRANCH 1 5
ATOM      5  C   SER E  44      22.937  -8.763  18.228  1.00 42.78 LIG 0.24  C 
ATOM      6  N   PHE E  45      22.139  -9.729  17.798  1.00 43.36 LIG-0.35  N 
ATOM      7 H    PHE E  45      22.150 -10.534  18.102  1.00 43.36 LIG 0.16  HD
ATOM      8 O    SER E  44      22.943  -7.627  17.751  1.00 37.54 LIG-0.27  OA
BRANCH 6 9
ATOM      9  CA  PHE E  45      21.159  -9.492  16.752  1.00 46.68 LIG 0.18  C 
BRANCH 9 10
ATOM     10  C   PHE E  45      19.953  -8.801  17.372  1.00 48.11 LIG 0.24  C 
ATOM     11 O    PHE E  45      19.143  -8.197  16.665  1.00 49.85 LIG-0.27  OA
ATOM     12  N   GLY E  46      19.824  -8.885  18.689  1.00 50.71 LIG-0.35  N 
ATOM     13 H    GLY E  46      20.368  -9.294  19.215  1.00 50.71 LIG 0.16  HD
BRANCH 12 14
ATOM     14  CA  GLY E  46      18.689  -8.252  19.332  1.00 54.23 LIG 0.21  C 
BRANCH 14 15
ATOM     15  C   GLY E  46      18.534  -8.665  20.779  1.00 55.55 LIG 0.21  C 
ATOM     16 O    GLY E  46      17.404  -9.033  21.153  1.00 59.11 LIG-0.29  OA
ENDBRANCH 14 15
ENDBRANCH 12 14
ENDBRANCH 9 10
BRANCH 9 17
ATOM     17  CB  PHE E  45      20.735 -10.813  16.099  1.00 43.03 LIG 0.07  C 
BRANCH 17 18
ATOM     18  CG  PHE E  45      21.491 -11.137  14.836  1.00 41.93 LIG-0.06  A 
ATOM     19  CD2 PHE E  45      20.829 -11.629  13.712  1.00 42.38 LIG 0.01  A 
ATOM     20  CE2 PHE E  45      21.526 -11.902  12.532  1.00 42.73 LIG 0.00  A 
ATOM     21  CZ  PHE E  45      22.898 -11.682  12.471  1.00 42.74 LIG 0.00  A 
ATOM     22  CE1 PHE E  45      23.571 -11.190  13.585  1.00 41.89 LIG 0.00  A 
ATOM     23  CD1 PHE E  45      22.865 -10.920  14.760  1.00 42.01 LIG 0.01  A 
ENDBRANCH 17 18
ENDBRANCH 9 17
ENDBRANCH 6 9
ENDBRANCH 1 5
BRANCH 1 24
ATOM     24  N   SER E  44      25.267  -8.894  19.011  1.00 46.50 LIG-0.34  N 
ATOM     25  C   PHE E  43      25.637  -7.643  18.852  1.00 47.40 LIG 0.24  C 
ATOM     26 O    PHE E  43      24.838  -6.714  18.939  1.00 45.80 LIG-0.27  OA
ATOM     27 H    SER E  44      25.777  -9.583  18.939  1.00 46.50 LIG 0.16  HD
BRANCH 25 28
ATOM     28  CA  PHE E  43      27.088  -7.394  18.503  1.00 47.87 LIG 0.18  C 
BRANCH 28 29
ATOM     29  CB  PHE E  43      27.628  -6.290  19.407  1.00 42.32 LIG 0.07  C 
BRANCH 29 30
ATOM     30  CG  PHE E  43      26.797  -5.021  19.451  1.00 35.12 LIG-0.06  A 
ATOM     31  CD2 PHE E  43      26.626  -4.180  18.343  1.00 32.72 LIG 0.01  A 
ATOM     32  CE2 PHE E  43      25.864  -2.985  18.464  1.00 30.40 LIG 0.00  A 
ATOM     33  CZ  PHE E  43      25.279  -2.648  19.692  1.00 28.92 LIG 0.00  A 
ATOM     34  CE1 PHE E  43      25.456  -3.489  20.784  1.00 29.46 LIG 0.00  A 
ATOM     35  CD1 PHE E  43      26.209  -4.659  20.653  1.00 34.02 LIG 0.01  A 
ENDBRANCH 29 30
ENDBRANCH 28 29
BRANCH 28 36
ATOM     36  N   PHE E  43      26.891  -6.930  17.161  1.00 51.92 LIG-0.35  N 
ATOM     37  C   GLY E  42      27.822  -6.720  16.249  1.00 55.92 LIG 0.25  C 
ATOM     38 O    GLY E  42      29.041  -6.877  16.402  1.00 57.26 LIG-0.27  OA
ATOM     39 H    PHE E  43      26.059  -6.792  16.988  1.00 51.92 LIG 0.16  HD
BRANCH 37 40
ATOM     40  CA  GLY E  42      27.216  -6.256  14.948  1.00 58.33 LIG 0.47  C 
ATOM     41  N   GLY E  42      27.699  -4.989  14.474  1.00 60.94 LIG 0.61  N 
ENDBRANCH 37 40
ENDBRANCH 28 36
ENDBRANCH 25 28
ENDBRANCH 1 24
TORSDOF 15
ENDMDL
MODEL 14
USER: ADFR SOLUTION from run 131
USER: SCORE 11.826957 LL:  -2.307 LR: -10.799 RR:   0.000 FEB:  -6.325
USER: RMSD 8.732216
USER: SEED 130
USER: STATUS no improvement in best in 8 clusters for 5 generations
USER: GENES 17
USER: genes 0 Translation |==|  0.46603 0.39497 0.44310
USER: genes 1 Rotation |==|  0.21352 0.88956 0.55735 0.61352
USER: genes 2 Torsion [C]-CA--CB-[OG] |==|  0.59868
USER: genes 3 Torsion [CA]-CB--OG-[HG] |==|  0.40498
USER: genes 4 Torsion [N]-CA--C-[N] |==|  0.39785
USER: genes 5 Torsion [C]-N--CA-[C] |==|  0.58999
USER: genes 6 Torsion [N]-CA--C-[N] |==|  0.06029
USER: genes 7 Torsion [C]-N--CA-[C] |==|  0.15238
USER: genes 8 Torsion [N]-CA--C-[O] |==|  0.17985
USER: genes 9 Torsion [N]-CA--CB-[CG] |==|  0.63033
USER: genes 10 Torsion [CA]-CB--CG-[CD2] |==|  0.72867
USER: genes 11 Torsion [CB]-CA--N-[C] |==|  0.51065
USER: genes 12 Torsion [N]-C--CA-[N] |==|  0.46918
USER: genes 13 Torsion [C]-CA--CB-[CG] |==|  0.53733
USER: genes 14 Torsion [CA]-CB--CG-[CD2] |==|  0.44739
USER: genes 15 Torsion [C]-CA--N-[C] |==|  0.80821
USER: genes 16 Torsion [N]-C--CA-[N] |==|  0.38933
ROOT
ATOM      1  CA  SER E  44      25.664  -9.666  17.804  1.00 44.79 LIG 0.20  C 
ENDROOT
BRANCH 1 2
ATOM      2  CB  SER E  44      26.322 -11.045  17.785  1.00 46.10 LIG 0.20  C 
BRANCH 2 3
ATOM      3 OG   SER E  44      27.595 -10.988  18.395  1.00 47.85 LIG-0.40  OA
ATOM      4 HG   SER E  44      27.745 -11.710  18.797  1.00 47.85 LIG 0.21  HD
ENDBRANCH 2 3
ENDBRANCH 1 2
BRANCH 1 5
ATOM      5  C   SER E  44      24.172  -9.812  18.004  1.00 42.78 LIG 0.24  C 
ATOM      6  N   PHE E  45      23.458  -9.847  16.889  1.00 43.36 LIG-0.35  N 
ATOM      7 H    PHE E  45      23.793  -9.779  16.100  1.00 43.36 LIG 0.16  HD
ATOM      8 O    SER E  44      23.674  -9.863  19.129  1.00 37.54 LIG-0.27  OA
BRANCH 6 9
ATOM      9  CA  PHE E  45      22.014 -10.008  16.919  1.00 46.68 LIG 0.18  C 
BRANCH 9 10
ATOM     10  C   PHE E  45      21.592 -10.785  15.680  1.00 48.11 LIG 0.24  C 
ATOM     11 O    PHE E  45      20.437 -10.715  15.258  1.00 49.85 LIG-0.27  OA
ATOM     12  N   GLY E  46      22.522 -11.524  15.090  1.00 50.71 LIG-0.35  N 
ATOM     13 H    GLY E  46      23.337 -11.601  15.355  1.00 50.71 LIG 0.16  HD
BRANCH 12 14
ATOM     14  CA  GLY E  46      22.178 -12.279  13.901  1.00 54.23 LIG 0.21  C 
BRANCH 14 15
ATOM     15  C   GLY E  46      21.583 -11.413  12.814  1.00 55.55 LIG 0.21  C 
ATOM     16 O    GLY E  46      22.315 -10.541  12.309  1.00 59.11 LIG-0.29  OA
ENDBRANCH 14 15
ENDBRANCH 12 14
ENDBRANCH 9 10
BRANCH 9 17
ATOM     17  CB  PHE E  45      21.318  -8.642  16.951  1.00 43.03 LIG 0.07  C 
BRANCH 17 18
ATOM     18  CG  PHE E  45      20.226  -8.541  17.985  1.00 41.93 LIG-0.06  A 
ATOM     19  CD2 PHE E  45      18.889  -8.726  17.633  1.00 42.38 LIG 0.01  A 
ATOM     20  CE2 PHE E  45      17.879  -8.660  18.597  1.00 42.73 LIG 0.00  A 
ATOM     21  CZ  PHE E  45      18.204  -8.406  19.926  1.00 42.74 LIG 0.00  A 
ATOM     22  CE1 PHE E  45      19.535  -8.221  20.290  1.00 41.89 LIG 0.00  A 
ATOM     23  CD1 PHE E  45      20.537  -8.289  19.319  1.00 42.01 LIG 0.01  A 
ENDBRANCH 17 18
ENDBRANCH 9 17
ENDBRANCH 6 9
ENDBRANCH 1 5
BRANCH 1 24
ATOM     24  N   SER E  44      26.281  -8.833  18.814  1.00 46.50 LIG-0.34  N 
ATOM     25  C   PHE E  43      25.782  -7.633  19.018  1.00 47.40 LIG 0.24  C 
ATOM     26 O    PHE E  43      24.843  -7.200  18.355  1.00 45.80 LIG-0.27  OA
ATOM     27 H    SER E  44      26.950  -9.177  19.231  1.00 46.50 LIG 0.16  HD
BRANCH 25 28
ATOM     28  CA  PHE E  43      26.450  -6.782  20.074  1.00 47.87 LIG 0.18  C 
BRANCH 28 29
ATOM     29  CB  PHE E  43      26.050  -7.304  21.451  1.00 42.32 LIG 0.07  C 
BRANCH 29 30
ATOM     30  CG  PHE E  43      26.370  -6.382  22.614  1.00 35.12 LIG-0.06  A 
ATOM     31  CD2 PHE E  43      25.756  -6.492  23.869  1.00 32.72 LIG 0.01  A 
ATOM     32  CE2 PHE E  43      26.075  -5.570  24.904  1.00 30.40 LIG 0.00  A 
ATOM     33  CZ  PHE E  43      27.008  -4.552  24.671  1.00 28.92 LIG 0.00  A 
ATOM     34  CE1 PHE E  43      27.610  -4.451  23.422  1.00 29.46 LIG 0.00  A 
ATOM     35  CD1 PHE E  43      27.286  -5.361  22.413  1.00 34.02 LIG 0.01  A 
ENDBRANCH 29 30
ENDBRANCH 28 29
BRANCH 28 36
ATOM     36  N   PHE E  43      25.799  -5.541  19.769  1.00 51.92 LIG-0.35  N 
ATOM     37  C   GLY E  42      25.967  -4.802  18.688  1.00 55.92 LIG 0.25  C 
ATOM     38 O    GLY E  42      26.734  -5.050  17.747  1.00 57.26 LIG-0.27  OA
ATOM     39 H    PHE E  43      25.253  -5.304  20.390  1.00 51.92 LIG 0.16  HD
BRANCH 37 40
ATOM     40  CA  GLY E  42      25.085  -3.579  18.721  1.00 58.33 LIG 0.47  C 
ATOM     41  N   GLY E  42      25.699  -2.377  18.234  1.00 60.94 LIG 0.61  N 
ENDBRANCH 37 40
ENDBRANCH 28 36
ENDBRANCH 25 28
ENDBRANCH 1 24
TORSDOF 15
ENDMDL
MODEL 15
USER: ADFR SOLUTION from run 160
USER: SCORE 12.456023 LL:  -2.561 LR: -10.769 RR:   0.000 FEB:  -6.295
USER: RMSD 5.069393
USER: SEED 159
USER: STATUS no improvement in best in 8 clusters for 5 generations
USER: GENES 17
USER: genes 0 Translation |==|  0.46655 0.35021 0.37508
USER: genes 1 Rotation |==|  0.79405 0.53657 0.44498 0.89896
USER: genes 2 Torsion [C]-CA--CB-[OG] |==|  0.65430
USER: genes 3 Torsion [CA]-CB--OG-[HG] |==|  0.11004
USER: genes 4 Torsion [N]-CA--C-[N] |==|  0.86064
USER: genes 5 Torsion [C]-N--CA-[C] |==|  0.77225
USER: genes 6 Torsion [N]-CA--C-[N] |==|  0.39473
USER: genes 7 Torsion [C]-N--CA-[C] |==|  0.24157
USER: genes 8 Torsion [N]-CA--C-[O] |==|  0.41272
USER: genes 9 Torsion [N]-CA--CB-[CG] |==|  0.37286
USER: genes 10 Torsion [CA]-CB--CG-[CD2] |==|  0.73263
USER: genes 11 Torsion [CB]-CA--N-[C] |==|  0.22773
USER: genes 12 Torsion [N]-C--CA-[N] |==|  0.42546
USER: genes 13 Torsion [C]-CA--CB-[CG] |==|  0.39470
USER: genes 14 Torsion [CA]-CB--CG-[CD2] |==|  0.10947
USER: genes 15 Torsion [C]-CA--N-[C] |==|  0.74792
USER: genes 16 Torsion [N]-C--CA-[N] |==|  0.36119
ROOT
ATOM      1  CA  SER E  44      25.676 -10.572  16.936  1.00 44.79 LIG 0.20  C 
ENDROOT
BRANCH 1 2
ATOM      2  CB  SER E  44      26.380 -10.540  15.581  1.00 46.10 LIG 0.20  C 
BRANCH 2 3
ATOM      3 OG   SER E  44      25.473 -10.162  14.566  1.00 47.85 LIG-0.40  OA
ATOM      4 HG   SER E  44      24.968  -9.555  14.854  1.00 47.85 LIG 0.21  HD
ENDBRANCH 2 3
ENDBRANCH 1 2
BRANCH 1 5
ATOM      5  C   SER E  44      26.407  -9.680  17.915  1.00 42.78 LIG 0.24  C 
ATOM      6  N   PHE E  45      26.256  -8.380  17.708  1.00 43.36 LIG-0.35  N 
ATOM      7 H    PHE E  45      25.795  -8.045  17.064  1.00 43.36 LIG 0.16  HD
ATOM      8 O    SER E  44      27.109 -10.146  18.813  1.00 37.54 LIG-0.27  OA
BRANCH 6 9
ATOM      9  CA  PHE E  45      26.877  -7.397  18.580  1.00 46.68 LIG 0.18  C 
BRANCH 9 10
ATOM     10  C   PHE E  45      25.997  -7.224  19.810  1.00 48.11 LIG 0.24  C 
ATOM     11 O    PHE E  45      24.769  -7.245  19.711  1.00 49.85 LIG-0.27  OA
ATOM     12  N   GLY E  46      26.616  -7.056  20.972  1.00 50.71 LIG-0.35  N 
ATOM     13 H    GLY E  46      27.468  -7.033  21.081  1.00 50.71 LIG 0.16  HD
BRANCH 12 14
ATOM     14  CA  GLY E  46      25.826  -6.895  22.177  1.00 54.23 LIG 0.21  C 
BRANCH 14 15
ATOM     15  C   GLY E  46      25.460  -8.216  22.815  1.00 55.55 LIG 0.21  C 
ATOM     16 O    GLY E  46      25.342  -8.243  24.055  1.00 59.11 LIG-0.29  OA
ENDBRANCH 14 15
ENDBRANCH 12 14
ENDBRANCH 9 10
BRANCH 9 17
ATOM     17  CB  PHE E  45      27.043  -6.058  17.854  1.00 43.03 LIG 0.07  C 
BRANCH 17 18
ATOM     18  CG  PHE E  45      26.616  -4.866  18.672  1.00 41.93 LIG-0.06  A 
ATOM     19  CD2 PHE E  45      25.341  -4.320  18.529  1.00 42.38 LIG 0.01  A 
ATOM     20  CE2 PHE E  45      24.937  -3.232  19.309  1.00 42.73 LIG 0.00  A 
ATOM     21  CZ  PHE E  45      25.812  -2.683  20.240  1.00 42.74 LIG 0.00  A 
ATOM     22  CE1 PHE E  45      27.087  -3.220  20.393  1.00 41.89 LIG 0.00  A 
ATOM     23  CD1 PHE E  45      27.482  -4.307  19.609  1.00 42.01 LIG 0.01  A 
ENDBRANCH 17 18
ENDBRANCH 9 17
ENDBRANCH 6 9
ENDBRANCH 1 5
BRANCH 1 24
ATOM     24  N   SER E  44      24.284 -10.206  16.784  1.00 46.50 LIG-0.34  N 
ATOM     25  C   PHE E  43      23.438 -11.134  16.392  1.00 47.40 LIG 0.24  C 
ATOM     26 O    PHE E  43      23.806 -12.275  16.124  1.00 45.80 LIG-0.27  OA
ATOM     27 H    SER E  44      24.087  -9.389  16.961  1.00 46.50 LIG 0.16  HD
BRANCH 25 28
ATOM     28  CA  PHE E  43      21.991 -10.723  16.235  1.00 47.87 LIG 0.18  C 
BRANCH 28 29
ATOM     29  CB  PHE E  43      21.267 -10.958  17.557  1.00 42.32 LIG 0.07  C 
BRANCH 29 30
ATOM     30  CG  PHE E  43      20.235  -9.909  17.928  1.00 35.12 LIG-0.06  A 
ATOM     31  CD2 PHE E  43      19.374  -9.318  16.994  1.00 32.72 LIG 0.01  A 
ATOM     32  CE2 PHE E  43      18.456  -8.312  17.404  1.00 30.40 LIG 0.00  A 
ATOM     33  CZ  PHE E  43      18.407  -7.914  18.746  1.00 28.92 LIG 0.00  A 
ATOM     34  CE1 PHE E  43      19.266  -8.506  19.665  1.00 29.46 LIG 0.00  A 
ATOM     35  CD1 PHE E  43      20.166  -9.491  19.248  1.00 34.02 LIG 0.01  A 
ENDBRANCH 29 30
ENDBRANCH 28 29
BRANCH 28 36
ATOM     36  N   PHE E  43      21.618 -11.692  15.246  1.00 51.92 LIG-0.35  N 
ATOM     37  C   GLY E  42      21.673 -11.550  13.935  1.00 55.92 LIG 0.25  C 
ATOM     38 O    GLY E  42      22.049 -10.539  13.326  1.00 57.26 LIG-0.27  OA
ATOM     39 H    PHE E  43      21.336 -12.422  15.604  1.00 51.92 LIG 0.16  HD
BRANCH 37 40
ATOM     40  CA  GLY E  42      21.215 -12.803  13.231  1.00 58.33 LIG 0.47  C 
ATOM     41  N   GLY E  42      20.231 -12.596  12.206  1.00 60.94 LIG 0.61  N 
ENDBRANCH 37 40
ENDBRANCH 28 36
ENDBRANCH 25 28
ENDBRANCH 1 24
TORSDOF 15
ENDMDL
MODEL 16
USER: ADFR SOLUTION from run 52
USER: SCORE 12.134689 LL:  -2.541 LR: -10.764 RR:   0.000 FEB:  -6.290
USER: RMSD 8.417954
USER: SEED 51
USER: STATUS no improvement in best in 10 clusters for 5 generations
USER: GENES 17
USER: genes 0 Translation |==|  0.44946 0.47456 0.55868
USER: genes 1 Rotation |==|  0.70580 0.40531 0.93417 0.60087
USER: genes 2 Torsion [C]-CA--CB-[OG] |==|  0.75324
USER: genes 3 Torsion [CA]-CB--OG-[HG] |==|  0.37736
USER: genes 4 Torsion [N]-CA--C-[N] |==|  0.98378
USER: genes 5 Torsion [C]-N--CA-[C] |==|  0.62853
USER: genes 6 Torsion [N]-CA--C-[N] |==|  0.84071
USER: genes 7 Torsion [C]-N--CA-[C] |==|  0.23949
USER: genes 8 Torsion [N]-CA--C-[O] |==|  0.16619
USER: genes 9 Torsion [N]-CA--CB-[CG] |==|  0.70882
USER: genes 10 Torsion [CA]-CB--CG-[CD2] |==|  0.63404
USER: genes 11 Torsion [CB]-CA--N-[C] |==|  0.18333
USER: genes 12 Torsion [N]-C--CA-[N] |==|  0.91731
USER: genes 13 Torsion [C]-CA--CB-[CG] |==|  0.54433
USER: genes 14 Torsion [CA]-CB--CG-[CD2] |==|  0.75484
USER: genes 15 Torsion [C]-CA--N-[C] |==|  0.78267
USER: genes 16 Torsion [N]-C--CA-[N] |==|  0.54123
ROOT
ATOM      1  CA  SER E  44      25.279  -8.054  19.277  1.00 44.79 LIG 0.20  C 
ENDROOT
BRANCH 1 2
ATOM      2  CB  SER E  44      24.946  -6.743  19.987  1.00 46.10 LIG 0.20  C 
BRANCH 2 3
ATOM      3 OG   SER E  44      24.674  -5.729  19.042  1.00 47.85 LIG-0.40  OA
ATOM      4 HG   SER E  44      23.995  -5.297  19.281  1.00 47.85 LIG 0.21  HD
ENDBRANCH 2 3
ENDBRANCH 1 2
BRANCH 1 5
ATOM      5  C   SER E  44      24.010  -8.838  19.026  1.00 42.78 LIG 0.24  C 
ATOM      6  N   PHE E  45      23.722  -9.044  17.749  1.00 43.36 LIG-0.35  N 
ATOM      7 H    PHE E  45      24.198  -8.751  17.095  1.00 43.36 LIG 0.16  HD
ATOM      8 O    SER E  44      23.295  -9.223  19.952  1.00 37.54 LIG-0.27  OA
BRANCH 6 9
ATOM      9  CA  PHE E  45      22.548  -9.802  17.350  1.00 46.68 LIG 0.18  C 
BRANCH 9 10
ATOM     10  C   PHE E  45      22.962 -10.795  16.273  1.00 48.11 LIG 0.24  C 
ATOM     11 O    PHE E  45      22.771 -12.002  16.426  1.00 49.85 LIG-0.27  OA
ATOM     12  N   GLY E  46      23.527 -10.295  15.182  1.00 50.71 LIG-0.35  N 
ATOM     13 H    GLY E  46      23.680  -9.461  15.040  1.00 50.71 LIG 0.16  HD
BRANCH 12 14
ATOM     14  CA  GLY E  46      23.934 -11.195  14.120  1.00 54.23 LIG 0.21  C 
BRANCH 14 15
ATOM     15  C   GLY E  46      22.812 -11.499  13.152  1.00 55.55 LIG 0.21  C 
ATOM     16 O    GLY E  46      22.304 -10.539  12.542  1.00 59.11 LIG-0.29  OA
ENDBRANCH 14 15
ENDBRANCH 12 14
ENDBRANCH 9 10
BRANCH 9 17
ATOM     17  CB  PHE E  45      21.456  -8.867  16.818  1.00 43.03 LIG 0.07  C 
BRANCH 17 18
ATOM     18  CG  PHE E  45      20.317  -8.653  17.781  1.00 41.93 LIG-0.06  A 
ATOM     19  CD2 PHE E  45      18.993  -8.771  17.361  1.00 42.38 LIG 0.01  A 
ATOM     20  CE2 PHE E  45      17.937  -8.601  18.261  1.00 42.73 LIG 0.00  A 
ATOM     21  CZ  PHE E  45      18.204  -8.309  19.595  1.00 42.74 LIG 0.00  A 
ATOM     22  CE1 PHE E  45      19.521  -8.191  20.028  1.00 41.89 LIG 0.00  A 
ATOM     23  CD1 PHE E  45      20.569  -8.363  19.120  1.00 42.01 LIG 0.01  A 
ENDBRANCH 17 18
ENDBRANCH 9 17
ENDBRANCH 6 9
ENDBRANCH 1 5
BRANCH 1 24
ATOM     24  N   SER E  44      26.018  -7.788  18.061  1.00 46.50 LIG-0.34  N 
ATOM     25  C   PHE E  43      27.223  -7.272  18.167  1.00 47.40 LIG 0.24  C 
ATOM     26 O    PHE E  43      27.711  -6.984  19.257  1.00 45.80 LIG-0.27  OA
ATOM     27 H    SER E  44      25.619  -7.987  17.326  1.00 46.50 LIG 0.16  HD
BRANCH 25 28
ATOM     28  CA  PHE E  43      27.969  -6.999  16.881  1.00 47.87 LIG 0.18  C 
BRANCH 28 29
ATOM     29  CB  PHE E  43      27.577  -5.615  16.370  1.00 42.32 LIG 0.07  C 
BRANCH 29 30
ATOM     30  CG  PHE E  43      27.930  -5.334  14.921  1.00 35.12 LIG-0.06  A 
ATOM     31  CD2 PHE E  43      29.165  -4.805  14.523  1.00 32.72 LIG 0.01  A 
ATOM     32  CE2 PHE E  43      29.415  -4.529  13.150  1.00 30.40 LIG 0.00  A 
ATOM     33  CZ  PHE E  43      28.427  -4.791  12.192  1.00 28.92 LIG 0.00  A 
ATOM     34  CE1 PHE E  43      27.205  -5.315  12.598  1.00 29.46 LIG 0.00  A 
ATOM     35  CD1 PHE E  43      26.971  -5.578  13.950  1.00 34.02 LIG 0.01  A 
ENDBRANCH 29 30
ENDBRANCH 28 29
BRANCH 28 36
ATOM     36  N   PHE E  43      27.384  -8.041  16.088  1.00 51.92 LIG-0.35  N 
ATOM     37  C   GLY E  42      27.690  -9.325  16.115  1.00 55.92 LIG 0.25  C 
ATOM     38 O    GLY E  42      28.553  -9.854  16.828  1.00 57.26 LIG-0.27  OA
ATOM     39 H    PHE E  43      26.776  -7.738  15.559  1.00 51.92 LIG 0.16  HD
BRANCH 37 40
ATOM     40  CA  GLY E  42      26.836 -10.109  15.149  1.00 58.33 LIG 0.47  C 
ATOM     41  N   GLY E  42      26.857 -11.531  15.342  1.00 60.94 LIG 0.61  N 
ENDBRANCH 37 40
ENDBRANCH 28 36
ENDBRANCH 25 28
ENDBRANCH 1 24
TORSDOF 15
ENDMDL
MODEL 17
USER: ADFR SOLUTION from run 36
USER: SCORE 12.337938 LL:  -2.511 LR: -10.651 RR:   0.000 FEB:  -6.177
USER: RMSD 9.064835
USER: SEED 35
USER: STATUS no improvement in best in 14 clusters for 5 generations
USER: GENES 17
USER: genes 0 Translation |==|  0.43223 0.40694 0.53687
USER: genes 1 Rotation |==|  0.20399 0.75157 0.18529 0.50708
USER: genes 2 Torsion [C]-CA--CB-[OG] |==|  0.77594
USER: genes 3 Torsion [CA]-CB--OG-[HG] |==|  0.60197
USER: genes 4 Torsion [N]-CA--C-[N] |==|  0.10092
USER: genes 5 Torsion [C]-N--CA-[C] |==|  0.63913
USER: genes 6 Torsion [N]-CA--C-[N] |==|  0.88967
USER: genes 7 Torsion [C]-N--CA-[C] |==|  0.23121
USER: genes 8 Torsion [N]-CA--C-[O] |==|  0.86186
USER: genes 9 Torsion [N]-CA--CB-[CG] |==|  0.74151
USER: genes 10 Torsion [CA]-CB--CG-[CD2] |==|  0.65652
USER: genes 11 Torsion [CB]-CA--N-[C] |==|  0.15638
USER: genes 12 Torsion [N]-C--CA-[N] |==|  0.28699
USER: genes 13 Torsion [C]-CA--CB-[CG] |==|  0.66327
USER: genes 14 Torsion [CA]-CB--CG-[CD2] |==|  0.80089
USER: genes 15 Torsion [C]-CA--N-[C] |==|  0.66998
USER: genes 16 Torsion [N]-C--CA-[N] |==|  0.37945
ROOT
ATOM      1  CA  SER E  44      24.878  -9.423  18.999  1.00 44.79 LIG 0.20  C 
ENDROOT
BRANCH 1 2
ATOM      2  CB  SER E  44      24.851  -9.248  20.516  1.00 46.10 LIG 0.20  C 
BRANCH 2 3
ATOM      3 OG   SER E  44      24.190  -8.048  20.859  1.00 47.85 LIG-0.40  OA
ATOM      4 HG   SER E  44      24.568  -7.699  21.523  1.00 47.85 LIG 0.21  HD
ENDBRANCH 2 3
ENDBRANCH 1 2
BRANCH 1 5
ATOM      5  C   SER E  44      23.552  -9.972  18.522  1.00 42.78 LIG 0.24  C 
ATOM      6  N   PHE E  45      23.292  -9.772  17.239  1.00 43.36 LIG-0.35  N 
ATOM      7 H    PHE E  45      23.815  -9.352  16.701  1.00 43.36 LIG 0.16  HD
ATOM      8 O    SER E  44      22.772 -10.534  19.292  1.00 37.54 LIG-0.27  OA
BRANCH 6 9
ATOM      9  CA  PHE E  45      22.067 -10.263  16.629  1.00 46.68 LIG 0.18  C 
BRANCH 9 10
ATOM     10  C   PHE E  45      22.434 -11.022  15.362  1.00 48.11 LIG 0.24  C 
ATOM     11 O    PHE E  45      21.846 -12.062  15.061  1.00 49.85 LIG-0.27  OA
ATOM     12  N   GLY E  46      23.402 -10.509  14.614  1.00 50.71 LIG-0.35  N 
ATOM     13 H    GLY E  46      23.837  -9.789  14.791  1.00 50.71 LIG 0.16  HD
BRANCH 12 14
ATOM     14  CA  GLY E  46      23.787 -11.187  13.391  1.00 54.23 LIG 0.21  C 
BRANCH 14 15
ATOM     15  C   GLY E  46      22.892 -10.836  12.224  1.00 55.55 LIG 0.21  C 
ATOM     16 O    GLY E  46      21.661 -10.914  12.399  1.00 59.11 LIG-0.29  OA
ENDBRANCH 14 15
ENDBRANCH 12 14
ENDBRANCH 9 10
BRANCH 9 17
ATOM     17  CB  PHE E  45      21.125  -9.101  16.297  1.00 43.03 LIG 0.07  C 
BRANCH 17 18
ATOM     18  CG  PHE E  45      20.126  -8.798  17.384  1.00 41.93 LIG-0.06  A 
ATOM     19  CD2 PHE E  45      18.757  -8.803  17.119  1.00 42.38 LIG 0.01  A 
ATOM     20  CE2 PHE E  45      17.830  -8.550  18.134  1.00 42.73 LIG 0.00  A 
ATOM     21  CZ  PHE E  45      18.272  -8.289  19.428  1.00 42.74 LIG 0.00  A 
ATOM     22  CE1 PHE E  45      19.636  -8.283  19.705  1.00 41.89 LIG 0.00  A 
ATOM     23  CD1 PHE E  45      20.555  -8.537  18.683  1.00 42.01 LIG 0.01  A 
ENDBRANCH 17 18
ENDBRANCH 9 17
ENDBRANCH 6 9
ENDBRANCH 1 5
BRANCH 1 24
ATOM     24  N   SER E  44      25.224  -8.172  18.359  1.00 46.50 LIG-0.34  N 
ATOM     25  C   PHE E  43      26.350  -7.588  18.705  1.00 47.40 LIG 0.24  C 
ATOM     26 O    PHE E  43      27.084  -8.058  19.570  1.00 45.80 LIG-0.27  OA
ATOM     27 H    SER E  44      24.662  -7.876  17.779  1.00 46.50 LIG 0.16  HD
BRANCH 25 28
ATOM     28  CA  PHE E  43      26.683  -6.278  18.026  1.00 47.87 LIG 0.18  C 
BRANCH 28 29
ATOM     29  CB  PHE E  43      28.178  -6.246  17.726  1.00 42.32 LIG 0.07  C 
BRANCH 29 30
ATOM     30  CG  PHE E  43      28.943  -5.096  18.354  1.00 35.12 LIG-0.06  A 
ATOM     31  CD2 PHE E  43      28.821  -3.769  17.920  1.00 32.72 LIG 0.01  A 
ATOM     32  CE2 PHE E  43      29.597  -2.743  18.529  1.00 30.40 LIG 0.00  A 
ATOM     33  CZ  PHE E  43      30.481  -3.059  19.569  1.00 28.92 LIG 0.00  A 
ATOM     34  CE1 PHE E  43      30.594  -4.378  19.991  1.00 29.46 LIG 0.00  A 
ATOM     35  CD1 PHE E  43      29.829  -5.376  19.382  1.00 34.02 LIG 0.01  A 
ENDBRANCH 29 30
ENDBRANCH 28 29
BRANCH 28 36
ATOM     36  N   PHE E  43      26.341  -5.403  19.109  1.00 51.92 LIG-0.35  N 
ATOM     37  C   GLY E  42      25.415  -4.461  19.107  1.00 55.92 LIG 0.25  C 
ATOM     38 O    GLY E  42      24.682  -4.162  18.154  1.00 57.26 LIG-0.27  OA
ATOM     39 H    PHE E  43      26.822  -5.553  19.806  1.00 51.92 LIG 0.16  HD
BRANCH 37 40
ATOM     40  CA  GLY E  42      25.339  -3.768  20.444  1.00 58.33 LIG 0.47  C 
ATOM     41  N   GLY E  42      25.223  -2.339  20.379  1.00 60.94 LIG 0.61  N 
ENDBRANCH 37 40
ENDBRANCH 28 36
ENDBRANCH 25 28
ENDBRANCH 1 24
TORSDOF 15
ENDMDL
MODEL 18
USER: ADFR SOLUTION from run 146
USER: SCORE 12.790261 LL:  -2.976 LR: -10.637 RR:   0.000 FEB:  -6.162
USER: RMSD 8.626542
USER: SEED 145
USER: STATUS no improvement in best in 8 clusters for 5 generations
USER: GENES 17
USER: genes 0 Translation |==|  0.43353 0.44030 0.55522
USER: genes 1 Rotation |==|  0.75337 0.33819 0.89751 0.54011
USER: genes 2 Torsion [C]-CA--CB-[OG] |==|  0.73937
USER: genes 3 Torsion [CA]-CB--OG-[HG] |==|  0.13956
USER: genes 4 Torsion [N]-CA--C-[N] |==|  0.02233
USER: genes 5 Torsion [C]-N--CA-[C] |==|  0.64577
USER: genes 6 Torsion [N]-CA--C-[N] |==|  0.88347
USER: genes 7 Torsion [C]-N--CA-[C] |==|  0.29436
USER: genes 8 Torsion [N]-CA--C-[O] |==|  0.88781
USER: genes 9 Torsion [N]-CA--CB-[CG] |==|  0.74430
USER: genes 10 Torsion [CA]-CB--CG-[CD2] |==|  0.10835
USER: genes 11 Torsion [CB]-CA--N-[C] |==|  0.19080
USER: genes 12 Torsion [N]-C--CA-[N] |==|  0.37241
USER: genes 13 Torsion [C]-CA--CB-[CG] |==|  0.23587
USER: genes 14 Torsion [CA]-CB--CG-[CD2] |==|  0.71386
USER: genes 15 Torsion [C]-CA--N-[C] |==|  0.76653
USER: genes 16 Torsion [N]-C--CA-[N] |==|  0.30131
ROOT
ATOM      1  CA  SER E  44      24.909  -8.748  19.233  1.00 44.79 LIG 0.20  C 
ENDROOT
BRANCH 1 2
ATOM      2  CB  SER E  44      24.578  -7.864  20.434  1.00 46.10 LIG 0.20  C 
BRANCH 2 3
ATOM      3 OG   SER E  44      24.203  -6.572  20.004  1.00 47.85 LIG-0.40  OA
ATOM      4 HG   SER E  44      23.614  -6.635  19.408  1.00 47.85 LIG 0.21  HD
ENDBRANCH 2 3
ENDBRANCH 1 2
BRANCH 1 5
ATOM      5  C   SER E  44      23.684  -9.533  18.821  1.00 42.78 LIG 0.24  C 
ATOM      6  N   PHE E  45      23.401  -9.493  17.528  1.00 43.36 LIG-0.35  N 
ATOM      7 H    PHE E  45      23.856  -9.048  16.948  1.00 43.36 LIG 0.16  HD
ATOM      8 O    SER E  44      22.995 -10.135  19.646  1.00 37.54 LIG-0.27  OA
BRANCH 6 9
ATOM      9  CA  PHE E  45      22.268 -10.217  16.977  1.00 46.68 LIG 0.18  C 
BRANCH 9 10
ATOM     10  C   PHE E  45      22.763 -11.070  15.817  1.00 48.11 LIG 0.24  C 
ATOM     11 O    PHE E  45      22.357 -12.224  15.669  1.00 49.85 LIG-0.27  OA
ATOM     12  N   GLY E  46      23.636 -10.510  14.990  1.00 50.71 LIG-0.35  N 
ATOM     13 H    GLY E  46      23.944  -9.711  15.061  1.00 50.71 LIG 0.16  HD
BRANCH 12 14
ATOM     14  CA  GLY E  46      24.134 -11.274  13.863  1.00 54.23 LIG 0.21  C 
BRANCH 14 15
ATOM     15  C   GLY E  46      23.541 -10.826  12.547  1.00 55.55 LIG 0.21  C 
ATOM     16 O    GLY E  46      22.329 -10.539  12.530  1.00 59.11 LIG-0.29  OA
ENDBRANCH 14 15
ENDBRANCH 12 14
ENDBRANCH 9 10
BRANCH 9 17
ATOM     17  CB  PHE E  45      21.186  -9.244  16.495  1.00 43.03 LIG 0.07  C 
BRANCH 17 18
ATOM     18  CG  PHE E  45      20.144  -8.930  17.538  1.00 41.93 LIG-0.06  A 
ATOM     19  CD2 PHE E  45      20.498  -8.760  18.876  1.00 42.38 LIG 0.01  A 
ATOM     20  CE2 PHE E  45      19.535  -8.440  19.837  1.00 42.73 LIG 0.00  A 
ATOM     21  CZ  PHE E  45      18.204  -8.289  19.461  1.00 42.74 LIG 0.00  A 
ATOM     22  CE1 PHE E  45      17.837  -8.455  18.129  1.00 41.89 LIG 0.00  A 
ATOM     23  CD1 PHE E  45      18.808  -8.774  17.176  1.00 42.01 LIG 0.01  A 
ENDBRANCH 17 18
ENDBRANCH 9 17
ENDBRANCH 6 9
ENDBRANCH 1 5
BRANCH 1 24
ATOM     24  N   SER E  44      25.441  -7.943  18.154  1.00 46.50 LIG-0.34  N 
ATOM     25  C   PHE E  43      26.628  -7.400  18.313  1.00 47.40 LIG 0.24  C 
ATOM     26 O    PHE E  43      27.267  -7.531  19.354  1.00 45.80 LIG-0.27  OA
ATOM     27 H    SER E  44      24.942  -7.865  17.459  1.00 46.50 LIG 0.16  HD
BRANCH 25 28
ATOM     28  CA  PHE E  43      27.157  -6.559  17.173  1.00 47.87 LIG 0.18  C 
BRANCH 28 29
ATOM     29  CB  PHE E  43      28.315  -7.301  16.511  1.00 42.32 LIG 0.07  C 
BRANCH 29 30
ATOM     30  CG  PHE E  43      27.917  -8.314  15.454  1.00 35.12 LIG-0.06  A 
ATOM     31  CD2 PHE E  43      27.910  -9.696  15.683  1.00 32.72 LIG 0.01  A 
ATOM     32  CE2 PHE E  43      27.563 -10.594  14.635  1.00 30.40 LIG 0.00  A 
ATOM     33  CZ  PHE E  43      27.222 -10.095  13.371  1.00 28.92 LIG 0.00  A 
ATOM     34  CE1 PHE E  43      27.234  -8.722  13.154  1.00 29.46 LIG 0.00  A 
ATOM     35  CD1 PHE E  43      27.580  -7.852  14.191  1.00 34.02 LIG 0.01  A 
ENDBRANCH 29 30
ENDBRANCH 28 29
BRANCH 28 36
ATOM     36  N   PHE E  43      27.617  -5.443  17.948  1.00 51.92 LIG-0.35  N 
ATOM     37  C   GLY E  42      26.899  -4.419  18.369  1.00 55.92 LIG 0.25  C 
ATOM     38 O    GLY E  42      25.692  -4.238  18.154  1.00 57.26 LIG-0.27  OA
ATOM     39 H    PHE E  43      28.457  -5.502  18.127  1.00 51.92 LIG 0.16  HD
BRANCH 37 40
ATOM     40  CA  GLY E  42      27.737  -3.461  19.177  1.00 58.33 LIG 0.47  C 
ATOM     41  N   GLY E  42      28.025  -2.213  18.527  1.00 60.94 LIG 0.61  N 
ENDBRANCH 37 40
ENDBRANCH 28 36
ENDBRANCH 25 28
ENDBRANCH 1 24
TORSDOF 15
ENDMDL
MODEL 19
USER: ADFR SOLUTION from run 27
USER: SCORE 12.899297 LL:  -2.593 LR: -10.627 RR:   0.000 FEB:  -6.152
USER: RMSD 9.723821
USER: SEED 26
USER: STATUS no improvement in best in 8 clusters for 5 generations
USER: GENES 17
USER: genes 0 Translation |==|  0.38729 0.43053 0.56186
USER: genes 1 Rotation |==|  0.60525 0.16552 0.85465 0.53564
USER: genes 2 Torsion [C]-CA--CB-[OG] |==|  0.98430
USER: genes 3 Torsion [CA]-CB--OG-[HG] |==|  0.82822
USER: genes 4 Torsion [N]-CA--C-[N] |==|  0.38192
USER: genes 5 Torsion [C]-N--CA-[C] |==|  0.79554
USER: genes 6 Torsion [N]-CA--C-[N] |==|  0.91707
USER: genes 7 Torsion [C]-N--CA-[C] |==|  0.50613
USER: genes 8 Torsion [N]-CA--C-[O] |==|  0.63396
USER: genes 9 Torsion [N]-CA--CB-[CG] |==|  0.73633
USER: genes 10 Torsion [CA]-CB--CG-[CD2] |==|  0.12072
USER: genes 11 Torsion [CB]-CA--N-[C] |==|  0.85483
USER: genes 12 Torsion [N]-C--CA-[N] |==|  0.47466
USER: genes 13 Torsion [C]-CA--CB-[CG] |==|  0.82574
USER: genes 14 Torsion [CA]-CB--CG-[CD2] |==|  0.76529
USER: genes 15 Torsion [C]-CA--N-[C] |==|  0.68889
USER: genes 16 Torsion [N]-C--CA-[N] |==|  0.35141
ROOT
ATOM      1  CA  SER E  44      23.833  -8.946  19.318  1.00 44.79 LIG 0.20  C 
ENDROOT
BRANCH 1 2
ATOM      2  CB  SER E  44      23.238  -8.594  20.680  1.00 46.10 LIG 0.20  C 
BRANCH 2 3
ATOM      3 OG   SER E  44      22.008  -7.918  20.517  1.00 47.85 LIG-0.40  OA
ATOM      4 HG   SER E  44      22.136  -7.199  20.103  1.00 47.85 LIG 0.21  HD
ENDBRANCH 2 3
ENDBRANCH 1 2
BRANCH 1 5
ATOM      5  C   SER E  44      22.856  -8.585  18.222  1.00 42.78 LIG 0.24  C 
ATOM      6  N   PHE E  45      22.143  -9.597  17.751  1.00 43.36 LIG-0.35  N 
ATOM      7 H    PHE E  45      22.222 -10.409  18.022  1.00 43.36 LIG 0.16  HD
ATOM      8 O    SER E  44      22.765  -7.434  17.791  1.00 37.54 LIG-0.27  OA
BRANCH 6 9
ATOM      9  CA  PHE E  45      21.145  -9.402  16.712  1.00 46.68 LIG 0.18  C 
BRANCH 9 10
ATOM     10  C   PHE E  45      19.938  -8.711  17.331  1.00 48.11 LIG 0.24  C 
ATOM     11 O    PHE E  45      19.226  -7.967  16.655  1.00 49.85 LIG-0.27  OA
ATOM     12  N   GLY E  46      19.700  -8.954  18.613  1.00 50.71 LIG-0.35  N 
ATOM     13 H    GLY E  46      20.174  -9.464  19.118  1.00 50.71 LIG 0.16  HD
BRANCH 12 14
ATOM     14  CA  GLY E  46      18.558  -8.329  19.252  1.00 54.23 LIG 0.21  C 
BRANCH 14 15
ATOM     15  C   GLY E  46      18.457  -8.664  20.723  1.00 55.55 LIG 0.21  C 
ATOM     16 O    GLY E  46      17.349  -9.037  21.153  1.00 59.11 LIG-0.29  OA
ENDBRANCH 14 15
ENDBRANCH 12 14
ENDBRANCH 9 10
BRANCH 9 17
ATOM     17  CB  PHE E  45      20.732 -10.745  16.101  1.00 43.03 LIG 0.07  C 
BRANCH 17 18
ATOM     18  CG  PHE E  45      21.491 -11.103  14.850  1.00 41.93 LIG-0.06  A 
ATOM     19  CD2 PHE E  45      22.870 -10.914  14.771  1.00 42.38 LIG 0.01  A 
ATOM     20  CE2 PHE E  45      23.578 -11.273  13.620  1.00 42.73 LIG 0.00  A 
ATOM     21  CZ  PHE E  45      22.904 -11.825  12.535  1.00 42.74 LIG 0.00  A 
ATOM     22  CE1 PHE E  45      21.527 -12.020  12.602  1.00 41.89 LIG 0.00  A 
ATOM     23  CD1 PHE E  45      20.829 -11.659  13.757  1.00 42.01 LIG 0.01  A 
ENDBRANCH 17 18
ENDBRANCH 9 17
ENDBRANCH 6 9
ENDBRANCH 1 5
BRANCH 1 24
ATOM     24  N   SER E  44      25.117  -8.297  19.153  1.00 46.50 LIG-0.34  N 
ATOM     25  C   PHE E  43      25.187  -7.000  19.356  1.00 47.40 LIG 0.24  C 
ATOM     26 O    PHE E  43      24.196  -6.334  19.644  1.00 45.80 LIG-0.27  OA
ATOM     27 H    SER E  44      25.772  -8.806  18.927  1.00 46.50 LIG 0.16  HD
BRANCH 25 28
ATOM     28  CA  PHE E  43      26.538  -6.347  19.170  1.00 47.87 LIG 0.18  C 
BRANCH 28 29
ATOM     29  CB  PHE E  43      27.437  -6.735  20.340  1.00 42.32 LIG 0.07  C 
BRANCH 29 30
ATOM     30  CG  PHE E  43      26.967  -6.265  21.705  1.00 35.12 LIG-0.06  A 
ATOM     31  CD2 PHE E  43      27.242  -4.988  22.211  1.00 32.72 LIG 0.01  A 
ATOM     32  CE2 PHE E  43      26.803  -4.625  23.514  1.00 30.40 LIG 0.00  A 
ATOM     33  CZ  PHE E  43      26.088  -5.545  24.293  1.00 28.92 LIG 0.00  A 
ATOM     34  CE1 PHE E  43      25.821  -6.809  23.782  1.00 29.46 LIG 0.00  A 
ATOM     35  CD1 PHE E  43      26.261  -7.154  22.501  1.00 34.02 LIG 0.01  A 
ENDBRANCH 29 30
ENDBRANCH 28 29
BRANCH 28 36
ATOM     36  N   PHE E  43      26.111  -4.981  19.260  1.00 51.92 LIG-0.35  N 
ATOM     37  C   GLY E  42      26.105  -4.085  18.290  1.00 55.92 LIG 0.25  C 
ATOM     38 O    GLY E  42      26.483  -4.270  17.125  1.00 57.26 LIG-0.27  OA
ATOM     39 H    PHE E  43      25.841  -4.781  20.053  1.00 51.92 LIG 0.16  HD
BRANCH 37 40
ATOM     40  CA  GLY E  42      25.561  -2.763  18.772  1.00 58.33 LIG 0.47  C 
ATOM     41  N   GLY E  42      26.413  -1.634  18.529  1.00 60.94 LIG 0.61  N 
ENDBRANCH 37 40
ENDBRANCH 28 36
ENDBRANCH 25 28
ENDBRANCH 1 24
TORSDOF 15
ENDMDL
MODEL 20
USER: ADFR SOLUTION from run 4
USER: SCORE 12.092874 LL:  -2.958 LR: -10.625 RR:   0.000 FEB:  -6.150
USER: RMSD 4.188777
USER: SEED 795593
USER: STATUS no improvement in best in 22 clusters for 5 generations
USER: GENES 17
USER: genes 0 Translation |==|  0.43730 0.48735 0.55762
USER: genes 1 Rotation |==|  0.63605 0.39257 0.57223 0.96339
USER: genes 2 Torsion [C]-CA--CB-[OG] |==|  0.76251
USER: genes 3 Torsion [CA]-CB--OG-[HG] |==|  0.93018
USER: genes 4 Torsion [N]-CA--C-[N] |==|  0.47120
USER: genes 5 Torsion [C]-N--CA-[C] |==|  0.83258
USER: genes 6 Torsion [N]-CA--C-[N] |==|  0.91468
USER: genes 7 Torsion [C]-N--CA-[C] |==|  0.66455
USER: genes 8 Torsion [N]-CA--C-[O] |==|  0.09731
USER: genes 9 Torsion [N]-CA--CB-[CG] |==|  0.96569
USER: genes 10 Torsion [CA]-CB--CG-[CD2] |==|  0.23501
USER: genes 11 Torsion [CB]-CA--N-[C] |==|  0.26111
USER: genes 12 Torsion [N]-C--CA-[N] |==|  0.51691
USER: genes 13 Torsion [C]-CA--CB-[CG] |==|  0.77498
USER: genes 14 Torsion [CA]-CB--CG-[CD2] |==|  0.67292
USER: genes 15 Torsion [C]-CA--N-[C] |==|  0.56842
USER: genes 16 Torsion [N]-C--CA-[N] |==|  0.47085
ROOT
ATOM      1  CA  SER E  44      24.996  -7.795  19.264  1.00 44.79 LIG 0.20  C 
ENDROOT
BRANCH 1 2
ATOM      2  CB  SER E  44      26.419  -8.248  18.941  1.00 46.10 LIG 0.20  C 
BRANCH 2 3
ATOM      3 OG   SER E  44      26.717  -7.999  17.583  1.00 47.85 LIG-0.40  OA
ATOM      4 HG   SER E  44      26.005  -7.981  17.139  1.00 47.85 LIG 0.21  HD
ENDBRANCH 2 3
ENDBRANCH 1 2
BRANCH 1 5
ATOM      5  C   SER E  44      24.993  -6.323  19.610  1.00 42.78 LIG 0.24  C 
ATOM      6  N   PHE E  45      25.612  -6.011  20.738  1.00 43.36 LIG-0.35  N 
ATOM      7 H    PHE E  45      25.983  -6.586  21.259  1.00 43.36 LIG 0.16  HD
ATOM      8 O    SER E  44      24.425  -5.494  18.897  1.00 37.54 LIG-0.27  OA
BRANCH 6 9
ATOM      9  CA  PHE E  45      25.713  -4.634  21.191  1.00 46.68 LIG 0.18  C 
BRANCH 9 10
ATOM     10  C   PHE E  45      26.463  -3.836  20.134  1.00 48.11 LIG 0.24  C 
ATOM     11 O    PHE E  45      26.224  -2.639  19.964  1.00 49.85 LIG-0.27  OA
ATOM     12  N   GLY E  46      27.374  -4.488  19.423  1.00 50.71 LIG-0.35  N 
ATOM     13 H    GLY E  46      27.567  -5.322  19.511  1.00 50.71 LIG 0.16  HD
BRANCH 12 14
ATOM     14  CA  GLY E  46      28.125  -3.775  18.409  1.00 54.23 LIG 0.21  C 
BRANCH 14 15
ATOM     15  C   GLY E  46      27.946  -4.366  17.029  1.00 55.55 LIG 0.21  C 
ATOM     16 O    GLY E  46      26.829  -4.839  16.746  1.00 59.11 LIG-0.29  OA
ENDBRANCH 14 15
ENDBRANCH 12 14
ENDBRANCH 9 10
BRANCH 9 17
ATOM     17  CB  PHE E  45      26.448  -4.559  22.533  1.00 43.03 LIG 0.07  C 
BRANCH 17 18
ATOM     18  CG  PHE E  45      26.626  -5.896  23.204  1.00 41.93 LIG-0.06  A 
ATOM     19  CD2 PHE E  45      27.699  -6.725  22.875  1.00 42.38 LIG 0.01  A 
ATOM     20  CE2 PHE E  45      27.879  -7.953  23.519  1.00 42.73 LIG 0.00  A 
ATOM     21  CZ  PHE E  45      26.981  -8.360  24.500  1.00 42.74 LIG 0.00  A 
ATOM     22  CE1 PHE E  45      25.907  -7.542  24.838  1.00 41.89 LIG 0.00  A 
ATOM     23  CD1 PHE E  45      25.736  -6.316  24.190  1.00 42.01 LIG 0.01  A 
ENDBRANCH 17 18
ENDBRANCH 9 17
ENDBRANCH 6 9
ENDBRANCH 1 5
BRANCH 1 24
ATOM     24  N   SER E  44      24.111  -8.108  18.161  1.00 46.50 LIG-0.34  N 
ATOM     25  C   PHE E  43      23.448  -9.243  18.202  1.00 47.40 LIG 0.24  C 
ATOM     26 O    PHE E  43      23.589 -10.044  19.122  1.00 45.80 LIG-0.27  OA
ATOM     27 H    SER E  44      24.070  -7.524  17.533  1.00 46.50 LIG 0.16  HD
BRANCH 25 28
ATOM     28  CA  PHE E  43      22.537  -9.548  17.034  1.00 47.87 LIG 0.18  C 
BRANCH 28 29
ATOM     29  CB  PHE E  43      21.518  -8.421  16.899  1.00 42.32 LIG 0.07  C 
BRANCH 29 30
ATOM     30  CG  PHE E  43      20.330  -8.502  17.840  1.00 35.12 LIG-0.06  A 
ATOM     31  CD2 PHE E  43      19.008  -8.638  17.393  1.00 32.72 LIG 0.01  A 
ATOM     32  CE2 PHE E  43      17.937  -8.670  18.329  1.00 30.40 LIG 0.00  A 
ATOM     33  CZ  PHE E  43      18.203  -8.570  19.701  1.00 28.92 LIG 0.00  A 
ATOM     34  CE1 PHE E  43      19.518  -8.435  20.133  1.00 29.46 LIG 0.00  A 
ATOM     35  CD1 PHE E  43      20.560  -8.402  19.203  1.00 34.02 LIG 0.01  A 
ENDBRANCH 29 30
ENDBRANCH 28 29
BRANCH 28 36
ATOM     36  N   PHE E  43      21.939 -10.742  17.558  1.00 51.92 LIG-0.35  N 
ATOM     37  C   GLY E  42      21.398 -11.728  16.866  1.00 55.92 LIG 0.25  C 
ATOM     38 O    GLY E  42      21.302 -11.786  15.632  1.00 57.26 LIG-0.27  OA
ATOM     39 H    PHE E  43      21.965 -10.763  18.418  1.00 51.92 LIG 0.16  HD
BRANCH 37 40
ATOM     40  CA  GLY E  42      20.896 -12.821  17.776  1.00 58.33 LIG 0.47  C 
ATOM     41  N   GLY E  42      20.087 -13.818  17.134  1.00 60.94 LIG 0.61  N 
ENDBRANCH 37 40
ENDBRANCH 28 36
ENDBRANCH 25 28
ENDBRANCH 1 24
TORSDOF 15
ENDMDL
MODEL 21
USER: ADFR SOLUTION from run 187
USER: SCORE 12.236768 LL:  -2.623 LR: -10.601 RR:   0.000 FEB:  -6.126
USER: RMSD 4.393170
USER: SEED 186
USER: STATUS no improvement in best in 8 clusters for 5 generations
USER: GENES 17
USER: genes 0 Translation |==|  0.48465 0.37318 0.42982
USER: genes 1 Rotation |==|  0.71170 0.53006 0.42714 0.94606
USER: genes 2 Torsion [C]-CA--CB-[OG] |==|  0.69005
USER: genes 3 Torsion [CA]-CB--OG-[HG] |==|  0.08237
USER: genes 4 Torsion [N]-CA--C-[N] |==|  0.92918
USER: genes 5 Torsion [C]-N--CA-[C] |==|  0.65819
USER: genes 6 Torsion [N]-CA--C-[N] |==|  0.42670
USER: genes 7 Torsion [C]-N--CA-[C] |==|  0.78674
USER: genes 8 Torsion [N]-CA--C-[O] |==|  0.88869
USER: genes 9 Torsion [N]-CA--CB-[CG] |==|  0.55761
USER: genes 10 Torsion [CA]-CB--CG-[CD2] |==|  0.78072
USER: genes 11 Torsion [CB]-CA--N-[C] |==|  0.21880
USER: genes 12 Torsion [N]-C--CA-[N] |==|  0.42354
USER: genes 13 Torsion [C]-CA--CB-[CG] |==|  0.45959
USER: genes 14 Torsion [CA]-CB--CG-[CD2] |==|  0.52444
USER: genes 15 Torsion [C]-CA--N-[C] |==|  0.64444
USER: genes 16 Torsion [N]-C--CA-[N] |==|  0.51374
ROOT
ATOM      1  CA  SER E  44      26.097 -10.107  17.634  1.00 44.79 LIG 0.20  C 
ENDROOT
BRANCH 1 2
ATOM      2  CB  SER E  44      26.736 -10.609  16.340  1.00 46.10 LIG 0.20  C 
BRANCH 2 3
ATOM      3 OG   SER E  44      25.894 -10.334  15.240  1.00 47.85 LIG-0.40  OA
ATOM      4 HG   SER E  44      25.444  -9.642  15.397  1.00 47.85 LIG 0.21  HD
ENDBRANCH 2 3
ENDBRANCH 1 2
BRANCH 1 5
ATOM      5  C   SER E  44      26.890  -8.940  18.178  1.00 42.78 LIG 0.24  C 
ATOM      6  N   PHE E  45      26.406  -7.744  17.876  1.00 43.36 LIG-0.35  N 
ATOM      7 H    PHE E  45      25.704  -7.616  17.397  1.00 43.36 LIG 0.16  HD
ATOM      8 O    SER E  44      27.924  -9.108  18.827  1.00 37.54 LIG-0.27  OA
BRANCH 6 9
ATOM      9  CA  PHE E  45      27.045  -6.527  18.348  1.00 46.68 LIG 0.18  C 
BRANCH 9 10
ATOM     10  C   PHE E  45      26.020  -5.722  19.134  1.00 48.11 LIG 0.24  C 
ATOM     11 O    PHE E  45      24.816  -5.842  18.903  1.00 49.85 LIG-0.27  OA
ATOM     12  N   GLY E  46      26.488  -4.902  20.067  1.00 50.71 LIG-0.35  N 
ATOM     13 H    GLY E  46      27.319  -4.789  20.256  1.00 50.71 LIG 0.16  HD
BRANCH 12 14
ATOM     14  CA  GLY E  46      25.556  -4.117  20.852  1.00 54.23 LIG 0.21  C 
BRANCH 14 15
ATOM     15  C   GLY E  46      25.008  -2.930  20.091  1.00 55.55 LIG 0.21  C 
ATOM     16 O    GLY E  46      25.800  -2.298  19.366  1.00 59.11 LIG-0.29  OA
ENDBRANCH 14 15
ENDBRANCH 12 14
ENDBRANCH 9 10
BRANCH 9 17
ATOM     17  CB  PHE E  45      27.576  -5.704  17.170  1.00 43.03 LIG 0.07  C 
BRANCH 17 18
ATOM     18  CG  PHE E  45      28.651  -4.719  17.552  1.00 41.93 LIG-0.06  A 
ATOM     19  CD2 PHE E  45      28.328  -3.504  18.154  1.00 42.38 LIG 0.01  A 
ATOM     20  CE2 PHE E  45      29.327  -2.604  18.534  1.00 42.73 LIG 0.00  A 
ATOM     21  CZ  PHE E  45      30.664  -2.918  18.312  1.00 42.74 LIG 0.00  A 
ATOM     22  CE1 PHE E  45      31.001  -4.128  17.713  1.00 41.89 LIG 0.00  A 
ATOM     23  CD1 PHE E  45      29.994  -5.021  17.337  1.00 42.01 LIG 0.01  A 
ENDBRANCH 17 18
ENDBRANCH 9 17
ENDBRANCH 6 9
ENDBRANCH 1 5
BRANCH 1 24
ATOM     24  N   SER E  44      24.706  -9.776  17.408  1.00 46.50 LIG-0.34  N 
ATOM     25  C   PHE E  43      23.834 -10.759  17.361  1.00 47.40 LIG 0.24  C 
ATOM     26 O    PHE E  43      24.176 -11.934  17.468  1.00 45.80 LIG-0.27  OA
ATOM     27 H    SER E  44      24.527  -8.940  17.316  1.00 46.50 LIG 0.16  HD
BRANCH 25 28
ATOM     28  CA  PHE E  43      22.389 -10.385  17.117  1.00 47.87 LIG 0.18  C 
BRANCH 28 29
ATOM     29  CB  PHE E  43      21.701 -10.179  18.463  1.00 42.32 LIG 0.07  C 
BRANCH 29 30
ATOM     30  CG  PHE E  43      20.359  -9.472  18.405  1.00 35.12 LIG-0.06  A 
ATOM     31  CD2 PHE E  43      19.672  -9.040  19.547  1.00 32.72 LIG 0.01  A 
ATOM     32  CE2 PHE E  43      18.399  -8.417  19.423  1.00 30.40 LIG 0.00  A 
ATOM     33  CZ  PHE E  43      17.832  -8.231  18.155  1.00 28.92 LIG 0.00  A 
ATOM     34  CE1 PHE E  43      18.522  -8.664  17.029  1.00 29.46 LIG 0.00  A 
ATOM     35  CD1 PHE E  43      19.770  -9.277  17.165  1.00 34.02 LIG 0.01  A 
ENDBRANCH 29 30
ENDBRANCH 28 29
BRANCH 28 36
ATOM     36  N   PHE E  43      21.973 -11.607  16.491  1.00 51.92 LIG-0.35  N 
ATOM     37  C   GLY E  42      21.348 -11.733  15.335  1.00 55.92 LIG 0.25  C 
ATOM     38 O    GLY E  42      21.000 -10.807  14.589  1.00 57.26 LIG-0.27  OA
ATOM     39 H    PHE E  43      22.179 -12.295  16.964  1.00 51.92 LIG 0.16  HD
BRANCH 37 40
ATOM     40  CA  GLY E  42      21.101 -13.184  15.005  1.00 58.33 LIG 0.47  C 
ATOM     41  N   GLY E  42      20.525 -13.420  13.711  1.00 60.94 LIG 0.61  N 
ENDBRANCH 37 40
ENDBRANCH 28 36
ENDBRANCH 25 28
ENDBRANCH 1 24
TORSDOF 15
ENDMDL
MODEL 22
USER: ADFR SOLUTION from run 15
USER: SCORE 11.801878 LL:  -3.384 LR: -10.575 RR:   0.000 FEB:  -6.101
USER: RMSD 4.825895
USER: SEED 452812
USER: STATUS no improvement in best in 9 clusters for 5 generations
USER: GENES 17
USER: genes 0 Translation |==|  0.48059 0.33802 0.31221
USER: genes 1 Rotation |==|  0.74035 0.61232 0.32538 0.88616
USER: genes 2 Torsion [C]-CA--CB-[OG] |==|  0.76430
USER: genes 3 Torsion [CA]-CB--OG-[HG] |==|  0.90381
USER: genes 4 Torsion [N]-CA--C-[N] |==|  0.93333
USER: genes 5 Torsion [C]-N--CA-[C] |==|  0.56003
USER: genes 6 Torsion [N]-CA--C-[N] |==|  0.50173
USER: genes 7 Torsion [C]-N--CA-[C] |==|  0.83466
USER: genes 8 Torsion [N]-CA--C-[O] |==|  0.23979
USER: genes 9 Torsion [N]-CA--CB-[CG] |==|  0.13674
USER: genes 10 Torsion [CA]-CB--CG-[CD2] |==|  0.23139
USER: genes 11 Torsion [CB]-CA--N-[C] |==|  0.41835
USER: genes 12 Torsion [N]-C--CA-[N] |==|  0.78352
USER: genes 13 Torsion [C]-CA--CB-[CG] |==|  0.48185
USER: genes 14 Torsion [CA]-CB--CG-[CD2] |==|  0.99415
USER: genes 15 Torsion [C]-CA--N-[C] |==|  0.64512
USER: genes 16 Torsion [N]-C--CA-[N] |==|  0.66324
ROOT
ATOM      1  CA  SER E  44      26.003 -10.819  16.135  1.00 44.79 LIG 0.20  C 
ENDROOT
BRANCH 1 2
ATOM      2  CB  SER E  44      25.861 -11.058  14.633  1.00 46.10 LIG 0.20  C 
BRANCH 2 3
ATOM      3 OG   SER E  44      25.242  -9.948  14.016  1.00 47.85 LIG-0.40  OA
ATOM      4 HG   SER E  44      24.674  -9.617  14.539  1.00 47.85 LIG 0.21  HD
ENDBRANCH 2 3
ENDBRANCH 1 2
BRANCH 1 5
ATOM      5  C   SER E  44      27.265 -10.035  16.412  1.00 42.78 LIG 0.24  C 
ATOM      6  N   PHE E  45      27.089  -8.735  16.597  1.00 43.36 LIG-0.35  N 
ATOM      7 H    PHE E  45      26.325  -8.342  16.553  1.00 43.36 LIG 0.16  HD
ATOM      8 O    SER E  44      28.371 -10.578  16.432  1.00 37.54 LIG-0.27  OA
BRANCH 6 9
ATOM      9  CA  PHE E  45      28.205  -7.854  16.897  1.00 46.68 LIG 0.18  C 
BRANCH 9 10
ATOM     10  C   PHE E  45      27.659  -6.601  17.566  1.00 48.11 LIG 0.24  C 
ATOM     11 O    PHE E  45      26.452  -6.478  17.779  1.00 49.85 LIG-0.27  OA
ATOM     12  N   GLY E  46      28.541  -5.668  17.904  1.00 50.71 LIG-0.35  N 
ATOM     13 H    GLY E  46      29.389  -5.716  17.770  1.00 50.71 LIG 0.16  HD
BRANCH 12 14
ATOM     14  CA  GLY E  46      28.077  -4.457  18.552  1.00 54.23 LIG 0.21  C 
BRANCH 14 15
ATOM     15  C   GLY E  46      27.085  -3.688  17.709  1.00 55.55 LIG 0.21  C 
ATOM     16 O    GLY E  46      25.884  -4.009  17.798  1.00 59.11 LIG-0.29  OA
ENDBRANCH 14 15
ENDBRANCH 12 14
ENDBRANCH 9 10
BRANCH 9 17
ATOM     17  CB  PHE E  45      28.962  -7.485  15.616  1.00 43.03 LIG 0.07  C 
BRANCH 17 18
ATOM     18  CG  PHE E  45      28.069  -7.010  14.499  1.00 41.93 LIG-0.06  A 
ATOM     19  CD2 PHE E  45      27.643  -5.684  14.437  1.00 42.38 LIG 0.01  A 
ATOM     20  CE2 PHE E  45      26.839  -5.238  13.384  1.00 42.73 LIG 0.00  A 
ATOM     21  CZ  PHE E  45      26.454  -6.123  12.382  1.00 42.74 LIG 0.00  A 
ATOM     22  CE1 PHE E  45      26.874  -7.450  12.432  1.00 41.89 LIG 0.00  A 
ATOM     23  CD1 PHE E  45      27.678  -7.885  13.488  1.00 42.01 LIG 0.01  A 
ENDBRANCH 17 18
ENDBRANCH 9 17
ENDBRANCH 6 9
ENDBRANCH 1 5
BRANCH 1 24
ATOM     24  N   SER E  44      24.818 -10.165  16.649  1.00 46.50 LIG-0.34  N 
ATOM     25  C   PHE E  43      24.478 -10.391  17.899  1.00 47.40 LIG 0.24  C 
ATOM     26 O    PHE E  43      25.114 -11.161  18.615  1.00 45.80 LIG-0.27  OA
ATOM     27 H    SER E  44      24.398  -9.656  16.098  1.00 46.50 LIG 0.16  HD
BRANCH 25 28
ATOM     28  CA  PHE E  43      23.233  -9.700  18.409  1.00 47.87 LIG 0.18  C 
BRANCH 28 29
ATOM     29  CB  PHE E  43      22.188  -9.690  17.298  1.00 42.32 LIG 0.07  C 
BRANCH 29 30
ATOM     30  CG  PHE E  43      20.820  -9.168  17.697  1.00 35.12 LIG-0.06  A 
ATOM     31  CD2 PHE E  43      20.507  -8.762  19.001  1.00 32.72 LIG 0.01  A 
ATOM     32  CE2 PHE E  43      19.192  -8.318  19.316  1.00 30.40 LIG 0.00  A 
ATOM     33  CZ  PHE E  43      18.209  -8.281  18.319  1.00 28.92 LIG 0.00  A 
ATOM     34  CE1 PHE E  43      18.530  -8.686  17.029  1.00 29.46 LIG 0.00  A 
ATOM     35  CD1 PHE E  43      19.824  -9.123  16.734  1.00 34.02 LIG 0.01  A 
ENDBRANCH 29 30
ENDBRANCH 28 29
BRANCH 28 36
ATOM     36  N   PHE E  43      23.800  -8.399  18.615  1.00 51.92 LIG-0.35  N 
ATOM     37  C   GLY E  42      23.744  -7.674  19.716  1.00 55.92 LIG 0.25  C 
ATOM     38 O    GLY E  42      23.175  -7.992  20.770  1.00 57.26 LIG-0.27  OA
ATOM     39 H    PHE E  43      24.207  -8.113  17.913  1.00 51.92 LIG 0.16  HD
BRANCH 37 40
ATOM     40  CA  GLY E  42      24.483  -6.370  19.549  1.00 58.33 LIG 0.47  C 
ATOM     41  N   GLY E  42      25.554  -6.158  20.480  1.00 60.94 LIG 0.61  N 
ENDBRANCH 37 40
ENDBRANCH 28 36
ENDBRANCH 25 28
ENDBRANCH 1 24
TORSDOF 15
ENDMDL
MODEL 23
USER: ADFR SOLUTION from run 43
USER: SCORE 11.645914 LL:  -2.383 LR: -10.507 RR:   0.000 FEB:  -6.032
USER: RMSD 8.746381
USER: SEED 42
USER: STATUS no improvement in best in 11 clusters for 5 generations
USER: GENES 17
USER: genes 0 Translation |==|  0.45373 0.42801 0.47070
USER: genes 1 Rotation |==|  0.19215 0.83157 0.63857 0.66152
USER: genes 2 Torsion [C]-CA--CB-[OG] |==|  0.27409
USER: genes 3 Torsion [CA]-CB--OG-[HG] |==|  0.95408
USER: genes 4 Torsion [N]-CA--C-[N] |==|  0.46111
USER: genes 5 Torsion [C]-N--CA-[C] |==|  0.62579
USER: genes 6 Torsion [N]-CA--C-[N] |==|  0.39217
USER: genes 7 Torsion [C]-N--CA-[C] |==|  0.56997
USER: genes 8 Torsion [N]-CA--C-[O] |==|  0.93283
USER: genes 9 Torsion [N]-CA--CB-[CG] |==|  0.68789
USER: genes 10 Torsion [CA]-CB--CG-[CD2] |==|  0.10758
USER: genes 11 Torsion [CB]-CA--N-[C] |==|  0.49508
USER: genes 12 Torsion [N]-C--CA-[N] |==|  0.90139
USER: genes 13 Torsion [C]-CA--CB-[CG] |==|  0.15984
USER: genes 14 Torsion [CA]-CB--CG-[CD2] |==|  0.71949
USER: genes 15 Torsion [C]-CA--N-[C] |==|  0.63042
USER: genes 16 Torsion [N]-C--CA-[N] |==|  0.67209
ROOT
ATOM      1  CA  SER E  44      25.378  -8.997  18.155  1.00 44.79 LIG 0.20  C 
ENDROOT
BRANCH 1 2
ATOM      2  CB  SER E  44      26.358 -10.073  17.692  1.00 46.10 LIG 0.20  C 
BRANCH 2 3
ATOM      3 OG   SER E  44      26.649  -9.913  16.319  1.00 47.85 LIG-0.40  OA
ATOM      4 HG   SER E  44      26.073  -9.414  15.967  1.00 47.85 LIG 0.21  HD
ENDBRANCH 2 3
ENDBRANCH 1 2
BRANCH 1 5
ATOM      5  C   SER E  44      23.975  -9.559  18.183  1.00 42.78 LIG 0.24  C 
ATOM      6  N   PHE E  45      23.440  -9.789  16.993  1.00 43.36 LIG-0.35  N 
ATOM      7 H    PHE E  45      23.835  -9.625  16.247  1.00 43.36 LIG 0.16  HD
ATOM      8 O    SER E  44      23.378  -9.754  19.243  1.00 37.54 LIG-0.27  OA
BRANCH 6 9
ATOM      9  CA  PHE E  45      22.106 -10.351  16.858  1.00 46.68 LIG 0.18  C 
BRANCH 9 10
ATOM     10  C   PHE E  45      22.154 -11.449  15.804  1.00 48.11 LIG 0.24  C 
ATOM     11 O    PHE E  45      22.843 -11.317  14.791  1.00 49.85 LIG-0.27  OA
ATOM     12  N   GLY E  46      21.429 -12.536  16.036  1.00 50.71 LIG-0.35  N 
ATOM     13 H    GLY E  46      20.935 -12.664  16.729  1.00 50.71 LIG 0.16  HD
BRANCH 12 14
ATOM     14  CA  GLY E  46      21.444 -13.617  15.070  1.00 54.23 LIG 0.21  C 
BRANCH 14 15
ATOM     15  C   GLY E  46      20.192 -14.463  15.123  1.00 55.55 LIG 0.21  C 
ATOM     16 O    GLY E  46      19.552 -14.476  16.191  1.00 59.11 LIG-0.29  OA
ENDBRANCH 14 15
ENDBRANCH 12 14
ENDBRANCH 9 10
BRANCH 9 17
ATOM     17  CB  PHE E  45      21.102  -9.268  16.449  1.00 43.03 LIG 0.07  C 
BRANCH 17 18
ATOM     18  CG  PHE E  45      20.088  -8.946  17.517  1.00 41.93 LIG-0.06  A 
ATOM     19  CD2 PHE E  45      20.456  -8.899  18.862  1.00 42.38 LIG 0.01  A 
ATOM     20  CE2 PHE E  45      19.522  -8.572  19.849  1.00 42.73 LIG 0.00  A 
ATOM     21  CZ  PHE E  45      18.207  -8.289  19.493  1.00 42.74 LIG 0.00  A 
ATOM     22  CE1 PHE E  45      17.827  -8.331  18.154  1.00 41.89 LIG 0.00  A 
ATOM     23  CD1 PHE E  45      18.769  -8.659  17.175  1.00 42.01 LIG 0.01  A 
ENDBRANCH 17 18
ENDBRANCH 9 17
ENDBRANCH 6 9
ENDBRANCH 1 5
BRANCH 1 24
ATOM     24  N   SER E  44      25.789  -8.467  19.439  1.00 46.50 LIG-0.34  N 
ATOM     25  C   PHE E  43      25.072  -7.501  19.969  1.00 47.40 LIG 0.24  C 
ATOM     26 O    PHE E  43      24.098  -7.024  19.391  1.00 45.80 LIG-0.27  OA
ATOM     27 H    SER E  44      26.491  -8.821  19.786  1.00 46.50 LIG 0.16  HD
BRANCH 25 28
ATOM     28  CA  PHE E  43      25.527  -6.962  21.307  1.00 47.87 LIG 0.18  C 
BRANCH 28 29
ATOM     29  CB  PHE E  43      26.664  -5.971  21.076  1.00 42.32 LIG 0.07  C 
BRANCH 29 30
ATOM     30  CG  PHE E  43      26.333  -4.802  20.166  1.00 35.12 LIG-0.06  A 
ATOM     31  CD2 PHE E  43      26.721  -4.745  18.821  1.00 32.72 LIG 0.01  A 
ATOM     32  CE2 PHE E  43      26.410  -3.601  18.035  1.00 30.40 LIG 0.00  A 
ATOM     33  CZ  PHE E  43      25.709  -2.530  18.604  1.00 28.92 LIG 0.00  A 
ATOM     34  CE1 PHE E  43      25.330  -2.597  19.940  1.00 29.46 LIG 0.00  A 
ATOM     35  CD1 PHE E  43      25.645  -3.725  20.702  1.00 34.02 LIG 0.01  A 
ENDBRANCH 29 30
ENDBRANCH 28 29
BRANCH 28 36
ATOM     36  N   PHE E  43      26.004  -8.194  21.864  1.00 51.92 LIG-0.35  N 
ATOM     37  C   GLY E  42      25.754  -8.669  23.070  1.00 55.92 LIG 0.25  C 
ATOM     38 O    GLY E  42      25.067  -8.120  23.942  1.00 57.26 LIG-0.27  OA
ATOM     39 H    PHE E  43      26.499  -8.627  21.308  1.00 51.92 LIG 0.16  HD
BRANCH 37 40
ATOM     40  CA  GLY E  42      26.416 -10.009  23.276  1.00 58.33 LIG 0.47  C 
ATOM     41  N   GLY E  42      25.514 -11.097  23.525  1.00 60.94 LIG 0.61  N 
ENDBRANCH 37 40
ENDBRANCH 28 36
ENDBRANCH 25 28
ENDBRANCH 1 24
TORSDOF 15
ENDMDL
MODEL 24
USER: ADFR SOLUTION from run 42
USER: SCORE 11.548221 LL:  -2.965 LR: -10.492 RR:   0.000 FEB:  -6.018
USER: RMSD 8.850749
USER: SEED 41
USER: STATUS no improvement in best in 13 clusters for 5 generations
USER: GENES 17
USER: genes 0 Translation |==|  0.46249 0.46137 0.50605
USER: genes 1 Rotation |==|  0.22158 0.86274 0.70224 0.50129
USER: genes 2 Torsion [C]-CA--CB-[OG] |==|  0.46960
USER: genes 3 Torsion [CA]-CB--OG-[HG] |==|  0.78643
USER: genes 4 Torsion [N]-CA--C-[N] |==|  0.35646
USER: genes 5 Torsion [C]-N--CA-[C] |==|  0.72877
USER: genes 6 Torsion [N]-CA--C-[N] |==|  0.96410
USER: genes 7 Torsion [C]-N--CA-[C] |==|  0.35173
USER: genes 8 Torsion [N]-CA--C-[O] |==|  0.03902
USER: genes 9 Torsion [N]-CA--CB-[CG] |==|  0.23732
USER: genes 10 Torsion [CA]-CB--CG-[CD2] |==|  0.85083
USER: genes 11 Torsion [CB]-CA--N-[C] |==|  0.37525
USER: genes 12 Torsion [N]-C--CA-[N] |==|  0.32778
USER: genes 13 Torsion [C]-CA--CB-[CG] |==|  0.23768
USER: genes 14 Torsion [CA]-CB--CG-[CD2] |==|  0.38105
USER: genes 15 Torsion [C]-CA--N-[C] |==|  0.78325
USER: genes 16 Torsion [N]-C--CA-[N] |==|  0.27073
ROOT
ATOM      1  CA  SER E  44      25.582  -8.321  18.606  1.00 44.79 LIG 0.20  C 
ENDROOT
BRANCH 1 2
ATOM      2  CB  SER E  44      26.252  -9.452  17.828  1.00 46.10 LIG 0.20  C 
BRANCH 2 3
ATOM      3 OG   SER E  44      26.978  -8.931  16.734  1.00 47.85 LIG-0.40  OA
ATOM      4 HG   SER E  44      26.446  -8.726  16.117  1.00 47.85 LIG 0.21  HD
ENDBRANCH 2 3
ENDBRANCH 1 2
BRANCH 1 5
ATOM      5  C   SER E  44      24.600  -8.896  19.602  1.00 42.78 LIG 0.24  C 
ATOM      6  N   PHE E  45      23.323  -8.705  19.304  1.00 43.36 LIG-0.35  N 
ATOM      7 H    PHE E  45      23.049  -8.277  18.610  1.00 43.36 LIG 0.16  HD
ATOM      8 O    SER E  44      24.978  -9.470  20.624  1.00 37.54 LIG-0.27  OA
BRANCH 6 9
ATOM      9  CA  PHE E  45      22.262  -9.221  20.153  1.00 46.68 LIG 0.18  C 
BRANCH 9 10
ATOM     10  C   PHE E  45      21.773 -10.536  19.563  1.00 48.11 LIG 0.24  C 
ATOM     11 O    PHE E  45      21.045 -11.285  20.217  1.00 49.85 LIG-0.27  OA
ATOM     12  N   GLY E  46      22.166 -10.824  18.329  1.00 50.71 LIG-0.35  N 
ATOM     13 H    GLY E  46      22.675 -10.329  17.843  1.00 50.71 LIG 0.16  HD
BRANCH 12 14
ATOM     14  CA  GLY E  46      21.724 -12.060  17.715  1.00 54.23 LIG 0.21  C 
BRANCH 14 15
ATOM     15  C   GLY E  46      21.070 -11.841  16.369  1.00 55.55 LIG 0.21  C 
ATOM     16 O    GLY E  46      21.221 -10.728  15.831  1.00 59.11 LIG-0.29  OA
ENDBRANCH 14 15
ENDBRANCH 12 14
ENDBRANCH 9 10
BRANCH 9 17
ATOM     17  CB  PHE E  45      21.106  -8.218  20.242  1.00 43.03 LIG 0.07  C 
BRANCH 17 18
ATOM     18  CG  PHE E  45      20.111  -8.336  19.117  1.00 41.93 LIG-0.06  A 
ATOM     19  CD2 PHE E  45      20.526  -8.289  17.786  1.00 42.38 LIG 0.01  A 
ATOM     20  CE2 PHE E  45      19.605  -8.428  16.743  1.00 42.73 LIG 0.00  A 
ATOM     21  CZ  PHE E  45      18.256  -8.614  17.029  1.00 42.74 LIG 0.00  A 
ATOM     22  CE1 PHE E  45      17.830  -8.664  18.353  1.00 41.89 LIG 0.00  A 
ATOM     23  CD1 PHE E  45      18.757  -8.525  19.388  1.00 42.01 LIG 0.01  A 
ENDBRANCH 17 18
ENDBRANCH 9 17
ENDBRANCH 6 9
ENDBRANCH 1 5
BRANCH 1 24
ATOM     24  N   SER E  44      26.584  -7.486  19.234  1.00 46.50 LIG-0.34  N 
ATOM     25  C   PHE E  43      26.444  -6.181  19.150  1.00 47.40 LIG 0.24  C 
ATOM     26 O    PHE E  43      25.516  -5.666  18.531  1.00 45.80 LIG-0.27  OA
ATOM     27 H    SER E  44      27.224  -7.898  19.632  1.00 46.50 LIG 0.16  HD
BRANCH 25 28
ATOM     28  CA  PHE E  43      27.508  -5.332  19.809  1.00 47.87 LIG 0.18  C 
BRANCH 28 29
ATOM     29  CB  PHE E  43      26.835  -4.358  20.771  1.00 42.32 LIG 0.07  C 
BRANCH 29 30
ATOM     30  CG  PHE E  43      26.563  -4.902  22.161  1.00 35.12 LIG-0.06  A 
ATOM     31  CD2 PHE E  43      26.794  -4.164  23.330  1.00 32.72 LIG 0.01  A 
ATOM     32  CE2 PHE E  43      26.552  -4.749  24.604  1.00 30.40 LIG 0.00  A 
ATOM     33  CZ  PHE E  43      26.077  -6.064  24.692  1.00 28.92 LIG 0.00  A 
ATOM     34  CE1 PHE E  43      25.852  -6.787  23.526  1.00 29.46 LIG 0.00  A 
ATOM     35  CD1 PHE E  43      26.097  -6.202  22.281  1.00 34.02 LIG 0.01  A 
ENDBRANCH 29 30
ENDBRANCH 28 29
BRANCH 28 36
ATOM     36  N   PHE E  43      27.987  -4.668  18.631  1.00 51.92 LIG-0.35  N 
ATOM     37  C   GLY E  42      28.797  -5.163  17.714  1.00 55.92 LIG 0.25  C 
ATOM     38 O    GLY E  42      29.298  -6.296  17.719  1.00 57.26 LIG-0.27  OA
ATOM     39 H    PHE E  43      27.681  -3.866  18.570  1.00 51.92 LIG 0.16  HD
BRANCH 37 40
ATOM     40  CA  GLY E  42      29.050  -4.164  16.613  1.00 58.33 LIG 0.47  C 
ATOM     41  N   GLY E  42      30.269  -3.416  16.744  1.00 60.94 LIG 0.61  N 
ENDBRANCH 37 40
ENDBRANCH 28 36
ENDBRANCH 25 28
ENDBRANCH 1 24
TORSDOF 15
ENDMDL
MODEL 25
USER: ADFR SOLUTION from run 118
USER: SCORE 12.691567 LL:  -3.062 LR: -10.475 RR:   0.000 FEB:  -6.001
USER: RMSD 4.240447
USER: SEED 117
USER: STATUS no improvement in best in 10 clusters for 5 generations
USER: GENES 17
USER: genes 0 Translation |==|  0.48427 0.49669 0.54604
USER: genes 1 Rotation |==|  0.72604 0.52221 0.65609 0.91719
USER: genes 2 Torsion [C]-CA--CB-[OG] |==|  0.61964
USER: genes 3 Torsion [CA]-CB--OG-[HG] |==|  0.18225
USER: genes 4 Torsion [N]-CA--C-[N] |==|  0.46612
USER: genes 5 Torsion [C]-N--CA-[C] |==|  0.83470
USER: genes 6 Torsion [N]-CA--C-[N] |==|  0.90307
USER: genes 7 Torsion [C]-N--CA-[C] |==|  0.75946
USER: genes 8 Torsion [N]-CA--C-[O] |==|  0.99600
USER: genes 9 Torsion [N]-CA--CB-[CG] |==|  0.08490
USER: genes 10 Torsion [CA]-CB--CG-[CD2] |==|  0.68958
USER: genes 11 Torsion [CB]-CA--N-[C] |==|  0.48334
USER: genes 12 Torsion [N]-C--CA-[N] |==|  0.44498
USER: genes 13 Torsion [C]-CA--CB-[CG] |==|  0.70759
USER: genes 14 Torsion [CA]-CB--CG-[CD2] |==|  0.67355
USER: genes 15 Torsion [C]-CA--N-[C] |==|  0.56630
USER: genes 16 Torsion [N]-C--CA-[N] |==|  0.57719
ROOT
ATOM      1  CA  SER E  44      26.088  -7.606  19.116  1.00 44.79 LIG 0.20  C 
ENDROOT
BRANCH 1 2
ATOM      2  CB  SER E  44      27.248  -7.136  18.239  1.00 46.10 LIG 0.20  C 
BRANCH 2 3
ATOM      3 OG   SER E  44      27.144  -7.697  16.947  1.00 47.85 LIG-0.40  OA
ATOM      4 HG   SER E  44      26.458  -7.398  16.566  1.00 47.85 LIG 0.21  HD
ENDBRANCH 2 3
ENDBRANCH 1 2
BRANCH 1 5
ATOM      5  C   SER E  44      25.545  -6.442  19.915  1.00 42.78 LIG 0.24  C 
ATOM      6  N   PHE E  45      26.354  -5.985  20.859  1.00 43.36 LIG-0.35  N 
ATOM      7 H    PHE E  45      27.128  -6.317  21.033  1.00 43.36 LIG 0.16  HD
ATOM      8 O    SER E  44      24.419  -5.987  19.708  1.00 37.54 LIG-0.27  OA
BRANCH 6 9
ATOM      9  CA  PHE E  45      25.981  -4.854  21.693  1.00 46.68 LIG 0.18  C 
BRANCH 9 10
ATOM     10  C   PHE E  45      25.738  -3.653  20.791  1.00 48.11 LIG 0.24  C 
ATOM     11 O    PHE E  45      24.867  -2.826  21.067  1.00 49.85 LIG-0.27  OA
ATOM     12  N   GLY E  46      26.505  -3.546  19.713  1.00 50.71 LIG-0.35  N 
ATOM     13 H    GLY E  46      27.120  -4.102  19.486  1.00 50.71 LIG 0.16  HD
BRANCH 12 14
ATOM     14  CA  GLY E  46      26.323  -2.416  18.823  1.00 54.23 LIG 0.21  C 
BRANCH 14 15
ATOM     15  C   GLY E  46      25.257  -2.663  17.779  1.00 55.55 LIG 0.21  C 
ATOM     16 O    GLY E  46      24.697  -3.776  17.781  1.00 59.11 LIG-0.29  OA
ENDBRANCH 14 15
ENDBRANCH 12 14
ENDBRANCH 9 10
BRANCH 9 17
ATOM     17  CB  PHE E  45      27.088  -4.542  22.706  1.00 43.03 LIG 0.07  C 
BRANCH 17 18
ATOM     18  CG  PHE E  45      28.473  -4.876  22.215  1.00 41.93 LIG-0.06  A 
ATOM     19  CD2 PHE E  45      29.204  -5.916  22.788  1.00 42.38 LIG 0.01  A 
ATOM     20  CE2 PHE E  45      30.476  -6.244  22.313  1.00 42.73 LIG 0.00  A 
ATOM     21  CZ  PHE E  45      31.028  -5.527  21.256  1.00 42.74 LIG 0.00  A 
ATOM     22  CE1 PHE E  45      30.309  -4.487  20.675  1.00 41.89 LIG 0.00  A 
ATOM     23  CD1 PHE E  45      29.037  -4.167  21.156  1.00 42.01 LIG 0.01  A 
ENDBRANCH 17 18
ENDBRANCH 9 17
ENDBRANCH 6 9
ENDBRANCH 1 5
BRANCH 1 24
ATOM     24  N   SER E  44      25.074  -8.242  18.302  1.00 46.50 LIG-0.34  N 
ATOM     25  C   PHE E  43      24.058  -8.813  18.912  1.00 47.40 LIG 0.24  C 
ATOM     26 O    PHE E  43      23.973  -8.848  20.136  1.00 45.80 LIG-0.27  OA
ATOM     27 H    SER E  44      25.196  -8.209  17.452  1.00 46.50 LIG 0.16  HD
BRANCH 25 28
ATOM     28  CA  PHE E  43      23.017  -9.476  18.038  1.00 47.87 LIG 0.18  C 
BRANCH 28 29
ATOM     29  CB  PHE E  43      22.030  -8.416  17.560  1.00 42.32 LIG 0.07  C 
BRANCH 29 30
ATOM     30  CG  PHE E  43      20.673  -8.438  18.239  1.00 35.12 LIG-0.06  A 
ATOM     31  CD2 PHE E  43      19.477  -8.685  17.552  1.00 32.72 LIG 0.01  A 
ATOM     32  CE2 PHE E  43      18.235  -8.654  18.244  1.00 30.40 LIG 0.00  A 
ATOM     33  CZ  PHE E  43      18.206  -8.381  19.618  1.00 28.92 LIG 0.00  A 
ATOM     34  CE1 PHE E  43      19.398  -8.136  20.290  1.00 29.46 LIG 0.00  A 
ATOM     35  CD1 PHE E  43      20.611  -8.167  19.597  1.00 34.02 LIG 0.01  A 
ENDBRANCH 29 30
ENDBRANCH 28 29
BRANCH 28 36
ATOM     36  N   PHE E  43      22.438 -10.329  19.034  1.00 51.92 LIG-0.35  N 
ATOM     37  C   GLY E  42      21.780 -11.456  18.830  1.00 55.92 LIG 0.25  C 
ATOM     38 O    GLY E  42      21.537 -11.969  17.729  1.00 57.26 LIG-0.27  OA
ATOM     39 H    PHE E  43      22.563 -10.024  19.829  1.00 51.92 LIG 0.16  HD
BRANCH 37 40
ATOM     40  CA  GLY E  42      21.345 -12.077  20.134  1.00 58.33 LIG 0.47  C 
ATOM     41  N   GLY E  42      21.205 -13.506  20.106  1.00 60.94 LIG 0.61  N 
ENDBRANCH 37 40
ENDBRANCH 28 36
ENDBRANCH 25 28
ENDBRANCH 1 24
TORSDOF 15
ENDMDL
MODEL 26
USER: ADFR SOLUTION from run 152
USER: SCORE 12.667984 LL:  -3.473 LR: -10.463 RR:   0.000 FEB:  -5.988
USER: RMSD 11.162669
USER: SEED 151
USER: STATUS no improvement in best in 7 clusters for 5 generations
USER: GENES 17
USER: genes 0 Translation |==|  0.25418 0.28238 0.13263
USER: genes 1 Rotation |==|  0.78810 0.34659 0.12488 0.55240
USER: genes 2 Torsion [C]-CA--CB-[OG] |==|  0.62915
USER: genes 3 Torsion [CA]-CB--OG-[HG] |==|  0.13035
USER: genes 4 Torsion [N]-CA--C-[N] |==|  0.28586
USER: genes 5 Torsion [C]-N--CA-[C] |==|  0.66198
USER: genes 6 Torsion [N]-CA--C-[N] |==|  0.99601
USER: genes 7 Torsion [C]-N--CA-[C] |==|  0.20407
USER: genes 8 Torsion [N]-CA--C-[O] |==|  0.03868
USER: genes 9 Torsion [N]-CA--CB-[CG] |==|  0.82192
USER: genes 10 Torsion [CA]-CB--CG-[CD2] |==|  0.84040
USER: genes 11 Torsion [CB]-CA--N-[C] |==|  0.49546
USER: genes 12 Torsion [N]-C--CA-[N] |==|  0.91275
USER: genes 13 Torsion [C]-CA--CB-[CG] |==|  0.19663
USER: genes 14 Torsion [CA]-CB--CG-[CD2] |==|  0.73088
USER: genes 15 Torsion [C]-CA--N-[C] |==|  0.82669
USER: genes 16 Torsion [N]-C--CA-[N] |==|  0.78809
ROOT
ATOM      1  CA  SER E  44      20.739 -11.946  13.845  1.00 44.79 LIG 0.20  C 
ENDROOT
BRANCH 1 2
ATOM      2  CB  SER E  44      21.040 -11.777  12.357  1.00 46.10 LIG 0.20  C 
BRANCH 2 3
ATOM      3 OG   SER E  44      21.907 -10.680  12.154  1.00 47.85 LIG-0.40  OA
ATOM      4 HG   SER E  44      22.544 -10.722  12.699  1.00 47.85 LIG 0.21  HD
ENDBRANCH 2 3
ENDBRANCH 1 2
BRANCH 1 5
ATOM      5  C   SER E  44      20.883 -13.399  14.236  1.00 42.78 LIG 0.24  C 
ATOM      6  N   PHE E  45      19.900 -13.879  14.983  1.00 43.36 LIG-0.35  N 
ATOM      7 H    PHE E  45      19.227 -13.415  15.250  1.00 43.36 LIG 0.16  HD
ATOM      8 O    SER E  44      21.865 -14.063  13.901  1.00 37.54 LIG-0.27  OA
BRANCH 6 9
ATOM      9  CA  PHE E  45      19.886 -15.266  15.417  1.00 46.68 LIG 0.18  C 
BRANCH 9 10
ATOM     10  C   PHE E  45      18.607 -15.915  14.908  1.00 48.11 LIG 0.24  C 
ATOM     11 O    PHE E  45      18.375 -17.105  15.129  1.00 49.85 LIG-0.27  OA
ATOM     12  N   GLY E  46      17.771 -15.141  14.228  1.00 50.71 LIG-0.35  N 
ATOM     13 H    GLY E  46      17.898 -14.309  14.051  1.00 50.71 LIG 0.16  HD
BRANCH 12 14
ATOM     14  CA  GLY E  46      16.533 -15.705  13.726  1.00 54.23 LIG 0.21  C 
BRANCH 14 15
ATOM     15  C   GLY E  46      15.518 -15.948  14.820  1.00 55.55 LIG 0.21  C 
ATOM     16 O    GLY E  46      15.726 -15.414  15.926  1.00 59.11 LIG-0.29  OA
ENDBRANCH 14 15
ENDBRANCH 12 14
ENDBRANCH 9 10
BRANCH 9 17
ATOM     17  CB  PHE E  45      19.953 -15.354  16.946  1.00 43.03 LIG 0.07  C 
BRANCH 17 18
ATOM     18  CG  PHE E  45      21.234 -14.818  17.530  1.00 41.93 LIG-0.06  A 
ATOM     19  CD2 PHE E  45      22.469 -15.338  17.145  1.00 42.38 LIG 0.01  A 
ATOM     20  CE2 PHE E  45      23.659 -14.821  17.666  1.00 42.73 LIG 0.00  A 
ATOM     21  CZ  PHE E  45      23.617 -13.774  18.582  1.00 42.74 LIG 0.00  A 
ATOM     22  CE1 PHE E  45      22.391 -13.245  18.974  1.00 41.89 LIG 0.00  A 
ATOM     23  CD1 PHE E  45      21.208 -13.769  18.447  1.00 42.01 LIG 0.01  A 
ENDBRANCH 17 18
ENDBRANCH 9 17
ENDBRANCH 6 9
ENDBRANCH 1 5
BRANCH 1 24
ATOM     24  N   SER E  44      21.588 -11.073  14.628  1.00 46.50 LIG-0.34  N 
ATOM     25  C   PHE E  43      21.436 -11.068  15.934  1.00 47.40 LIG 0.24  C 
ATOM     26 O    PHE E  43      20.579 -11.750  16.490  1.00 45.80 LIG-0.27  OA
ATOM     27 H    SER E  44      22.153 -10.600  14.186  1.00 46.50 LIG 0.16  HD
BRANCH 25 28
ATOM     28  CA  PHE E  43      22.331 -10.142  16.727  1.00 47.87 LIG 0.18  C 
BRANCH 28 29
ATOM     29  CB  PHE E  43      21.701  -8.753  16.754  1.00 42.32 LIG 0.07  C 
BRANCH 29 30
ATOM     30  CG  PHE E  43      20.449  -8.623  17.602  1.00 35.12 LIG-0.06  A 
ATOM     31  CD2 PHE E  43      19.155  -8.701  17.072  1.00 32.72 LIG 0.01  A 
ATOM     32  CE2 PHE E  43      18.024  -8.533  17.919  1.00 30.40 LIG 0.00  A 
ATOM     33  CZ  PHE E  43      18.204  -8.294  19.287  1.00 28.92 LIG 0.00  A 
ATOM     34  CE1 PHE E  43      19.493  -8.219  19.803  1.00 29.46 LIG 0.00  A 
ATOM     35  CD1 PHE E  43      20.595  -8.382  18.959  1.00 34.02 LIG 0.01  A 
ENDBRANCH 29 30
ENDBRANCH 28 29
BRANCH 28 36
ATOM     36  N   PHE E  43      23.475 -10.188  15.863  1.00 51.92 LIG-0.35  N 
ATOM     37  C   GLY E  42      24.202 -11.248  15.564  1.00 55.92 LIG 0.25  C 
ATOM     38 O    GLY E  42      24.026 -12.397  15.993  1.00 57.26 LIG-0.27  OA
ATOM     39 H    PHE E  43      23.660  -9.414  15.534  1.00 51.92 LIG 0.16  HD
BRANCH 37 40
ATOM     40  CA  GLY E  42      25.309 -10.897  14.601  1.00 58.33 LIG 0.47  C 
ATOM     41  N   GLY E  42      24.890 -10.714  13.240  1.00 60.94 LIG 0.61  N 
ENDBRANCH 37 40
ENDBRANCH 28 36
ENDBRANCH 25 28
ENDBRANCH 1 24
TORSDOF 15
ENDMDL
MODEL 27
USER: ADFR SOLUTION from run 136
USER: SCORE 12.660129 LL:  -3.042 LR: -10.423 RR:   0.000 FEB:  -5.948
USER: RMSD 8.427122
USER: SEED 135
USER: STATUS no improvement in best in 16 clusters for 5 generations
USER: GENES 17
USER: genes 0 Translation |==|  0.44976 0.59374 0.63577
USER: genes 1 Rotation |==|  0.39635 0.63398 0.96325 0.58188
USER: genes 2 Torsion [C]-CA--CB-[OG] |==|  0.72497
USER: genes 3 Torsion [CA]-CB--OG-[HG] |==|  0.72986
USER: genes 4 Torsion [N]-CA--C-[N] |==|  0.66600
USER: genes 5 Torsion [C]-N--CA-[C] |==|  0.80460
USER: genes 6 Torsion [N]-CA--C-[N] |==|  0.86667
USER: genes 7 Torsion [C]-N--CA-[C] |==|  0.77610
USER: genes 8 Torsion [N]-CA--C-[O] |==|  0.93772
USER: genes 9 Torsion [N]-CA--CB-[CG] |==|  0.68042
USER: genes 10 Torsion [CA]-CB--CG-[CD2] |==|  0.03824
USER: genes 11 Torsion [CB]-CA--N-[C] |==|  0.17691
USER: genes 12 Torsion [N]-C--CA-[N] |==|  0.40401
USER: genes 13 Torsion [C]-CA--CB-[CG] |==|  0.07587
USER: genes 14 Torsion [CA]-CB--CG-[CD2] |==|  0.20883
USER: genes 15 Torsion [C]-CA--N-[C] |==|  0.79907
USER: genes 16 Torsion [N]-C--CA-[N] |==|  0.33571
ROOT
ATOM      1  CA  SER E  44      25.286  -5.641  20.260  1.00 44.79 LIG 0.20  C 
ENDROOT
BRANCH 1 2
ATOM      2  CB  SER E  44      24.986  -4.848  18.989  1.00 46.10 LIG 0.20  C 
BRANCH 2 3
ATOM      3 OG   SER E  44      26.048  -4.982  18.067  1.00 47.85 LIG-0.40  OA
ATOM      4 HG   SER E  44      26.560  -4.319  18.130  1.00 47.85 LIG 0.21  HD
ENDBRANCH 2 3
ENDBRANCH 1 2
BRANCH 1 5
ATOM      5  C   SER E  44      24.566  -6.970  20.217  1.00 42.78 LIG 0.24  C 
ATOM      6  N   PHE E  45      23.891  -7.206  19.102  1.00 43.36 LIG-0.35  N 
ATOM      7 H    PHE E  45      23.839  -6.654  18.444  1.00 43.36 LIG 0.16  HD
ATOM      8 O    SER E  44      24.593  -7.750  21.171  1.00 37.54 LIG-0.27  OA
BRANCH 6 9
ATOM      9  CA  PHE E  45      23.168  -8.451  18.903  1.00 46.68 LIG 0.18  C 
BRANCH 9 10
ATOM     10  C   PHE E  45      24.184  -9.571  18.722  1.00 48.11 LIG 0.24  C 
ATOM     11 O    PHE E  45      24.074 -10.626  19.349  1.00 49.85 LIG-0.27  OA
ATOM     12  N   GLY E  46      25.173  -9.351  17.865  1.00 50.71 LIG-0.35  N 
ATOM     13 H    GLY E  46      25.285  -8.629  17.412  1.00 50.71 LIG 0.16  HD
BRANCH 12 14
ATOM     14  CA  GLY E  46      26.163 -10.387  17.646  1.00 54.23 LIG 0.21  C 
BRANCH 14 15
ATOM     15  C   GLY E  46      27.221 -10.418  18.726  1.00 55.55 LIG 0.21  C 
ATOM     16 O    GLY E  46      27.400  -9.377  19.386  1.00 59.11 LIG-0.29  OA
ENDBRANCH 14 15
ENDBRANCH 12 14
ENDBRANCH 9 10
BRANCH 9 17
ATOM     17  CB  PHE E  45      22.257  -8.357  17.675  1.00 43.03 LIG 0.07  C 
BRANCH 17 18
ATOM     18  CG  PHE E  45      20.788  -8.444  17.999  1.00 41.93 LIG-0.06  A 
ATOM     19  CD2 PHE E  45      20.336  -8.310  19.312  1.00 42.38 LIG 0.01  A 
ATOM     20  CE2 PHE E  45      18.971  -8.362  19.608  1.00 42.73 LIG 0.00  A 
ATOM     21  CZ  PHE E  45      18.046  -8.552  18.586  1.00 42.74 LIG 0.00  A 
ATOM     22  CE1 PHE E  45      18.485  -8.686  17.271  1.00 41.89 LIG 0.00  A 
ATOM     23  CD1 PHE E  45      19.851  -8.632  16.986  1.00 42.01 LIG 0.01  A 
ENDBRANCH 17 18
ENDBRANCH 9 17
ENDBRANCH 6 9
ENDBRANCH 1 5
BRANCH 1 24
ATOM     24  N   SER E  44      26.716  -5.789  20.430  1.00 46.50 LIG-0.34  N 
ATOM     25  C   PHE E  43      27.435  -4.703  20.614  1.00 47.40 LIG 0.24  C 
ATOM     26 O    PHE E  43      26.930  -3.584  20.610  1.00 45.80 LIG-0.27  OA
ATOM     27 H    SER E  44      27.019  -6.593  20.399  1.00 46.50 LIG 0.16  HD
BRANCH 25 28
ATOM     28  CA  PHE E  43      28.927  -4.887  20.782  1.00 47.87 LIG 0.18  C 
BRANCH 28 29
ATOM     29  CB  PHE E  43      29.261  -4.863  22.270  1.00 42.32 LIG 0.07  C 
BRANCH 29 30
ATOM     30  CG  PHE E  43      28.144  -5.314  23.194  1.00 35.12 LIG-0.06  A 
ATOM     31  CD2 PHE E  43      27.780  -6.657  23.355  1.00 32.72 LIG 0.01  A 
ATOM     32  CE2 PHE E  43      26.697  -7.007  24.210  1.00 30.40 LIG 0.00  A 
ATOM     33  CZ  PHE E  43      25.996  -6.007  24.896  1.00 28.92 LIG 0.00  A 
ATOM     34  CE1 PHE E  43      26.366  -4.677  24.729  1.00 29.46 LIG 0.00  A 
ATOM     35  CD1 PHE E  43      27.429  -4.347  23.884  1.00 34.02 LIG 0.01  A 
ENDBRANCH 29 30
ENDBRANCH 28 29
BRANCH 28 36
ATOM     36  N   PHE E  43      29.348  -3.684  20.125  1.00 51.92 LIG-0.35  N 
ATOM     37  C   GLY E  42      29.313  -3.433  18.829  1.00 55.92 LIG 0.25  C 
ATOM     38 O    GLY E  42      28.918  -4.207  17.947  1.00 57.26 LIG-0.27  OA
ATOM     39 H    PHE E  43      29.645  -3.101  20.684  1.00 51.92 LIG 0.16  HD
BRANCH 37 40
ATOM     40  CA  GLY E  42      29.822  -2.045  18.529  1.00 58.33 LIG 0.47  C 
ATOM     41  N   GLY E  42      30.957  -1.993  17.652  1.00 60.94 LIG 0.61  N 
ENDBRANCH 37 40
ENDBRANCH 28 36
ENDBRANCH 25 28
ENDBRANCH 1 24
TORSDOF 15
ENDMDL
MODEL 28
USER: ADFR SOLUTION from run 17
USER: SCORE 12.072814 LL:  -3.109 LR: -10.410 RR:   0.000 FEB:  -5.936
USER: RMSD 4.676632
USER: SEED 16
USER: STATUS no improvement in best in 4 clusters for 5 generations
USER: GENES 17
USER: genes 0 Translation |==|  0.49498 0.36150 0.33759
USER: genes 1 Rotation |==|  0.82435 0.56949 0.48975 0.87398
USER: genes 2 Torsion [C]-CA--CB-[OG] |==|  0.62372
USER: genes 3 Torsion [CA]-CB--OG-[HG] |==|  0.16192
USER: genes 4 Torsion [N]-CA--C-[N] |==|  0.90222
USER: genes 5 Torsion [C]-N--CA-[C] |==|  0.70501
USER: genes 6 Torsion [N]-CA--C-[N] |==|  0.35352
USER: genes 7 Torsion [C]-N--CA-[C] |==|  0.63133
USER: genes 8 Torsion [N]-CA--C-[O] |==|  0.54245
USER: genes 9 Torsion [N]-CA--CB-[CG] |==|  0.38793
USER: genes 10 Torsion [CA]-CB--CG-[CD2] |==|  0.19357
USER: genes 11 Torsion [CB]-CA--N-[C] |==|  0.50622
USER: genes 12 Torsion [N]-C--CA-[N] |==|  0.44378
USER: genes 13 Torsion [C]-CA--CB-[CG] |==|  0.57836
USER: genes 14 Torsion [CA]-CB--CG-[CD2] |==|  0.76573
USER: genes 15 Torsion [C]-CA--N-[C] |==|  0.63452
USER: genes 16 Torsion [N]-C--CA-[N] |==|  0.64698
ROOT
ATOM      1  CA  SER E  44      26.337 -10.344  16.458  1.00 44.79 LIG 0.20  C 
ENDROOT
BRANCH 1 2
ATOM      2  CB  SER E  44      27.004  -9.927  15.149  1.00 46.10 LIG 0.20  C 
BRANCH 2 3
ATOM      3 OG   SER E  44      26.038  -9.801  14.125  1.00 47.85 LIG-0.40  OA
ATOM      4 HG   SER E  44      25.460  -9.235  14.353  1.00 47.85 LIG 0.21  HD
ENDBRANCH 2 3
ENDBRANCH 1 2
BRANCH 1 5
ATOM      5  C   SER E  44      26.887  -9.518  17.599  1.00 42.78 LIG 0.24  C 
ATOM      6  N   PHE E  45      26.257  -8.373  17.817  1.00 43.36 LIG-0.35  N 
ATOM      7 H    PHE E  45      25.593  -8.092  17.348  1.00 43.36 LIG 0.16  HD
ATOM      8 O    SER E  44      27.868  -9.885  18.248  1.00 37.54 LIG-0.27  OA
BRANCH 6 9
ATOM      9  CA  PHE E  45      26.655  -7.482  18.894  1.00 46.68 LIG 0.18  C 
BRANCH 9 10
ATOM     10  C   PHE E  45      25.616  -7.577  20.002  1.00 48.11 LIG 0.24  C 
ATOM     11 O    PHE E  45      24.419  -7.420  19.756  1.00 49.85 LIG-0.27  OA
ATOM     12  N   GLY E  46      26.063  -7.837  21.224  1.00 50.71 LIG-0.35  N 
ATOM     13 H    GLY E  46      26.889  -7.950  21.436  1.00 50.71 LIG 0.16  HD
BRANCH 12 14
ATOM     14  CA  GLY E  46      25.116  -7.947  22.316  1.00 54.23 LIG 0.21  C 
BRANCH 14 15
ATOM     15  C   GLY E  46      25.538  -7.158  23.536  1.00 55.55 LIG 0.21  C 
ATOM     16 O    GLY E  46      24.963  -7.411  24.611  1.00 59.11 LIG-0.29  OA
ENDBRANCH 14 15
ENDBRANCH 12 14
ENDBRANCH 9 10
BRANCH 9 17
ATOM     17  CB  PHE E  45      26.763  -6.039  18.391  1.00 43.03 LIG 0.07  C 
BRANCH 17 18
ATOM     18  CG  PHE E  45      26.226  -5.016  19.359  1.00 41.93 LIG-0.06  A 
ATOM     19  CD2 PHE E  45      26.890  -4.745  20.555  1.00 42.38 LIG 0.01  A 
ATOM     20  CE2 PHE E  45      26.408  -3.776  21.439  1.00 42.73 LIG 0.00  A 
ATOM     21  CZ  PHE E  45      25.250  -3.069  21.128  1.00 42.74 LIG 0.00  A 
ATOM     22  CE1 PHE E  45      24.579  -3.328  19.937  1.00 41.89 LIG 0.00  A 
ATOM     23  CD1 PHE E  45      25.070  -4.299  19.060  1.00 42.01 LIG 0.01  A 
ENDBRANCH 17 18
ENDBRANCH 9 17
ENDBRANCH 6 9
ENDBRANCH 1 5
BRANCH 1 24
ATOM     24  N   SER E  44      24.898 -10.239  16.340  1.00 46.50 LIG-0.34  N 
ATOM     25  C   PHE E  43      24.167 -10.519  17.397  1.00 47.40 LIG 0.24  C 
ATOM     26 O    PHE E  43      24.671 -10.895  18.453  1.00 45.80 LIG-0.27  OA
ATOM     27 H    SER E  44      24.599  -9.996  15.572  1.00 46.50 LIG 0.16  HD
BRANCH 25 28
ATOM     28  CA  PHE E  43      22.667 -10.408  17.244  1.00 47.87 LIG 0.18  C 
BRANCH 28 29
ATOM     29  CB  PHE E  43      22.257  -8.954  17.458  1.00 42.32 LIG 0.07  C 
BRANCH 29 30
ATOM     30  CG  PHE E  43      20.853  -8.747  17.996  1.00 35.12 LIG-0.06  A 
ATOM     31  CD2 PHE E  43      19.717  -8.713  17.177  1.00 32.72 LIG 0.01  A 
ATOM     32  CE2 PHE E  43      18.434  -8.477  17.743  1.00 30.40 LIG 0.00  A 
ATOM     33  CZ  PHE E  43      18.303  -8.283  19.125  1.00 28.92 LIG 0.00  A 
ATOM     34  CE1 PHE E  43      19.437  -8.318  19.928  1.00 29.46 LIG 0.00  A 
ATOM     35  CD1 PHE E  43      20.692  -8.548  19.359  1.00 34.02 LIG 0.01  A 
ENDBRANCH 29 30
ENDBRANCH 28 29
BRANCH 28 36
ATOM     36  N   PHE E  43      22.294 -11.233  18.356  1.00 51.92 LIG-0.35  N 
ATOM     37  C   GLY E  42      21.413 -12.216  18.355  1.00 55.92 LIG 0.25  C 
ATOM     38 O    GLY E  42      20.740 -12.591  17.385  1.00 57.26 LIG-0.27  OA
ATOM     39 H    PHE E  43      22.721 -11.019  19.072  1.00 51.92 LIG 0.16  HD
BRANCH 37 40
ATOM     40  CA  GLY E  42      21.315 -12.862  19.715  1.00 58.33 LIG 0.47  C 
ATOM     41  N   GLY E  42      21.481 -14.288  19.720  1.00 60.94 LIG 0.61  N 
ENDBRANCH 37 40
ENDBRANCH 28 36
ENDBRANCH 25 28
ENDBRANCH 1 24
TORSDOF 15
ENDMDL
MODEL 29
USER: ADFR SOLUTION from run 41
USER: SCORE 11.938459 LL:  -2.850 LR: -10.387 RR:   0.000 FEB:  -5.913
USER: RMSD 8.718551
USER: SEED 40
USER: STATUS no improvement in best in 10 clusters for 5 generations
USER: GENES 17
USER: genes 0 Translation |==|  0.49332 0.48071 0.55974
USER: genes 1 Rotation |==|  0.14008 0.83632 0.46854 0.57971
USER: genes 2 Torsion [C]-CA--CB-[OG] |==|  0.68973
USER: genes 3 Torsion [CA]-CB--OG-[HG] |==|  0.12171
USER: genes 4 Torsion [N]-CA--C-[N] |==|  0.35761
USER: genes 5 Torsion [C]-N--CA-[C] |==|  0.60932
USER: genes 6 Torsion [N]-CA--C-[N] |==|  0.82029
USER: genes 7 Torsion [C]-N--CA-[C] |==|  0.23433
USER: genes 8 Torsion [N]-CA--C-[O] |==|  0.99484
USER: genes 9 Torsion [N]-CA--CB-[CG] |==|  0.60801
USER: genes 10 Torsion [CA]-CB--CG-[CD2] |==|  0.16311
USER: genes 11 Torsion [CB]-CA--N-[C] |==|  0.51688
USER: genes 12 Torsion [N]-C--CA-[N] |==|  0.00798
USER: genes 13 Torsion [C]-CA--CB-[CG] |==|  0.84870
USER: genes 14 Torsion [CA]-CB--CG-[CD2] |==|  0.24754
USER: genes 15 Torsion [C]-CA--N-[C] |==|  0.70000
USER: genes 16 Torsion [N]-C--CA-[N] |==|  0.40167
ROOT
ATOM      1  CA  SER E  44      26.299  -7.930  19.291  1.00 44.79 LIG 0.20  C 
ENDROOT
BRANCH 1 2
ATOM      2  CB  SER E  44      27.254  -8.945  19.915  1.00 46.10 LIG 0.20  C 
BRANCH 2 3
ATOM      3 OG   SER E  44      27.792  -8.437  21.118  1.00 47.85 LIG-0.40  OA
ATOM      4 HG   SER E  44      27.181  -8.076  21.568  1.00 47.85 LIG 0.21  HD
ENDBRANCH 2 3
ENDBRANCH 1 2
BRANCH 1 5
ATOM      5  C   SER E  44      24.881  -8.452  19.356  1.00 42.78 LIG 0.24  C 
ATOM      6  N   PHE E  45      24.369  -8.831  18.195  1.00 43.36 LIG-0.35  N 
ATOM      7 H    PHE E  45      24.786  -8.780  17.445  1.00 43.36 LIG 0.16  HD
ATOM      8 O    SER E  44      24.254  -8.485  20.417  1.00 37.54 LIG-0.27  OA
BRANCH 6 9
ATOM      9  CA  PHE E  45      23.025  -9.377  18.102  1.00 46.68 LIG 0.18  C 
BRANCH 9 10
ATOM     10  C   PHE E  45      23.041 -10.519  17.096  1.00 48.11 LIG 0.24  C 
ATOM     11 O    PHE E  45      22.804 -11.674  17.454  1.00 49.85 LIG-0.27  OA
ATOM     12  N   GLY E  46      23.316 -10.206  15.837  1.00 50.71 LIG-0.35  N 
ATOM     13 H    GLY E  46      23.489  -9.414  15.549  1.00 50.71 LIG 0.16  HD
BRANCH 12 14
ATOM     14  CA  GLY E  46      23.336 -11.253  14.834  1.00 54.23 LIG 0.21  C 
BRANCH 14 15
ATOM     15  C   GLY E  46      21.962 -11.560  14.284  1.00 55.55 LIG 0.21  C 
ATOM     16 O    GLY E  46      20.998 -10.930  14.760  1.00 59.11 LIG-0.29  OA
ENDBRANCH 14 15
ENDBRANCH 12 14
ENDBRANCH 9 10
BRANCH 9 17
ATOM     17  CB  PHE E  45      22.032  -8.296  17.662  1.00 43.03 LIG 0.07  C 
BRANCH 17 18
ATOM     18  CG  PHE E  45      20.698  -8.377  18.358  1.00 41.93 LIG-0.06  A 
ATOM     19  CD2 PHE E  45      20.609  -8.289  19.747  1.00 42.38 LIG 0.01  A 
ATOM     20  CE2 PHE E  45      19.369  -8.335  20.390  1.00 42.73 LIG 0.00  A 
ATOM     21  CZ  PHE E  45      18.204  -8.471  19.641  1.00 42.74 LIG 0.00  A 
ATOM     22  CE1 PHE E  45      18.279  -8.558  18.254  1.00 41.89 LIG 0.00  A 
ATOM     23  CD1 PHE E  45      19.523  -8.511  17.621  1.00 42.01 LIG 0.01  A 
ENDBRANCH 17 18
ENDBRANCH 9 17
ENDBRANCH 6 9
ENDBRANCH 1 5
BRANCH 1 24
ATOM     24  N   SER E  44      26.447  -6.643  19.937  1.00 46.50 LIG-0.34  N 
ATOM     25  C   PHE E  43      25.613  -5.682  19.605  1.00 47.40 LIG 0.24  C 
ATOM     26 O    PHE E  43      24.749  -5.841  18.748  1.00 45.80 LIG-0.27  OA
ATOM     27 H    SER E  44      27.084  -6.580  20.512  1.00 46.50 LIG 0.16  HD
BRANCH 25 28
ATOM     28  CA  PHE E  43      25.795  -4.347  20.291  1.00 47.87 LIG 0.18  C 
BRANCH 28 29
ATOM     29  CB  PHE E  43      26.098  -3.288  19.235  1.00 42.32 LIG 0.07  C 
BRANCH 29 30
ATOM     30  CG  PHE E  43      27.271  -3.597  18.323  1.00 35.12 LIG-0.06  A 
ATOM     31  CD2 PHE E  43      27.141  -4.310  17.123  1.00 32.72 LIG 0.01  A 
ATOM     32  CE2 PHE E  43      28.289  -4.598  16.334  1.00 30.40 LIG 0.00  A 
ATOM     33  CZ  PHE E  43      29.553  -4.164  16.754  1.00 28.92 LIG 0.00  A 
ATOM     34  CE1 PHE E  43      29.671  -3.459  17.947  1.00 29.46 LIG 0.00  A 
ATOM     35  CD1 PHE E  43      28.536  -3.186  18.714  1.00 34.02 LIG 0.01  A 
ENDBRANCH 29 30
ENDBRANCH 28 29
BRANCH 28 36
ATOM     36  N   PHE E  43      26.961  -4.677  21.059  1.00 51.92 LIG-0.35  N 
ATOM     37  C   GLY E  42      27.024  -4.867  22.364  1.00 55.92 LIG 0.25  C 
ATOM     38 O    GLY E  42      26.079  -4.780  23.160  1.00 57.26 LIG-0.27  OA
ATOM     39 H    PHE E  43      27.661  -4.746  20.564  1.00 51.92 LIG 0.16  HD
BRANCH 37 40
ATOM     40  CA  GLY E  42      28.425  -5.222  22.796  1.00 58.33 LIG 0.47  C 
ATOM     41  N   GLY E  42      28.814  -4.700  24.075  1.00 60.94 LIG 0.61  N 
ENDBRANCH 37 40
ENDBRANCH 28 36
ENDBRANCH 25 28
ENDBRANCH 1 24
TORSDOF 15
ENDMDL
MODEL 30
USER: ADFR SOLUTION from run 180
USER: SCORE 11.850789 LL:  -2.601 LR: -10.387 RR:   0.000 FEB:  -5.912
USER: RMSD 9.139177
USER: SEED 179
USER: STATUS no improvement in best in 8 clusters for 5 generations
USER: GENES 17
USER: genes 0 Translation |==|  0.45054 0.47449 0.55802
USER: genes 1 Rotation |==|  0.69895 0.41346 0.93652 0.61127
USER: genes 2 Torsion [C]-CA--CB-[OG] |==|  0.74718
USER: genes 3 Torsion [CA]-CB--OG-[HG] |==|  0.35517
USER: genes 4 Torsion [N]-CA--C-[N] |==|  0.99047
USER: genes 5 Torsion [C]-N--CA-[C] |==|  0.61971
USER: genes 6 Torsion [N]-CA--C-[N] |==|  0.84981
USER: genes 7 Torsion [C]-N--CA-[C] |==|  0.28888
USER: genes 8 Torsion [N]-CA--C-[O] |==|  0.94039
USER: genes 9 Torsion [N]-CA--CB-[CG] |==|  0.70525
USER: genes 10 Torsion [CA]-CB--CG-[CD2] |==|  0.61330
USER: genes 11 Torsion [CB]-CA--N-[C] |==|  0.21053
USER: genes 12 Torsion [N]-C--CA-[N] |==|  0.34170
USER: genes 13 Torsion [C]-CA--CB-[CG] |==|  0.75213
USER: genes 14 Torsion [CA]-CB--CG-[CD2] |==|  0.23698
USER: genes 15 Torsion [C]-CA--N-[C] |==|  0.83889
USER: genes 16 Torsion [N]-C--CA-[N] |==|  0.54893
ROOT
ATOM      1  CA  SER E  44      25.304  -8.056  19.269  1.00 44.79 LIG 0.20  C 
ENDROOT
BRANCH 1 2
ATOM      2  CB  SER E  44      24.997  -6.701  19.904  1.00 46.10 LIG 0.20  C 
BRANCH 2 3
ATOM      3 OG   SER E  44      24.813  -5.721  18.904  1.00 47.85 LIG-0.40  OA
ATOM      4 HG   SER E  44      24.085  -5.322  19.032  1.00 47.85 LIG 0.21  HD
ENDBRANCH 2 3
ENDBRANCH 1 2
BRANCH 1 5
ATOM      5  C   SER E  44      24.019  -8.819  19.041  1.00 42.78 LIG 0.24  C 
ATOM      6  N   PHE E  45      23.766  -9.128  17.778  1.00 43.36 LIG-0.35  N 
ATOM      7 H    PHE E  45      24.273  -8.909  17.118  1.00 43.36 LIG 0.16  HD
ATOM      8 O    SER E  44      23.260  -9.097  19.971  1.00 37.54 LIG-0.27  OA
BRANCH 6 9
ATOM      9  CA  PHE E  45      22.581  -9.882  17.405  1.00 46.68 LIG 0.18  C 
BRANCH 9 10
ATOM     10  C   PHE E  45      22.983 -10.927  16.375  1.00 48.11 LIG 0.24  C 
ATOM     11 O    PHE E  45      22.715 -12.117  16.550  1.00 49.85 LIG-0.27  OA
ATOM     12  N   GLY E  46      23.622 -10.493  15.297  1.00 50.71 LIG-0.35  N 
ATOM     13 H    GLY E  46      23.829  -9.673  15.139  1.00 50.71 LIG 0.16  HD
BRANCH 12 14
ATOM     14  CA  GLY E  46      24.022 -11.445  14.278  1.00 54.23 LIG 0.21  C 
BRANCH 14 15
ATOM     15  C   GLY E  46      23.132 -11.398  13.056  1.00 55.55 LIG 0.21  C 
ATOM     16 O    GLY E  46      21.992 -10.914  13.193  1.00 59.11 LIG-0.29  OA
ENDBRANCH 14 15
ENDBRANCH 12 14
ENDBRANCH 9 10
BRANCH 9 17
ATOM     17  CB  PHE E  45      21.509  -8.951  16.826  1.00 43.03 LIG 0.07  C 
BRANCH 17 18
ATOM     18  CG  PHE E  45      20.353  -8.701  17.761  1.00 41.93 LIG-0.06  A 
ATOM     19  CD2 PHE E  45      19.043  -8.665  17.285  1.00 42.38 LIG 0.01  A 
ATOM     20  CE2 PHE E  45      17.970  -8.461  18.156  1.00 42.73 LIG 0.00  A 
ATOM     21  CZ  PHE E  45      18.204  -8.289  19.517  1.00 42.74 LIG 0.00  A 
ATOM     22  CE1 PHE E  45      19.507  -8.324  20.005  1.00 41.89 LIG 0.00  A 
ATOM     23  CD1 PHE E  45      20.573  -8.529  19.126  1.00 42.01 LIG 0.01  A 
ENDBRANCH 17 18
ENDBRANCH 9 17
ENDBRANCH 6 9
ENDBRANCH 1 5
BRANCH 1 24
ATOM     24  N   SER E  44      26.065  -7.873  18.051  1.00 46.50 LIG-0.34  N 
ATOM     25  C   PHE E  43      27.340  -7.572  18.155  1.00 47.40 LIG 0.24  C 
ATOM     26 O    PHE E  43      27.881  -7.411  19.246  1.00 45.80 LIG-0.27  OA
ATOM     27 H    SER E  44      25.631  -7.975  17.315  1.00 46.50 LIG 0.16  HD
BRANCH 25 28
ATOM     28  CA  PHE E  43      28.109  -7.381  16.867  1.00 47.87 LIG 0.18  C 
BRANCH 28 29
ATOM     29  CB  PHE E  43      29.259  -8.384  16.827  1.00 42.32 LIG 0.07  C 
BRANCH 29 30
ATOM     30  CG  PHE E  43      30.559  -7.907  17.448  1.00 35.12 LIG-0.06  A 
ATOM     31  CD2 PHE E  43      30.835  -8.011  18.818  1.00 32.72 LIG 0.01  A 
ATOM     32  CE2 PHE E  43      32.060  -7.508  19.340  1.00 30.40 LIG 0.00  A 
ATOM     33  CZ  PHE E  43      32.994  -6.913  18.482  1.00 28.92 LIG 0.00  A 
ATOM     34  CE1 PHE E  43      32.709  -6.815  17.125  1.00 29.46 LIG 0.00  A 
ATOM     35  CD1 PHE E  43      31.501  -7.309  16.626  1.00 34.02 LIG 0.01  A 
ENDBRANCH 29 30
ENDBRANCH 28 29
BRANCH 28 36
ATOM     36  N   PHE E  43      28.577  -6.048  17.113  1.00 51.92 LIG-0.35  N 
ATOM     37  C   GLY E  42      27.840  -4.980  17.353  1.00 55.92 LIG 0.25  C 
ATOM     38 O    GLY E  42      26.603  -4.943  17.397  1.00 57.26 LIG-0.27  OA
ATOM     39 H    PHE E  43      29.436  -6.001  17.088  1.00 51.92 LIG 0.16  HD
BRANCH 37 40
ATOM     40  CA  GLY E  42      28.702  -3.764  17.585  1.00 58.33 LIG 0.47  C 
ATOM     41  N   GLY E  42      28.038  -2.667  18.233  1.00 60.94 LIG 0.61  N 
ENDBRANCH 37 40
ENDBRANCH 28 36
ENDBRANCH 25 28
ENDBRANCH 1 24
TORSDOF 15
ENDMDL
MODEL 31
USER: ADFR SOLUTION from run 31
USER: SCORE 11.525235 LL:  -3.234 LR: -10.384 RR:   0.000 FEB:  -5.909
USER: RMSD 8.935000
USER: SEED 30
USER: STATUS no improvement in best in 16 clusters for 5 generations
USER: GENES 17
USER: genes 0 Translation |==|  0.43932 0.45443 0.55859
USER: genes 1 Rotation |==|  0.68857 0.50133 0.90482 0.72486
USER: genes 2 Torsion [C]-CA--CB-[OG] |==|  0.62872
USER: genes 3 Torsion [CA]-CB--OG-[HG] |==|  0.12881
USER: genes 4 Torsion [N]-CA--C-[N] |==|  0.14732
USER: genes 5 Torsion [C]-N--CA-[C] |==|  0.59340
USER: genes 6 Torsion [N]-CA--C-[N] |==|  0.49931
USER: genes 7 Torsion [C]-N--CA-[C] |==|  0.38626
USER: genes 8 Torsion [N]-CA--C-[O] |==|  0.97677
USER: genes 9 Torsion [N]-CA--CB-[CG] |==|  0.68852
USER: genes 10 Torsion [CA]-CB--CG-[CD2] |==|  0.43299
USER: genes 11 Torsion [CB]-CA--N-[C] |==|  0.39056
USER: genes 12 Torsion [N]-C--CA-[N] |==|  0.88925
USER: genes 13 Torsion [C]-CA--CB-[CG] |==|  0.75530
USER: genes 14 Torsion [CA]-CB--CG-[CD2] |==|  0.79404
USER: genes 15 Torsion [C]-CA--N-[C] |==|  0.78333
USER: genes 16 Torsion [N]-C--CA-[N] |==|  0.54365
ROOT
ATOM      1  CA  SER E  44      25.043  -8.462  19.276  1.00 44.79 LIG 0.20  C 
ENDROOT
BRANCH 1 2
ATOM      2  CB  SER E  44      25.225  -6.947  19.210  1.00 46.10 LIG 0.20  C 
BRANCH 2 3
ATOM      3 OG   SER E  44      25.991  -6.594  18.077  1.00 47.85 LIG-0.40  OA
ATOM      4 HG   SER E  44      25.704  -7.007  17.405  1.00 47.85 LIG 0.21  HD
ENDBRANCH 2 3
ENDBRANCH 1 2
BRANCH 1 5
ATOM      5  C   SER E  44      23.596  -8.793  19.564  1.00 42.78 LIG 0.24  C 
ATOM      6  N   PHE E  45      23.306 -10.085  19.564  1.00 43.36 LIG-0.35  N 
ATOM      7 H    PHE E  45      23.877 -10.707  19.401  1.00 43.36 LIG 0.16  HD
ATOM      8 O    SER E  44      22.758  -7.910  19.754  1.00 37.54 LIG-0.27  OA
BRANCH 6 9
ATOM      9  CA  PHE E  45      21.962 -10.560  19.849  1.00 46.68 LIG 0.18  C 
BRANCH 9 10
ATOM     10  C   PHE E  45      22.069 -11.892  20.577  1.00 48.11 LIG 0.24  C 
ATOM     11 O    PHE E  45      23.170 -12.385  20.825  1.00 49.85 LIG-0.27  OA
ATOM     12  N   GLY E  46      20.931 -12.479  20.926  1.00 50.71 LIG-0.35  N 
ATOM     13 H    GLY E  46      20.145 -12.168  20.769  1.00 50.71 LIG 0.16  HD
BRANCH 12 14
ATOM     14  CA  GLY E  46      20.974 -13.746  21.629  1.00 54.23 LIG 0.21  C 
BRANCH 14 15
ATOM     15  C   GLY E  46      19.954 -13.829  22.742  1.00 55.55 LIG 0.21  C 
ATOM     16 O    GLY E  46      19.330 -12.790  23.029  1.00 59.11 LIG-0.29  OA
ENDBRANCH 14 15
ENDBRANCH 12 14
ENDBRANCH 9 10
BRANCH 9 17
ATOM     17  CB  PHE E  45      21.161 -10.727  18.553  1.00 43.03 LIG 0.07  C 
BRANCH 17 18
ATOM     18  CG  PHE E  45      20.026  -9.745  18.409  1.00 41.93 LIG-0.06  A 
ATOM     19  CD2 PHE E  45      19.526  -9.409  17.151  1.00 42.38 LIG 0.01  A 
ATOM     20  CE2 PHE E  45      18.455  -8.521  17.021  1.00 42.73 LIG 0.00  A 
ATOM     21  CZ  PHE E  45      17.876  -7.961  18.155  1.00 42.74 LIG 0.00  A 
ATOM     22  CE1 PHE E  45      18.365  -8.289  19.416  1.00 41.89 LIG 0.00  A 
ATOM     23  CD1 PHE E  45      19.436  -9.178  19.536  1.00 42.01 LIG 0.01  A 
ENDBRANCH 17 18
ENDBRANCH 9 17
ENDBRANCH 6 9
ENDBRANCH 1 5
BRANCH 1 24
ATOM     24  N   SER E  44      25.520  -9.075  18.054  1.00 46.50 LIG-0.34  N 
ATOM     25  C   PHE E  43      26.173 -10.212  18.145  1.00 47.40 LIG 0.24  C 
ATOM     26 O    PHE E  43      26.413 -10.738  19.228  1.00 45.80 LIG-0.27  OA
ATOM     27 H    SER E  44      25.345  -8.652  17.326  1.00 46.50 LIG 0.16  HD
BRANCH 25 28
ATOM     28  CA  PHE E  43      26.665 -10.827  16.853  1.00 47.87 LIG 0.18  C 
BRANCH 28 29
ATOM     29  CB  PHE E  43      27.899 -10.062  16.384  1.00 42.32 LIG 0.07  C 
BRANCH 29 30
ATOM     30  CG  PHE E  43      27.621  -8.854  15.509  1.00 35.12 LIG-0.06  A 
ATOM     31  CD2 PHE E  43      27.221  -8.955  14.169  1.00 32.72 LIG 0.01  A 
ATOM     32  CE2 PHE E  43      27.013  -7.780  13.394  1.00 30.40 LIG 0.00  A 
ATOM     33  CZ  PHE E  43      27.204  -6.518  13.972  1.00 28.92 LIG 0.00  A 
ATOM     34  CE1 PHE E  43      27.601  -6.429  15.301  1.00 29.46 LIG 0.00  A 
ATOM     35  CD1 PHE E  43      27.805  -7.591  16.050  1.00 34.02 LIG 0.01  A 
ENDBRANCH 29 30
ENDBRANCH 28 29
BRANCH 28 36
ATOM     36  N   PHE E  43      25.519 -10.530  16.044  1.00 51.92 LIG-0.35  N 
ATOM     37  C   GLY E  42      24.365 -11.172  16.037  1.00 55.92 LIG 0.25  C 
ATOM     38 O    GLY E  42      24.076 -12.159  16.726  1.00 57.26 LIG-0.27  OA
ATOM     39 H    PHE E  43      25.655  -9.853  15.531  1.00 51.92 LIG 0.16  HD
BRANCH 37 40
ATOM     40  CA  GLY E  42      23.398 -10.543  15.065  1.00 58.33 LIG 0.47  C 
ATOM     41  N   GLY E  42      22.028 -10.936  15.236  1.00 60.94 LIG 0.61  N 
ENDBRANCH 37 40
ENDBRANCH 28 36
ENDBRANCH 25 28
ENDBRANCH 1 24
TORSDOF 15
ENDMDL
MODEL 32
USER: ADFR SOLUTION from run 55
USER: SCORE 12.163061 LL:  -3.073 LR: -10.351 RR:   0.000 FEB:  -5.876
USER: RMSD 6.571291
USER: SEED 54
USER: STATUS no improvement in best in 18 clusters for 5 generations
USER: GENES 17
USER: genes 0 Translation |==|  0.42202 0.30013 0.40092
USER: genes 1 Rotation |==|  0.70625 0.75975 0.63920 0.84729
USER: genes 2 Torsion [C]-CA--CB-[OG] |==|  0.23414
USER: genes 3 Torsion [CA]-CB--OG-[HG] |==|  0.75541
USER: genes 4 Torsion [N]-CA--C-[N] |==|  0.68911
USER: genes 5 Torsion [C]-N--CA-[C] |==|  0.16826
USER: genes 6 Torsion [N]-CA--C-[N] |==|  0.12073
USER: genes 7 Torsion [C]-N--CA-[C] |==|  0.73842
USER: genes 8 Torsion [N]-CA--C-[O] |==|  0.05146
USER: genes 9 Torsion [N]-CA--CB-[CG] |==|  0.75701
USER: genes 10 Torsion [CA]-CB--CG-[CD2] |==|  0.57896
USER: genes 11 Torsion [CB]-CA--N-[C] |==|  0.77538
USER: genes 12 Torsion [N]-C--CA-[N] |==|  0.34083
USER: genes 13 Torsion [C]-CA--CB-[CG] |==|  0.07062
USER: genes 14 Torsion [CA]-CB--CG-[CD2] |==|  0.24976
USER: genes 15 Torsion [C]-CA--N-[C] |==|  0.82615
USER: genes 16 Torsion [N]-C--CA-[N] |==|  0.35942
ROOT
ATOM      1  CA  SER E  44      24.641 -11.586  17.266  1.00 44.79 LIG 0.20  C 
ENDROOT
BRANCH 1 2
ATOM      2  CB  SER E  44      24.483 -11.171  15.804  1.00 46.10 LIG 0.20  C 
BRANCH 2 3
ATOM      3 OG   SER E  44      25.646 -10.504  15.357  1.00 47.85 LIG-0.40  OA
ATOM      4 HG   SER E  44      25.580  -9.683  15.522  1.00 47.85 LIG 0.21  HD
ENDBRANCH 2 3
ENDBRANCH 1 2
BRANCH 1 5
ATOM      5  C   SER E  44      24.272 -10.432  18.170  1.00 42.78 LIG 0.24  C 
ATOM      6  N   PHE E  45      23.682  -9.412  17.565  1.00 43.36 LIG-0.35  N 
ATOM      7 H    PHE E  45      23.523  -9.379  16.720  1.00 43.36 LIG 0.16  HD
ATOM      8 O    SER E  44      24.536 -10.445  19.373  1.00 37.54 LIG-0.27  OA
BRANCH 6 9
ATOM      9  CA  PHE E  45      23.247  -8.240  18.306  1.00 46.68 LIG 0.18  C 
BRANCH 9 10
ATOM     10  C   PHE E  45      24.467  -7.608  18.961  1.00 48.11 LIG 0.24  C 
ATOM     11 O    PHE E  45      24.419  -7.214  20.128  1.00 49.85 LIG-0.27  OA
ATOM     12  N   GLY E  46      25.563  -7.509  18.221  1.00 50.71 LIG-0.35  N 
ATOM     13 H    GLY E  46      25.635  -7.769  17.404  1.00 50.71 LIG 0.16  HD
BRANCH 12 14
ATOM     14  CA  GLY E  46      26.757  -6.922  18.797  1.00 54.23 LIG 0.21  C 
BRANCH 14 15
ATOM     15  C   GLY E  46      26.879  -5.444  18.507  1.00 55.55 LIG 0.21  C 
ATOM     16 O    GLY E  46      25.848  -4.840  18.154  1.00 59.11 LIG-0.29  OA
ENDBRANCH 14 15
ENDBRANCH 12 14
ENDBRANCH 9 10
BRANCH 9 17
ATOM     17  CB  PHE E  45      22.214  -8.625  19.370  1.00 43.03 LIG 0.07  C 
BRANCH 17 18
ATOM     18  CG  PHE E  45      20.794  -8.636  18.862  1.00 41.93 LIG-0.06  A 
ATOM     19  CD2 PHE E  45      19.726  -8.379  19.720  1.00 42.38 LIG 0.01  A 
ATOM     20  CE2 PHE E  45      18.412  -8.361  19.243  1.00 42.73 LIG 0.00  A 
ATOM     21  CZ  PHE E  45      18.160  -8.602  17.896  1.00 42.74 LIG 0.00  A 
ATOM     22  CE1 PHE E  45      19.218  -8.859  17.029  1.00 41.89 LIG 0.00  A 
ATOM     23  CD1 PHE E  45      20.528  -8.875  17.516  1.00 42.01 LIG 0.01  A 
ENDBRANCH 17 18
ENDBRANCH 9 17
ENDBRANCH 6 9
ENDBRANCH 1 5
BRANCH 1 24
ATOM     24  N   SER E  44      23.857 -12.773  17.534  1.00 46.50 LIG-0.34  N 
ATOM     25  C   PHE E  43      22.569 -12.629  17.756  1.00 47.40 LIG 0.24  C 
ATOM     26 O    PHE E  43      22.034 -11.523  17.775  1.00 45.80 LIG-0.27  OA
ATOM     27 H    SER E  44      24.286 -13.518  17.532  1.00 46.50 LIG 0.16  HD
BRANCH 25 28
ATOM     28  CA  PHE E  43      21.775 -13.885  18.039  1.00 47.87 LIG 0.18  C 
BRANCH 28 29
ATOM     29  CB  PHE E  43      20.672 -14.016  16.993  1.00 42.32 LIG 0.07  C 
BRANCH 29 30
ATOM     30  CG  PHE E  43      20.949 -13.330  15.668  1.00 35.12 LIG-0.06  A 
ATOM     31  CD2 PHE E  43      21.590 -13.966  14.597  1.00 32.72 LIG 0.01  A 
ATOM     32  CE2 PHE E  43      21.852 -13.251  13.395  1.00 30.40 LIG 0.00  A 
ATOM     33  CZ  PHE E  43      21.464 -11.910  13.279  1.00 28.92 LIG 0.00  A 
ATOM     34  CE1 PHE E  43      20.829 -11.289  14.348  1.00 29.46 LIG 0.00  A 
ATOM     35  CD1 PHE E  43      20.581 -12.001  15.524  1.00 34.02 LIG 0.01  A 
ENDBRANCH 29 30
ENDBRANCH 28 29
BRANCH 28 36
ATOM     36  N   PHE E  43      21.250 -13.501  19.317  1.00 51.92 LIG-0.35  N 
ATOM     37  C   GLY E  42      21.938 -13.241  20.413  1.00 55.92 LIG 0.25  C 
ATOM     38 O    GLY E  42      23.170 -13.295  20.530  1.00 57.26 LIG-0.27  OA
ATOM     39 H    PHE E  43      20.390 -13.452  19.309  1.00 51.92 LIG 0.16  HD
BRANCH 37 40
ATOM     40  CA  GLY E  42      21.027 -12.848  21.549  1.00 58.33 LIG 0.47  C 
ATOM     41  N   GLY E  42      21.245 -13.564  22.774  1.00 60.94 LIG 0.61  N 
ENDBRANCH 37 40
ENDBRANCH 28 36
ENDBRANCH 25 28
ENDBRANCH 1 24
TORSDOF 15
ENDMDL
MODEL 33
USER: ADFR SOLUTION from run 99
USER: SCORE 12.267020 LL:  -2.823 LR: -10.298 RR:   0.000 FEB:  -5.823
USER: RMSD 8.948033
USER: SEED 98
USER: STATUS no improvement in best in 22 clusters for 5 generations
USER: GENES 17
USER: genes 0 Translation |==|  0.42839 0.47197 0.55483
USER: genes 1 Rotation |==|  0.66951 0.40288 0.95485 0.57034
USER: genes 2 Torsion [C]-CA--CB-[OG] |==|  0.73012
USER: genes 3 Torsion [CA]-CB--OG-[HG] |==|  0.52206
USER: genes 4 Torsion [N]-CA--C-[N] |==|  0.85927
USER: genes 5 Torsion [C]-N--CA-[C] |==|  0.17586
USER: genes 6 Torsion [N]-CA--C-[N] |==|  0.09268
USER: genes 7 Torsion [C]-N--CA-[C] |==|  0.80319
USER: genes 8 Torsion [N]-CA--C-[O] |==|  0.96141
USER: genes 9 Torsion [N]-CA--CB-[CG] |==|  0.66147
USER: genes 10 Torsion [CA]-CB--CG-[CD2] |==|  0.77848
USER: genes 11 Torsion [CB]-CA--N-[C] |==|  0.20134
USER: genes 12 Torsion [N]-C--CA-[N] |==|  0.91175
USER: genes 13 Torsion [C]-CA--CB-[CG] |==|  0.10135
USER: genes 14 Torsion [CA]-CB--CG-[CD2] |==|  0.13527
USER: genes 15 Torsion [C]-CA--N-[C] |==|  0.76667
USER: genes 16 Torsion [N]-C--CA-[N] |==|  0.73052
ROOT
ATOM      1  CA  SER E  44      24.789  -8.107  19.228  1.00 44.79 LIG 0.20  C 
ENDROOT
BRANCH 1 2
ATOM      2  CB  SER E  44      24.212  -6.847  19.871  1.00 46.10 LIG 0.20  C 
BRANCH 2 3
ATOM      3 OG   SER E  44      24.204  -5.782  18.943  1.00 47.85 LIG-0.40  OA
ATOM      4 HG   SER E  44      23.988  -5.071  19.334  1.00 47.85 LIG 0.21  HD
ENDBRANCH 2 3
ENDBRANCH 1 2
BRANCH 1 5
ATOM      5  C   SER E  44      23.666  -8.995  18.742  1.00 42.78 LIG 0.24  C 
ATOM      6  N   PHE E  45      23.028  -8.556  17.668  1.00 43.36 LIG-0.35  N 
ATOM      7 H    PHE E  45      23.211  -7.817  17.267  1.00 43.36 LIG 0.16  HD
ATOM      8 O    SER E  44      23.362 -10.032  19.334  1.00 37.54 LIG-0.27  OA
BRANCH 6 9
ATOM      9  CA  PHE E  45      21.942  -9.313  17.069  1.00 46.68 LIG 0.18  C 
BRANCH 9 10
ATOM     10  C   PHE E  45      20.807  -9.404  18.080  1.00 48.11 LIG 0.24  C 
ATOM     11 O    PHE E  45      20.090 -10.404  18.131  1.00 49.85 LIG-0.27  OA
ATOM     12  N   GLY E  46      20.640  -8.366  18.889  1.00 50.71 LIG-0.35  N 
ATOM     13 H    GLY E  46      21.117  -7.650  18.883  1.00 50.71 LIG 0.16  HD
BRANCH 12 14
ATOM     14  CA  GLY E  46      19.580  -8.402  19.878  1.00 54.23 LIG 0.21  C 
BRANCH 14 15
ATOM     15  C   GLY E  46      18.204  -8.289  19.260  1.00 55.55 LIG 0.21  C 
ATOM     16 O    GLY E  46      18.135  -7.919  18.073  1.00 59.11 LIG-0.29  OA
ENDBRANCH 14 15
ENDBRANCH 12 14
ENDBRANCH 9 10
BRANCH 9 17
ATOM     17  CB  PHE E  45      22.414 -10.717  16.675  1.00 43.03 LIG 0.07  C 
BRANCH 17 18
ATOM     18  CG  PHE E  45      22.239 -11.028  15.210  1.00 41.93 LIG-0.06  A 
ATOM     19  CD2 PHE E  45      20.997 -11.405  14.702  1.00 42.38 LIG 0.01  A 
ATOM     20  CE2 PHE E  45      20.829 -11.665  13.339  1.00 42.73 LIG 0.00  A 
ATOM     21  CZ  PHE E  45      21.912 -11.549  12.473  1.00 42.74 LIG 0.00  A 
ATOM     22  CE1 PHE E  45      23.157 -11.172  12.967  1.00 41.89 LIG 0.00  A 
ATOM     23  CD1 PHE E  45      23.314 -10.914  14.331  1.00 42.01 LIG 0.01  A 
ENDBRANCH 17 18
ENDBRANCH 9 17
ENDBRANCH 6 9
ENDBRANCH 1 5
BRANCH 1 24
ATOM     24  N   SER E  44      25.711  -7.749  18.171  1.00 46.50 LIG-0.34  N 
ATOM     25  C   PHE E  43      26.879  -7.248  18.509  1.00 47.40 LIG 0.24  C 
ATOM     26 O    PHE E  43      27.184  -7.049  19.682  1.00 45.80 LIG-0.27  OA
ATOM     27 H    SER E  44      25.437  -7.887  17.368  1.00 46.50 LIG 0.16  HD
BRANCH 25 28
ATOM     28  CA  PHE E  43      27.819  -6.877  17.384  1.00 47.87 LIG 0.18  C 
BRANCH 28 29
ATOM     29  CB  PHE E  43      27.470  -5.475  16.894  1.00 42.32 LIG 0.07  C 
BRANCH 29 30
ATOM     30  CG  PHE E  43      27.032  -4.500  17.971  1.00 35.12 LIG-0.06  A 
ATOM     31  CD2 PHE E  43      27.740  -4.312  19.166  1.00 32.72 LIG 0.01  A 
ATOM     32  CE2 PHE E  43      27.252  -3.409  20.151  1.00 30.40 LIG 0.00  A 
ATOM     33  CZ  PHE E  43      26.064  -2.701  19.925  1.00 28.92 LIG 0.00  A 
ATOM     34  CE1 PHE E  43      25.369  -2.896  18.737  1.00 29.46 LIG 0.00  A 
ATOM     35  CD1 PHE E  43      25.858  -3.789  17.779  1.00 34.02 LIG 0.01  A 
ENDBRANCH 29 30
ENDBRANCH 28 29
BRANCH 28 36
ATOM     36  N   PHE E  43      27.411  -7.883  16.447  1.00 51.92 LIG-0.35  N 
ATOM     37  C   GLY E  42      27.834  -9.132  16.389  1.00 55.92 LIG 0.25  C 
ATOM     38 O    GLY E  42      28.675  -9.653  17.135  1.00 57.26 LIG-0.27  OA
ATOM     39 H    PHE E  43      26.829  -7.583  15.889  1.00 51.92 LIG 0.16  HD
BRANCH 37 40
ATOM     40  CA  GLY E  42      27.152  -9.888  15.276  1.00 58.33 LIG 0.47  C 
ATOM     41  N   GLY E  42      26.023 -10.676  15.684  1.00 60.94 LIG 0.61  N 
ENDBRANCH 37 40
ENDBRANCH 28 36
ENDBRANCH 25 28
ENDBRANCH 1 24
TORSDOF 15
ENDMDL
MODEL 34
USER: ADFR SOLUTION from run 37
USER: SCORE 11.859067 LL:  -2.993 LR: -10.303 RR:   0.000 FEB:  -5.828
USER: RMSD 8.783630
USER: SEED 36
USER: STATUS no improvement in best in 11 clusters for 5 generations
USER: GENES 17
USER: genes 0 Translation |==|  0.51917 0.50250 0.47988
USER: genes 1 Rotation |==|  0.22602 0.88639 0.65223 0.54962
USER: genes 2 Torsion [C]-CA--CB-[OG] |==|  0.20752
USER: genes 3 Torsion [CA]-CB--OG-[HG] |==|  0.01973
USER: genes 4 Torsion [N]-CA--C-[N] |==|  0.44397
USER: genes 5 Torsion [C]-N--CA-[C] |==|  0.77448
USER: genes 6 Torsion [N]-CA--C-[N] |==|  0.33568
USER: genes 7 Torsion [C]-N--CA-[C] |==|  0.78043
USER: genes 8 Torsion [N]-CA--C-[O] |==|  0.91439
USER: genes 9 Torsion [N]-CA--CB-[CG] |==|  0.53032
USER: genes 10 Torsion [CA]-CB--CG-[CD2] |==|  0.55773
USER: genes 11 Torsion [CB]-CA--N-[C] |==|  0.27104
USER: genes 12 Torsion [N]-C--CA-[N] |==|  0.48333
USER: genes 13 Torsion [C]-CA--CB-[CG] |==|  0.92392
USER: genes 14 Torsion [CA]-CB--CG-[CD2] |==|  0.83827
USER: genes 15 Torsion [C]-CA--N-[C] |==|  0.70388
USER: genes 16 Torsion [N]-C--CA-[N] |==|  0.79550
ROOT
ATOM      1  CA  SER E  44      26.900  -7.488  18.272  1.00 44.79 LIG 0.20  C 
ENDROOT
BRANCH 1 2
ATOM      2  CB  SER E  44      27.555  -8.766  17.750  1.00 46.10 LIG 0.20  C 
BRANCH 2 3
ATOM      3 OG   SER E  44      26.837  -9.267  16.642  1.00 47.85 LIG-0.40  OA
ATOM      4 HG   SER E  44      26.243  -8.716  16.420  1.00 47.85 LIG 0.21  HD
ENDBRANCH 2 3
ENDBRANCH 1 2
BRANCH 1 5
ATOM      5  C   SER E  44      25.634  -7.832  19.026  1.00 42.78 LIG 0.24  C 
ATOM      6  N   PHE E  45      24.592  -8.130  18.265  1.00 43.36 LIG-0.35  N 
ATOM      7 H    PHE E  45      24.606  -8.122  17.405  1.00 43.36 LIG 0.16  HD
ATOM      8 O    SER E  44      25.588  -7.803  20.257  1.00 37.54 LIG-0.27  OA
BRANCH 6 9
ATOM      9  CA  PHE E  45      23.313  -8.505  18.844  1.00 46.68 LIG 0.18  C 
BRANCH 9 10
ATOM     10  C   PHE E  45      23.375  -9.976  19.230  1.00 48.11 LIG 0.24  C 
ATOM     11 O    PHE E  45      23.608 -10.839  18.381  1.00 49.85 LIG-0.27  OA
ATOM     12  N   GLY E  46      23.171 -10.271  20.508  1.00 50.71 LIG-0.35  N 
ATOM     13 H    GLY E  46      23.004  -9.699  21.128  1.00 50.71 LIG 0.16  HD
BRANCH 12 14
ATOM     14  CA  GLY E  46      23.227 -11.656  20.933  1.00 54.23 LIG 0.21  C 
BRANCH 14 15
ATOM     15  C   GLY E  46      21.960 -12.416  20.611  1.00 55.55 LIG 0.21  C 
ATOM     16 O    GLY E  46      20.891 -11.776  20.605  1.00 59.11 LIG-0.29  OA
ENDBRANCH 14 15
ENDBRANCH 12 14
ENDBRANCH 9 10
BRANCH 9 17
ATOM     17  CB  PHE E  45      22.176  -8.266  17.845  1.00 43.03 LIG 0.07  C 
BRANCH 17 18
ATOM     18  CG  PHE E  45      20.801  -8.382  18.450  1.00 41.93 LIG-0.06  A 
ATOM     19  CD2 PHE E  45      19.685  -8.623  17.650  1.00 42.38 LIG 0.01  A 
ATOM     20  CE2 PHE E  45      18.413  -8.758  18.215  1.00 42.73 LIG 0.00  A 
ATOM     21  CZ  PHE E  45      18.252  -8.651  19.593  1.00 42.74 LIG 0.00  A 
ATOM     22  CE1 PHE E  45      19.359  -8.412  20.403  1.00 41.89 LIG 0.00  A 
ATOM     23  CD1 PHE E  45      20.625  -8.279  19.829  1.00 42.01 LIG 0.01  A 
ENDBRANCH 17 18
ENDBRANCH 9 17
ENDBRANCH 6 9
ENDBRANCH 1 5
BRANCH 1 24
ATOM     24  N   SER E  44      27.840  -6.739  19.079  1.00 46.50 LIG-0.34  N 
ATOM     25  C   PHE E  43      28.490  -5.747  18.512  1.00 47.40 LIG 0.24  C 
ATOM     26 O    PHE E  43      28.345  -5.470  17.325  1.00 45.80 LIG-0.27  OA
ATOM     27 H    SER E  44      27.920  -6.991  19.897  1.00 46.50 LIG 0.16  HD
BRANCH 25 28
ATOM     28  CA  PHE E  43      29.471  -4.986  19.377  1.00 47.87 LIG 0.18  C 
BRANCH 28 29
ATOM     29  CB  PHE E  43      28.692  -4.178  20.410  1.00 42.32 LIG 0.07  C 
BRANCH 29 30
ATOM     30  CG  PHE E  43      27.289  -3.774  19.995  1.00 35.12 LIG-0.06  A 
ATOM     31  CD2 PHE E  43      27.019  -3.009  18.852  1.00 32.72 LIG 0.01  A 
ATOM     32  CE2 PHE E  43      25.683  -2.633  18.542  1.00 30.40 LIG 0.00  A 
ATOM     33  CZ  PHE E  43      24.632  -3.032  19.379  1.00 28.92 LIG 0.00  A 
ATOM     34  CE1 PHE E  43      24.911  -3.790  20.510  1.00 29.46 LIG 0.00  A 
ATOM     35  CD1 PHE E  43      26.229  -4.149  20.805  1.00 34.02 LIG 0.01  A 
ENDBRANCH 29 30
ENDBRANCH 28 29
BRANCH 28 36
ATOM     36  N   PHE E  43      30.024  -4.146  18.354  1.00 51.92 LIG-0.35  N 
ATOM     37  C   GLY E  42      31.219  -4.249  17.802  1.00 55.92 LIG 0.25  C 
ATOM     38 O    GLY E  42      32.082  -5.092  18.084  1.00 57.26 LIG-0.27  OA
ATOM     39 H    PHE E  43      29.475  -3.529  18.115  1.00 51.92 LIG 0.16  HD
BRANCH 37 40
ATOM     40  CA  GLY E  42      31.424  -3.194  16.745  1.00 58.33 LIG 0.47  C 
ATOM     41  N   GLY E  42      30.704  -3.414  15.523  1.00 60.94 LIG 0.61  N 
ENDBRANCH 37 40
ENDBRANCH 28 36
ENDBRANCH 25 28
ENDBRANCH 1 24
TORSDOF 15
ENDMDL
MODEL 35
USER: ADFR SOLUTION from run 103
USER: SCORE 11.646188 LL:  -2.575 LR: -10.300 RR:   0.000 FEB:  -5.826
USER: RMSD 8.069874
USER: SEED 102
USER: STATUS no improvement in best in 7 clusters for 5 generations
USER: GENES 17
USER: genes 0 Translation |==|  0.39806 0.40360 0.57565
USER: genes 1 Rotation |==|  0.55255 0.25007 0.92560 0.56035
USER: genes 2 Torsion [C]-CA--CB-[OG] |==|  0.53692
USER: genes 3 Torsion [CA]-CB--OG-[HG] |==|  0.44829
USER: genes 4 Torsion [N]-CA--C-[N] |==|  0.35282
USER: genes 5 Torsion [C]-N--CA-[C] |==|  0.23105
USER: genes 6 Torsion [N]-CA--C-[N] |==|  0.82565
USER: genes 7 Torsion [C]-N--CA-[C] |==|  0.62390
USER: genes 8 Torsion [N]-CA--C-[O] |==|  0.03249
USER: genes 9 Torsion [N]-CA--CB-[CG] |==|  0.81952
USER: genes 10 Torsion [CA]-CB--CG-[CD2] |==|  0.10552
USER: genes 11 Torsion [CB]-CA--N-[C] |==|  0.84377
USER: genes 12 Torsion [N]-C--CA-[N] |==|  0.35076
USER: genes 13 Torsion [C]-CA--CB-[CG] |==|  0.84681
USER: genes 14 Torsion [CA]-CB--CG-[CD2] |==|  0.81041
USER: genes 15 Torsion [C]-CA--N-[C] |==|  0.54444
USER: genes 16 Torsion [N]-C--CA-[N] |==|  0.26207
ROOT
ATOM      1  CA  SER E  44      24.084  -9.491  19.494  1.00 44.79 LIG 0.20  C 
ENDROOT
BRANCH 1 2
ATOM      2  CB  SER E  44      23.428  -8.504  20.457  1.00 46.10 LIG 0.20  C 
BRANCH 2 3
ATOM      3 OG   SER E  44      24.319  -8.173  21.502  1.00 47.85 LIG-0.40  OA
ATOM      4 HG   SER E  44      24.067  -7.462  21.871  1.00 47.85 LIG 0.21  HD
ENDBRANCH 2 3
ENDBRANCH 1 2
BRANCH 1 5
ATOM      5  C   SER E  44      23.268  -9.588  18.224  1.00 42.78 LIG 0.24  C 
ATOM      6  N   PHE E  45      22.629 -10.735  18.054  1.00 43.36 LIG-0.35  N 
ATOM      7 H    PHE E  45      22.670 -11.396  18.604  1.00 43.36 LIG 0.16  HD
ATOM      8 O    SER E  44      23.237  -8.668  17.405  1.00 37.54 LIG-0.27  OA
BRANCH 6 9
ATOM      9  CA  PHE E  45      21.785 -10.968  16.894  1.00 46.68 LIG 0.18  C 
BRANCH 9 10
ATOM     10  C   PHE E  45      22.671 -11.410  15.738  1.00 48.11 LIG 0.24  C 
ATOM     11 O    PHE E  45      22.534 -12.527  15.234  1.00 49.85 LIG-0.27  OA
ATOM     12  N   GLY E  46      23.578 -10.542  15.311  1.00 50.71 LIG-0.35  N 
ATOM     13 H    GLY E  46      23.705  -9.757  15.638  1.00 50.71 LIG 0.16  HD
BRANCH 12 14
ATOM     14  CA  GLY E  46      24.443 -10.908  14.207  1.00 54.23 LIG 0.21  C 
BRANCH 14 15
ATOM     15  C   GLY E  46      25.889 -10.538  14.452  1.00 55.55 LIG 0.21  C 
ATOM     16 O    GLY E  46      26.206 -10.191  15.606  1.00 59.11 LIG-0.29  OA
ENDBRANCH 14 15
ENDBRANCH 12 14
ENDBRANCH 9 10
BRANCH 9 17
ATOM     17  CB  PHE E  45      21.019  -9.695  16.518  1.00 43.03 LIG 0.07  C 
BRANCH 17 18
ATOM     18  CG  PHE E  45      20.029  -9.250  17.564  1.00 41.93 LIG-0.06  A 
ATOM     19  CD2 PHE E  45      20.324  -9.363  18.922  1.00 42.38 LIG 0.01  A 
ATOM     20  CE2 PHE E  45      19.417  -8.923  19.891  1.00 42.73 LIG 0.00  A 
ATOM     21  CZ  PHE E  45      18.203  -8.366  19.503  1.00 42.74 LIG 0.00  A 
ATOM     22  CE1 PHE E  45      17.898  -8.246  18.150  1.00 41.89 LIG 0.00  A 
ATOM     23  CD1 PHE E  45      18.811  -8.688  17.190  1.00 42.01 LIG 0.01  A 
ENDBRANCH 17 18
ENDBRANCH 9 17
ENDBRANCH 6 9
ENDBRANCH 1 5
BRANCH 1 24
ATOM     24  N   SER E  44      25.457  -9.106  19.243  1.00 46.50 LIG-0.34  N 
ATOM     25  C   PHE E  43      25.687  -7.897  18.781  1.00 47.40 LIG 0.24  C 
ATOM     26 O    PHE E  43      24.775  -7.114  18.529  1.00 45.80 LIG-0.27  OA
ATOM     27 H    SER E  44      26.053  -9.701  19.414  1.00 46.50 LIG 0.16  HD
BRANCH 25 28
ATOM     28  CA  PHE E  43      27.130  -7.524  18.522  1.00 47.87 LIG 0.18  C 
BRANCH 28 29
ATOM     29  CB  PHE E  43      27.507  -6.358  19.432  1.00 42.32 LIG 0.07  C 
BRANCH 29 30
ATOM     30  CG  PHE E  43      26.614  -5.136  19.326  1.00 35.12 LIG-0.06  A 
ATOM     31  CD2 PHE E  43      26.566  -4.319  18.188  1.00 32.72 LIG 0.01  A 
ATOM     32  CE2 PHE E  43      25.734  -3.166  18.170  1.00 30.40 LIG 0.00  A 
ATOM     33  CZ  PHE E  43      24.955  -2.847  19.290  1.00 28.92 LIG 0.00  A 
ATOM     34  CE1 PHE E  43      25.009  -3.664  20.413  1.00 29.46 LIG 0.00  A 
ATOM     35  CD1 PHE E  43      25.834  -4.792  20.419  1.00 34.02 LIG 0.01  A 
ENDBRANCH 29 30
ENDBRANCH 28 29
BRANCH 28 36
ATOM     36  N   PHE E  43      26.984  -7.106  17.158  1.00 51.92 LIG-0.35  N 
ATOM     37  C   GLY E  42      27.948  -6.934  16.273  1.00 55.92 LIG 0.25  C 
ATOM     38 O    GLY E  42      29.159  -7.095  16.474  1.00 57.26 LIG-0.27  OA
ATOM     39 H    PHE E  43      26.160  -6.967  16.953  1.00 51.92 LIG 0.16  HD
BRANCH 37 40
ATOM     40  CA  GLY E  42      27.391  -6.511  14.936  1.00 58.33 LIG 0.47  C 
ATOM     41  N   GLY E  42      27.361  -5.093  14.716  1.00 60.94 LIG 0.61  N 
ENDBRANCH 37 40
ENDBRANCH 28 36
ENDBRANCH 25 28
ENDBRANCH 1 24
TORSDOF 15
ENDMDL
MODEL 36
USER: ADFR SOLUTION from run 37
USER: SCORE 11.897883 LL:  -2.514 LR: -10.295 RR:   0.000 FEB:  -5.820
USER: RMSD 9.247238
USER: SEED 36
USER: STATUS no improvement in best in 11 clusters for 5 generations
USER: GENES 17
USER: genes 0 Translation |==|  0.43917 0.48787 0.57594
USER: genes 1 Rotation |==|  0.21241 0.84862 0.65946 0.64258
USER: genes 2 Torsion [C]-CA--CB-[OG] |==|  0.34569
USER: genes 3 Torsion [CA]-CB--OG-[HG] |==|  0.74048
USER: genes 4 Torsion [N]-CA--C-[N] |==|  0.67772
USER: genes 5 Torsion [C]-N--CA-[C] |==|  0.60822
USER: genes 6 Torsion [N]-CA--C-[N] |==|  0.48816
USER: genes 7 Torsion [C]-N--CA-[C] |==|  0.39583
USER: genes 8 Torsion [N]-CA--C-[O] |==|  0.97780
USER: genes 9 Torsion [N]-CA--CB-[CG] |==|  0.68562
USER: genes 10 Torsion [CA]-CB--CG-[CD2] |==|  0.48738
USER: genes 11 Torsion [CB]-CA--N-[C] |==|  0.18627
USER: genes 12 Torsion [N]-C--CA-[N] |==|  0.40652
USER: genes 13 Torsion [C]-CA--CB-[CG] |==|  0.93615
USER: genes 14 Torsion [CA]-CB--CG-[CD2] |==|  0.77420
USER: genes 15 Torsion [C]-CA--N-[C] |==|  0.79631
USER: genes 16 Torsion [N]-C--CA-[N] |==|  0.77926
ROOT
ATOM      1  CA  SER E  44      25.040  -7.785  19.497  1.00 44.79 LIG 0.20  C 
ENDROOT
BRANCH 1 2
ATOM      2  CB  SER E  44      25.889  -8.896  18.883  1.00 46.10 LIG 0.20  C 
BRANCH 2 3
ATOM      3 OG   SER E  44      26.475  -8.454  17.675  1.00 47.85 LIG-0.40  OA
ATOM      4 HG   SER E  44      25.982  -8.668  17.030  1.00 47.85 LIG 0.21  HD
ENDBRANCH 2 3
ENDBRANCH 1 2
BRANCH 1 5
ATOM      5  C   SER E  44      23.629  -8.282  19.722  1.00 42.78 LIG 0.24  C 
ATOM      6  N   PHE E  45      23.447  -9.574  19.495  1.00 43.36 LIG-0.35  N 
ATOM      7 H    PHE E  45      24.066 -10.107  19.226  1.00 43.36 LIG 0.16  HD
ATOM      8 O    SER E  44      22.723  -7.519  20.063  1.00 37.54 LIG-0.27  OA
BRANCH 6 9
ATOM      9  CA  PHE E  45      22.152 -10.202  19.692  1.00 46.68 LIG 0.18  C 
BRANCH 9 10
ATOM     10  C   PHE E  45      22.375 -11.579  20.301  1.00 48.11 LIG 0.24  C 
ATOM     11 O    PHE E  45      23.516 -12.013  20.472  1.00 49.85 LIG-0.27  OA
ATOM     12  N   GLY E  46      21.293 -12.271  20.633  1.00 50.71 LIG-0.35  N 
ATOM     13 H    GLY E  46      20.482 -12.005  20.527  1.00 50.71 LIG 0.16  HD
BRANCH 12 14
ATOM     14  CA  GLY E  46      21.447 -13.586  21.225  1.00 54.23 LIG 0.21  C 
BRANCH 14 15
ATOM     15  C   GLY E  46      20.422 -13.864  22.301  1.00 55.55 LIG 0.21  C 
ATOM     16 O    GLY E  46      19.691 -12.920  22.657  1.00 59.11 LIG-0.29  OA
ENDBRANCH 14 15
ENDBRANCH 12 14
ENDBRANCH 9 10
BRANCH 9 17
ATOM     17  CB  PHE E  45      21.404 -10.327  18.360  1.00 43.03 LIG 0.07  C 
BRANCH 17 18
ATOM     18  CG  PHE E  45      20.166  -9.471  18.276  1.00 41.93 LIG-0.06  A 
ATOM     19  CD2 PHE E  45      19.425  -9.398  17.097  1.00 42.38 LIG 0.01  A 
ATOM     20  CE2 PHE E  45      18.261  -8.627  17.029  1.00 42.73 LIG 0.00  A 
ATOM     21  CZ  PHE E  45      17.831  -7.920  18.148  1.00 42.74 LIG 0.00  A 
ATOM     22  CE1 PHE E  45      18.561  -7.986  19.331  1.00 41.89 LIG 0.00  A 
ATOM     23  CD1 PHE E  45      19.722  -8.760  19.389  1.00 42.01 LIG 0.01  A 
ENDBRANCH 17 18
ENDBRANCH 9 17
ENDBRANCH 6 9
ENDBRANCH 1 5
BRANCH 1 24
ATOM     24  N   SER E  44      25.658  -7.300  20.713  1.00 46.50 LIG-0.34  N 
ATOM     25  C   PHE E  43      26.803  -6.660  20.614  1.00 47.40 LIG 0.24  C 
ATOM     26 O    PHE E  43      27.365  -6.500  19.534  1.00 45.80 LIG-0.27  OA
ATOM     27 H    SER E  44      25.233  -7.460  21.443  1.00 46.50 LIG 0.16  HD
BRANCH 25 28
ATOM     28  CA  PHE E  43      27.430  -6.170  21.901  1.00 47.87 LIG 0.18  C 
BRANCH 28 29
ATOM     29  CB  PHE E  43      27.073  -4.699  22.092  1.00 42.32 LIG 0.07  C 
BRANCH 29 30
ATOM     30  CG  PHE E  43      26.710  -3.948  20.824  1.00 35.12 LIG-0.06  A 
ATOM     31  CD2 PHE E  43      27.666  -3.429  19.942  1.00 32.72 LIG 0.01  A 
ATOM     32  CE2 PHE E  43      27.256  -2.702  18.790  1.00 30.40 LIG 0.00  A 
ATOM     33  CZ  PHE E  43      25.892  -2.508  18.533  1.00 28.92 LIG 0.00  A 
ATOM     34  CE1 PHE E  43      24.952  -3.027  19.416  1.00 29.46 LIG 0.00  A 
ATOM     35  CD1 PHE E  43      25.369  -3.737  20.545  1.00 34.02 LIG 0.01  A 
ENDBRANCH 29 30
ENDBRANCH 28 29
BRANCH 28 36
ATOM     36  N   PHE E  43      28.804  -6.338  21.527  1.00 51.92 LIG-0.35  N 
ATOM     37  C   GLY E  42      29.463  -7.477  21.415  1.00 55.92 LIG 0.25  C 
ATOM     38 O    GLY E  42      29.005  -8.608  21.628  1.00 57.26 LIG-0.27  OA
ATOM     39 H    PHE E  43      29.188  -5.584  21.371  1.00 51.92 LIG 0.16  HD
BRANCH 37 40
ATOM     40  CA  GLY E  42      30.886  -7.242  20.976  1.00 58.33 LIG 0.47  C 
ATOM     41  N   GLY E  42      31.054  -7.003  19.570  1.00 60.94 LIG 0.61  N 
ENDBRANCH 37 40
ENDBRANCH 28 36
ENDBRANCH 25 28
ENDBRANCH 1 24
TORSDOF 15
ENDMDL
MODEL 37
USER: ADFR SOLUTION from run 158
USER: SCORE 11.961501 LL:  -2.676 LR: -10.256 RR:   0.000 FEB:  -5.781
USER: RMSD 9.169261
USER: SEED 157
USER: STATUS no improvement in best in 17 clusters for 5 generations
USER: GENES 17
USER: genes 0 Translation |==|  0.47779 0.51779 0.49953
USER: genes 1 Rotation |==|  0.14918 0.84252 0.59618 0.51892
USER: genes 2 Torsion [C]-CA--CB-[OG] |==|  0.30339
USER: genes 3 Torsion [CA]-CB--OG-[HG] |==|  0.90483
USER: genes 4 Torsion [N]-CA--C-[N] |==|  0.44108
USER: genes 5 Torsion [C]-N--CA-[C] |==|  0.78314
USER: genes 6 Torsion [N]-CA--C-[N] |==|  0.48118
USER: genes 7 Torsion [C]-N--CA-[C] |==|  0.49431
USER: genes 8 Torsion [N]-CA--C-[O] |==|  0.00244
USER: genes 9 Torsion [N]-CA--CB-[CG] |==|  0.65273
USER: genes 10 Torsion [CA]-CB--CG-[CD2] |==|  0.44061
USER: genes 11 Torsion [CB]-CA--N-[C] |==|  0.48362
USER: genes 12 Torsion [N]-C--CA-[N] |==|  0.94086
USER: genes 13 Torsion [C]-CA--CB-[CG] |==|  0.83469
USER: genes 14 Torsion [CA]-CB--CG-[CD2] |==|  0.22235
USER: genes 15 Torsion [C]-CA--N-[C] |==|  0.74736
USER: genes 16 Torsion [N]-C--CA-[N] |==|  0.27084
ROOT
ATOM      1  CA  SER E  44      25.938  -7.179  18.523  1.00 44.79 LIG 0.20  C 
ENDROOT
BRANCH 1 2
ATOM      2  CB  SER E  44      27.053  -8.213  18.385  1.00 46.10 LIG 0.20  C 
BRANCH 2 3
ATOM      3 OG   SER E  44      27.204  -8.593  17.032  1.00 47.85 LIG-0.40  OA
ATOM      4 HG   SER E  44      26.454  -8.588  16.654  1.00 47.85 LIG 0.21  HD
ENDBRANCH 2 3
ENDBRANCH 1 2
BRANCH 1 5
ATOM      5  C   SER E  44      24.743  -7.802  19.209  1.00 42.78 LIG 0.24  C 
ATOM      6  N   PHE E  45      23.991  -8.571  18.437  1.00 43.36 LIG-0.35  N 
ATOM      7 H    PHE E  45      24.142  -8.710  17.601  1.00 43.36 LIG 0.16  HD
ATOM      8 O    SER E  44      24.487  -7.574  20.393  1.00 37.54 LIG-0.27  OA
BRANCH 6 9
ATOM      9  CA  PHE E  45      22.822  -9.258  18.960  1.00 46.68 LIG 0.18  C 
BRANCH 9 10
ATOM     10  C   PHE E  45      23.291 -10.483  19.732  1.00 48.11 LIG 0.24  C 
ATOM     11 O    PHE E  45      24.479 -10.812  19.726  1.00 49.85 LIG-0.27  OA
ATOM     12  N   GLY E  46      22.368 -11.161  20.401  1.00 50.71 LIG-0.35  N 
ATOM     13 H    GLY E  46      21.531 -10.965  20.427  1.00 50.71 LIG 0.16  HD
BRANCH 12 14
ATOM     14  CA  GLY E  46      22.760 -12.332  21.160  1.00 54.23 LIG 0.21  C 
BRANCH 14 15
ATOM     15  C   GLY E  46      21.603 -12.960  21.902  1.00 55.55 LIG 0.21  C 
ATOM     16 O    GLY E  46      20.481 -12.434  21.770  1.00 59.11 LIG-0.29  OA
ENDBRANCH 14 15
ENDBRANCH 12 14
ENDBRANCH 9 10
BRANCH 9 17
ATOM     17  CB  PHE E  45      21.886  -9.676  17.820  1.00 43.03 LIG 0.07  C 
BRANCH 17 18
ATOM     18  CG  PHE E  45      20.474  -9.173  17.978  1.00 41.93 LIG-0.06  A 
ATOM     19  CD2 PHE E  45      19.624  -9.068  16.877  1.00 42.38 LIG 0.01  A 
ATOM     20  CE2 PHE E  45      18.306  -8.628  17.029  1.00 42.73 LIG 0.00  A 
ATOM     21  CZ  PHE E  45      17.829  -8.289  18.291  1.00 42.74 LIG 0.00  A 
ATOM     22  CE1 PHE E  45      18.666  -8.391  19.398  1.00 41.89 LIG 0.00  A 
ATOM     23  CD1 PHE E  45      19.982  -8.832  19.236  1.00 42.01 LIG 0.01  A 
ENDBRANCH 17 18
ENDBRANCH 9 17
ENDBRANCH 6 9
ENDBRANCH 1 5
BRANCH 1 24
ATOM     24  N   SER E  44      26.428  -6.007  19.218  1.00 46.50 LIG-0.34  N 
ATOM     25  C   PHE E  43      25.629  -4.967  19.319  1.00 47.40 LIG 0.24  C 
ATOM     26 O    PHE E  43      24.509  -4.958  18.816  1.00 45.80 LIG-0.27  OA
ATOM     27 H    SER E  44      27.227  -6.059  19.529  1.00 46.50 LIG 0.16  HD
BRANCH 25 28
ATOM     28  CA  PHE E  43      26.170  -3.754  20.044  1.00 47.87 LIG 0.18  C 
BRANCH 28 29
ATOM     29  CB  PHE E  43      26.751  -2.787  19.017  1.00 42.32 LIG 0.07  C 
BRANCH 29 30
ATOM     30  CG  PHE E  43      27.879  -3.342  18.167  1.00 35.12 LIG-0.06  A 
ATOM     31  CD2 PHE E  43      27.664  -4.166  17.054  1.00 32.72 LIG 0.01  A 
ATOM     32  CE2 PHE E  43      28.769  -4.683  16.323  1.00 30.40 LIG 0.00  A 
ATOM     33  CZ  PHE E  43      30.077  -4.364  16.713  1.00 28.92 LIG 0.00  A 
ATOM     34  CE1 PHE E  43      30.279  -3.546  17.818  1.00 29.46 LIG 0.00  A 
ATOM     35  CD1 PHE E  43      29.184  -3.047  18.530  1.00 34.02 LIG 0.01  A 
ENDBRANCH 29 30
ENDBRANCH 28 29
BRANCH 28 36
ATOM     36  N   PHE E  43      27.200  -4.414  20.792  1.00 51.92 LIG-0.35  N 
ATOM     37  C   GLY E  42      27.094  -4.933  22.002  1.00 55.92 LIG 0.25  C 
ATOM     38 O    GLY E  42      26.079  -4.927  22.711  1.00 57.26 LIG-0.27  OA
ATOM     39 H    PHE E  43      27.941  -4.446  20.356  1.00 51.92 LIG 0.16  HD
BRANCH 37 40
ATOM     40  CA  GLY E  42      28.393  -5.563  22.440  1.00 58.33 LIG 0.47  C 
ATOM     41  N   GLY E  42      29.214  -4.735  23.277  1.00 60.94 LIG 0.61  N 
ENDBRANCH 37 40
ENDBRANCH 28 36
ENDBRANCH 25 28
ENDBRANCH 1 24
TORSDOF 15
ENDMDL
MODEL 38
USER: ADFR SOLUTION from run 72
USER: SCORE 12.274457 LL:  -2.599 LR: -10.237 RR:   0.000 FEB:  -5.762
USER: RMSD 8.943529
USER: SEED 71
USER: STATUS no improvement in best in 13 clusters for 5 generations
USER: GENES 17
USER: genes 0 Translation |==|  0.49230 0.49339 0.52217
USER: genes 1 Rotation |==|  0.18402 0.84713 0.65635 0.57218
USER: genes 2 Torsion [C]-CA--CB-[OG] |==|  0.21000
USER: genes 3 Torsion [CA]-CB--OG-[HG] |==|  0.06577
USER: genes 4 Torsion [N]-CA--C-[N] |==|  0.42512
USER: genes 5 Torsion [C]-N--CA-[C] |==|  0.83087
USER: genes 6 Torsion [N]-CA--C-[N] |==|  0.42133
USER: genes 7 Torsion [C]-N--CA-[C] |==|  0.58915
USER: genes 8 Torsion [N]-CA--C-[O] |==|  0.85642
USER: genes 9 Torsion [N]-CA--CB-[CG] |==|  0.62273
USER: genes 10 Torsion [CA]-CB--CG-[CD2] |==|  0.98462
USER: genes 11 Torsion [CB]-CA--N-[C] |==|  0.51234
USER: genes 12 Torsion [N]-C--CA-[N] |==|  0.36416
USER: genes 13 Torsion [C]-CA--CB-[CG] |==|  0.15497
USER: genes 14 Torsion [CA]-CB--CG-[CD2] |==|  0.58848
USER: genes 15 Torsion [C]-CA--N-[C] |==|  0.83556
USER: genes 16 Torsion [N]-C--CA-[N] |==|  0.46569
ROOT
ATOM      1  CA  SER E  44      26.275  -7.673  18.812  1.00 44.79 LIG 0.20  C 
ENDROOT
BRANCH 1 2
ATOM      2  CB  SER E  44      27.223  -8.747  18.282  1.00 46.10 LIG 0.20  C 
BRANCH 2 3
ATOM      3 OG   SER E  44      26.763  -9.238  17.040  1.00 47.85 LIG-0.40  OA
ATOM      4 HG   SER E  44      26.273  -8.661  16.675  1.00 47.85 LIG 0.21  HD
ENDBRANCH 2 3
ENDBRANCH 1 2
BRANCH 1 5
ATOM      5  C   SER E  44      25.021  -8.319  19.357  1.00 42.78 LIG 0.24  C 
ATOM      6  N   PHE E  45      24.093  -8.593  18.452  1.00 43.36 LIG-0.35  N 
ATOM      7 H    PHE E  45      24.169  -8.413  17.614  1.00 43.36 LIG 0.16  HD
ATOM      8 O    SER E  44      24.879  -8.539  20.561  1.00 37.54 LIG-0.27  OA
BRANCH 6 9
ATOM      9  CA  PHE E  45      22.843  -9.237  18.820  1.00 46.68 LIG 0.18  C 
BRANCH 9 10
ATOM     10  C   PHE E  45      23.164 -10.600  19.417  1.00 48.11 LIG 0.24  C 
ATOM     11 O    PHE E  45      24.181 -11.209  19.080  1.00 49.85 LIG-0.27  OA
ATOM     12  N   GLY E  46      22.305 -11.083  20.306  1.00 50.71 LIG-0.35  N 
ATOM     13 H    GLY E  46      21.585 -10.690  20.564  1.00 50.71 LIG 0.16  HD
BRANCH 12 14
ATOM     14  CA  GLY E  46      22.566 -12.374  20.913  1.00 54.23 LIG 0.21  C 
BRANCH 14 15
ATOM     15  C   GLY E  46      21.298 -13.130  21.242  1.00 55.55 LIG 0.21  C 
ATOM     16 O    GLY E  46      20.428 -12.533  21.904  1.00 59.11 LIG-0.29  OA
ENDBRANCH 14 15
ENDBRANCH 12 14
ENDBRANCH 9 10
BRANCH 9 17
ATOM     17  CB  PHE E  45      21.935  -9.395  17.596  1.00 43.03 LIG 0.07  C 
BRANCH 17 18
ATOM     18  CG  PHE E  45      20.497  -9.027  17.854  1.00 41.93 LIG-0.06  A 
ATOM     19  CD2 PHE E  45      20.061  -8.699  19.138  1.00 42.38 LIG 0.01  A 
ATOM     20  CE2 PHE E  45      18.734  -8.331  19.372  1.00 42.73 LIG 0.00  A 
ATOM     21  CZ  PHE E  45      17.829  -8.289  18.315  1.00 42.74 LIG 0.00  A 
ATOM     22  CE1 PHE E  45      18.251  -8.612  17.029  1.00 41.89 LIG 0.00  A 
ATOM     23  CD1 PHE E  45      19.581  -8.979  16.806  1.00 42.01 LIG 0.01  A 
ENDBRANCH 17 18
ENDBRANCH 9 17
ENDBRANCH 6 9
ENDBRANCH 1 5
BRANCH 1 24
ATOM     24  N   SER E  44      26.950  -6.854  19.796  1.00 46.50 LIG-0.34  N 
ATOM     25  C   PHE E  43      26.250  -5.932  20.421  1.00 47.40 LIG 0.24  C 
ATOM     26 O    PHE E  43      25.066  -5.734  20.166  1.00 45.80 LIG-0.27  OA
ATOM     27 H    SER E  44      27.785  -7.019  19.917  1.00 46.50 LIG 0.16  HD
BRANCH 25 28
ATOM     28  CA  PHE E  43      26.982  -5.087  21.439  1.00 47.87 LIG 0.18  C 
BRANCH 28 29
ATOM     29  CB  PHE E  43      26.441  -5.412  22.829  1.00 42.32 LIG 0.07  C 
BRANCH 29 30
ATOM     30  CG  PHE E  43      26.506  -6.875  23.225  1.00 35.12 LIG-0.06  A 
ATOM     31  CD2 PHE E  43      25.563  -7.482  24.065  1.00 32.72 LIG 0.01  A 
ATOM     32  CE2 PHE E  43      25.705  -8.851  24.427  1.00 30.40 LIG 0.00  A 
ATOM     33  CZ  PHE E  43      26.786  -9.596  23.939  1.00 28.92 LIG 0.00  A 
ATOM     34  CE1 PHE E  43      27.716  -8.984  23.107  1.00 29.46 LIG 0.00  A 
ATOM     35  CD1 PHE E  43      27.567  -7.638  22.761  1.00 34.02 LIG 0.01  A 
ENDBRANCH 29 30
ENDBRANCH 28 29
BRANCH 28 36
ATOM     36  N   PHE E  43      26.536  -3.802  20.985  1.00 51.92 LIG-0.35  N 
ATOM     37  C   GLY E  42      26.716  -3.277  19.787  1.00 55.92 LIG 0.25  C 
ATOM     38 O    GLY E  42      27.318  -3.806  18.842  1.00 57.26 LIG-0.27  OA
ATOM     39 H    PHE E  43      26.114  -3.373  21.600  1.00 51.92 LIG 0.16  HD
BRANCH 37 40
ATOM     40  CA  GLY E  42      26.078  -1.914  19.687  1.00 58.33 LIG 0.47  C 
ATOM     41  N   GLY E  42      26.454  -1.154  18.529  1.00 60.94 LIG 0.61  N 
ENDBRANCH 37 40
ENDBRANCH 28 36
ENDBRANCH 25 28
ENDBRANCH 1 24
TORSDOF 15
ENDMDL
MODEL 39
USER: ADFR SOLUTION from run 28
USER: SCORE 11.394568 LL:  -2.871 LR: -10.217 RR:   0.000 FEB:  -5.743
USER: RMSD 8.693185
USER: SEED 27
USER: STATUS no improvement in best in 14 clusters for 5 generations
USER: GENES 17
USER: genes 0 Translation |==|  0.47975 0.46812 0.55358
USER: genes 1 Rotation |==|  0.77573 0.34469 0.88273 0.55806
USER: genes 2 Torsion [C]-CA--CB-[OG] |==|  0.40099
USER: genes 3 Torsion [CA]-CB--OG-[HG] |==|  0.07821
USER: genes 4 Torsion [N]-CA--C-[N] |==|  0.64616
USER: genes 5 Torsion [C]-N--CA-[C] |==|  0.21079
USER: genes 6 Torsion [N]-CA--C-[N] |==|  0.50556
USER: genes 7 Torsion [C]-N--CA-[C] |==|  0.27027
USER: genes 8 Torsion [N]-CA--C-[O] |==|  0.13900
USER: genes 9 Torsion [N]-CA--CB-[CG] |==|  0.62284
USER: genes 10 Torsion [CA]-CB--CG-[CD2] |==|  0.51993
USER: genes 11 Torsion [CB]-CA--N-[C] |==|  0.18099
USER: genes 12 Torsion [N]-C--CA-[N] |==|  0.88391
USER: genes 13 Torsion [C]-CA--CB-[CG] |==|  0.06739
USER: genes 14 Torsion [CA]-CB--CG-[CD2] |==|  0.67538
USER: genes 15 Torsion [C]-CA--N-[C] |==|  0.78427
USER: genes 16 Torsion [N]-C--CA-[N] |==|  0.69671
ROOT
ATOM      1  CA  SER E  44      25.983  -8.185  19.212  1.00 44.79 LIG 0.20  C 
ENDROOT
BRANCH 1 2
ATOM      2  CB  SER E  44      25.823  -7.259  20.417  1.00 46.10 LIG 0.20  C 
BRANCH 2 3
ATOM      3 OG   SER E  44      27.036  -7.176  21.136  1.00 47.85 LIG-0.40  OA
ATOM      4 HG   SER E  44      27.681  -7.304  20.614  1.00 47.85 LIG 0.21  HD
ENDBRANCH 2 3
ENDBRANCH 1 2
BRANCH 1 5
ATOM      5  C   SER E  44      24.702  -8.955  18.983  1.00 42.78 LIG 0.24  C 
ATOM      6  N   PHE E  45      23.758  -8.754  19.889  1.00 43.36 LIG-0.35  N 
ATOM      7 H    PHE E  45      23.848  -8.241  20.574  1.00 43.36 LIG 0.16  HD
ATOM      8 O    SER E  44      24.576  -9.729  18.033  1.00 37.54 LIG-0.27  OA
BRANCH 6 9
ATOM      9  CA  PHE E  45      22.462  -9.406  19.791  1.00 46.68 LIG 0.18  C 
BRANCH 9 10
ATOM     10  C   PHE E  45      22.624 -10.861  20.207  1.00 48.11 LIG 0.24  C 
ATOM     11 O    PHE E  45      23.716 -11.287  20.588  1.00 49.85 LIG-0.27  OA
ATOM     12  N   GLY E  46      21.544 -11.628  20.140  1.00 50.71 LIG-0.35  N 
ATOM     13 H    GLY E  46      20.768 -11.369  19.877  1.00 50.71 LIG 0.16  HD
BRANCH 12 14
ATOM     14  CA  GLY E  46      21.640 -13.021  20.532  1.00 54.23 LIG 0.21  C 
BRANCH 14 15
ATOM     15  C   GLY E  46      21.181 -13.258  21.953  1.00 55.55 LIG 0.21  C 
ATOM     16 O    GLY E  46      20.077 -12.789  22.287  1.00 59.11 LIG-0.29  OA
ENDBRANCH 14 15
ENDBRANCH 12 14
ENDBRANCH 9 10
BRANCH 9 17
ATOM     17  CB  PHE E  45      21.922  -9.321  18.359  1.00 43.03 LIG 0.07  C 
BRANCH 17 18
ATOM     18  CG  PHE E  45      20.463  -8.950  18.280  1.00 41.93 LIG-0.06  A 
ATOM     19  CD2 PHE E  45      19.783  -8.975  17.064  1.00 42.38 LIG 0.01  A 
ATOM     20  CE2 PHE E  45      18.423  -8.659  16.997  1.00 42.73 LIG 0.00  A 
ATOM     21  CZ  PHE E  45      17.734  -8.312  18.154  1.00 42.74 LIG 0.00  A 
ATOM     22  CE1 PHE E  45      18.401  -8.284  19.375  1.00 41.89 LIG 0.00  A 
ATOM     23  CD1 PHE E  45      19.760  -8.602  19.432  1.00 42.01 LIG 0.01  A 
ENDBRANCH 17 18
ENDBRANCH 9 17
ENDBRANCH 6 9
ENDBRANCH 1 5
BRANCH 1 24
ATOM     24  N   SER E  44      26.389  -7.424  18.049  1.00 46.50 LIG-0.34  N 
ATOM     25  C   PHE E  43      27.569  -6.843  18.070  1.00 47.40 LIG 0.24  C 
ATOM     26 O    PHE E  43      28.305  -6.903  19.051  1.00 45.80 LIG-0.27  OA
ATOM     27 H    SER E  44      25.826  -7.395  17.401  1.00 46.50 LIG 0.16  HD
BRANCH 25 28
ATOM     28  CA  PHE E  43      27.965  -6.049  16.845  1.00 47.87 LIG 0.18  C 
BRANCH 28 29
ATOM     29  CB  PHE E  43      27.182  -4.739  16.834  1.00 42.32 LIG 0.07  C 
BRANCH 29 30
ATOM     30  CG  PHE E  43      26.697  -4.261  18.190  1.00 35.12 LIG-0.06  A 
ATOM     31  CD2 PHE E  43      25.340  -4.128  18.514  1.00 32.72 LIG 0.01  A 
ATOM     32  CE2 PHE E  43      24.955  -3.638  19.793  1.00 30.40 LIG 0.00  A 
ATOM     33  CZ  PHE E  43      25.933  -3.290  20.733  1.00 28.92 LIG 0.00  A 
ATOM     34  CE1 PHE E  43      27.277  -3.425  20.401  1.00 29.46 LIG 0.00  A 
ATOM     35  CD1 PHE E  43      27.641  -3.905  19.141  1.00 34.02 LIG 0.01  A 
ENDBRANCH 29 30
ENDBRANCH 28 29
BRANCH 28 36
ATOM     36  N   PHE E  43      27.480  -6.963  15.852  1.00 51.92 LIG-0.35  N 
ATOM     37  C   GLY E  42      28.057  -8.082  15.454  1.00 55.92 LIG 0.25  C 
ATOM     38 O    GLY E  42      29.134  -8.533  15.866  1.00 57.26 LIG-0.27  OA
ATOM     39 H    PHE E  43      26.732  -6.703  15.516  1.00 51.92 LIG 0.16  HD
BRANCH 37 40
ATOM     40  CA  GLY E  42      27.226  -8.782  14.408  1.00 58.33 LIG 0.47  C 
ATOM     41  N   GLY E  42      26.594  -9.993  14.849  1.00 60.94 LIG 0.61  N 
ENDBRANCH 37 40
ENDBRANCH 28 36
ENDBRANCH 25 28
ENDBRANCH 1 24
TORSDOF 15
ENDMDL
MODEL 40
USER: ADFR SOLUTION from run 172
USER: SCORE 11.987328 LL:  -3.187 LR: -10.203 RR:   0.000 FEB:  -5.729
USER: RMSD 8.608782
USER: SEED 171
USER: STATUS no improvement in best in 9 clusters for 5 generations
USER: GENES 17
USER: genes 0 Translation |==|  0.50741 0.44020 0.52551
USER: genes 1 Rotation |==|  0.17577 0.87104 0.52497 0.58115
USER: genes 2 Torsion [C]-CA--CB-[OG] |==|  0.61712
USER: genes 3 Torsion [CA]-CB--OG-[HG] |==|  0.88302
USER: genes 4 Torsion [N]-CA--C-[N] |==|  0.34411
USER: genes 5 Torsion [C]-N--CA-[C] |==|  0.65593
USER: genes 6 Torsion [N]-CA--C-[N] |==|  0.88453
USER: genes 7 Torsion [C]-N--CA-[C] |==|  0.23059
USER: genes 8 Torsion [N]-CA--C-[O] |==|  0.86926
USER: genes 9 Torsion [N]-CA--CB-[CG] |==|  0.52302
USER: genes 10 Torsion [CA]-CB--CG-[CD2] |==|  0.72378
USER: genes 11 Torsion [CB]-CA--N-[C] |==|  0.49445
USER: genes 12 Torsion [N]-C--CA-[N] |==|  0.44998
USER: genes 13 Torsion [C]-CA--CB-[CG] |==|  0.15311
USER: genes 14 Torsion [CA]-CB--CG-[CD2] |==|  0.14591
USER: genes 15 Torsion [C]-CA--N-[C] |==|  0.64146
USER: genes 16 Torsion [N]-C--CA-[N] |==|  0.41914
ROOT
ATOM      1  CA  SER E  44      26.626  -8.750  18.854  1.00 44.79 LIG 0.20  C 
ENDROOT
BRANCH 1 2
ATOM      2  CB  SER E  44      27.475  -9.994  19.107  1.00 46.10 LIG 0.20  C 
BRANCH 2 3
ATOM      3 OG   SER E  44      28.646  -9.652  19.820  1.00 47.85 LIG-0.40  OA
ATOM      4 HG   SER E  44      28.966  -8.941  19.510  1.00 47.85 LIG 0.21  HD
ENDBRANCH 2 3
ENDBRANCH 1 2
BRANCH 1 5
ATOM      5  C   SER E  44      25.167  -9.068  19.090  1.00 42.78 LIG 0.24  C 
ATOM      6  N   PHE E  45      24.403  -9.033  18.009  1.00 43.36 LIG-0.35  N 
ATOM      7 H    PHE E  45      24.690  -8.833  17.222  1.00 43.36 LIG 0.16  HD
ATOM      8 O    SER E  44      24.733  -9.310  20.218  1.00 37.54 LIG-0.27  OA
BRANCH 6 9
ATOM      9  CA  PHE E  45      22.984  -9.340  18.073  1.00 46.68 LIG 0.18  C 
BRANCH 9 10
ATOM     10  C   PHE E  45      22.694 -10.469  17.094  1.00 48.11 LIG 0.24  C 
ATOM     11 O    PHE E  45      21.931 -11.386  17.403  1.00 49.85 LIG-0.27  OA
ATOM     12  N   GLY E  46      23.295 -10.410  15.913  1.00 50.71 LIG-0.35  N 
ATOM     13 H    GLY E  46      23.834  -9.789  15.662  1.00 50.71 LIG 0.16  HD
BRANCH 12 14
ATOM     14  CA  GLY E  46      23.047 -11.455  14.939  1.00 54.23 LIG 0.21  C 
BRANCH 14 15
ATOM     15  C   GLY E  46      21.777 -11.228  14.151  1.00 55.55 LIG 0.21  C 
ATOM     16 O    GLY E  46      20.751 -10.924  14.789  1.00 59.11 LIG-0.29  OA
ENDBRANCH 14 15
ENDBRANCH 12 14
ENDBRANCH 9 10
BRANCH 9 17
ATOM     17  CB  PHE E  45      22.148  -8.105  17.720  1.00 43.03 LIG 0.07  C 
BRANCH 17 18
ATOM     18  CG  PHE E  45      20.670  -8.285  17.955  1.00 41.93 LIG-0.06  A 
ATOM     19  CD2 PHE E  45      19.810  -8.588  16.900  1.00 42.38 LIG 0.01  A 
ATOM     20  CE2 PHE E  45      18.444  -8.783  17.123  1.00 42.73 LIG 0.00  A 
ATOM     21  CZ  PHE E  45      17.929  -8.674  18.411  1.00 42.74 LIG 0.00  A 
ATOM     22  CE1 PHE E  45      18.777  -8.374  19.472  1.00 41.89 LIG 0.00  A 
ATOM     23  CD1 PHE E  45      20.141  -8.181  19.239  1.00 42.01 LIG 0.01  A 
ENDBRANCH 17 18
ENDBRANCH 9 17
ENDBRANCH 6 9
ENDBRANCH 1 5
BRANCH 1 24
ATOM     24  N   SER E  44      27.095  -7.652  19.673  1.00 46.50 LIG-0.34  N 
ATOM     25  C   PHE E  43      26.497  -6.487  19.550  1.00 47.40 LIG 0.24  C 
ATOM     26 O    PHE E  43      25.589  -6.306  18.743  1.00 45.80 LIG-0.27  OA
ATOM     27 H    SER E  44      27.748  -7.828  20.203  1.00 46.50 LIG 0.16  HD
BRANCH 25 28
ATOM     28  CA  PHE E  43      27.011  -5.356  20.413  1.00 47.87 LIG 0.18  C 
BRANCH 28 29
ATOM     29  CB  PHE E  43      26.394  -5.479  21.803  1.00 42.32 LIG 0.07  C 
BRANCH 29 30
ATOM     30  CG  PHE E  43      26.607  -6.815  22.492  1.00 35.12 LIG-0.06  A 
ATOM     31  CD2 PHE E  43      27.869  -7.401  22.651  1.00 32.72 LIG 0.01  A 
ATOM     32  CE2 PHE E  43      27.993  -8.674  23.274  1.00 30.40 LIG 0.00  A 
ATOM     33  CZ  PHE E  43      26.850  -9.342  23.734  1.00 28.92 LIG 0.00  A 
ATOM     34  CE1 PHE E  43      25.602  -8.752  23.571  1.00 29.46 LIG 0.00  A 
ATOM     35  CD1 PHE E  43      25.495  -7.502  22.954  1.00 34.02 LIG 0.01  A 
ENDBRANCH 29 30
ENDBRANCH 28 29
BRANCH 28 36
ATOM     36  N   PHE E  43      26.438  -4.269  19.674  1.00 51.92 LIG-0.35  N 
ATOM     37  C   GLY E  42      27.062  -3.191  19.235  1.00 55.92 LIG 0.25  C 
ATOM     38 O    GLY E  42      28.261  -2.926  19.399  1.00 57.26 LIG-0.27  OA
ATOM     39 H    PHE E  43      25.598  -4.386  19.531  1.00 51.92 LIG 0.16  HD
BRANCH 37 40
ATOM     40  CA  GLY E  42      26.122  -2.287  18.478  1.00 58.33 LIG 0.47  C 
ATOM     41  N   GLY E  42      26.454  -0.891  18.529  1.00 60.94 LIG 0.61  N 
ENDBRANCH 37 40
ENDBRANCH 28 36
ENDBRANCH 25 28
ENDBRANCH 1 24
TORSDOF 15
ENDMDL
MODEL 41
USER: ADFR SOLUTION from run 39
USER: SCORE 11.622503 LL:  -3.165 LR: -10.183 RR:   0.000 FEB:  -5.708
USER: RMSD 8.355520
USER: SEED 38
USER: STATUS no improvement in best in 8 clusters for 5 generations
USER: GENES 17
USER: genes 0 Translation |==|  0.44322 0.41874 0.50477
USER: genes 1 Rotation |==|  0.65807 0.41819 0.94619 0.63868
USER: genes 2 Torsion [C]-CA--CB-[OG] |==|  0.67356
USER: genes 3 Torsion [CA]-CB--OG-[HG] |==|  0.09149
USER: genes 4 Torsion [N]-CA--C-[N] |==|  0.88988
USER: genes 5 Torsion [C]-N--CA-[C] |==|  0.65909
USER: genes 6 Torsion [N]-CA--C-[N] |==|  0.91825
USER: genes 7 Torsion [C]-N--CA-[C] |==|  0.22105
USER: genes 8 Torsion [N]-CA--C-[O] |==|  0.86182
USER: genes 9 Torsion [N]-CA--CB-[CG] |==|  0.72846
USER: genes 10 Torsion [CA]-CB--CG-[CD2] |==|  0.12291
USER: genes 11 Torsion [CB]-CA--N-[C] |==|  0.44068
USER: genes 12 Torsion [N]-C--CA-[N] |==|  0.47222
USER: genes 13 Torsion [C]-CA--CB-[CG] |==|  0.29185
USER: genes 14 Torsion [CA]-CB--CG-[CD2] |==|  0.50503
USER: genes 15 Torsion [C]-CA--N-[C] |==|  0.77223
USER: genes 16 Torsion [N]-C--CA-[N] |==|  0.67311
ROOT
ATOM      1  CA  SER E  44      25.134  -9.184  18.590  1.00 44.79 LIG 0.20  C 
ENDROOT
BRANCH 1 2
ATOM      2  CB  SER E  44      24.904  -7.744  19.044  1.00 46.10 LIG 0.20  C 
BRANCH 2 3
ATOM      3 OG   SER E  44      25.531  -6.844  18.154  1.00 47.85 LIG-0.40  OA
ATOM      4 HG   SER E  44      25.512  -7.159  17.376  1.00 47.85 LIG 0.21  HD
ENDBRANCH 2 3
ENDBRANCH 1 2
BRANCH 1 5
ATOM      5  C   SER E  44      23.810  -9.835  18.259  1.00 42.78 LIG 0.24  C 
ATOM      6  N   PHE E  45      23.353  -9.589  17.040  1.00 43.36 LIG-0.35  N 
ATOM      7 H    PHE E  45      23.755  -9.088  16.467  1.00 43.36 LIG 0.16  HD
ATOM      8 O    SER E  44      23.201 -10.517  19.085  1.00 37.54 LIG-0.27  OA
BRANCH 6 9
ATOM      9  CA  PHE E  45      22.105 -10.165  16.568  1.00 46.68 LIG 0.18  C 
BRANCH 9 10
ATOM     10  C   PHE E  45      22.393 -10.961  15.303  1.00 48.11 LIG 0.24  C 
ATOM     11 O    PHE E  45      21.704 -11.938  15.006  1.00 49.85 LIG-0.27  OA
ATOM     12  N   GLY E  46      23.406 -10.549  14.552  1.00 50.71 LIG-0.35  N 
ATOM     13 H    GLY E  46      23.911  -9.875  14.726  1.00 50.71 LIG 0.16  HD
BRANCH 12 14
ATOM     14  CA  GLY E  46      23.720 -11.266  13.331  1.00 54.23 LIG 0.21  C 
BRANCH 14 15
ATOM     15  C   GLY E  46      22.805 -10.895  12.186  1.00 55.55 LIG 0.21  C 
ATOM     16 O    GLY E  46      21.578 -10.914  12.401  1.00 59.11 LIG-0.29  OA
ENDBRANCH 14 15
ENDBRANCH 12 14
ENDBRANCH 9 10
BRANCH 9 17
ATOM     17  CB  PHE E  45      21.078  -9.065  16.279  1.00 43.03 LIG 0.07  C 
BRANCH 17 18
ATOM     18  CG  PHE E  45      20.097  -8.840  17.401  1.00 41.93 LIG-0.06  A 
ATOM     19  CD2 PHE E  45      20.527  -8.781  18.726  1.00 42.38 LIG 0.01  A 
ATOM     20  CE2 PHE E  45      19.620  -8.544  19.764  1.00 42.73 LIG 0.00  A 
ATOM     21  CZ  PHE E  45      18.271  -8.364  19.478  1.00 42.74 LIG 0.00  A 
ATOM     22  CE1 PHE E  45      17.829  -8.418  18.159  1.00 41.89 LIG 0.00  A 
ATOM     23  CD1 PHE E  45      18.743  -8.656  17.129  1.00 42.01 LIG 0.01  A 
ENDBRANCH 17 18
ENDBRANCH 9 17
ENDBRANCH 6 9
ENDBRANCH 1 5
BRANCH 1 24
ATOM     24  N   SER E  44      26.061  -9.215  17.478  1.00 46.50 LIG-0.34  N 
ATOM     25  C   PHE E  43      26.700 -10.338  17.234  1.00 47.40 LIG 0.24  C 
ATOM     26 O    PHE E  43      26.556 -11.333  17.939  1.00 45.80 LIG-0.27  OA
ATOM     27 H    SER E  44      26.141  -8.484  17.033  1.00 46.50 LIG 0.16  HD
BRANCH 25 28
ATOM     28  CA  PHE E  43      27.667 -10.339  16.071  1.00 47.87 LIG 0.18  C 
BRANCH 28 29
ATOM     29  CB  PHE E  43      26.871 -10.352  14.770  1.00 42.32 LIG 0.07  C 
BRANCH 29 30
ATOM     30  CG  PHE E  43      26.827  -9.032  14.021  1.00 35.12 LIG-0.06  A 
ATOM     31  CD2 PHE E  43      26.113  -8.852  12.829  1.00 32.72 LIG 0.01  A 
ATOM     32  CE2 PHE E  43      26.146  -7.598  12.159  1.00 30.40 LIG 0.00  A 
ATOM     33  CZ  PHE E  43      26.891  -6.538  12.693  1.00 28.92 LIG 0.00  A 
ATOM     34  CE1 PHE E  43      27.597  -6.728  13.875  1.00 29.46 LIG 0.00  A 
ATOM     35  CD1 PHE E  43      27.558  -7.966  14.522  1.00 34.02 LIG 0.01  A 
ENDBRANCH 29 30
ENDBRANCH 28 29
BRANCH 28 36
ATOM     36  N   PHE E  43      28.282 -11.609  16.328  1.00 51.92 LIG-0.35  N 
ATOM     37  C   GLY E  42      29.255 -11.861  17.185  1.00 55.92 LIG 0.25  C 
ATOM     38 O    GLY E  42      29.818 -11.032  17.913  1.00 57.26 LIG-0.27  OA
ATOM     39 H    PHE E  43      27.941 -12.234  15.845  1.00 51.92 LIG 0.16  HD
BRANCH 37 40
ATOM     40  CA  GLY E  42      29.615 -13.326  17.184  1.00 58.33 LIG 0.47  C 
ATOM     41  N   GLY E  42      29.402 -14.000  18.434  1.00 60.94 LIG 0.61  N 
ENDBRANCH 37 40
ENDBRANCH 28 36
ENDBRANCH 25 28
ENDBRANCH 1 24
TORSDOF 15
ENDMDL
MODEL 42
USER: ADFR SOLUTION from run 187
USER: SCORE 11.845043 LL:  -2.640 LR: -10.183 RR:   0.000 FEB:  -5.709
USER: RMSD 3.477637
USER: SEED 186
USER: STATUS no improvement in best in 8 clusters for 5 generations
USER: GENES 17
USER: genes 0 Translation |==|  0.48542 0.36946 0.42709
USER: genes 1 Rotation |==|  0.70377 0.52938 0.42140 0.94882
USER: genes 2 Torsion [C]-CA--CB-[OG] |==|  0.71493
USER: genes 3 Torsion [CA]-CB--OG-[HG] |==|  0.04144
USER: genes 4 Torsion [N]-CA--C-[N] |==|  0.88624
USER: genes 5 Torsion [C]-N--CA-[C] |==|  0.17130
USER: genes 6 Torsion [N]-CA--C-[N] |==|  0.07999
USER: genes 7 Torsion [C]-N--CA-[C] |==|  0.30041
USER: genes 8 Torsion [N]-CA--C-[O] |==|  0.07056
USER: genes 9 Torsion [N]-CA--CB-[CG] |==|  0.67533
USER: genes 10 Torsion [CA]-CB--CG-[CD2] |==|  0.02700
USER: genes 11 Torsion [CB]-CA--N-[C] |==|  0.22308
USER: genes 12 Torsion [N]-C--CA-[N] |==|  0.42062
USER: genes 13 Torsion [C]-CA--CB-[CG] |==|  0.46564
USER: genes 14 Torsion [CA]-CB--CG-[CD2] |==|  0.50674
USER: genes 15 Torsion [C]-CA--N-[C] |==|  0.63865
USER: genes 16 Torsion [N]-C--CA-[N] |==|  0.52509
ROOT
ATOM      1  CA  SER E  44      26.115 -10.182  17.599  1.00 44.79 LIG 0.20  C 
ENDROOT
BRANCH 1 2
ATOM      2  CB  SER E  44      26.729 -10.740  16.317  1.00 46.10 LIG 0.20  C 
BRANCH 2 3
ATOM      3 OG   SER E  44      25.988 -10.313  15.193  1.00 47.85 LIG-0.40  OA
ATOM      4 HG   SER E  44      25.483  -9.680  15.414  1.00 47.85 LIG 0.21  HD
ENDBRANCH 2 3
ENDBRANCH 1 2
BRANCH 1 5
ATOM      5  C   SER E  44      26.935  -9.012  18.094  1.00 42.78 LIG 0.24  C 
ATOM      6  N   PHE E  45      26.671  -7.855  17.506  1.00 43.36 LIG-0.35  N 
ATOM      7 H    PHE E  45      26.091  -7.754  16.878  1.00 43.36 LIG 0.16  HD
ATOM      8 O    SER E  44      27.801  -9.150  18.959  1.00 37.54 LIG-0.27  OA
BRANCH 6 9
ATOM      9  CA  PHE E  45      27.360  -6.634  17.891  1.00 46.68 LIG 0.18  C 
BRANCH 9 10
ATOM     10  C   PHE E  45      28.846  -6.817  17.618  1.00 48.11 LIG 0.24  C 
ATOM     11 O    PHE E  45      29.687  -6.221  18.294  1.00 49.85 LIG-0.27  OA
ATOM     12  N   GLY E  46      29.179  -7.642  16.633  1.00 50.71 LIG-0.35  N 
ATOM     13 H    GLY E  46      28.623  -8.073  16.139  1.00 50.71 LIG 0.16  HD
BRANCH 12 14
ATOM     14  CA  GLY E  46      30.581  -7.860  16.335  1.00 54.23 LIG 0.21  C 
BRANCH 14 15
ATOM     15  C   GLY E  46      31.058  -9.233  16.751  1.00 55.55 LIG 0.21  C 
ATOM     16 O    GLY E  46      30.208 -10.141  16.819  1.00 59.11 LIG-0.29  OA
ENDBRANCH 14 15
ENDBRANCH 12 14
ENDBRANCH 9 10
BRANCH 9 17
ATOM     17  CB  PHE E  45      27.127  -6.327  19.375  1.00 43.03 LIG 0.07  C 
BRANCH 17 18
ATOM     18  CG  PHE E  45      26.389  -5.036  19.619  1.00 41.93 LIG-0.06  A 
ATOM     19  CD2 PHE E  45      25.803  -4.336  18.565  1.00 42.38 LIG 0.01  A 
ATOM     20  CE2 PHE E  45      25.093  -3.154  18.797  1.00 42.73 LIG 0.00  A 
ATOM     21  CZ  PHE E  45      24.967  -2.664  20.093  1.00 42.74 LIG 0.00  A 
ATOM     22  CE1 PHE E  45      25.546  -3.354  21.154  1.00 41.89 LIG 0.00  A 
ATOM     23  CD1 PHE E  45      26.253  -4.535  20.912  1.00 42.01 LIG 0.01  A 
ENDBRANCH 17 18
ENDBRANCH 9 17
ENDBRANCH 6 9
ENDBRANCH 1 5
BRANCH 1 24
ATOM     24  N   SER E  44      24.727  -9.834  17.377  1.00 46.50 LIG-0.34  N 
ATOM     25  C   PHE E  43      23.834 -10.798  17.405  1.00 47.40 LIG 0.24  C 
ATOM     26 O    PHE E  43      24.151 -11.972  17.577  1.00 45.80 LIG-0.27  OA
ATOM     27 H    SER E  44      24.565  -9.001  17.237  1.00 46.50 LIG 0.16  HD
BRANCH 25 28
ATOM     28  CA  PHE E  43      22.393 -10.407  17.163  1.00 47.87 LIG 0.18  C 
BRANCH 28 29
ATOM     29  CB  PHE E  43      21.727 -10.129  18.507  1.00 42.32 LIG 0.07  C 
BRANCH 29 30
ATOM     30  CG  PHE E  43      20.374  -9.445  18.433  1.00 35.12 LIG-0.06  A 
ATOM     31  CD2 PHE E  43      19.643  -9.071  19.568  1.00 32.72 LIG 0.01  A 
ATOM     32  CE2 PHE E  43      18.363  -8.467  19.427  1.00 30.40 LIG 0.00  A 
ATOM     33  CZ  PHE E  43      17.832  -8.242  18.150  1.00 28.92 LIG 0.00  A 
ATOM     34  CE1 PHE E  43      18.565  -8.618  17.031  1.00 29.46 LIG 0.00  A 
ATOM     35  CD1 PHE E  43      19.820  -9.213  17.183  1.00 34.02 LIG 0.01  A 
ENDBRANCH 29 30
ENDBRANCH 28 29
BRANCH 28 36
ATOM     36  N   PHE E  43      21.945 -11.645  16.595  1.00 51.92 LIG-0.35  N 
ATOM     37  C   GLY E  42      21.269 -11.806  15.473  1.00 55.92 LIG 0.25  C 
ATOM     38 O    GLY E  42      20.891 -10.903  14.714  1.00 57.26 LIG-0.27  OA
ATOM     39 H    PHE E  43      22.169 -12.320  17.081  1.00 51.92 LIG 0.16  HD
BRANCH 37 40
ATOM     40  CA  GLY E  42      21.003 -13.266  15.201  1.00 58.33 LIG 0.47  C 
ATOM     41  N   GLY E  42      20.454 -13.548  13.905  1.00 60.94 LIG 0.61  N 
ENDBRANCH 37 40
ENDBRANCH 28 36
ENDBRANCH 25 28
ENDBRANCH 1 24
TORSDOF 15
ENDMDL
MODEL 43
USER: ADFR SOLUTION from run 57
USER: SCORE 11.522856 LL:  -2.994 LR: -10.165 RR:   0.000 FEB:  -5.691
USER: RMSD 9.601532
USER: SEED 56
USER: STATUS no improvement in best in 13 clusters for 5 generations
USER: GENES 17
USER: genes 0 Translation |==|  0.25185 0.45726 0.46694
USER: genes 1 Rotation |==|  0.62158 0.28904 0.06340 0.50988
USER: genes 2 Torsion [C]-CA--CB-[OG] |==|  0.18514
USER: genes 3 Torsion [CA]-CB--OG-[HG] |==|  0.41417
USER: genes 4 Torsion [N]-CA--C-[N] |==|  0.87060
USER: genes 5 Torsion [C]-N--CA-[C] |==|  0.78210
USER: genes 6 Torsion [N]-CA--C-[N] |==|  0.39454
USER: genes 7 Torsion [C]-N--CA-[C] |==|  0.38859
USER: genes 8 Torsion [N]-CA--C-[O] |==|  0.95281
USER: genes 9 Torsion [N]-CA--CB-[CG] |==|  0.93788
USER: genes 10 Torsion [CA]-CB--CG-[CD2] |==|  0.33561
USER: genes 11 Torsion [CB]-CA--N-[C] |==|  0.48398
USER: genes 12 Torsion [N]-C--CA-[N] |==|  0.86682
USER: genes 13 Torsion [C]-CA--CB-[CG] |==|  0.33755
USER: genes 14 Torsion [CA]-CB--CG-[CD2] |==|  0.54880
USER: genes 15 Torsion [C]-CA--N-[C] |==|  0.75499
USER: genes 16 Torsion [N]-C--CA-[N] |==|  0.18885
ROOT
ATOM      1  CA  SER E  44      20.684  -8.405  18.107  1.00 44.79 LIG 0.20  C 
ENDROOT
BRANCH 1 2
ATOM      2  CB  SER E  44      20.171  -8.289  16.674  1.00 46.10 LIG 0.20  C 
BRANCH 2 3
ATOM      3 OG   SER E  44      18.759  -8.332  16.654  1.00 47.85 LIG-0.40  OA
ATOM      4 HG   SER E  44      18.473  -7.874  16.011  1.00 47.85 LIG 0.21  HD
ENDBRANCH 2 3
ENDBRANCH 1 2
BRANCH 1 5
ATOM      5  C   SER E  44      20.368  -9.778  18.657  1.00 42.78 LIG 0.24  C 
ATOM      6  N   PHE E  45      21.152 -10.751  18.219  1.00 43.36 LIG-0.35  N 
ATOM      7 H    PHE E  45      21.791 -10.638  17.654  1.00 43.36 LIG 0.16  HD
ATOM      8 O    SER E  44      19.427  -9.962  19.430  1.00 37.54 LIG-0.27  OA
BRANCH 6 9
ATOM      9  CA  PHE E  45      20.987 -12.121  18.676  1.00 46.68 LIG 0.18  C 
BRANCH 9 10
ATOM     10  C   PHE E  45      21.611 -12.243  20.059  1.00 48.11 LIG 0.24  C 
ATOM     11 O    PHE E  45      22.652 -11.644  20.333  1.00 49.85 LIG-0.27  OA
ATOM     12  N   GLY E  46      20.981 -13.015  20.935  1.00 50.71 LIG-0.35  N 
ATOM     13 H    GLY E  46      20.255 -13.450  20.781  1.00 50.71 LIG 0.16  HD
BRANCH 12 14
ATOM     14  CA  GLY E  46      21.526 -13.161  22.270  1.00 54.23 LIG 0.21  C 
BRANCH 14 15
ATOM     15  C   GLY E  46      20.457 -13.164  23.340  1.00 55.55 LIG 0.21  C 
ATOM     16 O    GLY E  46      19.332 -12.730  23.029  1.00 59.11 LIG-0.29  OA
ENDBRANCH 14 15
ENDBRANCH 12 14
ENDBRANCH 9 10
BRANCH 9 17
ATOM     17  CB  PHE E  45      21.655 -13.099  17.704  1.00 43.03 LIG 0.07  C 
BRANCH 17 18
ATOM     18  CG  PHE E  45      21.837 -12.546  16.314  1.00 41.93 LIG-0.06  A 
ATOM     19  CD2 PHE E  45      23.106 -12.444  15.744  1.00 42.38 LIG 0.01  A 
ATOM     20  CE2 PHE E  45      23.271 -11.958  14.445  1.00 42.73 LIG 0.00  A 
ATOM     21  CZ  PHE E  45      22.160 -11.567  13.704  1.00 42.74 LIG 0.00  A 
ATOM     22  CE1 PHE E  45      20.888 -11.664  14.260  1.00 41.89 LIG 0.00  A 
ATOM     23  CD1 PHE E  45      20.734 -12.152  15.560  1.00 42.01 LIG 0.01  A 
ENDBRANCH 17 18
ENDBRANCH 9 17
ENDBRANCH 6 9
ENDBRANCH 1 5
BRANCH 1 24
ATOM     24  N   SER E  44      22.099  -8.100  18.156  1.00 46.50 LIG-0.34  N 
ATOM     25  C   PHE E  43      22.680  -8.039  19.334  1.00 47.40 LIG 0.24  C 
ATOM     26 O    PHE E  43      22.050  -8.198  20.377  1.00 45.80 LIG-0.27  OA
ATOM     27 H    SER E  44      22.485  -7.974  17.398  1.00 46.50 LIG 0.16  HD
BRANCH 25 28
ATOM     28  CA  PHE E  43      24.156  -7.712  19.356  1.00 47.87 LIG 0.18  C 
BRANCH 28 29
ATOM     29  CB  PHE E  43      24.347  -6.268  18.904  1.00 42.32 LIG 0.07  C 
BRANCH 29 30
ATOM     30  CG  PHE E  43      25.041  -5.360  19.903  1.00 35.12 LIG-0.06  A 
ATOM     31  CD2 PHE E  43      24.989  -3.962  19.831  1.00 32.72 LIG 0.01  A 
ATOM     32  CE2 PHE E  43      25.695  -3.170  20.779  1.00 30.40 LIG 0.00  A 
ATOM     33  CZ  PHE E  43      26.440  -3.789  21.791  1.00 28.92 LIG 0.00  A 
ATOM     34  CE1 PHE E  43      26.486  -5.177  21.853  1.00 29.46 LIG 0.00  A 
ATOM     35  CD1 PHE E  43      25.790  -5.943  20.913  1.00 34.02 LIG 0.01  A 
ENDBRANCH 29 30
ENDBRANCH 28 29
BRANCH 28 36
ATOM     36  N   PHE E  43      24.579  -8.642  18.350  1.00 51.92 LIG-0.35  N 
ATOM     37  C   GLY E  42      24.933  -9.902  18.531  1.00 55.92 LIG 0.25  C 
ATOM     38 O    GLY E  42      24.973 -10.499  19.615  1.00 57.26 LIG-0.27  OA
ATOM     39 H    PHE E  43      24.582  -8.287  17.566  1.00 51.92 LIG 0.16  HD
BRANCH 37 40
ATOM     40  CA  GLY E  42      25.290 -10.561  17.222  1.00 58.33 LIG 0.47  C 
ATOM     41  N   GLY E  42      26.487 -10.065  16.603  1.00 60.94 LIG 0.61  N 
ENDBRANCH 37 40
ENDBRANCH 28 36
ENDBRANCH 25 28
ENDBRANCH 1 24
TORSDOF 15
ENDMDL
MODEL 44
USER: ADFR SOLUTION from run 21
USER: SCORE 11.575926 LL:  -2.898 LR: -10.147 RR:   0.000 FEB:  -5.673
USER: RMSD 2.634938
USER: SEED 20
USER: STATUS no improvement in best in 16 clusters for 5 generations
USER: GENES 17
USER: genes 0 Translation |==|  0.42568 0.53748 0.58037
USER: genes 1 Rotation |==|  0.41176 0.29298 0.56862 0.94119
USER: genes 2 Torsion [C]-CA--CB-[OG] |==|  0.76077
USER: genes 3 Torsion [CA]-CB--OG-[HG] |==|  0.19233
USER: genes 4 Torsion [N]-CA--C-[N] |==|  0.74948
USER: genes 5 Torsion [C]-N--CA-[C] |==|  0.54565
USER: genes 6 Torsion [N]-CA--C-[N] |==|  0.46217
USER: genes 7 Torsion [C]-N--CA-[C] |==|  0.70459
USER: genes 8 Torsion [N]-CA--C-[O] |==|  0.16571
USER: genes 9 Torsion [N]-CA--CB-[CG] |==|  0.06953
USER: genes 10 Torsion [CA]-CB--CG-[CD2] |==|  0.24644
USER: genes 11 Torsion [CB]-CA--N-[C] |==|  0.19444
USER: genes 12 Torsion [N]-C--CA-[N] |==|  0.49123
USER: genes 13 Torsion [C]-CA--CB-[CG] |==|  0.79687
USER: genes 14 Torsion [CA]-CB--CG-[CD2] |==|  0.10322
USER: genes 15 Torsion [C]-CA--N-[C] |==|  0.58219
USER: genes 16 Torsion [N]-C--CA-[N] |==|  0.50052
ROOT
ATOM      1  CA  SER E  44      24.726  -6.780  19.554  1.00 44.79 LIG 0.20  C 
ENDROOT
BRANCH 1 2
ATOM      2  CB  SER E  44      25.798  -7.427  20.429  1.00 46.10 LIG 0.20  C 
BRANCH 2 3
ATOM      3 OG   SER E  44      26.609  -8.287  19.655  1.00 47.85 LIG-0.40  OA
ATOM      4 HG   SER E  44      27.078  -7.832  19.127  1.00 47.85 LIG 0.21  HD
ENDBRANCH 2 3
ENDBRANCH 1 2
BRANCH 1 5
ATOM      5  C   SER E  44      25.279  -5.531  18.904  1.00 42.78 LIG 0.24  C 
ATOM      6  N   PHE E  45      26.570  -5.576  18.612  1.00 43.36 LIG-0.35  N 
ATOM      7 H    PHE E  45      27.079  -6.248  18.782  1.00 43.36 LIG 0.16  HD
ATOM      8 O    SER E  44      24.571  -4.544  18.697  1.00 37.54 LIG-0.27  OA
BRANCH 6 9
ATOM      9  CA  PHE E  45      27.238  -4.461  17.962  1.00 46.68 LIG 0.18  C 
BRANCH 9 10
ATOM     10  C   PHE E  45      28.564  -4.957  17.402  1.00 48.11 LIG 0.24  C 
ATOM     11 O    PHE E  45      29.019  -6.050  17.744  1.00 49.85 LIG-0.27  OA
ATOM     12  N   GLY E  46      29.186  -4.164  16.540  1.00 50.71 LIG-0.35  N 
ATOM     13 H    GLY E  46      28.902  -3.395  16.279  1.00 50.71 LIG 0.16  HD
BRANCH 12 14
ATOM     14  CA  GLY E  46      30.449  -4.591  15.969  1.00 54.23 LIG 0.21  C 
BRANCH 14 15
ATOM     15  C   GLY E  46      31.631  -3.845  16.544  1.00 55.55 LIG 0.21  C 
ATOM     16 O    GLY E  46      31.821  -3.929  17.773  1.00 59.11 LIG-0.29  OA
ENDBRANCH 14 15
ENDBRANCH 12 14
ENDBRANCH 9 10
BRANCH 9 17
ATOM     17  CB  PHE E  45      27.477  -3.320  18.957  1.00 43.03 LIG 0.07  C 
BRANCH 17 18
ATOM     18  CG  PHE E  45      27.549  -3.771  20.393  1.00 41.93 LIG-0.06  A 
ATOM     19  CD2 PHE E  45      28.761  -4.165  20.960  1.00 42.38 LIG 0.01  A 
ATOM     20  CE2 PHE E  45      28.831  -4.555  22.300  1.00 42.73 LIG 0.00  A 
ATOM     21  CZ  PHE E  45      27.682  -4.556  23.084  1.00 42.74 LIG 0.00  A 
ATOM     22  CE1 PHE E  45      26.466  -4.164  22.531  1.00 41.89 LIG 0.00  A 
ATOM     23  CD1 PHE E  45      26.406  -3.774  21.190  1.00 42.01 LIG 0.01  A 
ENDBRANCH 17 18
ENDBRANCH 9 17
ENDBRANCH 6 9
ENDBRANCH 1 5
BRANCH 1 24
ATOM     24  N   SER E  44      24.229  -7.735  18.586  1.00 46.50 LIG-0.34  N 
ATOM     25  C   PHE E  43      23.495  -8.736  19.024  1.00 47.40 LIG 0.24  C 
ATOM     26 O    PHE E  43      23.258  -8.892  20.218  1.00 45.80 LIG-0.27  OA
ATOM     27 H    SER E  44      24.445  -7.591  17.767  1.00 46.50 LIG 0.16  HD
BRANCH 25 28
ATOM     28  CA  PHE E  43      22.995  -9.722  17.992  1.00 47.87 LIG 0.18  C 
BRANCH 28 29
ATOM     29  CB  PHE E  43      21.993  -9.017  17.083  1.00 42.32 LIG 0.07  C 
BRANCH 29 30
ATOM     30  CG  PHE E  43      20.641  -8.727  17.707  1.00 35.12 LIG-0.06  A 
ATOM     31  CD2 PHE E  43      20.482  -8.346  19.046  1.00 32.72 LIG 0.01  A 
ATOM     32  CE2 PHE E  43      19.181  -8.126  19.578  1.00 30.40 LIG 0.00  A 
ATOM     33  CZ  PHE E  43      18.055  -8.286  18.760  1.00 28.92 LIG 0.00  A 
ATOM     34  CE1 PHE E  43      18.223  -8.665  17.434  1.00 29.46 LIG 0.00  A 
ATOM     35  CD1 PHE E  43      19.507  -8.881  16.925  1.00 34.02 LIG 0.01  A 
ENDBRANCH 29 30
ENDBRANCH 28 29
BRANCH 28 36
ATOM     36  N   PHE E  43      22.346 -10.633  18.890  1.00 51.92 LIG-0.35  N 
ATOM     37  C   GLY E  42      22.180 -11.932  18.721  1.00 55.92 LIG 0.25  C 
ATOM     38 O    GLY E  42      22.550 -12.592  17.740  1.00 57.26 LIG-0.27  OA
ATOM     39 H    PHE E  43      22.054 -10.235  19.595  1.00 51.92 LIG 0.16  HD
BRANCH 37 40
ATOM     40  CA  GLY E  42      21.469 -12.549  19.899  1.00 58.33 LIG 0.47  C 
ATOM     41  N   GLY E  42      21.250 -13.964  19.800  1.00 60.94 LIG 0.61  N 
ENDBRANCH 37 40
ENDBRANCH 28 36
ENDBRANCH 25 28
ENDBRANCH 1 24
TORSDOF 15
ENDMDL
MODEL 45
USER: ADFR SOLUTION from run 80
USER: SCORE 12.189940 LL:  -2.840 LR: -10.130 RR:   0.000 FEB:  -5.656
USER: RMSD 8.314195
USER: SEED 79
USER: STATUS no improvement in best in 18 clusters for 5 generations
USER: GENES 17
USER: genes 0 Translation |==|  0.52927 0.49328 0.51646
USER: genes 1 Rotation |==|  0.15807 0.86261 0.51545 0.53690
USER: genes 2 Torsion [C]-CA--CB-[OG] |==|  0.49380
USER: genes 3 Torsion [CA]-CB--OG-[HG] |==|  0.95455
USER: genes 4 Torsion [N]-CA--C-[N] |==|  0.39125
USER: genes 5 Torsion [C]-N--CA-[C] |==|  0.60254
USER: genes 6 Torsion [N]-CA--C-[N] |==|  0.83076
USER: genes 7 Torsion [C]-N--CA-[C] |==|  0.31387
USER: genes 8 Torsion [N]-CA--C-[O] |==|  0.90123
USER: genes 9 Torsion [N]-CA--CB-[CG] |==|  0.50094
USER: genes 10 Torsion [CA]-CB--CG-[CD2] |==|  0.20676
USER: genes 11 Torsion [CB]-CA--N-[C] |==|  0.85382
USER: genes 12 Torsion [N]-C--CA-[N] |==|  0.90197
USER: genes 13 Torsion [C]-CA--CB-[CG] |==|  0.82380
USER: genes 14 Torsion [CA]-CB--CG-[CD2] |==|  0.24896
USER: genes 15 Torsion [C]-CA--N-[C] |==|  0.79444
USER: genes 16 Torsion [N]-C--CA-[N] |==|  0.96159
ROOT
ATOM      1  CA  SER E  44      27.135  -7.675  18.739  1.00 44.79 LIG 0.20  C 
ENDROOT
BRANCH 1 2
ATOM      2  CB  SER E  44      28.105  -8.803  19.085  1.00 46.10 LIG 0.20  C 
BRANCH 2 3
ATOM      3 OG   SER E  44      29.407  -8.482  18.641  1.00 47.85 LIG-0.40  OA
ATOM      4 HG   SER E  44      29.368  -7.854  18.086  1.00 47.85 LIG 0.21  HD
ENDBRANCH 2 3
ENDBRANCH 1 2
BRANCH 1 5
ATOM      5  C   SER E  44      25.735  -8.053  19.169  1.00 42.78 LIG 0.24  C 
ATOM      6  N   PHE E  45      24.978  -8.577  18.216  1.00 43.36 LIG-0.35  N 
ATOM      7 H    PHE E  45      25.236  -8.690  17.403  1.00 43.36 LIG 0.16  HD
ATOM      8 O    SER E  44      25.336  -7.852  20.317  1.00 37.54 LIG-0.27  OA
BRANCH 6 9
ATOM      9  CA  PHE E  45      23.617  -9.011  18.483  1.00 46.68 LIG 0.18  C 
BRANCH 9 10
ATOM     10  C   PHE E  45      23.349 -10.270  17.671  1.00 48.11 LIG 0.24  C 
ATOM     11 O    PHE E  45      23.061 -11.330  18.231  1.00 49.85 LIG-0.27  OA
ATOM     12  N   GLY E  46      23.437 -10.164  16.351  1.00 50.71 LIG-0.35  N 
ATOM     13 H    GLY E  46      23.637  -9.445  15.924  1.00 50.71 LIG 0.16  HD
BRANCH 12 14
ATOM     14  CA  GLY E  46      23.183 -11.330  15.528  1.00 54.23 LIG 0.21  C 
BRANCH 14 15
ATOM     15  C   GLY E  46      21.932 -11.191  14.691  1.00 55.55 LIG 0.21  C 
ATOM     16 O    GLY E  46      20.969 -10.580  15.193  1.00 59.11 LIG-0.29  OA
ENDBRANCH 14 15
ENDBRANCH 12 14
ENDBRANCH 9 10
BRANCH 9 17
ATOM     17  CB  PHE E  45      22.616  -7.914  18.107  1.00 43.03 LIG 0.07  C 
BRANCH 17 18
ATOM     18  CG  PHE E  45      21.178  -8.289  18.363  1.00 41.93 LIG-0.06  A 
ATOM     19  CD2 PHE E  45      20.667  -8.319  19.660  1.00 42.38 LIG 0.01  A 
ATOM     20  CE2 PHE E  45      19.327  -8.638  19.894  1.00 42.73 LIG 0.00  A 
ATOM     21  CZ  PHE E  45      18.487  -8.933  18.825  1.00 42.74 LIG 0.00  A 
ATOM     22  CE1 PHE E  45      18.985  -8.906  17.525  1.00 41.89 LIG 0.00  A 
ATOM     23  CD1 PHE E  45      20.326  -8.585  17.301  1.00 42.01 LIG 0.01  A 
ENDBRANCH 17 18
ENDBRANCH 9 17
ENDBRANCH 6 9
ENDBRANCH 1 5
BRANCH 1 24
ATOM     24  N   SER E  44      27.582  -6.433  19.333  1.00 46.50 LIG-0.34  N 
ATOM     25  C   PHE E  43      27.841  -6.421  20.623  1.00 47.40 LIG 0.24  C 
ATOM     26 O    PHE E  43      27.680  -7.415  21.326  1.00 45.80 LIG-0.27  OA
ATOM     27 H    SER E  44      27.654  -5.763  18.800  1.00 46.50 LIG 0.16  HD
BRANCH 25 28
ATOM     28  CA  PHE E  43      28.300  -5.109  21.219  1.00 47.87 LIG 0.18  C 
BRANCH 28 29
ATOM     29  CB  PHE E  43      27.078  -4.232  21.476  1.00 42.32 LIG 0.07  C 
BRANCH 29 30
ATOM     30  CG  PHE E  43      26.298  -3.825  20.239  1.00 35.12 LIG-0.06  A 
ATOM     31  CD2 PHE E  43      25.243  -4.584  19.716  1.00 32.72 LIG 0.01  A 
ATOM     32  CE2 PHE E  43      24.579  -4.164  18.530  1.00 30.40 LIG 0.00  A 
ATOM     33  CZ  PHE E  43      24.977  -2.985  17.885  1.00 28.92 LIG 0.00  A 
ATOM     34  CE1 PHE E  43      26.025  -2.240  18.412  1.00 29.46 LIG 0.00  A 
ATOM     35  CD1 PHE E  43      26.671  -2.666  19.576  1.00 34.02 LIG 0.01  A 
ENDBRANCH 29 30
ENDBRANCH 28 29
BRANCH 28 36
ATOM     36  N   PHE E  43      29.063  -4.640  20.099  1.00 51.92 LIG-0.35  N 
ATOM     37  C   GLY E  42      30.243  -5.079  19.702  1.00 55.92 LIG 0.25  C 
ATOM     38 O    GLY E  42      30.907  -5.974  20.243  1.00 57.26 LIG-0.27  OA
ATOM     39 H    PHE E  43      28.659  -4.006  19.679  1.00 51.92 LIG 0.16  HD
BRANCH 37 40
ATOM     40  CA  GLY E  42      30.709  -4.349  18.467  1.00 58.33 LIG 0.47  C 
ATOM     41  N   GLY E  42      29.696  -3.582  17.800  1.00 60.94 LIG 0.61  N 
ENDBRANCH 37 40
ENDBRANCH 28 36
ENDBRANCH 25 28
ENDBRANCH 1 24
TORSDOF 15
ENDMDL
MODEL 46
USER: ADFR SOLUTION from run 134
USER: SCORE 11.244393 LL:  -2.918 LR: -10.090 RR:   0.000 FEB:  -5.615
USER: RMSD 9.828593
USER: SEED 133
USER: STATUS no improvement in best in 9 clusters for 5 generations
USER: GENES 17
USER: genes 0 Translation |==|  0.26084 0.45647 0.46387
USER: genes 1 Rotation |==|  0.59575 0.29186 0.05606 0.52062
USER: genes 2 Torsion [C]-CA--CB-[OG] |==|  0.18789
USER: genes 3 Torsion [CA]-CB--OG-[HG] |==|  0.44287
USER: genes 4 Torsion [N]-CA--C-[N] |==|  0.85800
USER: genes 5 Torsion [C]-N--CA-[C] |==|  0.81111
USER: genes 6 Torsion [N]-CA--C-[N] |==|  0.38514
USER: genes 7 Torsion [C]-N--CA-[C] |==|  0.39587
USER: genes 8 Torsion [N]-CA--C-[O] |==|  0.89776
USER: genes 9 Torsion [N]-CA--CB-[CG] |==|  0.93612
USER: genes 10 Torsion [CA]-CB--CG-[CD2] |==|  0.76973
USER: genes 11 Torsion [CB]-CA--N-[C] |==|  0.46138
USER: genes 12 Torsion [N]-C--CA-[N] |==|  0.30885
USER: genes 13 Torsion [C]-CA--CB-[CG] |==|  0.72555
USER: genes 14 Torsion [CA]-CB--CG-[CD2] |==|  0.78760
USER: genes 15 Torsion [C]-CA--N-[C] |==|  0.58341
USER: genes 16 Torsion [N]-C--CA-[N] |==|  0.50627
ROOT
ATOM      1  CA  SER E  44      20.894  -8.421  18.068  1.00 44.79 LIG 0.20  C 
ENDROOT
BRANCH 1 2
ATOM      2  CB  SER E  44      20.218  -8.289  16.704  1.00 46.10 LIG 0.20  C 
BRANCH 2 3
ATOM      3 OG   SER E  44      18.813  -8.305  16.850  1.00 47.85 LIG-0.40  OA
ATOM      4 HG   SER E  44      18.457  -7.960  16.172  1.00 47.85 LIG 0.21  HD
ENDBRANCH 2 3
ENDBRANCH 1 2
BRANCH 1 5
ATOM      5  C   SER E  44      20.636  -9.798  18.637  1.00 42.78 LIG 0.24  C 
ATOM      6  N   PHE E  45      21.290 -10.782  18.040  1.00 43.36 LIG-0.35  N 
ATOM      7 H    PHE E  45      21.816 -10.673  17.368  1.00 43.36 LIG 0.16  HD
ATOM      8 O    SER E  44      19.850  -9.975  19.569  1.00 37.54 LIG-0.27  OA
BRANCH 6 9
ATOM      9  CA  PHE E  45      21.164 -12.159  18.490  1.00 46.68 LIG 0.18  C 
BRANCH 9 10
ATOM     10  C   PHE E  45      21.813 -12.275  19.862  1.00 48.11 LIG 0.24  C 
ATOM     11 O    PHE E  45      22.876 -11.702  20.105  1.00 49.85 LIG-0.27  OA
ATOM     12  N   GLY E  46      21.178 -13.012  20.765  1.00 50.71 LIG-0.35  N 
ATOM     13 H    GLY E  46      20.437 -13.428  20.633  1.00 50.71 LIG 0.16  HD
BRANCH 12 14
ATOM     14  CA  GLY E  46      21.747 -13.150  22.092  1.00 54.23 LIG 0.21  C 
BRANCH 14 15
ATOM     15  C   GLY E  46      20.695 -13.166  23.178  1.00 55.55 LIG 0.21  C 
ATOM     16 O    GLY E  46      19.704 -12.425  23.029  1.00 59.11 LIG-0.29  OA
ENDBRANCH 14 15
ENDBRANCH 12 14
ENDBRANCH 9 10
BRANCH 9 17
ATOM     17  CB  PHE E  45      21.840 -13.115  17.501  1.00 43.03 LIG 0.07  C 
BRANCH 17 18
ATOM     18  CG  PHE E  45      21.974 -12.554  16.108  1.00 41.93 LIG-0.06  A 
ATOM     19  CD2 PHE E  45      20.913 -12.617  15.206  1.00 42.38 LIG 0.01  A 
ATOM     20  CE2 PHE E  45      21.028 -12.071  13.925  1.00 42.73 LIG 0.00  A 
ATOM     21  CZ  PHE E  45      22.215 -11.457  13.537  1.00 42.74 LIG 0.00  A 
ATOM     22  CE1 PHE E  45      23.281 -11.386  14.429  1.00 41.89 LIG 0.00  A 
ATOM     23  CD1 PHE E  45      23.156 -11.934  15.707  1.00 42.01 LIG 0.01  A 
ENDBRANCH 17 18
ENDBRANCH 9 17
ENDBRANCH 6 9
ENDBRANCH 1 5
BRANCH 1 24
ATOM     24  N   SER E  44      22.305  -8.121  17.956  1.00 46.50 LIG-0.34  N 
ATOM     25  C   PHE E  43      22.985  -7.913  19.063  1.00 47.40 LIG 0.24  C 
ATOM     26 O    PHE E  43      22.448  -7.932  20.167  1.00 45.80 LIG-0.27  OA
ATOM     27 H    SER E  44      22.624  -8.096  17.158  1.00 46.50 LIG 0.16  HD
BRANCH 25 28
ATOM     28  CA  PHE E  43      24.456  -7.596  18.916  1.00 47.87 LIG 0.18  C 
BRANCH 28 29
ATOM     29  CB  PHE E  43      25.246  -8.459  19.895  1.00 42.32 LIG 0.07  C 
BRANCH 29 30
ATOM     30  CG  PHE E  43      25.646  -7.775  21.189  1.00 35.12 LIG-0.06  A 
ATOM     31  CD2 PHE E  43      26.701  -6.856  21.273  1.00 32.72 LIG 0.01  A 
ATOM     32  CE2 PHE E  43      27.048  -6.279  22.526  1.00 30.40 LIG 0.00  A 
ATOM     33  CZ  PHE E  43      26.331  -6.626  23.679  1.00 28.92 LIG 0.00  A 
ATOM     34  CE1 PHE E  43      25.287  -7.539  23.584  1.00 29.46 LIG 0.00  A 
ATOM     35  CD1 PHE E  43      24.959  -8.101  22.348  1.00 34.02 LIG 0.01  A 
ENDBRANCH 29 30
ENDBRANCH 28 29
BRANCH 28 36
ATOM     36  N   PHE E  43      24.406  -6.226  19.339  1.00 51.92 LIG-0.35  N 
ATOM     37  C   GLY E  42      25.197  -5.244  18.948  1.00 55.92 LIG 0.25  C 
ATOM     38 O    GLY E  42      26.137  -5.341  18.147  1.00 57.26 LIG-0.27  OA
ATOM     39 H    PHE E  43      23.774  -6.090  19.908  1.00 51.92 LIG 0.16  HD
BRANCH 37 40
ATOM     40  CA  GLY E  42      24.812  -3.941  19.601  1.00 58.33 LIG 0.47  C 
ATOM     41  N   GLY E  42      25.591  -2.806  19.192  1.00 60.94 LIG 0.61  N 
ENDBRANCH 37 40
ENDBRANCH 28 36
ENDBRANCH 25 28
ENDBRANCH 1 24
TORSDOF 15
ENDMDL
MODEL 47
USER: ADFR SOLUTION from run 92
USER: SCORE 11.857757 LL:  -2.665 LR: -10.087 RR:   0.000 FEB:  -5.612
USER: RMSD 10.184770
USER: SEED 91
USER: STATUS no improvement in best in 21 clusters for 5 generations
USER: GENES 17
USER: genes 0 Translation |==|  0.24302 0.41355 0.61128
USER: genes 1 Rotation |==|  0.47054 0.30284 0.95712 0.53614
USER: genes 2 Torsion [C]-CA--CB-[OG] |==|  0.25821
USER: genes 3 Torsion [CA]-CB--OG-[HG] |==|  0.30490
USER: genes 4 Torsion [N]-CA--C-[N] |==|  0.14770
USER: genes 5 Torsion [C]-N--CA-[C] |==|  0.62089
USER: genes 6 Torsion [N]-CA--C-[N] |==|  0.41111
USER: genes 7 Torsion [C]-N--CA-[C] |==|  0.34513
USER: genes 8 Torsion [N]-CA--C-[O] |==|  0.05355
USER: genes 9 Torsion [N]-CA--CB-[CG] |==|  0.42962
USER: genes 10 Torsion [CA]-CB--CG-[CD2] |==|  0.22954
USER: genes 11 Torsion [CB]-CA--N-[C] |==|  0.78084
USER: genes 12 Torsion [N]-C--CA-[N] |==|  0.30296
USER: genes 13 Torsion [C]-CA--CB-[CG] |==|  0.36096
USER: genes 14 Torsion [CA]-CB--CG-[CD2] |==|  0.04511
USER: genes 15 Torsion [C]-CA--N-[C] |==|  0.80931
USER: genes 16 Torsion [N]-C--CA-[N] |==|  0.45745
ROOT
ATOM      1  CA  SER E  44      20.479  -9.290  19.948  1.00 44.79 LIG 0.20  C 
ENDROOT
BRANCH 1 2
ATOM      2  CB  SER E  44      19.650  -8.076  20.365  1.00 46.10 LIG 0.20  C 
BRANCH 2 3
ATOM      3 OG   SER E  44      18.501  -8.489  21.076  1.00 47.85 LIG-0.40  OA
ATOM      4 HG   SER E  44      18.579  -8.275  21.884  1.00 47.85 LIG 0.21  HD
ENDBRANCH 2 3
ENDBRANCH 1 2
BRANCH 1 5
ATOM      5  C   SER E  44      20.080  -9.729  18.557  1.00 42.78 LIG 0.24  C 
ATOM      6  N   PHE E  45      20.791 -10.730  18.060  1.00 43.36 LIG-0.35  N 
ATOM      7 H    PHE E  45      21.445 -11.108  18.472  1.00 43.36 LIG 0.16  HD
ATOM      8 O    SER E  44      19.178  -9.165  17.936  1.00 37.54 LIG-0.27  OA
BRANCH 6 9
ATOM      9  CA  PHE E  45      20.510 -11.278  16.743  1.00 46.68 LIG 0.18  C 
BRANCH 9 10
ATOM     10  C   PHE E  45      20.567 -12.797  16.835  1.00 48.11 LIG 0.24  C 
ATOM     11 O    PHE E  45      21.331 -13.349  17.628  1.00 49.85 LIG-0.27  OA
ATOM     12  N   GLY E  46      19.761 -13.477  16.031  1.00 50.71 LIG-0.35  N 
ATOM     13 H    GLY E  46      19.217 -13.129  15.463  1.00 50.71 LIG 0.16  HD
BRANCH 12 14
ATOM     14  CA  GLY E  46      19.768 -14.926  16.082  1.00 54.23 LIG 0.21  C 
BRANCH 14 15
ATOM     15  C   GLY E  46      18.397 -15.507  16.347  1.00 55.55 LIG 0.21  C 
ATOM     16 O    GLY E  46      17.412 -14.778  16.125  1.00 59.11 LIG-0.29  OA
ENDBRANCH 14 15
ENDBRANCH 12 14
ENDBRANCH 9 10
BRANCH 9 17
ATOM     17  CB  PHE E  45      21.529 -10.770  15.717  1.00 43.03 LIG 0.07  C 
BRANCH 17 18
ATOM     18  CG  PHE E  45      21.712 -11.689  14.536  1.00 41.93 LIG-0.06  A 
ATOM     19  CD2 PHE E  45      20.829 -11.651  13.457  1.00 42.38 LIG 0.01  A 
ATOM     20  CE2 PHE E  45      21.016 -12.483  12.350  1.00 42.73 LIG 0.00  A 
ATOM     21  CZ  PHE E  45      22.094 -13.363  12.317  1.00 42.74 LIG 0.00  A 
ATOM     22  CE1 PHE E  45      22.982 -13.409  13.388  1.00 41.89 LIG 0.00  A 
ATOM     23  CD1 PHE E  45      22.787 -12.573  14.490  1.00 42.01 LIG 0.01  A 
ENDBRANCH 17 18
ENDBRANCH 9 17
ENDBRANCH 6 9
ENDBRANCH 1 5
BRANCH 1 24
ATOM     24  N   SER E  44      21.891  -8.988  20.051  1.00 46.50 LIG-0.34  N 
ATOM     25  C   PHE E  43      22.447  -8.283  19.090  1.00 47.40 LIG 0.24  C 
ATOM     26 O    PHE E  43      21.811  -7.912  18.108  1.00 45.80 LIG-0.27  OA
ATOM     27 H    SER E  44      22.293  -9.293  20.747  1.00 46.50 LIG 0.16  HD
BRANCH 25 28
ATOM     28  CA  PHE E  43      23.925  -7.988  19.220  1.00 47.87 LIG 0.18  C 
BRANCH 28 29
ATOM     29  CB  PHE E  43      24.163  -6.517  18.892  1.00 42.32 LIG 0.07  C 
BRANCH 29 30
ATOM     30  CG  PHE E  43      24.988  -5.750  19.909  1.00 35.12 LIG-0.06  A 
ATOM     31  CD2 PHE E  43      25.773  -6.376  20.886  1.00 32.72 LIG 0.01  A 
ATOM     32  CE2 PHE E  43      26.493  -5.596  21.833  1.00 30.40 LIG 0.00  A 
ATOM     33  CZ  PHE E  43      26.421  -4.197  21.787  1.00 28.92 LIG 0.00  A 
ATOM     34  CE1 PHE E  43      25.638  -3.587  20.814  1.00 29.46 LIG 0.00  A 
ATOM     35  CD1 PHE E  43      24.934  -4.365  19.892  1.00 34.02 LIG 0.01  A 
ENDBRANCH 29 30
ENDBRANCH 28 29
BRANCH 28 36
ATOM     36  N   PHE E  43      24.390  -8.847  18.170  1.00 51.92 LIG-0.35  N 
ATOM     37  C   GLY E  42      24.376 -10.168  18.160  1.00 55.92 LIG 0.25  C 
ATOM     38 O    GLY E  42      23.965 -10.899  19.071  1.00 57.26 LIG-0.27  OA
ATOM     39 H    PHE E  43      24.699  -8.400  17.504  1.00 51.92 LIG 0.16  HD
BRANCH 37 40
ATOM     40  CA  GLY E  42      24.930 -10.708  16.866  1.00 58.33 LIG 0.47  C 
ATOM     41  N   GLY E  42      25.275 -12.102  16.892  1.00 60.94 LIG 0.61  N 
ENDBRANCH 37 40
ENDBRANCH 28 36
ENDBRANCH 25 28
ENDBRANCH 1 24
TORSDOF 15
ENDMDL
MODEL 48
USER: ADFR SOLUTION from run 125
USER: SCORE 10.905744 LL:  -2.945 LR: -10.079 RR:   0.000 FEB:  -5.605
USER: RMSD 4.453578
USER: SEED 124
USER: STATUS no improvement in best in 18 clusters for 5 generations
USER: GENES 17
USER: genes 0 Translation |==|  0.37294 0.49454 0.57687
USER: genes 1 Rotation |==|  0.37545 0.32078 0.45591 0.94768
USER: genes 2 Torsion [C]-CA--CB-[OG] |==|  0.54803
USER: genes 3 Torsion [CA]-CB--OG-[HG] |==|  0.36772
USER: genes 4 Torsion [N]-CA--C-[N] |==|  0.74111
USER: genes 5 Torsion [C]-N--CA-[C] |==|  0.55757
USER: genes 6 Torsion [N]-CA--C-[N] |==|  0.13102
USER: genes 7 Torsion [C]-N--CA-[C] |==|  0.37834
USER: genes 8 Torsion [N]-CA--C-[O] |==|  0.05060
USER: genes 9 Torsion [N]-CA--CB-[CG] |==|  0.79104
USER: genes 10 Torsion [CA]-CB--CG-[CD2] |==|  0.80302
USER: genes 11 Torsion [CB]-CA--N-[C] |==|  0.85000
USER: genes 12 Torsion [N]-C--CA-[N] |==|  0.48856
USER: genes 13 Torsion [C]-CA--CB-[CG] |==|  0.18865
USER: genes 14 Torsion [CA]-CB--CG-[CD2] |==|  0.70688
USER: genes 15 Torsion [C]-CA--N-[C] |==|  0.54751
USER: genes 16 Torsion [N]-C--CA-[N] |==|  0.52496
ROOT
ATOM      1  CA  SER E  44      23.500  -7.650  19.509  1.00 44.79 LIG 0.20  C 
ENDROOT
BRANCH 1 2
ATOM      2  CB  SER E  44      24.144  -8.764  20.332  1.00 46.10 LIG 0.20  C 
BRANCH 2 3
ATOM      3 OG   SER E  44      23.212  -9.799  20.570  1.00 47.85 LIG-0.40  OA
ATOM      4 HG   SER E  44      23.567 -10.540  20.398  1.00 47.85 LIG 0.21  HD
ENDBRANCH 2 3
ENDBRANCH 1 2
BRANCH 1 5
ATOM      5  C   SER E  44      24.573  -6.773  18.904  1.00 42.78 LIG 0.24  C 
ATOM      6  N   PHE E  45      25.717  -7.388  18.641  1.00 43.36 LIG-0.35  N 
ATOM      7 H    PHE E  45      25.866  -8.219  18.807  1.00 43.36 LIG 0.16  HD
ATOM      8 O    SER E  44      24.389  -5.571  18.705  1.00 37.54 LIG-0.27  OA
BRANCH 6 9
ATOM      9  CA  PHE E  45      26.834  -6.683  18.036  1.00 46.68 LIG 0.18  C 
BRANCH 9 10
ATOM     10  C   PHE E  45      27.761  -7.710  17.401  1.00 48.11 LIG 0.24  C 
ATOM     11 O    PHE E  45      28.978  -7.660  17.592  1.00 49.85 LIG-0.27  OA
ATOM     12  N   GLY E  46      27.196  -8.645  16.648  1.00 50.71 LIG-0.35  N 
ATOM     13 H    GLY E  46      26.353  -8.711  16.490  1.00 50.71 LIG 0.16  HD
BRANCH 12 14
ATOM     14  CA  GLY E  46      28.031  -9.653  16.026  1.00 54.23 LIG 0.21  C 
BRANCH 14 15
ATOM     15  C   GLY E  46      27.448 -11.044  16.140  1.00 55.55 LIG 0.21  C 
ATOM     16 O    GLY E  46      26.235 -11.139  16.407  1.00 59.11 LIG-0.29  OA
ENDBRANCH 14 15
ENDBRANCH 12 14
ENDBRANCH 9 10
BRANCH 9 17
ATOM     17  CB  PHE E  45      27.591  -5.864  19.087  1.00 43.03 LIG 0.07  C 
BRANCH 17 18
ATOM     18  CG  PHE E  45      26.876  -4.606  19.508  1.00 41.93 LIG-0.06  A 
ATOM     19  CD2 PHE E  45      26.767  -3.520  18.639  1.00 42.38 LIG 0.01  A 
ATOM     20  CE2 PHE E  45      26.079  -2.364  19.020  1.00 42.73 LIG 0.00  A 
ATOM     21  CZ  PHE E  45      25.493  -2.289  20.280  1.00 42.74 LIG 0.00  A 
ATOM     22  CE1 PHE E  45      25.593  -3.366  21.155  1.00 41.89 LIG 0.00  A 
ATOM     23  CD1 PHE E  45      26.283  -4.517  20.765  1.00 42.01 LIG 0.01  A 
ENDBRANCH 17 18
ENDBRANCH 9 17
ENDBRANCH 6 9
ENDBRANCH 1 5
BRANCH 1 24
ATOM     24  N   SER E  44      22.616  -8.214  18.511  1.00 46.50 LIG-0.34  N 
ATOM     25  C   PHE E  43      23.104  -9.121  17.693  1.00 47.40 LIG 0.24  C 
ATOM     26 O    PHE E  43      24.281  -9.467  17.736  1.00 45.80 LIG-0.27  OA
ATOM     27 H    SER E  44      21.809  -7.919  18.510  1.00 46.50 LIG 0.16  HD
BRANCH 25 28
ATOM     28  CA  PHE E  43      22.161  -9.689  16.656  1.00 47.87 LIG 0.18  C 
BRANCH 28 29
ATOM     29  CB  PHE E  43      21.096 -10.523  17.364  1.00 42.32 LIG 0.07  C 
BRANCH 29 30
ATOM     30  CG  PHE E  43      20.124  -9.739  18.226  1.00 35.12 LIG-0.06  A 
ATOM     31  CD2 PHE E  43      20.175  -9.734  19.626  1.00 32.72 LIG 0.01  A 
ATOM     32  CE2 PHE E  43      19.208  -9.007  20.374  1.00 30.40 LIG 0.00  A 
ATOM     33  CZ  PHE E  43      18.204  -8.289  19.710  1.00 28.92 LIG 0.00  A 
ATOM     34  CE1 PHE E  43      18.163  -8.301  18.321  1.00 29.46 LIG 0.00  A 
ATOM     35  CD1 PHE E  43      19.117  -9.022  17.598  1.00 34.02 LIG 0.01  A 
ENDBRANCH 29 30
ENDBRANCH 28 29
BRANCH 28 36
ATOM     36  N   PHE E  43      23.105 -10.516  15.962  1.00 51.92 LIG-0.35  N 
ATOM     37  C   GLY E  42      22.968 -11.039  14.758  1.00 55.92 LIG 0.25  C 
ATOM     38 O    GLY E  42      21.984 -10.914  14.017  1.00 57.26 LIG-0.27  OA
ATOM     39 H    PHE E  43      23.816 -10.650  16.428  1.00 51.92 LIG 0.16  HD
BRANCH 37 40
ATOM     40  CA  GLY E  42      24.191 -11.829  14.365  1.00 58.33 LIG 0.47  C 
ATOM     41  N   GLY E  42      24.216 -12.264  12.997  1.00 60.94 LIG 0.61  N 
ENDBRANCH 37 40
ENDBRANCH 28 36
ENDBRANCH 25 28
ENDBRANCH 1 24
TORSDOF 15
ENDMDL
MODEL 49
USER: ADFR SOLUTION from run 131
USER: SCORE 12.477319 LL:  -2.685 LR: -10.070 RR:   0.000 FEB:  -5.596
USER: RMSD 7.655990
USER: SEED 130
USER: STATUS no improvement in best in 8 clusters for 5 generations
USER: GENES 17
USER: genes 0 Translation |==|  0.43708 0.53597 0.54303
USER: genes 1 Rotation |==|  0.11393 0.69479 0.73017 0.60015
USER: genes 2 Torsion [C]-CA--CB-[OG] |==|  0.41125
USER: genes 3 Torsion [CA]-CB--OG-[HG] |==|  0.58031
USER: genes 4 Torsion [N]-CA--C-[N] |==|  0.41087
USER: genes 5 Torsion [C]-N--CA-[C] |==|  0.76184
USER: genes 6 Torsion [N]-CA--C-[N] |==|  0.98754
USER: genes 7 Torsion [C]-N--CA-[C] |==|  0.48689
USER: genes 8 Torsion [N]-CA--C-[O] |==|  0.04936
USER: genes 9 Torsion [N]-CA--CB-[CG] |==|  0.76606
USER: genes 10 Torsion [CA]-CB--CG-[CD2] |==|  0.99027
USER: genes 11 Torsion [CB]-CA--N-[C] |==|  0.85556
USER: genes 12 Torsion [N]-C--CA-[N] |==|  0.46062
USER: genes 13 Torsion [C]-CA--CB-[CG] |==|  0.11570
USER: genes 14 Torsion [CA]-CB--CG-[CD2] |==|  0.17998
USER: genes 15 Torsion [C]-CA--N-[C] |==|  0.74600
USER: genes 16 Torsion [N]-C--CA-[N] |==|  0.73202
ROOT
ATOM      1  CA  SER E  44      24.991  -6.811  19.078  1.00 44.79 LIG 0.20  C 
ENDROOT
BRANCH 1 2
ATOM      2  CB  SER E  44      26.343  -6.876  18.369  1.00 46.10 LIG 0.20  C 
BRANCH 2 3
ATOM      3 OG   SER E  44      26.609  -5.658  17.706  1.00 47.85 LIG-0.40  OA
ATOM      4 HG   SER E  44      27.096  -5.803  17.037  1.00 47.85 LIG 0.21  HD
ENDBRANCH 2 3
ENDBRANCH 1 2
BRANCH 1 5
ATOM      5  C   SER E  44      24.353  -8.182  19.094  1.00 42.78 LIG 0.24  C 
ATOM      6  N   PHE E  45      23.597  -8.460  18.043  1.00 43.36 LIG-0.35  N 
ATOM      7 H    PHE E  45      23.452  -7.914  17.395  1.00 43.36 LIG 0.16  HD
ATOM      8 O    SER E  44      24.513  -8.957  20.038  1.00 37.54 LIG-0.27  OA
BRANCH 6 9
ATOM      9  CA  PHE E  45      22.937  -9.748  17.905  1.00 46.68 LIG 0.18  C 
BRANCH 9 10
ATOM     10  C   PHE E  45      23.915 -10.720  17.260  1.00 48.11 LIG 0.24  C 
ATOM     11 O    PHE E  45      23.614 -11.906  17.109  1.00 49.85 LIG-0.27  OA
ATOM     12  N   GLY E  46      25.085 -10.228  16.874  1.00 50.71 LIG-0.35  N 
ATOM     13 H    GLY E  46      25.332  -9.409  16.965  1.00 50.71 LIG 0.16  HD
BRANCH 12 14
ATOM     14  CA  GLY E  46      26.051 -11.108  16.246  1.00 54.23 LIG 0.21  C 
BRANCH 14 15
ATOM     15  C   GLY E  46      27.282 -10.373  15.765  1.00 55.55 LIG 0.21  C 
ATOM     16 O    GLY E  46      27.495  -9.239  16.235  1.00 59.11 LIG-0.29  OA
ENDBRANCH 14 15
ENDBRANCH 12 14
ENDBRANCH 9 10
BRANCH 9 17
ATOM     17  CB  PHE E  45      21.674  -9.619  17.046  1.00 43.03 LIG 0.07  C 
BRANCH 17 18
ATOM     18  CG  PHE E  45      20.458  -9.174  17.818  1.00 41.93 LIG-0.06  A 
ATOM     19  CD2 PHE E  45      20.515  -8.987  19.198  1.00 42.38 LIG 0.01  A 
ATOM     20  CE2 PHE E  45      19.395  -8.547  19.909  1.00 42.73 LIG 0.00  A 
ATOM     21  CZ  PHE E  45      18.204  -8.291  19.237  1.00 42.74 LIG 0.00  A 
ATOM     22  CE1 PHE E  45      18.134  -8.472  17.858  1.00 41.89 LIG 0.00  A 
ATOM     23  CD1 PHE E  45      19.260  -8.912  17.157  1.00 42.01 LIG 0.01  A 
ENDBRANCH 17 18
ENDBRANCH 9 17
ENDBRANCH 6 9
ENDBRANCH 1 5
BRANCH 1 24
ATOM     24  N   SER E  44      25.151  -6.257  20.406  1.00 46.50 LIG-0.34  N 
ATOM     25  C   PHE E  43      26.055  -6.792  21.196  1.00 47.40 LIG 0.24  C 
ATOM     26 O    PHE E  43      26.730  -7.757  20.849  1.00 45.80 LIG-0.27  OA
ATOM     27 H    SER E  44      24.636  -5.598  20.604  1.00 46.50 LIG 0.16  HD
BRANCH 25 28
ATOM     28  CA  PHE E  43      26.195  -6.198  22.580  1.00 47.87 LIG 0.18  C 
BRANCH 28 29
ATOM     29  CB  PHE E  43      26.989  -4.899  22.479  1.00 42.32 LIG 0.07  C 
BRANCH 29 30
ATOM     30  CG  PHE E  43      26.632  -4.009  21.302  1.00 35.12 LIG-0.06  A 
ATOM     31  CD2 PHE E  43      25.379  -3.401  21.155  1.00 32.72 LIG 0.01  A 
ATOM     32  CE2 PHE E  43      25.098  -2.609  20.007  1.00 30.40 LIG 0.00  A 
ATOM     33  CZ  PHE E  43      26.079  -2.433  19.022  1.00 28.92 LIG 0.00  A 
ATOM     34  CE1 PHE E  43      27.319  -3.041  19.178  1.00 29.46 LIG 0.00  A 
ATOM     35  CD1 PHE E  43      27.580  -3.819  20.309  1.00 34.02 LIG 0.01  A 
ENDBRANCH 29 30
ENDBRANCH 28 29
BRANCH 28 36
ATOM     36  N   PHE E  43      26.973  -7.250  23.168  1.00 51.92 LIG-0.35  N 
ATOM     37  C   GLY E  42      26.519  -8.307  23.815  1.00 55.92 LIG 0.25  C 
ATOM     38 O    GLY E  42      25.329  -8.568  24.040  1.00 57.26 LIG-0.27  OA
ATOM     39 H    PHE E  43      27.817  -7.125  23.055  1.00 51.92 LIG 0.16  HD
BRANCH 37 40
ATOM     40  CA  GLY E  42      27.650  -9.199  24.264  1.00 58.33 LIG 0.47  C 
ATOM     41  N   GLY E  42      27.934 -10.301  23.388  1.00 60.94 LIG 0.61  N 
ENDBRANCH 37 40
ENDBRANCH 28 36
ENDBRANCH 25 28
ENDBRANCH 1 24
TORSDOF 15
ENDMDL
MODEL 50
USER: ADFR SOLUTION from run 147
USER: SCORE 11.449770 LL:  -2.520 LR: -10.061 RR:   0.000 FEB:  -5.587
USER: RMSD 9.234883
USER: SEED 146
USER: STATUS no improvement in best in 15 clusters for 5 generations
USER: GENES 17
USER: genes 0 Translation |==|  0.50132 0.54869 0.45704
USER: genes 1 Rotation |==|  0.83082 0.13197 0.42855 0.50286
USER: genes 2 Torsion [C]-CA--CB-[OG] |==|  0.18097
USER: genes 3 Torsion [CA]-CB--OG-[HG] |==|  0.09006
USER: genes 4 Torsion [N]-CA--C-[N] |==|  0.46471
USER: genes 5 Torsion [C]-N--CA-[C] |==|  0.78496
USER: genes 6 Torsion [N]-CA--C-[N] |==|  0.96391
USER: genes 7 Torsion [C]-N--CA-[C] |==|  0.76893
USER: genes 8 Torsion [N]-CA--C-[O] |==|  0.03549
USER: genes 9 Torsion [N]-CA--CB-[CG] |==|  0.60038
USER: genes 10 Torsion [CA]-CB--CG-[CD2] |==|  0.93388
USER: genes 11 Torsion [CB]-CA--N-[C] |==|  0.26111
USER: genes 12 Torsion [N]-C--CA-[N] |==|  0.89127
USER: genes 13 Torsion [C]-CA--CB-[CG] |==|  0.47473
USER: genes 14 Torsion [CA]-CB--CG-[CD2] |==|  0.90548
USER: genes 15 Torsion [C]-CA--N-[C] |==|  0.81810
USER: genes 16 Torsion [N]-C--CA-[N] |==|  0.82659
ROOT
ATOM      1  CA  SER E  44      26.485  -6.553  17.981  1.00 44.79 LIG 0.20  C 
ENDROOT
BRANCH 1 2
ATOM      2  CB  SER E  44      27.474  -7.717  17.993  1.00 46.10 LIG 0.20  C 
BRANCH 2 3
ATOM      3 OG   SER E  44      26.941  -8.821  17.292  1.00 47.85 LIG-0.40  OA
ATOM      4 HG   SER E  44      26.454  -8.547  16.665  1.00 47.85 LIG 0.21  HD
ENDBRANCH 2 3
ENDBRANCH 1 2
BRANCH 1 5
ATOM      5  C   SER E  44      25.240  -6.931  18.752  1.00 42.78 LIG 0.24  C 
ATOM      6  N   PHE E  45      24.480  -7.849  18.175  1.00 43.36 LIG-0.35  N 
ATOM      7 H    PHE E  45      24.653  -8.208  17.412  1.00 43.36 LIG 0.16  HD
ATOM      8 O    SER E  44      24.954  -6.391  19.822  1.00 37.54 LIG-0.27  OA
BRANCH 6 9
ATOM      9  CA  PHE E  45      23.263  -8.332  18.806  1.00 46.68 LIG 0.18  C 
BRANCH 9 10
ATOM     10  C   PHE E  45      23.650  -9.314  19.903  1.00 48.11 LIG 0.24  C 
ATOM     11 O    PHE E  45      22.821  -9.683  20.737  1.00 49.85 LIG-0.27  OA
ATOM     12  N   GLY E  46      24.905  -9.744  19.909  1.00 50.71 LIG-0.35  N 
ATOM     13 H    GLY E  46      25.512  -9.509  19.347  1.00 50.71 LIG 0.16  HD
BRANCH 12 14
ATOM     14  CA  GLY E  46      25.326 -10.687  20.926  1.00 54.23 LIG 0.21  C 
BRANCH 14 15
ATOM     15  C   GLY E  46      25.700 -10.013  22.227  1.00 55.55 LIG 0.21  C 
ATOM     16 O    GLY E  46      25.383  -8.816  22.366  1.00 59.11 LIG-0.29  OA
ENDBRANCH 14 15
ENDBRANCH 12 14
ENDBRANCH 9 10
BRANCH 9 17
ATOM     17  CB  PHE E  45      22.356  -9.017  17.778  1.00 43.03 LIG 0.07  C 
BRANCH 17 18
ATOM     18  CG  PHE E  45      20.886  -8.785  18.016  1.00 41.93 LIG-0.06  A 
ATOM     19  CD2 PHE E  45      20.408  -8.460  19.285  1.00 42.38 LIG 0.01  A 
ATOM     20  CE2 PHE E  45      19.048  -8.217  19.498  1.00 42.73 LIG 0.00  A 
ATOM     21  CZ  PHE E  45      18.154  -8.299  18.435  1.00 42.74 LIG 0.00  A 
ATOM     22  CE1 PHE E  45      18.618  -8.620  17.163  1.00 41.89 LIG 0.00  A 
ATOM     23  CD1 PHE E  45      19.979  -8.861  16.960  1.00 42.01 LIG 0.01  A 
ENDBRANCH 17 18
ENDBRANCH 9 17
ENDBRANCH 6 9
ENDBRANCH 1 5
BRANCH 1 24
ATOM     24  N   SER E  44      27.116  -5.357  18.497  1.00 46.50 LIG-0.34  N 
ATOM     25  C   PHE E  43      27.660  -4.523  17.638  1.00 47.40 LIG 0.24  C 
ATOM     26 O    PHE E  43      27.674  -4.752  16.432  1.00 45.80 LIG-0.27  OA
ATOM     27 H    SER E  44      27.098  -5.258  19.351  1.00 46.50 LIG 0.16  HD
BRANCH 25 28
ATOM     28  CA  PHE E  43      28.318  -3.284  18.205  1.00 47.87 LIG 0.18  C 
BRANCH 28 29
ATOM     29  CB  PHE E  43      29.673  -3.672  18.789  1.00 42.32 LIG 0.07  C 
BRANCH 29 30
ATOM     30  CG  PHE E  43      30.557  -2.511  19.206  1.00 35.12 LIG-0.06  A 
ATOM     31  CD2 PHE E  43      30.578  -1.284  18.529  1.00 32.72 LIG 0.01  A 
ATOM     32  CE2 PHE E  43      31.459  -0.250  18.951  1.00 30.40 LIG 0.00  A 
ATOM     33  CZ  PHE E  43      32.306  -0.455  20.048  1.00 28.92 LIG 0.00  A 
ATOM     34  CE1 PHE E  43      32.277  -1.677  20.712  1.00 29.46 LIG 0.00  A 
ATOM     35  CD1 PHE E  43      31.409  -2.685  20.285  1.00 34.02 LIG 0.01  A 
ENDBRANCH 29 30
ENDBRANCH 28 29
BRANCH 28 36
ATOM     36  N   PHE E  43      27.358  -3.006  19.234  1.00 51.92 LIG-0.35  N 
ATOM     37  C   GLY E  42      26.096  -2.656  19.069  1.00 55.92 LIG 0.25  C 
ATOM     38 O    GLY E  42      25.520  -2.495  17.984  1.00 57.26 LIG-0.27  OA
ATOM     39 H    PHE E  43      27.698  -3.091  20.020  1.00 51.92 LIG 0.16  HD
BRANCH 37 40
ATOM     40  CA  GLY E  42      25.403  -2.473  20.396  1.00 58.33 LIG 0.47  C 
ATOM     41  N   GLY E  42      25.329  -3.655  21.207  1.00 60.94 LIG 0.61  N 
ENDBRANCH 37 40
ENDBRANCH 28 36
ENDBRANCH 25 28
ENDBRANCH 1 24
TORSDOF 15
ENDMDL
MODEL 51
USER: ADFR SOLUTION from run 158
USER: SCORE 11.314561 LL:  -2.779 LR: -10.000 RR:   0.000 FEB:  -5.526
USER: RMSD 8.765303
USER: SEED 157
USER: STATUS no improvement in best in 17 clusters for 5 generations
USER: GENES 17
USER: genes 0 Translation |==|  0.50012 0.54381 0.46322
USER: genes 1 Rotation |==|  0.86072 0.18574 0.36125 0.54326
USER: genes 2 Torsion [C]-CA--CB-[OG] |==|  0.21298
USER: genes 3 Torsion [CA]-CB--OG-[HG] |==|  0.99677
USER: genes 4 Torsion [N]-CA--C-[N] |==|  0.37677
USER: genes 5 Torsion [C]-N--CA-[C] |==|  0.62797
USER: genes 6 Torsion [N]-CA--C-[N] |==|  0.98457
USER: genes 7 Torsion [C]-N--CA-[C] |==|  0.35330
USER: genes 8 Torsion [N]-CA--C-[O] |==|  0.77541
USER: genes 9 Torsion [N]-CA--CB-[CG] |==|  0.28094
USER: genes 10 Torsion [CA]-CB--CG-[CD2] |==|  0.35015
USER: genes 11 Torsion [CB]-CA--N-[C] |==|  0.23469
USER: genes 12 Torsion [N]-C--CA-[N] |==|  0.89422
USER: genes 13 Torsion [C]-CA--CB-[CG] |==|  0.83744
USER: genes 14 Torsion [CA]-CB--CG-[CD2] |==|  0.77819
USER: genes 15 Torsion [C]-CA--N-[C] |==|  0.82361
USER: genes 16 Torsion [N]-C--CA-[N] |==|  0.41054
ROOT
ATOM      1  CA  SER E  44      26.457  -6.652  18.060  1.00 44.79 LIG 0.20  C 
ENDROOT
BRANCH 1 2
ATOM      2  CB  SER E  44      27.647  -7.509  17.633  1.00 46.10 LIG 0.20  C 
BRANCH 2 3
ATOM      3 OG   SER E  44      27.232  -8.500  16.715  1.00 47.85 LIG-0.40  OA
ATOM      4 HG   SER E  44      26.404  -8.439  16.591  1.00 47.85 LIG 0.21  HD
ENDBRANCH 2 3
ENDBRANCH 1 2
BRANCH 1 5
ATOM      5  C   SER E  44      25.612  -7.409  19.060  1.00 42.78 LIG 0.24  C 
ATOM      6  N   PHE E  45      24.512  -7.956  18.564  1.00 43.36 LIG-0.35  N 
ATOM      7 H    PHE E  45      24.268  -7.887  17.742  1.00 43.36 LIG 0.16  HD
ATOM      8 O    SER E  44      25.924  -7.475  20.250  1.00 37.54 LIG-0.27  OA
BRANCH 6 9
ATOM      9  CA  PHE E  45      23.611  -8.735  19.397  1.00 46.68 LIG 0.18  C 
BRANCH 9 10
ATOM     10  C   PHE E  45      23.252 -10.012  18.650  1.00 48.11 LIG 0.24  C 
ATOM     11 O    PHE E  45      22.576 -10.887  19.193  1.00 49.85 LIG-0.27  OA
ATOM     12  N   GLY E  46      23.697 -10.125  17.405  1.00 50.71 LIG-0.35  N 
ATOM     13 H    GLY E  46      24.173  -9.538  16.994  1.00 50.71 LIG 0.16  HD
BRANCH 12 14
ATOM     14  CA  GLY E  46      23.378 -11.316  16.644  1.00 54.23 LIG 0.21  C 
BRANCH 14 15
ATOM     15  C   GLY E  46      22.752 -11.002  15.304  1.00 55.55 LIG 0.21  C 
ATOM     16 O    GLY E  46      21.535 -10.736  15.286  1.00 59.11 LIG-0.29  OA
ENDBRANCH 14 15
ENDBRANCH 12 14
ENDBRANCH 9 10
BRANCH 9 17
ATOM     17  CB  PHE E  45      22.344  -7.935  19.719  1.00 43.03 LIG 0.07  C 
BRANCH 17 18
ATOM     18  CG  PHE E  45      21.153  -8.319  18.880  1.00 41.93 LIG-0.06  A 
ATOM     19  CD2 PHE E  45      19.946  -8.683  19.475  1.00 42.38 LIG 0.01  A 
ATOM     20  CE2 PHE E  45      18.833  -9.012  18.696  1.00 42.73 LIG 0.00  A 
ATOM     21  CZ  PHE E  45      18.924  -8.979  17.308  1.00 42.74 LIG 0.00  A 
ATOM     22  CE1 PHE E  45      20.123  -8.616  16.701  1.00 41.89 LIG 0.00  A 
ATOM     23  CD1 PHE E  45      21.230  -8.289  17.489  1.00 42.01 LIG 0.01  A 
ENDBRANCH 17 18
ENDBRANCH 9 17
ENDBRANCH 6 9
ENDBRANCH 1 5
BRANCH 1 24
ATOM     24  N   SER E  44      26.918  -5.379  18.574  1.00 46.50 LIG-0.34  N 
ATOM     25  C   PHE E  43      27.164  -4.416  17.714  1.00 47.40 LIG 0.24  C 
ATOM     26 O    PHE E  43      27.046  -4.582  16.503  1.00 45.80 LIG-0.27  OA
ATOM     27 H    SER E  44      27.006  -5.326  19.427  1.00 46.50 LIG 0.16  HD
BRANCH 25 28
ATOM     28  CA  PHE E  43      27.651  -3.099  18.277  1.00 47.87 LIG 0.18  C 
BRANCH 28 29
ATOM     29  CB  PHE E  43      29.133  -3.230  18.620  1.00 42.32 LIG 0.07  C 
BRANCH 29 30
ATOM     30  CG  PHE E  43      29.476  -4.322  19.616  1.00 35.12 LIG-0.06  A 
ATOM     31  CD2 PHE E  43      29.314  -4.173  21.000  1.00 32.72 LIG 0.01  A 
ATOM     32  CE2 PHE E  43      29.691  -5.224  21.881  1.00 30.40 LIG 0.00  A 
ATOM     33  CZ  PHE E  43      30.222  -6.414  21.364  1.00 28.92 LIG 0.00  A 
ATOM     34  CE1 PHE E  43      30.379  -6.550  19.990  1.00 29.46 LIG 0.00  A 
ATOM     35  CD1 PHE E  43      30.007  -5.509  19.136  1.00 34.02 LIG 0.01  A 
ENDBRANCH 29 30
ENDBRANCH 28 29
BRANCH 28 36
ATOM     36  N   PHE E  43      26.835  -3.076  19.456  1.00 51.92 LIG-0.35  N 
ATOM     37  C   GLY E  42      25.517  -3.021  19.508  1.00 55.92 LIG 0.25  C 
ATOM     38 O    GLY E  42      24.751  -2.967  18.537  1.00 57.26 LIG-0.27  OA
ATOM     39 H    PHE E  43      27.309  -3.103  20.174  1.00 51.92 LIG 0.16  HD
BRANCH 37 40
ATOM     40  CA  GLY E  42      25.027  -3.038  20.935  1.00 58.33 LIG 0.47  C 
ATOM     41  N   GLY E  42      23.819  -2.297  21.167  1.00 60.94 LIG 0.61  N 
ENDBRANCH 37 40
ENDBRANCH 28 36
ENDBRANCH 25 28
ENDBRANCH 1 24
TORSDOF 15
ENDMDL
MODEL 52
USER: ADFR SOLUTION from run 85
USER: SCORE 12.012867 LL:  -3.571 LR:  -9.997 RR:   0.000 FEB:  -5.523
USER: RMSD 10.629019
USER: SEED 84
USER: STATUS no improvement in best in 8 clusters for 5 generations
USER: GENES 17
USER: genes 0 Translation |==|  0.25902 0.24417 0.28785
USER: genes 1 Rotation |==|  0.73328 0.30000 0.12829 0.63195
USER: genes 2 Torsion [C]-CA--CB-[OG] |==|  0.15676
USER: genes 3 Torsion [CA]-CB--OG-[HG] |==|  0.16433
USER: genes 4 Torsion [N]-CA--C-[N] |==|  0.30231
USER: genes 5 Torsion [C]-N--CA-[C] |==|  0.65763
USER: genes 6 Torsion [N]-CA--C-[N] |==|  0.91667
USER: genes 7 Torsion [C]-N--CA-[C] |==|  0.58636
USER: genes 8 Torsion [N]-CA--C-[O] |==|  0.11701
USER: genes 9 Torsion [N]-CA--CB-[CG] |==|  0.86501
USER: genes 10 Torsion [CA]-CB--CG-[CD2] |==|  0.34234
USER: genes 11 Torsion [CB]-CA--N-[C] |==|  0.48339
USER: genes 12 Torsion [N]-C--CA-[N] |==|  0.93973
USER: genes 13 Torsion [C]-CA--CB-[CG] |==|  0.12248
USER: genes 14 Torsion [CA]-CB--CG-[CD2] |==|  0.70340
USER: genes 15 Torsion [C]-CA--N-[C] |==|  0.78425
USER: genes 16 Torsion [N]-C--CA-[N] |==|  0.25176
ROOT
ATOM      1  CA  SER E  44      20.851 -12.720  15.824  1.00 44.79 LIG 0.20  C 
ENDROOT
BRANCH 1 2
ATOM      2  CB  SER E  44      20.802 -13.076  14.339  1.00 46.10 LIG 0.20  C 
BRANCH 2 3
ATOM      3 OG   SER E  44      19.906 -14.145  14.121  1.00 47.85 LIG-0.40  OA
ATOM      4 HG   SER E  44      19.139 -13.927  14.386  1.00 47.85 LIG 0.21  HD
ENDBRANCH 2 3
ENDBRANCH 1 2
BRANCH 1 5
ATOM      5  C   SER E  44      21.229 -13.941  16.632  1.00 42.78 LIG 0.24  C 
ATOM      6  N   PHE E  45      20.415 -14.221  17.638  1.00 43.36 LIG-0.35  N 
ATOM      7 H    PHE E  45      19.725 -13.751  17.845  1.00 43.36 LIG 0.16  HD
ATOM      8 O    SER E  44      22.241 -14.596  16.376  1.00 37.54 LIG-0.27  OA
BRANCH 6 9
ATOM      9  CA  PHE E  45      20.634 -15.378  18.490  1.00 46.68 LIG 0.18  C 
BRANCH 9 10
ATOM     10  C   PHE E  45      19.382 -16.243  18.454  1.00 48.11 LIG 0.24  C 
ATOM     11 O    PHE E  45      19.459 -17.464  18.603  1.00 49.85 LIG-0.27  OA
ATOM     12  N   GLY E  46      18.227 -15.620  18.261  1.00 50.71 LIG-0.35  N 
ATOM     13 H    GLY E  46      18.134 -14.773  18.151  1.00 50.71 LIG 0.16  HD
BRANCH 12 14
ATOM     14  CA  GLY E  46      17.002 -16.395  18.226  1.00 54.23 LIG 0.21  C 
BRANCH 14 15
ATOM     15  C   GLY E  46      15.956 -15.791  17.317  1.00 55.55 LIG 0.21  C 
ATOM     16 O    GLY E  46      16.338 -15.344  16.218  1.00 59.11 LIG-0.29  OA
ENDBRANCH 14 15
ENDBRANCH 12 14
ENDBRANCH 9 10
BRANCH 9 17
ATOM     17  CB  PHE E  45      20.936 -14.941  19.928  1.00 43.03 LIG 0.07  C 
BRANCH 17 18
ATOM     18  CG  PHE E  45      21.986 -13.865  20.029  1.00 41.93 LIG-0.06  A 
ATOM     19  CD2 PHE E  45      21.713 -12.656  20.666  1.00 42.38 LIG 0.01  A 
ATOM     20  CE2 PHE E  45      22.697 -11.670  20.784  1.00 42.73 LIG 0.00  A 
ATOM     21  CZ  PHE E  45      23.967 -11.891  20.260  1.00 42.74 LIG 0.00  A 
ATOM     22  CE1 PHE E  45      24.253 -13.095  19.623  1.00 41.89 LIG 0.00  A 
ATOM     23  CD1 PHE E  45      23.263 -14.074  19.510  1.00 42.01 LIG 0.01  A 
ENDBRANCH 17 18
ENDBRANCH 9 17
ENDBRANCH 6 9
ENDBRANCH 1 5
BRANCH 1 24
ATOM     24  N   SER E  44      21.754 -11.609  16.041  1.00 46.50 LIG-0.34  N 
ATOM     25  C   PHE E  43      21.825 -11.094  17.249  1.00 47.40 LIG 0.24  C 
ATOM     26 O    PHE E  43      21.127 -11.506  18.171  1.00 45.80 LIG-0.27  OA
ATOM     27 H    SER E  44      22.200 -11.345  15.355  1.00 46.50 LIG 0.16  HD
BRANCH 25 28
ATOM     28  CA  PHE E  43      22.771  -9.931  17.445  1.00 47.87 LIG 0.18  C 
BRANCH 28 29
ATOM     29  CB  PHE E  43      21.990  -8.630  17.289  1.00 42.32 LIG 0.07  C 
BRANCH 29 30
ATOM     30  CG  PHE E  43      20.643  -8.592  17.987  1.00 35.12 LIG-0.06  A 
ATOM     31  CD2 PHE E  43      19.423  -8.664  17.302  1.00 32.72 LIG 0.01  A 
ATOM     32  CE2 PHE E  43      18.196  -8.585  18.016  1.00 30.40 LIG 0.00  A 
ATOM     33  CZ  PHE E  43      18.205  -8.440  19.410  1.00 28.92 LIG 0.00  A 
ATOM     34  CE1 PHE E  43      19.421  -8.369  20.080  1.00 29.46 LIG 0.00  A 
ATOM     35  CD1 PHE E  43      20.619  -8.445  19.365  1.00 34.02 LIG 0.01  A 
ENDBRANCH 29 30
ENDBRANCH 28 29
BRANCH 28 36
ATOM     36  N   PHE E  43      23.622 -10.176  16.317  1.00 51.92 LIG-0.35  N 
ATOM     37  C   GLY E  42      24.576 -11.085  16.225  1.00 55.92 LIG 0.25  C 
ATOM     38 O    GLY E  42      24.911 -11.882  17.112  1.00 57.26 LIG-0.27  OA
ATOM     39 H    PHE E  43      23.447  -9.646  15.662  1.00 51.92 LIG 0.16  HD
BRANCH 37 40
ATOM     40  CA  GLY E  42      25.233 -11.049  14.868  1.00 58.33 LIG 0.47  C 
ATOM     41  N   GLY E  42      26.372 -10.181  14.771  1.00 60.94 LIG 0.61  N 
ENDBRANCH 37 40
ENDBRANCH 28 36
ENDBRANCH 25 28
ENDBRANCH 1 24
TORSDOF 15
ENDMDL
MODEL 53
USER: ADFR SOLUTION from run 158
USER: SCORE 11.194518 LL:  -2.963 LR:  -9.995 RR:   0.000 FEB:  -5.521
USER: RMSD 8.607991
USER: SEED 157
USER: STATUS no improvement in best in 17 clusters for 5 generations
USER: GENES 17
USER: genes 0 Translation |==|  0.49243 0.55212 0.48062
USER: genes 1 Rotation |==|  0.16904 0.86686 0.57562 0.51243
USER: genes 2 Torsion [C]-CA--CB-[OG] |==|  0.25025
USER: genes 3 Torsion [CA]-CB--OG-[HG] |==|  0.97042
USER: genes 4 Torsion [N]-CA--C-[N] |==|  0.48471
USER: genes 5 Torsion [C]-N--CA-[C] |==|  0.77347
USER: genes 6 Torsion [N]-CA--C-[N] |==|  0.07583
USER: genes 7 Torsion [C]-N--CA-[C] |==|  0.60421
USER: genes 8 Torsion [N]-CA--C-[O] |==|  0.01600
USER: genes 9 Torsion [N]-CA--CB-[CG] |==|  0.61064
USER: genes 10 Torsion [CA]-CB--CG-[CD2] |==|  0.93452
USER: genes 11 Torsion [CB]-CA--N-[C] |==|  0.46145
USER: genes 12 Torsion [N]-C--CA-[N] |==|  0.88421
USER: genes 13 Torsion [C]-CA--CB-[CG] |==|  0.85740
USER: genes 14 Torsion [CA]-CB--CG-[CD2] |==|  0.78826
USER: genes 15 Torsion [C]-CA--N-[C] |==|  0.79699
USER: genes 16 Torsion [N]-C--CA-[N] |==|  0.42064
ROOT
ATOM      1  CA  SER E  44      26.278  -6.484  18.282  1.00 44.79 LIG 0.20  C 
ENDROOT
BRANCH 1 2
ATOM      2  CB  SER E  44      27.262  -7.652  18.265  1.00 46.10 LIG 0.20  C 
BRANCH 2 3
ATOM      3 OG   SER E  44      27.070  -8.437  17.106  1.00 47.85 LIG-0.40  OA
ATOM      4 HG   SER E  44      26.363  -8.201  16.721  1.00 47.85 LIG 0.21  HD
ENDBRANCH 2 3
ENDBRANCH 1 2
BRANCH 1 5
ATOM      5  C   SER E  44      25.006  -6.894  18.989  1.00 42.78 LIG 0.24  C 
ATOM      6  N   PHE E  45      24.338  -7.882  18.413  1.00 43.36 LIG-0.35  N 
ATOM      7 H    PHE E  45      24.582  -8.268  17.683  1.00 43.36 LIG 0.16  HD
ATOM      8 O    SER E  44      24.619  -6.319  20.008  1.00 37.54 LIG-0.27  OA
BRANCH 6 9
ATOM      9  CA  PHE E  45      23.109  -8.403  18.988  1.00 46.68 LIG 0.18  C 
BRANCH 9 10
ATOM     10  C   PHE E  45      23.476  -9.386  20.092  1.00 48.11 LIG 0.24  C 
ATOM     11 O    PHE E  45      22.716 -10.309  20.387  1.00 49.85 LIG-0.27  OA
ATOM     12  N   GLY E  46      24.638  -9.196  20.702  1.00 50.71 LIG-0.35  N 
ATOM     13 H    GLY E  46      25.194  -8.564  20.526  1.00 50.71 LIG 0.16  HD
BRANCH 12 14
ATOM     14  CA  GLY E  46      25.042 -10.108  21.755  1.00 54.23 LIG 0.21  C 
BRANCH 14 15
ATOM     15  C   GLY E  46      25.760  -9.409  22.887  1.00 55.55 LIG 0.21  C 
ATOM     16 O    GLY E  46      25.823  -8.165  22.847  1.00 59.11 LIG-0.29  OA
ENDBRANCH 14 15
ENDBRANCH 12 14
ENDBRANCH 9 10
BRANCH 9 17
ATOM     17  CB  PHE E  45      22.264  -9.100  17.917  1.00 43.03 LIG 0.07  C 
BRANCH 17 18
ATOM     18  CG  PHE E  45      20.785  -8.836  18.043  1.00 41.93 LIG-0.06  A 
ATOM     19  CD2 PHE E  45      20.226  -8.464  19.265  1.00 42.38 LIG 0.01  A 
ATOM     20  CE2 PHE E  45      18.860  -8.192  19.374  1.00 42.73 LIG 0.00  A 
ATOM     21  CZ  PHE E  45      18.040  -8.293  18.254  1.00 42.74 LIG 0.00  A 
ATOM     22  CE1 PHE E  45      18.586  -8.662  17.028  1.00 41.89 LIG 0.00  A 
ATOM     23  CD1 PHE E  45      19.954  -8.932  16.929  1.00 42.01 LIG 0.01  A 
ENDBRANCH 17 18
ENDBRANCH 9 17
ENDBRANCH 6 9
ENDBRANCH 1 5
BRANCH 1 24
ATOM     24  N   SER E  44      26.896  -5.320  18.882  1.00 46.50 LIG-0.34  N 
ATOM     25  C   PHE E  43      26.304  -4.156  18.731  1.00 47.40 LIG 0.24  C 
ATOM     26 O    PHE E  43      25.275  -4.032  18.073  1.00 45.80 LIG-0.27  OA
ATOM     27 H    SER E  44      27.628  -5.460  19.311  1.00 46.50 LIG 0.16  HD
BRANCH 25 28
ATOM     28  CA  PHE E  43      26.975  -2.957  19.363  1.00 47.87 LIG 0.18  C 
BRANCH 28 29
ATOM     29  CB  PHE E  43      28.196  -2.581  18.529  1.00 42.32 LIG 0.07  C 
BRANCH 29 30
ATOM     30  CG  PHE E  43      29.155  -3.719  18.230  1.00 35.12 LIG-0.06  A 
ATOM     31  CD2 PHE E  43      30.052  -4.231  19.176  1.00 32.72 LIG 0.01  A 
ATOM     32  CE2 PHE E  43      30.951  -5.274  18.818  1.00 30.40 LIG 0.00  A 
ATOM     33  CZ  PHE E  43      30.935  -5.795  17.517  1.00 28.92 LIG 0.00  A 
ATOM     34  CE1 PHE E  43      30.041  -5.279  16.587  1.00 29.46 LIG 0.00  A 
ATOM     35  CD1 PHE E  43      29.166  -4.252  16.951  1.00 34.02 LIG 0.01  A 
ENDBRANCH 29 30
ENDBRANCH 28 29
BRANCH 28 36
ATOM     36  N   PHE E  43      27.350  -3.572  20.603  1.00 51.92 LIG-0.35  N 
ATOM     37  C   GLY E  42      26.550  -3.896  21.602  1.00 55.92 LIG 0.25  C 
ATOM     38 O    GLY E  42      25.325  -3.712  21.645  1.00 57.26 LIG-0.27  OA
ATOM     39 H    PHE E  43      28.196  -3.721  20.644  1.00 51.92 LIG 0.16  HD
BRANCH 37 40
ATOM     40  CA  GLY E  42      27.317  -4.547  22.726  1.00 58.33 LIG 0.47  C 
ATOM     41  N   GLY E  42      26.751  -4.359  24.032  1.00 60.94 LIG 0.61  N 
ENDBRANCH 37 40
ENDBRANCH 28 36
ENDBRANCH 25 28
ENDBRANCH 1 24
TORSDOF 15
ENDMDL
MODEL 54
USER: ADFR SOLUTION from run 77
USER: SCORE 11.492098 LL:  -2.951 LR:  -9.992 RR:   0.000 FEB:  -5.517
USER: RMSD 8.466698
USER: SEED 76
USER: STATUS no improvement in best in 22 clusters for 5 generations
USER: GENES 17
USER: genes 0 Translation |==|  0.48784 0.54223 0.47058
USER: genes 1 Rotation |==|  0.84612 0.14689 0.42609 0.50690
USER: genes 2 Torsion [C]-CA--CB-[OG] |==|  0.27925
USER: genes 3 Torsion [CA]-CB--OG-[HG] |==|  0.90171
USER: genes 4 Torsion [N]-CA--C-[N] |==|  0.46459
USER: genes 5 Torsion [C]-N--CA-[C] |==|  0.77130
USER: genes 6 Torsion [N]-CA--C-[N] |==|  0.15556
USER: genes 7 Torsion [C]-N--CA-[C] |==|  0.49406
USER: genes 8 Torsion [N]-CA--C-[O] |==|  0.05985
USER: genes 9 Torsion [N]-CA--CB-[CG] |==|  0.63756
USER: genes 10 Torsion [CA]-CB--CG-[CD2] |==|  0.42686
USER: genes 11 Torsion [CB]-CA--N-[C] |==|  0.25117
USER: genes 12 Torsion [N]-C--CA-[N] |==|  0.89057
USER: genes 13 Torsion [C]-CA--CB-[CG] |==|  0.83359
USER: genes 14 Torsion [CA]-CB--CG-[CD2] |==|  0.28021
USER: genes 15 Torsion [C]-CA--N-[C] |==|  0.82194
USER: genes 16 Torsion [N]-C--CA-[N] |==|  0.91211
ROOT
ATOM      1  CA  SER E  44      26.171  -6.684  18.154  1.00 44.79 LIG 0.20  C 
ENDROOT
BRANCH 1 2
ATOM      2  CB  SER E  44      27.258  -7.757  18.149  1.00 46.10 LIG 0.20  C 
BRANCH 2 3
ATOM      3 OG   SER E  44      27.245  -8.463  16.926  1.00 47.85 LIG-0.40  OA
ATOM      4 HG   SER E  44      26.454  -8.540  16.654  1.00 47.85 LIG 0.21  HD
ENDBRANCH 2 3
ENDBRANCH 1 2
BRANCH 1 5
ATOM      5  C   SER E  44      24.972  -7.172  18.935  1.00 42.78 LIG 0.24  C 
ATOM      6  N   PHE E  45      24.288  -8.149  18.359  1.00 43.36 LIG-0.35  N 
ATOM      7 H    PHE E  45      24.484  -8.488  17.593  1.00 43.36 LIG 0.16  HD
ATOM      8 O    SER E  44      24.652  -6.665  20.011  1.00 37.54 LIG-0.27  OA
BRANCH 6 9
ATOM      9  CA  PHE E  45      23.124  -8.739  18.999  1.00 46.68 LIG 0.18  C 
BRANCH 9 10
ATOM     10  C   PHE E  45      23.605  -9.780  20.001  1.00 48.11 LIG 0.24  C 
ATOM     11 O    PHE E  45      23.211 -10.946  19.932  1.00 49.85 LIG-0.27  OA
ATOM     12  N   GLY E  46      24.457  -9.370  20.931  1.00 50.71 LIG-0.35  N 
ATOM     13 H    GLY E  46      24.752  -8.566  21.013  1.00 50.71 LIG 0.16  HD
BRANCH 12 14
ATOM     14  CA  GLY E  46      24.953 -10.321  21.906  1.00 54.23 LIG 0.21  C 
BRANCH 14 15
ATOM     15  C   GLY E  46      25.952  -9.709  22.862  1.00 55.55 LIG 0.21  C 
ATOM     16 O    GLY E  46      25.931  -8.471  23.000  1.00 59.11 LIG-0.29  OA
ENDBRANCH 14 15
ENDBRANCH 12 14
ENDBRANCH 9 10
BRANCH 9 17
ATOM     17  CB  PHE E  45      22.206  -9.389  17.959  1.00 43.03 LIG 0.07  C 
BRANCH 17 18
ATOM     18  CG  PHE E  45      20.759  -8.986  18.089  1.00 41.93 LIG-0.06  A 
ATOM     19  CD2 PHE E  45      19.908  -9.010  16.985  1.00 42.38 LIG 0.01  A 
ATOM     20  CE2 PHE E  45      18.560  -8.664  17.112  1.00 42.73 LIG 0.00  A 
ATOM     21  CZ  PHE E  45      18.054  -8.289  18.353  1.00 42.74 LIG 0.00  A 
ATOM     22  CE1 PHE E  45      18.894  -8.262  19.463  1.00 41.89 LIG 0.00  A 
ATOM     23  CD1 PHE E  45      20.240  -8.610  19.325  1.00 42.01 LIG 0.01  A 
ENDBRANCH 17 18
ENDBRANCH 9 17
ENDBRANCH 6 9
ENDBRANCH 1 5
BRANCH 1 24
ATOM     24  N   SER E  44      26.701  -5.440  18.671  1.00 46.50 LIG-0.34  N 
ATOM     25  C   PHE E  43      27.228  -4.588  17.818  1.00 47.40 LIG 0.24  C 
ATOM     26 O    PHE E  43      27.309  -4.838  16.619  1.00 45.80 LIG-0.27  OA
ATOM     27 H    SER E  44      26.640  -5.327  19.521  1.00 46.50 LIG 0.16  HD
BRANCH 25 28
ATOM     28  CA  PHE E  43      27.780  -3.300  18.386  1.00 47.87 LIG 0.18  C 
BRANCH 28 29
ATOM     29  CB  PHE E  43      29.128  -3.589  19.040  1.00 42.32 LIG 0.07  C 
BRANCH 29 30
ATOM     30  CG  PHE E  43      29.097  -4.595  20.175  1.00 35.12 LIG-0.06  A 
ATOM     31  CD2 PHE E  43      29.482  -5.933  20.022  1.00 32.72 LIG 0.01  A 
ATOM     32  CE2 PHE E  43      29.393  -6.833  21.120  1.00 30.40 LIG 0.00  A 
ATOM     33  CZ  PHE E  43      28.924  -6.380  22.360  1.00 28.92 LIG 0.00  A 
ATOM     34  CE1 PHE E  43      28.544  -5.050  22.501  1.00 29.46 LIG 0.00  A 
ATOM     35  CD1 PHE E  43      28.634  -4.178  21.413  1.00 34.02 LIG 0.01  A 
ENDBRANCH 29 30
ENDBRANCH 28 29
BRANCH 28 36
ATOM     36  N   PHE E  43      26.758  -3.062  19.364  1.00 51.92 LIG-0.35  N 
ATOM     37  C   GLY E  42      25.480  -2.820  19.134  1.00 55.92 LIG 0.25  C 
ATOM     38 O    GLY E  42      24.941  -2.746  18.021  1.00 57.26 LIG-0.27  OA
ATOM     39 H    PHE E  43      27.069  -3.091  20.166  1.00 51.92 LIG 0.16  HD
BRANCH 37 40
ATOM     40  CA  GLY E  42      24.718  -2.646  20.423  1.00 58.33 LIG 0.47  C 
ATOM     41  N   GLY E  42      25.217  -3.414  21.529  1.00 60.94 LIG 0.61  N 
ENDBRANCH 37 40
ENDBRANCH 28 36
ENDBRANCH 25 28
ENDBRANCH 1 24
TORSDOF 15
ENDMDL
MODEL 55
USER: ADFR SOLUTION from run 92
USER: SCORE 11.422476 LL:  -2.756 LR:  -9.983 RR:   0.000 FEB:  -5.509
USER: RMSD 2.483530
USER: SEED 91
USER: STATUS no improvement in best in 21 clusters for 5 generations
USER: GENES 17
USER: genes 0 Translation |==|  0.51034 0.50528 0.50131
USER: genes 1 Rotation |==|  0.61565 0.54453 0.58061 0.97764
USER: genes 2 Torsion [C]-CA--CB-[OG] |==|  0.74178
USER: genes 3 Torsion [CA]-CB--OG-[HG] |==|  0.90410
USER: genes 4 Torsion [N]-CA--C-[N] |==|  0.46591
USER: genes 5 Torsion [C]-N--CA-[C] |==|  0.57884
USER: genes 6 Torsion [N]-CA--C-[N] |==|  0.34689
USER: genes 7 Torsion [C]-N--CA-[C] |==|  0.23997
USER: genes 8 Torsion [N]-CA--C-[O] |==|  0.05737
USER: genes 9 Torsion [N]-CA--CB-[CG] |==|  0.08862
USER: genes 10 Torsion [CA]-CB--CG-[CD2] |==|  0.26273
USER: genes 11 Torsion [CB]-CA--N-[C] |==|  0.47805
USER: genes 12 Torsion [N]-C--CA-[N] |==|  0.20185
USER: genes 13 Torsion [C]-CA--CB-[CG] |==|  0.42844
USER: genes 14 Torsion [CA]-CB--CG-[CD2] |==|  0.50617
USER: genes 15 Torsion [C]-CA--N-[C] |==|  0.76111
USER: genes 16 Torsion [N]-C--CA-[N] |==|  0.56064
ROOT
ATOM      1  CA  SER E  44      26.694  -7.432  18.546  1.00 44.79 LIG 0.20  C 
ENDROOT
BRANCH 1 2
ATOM      2  CB  SER E  44      27.810  -7.785  17.563  1.00 46.10 LIG 0.20  C 
BRANCH 2 3
ATOM      3 OG   SER E  44      27.278  -7.983  16.269  1.00 47.85 LIG-0.40  OA
ATOM      4 HG   SER E  44      26.516  -8.331  16.329  1.00 47.85 LIG 0.21  HD
ENDBRANCH 2 3
ENDBRANCH 1 2
BRANCH 1 5
ATOM      5  C   SER E  44      26.553  -5.930  18.643  1.00 42.78 LIG 0.24  C 
ATOM      6  N   PHE E  45      27.562  -5.309  19.236  1.00 43.36 LIG-0.35  N 
ATOM      7 H    PHE E  45      28.250  -5.710  19.563  1.00 43.36 LIG 0.16  HD
ATOM      8 O    SER E  44      25.553  -5.347  18.222  1.00 37.54 LIG-0.27  OA
BRANCH 6 9
ATOM      9  CA  PHE E  45      27.582  -3.863  19.383  1.00 46.68 LIG 0.18  C 
BRANCH 9 10
ATOM     10  C   PHE E  45      29.033  -3.405  19.415  1.00 48.11 LIG 0.24  C 
ATOM     11 O    PHE E  45      29.823  -3.880  20.232  1.00 49.85 LIG-0.27  OA
ATOM     12  N   GLY E  46      29.391  -2.484  18.530  1.00 50.71 LIG-0.35  N 
ATOM     13 H    GLY E  46      28.870  -2.127  17.946  1.00 50.71 LIG 0.16  HD
BRANCH 12 14
ATOM     14  CA  GLY E  46      30.764  -2.017  18.510  1.00 54.23 LIG 0.21  C 
BRANCH 14 15
ATOM     15  C   GLY E  46      31.663  -2.886  17.660  1.00 55.55 LIG 0.21  C 
ATOM     16 O    GLY E  46      31.122  -3.604  16.799  1.00 59.11 LIG-0.29  OA
ENDBRANCH 14 15
ENDBRANCH 12 14
ENDBRANCH 9 10
BRANCH 9 17
ATOM     17  CB  PHE E  45      26.863  -3.440  20.668  1.00 43.03 LIG 0.07  C 
BRANCH 17 18
ATOM     18  CG  PHE E  45      26.982  -4.441  21.789  1.00 41.93 LIG-0.06  A 
ATOM     19  CD2 PHE E  45      27.980  -4.318  22.755  1.00 42.38 LIG 0.01  A 
ATOM     20  CE2 PHE E  45      28.073  -5.230  23.810  1.00 42.73 LIG 0.00  A 
ATOM     21  CZ  PHE E  45      27.161  -6.278  23.903  1.00 42.74 LIG 0.00  A 
ATOM     22  CE1 PHE E  45      26.160  -6.411  22.946  1.00 41.89 LIG 0.00  A 
ATOM     23  CD1 PHE E  45      26.076  -5.494  21.895  1.00 42.01 LIG 0.01  A 
ENDBRANCH 17 18
ENDBRANCH 9 17
ENDBRANCH 6 9
ENDBRANCH 1 5
BRANCH 1 24
ATOM     24  N   SER E  44      25.461  -8.081  18.154  1.00 46.50 LIG-0.34  N 
ATOM     25  C   PHE E  43      24.437  -8.014  18.977  1.00 47.40 LIG 0.24  C 
ATOM     26 O    PHE E  43      24.516  -7.452  20.066  1.00 45.80 LIG-0.27  OA
ATOM     27 H    SER E  44      25.469  -8.480  17.393  1.00 46.50 LIG 0.16  HD
BRANCH 25 28
ATOM     28  CA  PHE E  43      23.163  -8.706  18.546  1.00 47.87 LIG 0.18  C 
BRANCH 28 29
ATOM     29  CB  PHE E  43      22.047  -8.330  19.515  1.00 42.32 LIG 0.07  C 
BRANCH 29 30
ATOM     30  CG  PHE E  43      20.641  -8.403  18.948  1.00 35.12 LIG-0.06  A 
ATOM     31  CD2 PHE E  43      19.501  -8.049  19.681  1.00 32.72 LIG 0.01  A 
ATOM     32  CE2 PHE E  43      18.209  -8.177  19.100  1.00 30.40 LIG 0.00  A 
ATOM     33  CZ  PHE E  43      18.075  -8.653  17.789  1.00 28.92 LIG 0.00  A 
ATOM     34  CE1 PHE E  43      19.213  -9.002  17.071  1.00 29.46 LIG 0.00  A 
ATOM     35  CD1 PHE E  43      20.476  -8.874  17.655  1.00 34.02 LIG 0.01  A 
ENDBRANCH 29 30
ENDBRANCH 28 29
BRANCH 28 36
ATOM     36  N   PHE E  43      23.599 -10.059  18.739  1.00 51.92 LIG-0.35  N 
ATOM     37  C   GLY E  42      24.258 -10.812  17.877  1.00 55.92 LIG 0.25  C 
ATOM     38 O    GLY E  42      24.605 -10.479  16.736  1.00 57.26 LIG-0.27  OA
ATOM     39 H    PHE E  43      23.381 -10.358  19.516  1.00 51.92 LIG 0.16  HD
BRANCH 37 40
ATOM     40  CA  GLY E  42      24.558 -12.171  18.459  1.00 58.33 LIG 0.47  C 
ATOM     41  N   GLY E  42      25.651 -12.865  17.839  1.00 60.94 LIG 0.61  N 
ENDBRANCH 37 40
ENDBRANCH 28 36
ENDBRANCH 25 28
ENDBRANCH 1 24
TORSDOF 15
ENDMDL
MODEL 56
USER: ADFR SOLUTION from run 185
USER: SCORE 11.973285 LL:  -2.649 LR:  -9.977 RR:   0.000 FEB:  -5.502
USER: RMSD 8.829484
USER: SEED 184
USER: STATUS no improvement in best in 30 clusters for 5 generations
USER: GENES 17
USER: genes 0 Translation |==|  0.48821 0.52784 0.54298
USER: genes 1 Rotation |==|  0.75193 0.49431 0.89692 0.67017
USER: genes 2 Torsion [C]-CA--CB-[OG] |==|  0.75530
USER: genes 3 Torsion [CA]-CB--OG-[HG] |==|  0.62638
USER: genes 4 Torsion [N]-CA--C-[N] |==|  0.98941
USER: genes 5 Torsion [C]-N--CA-[C] |==|  0.75657
USER: genes 6 Torsion [N]-CA--C-[N] |==|  0.45672
USER: genes 7 Torsion [C]-N--CA-[C] |==|  0.43223
USER: genes 8 Torsion [N]-CA--C-[O] |==|  0.09704
USER: genes 9 Torsion [N]-CA--CB-[CG] |==|  0.59976
USER: genes 10 Torsion [CA]-CB--CG-[CD2] |==|  0.01602
USER: genes 11 Torsion [CB]-CA--N-[C] |==|  0.19646
USER: genes 12 Torsion [N]-C--CA-[N] |==|  0.87887
USER: genes 13 Torsion [C]-CA--CB-[CG] |==|  0.31362
USER: genes 14 Torsion [CA]-CB--CG-[CD2] |==|  0.89275
USER: genes 15 Torsion [C]-CA--N-[C] |==|  0.79602
USER: genes 16 Torsion [N]-C--CA-[N] |==|  0.81395
ROOT
ATOM      1  CA  SER E  44      26.180  -6.975  19.077  1.00 44.79 LIG 0.20  C 
ENDROOT
BRANCH 1 2
ATOM      2  CB  SER E  44      26.149  -5.469  19.331  1.00 46.10 LIG 0.20  C 
BRANCH 2 3
ATOM      3 OG   SER E  44      25.573  -4.798  18.230  1.00 47.85 LIG-0.40  OA
ATOM      4 HG   SER E  44      26.040  -4.129  18.033  1.00 47.85 LIG 0.21  HD
ENDBRANCH 2 3
ENDBRANCH 1 2
BRANCH 1 5
ATOM      5  C   SER E  44      24.885  -7.601  19.544  1.00 42.78 LIG 0.24  C 
ATOM      6  N   PHE E  45      24.183  -8.209  18.600  1.00 43.36 LIG-0.35  N 
ATOM      7 H    PHE E  45      24.418  -8.245  17.773  1.00 43.36 LIG 0.16  HD
ATOM      8 O    SER E  44      24.513  -7.515  20.716  1.00 37.54 LIG-0.27  OA
BRANCH 6 9
ATOM      9  CA  PHE E  45      22.928  -8.878  18.900  1.00 46.68 LIG 0.18  C 
BRANCH 9 10
ATOM     10  C   PHE E  45      23.236 -10.310  19.314  1.00 48.11 LIG 0.24  C 
ATOM     11 O    PHE E  45      24.341 -10.806  19.085  1.00 49.85 LIG-0.27  OA
ATOM     12  N   GLY E  46      22.268 -10.979  19.926  1.00 50.71 LIG-0.35  N 
ATOM     13 H    GLY E  46      21.485 -10.670  20.101  1.00 50.71 LIG 0.16  HD
BRANCH 12 14
ATOM     14  CA  GLY E  46      22.509 -12.345  20.349  1.00 54.23 LIG 0.21  C 
BRANCH 14 15
ATOM     15  C   GLY E  46      21.614 -12.767  21.493  1.00 55.55 LIG 0.21  C 
ATOM     16 O    GLY E  46      20.454 -12.314  21.512  1.00 59.11 LIG-0.29  OA
ENDBRANCH 14 15
ENDBRANCH 12 14
ENDBRANCH 9 10
BRANCH 9 17
ATOM     17  CB  PHE E  45      22.003  -8.866  17.678  1.00 43.03 LIG 0.07  C 
BRANCH 17 18
ATOM     18  CG  PHE E  45      20.544  -8.711  18.022  1.00 41.93 LIG-0.06  A 
ATOM     19  CD2 PHE E  45      20.139  -8.474  19.335  1.00 42.38 LIG 0.01  A 
ATOM     20  CE2 PHE E  45      18.788  -8.302  19.648  1.00 42.73 LIG 0.00  A 
ATOM     21  CZ  PHE E  45      17.829  -8.368  18.642  1.00 42.74 LIG 0.00  A 
ATOM     22  CE1 PHE E  45      18.220  -8.603  17.327  1.00 41.89 LIG 0.00  A 
ATOM     23  CD1 PHE E  45      19.573  -8.773  17.025  1.00 42.01 LIG 0.01  A 
ENDBRANCH 17 18
ENDBRANCH 9 17
ENDBRANCH 6 9
ENDBRANCH 1 5
BRANCH 1 24
ATOM     24  N   SER E  44      26.451  -7.239  17.680  1.00 46.50 LIG-0.34  N 
ATOM     25  C   PHE E  43      27.660  -6.990  17.225  1.00 47.40 LIG 0.24  C 
ATOM     26 O    PHE E  43      28.536  -6.513  17.941  1.00 45.80 LIG-0.27  OA
ATOM     27 H    SER E  44      25.795  -7.550  17.219  1.00 46.50 LIG 0.16  HD
BRANCH 25 28
ATOM     28  CA  PHE E  43      27.914  -7.269  15.760  1.00 47.87 LIG 0.18  C 
BRANCH 28 29
ATOM     29  CB  PHE E  43      27.204  -6.205  14.927  1.00 42.32 LIG 0.07  C 
BRANCH 29 30
ATOM     30  CG  PHE E  43      28.115  -5.259  14.167  1.00 35.12 LIG-0.06  A 
ATOM     31  CD2 PHE E  43      29.315  -4.764  14.695  1.00 32.72 LIG 0.01  A 
ATOM     32  CE2 PHE E  43      30.104  -3.850  13.943  1.00 30.40 LIG 0.00  A 
ATOM     33  CZ  PHE E  43      29.683  -3.446  12.669  1.00 28.92 LIG 0.00  A 
ATOM     34  CE1 PHE E  43      28.491  -3.943  12.155  1.00 29.46 LIG 0.00  A 
ATOM     35  CD1 PHE E  43      27.724  -4.838  12.906  1.00 34.02 LIG 0.01  A 
ENDBRANCH 29 30
ENDBRANCH 28 29
BRANCH 28 36
ATOM     36  N   PHE E  43      27.246  -8.535  15.682  1.00 51.92 LIG-0.35  N 
ATOM     37  C   GLY E  42      27.669  -9.687  16.170  1.00 55.92 LIG 0.25  C 
ATOM     38 O    GLY E  42      28.734  -9.875  16.775  1.00 57.26 LIG-0.27  OA
ATOM     39 H    PHE E  43      26.497  -8.477  15.263  1.00 51.92 LIG 0.16  HD
BRANCH 37 40
ATOM     40  CA  GLY E  42      26.674 -10.789  15.906  1.00 58.33 LIG 0.47  C 
ATOM     41  N   GLY E  42      25.427 -10.658  16.604  1.00 60.94 LIG 0.61  N 
ENDBRANCH 37 40
ENDBRANCH 28 36
ENDBRANCH 25 28
ENDBRANCH 1 24
TORSDOF 15
ENDMDL
MODEL 57
USER: ADFR SOLUTION from run 185
USER: SCORE 11.665080 LL:  -2.408 LR:  -9.953 RR:   0.000 FEB:  -5.478
USER: RMSD 8.107997
USER: SEED 184
USER: STATUS no improvement in best in 30 clusters for 5 generations
USER: GENES 17
USER: genes 0 Translation |==|  0.49257 0.60015 0.49018
USER: genes 1 Rotation |==|  0.69156 0.60009 0.90174 0.70468
USER: genes 2 Torsion [C]-CA--CB-[OG] |==|  0.94323
USER: genes 3 Torsion [CA]-CB--OG-[HG] |==|  0.64717
USER: genes 4 Torsion [N]-CA--C-[N] |==|  0.99134
USER: genes 5 Torsion [C]-N--CA-[C] |==|  0.77222
USER: genes 6 Torsion [N]-CA--C-[N] |==|  0.02439
USER: genes 7 Torsion [C]-N--CA-[C] |==|  0.65169
USER: genes 8 Torsion [N]-CA--C-[O] |==|  0.03204
USER: genes 9 Torsion [N]-CA--CB-[CG] |==|  0.58839
USER: genes 10 Torsion [CA]-CB--CG-[CD2] |==|  0.93646
USER: genes 11 Torsion [CB]-CA--N-[C] |==|  0.19660
USER: genes 12 Torsion [N]-C--CA-[N] |==|  0.90643
USER: genes 13 Torsion [C]-CA--CB-[CG] |==|  0.21146
USER: genes 14 Torsion [CA]-CB--CG-[CD2] |==|  0.04253
USER: genes 15 Torsion [C]-CA--N-[C] |==|  0.78142
USER: genes 16 Torsion [N]-C--CA-[N] |==|  0.57023
ROOT
ATOM      1  CA  SER E  44      26.281  -5.511  18.404  1.00 44.79 LIG 0.20  C 
ENDROOT
BRANCH 1 2
ATOM      2  CB  SER E  44      26.094  -4.077  17.911  1.00 46.10 LIG 0.20  C 
BRANCH 2 3
ATOM      3 OG   SER E  44      24.719  -3.776  17.790  1.00 47.85 LIG-0.40  OA
ATOM      4 HG   SER E  44      24.563  -3.482  17.019  1.00 47.85 LIG 0.21  HD
ENDBRANCH 2 3
ENDBRANCH 1 2
BRANCH 1 5
ATOM      5  C   SER E  44      25.015  -5.992  19.076  1.00 42.78 LIG 0.24  C 
ATOM      6  N   PHE E  45      24.457  -7.058  18.523  1.00 43.36 LIG-0.35  N 
ATOM      7 H    PHE E  45      24.764  -7.456  17.825  1.00 43.36 LIG 0.16  HD
ATOM      8 O    SER E  44      24.537  -5.404  20.047  1.00 37.54 LIG-0.27  OA
BRANCH 6 9
ATOM      9  CA  PHE E  45      23.248  -7.651  19.072  1.00 46.68 LIG 0.18  C 
BRANCH 9 10
ATOM     10  C   PHE E  45      23.642  -8.555  20.231  1.00 48.11 LIG 0.24  C 
ATOM     11 O    PHE E  45      22.813  -9.299  20.757  1.00 49.85 LIG-0.27  OA
ATOM     12  N   GLY E  46      24.906  -8.501  20.633  1.00 50.71 LIG-0.35  N 
ATOM     13 H    GLY E  46      25.512  -7.994  20.293  1.00 50.71 LIG 0.16  HD
BRANCH 12 14
ATOM     14  CA  GLY E  46      25.338  -9.347  21.727  1.00 54.23 LIG 0.21  C 
BRANCH 14 15
ATOM     15  C   GLY E  46      25.988  -8.565  22.847  1.00 55.55 LIG 0.21  C 
ATOM     16 O    GLY E  46      25.882  -7.324  22.818  1.00 59.11 LIG-0.29  OA
ENDBRANCH 14 15
ENDBRANCH 12 14
ENDBRANCH 9 10
BRANCH 9 17
ATOM     17  CB  PHE E  45      22.507  -8.456  17.999  1.00 43.03 LIG 0.07  C 
BRANCH 17 18
ATOM     18  CG  PHE E  45      21.009  -8.461  18.170  1.00 41.93 LIG-0.06  A 
ATOM     19  CD2 PHE E  45      20.430  -8.212  19.414  1.00 42.38 LIG 0.01  A 
ATOM     20  CE2 PHE E  45      19.041  -8.188  19.565  1.00 42.73 LIG 0.00  A 
ATOM     21  CZ  PHE E  45      18.219  -8.415  18.465  1.00 42.74 LIG 0.00  A 
ATOM     22  CE1 PHE E  45      18.785  -8.663  17.218  1.00 41.89 LIG 0.00  A 
ATOM     23  CD1 PHE E  45      20.175  -8.685  17.077  1.00 42.01 LIG 0.01  A 
ENDBRANCH 17 18
ENDBRANCH 9 17
ENDBRANCH 6 9
ENDBRANCH 1 5
BRANCH 1 24
ATOM     24  N   SER E  44      26.687  -6.366  17.308  1.00 46.50 LIG-0.34  N 
ATOM     25  C   PHE E  43      27.901  -6.219  16.824  1.00 47.40 LIG 0.24  C 
ATOM     26 O    PHE E  43      28.671  -5.363  17.252  1.00 45.80 LIG-0.27  OA
ATOM     27 H    SER E  44      26.100  -6.930  17.032  1.00 46.50 LIG 0.16  HD
BRANCH 25 28
ATOM     28  CA  PHE E  43      28.295  -7.120  15.675  1.00 47.87 LIG 0.18  C 
BRANCH 28 29
ATOM     29  CB  PHE E  43      27.764  -6.522  14.376  1.00 42.32 LIG 0.07  C 
BRANCH 29 30
ATOM     30  CG  PHE E  43      28.541  -5.332  13.843  1.00 35.12 LIG-0.06  A 
ATOM     31  CD2 PHE E  43      29.825  -4.994  14.291  1.00 32.72 LIG 0.01  A 
ATOM     32  CE2 PHE E  43      30.482  -3.842  13.776  1.00 30.40 LIG 0.00  A 
ATOM     33  CZ  PHE E  43      29.846  -3.045  12.815  1.00 28.92 LIG 0.00  A 
ATOM     34  CE1 PHE E  43      28.572  -3.389  12.378  1.00 29.46 LIG 0.00  A 
ATOM     35  CD1 PHE E  43      27.937  -4.521  12.895  1.00 34.02 LIG 0.01  A 
ENDBRANCH 29 30
ENDBRANCH 28 29
BRANCH 28 36
ATOM     36  N   PHE E  43      27.548  -8.280  16.069  1.00 51.92 LIG-0.35  N 
ATOM     37  C   GLY E  42      27.877  -9.158  16.997  1.00 55.92 LIG 0.25  C 
ATOM     38 O    GLY E  42      28.905  -9.139  17.688  1.00 57.26 LIG-0.27  OA
ATOM     39 H    PHE E  43      26.819  -8.359  15.618  1.00 51.92 LIG 0.16  HD
BRANCH 37 40
ATOM     40  CA  GLY E  42      26.821 -10.226  17.136  1.00 58.33 LIG 0.47  C 
ATOM     41  N   GLY E  42      26.771 -10.864  18.421  1.00 60.94 LIG 0.61  N 
ENDBRANCH 37 40
ENDBRANCH 28 36
ENDBRANCH 25 28
ENDBRANCH 1 24
TORSDOF 15
ENDMDL
MODEL 58
USER: ADFR SOLUTION from run 170
USER: SCORE 11.427704 LL:  -2.786 LR:  -9.923 RR:   0.000 FEB:  -5.448
USER: RMSD 3.746665
USER: SEED 169
USER: STATUS no improvement in best in 16 clusters for 5 generations
USER: GENES 17
USER: genes 0 Translation |==|  0.46378 0.50542 0.54387
USER: genes 1 Rotation |==|  0.66287 0.48983 0.60729 0.96028
USER: genes 2 Torsion [C]-CA--CB-[OG] |==|  0.82725
USER: genes 3 Torsion [CA]-CB--OG-[HG] |==|  0.79390
USER: genes 4 Torsion [N]-CA--C-[N] |==|  0.40717
USER: genes 5 Torsion [C]-N--CA-[C] |==|  0.84356
USER: genes 6 Torsion [N]-CA--C-[N] |==|  0.89936
USER: genes 7 Torsion [C]-N--CA-[C] |==|  0.41874
USER: genes 8 Torsion [N]-CA--C-[O] |==|  0.98955
USER: genes 9 Torsion [N]-CA--CB-[CG] |==|  0.11321
USER: genes 10 Torsion [CA]-CB--CG-[CD2] |==|  0.24448
USER: genes 11 Torsion [CB]-CA--N-[C] |==|  0.26666
USER: genes 12 Torsion [N]-C--CA-[N] |==|  0.34446
USER: genes 13 Torsion [C]-CA--CB-[CG] |==|  0.33662
USER: genes 14 Torsion [CA]-CB--CG-[CD2] |==|  0.11303
USER: genes 15 Torsion [C]-CA--N-[C] |==|  0.65352
USER: genes 16 Torsion [N]-C--CA-[N] |==|  0.59453
ROOT
ATOM      1  CA  SER E  44      25.612  -7.429  19.088  1.00 44.79 LIG 0.20  C 
ENDROOT
BRANCH 1 2
ATOM      2  CB  SER E  44      26.914  -7.509  18.294  1.00 46.10 LIG 0.20  C 
BRANCH 2 3
ATOM      3 OG   SER E  44      26.814  -6.745  17.111  1.00 47.85 LIG-0.40  OA
ATOM      4 HG   SER E  44      26.328  -7.148  16.556  1.00 47.85 LIG 0.21  HD
ENDBRANCH 2 3
ENDBRANCH 1 2
BRANCH 1 5
ATOM      5  C   SER E  44      25.352  -5.999  19.504  1.00 42.78 LIG 0.24  C 
ATOM      6  N   PHE E  45      25.859  -5.655  20.678  1.00 43.36 LIG-0.35  N 
ATOM      7 H    PHE E  45      26.294  -6.192  21.191  1.00 43.36 LIG 0.16  HD
ATOM      8 O    SER E  44      24.689  -5.233  18.802  1.00 37.54 LIG-0.27  OA
BRANCH 6 9
ATOM      9  CA  PHE E  45      25.712  -4.307  21.202  1.00 46.68 LIG 0.18  C 
BRANCH 9 10
ATOM     10  C   PHE E  45      26.282  -3.332  20.181  1.00 48.11 LIG 0.24  C 
ATOM     11 O    PHE E  45      25.759  -2.231  20.005  1.00 49.85 LIG-0.27  OA
ATOM     12  N   GLY E  46      27.355  -3.728  19.508  1.00 50.71 LIG-0.35  N 
ATOM     13 H    GLY E  46      27.747  -4.488  19.600  1.00 50.71 LIG 0.16  HD
BRANCH 12 14
ATOM     14  CA  GLY E  46      27.945  -2.835  18.529  1.00 54.23 LIG 0.21  C 
BRANCH 14 15
ATOM     15  C   GLY E  46      29.434  -3.046  18.371  1.00 55.55 LIG 0.21  C 
ATOM     16 O    GLY E  46      29.980  -3.877  19.122  1.00 59.11 LIG-0.29  OA
ENDBRANCH 14 15
ENDBRANCH 12 14
ENDBRANCH 9 10
BRANCH 9 17
ATOM     17  CB  PHE E  45      26.446  -4.164  22.539  1.00 43.03 LIG 0.07  C 
BRANCH 17 18
ATOM     18  CG  PHE E  45      27.785  -4.855  22.575  1.00 41.93 LIG-0.06  A 
ATOM     19  CD2 PHE E  45      28.942  -4.198  22.157  1.00 42.38 LIG 0.01  A 
ATOM     20  CE2 PHE E  45      30.187  -4.830  22.218  1.00 42.73 LIG 0.00  A 
ATOM     21  CZ  PHE E  45      30.281  -6.132  22.698  1.00 42.74 LIG 0.00  A 
ATOM     22  CE1 PHE E  45      29.134  -6.799  23.120  1.00 41.89 LIG 0.00  A 
ATOM     23  CD1 PHE E  45      27.894  -6.158  23.056  1.00 42.01 LIG 0.01  A 
ENDBRANCH 17 18
ENDBRANCH 9 17
ENDBRANCH 6 9
ENDBRANCH 1 5
BRANCH 1 24
ATOM     24  N   SER E  44      24.522  -7.990  18.317  1.00 46.50 LIG-0.34  N 
ATOM     25  C   PHE E  43      24.192  -9.245  18.532  1.00 47.40 LIG 0.24  C 
ATOM     26 O    PHE E  43      24.802  -9.947  19.334  1.00 45.80 LIG-0.27  OA
ATOM     27 H    SER E  44      24.147  -7.461  17.753  1.00 46.50 LIG 0.16  HD
BRANCH 25 28
ATOM     28  CA  PHE E  43      23.055  -9.807  17.708  1.00 47.87 LIG 0.18  C 
BRANCH 28 29
ATOM     29  CB  PHE E  43      21.942 -10.258  18.650  1.00 42.32 LIG 0.07  C 
BRANCH 29 30
ATOM     30  CG  PHE E  43      20.597  -9.590  18.432  1.00 35.12 LIG-0.06  A 
ATOM     31  CD2 PHE E  43      20.069  -9.328  17.161  1.00 32.72 LIG 0.01  A 
ATOM     32  CE2 PHE E  43      18.818  -8.664  17.029  1.00 30.40 LIG 0.00  A 
ATOM     33  CZ  PHE E  43      18.108  -8.274  18.173  1.00 28.92 LIG 0.00  A 
ATOM     34  CE1 PHE E  43      18.642  -8.538  19.429  1.00 29.46 LIG 0.00  A 
ATOM     35  CD1 PHE E  43      19.873  -9.189  19.544  1.00 34.02 LIG 0.01  A 
ENDBRANCH 29 30
ENDBRANCH 28 29
BRANCH 28 36
ATOM     36  N   PHE E  43      23.755 -10.923  17.143  1.00 51.92 LIG-0.35  N 
ATOM     37  C   GLY E  42      23.889 -11.210  15.861  1.00 55.92 LIG 0.25  C 
ATOM     38 O    GLY E  42      23.417 -10.562  14.916  1.00 57.26 LIG-0.27  OA
ATOM     39 H    PHE E  43      24.104 -11.424  17.750  1.00 51.92 LIG 0.16  HD
BRANCH 37 40
ATOM     40  CA  GLY E  42      24.716 -12.455  15.664  1.00 58.33 LIG 0.47  C 
ATOM     41  N   GLY E  42      25.540 -12.454  14.488  1.00 60.94 LIG 0.61  N 
ENDBRANCH 37 40
ENDBRANCH 28 36
ENDBRANCH 25 28
ENDBRANCH 1 24
TORSDOF 15
ENDMDL
MODEL 59
USER: ADFR SOLUTION from run 168
USER: SCORE 11.780514 LL:  -2.987 LR:  -9.918 RR:   0.000 FEB:  -5.443
USER: RMSD 3.955958
USER: SEED 167
USER: STATUS no improvement in best in 17 clusters for 5 generations
USER: GENES 17
USER: genes 0 Translation |==|  0.42962 0.48073 0.60013
USER: genes 1 Rotation |==|  0.54029 0.50693 0.60656 0.98680
USER: genes 2 Torsion [C]-CA--CB-[OG] |==|  0.74626
USER: genes 3 Torsion [CA]-CB--OG-[HG] |==|  0.19087
USER: genes 4 Torsion [N]-CA--C-[N] |==|  0.42697
USER: genes 5 Torsion [C]-N--CA-[C] |==|  0.81114
USER: genes 6 Torsion [N]-CA--C-[N] |==|  0.90655
USER: genes 7 Torsion [C]-N--CA-[C] |==|  0.67985
USER: genes 8 Torsion [N]-CA--C-[O] |==|  0.99000
USER: genes 9 Torsion [N]-CA--CB-[CG] |==|  0.06928
USER: genes 10 Torsion [CA]-CB--CG-[CD2] |==|  0.19212
USER: genes 11 Torsion [CB]-CA--N-[C] |==|  0.23676
USER: genes 12 Torsion [N]-C--CA-[N] |==|  0.45556
USER: genes 13 Torsion [C]-CA--CB-[CG] |==|  0.30237
USER: genes 14 Torsion [CA]-CB--CG-[CD2] |==|  0.01388
USER: genes 15 Torsion [C]-CA--N-[C] |==|  0.59619
USER: genes 16 Torsion [N]-C--CA-[N] |==|  0.31200
ROOT
ATOM      1  CA  SER E  44      24.818  -7.929  19.806  1.00 44.79 LIG 0.20  C 
ENDROOT
BRANCH 1 2
ATOM      2  CB  SER E  44      26.145  -8.388  19.204  1.00 46.10 LIG 0.20  C 
BRANCH 2 3
ATOM      3 OG   SER E  44      25.937  -8.928  17.915  1.00 47.85 LIG-0.40  OA
ATOM      4 HG   SER E  44      25.712  -8.315  17.387  1.00 47.85 LIG 0.21  HD
ENDBRANCH 2 3
ENDBRANCH 1 2
BRANCH 1 5
ATOM      5  C   SER E  44      24.576  -6.476  19.465  1.00 42.78 LIG 0.24  C 
ATOM      6  N   PHE E  45      25.174  -5.606  20.265  1.00 43.36 LIG-0.35  N 
ATOM      7 H    PHE E  45      25.657  -5.826  20.942  1.00 43.36 LIG 0.16  HD
ATOM      8 O    SER E  44      23.848  -6.145  18.528  1.00 37.54 LIG-0.27  OA
BRANCH 6 9
ATOM      9  CA  PHE E  45      25.055  -4.173  20.050  1.00 46.68 LIG 0.18  C 
BRANCH 9 10
ATOM     10  C   PHE E  45      25.789  -3.819  18.764  1.00 48.11 LIG 0.24  C 
ATOM     11 O    PHE E  45      25.382  -2.910  18.039  1.00 49.85 LIG-0.27  OA
ATOM     12  N   GLY E  46      26.871  -4.530  18.475  1.00 50.71 LIG-0.35  N 
ATOM     13 H    GLY E  46      27.185  -5.172  18.953  1.00 50.71 LIG 0.16  HD
BRANCH 12 14
ATOM     14  CA  GLY E  46      27.614  -4.230  17.266  1.00 54.23 LIG 0.21  C 
BRANCH 14 15
ATOM     15  C   GLY E  46      27.587  -5.366  16.269  1.00 55.55 LIG 0.21  C 
ATOM     16 O    GLY E  46      27.015  -6.418  16.611  1.00 59.11 LIG-0.29  OA
ENDBRANCH 14 15
ENDBRANCH 12 14
ENDBRANCH 9 10
BRANCH 9 17
ATOM     17  CB  PHE E  45      25.651  -3.399  21.231  1.00 43.03 LIG 0.07  C 
BRANCH 17 18
ATOM     18  CG  PHE E  45      26.698  -4.167  21.995  1.00 41.93 LIG-0.06  A 
ATOM     19  CD2 PHE E  45      27.938  -4.450  21.424  1.00 42.38 LIG 0.01  A 
ATOM     20  CE2 PHE E  45      28.919  -5.137  22.145  1.00 42.73 LIG 0.00  A 
ATOM     21  CZ  PHE E  45      28.661  -5.549  23.449  1.00 42.74 LIG 0.00  A 
ATOM     22  CE1 PHE E  45      27.427  -5.272  24.031  1.00 41.89 LIG 0.00  A 
ATOM     23  CD1 PHE E  45      26.454  -4.583  23.302  1.00 42.01 LIG 0.01  A 
ENDBRANCH 17 18
ENDBRANCH 9 17
ENDBRANCH 6 9
ENDBRANCH 1 5
BRANCH 1 24
ATOM     24  N   SER E  44      23.743  -8.790  19.359  1.00 46.50 LIG-0.34  N 
ATOM     25  C   PHE E  43      23.520  -9.901  20.026  1.00 47.40 LIG 0.24  C 
ATOM     26 O    PHE E  43      24.215 -10.234  20.982  1.00 45.80 LIG-0.27  OA
ATOM     27 H    SER E  44      23.305  -8.521  18.670  1.00 46.50 LIG 0.16  HD
BRANCH 25 28
ATOM     28  CA  PHE E  43      22.396 -10.785  19.533  1.00 47.87 LIG 0.18  C 
BRANCH 28 29
ATOM     29  CB  PHE E  43      21.070 -10.216  20.029  1.00 42.32 LIG 0.07  C 
BRANCH 29 30
ATOM     30  CG  PHE E  43      20.195  -9.584  18.963  1.00 35.12 LIG-0.06  A 
ATOM     31  CD2 PHE E  43      20.513  -9.608  17.598  1.00 32.72 LIG 0.01  A 
ATOM     32  CE2 PHE E  43      19.666  -8.962  16.655  1.00 30.40 LIG 0.00  A 
ATOM     33  CZ  PHE E  43      18.508  -8.305  17.089  1.00 28.92 LIG 0.00  A 
ATOM     34  CE1 PHE E  43      18.201  -8.287  18.445  1.00 29.46 LIG 0.00  A 
ATOM     35  CD1 PHE E  43      19.044  -8.923  19.362  1.00 34.02 LIG 0.01  A 
ENDBRANCH 29 30
ENDBRANCH 28 29
BRANCH 28 36
ATOM     36  N   PHE E  43      22.759 -11.978  20.242  1.00 51.92 LIG-0.35  N 
ATOM     37  C   GLY E  42      22.616 -13.223  19.826  1.00 55.92 LIG 0.25  C 
ATOM     38 O    GLY E  42      22.129 -13.578  18.744  1.00 57.26 LIG-0.27  OA
ATOM     39 H    PHE E  43      23.099 -11.802  21.012  1.00 51.92 LIG 0.16  HD
BRANCH 37 40
ATOM     40  CA  GLY E  42      23.139 -14.202  20.847  1.00 58.33 LIG 0.47  C 
ATOM     41  N   GLY E  42      22.135 -15.017  21.471  1.00 60.94 LIG 0.61  N 
ENDBRANCH 37 40
ENDBRANCH 28 36
ENDBRANCH 25 28
ENDBRANCH 1 24
TORSDOF 15
ENDMDL
MODEL 60
USER: ADFR SOLUTION from run 147
USER: SCORE 11.727432 LL:  -2.922 LR:  -9.901 RR:   0.000 FEB:  -5.426
USER: RMSD 8.882099
USER: SEED 146
USER: STATUS no improvement in best in 15 clusters for 5 generations
USER: GENES 17
USER: genes 0 Translation |==|  0.49001 0.53370 0.49614
USER: genes 1 Rotation |==|  0.18132 0.86740 0.58490 0.57906
USER: genes 2 Torsion [C]-CA--CB-[OG] |==|  0.21992
USER: genes 3 Torsion [CA]-CB--OG-[HG] |==|  0.02714
USER: genes 4 Torsion [N]-CA--C-[N] |==|  0.52415
USER: genes 5 Torsion [C]-N--CA-[C] |==|  0.61763
USER: genes 6 Torsion [N]-CA--C-[N] |==|  0.45695
USER: genes 7 Torsion [C]-N--CA-[C] |==|  0.72041
USER: genes 8 Torsion [N]-CA--C-[O] |==|  0.99105
USER: genes 9 Torsion [N]-CA--CB-[CG] |==|  0.55189
USER: genes 10 Torsion [CA]-CB--CG-[CD2] |==|  0.08463
USER: genes 11 Torsion [CB]-CA--N-[C] |==|  0.19084
USER: genes 12 Torsion [N]-C--CA-[N] |==|  0.86667
USER: genes 13 Torsion [C]-CA--CB-[CG] |==|  0.75944
USER: genes 14 Torsion [CA]-CB--CG-[CD2] |==|  0.76173
USER: genes 15 Torsion [C]-CA--N-[C] |==|  0.82915
USER: genes 16 Torsion [N]-C--CA-[N] |==|  0.83671
ROOT
ATOM      1  CA  SER E  44      26.222  -6.856  18.480  1.00 44.79 LIG 0.20  C 
ENDROOT
BRANCH 1 2
ATOM      2  CB  SER E  44      27.123  -8.085  18.371  1.00 46.10 LIG 0.20  C 
BRANCH 2 3
ATOM      3 OG   SER E  44      26.898  -8.751  17.145  1.00 47.85 LIG-0.40  OA
ATOM      4 HG   SER E  44      26.412  -8.275  16.653  1.00 47.85 LIG 0.21  HD
ENDBRANCH 2 3
ENDBRANCH 1 2
BRANCH 1 5
ATOM      5  C   SER E  44      24.826  -7.278  18.881  1.00 42.78 LIG 0.24  C 
ATOM      6  N   PHE E  45      24.322  -8.284  18.183  1.00 43.36 LIG-0.35  N 
ATOM      7 H    PHE E  45      24.732  -8.675  17.536  1.00 43.36 LIG 0.16  HD
ATOM      8 O    SER E  44      24.207  -6.696  19.773  1.00 37.54 LIG-0.27  OA
BRANCH 6 9
ATOM      9  CA  PHE E  45      23.000  -8.817  18.468  1.00 46.68 LIG 0.18  C 
BRANCH 9 10
ATOM     10  C   PHE E  45      23.071 -10.336  18.403  1.00 48.11 LIG 0.24  C 
ATOM     11 O    PHE E  45      24.034 -10.897  17.878  1.00 49.85 LIG-0.27  OA
ATOM     12  N   GLY E  46      22.060 -11.008  18.938  1.00 50.71 LIG-0.35  N 
ATOM     13 H    GLY E  46      21.371 -10.653  19.310  1.00 50.71 LIG 0.16  HD
BRANCH 12 14
ATOM     14  CA  GLY E  46      22.080 -12.457  18.912  1.00 54.23 LIG 0.21  C 
BRANCH 14 15
ATOM     15  C   GLY E  46      21.214 -13.033  17.814  1.00 55.55 LIG 0.21  C 
ATOM     16 O    GLY E  46      20.556 -12.233  17.122  1.00 59.11 LIG-0.29  OA
ENDBRANCH 14 15
ENDBRANCH 12 14
ENDBRANCH 9 10
BRANCH 9 17
ATOM     17  CB  PHE E  45      21.976  -8.291  17.456  1.00 43.03 LIG 0.07  C 
BRANCH 17 18
ATOM     18  CG  PHE E  45      20.546  -8.418  17.916  1.00 41.93 LIG-0.06  A 
ATOM     19  CD2 PHE E  45      20.222  -8.353  19.271  1.00 42.38 LIG 0.01  A 
ATOM     20  CE2 PHE E  45      18.893  -8.442  19.695  1.00 42.73 LIG 0.00  A 
ATOM     21  CZ  PHE E  45      17.876  -8.599  18.759  1.00 42.74 LIG 0.00  A 
ATOM     22  CE1 PHE E  45      18.186  -8.664  17.404  1.00 41.89 LIG 0.00  A 
ATOM     23  CD1 PHE E  45      19.517  -8.574  16.990  1.00 42.01 LIG 0.01  A 
ENDBRANCH 17 18
ENDBRANCH 9 17
ENDBRANCH 6 9
ENDBRANCH 1 5
BRANCH 1 24
ATOM     24  N   SER E  44      26.797  -5.896  19.398  1.00 46.50 LIG-0.34  N 
ATOM     25  C   PHE E  43      27.902  -5.281  19.039  1.00 47.40 LIG 0.24  C 
ATOM     26 O    PHE E  43      28.465  -5.525  17.975  1.00 45.80 LIG-0.27  OA
ATOM     27 H    SER E  44      26.375  -5.782  20.138  1.00 46.50 LIG 0.16  HD
BRANCH 25 28
ATOM     28  CA  PHE E  43      28.485  -4.288  20.020  1.00 47.87 LIG 0.18  C 
BRANCH 28 29
ATOM     29  CB  PHE E  43      29.000  -5.046  21.240  1.00 42.32 LIG 0.07  C 
BRANCH 29 30
ATOM     30  CG  PHE E  43      27.970  -5.311  22.323  1.00 35.12 LIG-0.06  A 
ATOM     31  CD2 PHE E  43      27.671  -4.389  23.335  1.00 32.72 LIG 0.01  A 
ATOM     32  CE2 PHE E  43      26.721  -4.716  24.342  1.00 30.40 LIG 0.00  A 
ATOM     33  CZ  PHE E  43      26.079  -5.962  24.321  1.00 28.92 LIG 0.00  A 
ATOM     34  CE1 PHE E  43      26.385  -6.869  23.313  1.00 29.46 LIG 0.00  A 
ATOM     35  CD1 PHE E  43      27.322  -6.536  22.331  1.00 34.02 LIG 0.01  A 
ENDBRANCH 29 30
ENDBRANCH 28 29
BRANCH 28 36
ATOM     36  N   PHE E  43      27.279  -3.570  20.313  1.00 51.92 LIG-0.35  N 
ATOM     37  C   GLY E  42      26.535  -2.886  19.463  1.00 55.92 LIG 0.25  C 
ATOM     38 O    GLY E  42      26.761  -2.737  18.254  1.00 57.26 LIG-0.27  OA
ATOM     39 H    PHE E  43      27.067  -3.626  21.146  1.00 51.92 LIG 0.16  HD
BRANCH 37 40
ATOM     40  CA  GLY E  42      25.331  -2.290  20.148  1.00 58.33 LIG 0.47  C 
ATOM     41  N   GLY E  42      24.463  -3.243  20.780  1.00 60.94 LIG 0.61  N 
ENDBRANCH 37 40
ENDBRANCH 28 36
ENDBRANCH 25 28
ENDBRANCH 1 24
TORSDOF 15
ENDMDL
MODEL 61
USER: ADFR SOLUTION from run 77
USER: SCORE 11.293332 LL:  -2.627 LR:  -9.896 RR:   0.000 FEB:  -5.422
USER: RMSD 8.791879
USER: SEED 76
USER: STATUS no improvement in best in 22 clusters for 5 generations
USER: GENES 17
USER: genes 0 Translation |==|  0.48539 0.42440 0.42719
USER: genes 1 Rotation |==|  0.75342 0.10257 0.35643 0.58493
USER: genes 2 Torsion [C]-CA--CB-[OG] |==|  0.61327
USER: genes 3 Torsion [CA]-CB--OG-[HG] |==|  0.71742
USER: genes 4 Torsion [N]-CA--C-[N] |==|  0.41214
USER: genes 5 Torsion [C]-N--CA-[C] |==|  0.62562
USER: genes 6 Torsion [N]-CA--C-[N] |==|  0.40598
USER: genes 7 Torsion [C]-N--CA-[C] |==|  0.53329
USER: genes 8 Torsion [N]-CA--C-[O] |==|  0.19715
USER: genes 9 Torsion [N]-CA--CB-[CG] |==|  0.24814
USER: genes 10 Torsion [CA]-CB--CG-[CD2] |==|  0.32309
USER: genes 11 Torsion [CB]-CA--N-[C] |==|  0.50204
USER: genes 12 Torsion [N]-C--CA-[N] |==|  0.12138
USER: genes 13 Torsion [C]-CA--CB-[CG] |==|  0.19244
USER: genes 14 Torsion [CA]-CB--CG-[CD2] |==|  0.09954
USER: genes 15 Torsion [C]-CA--N-[C] |==|  0.19880
USER: genes 16 Torsion [N]-C--CA-[N] |==|  0.68561
ROOT
ATOM      1  CA  SER E  44      26.114  -9.070  17.601  1.00 44.79 LIG 0.20  C 
ENDROOT
BRANCH 1 2
ATOM      2  CB  SER E  44      26.679 -10.448  17.259  1.00 46.10 LIG 0.20  C 
BRANCH 2 3
ATOM      3 OG   SER E  44      28.003 -10.330  16.782  1.00 47.85 LIG-0.40  OA
ATOM      4 HG   SER E  44      28.006 -10.397  15.945  1.00 47.85 LIG 0.21  HD
ENDBRANCH 2 3
ENDBRANCH 1 2
BRANCH 1 5
ATOM      5  C   SER E  44      25.316  -9.146  18.883  1.00 42.78 LIG 0.24  C 
ATOM      6  N   PHE E  45      24.037  -9.453  18.729  1.00 43.36 LIG-0.35  N 
ATOM      7 H    PHE E  45      23.662  -9.589  17.966  1.00 43.36 LIG 0.16  HD
ATOM      8 O    SER E  44      25.828  -8.907  19.977  1.00 37.54 LIG-0.27  OA
BRANCH 6 9
ATOM      9  CA  PHE E  45      23.147  -9.587  19.870  1.00 46.68 LIG 0.18  C 
BRANCH 9 10
ATOM     10  C   PHE E  45      22.314 -10.847  19.683  1.00 48.11 LIG 0.24  C 
ATOM     11 O    PHE E  45      21.969 -11.210  18.557  1.00 49.85 LIG-0.27  OA
ATOM     12  N   GLY E  46      21.989 -11.520  20.779  1.00 50.71 LIG-0.35  N 
ATOM     13 H    GLY E  46      22.208 -11.298  21.580  1.00 50.71 LIG 0.16  HD
BRANCH 12 14
ATOM     14  CA  GLY E  46      21.204 -12.733  20.659  1.00 54.23 LIG 0.21  C 
BRANCH 14 15
ATOM     15  C   GLY E  46      20.676 -13.220  21.989  1.00 55.55 LIG 0.21  C 
ATOM     16 O    GLY E  46      19.770 -12.555  22.527  1.00 59.11 LIG-0.29  OA
ENDBRANCH 14 15
ENDBRANCH 12 14
ENDBRANCH 9 10
BRANCH 9 17
ATOM     17  CB  PHE E  45      22.234  -8.361  19.991  1.00 43.03 LIG 0.07  C 
BRANCH 17 18
ATOM     18  CG  PHE E  45      20.943  -8.487  19.223  1.00 41.93 LIG-0.06  A 
ATOM     19  CD2 PHE E  45      19.716  -8.498  19.885  1.00 42.38 LIG 0.01  A 
ATOM     20  CE2 PHE E  45      18.518  -8.585  19.170  1.00 42.73 LIG 0.00  A 
ATOM     21  CZ  PHE E  45      18.543  -8.664  17.781  1.00 42.74 LIG 0.00  A 
ATOM     22  CE1 PHE E  45      19.761  -8.653  17.109  1.00 41.89 LIG 0.00  A 
ATOM     23  CD1 PHE E  45      20.953  -8.565  17.832  1.00 42.01 LIG 0.01  A 
ENDBRANCH 17 18
ENDBRANCH 9 17
ENDBRANCH 6 9
ENDBRANCH 1 5
BRANCH 1 24
ATOM     24  N   SER E  44      27.184  -8.097  17.670  1.00 46.50 LIG-0.34  N 
ATOM     25  C   PHE E  43      26.873  -6.854  17.970  1.00 47.40 LIG 0.24  C 
ATOM     26 O    PHE E  43      25.711  -6.503  18.154  1.00 45.80 LIG-0.27  OA
ATOM     27 H    SER E  44      27.975  -8.392  17.508  1.00 46.50 LIG 0.16  HD
BRANCH 25 28
ATOM     28  CA  PHE E  43      28.009  -5.857  18.028  1.00 47.87 LIG 0.18  C 
BRANCH 28 29
ATOM     29  CB  PHE E  43      27.435  -4.450  17.885  1.00 42.32 LIG 0.07  C 
BRANCH 29 30
ATOM     30  CG  PHE E  43      26.612  -3.961  19.062  1.00 35.12 LIG-0.06  A 
ATOM     31  CD2 PHE E  43      26.914  -4.279  20.392  1.00 32.72 LIG 0.01  A 
ATOM     32  CE2 PHE E  43      26.077  -3.818  21.446  1.00 30.40 LIG 0.00  A 
ATOM     33  CZ  PHE E  43      24.949  -3.039  21.154  1.00 28.92 LIG 0.00  A 
ATOM     34  CE1 PHE E  43      24.658  -2.730  19.830  1.00 29.46 LIG 0.00  A 
ATOM     35  CD1 PHE E  43      25.487  -3.192  18.805  1.00 34.02 LIG 0.01  A 
ENDBRANCH 29 30
ENDBRANCH 28 29
BRANCH 28 36
ATOM     36  N   PHE E  43      28.697  -6.272  16.841  1.00 51.92 LIG-0.35  N 
ATOM     37  C   GLY E  42      28.307  -6.090  15.593  1.00 55.92 LIG 0.25  C 
ATOM     38 O    GLY E  42      27.261  -5.534  15.229  1.00 57.26 LIG-0.27  OA
ATOM     39 H    PHE E  43      29.434  -6.677  17.023  1.00 51.92 LIG 0.16  HD
BRANCH 37 40
ATOM     40  CA  GLY E  42      29.315  -6.649  14.620  1.00 58.33 LIG 0.47  C 
ATOM     41  N   GLY E  42      29.987  -5.668  13.816  1.00 60.94 LIG 0.61  N 
ENDBRANCH 37 40
ENDBRANCH 28 36
ENDBRANCH 25 28
ENDBRANCH 1 24
TORSDOF 15
ENDMDL
MODEL 62
USER: ADFR SOLUTION from run 114
USER: SCORE 11.246552 LL:  -2.716 LR:  -9.891 RR:   0.000 FEB:  -5.416
USER: RMSD 8.651088
USER: SEED 113
USER: STATUS no improvement in best in 15 clusters for 5 generations
USER: GENES 17
USER: genes 0 Translation |==|  0.46029 0.62270 0.57856
USER: genes 1 Rotation |==|  0.54179 0.62869 0.97961 0.54088
USER: genes 2 Torsion [C]-CA--CB-[OG] |==|  0.66662
USER: genes 3 Torsion [CA]-CB--OG-[HG] |==|  0.46737
USER: genes 4 Torsion [N]-CA--C-[N] |==|  0.73888
USER: genes 5 Torsion [C]-N--CA-[C] |==|  0.82550
USER: genes 6 Torsion [N]-CA--C-[N] |==|  0.87809
USER: genes 7 Torsion [C]-N--CA-[C] |==|  0.67771
USER: genes 8 Torsion [N]-CA--C-[O] |==|  0.02819
USER: genes 9 Torsion [N]-CA--CB-[CG] |==|  0.67530
USER: genes 10 Torsion [CA]-CB--CG-[CD2] |==|  0.50607
USER: genes 11 Torsion [CB]-CA--N-[C] |==|  0.20516
USER: genes 12 Torsion [N]-C--CA-[N] |==|  0.19319
USER: genes 13 Torsion [C]-CA--CB-[CG] |==|  0.23142
USER: genes 14 Torsion [CA]-CB--CG-[CD2] |==|  0.44175
USER: genes 15 Torsion [C]-CA--N-[C] |==|  0.77041
USER: genes 16 Torsion [N]-C--CA-[N] |==|  0.50549
ROOT
ATOM      1  CA  SER E  44      25.531  -5.054  19.531  1.00 44.79 LIG 0.20  C 
ENDROOT
BRANCH 1 2
ATOM      2  CB  SER E  44      24.579  -4.162  18.736  1.00 46.10 LIG 0.20  C 
BRANCH 2 3
ATOM      3 OG   SER E  44      25.173  -3.779  17.513  1.00 47.85 LIG-0.40  OA
ATOM      4 HG   SER E  44      24.593  -3.429  17.016  1.00 47.85 LIG 0.21  HD
ENDBRANCH 2 3
ENDBRANCH 1 2
BRANCH 1 5
ATOM      5  C   SER E  44      24.889  -6.402  19.773  1.00 42.78 LIG 0.24  C 
ATOM      6  N   PHE E  45      24.025  -6.786  18.845  1.00 43.36 LIG-0.35  N 
ATOM      7 H    PHE E  45      23.818  -6.316  18.155  1.00 43.36 LIG 0.16  HD
ATOM      8 O    SER E  44      25.140  -7.065  20.780  1.00 37.54 LIG-0.27  OA
BRANCH 6 9
ATOM      9  CA  PHE E  45      23.345  -8.068  18.927  1.00 46.68 LIG 0.18  C 
BRANCH 9 10
ATOM     10  C   PHE E  45      24.392  -9.171  18.857  1.00 48.11 LIG 0.24  C 
ATOM     11 O    PHE E  45      24.335 -10.140  19.615  1.00 49.85 LIG-0.27  OA
ATOM     12  N   GLY E  46      25.349  -9.033  17.948  1.00 50.71 LIG-0.35  N 
ATOM     13 H    GLY E  46      25.424  -8.371  17.404  1.00 50.71 LIG 0.16  HD
BRANCH 12 14
ATOM     14  CA  GLY E  46      26.368 -10.058  17.832  1.00 54.23 LIG 0.21  C 
BRANCH 14 15
ATOM     15  C   GLY E  46      27.750  -9.546  18.169  1.00 55.55 LIG 0.21  C 
ATOM     16 O    GLY E  46      27.835  -8.414  18.681  1.00 59.11 LIG-0.29  OA
ENDBRANCH 14 15
ENDBRANCH 12 14
ENDBRANCH 9 10
BRANCH 9 17
ATOM     17  CB  PHE E  45      22.338  -8.220  17.783  1.00 43.03 LIG 0.07  C 
BRANCH 17 18
ATOM     18  CG  PHE E  45      20.908  -8.337  18.244  1.00 41.93 LIG-0.06  A 
ATOM     19  CD2 PHE E  45      19.874  -8.527  17.327  1.00 42.38 LIG 0.01  A 
ATOM     20  CE2 PHE E  45      18.551  -8.664  17.758  1.00 42.73 LIG 0.00  A 
ATOM     21  CZ  PHE E  45      18.255  -8.611  19.116  1.00 42.74 LIG 0.00  A 
ATOM     22  CE1 PHE E  45      19.278  -8.424  20.041  1.00 41.89 LIG 0.00  A 
ATOM     23  CD1 PHE E  45      20.597  -8.288  19.601  1.00 42.01 LIG 0.01  A 
ENDBRANCH 17 18
ENDBRANCH 9 17
ENDBRANCH 6 9
ENDBRANCH 1 5
BRANCH 1 24
ATOM     24  N   SER E  44      26.802  -5.160  18.847  1.00 46.50 LIG-0.34  N 
ATOM     25  C   PHE E  43      27.610  -4.122  18.874  1.00 47.40 LIG 0.24  C 
ATOM     26 O    PHE E  43      27.297  -3.072  19.428  1.00 45.80 LIG-0.27  OA
ATOM     27 H    SER E  44      26.960  -5.909  18.456  1.00 46.50 LIG 0.16  HD
BRANCH 25 28
ATOM     28  CA  PHE E  43      28.928  -4.258  18.146  1.00 47.87 LIG 0.18  C 
BRANCH 28 29
ATOM     29  CB  PHE E  43      29.769  -3.014  18.416  1.00 42.32 LIG 0.07  C 
BRANCH 29 30
ATOM     30  CG  PHE E  43      30.552  -3.027  19.716  1.00 35.12 LIG-0.06  A 
ATOM     31  CD2 PHE E  43      31.672  -2.217  19.942  1.00 32.72 LIG 0.01  A 
ATOM     32  CE2 PHE E  43      32.383  -2.308  21.171  1.00 30.40 LIG 0.00  A 
ATOM     33  CZ  PHE E  43      31.960  -3.205  22.160  1.00 28.92 LIG 0.00  A 
ATOM     34  CE1 PHE E  43      30.847  -4.005  21.925  1.00 29.46 LIG 0.00  A 
ATOM     35  CD1 PHE E  43      30.160  -3.908  20.712  1.00 34.02 LIG 0.01  A 
ENDBRANCH 29 30
ENDBRANCH 28 29
BRANCH 28 36
ATOM     36  N   PHE E  43      28.414  -4.271  16.808  1.00 51.92 LIG-0.35  N 
ATOM     37  C   GLY E  42      27.920  -5.307  16.156  1.00 55.92 LIG 0.25  C 
ATOM     38 O    GLY E  42      27.825  -6.463  16.591  1.00 57.26 LIG-0.27  OA
ATOM     39 H    PHE E  43      28.458  -3.493  16.441  1.00 51.92 LIG 0.16  HD
BRANCH 37 40
ATOM     40  CA  GLY E  42      27.458  -4.914  14.775  1.00 58.33 LIG 0.47  C 
ATOM     41  N   GLY E  42      26.864  -5.975  14.012  1.00 60.94 LIG 0.61  N 
ENDBRANCH 37 40
ENDBRANCH 28 36
ENDBRANCH 25 28
ENDBRANCH 1 24
TORSDOF 15
ENDMDL
MODEL 63
USER: ADFR SOLUTION from run 43
USER: SCORE 11.124457 LL:  -2.561 LR:  -9.876 RR:   0.000 FEB:  -5.402
USER: RMSD 6.507430
USER: SEED 42
USER: STATUS no improvement in best in 11 clusters for 5 generations
USER: GENES 17
USER: genes 0 Translation |==|  0.26311 0.45382 0.41865
USER: genes 1 Rotation |==|  0.26478 0.09376 0.33628 0.55330
USER: genes 2 Torsion [C]-CA--CB-[OG] |==|  0.53200
USER: genes 3 Torsion [CA]-CB--OG-[HG] |==|  0.77267
USER: genes 4 Torsion [N]-CA--C-[N] |==|  0.18609
USER: genes 5 Torsion [C]-N--CA-[C] |==|  0.63892
USER: genes 6 Torsion [N]-CA--C-[N] |==|  0.27928
USER: genes 7 Torsion [C]-N--CA-[C] |==|  0.60745
USER: genes 8 Torsion [N]-CA--C-[O] |==|  0.94572
USER: genes 9 Torsion [N]-CA--CB-[CG] |==|  0.60916
USER: genes 10 Torsion [CA]-CB--CG-[CD2] |==|  0.92047
USER: genes 11 Torsion [CB]-CA--N-[C] |==|  0.81015
USER: genes 12 Torsion [N]-C--CA-[N] |==|  0.52657
USER: genes 13 Torsion [C]-CA--CB-[CG] |==|  0.25115
USER: genes 14 Torsion [CA]-CB--CG-[CD2] |==|  0.50267
USER: genes 15 Torsion [C]-CA--N-[C] |==|  0.74561
USER: genes 16 Torsion [N]-C--CA-[N] |==|  0.68104
ROOT
ATOM      1  CA  SER E  44      20.946  -8.474  17.492  1.00 44.79 LIG 0.20  C 
ENDROOT
BRANCH 1 2
ATOM      2  CB  SER E  44      19.465  -8.415  17.859  1.00 46.10 LIG 0.20  C 
BRANCH 2 3
ATOM      3 OG   SER E  44      18.683  -9.005  16.841  1.00 47.85 LIG-0.40  OA
ATOM      4 HG   SER E  44      18.561  -8.448  16.224  1.00 47.85 LIG 0.21  HD
ENDBRANCH 2 3
ENDBRANCH 1 2
BRANCH 1 5
ATOM      5  C   SER E  44      21.788  -8.106  18.693  1.00 42.78 LIG 0.24  C 
ATOM      6  N   PHE E  45      23.074  -7.920  18.440  1.00 43.36 LIG-0.35  N 
ATOM      7 H    PHE E  45      23.431  -8.010  17.662  1.00 43.36 LIG 0.16  HD
ATOM      8 O    SER E  44      21.300  -8.020  19.821  1.00 37.54 LIG-0.27  OA
BRANCH 6 9
ATOM      9  CA  PHE E  45      24.005  -7.538  19.489  1.00 46.68 LIG 0.18  C 
BRANCH 9 10
ATOM     10  C   PHE E  45      24.809  -6.340  19.003  1.00 48.11 LIG 0.24  C 
ATOM     11 O    PHE E  45      25.758  -6.492  18.232  1.00 49.85 LIG-0.27  OA
ATOM     12  N   GLY E  46      24.435  -5.146  19.447  1.00 50.71 LIG-0.35  N 
ATOM     13 H    GLY E  46      23.782  -5.000  19.986  1.00 50.71 LIG 0.16  HD
BRANCH 12 14
ATOM     14  CA  GLY E  46      25.161  -3.970  19.009  1.00 54.23 LIG 0.21  C 
BRANCH 14 15
ATOM     15  C   GLY E  46      25.338  -2.951  20.112  1.00 55.55 LIG 0.21  C 
ATOM     16 O    GLY E  46      24.573  -3.026  21.093  1.00 59.11 LIG-0.29  OA
ENDBRANCH 14 15
ENDBRANCH 12 14
ENDBRANCH 9 10
BRANCH 9 17
ATOM     17  CB  PHE E  45      24.942  -8.701  19.831  1.00 43.03 LIG 0.07  C 
BRANCH 17 18
ATOM     18  CG  PHE E  45      25.232  -8.836  21.304  1.00 41.93 LIG-0.06  A 
ATOM     19  CD2 PHE E  45      25.210  -7.722  22.142  1.00 42.38 LIG 0.01  A 
ATOM     20  CE2 PHE E  45      25.450  -7.852  23.513  1.00 42.73 LIG 0.00  A 
ATOM     21  CZ  PHE E  45      25.717  -9.106  24.054  1.00 42.74 LIG 0.00  A 
ATOM     22  CE1 PHE E  45      25.741 -10.226  23.228  1.00 41.89 LIG 0.00  A 
ATOM     23  CD1 PHE E  45      25.499 -10.085  21.859  1.00 42.01 LIG 0.01  A 
ENDBRANCH 17 18
ENDBRANCH 9 17
ENDBRANCH 6 9
ENDBRANCH 1 5
BRANCH 1 24
ATOM     24  N   SER E  44      21.277  -9.780  16.962  1.00 46.50 LIG-0.34  N 
ATOM     25  C   PHE E  43      21.245 -10.808  17.781  1.00 47.40 LIG 0.24  C 
ATOM     26 O    PHE E  43      20.980 -10.679  18.973  1.00 45.80 LIG-0.27  OA
ATOM     27 H    SER E  44      21.478  -9.809  16.127  1.00 46.50 LIG 0.16  HD
BRANCH 25 28
ATOM     28  CA  PHE E  43      21.601 -12.159  17.203  1.00 47.87 LIG 0.18  C 
BRANCH 28 29
ATOM     29  CB  PHE E  43      20.715 -12.424  15.989  1.00 42.32 LIG 0.07  C 
BRANCH 29 30
ATOM     30  CG  PHE E  43      21.275 -11.952  14.660  1.00 35.12 LIG-0.06  A 
ATOM     31  CD2 PHE E  43      20.588 -12.094  13.447  1.00 32.72 LIG 0.01  A 
ATOM     32  CE2 PHE E  43      21.188 -11.664  12.231  1.00 30.40 LIG 0.00  A 
ATOM     33  CZ  PHE E  43      22.467 -11.091  12.246  1.00 28.92 LIG 0.00  A 
ATOM     34  CE1 PHE E  43      23.139 -10.955  13.455  1.00 29.46 LIG 0.00  A 
ATOM     35  CD1 PHE E  43      22.539 -11.385  14.642  1.00 34.02 LIG 0.01  A 
ENDBRANCH 29 30
ENDBRANCH 28 29
BRANCH 28 36
ATOM     36  N   PHE E  43      21.215 -12.963  18.326  1.00 51.92 LIG-0.35  N 
ATOM     37  C   GLY E  42      21.982 -13.345  19.330  1.00 55.92 LIG 0.25  C 
ATOM     38 O    GLY E  42      23.185 -13.082  19.470  1.00 57.26 LIG-0.27  OA
ATOM     39 H    PHE E  43      20.386 -13.190  18.288  1.00 51.92 LIG 0.16  HD
BRANCH 37 40
ATOM     40  CA  GLY E  42      21.204 -14.162  20.331  1.00 58.33 LIG 0.47  C 
ATOM     41  N   GLY E  42      21.063 -13.558  21.626  1.00 60.94 LIG 0.61  N 
ENDBRANCH 37 40
ENDBRANCH 28 36
ENDBRANCH 25 28
ENDBRANCH 1 24
TORSDOF 15
ENDMDL
MODEL 64
USER: ADFR SOLUTION from run 29
USER: SCORE 11.917132 LL:  -2.587 LR:  -9.868 RR:   0.000 FEB:  -5.394
USER: RMSD 8.426253
USER: SEED 28
USER: STATUS no improvement in best in 10 clusters for 5 generations
USER: GENES 17
USER: genes 0 Translation |==|  0.44491 0.53239 0.55731
USER: genes 1 Rotation |==|  0.09521 0.66754 0.72200 0.59378
USER: genes 2 Torsion [C]-CA--CB-[OG] |==|  0.24360
USER: genes 3 Torsion [CA]-CB--OG-[HG] |==|  0.86713
USER: genes 4 Torsion [N]-CA--C-[N] |==|  0.37151
USER: genes 5 Torsion [C]-N--CA-[C] |==|  0.54444
USER: genes 6 Torsion [N]-CA--C-[N] |==|  0.38454
USER: genes 7 Torsion [C]-N--CA-[C] |==|  0.76981
USER: genes 8 Torsion [N]-CA--C-[O] |==|  0.11124
USER: genes 9 Torsion [N]-CA--CB-[CG] |==|  0.18378
USER: genes 10 Torsion [CA]-CB--CG-[CD2] |==|  0.23279
USER: genes 11 Torsion [CB]-CA--N-[C] |==|  0.86372
USER: genes 12 Torsion [N]-C--CA-[N] |==|  0.45208
USER: genes 13 Torsion [C]-CA--CB-[CG] |==|  0.08634
USER: genes 14 Torsion [CA]-CB--CG-[CD2] |==|  0.70632
USER: genes 15 Torsion [C]-CA--N-[C] |==|  0.75586
USER: genes 16 Torsion [N]-C--CA-[N] |==|  0.72828
ROOT
ATOM      1  CA  SER E  44      25.173  -6.883  19.260  1.00 44.79 LIG 0.20  C 
ENDROOT
BRANCH 1 2
ATOM      2  CB  SER E  44      26.570  -6.784  18.650  1.00 46.10 LIG 0.20  C 
BRANCH 2 3
ATOM      3 OG   SER E  44      26.483  -6.607  17.252  1.00 47.85 LIG-0.40  OA
ATOM      4 HG   SER E  44      25.945  -7.166  16.931  1.00 47.85 LIG 0.21  HD
ENDBRANCH 2 3
ENDBRANCH 1 2
BRANCH 1 5
ATOM      5  C   SER E  44      24.703  -8.320  19.232  1.00 42.78 LIG 0.24  C 
ATOM      6  N   PHE E  45      23.821  -8.603  18.285  1.00 43.36 LIG-0.35  N 
ATOM      7 H    PHE E  45      23.513  -8.027  17.726  1.00 43.36 LIG 0.16  HD
ATOM      8 O    SER E  44      25.099  -9.145  20.057  1.00 37.54 LIG-0.27  OA
BRANCH 6 9
ATOM      9  CA  PHE E  45      23.294  -9.947  18.118  1.00 46.68 LIG 0.18  C 
BRANCH 9 10
ATOM     10  C   PHE E  45      22.642 -10.039  16.746  1.00 48.11 LIG 0.24  C 
ATOM     11 O    PHE E  45      21.952  -9.112  16.316  1.00 49.85 LIG-0.27  OA
ATOM     12  N   GLY E  46      22.856 -11.149  16.052  1.00 50.71 LIG-0.35  N 
ATOM     13 H    GLY E  46      23.328 -11.816  16.318  1.00 50.71 LIG 0.16  HD
BRANCH 12 14
ATOM     14  CA  GLY E  46      22.266 -11.285  14.734  1.00 54.23 LIG 0.21  C 
BRANCH 14 15
ATOM     15  C   GLY E  46      20.829 -11.754  14.786  1.00 55.55 LIG 0.21  C 
ATOM     16 O    GLY E  46      20.101 -11.280  15.678  1.00 59.11 LIG-0.29  OA
ENDBRANCH 14 15
ENDBRANCH 12 14
ENDBRANCH 9 10
BRANCH 9 17
ATOM     17  CB  PHE E  45      22.272 -10.268  19.213  1.00 43.03 LIG 0.07  C 
BRANCH 17 18
ATOM     18  CG  PHE E  45      21.018  -9.435  19.137  1.00 41.93 LIG-0.06  A 
ATOM     19  CD2 PHE E  45      19.970  -9.796  18.292  1.00 42.38 LIG 0.01  A 
ATOM     20  CE2 PHE E  45      18.795  -9.039  18.243  1.00 42.73 LIG 0.00  A 
ATOM     21  CZ  PHE E  45      18.665  -7.909  19.045  1.00 42.74 LIG 0.00  A 
ATOM     22  CE1 PHE E  45      19.704  -7.539  19.894  1.00 41.89 LIG 0.00  A 
ATOM     23  CD1 PHE E  45      20.873  -8.303  19.936  1.00 42.01 LIG 0.01  A 
ENDBRANCH 17 18
ENDBRANCH 9 17
ENDBRANCH 6 9
ENDBRANCH 1 5
BRANCH 1 24
ATOM     24  N   SER E  44      25.171  -6.324  20.595  1.00 46.50 LIG-0.34  N 
ATOM     25  C   PHE E  43      26.109  -6.710  21.431  1.00 47.40 LIG 0.24  C 
ATOM     26 O    PHE E  43      26.951  -7.548  21.118  1.00 45.80 LIG-0.27  OA
ATOM     27 H    SER E  44      24.545  -5.761  20.767  1.00 46.50 LIG 0.16  HD
BRANCH 25 28
ATOM     28  CA  PHE E  43      26.079  -6.115  22.821  1.00 47.87 LIG 0.18  C 
BRANCH 28 29
ATOM     29  CB  PHE E  43      26.721  -4.732  22.777  1.00 42.32 LIG 0.07  C 
BRANCH 29 30
ATOM     30  CG  PHE E  43      26.556  -3.979  21.470  1.00 35.12 LIG-0.06  A 
ATOM     31  CD2 PHE E  43      27.597  -3.813  20.546  1.00 32.72 LIG 0.01  A 
ATOM     32  CE2 PHE E  43      27.384  -3.064  19.356  1.00 30.40 LIG 0.00  A 
ATOM     33  CZ  PHE E  43      26.129  -2.493  19.103  1.00 28.92 LIG 0.00  A 
ATOM     34  CE1 PHE E  43      25.104  -2.664  20.026  1.00 29.46 LIG 0.00  A 
ATOM     35  CD1 PHE E  43      25.328  -3.400  21.193  1.00 34.02 LIG 0.01  A 
ENDBRANCH 29 30
ENDBRANCH 28 29
BRANCH 28 36
ATOM     36  N   PHE E  43      26.930  -7.074  23.464  1.00 51.92 LIG-0.35  N 
ATOM     37  C   GLY E  42      26.563  -8.213  24.021  1.00 55.92 LIG 0.25  C 
ATOM     38 O    GLY E  42      25.406  -8.649  24.095  1.00 57.26 LIG-0.27  OA
ATOM     39 H    PHE E  43      27.754  -6.827  23.456  1.00 51.92 LIG 0.16  HD
BRANCH 37 40
ATOM     40  CA  GLY E  42      27.752  -8.958  24.573  1.00 58.33 LIG 0.47  C 
ATOM     41  N   GLY E  42      28.271  -9.988  23.717  1.00 60.94 LIG 0.61  N 
ENDBRANCH 37 40
ENDBRANCH 28 36
ENDBRANCH 25 28
ENDBRANCH 1 24
TORSDOF 15
ENDMDL
MODEL 65
USER: ADFR SOLUTION from run 147
USER: SCORE 11.927227 LL:  -3.000 LR:  -9.842 RR:   0.000 FEB:  -5.368
USER: RMSD 8.928715
USER: SEED 146
USER: STATUS no improvement in best in 15 clusters for 5 generations
USER: GENES 17
USER: genes 0 Translation |==|  0.44741 0.45657 0.55903
USER: genes 1 Rotation |==|  0.25989 0.60133 0.07329 0.50124
USER: genes 2 Torsion [C]-CA--CB-[OG] |==|  0.38058
USER: genes 3 Torsion [CA]-CB--OG-[HG] |==|  0.12299
USER: genes 4 Torsion [N]-CA--C-[N] |==|  0.90758
USER: genes 5 Torsion [C]-N--CA-[C] |==|  0.75022
USER: genes 6 Torsion [N]-CA--C-[N] |==|  0.93383
USER: genes 7 Torsion [C]-N--CA-[C] |==|  0.73358
USER: genes 8 Torsion [N]-CA--C-[O] |==|  0.02589
USER: genes 9 Torsion [N]-CA--CB-[CG] |==|  0.78048
USER: genes 10 Torsion [CA]-CB--CG-[CD2] |==|  0.53793
USER: genes 11 Torsion [CB]-CA--N-[C] |==|  0.19326
USER: genes 12 Torsion [N]-C--CA-[N] |==|  0.38334
USER: genes 13 Torsion [C]-CA--CB-[CG] |==|  0.63185
USER: genes 14 Torsion [CA]-CB--CG-[CD2] |==|  0.74396
USER: genes 15 Torsion [C]-CA--N-[C] |==|  0.80556
USER: genes 16 Torsion [N]-C--CA-[N] |==|  0.36289
ROOT
ATOM      1  CA  SER E  44      25.231  -8.419  19.282  1.00 44.79 LIG 0.20  C 
ENDROOT
BRANCH 1 2
ATOM      2  CB  SER E  44      24.525  -7.497  20.274  1.00 46.10 LIG 0.20  C 
BRANCH 2 3
ATOM      3 OG   SER E  44      25.396  -7.157  21.333  1.00 47.85 LIG-0.40  OA
ATOM      4 HG   SER E  44      26.152  -6.964  21.023  1.00 47.85 LIG 0.21  HD
ENDBRANCH 2 3
ENDBRANCH 1 2
BRANCH 1 5
ATOM      5  C   SER E  44      24.300  -9.535  18.867  1.00 42.78 LIG 0.24  C 
ATOM      6  N   PHE E  45      23.551  -9.276  17.805  1.00 43.36 LIG-0.35  N 
ATOM      7 H    PHE E  45      23.565  -8.530  17.377  1.00 43.36 LIG 0.16  HD
ATOM      8 O    SER E  44      24.236 -10.591  19.499  1.00 37.54 LIG-0.27  OA
BRANCH 6 9
ATOM      9  CA  PHE E  45      22.625 -10.261  17.272  1.00 46.68 LIG 0.18  C 
BRANCH 9 10
ATOM     10  C   PHE E  45      23.361 -11.100  16.238  1.00 48.11 LIG 0.24  C 
ATOM     11 O    PHE E  45      22.973 -12.236  15.959  1.00 49.85 LIG-0.27  OA
ATOM     12  N   GLY E  46      24.422 -10.549  15.662  1.00 50.71 LIG-0.35  N 
ATOM     13 H    GLY E  46      24.725  -9.762  15.831  1.00 50.71 LIG 0.16  HD
BRANCH 12 14
ATOM     14  CA  GLY E  46      25.156 -11.300  14.663  1.00 54.23 LIG 0.21  C 
BRANCH 14 15
ATOM     15  C   GLY E  46      26.355 -12.019  15.239  1.00 55.55 LIG 0.21  C 
ATOM     16 O    GLY E  46      26.472 -12.040  16.479  1.00 59.11 LIG-0.29  OA
ENDBRANCH 14 15
ENDBRANCH 12 14
ENDBRANCH 9 10
BRANCH 9 17
ATOM     17  CB  PHE E  45      21.414  -9.573  16.633  1.00 43.03 LIG 0.07  C 
BRANCH 17 18
ATOM     18  CG  PHE E  45      20.387  -9.101  17.629  1.00 41.93 LIG-0.06  A 
ATOM     19  CD2 PHE E  45      19.112  -8.716  17.216  1.00 42.38 LIG 0.01  A 
ATOM     20  CE2 PHE E  45      18.151  -8.305  18.144  1.00 42.73 LIG 0.00  A 
ATOM     21  CZ  PHE E  45      18.464  -8.276  19.499  1.00 42.74 LIG 0.00  A 
ATOM     22  CE1 PHE E  45      19.732  -8.659  19.925  1.00 41.89 LIG 0.00  A 
ATOM     23  CD1 PHE E  45      20.686  -9.068  18.990  1.00 42.01 LIG 0.01  A 
ENDBRANCH 17 18
ENDBRANCH 9 17
ENDBRANCH 6 9
ENDBRANCH 1 5
BRANCH 1 24
ATOM     24  N   SER E  44      25.720  -7.655  18.153  1.00 46.50 LIG-0.34  N 
ATOM     25  C   PHE E  43      26.721  -6.826  18.352  1.00 47.40 LIG 0.24  C 
ATOM     26 O    PHE E  43      27.217  -6.663  19.463  1.00 45.80 LIG-0.27  OA
ATOM     27 H    SER E  44      25.320  -7.790  17.404  1.00 46.50 LIG 0.16  HD
BRANCH 25 28
ATOM     28  CA  PHE E  43      27.206  -6.035  17.157  1.00 47.87 LIG 0.18  C 
BRANCH 28 29
ATOM     29  CB  PHE E  43      28.537  -6.619  16.690  1.00 42.32 LIG 0.07  C 
BRANCH 29 30
ATOM     30  CG  PHE E  43      29.636  -5.605  16.431  1.00 35.12 LIG-0.06  A 
ATOM     31  CD2 PHE E  43      29.867  -5.032  15.173  1.00 32.72 LIG 0.01  A 
ATOM     32  CE2 PHE E  43      30.940  -4.116  14.992  1.00 30.40 LIG 0.00  A 
ATOM     33  CZ  PHE E  43      31.765  -3.780  16.074  1.00 28.92 LIG 0.00  A 
ATOM     34  CE1 PHE E  43      31.527  -4.355  17.317  1.00 29.46 LIG 0.00  A 
ATOM     35  CD1 PHE E  43      30.472  -5.256  17.481  1.00 34.02 LIG 0.01  A 
ENDBRANCH 29 30
ENDBRANCH 28 29
BRANCH 28 36
ATOM     36  N   PHE E  43      27.383  -4.773  17.814  1.00 51.92 LIG-0.35  N 
ATOM     37  C   GLY E  42      26.435  -3.976  18.271  1.00 55.92 LIG 0.25  C 
ATOM     38 O    GLY E  42      25.215  -4.178  18.197  1.00 57.26 LIG-0.27  OA
ATOM     39 H    PHE E  43      28.215  -4.566  17.891  1.00 51.92 LIG 0.16  HD
BRANCH 37 40
ATOM     40  CA  GLY E  42      27.021  -2.748  18.921  1.00 58.33 LIG 0.47  C 
ATOM     41  N   GLY E  42      26.453  -1.504  18.486  1.00 60.94 LIG 0.61  N 
ENDBRANCH 37 40
ENDBRANCH 28 36
ENDBRANCH 25 28
ENDBRANCH 1 24
TORSDOF 15
ENDMDL
MODEL 66
USER: ADFR SOLUTION from run 24
USER: SCORE 11.963898 LL:  -3.619 LR:  -9.839 RR:   0.000 FEB:  -5.365
USER: RMSD 3.490595
USER: SEED 23
USER: STATUS no improvement in best in 12 clusters for 5 generations
USER: GENES 17
USER: genes 0 Translation |==|  0.51038 0.38999 0.38248
USER: genes 1 Rotation |==|  0.70349 0.64162 0.37814 0.91675
USER: genes 2 Torsion [C]-CA--CB-[OG] |==|  0.61257
USER: genes 3 Torsion [CA]-CB--OG-[HG] |==|  0.21673
USER: genes 4 Torsion [N]-CA--C-[N] |==|  0.91720
USER: genes 5 Torsion [C]-N--CA-[C] |==|  0.79417
USER: genes 6 Torsion [N]-CA--C-[N] |==|  0.47925
USER: genes 7 Torsion [C]-N--CA-[C] |==|  0.77095
USER: genes 8 Torsion [N]-CA--C-[O] |==|  0.24549
USER: genes 9 Torsion [N]-CA--CB-[CG] |==|  0.26157
USER: genes 10 Torsion [CA]-CB--CG-[CD2] |==|  0.83444
USER: genes 11 Torsion [CB]-CA--N-[C] |==|  0.26093
USER: genes 12 Torsion [N]-C--CA-[N] |==|  0.85000
USER: genes 13 Torsion [C]-CA--CB-[CG] |==|  0.50183
USER: genes 14 Torsion [CA]-CB--CG-[CD2] |==|  0.52786
USER: genes 15 Torsion [C]-CA--N-[C] |==|  0.81379
USER: genes 16 Torsion [N]-C--CA-[N] |==|  0.61873
ROOT
ATOM      1  CA  SER E  44      26.695  -9.767  17.031  1.00 44.79 LIG 0.20  C 
ENDROOT
BRANCH 1 2
ATOM      2  CB  SER E  44      26.629 -10.164  15.557  1.00 46.10 LIG 0.20  C 
BRANCH 2 3
ATOM      3 OG   SER E  44      25.294 -10.436  15.183  1.00 47.85 LIG-0.40  OA
ATOM      4 HG   SER E  44      24.883  -9.714  15.066  1.00 47.85 LIG 0.21  HD
ENDBRANCH 2 3
ENDBRANCH 1 2
BRANCH 1 5
ATOM      5  C   SER E  44      27.674  -8.628  17.211  1.00 42.78 LIG 0.24  C 
ATOM      6  N   PHE E  45      27.138  -7.417  17.173  1.00 43.36 LIG-0.35  N 
ATOM      7 H    PHE E  45      26.302  -7.264  17.043  1.00 43.36 LIG 0.16  HD
ATOM      8 O    SER E  44      28.881  -8.831  17.352  1.00 37.54 LIG-0.27  OA
BRANCH 6 9
ATOM      9  CA  PHE E  45      27.948  -6.224  17.356  1.00 46.68 LIG 0.18  C 
BRANCH 9 10
ATOM     10  C   PHE E  45      28.312  -6.113  18.830  1.00 48.11 LIG 0.24  C 
ATOM     11 O    PHE E  45      27.816  -6.879  19.658  1.00 49.85 LIG-0.27  OA
ATOM     12  N   GLY E  46      29.179  -5.166  19.164  1.00 50.71 LIG-0.35  N 
ATOM     13 H    GLY E  46      29.544  -4.612  18.617  1.00 50.71 LIG 0.16  HD
BRANCH 12 14
ATOM     14  CA  GLY E  46      29.568  -5.021  20.554  1.00 54.23 LIG 0.21  C 
BRANCH 14 15
ATOM     15  C   GLY E  46      28.570  -4.218  21.357  1.00 55.55 LIG 0.21  C 
ATOM     16 O    GLY E  46      27.627  -4.836  21.887  1.00 59.11 LIG-0.29  OA
ENDBRANCH 14 15
ENDBRANCH 12 14
ENDBRANCH 9 10
BRANCH 9 17
ATOM     17  CB  PHE E  45      27.182  -4.976  16.904  1.00 43.03 LIG 0.07  C 
BRANCH 17 18
ATOM     18  CG  PHE E  45      26.450  -4.275  18.019  1.00 41.93 LIG-0.06  A 
ATOM     19  CD2 PHE E  45      25.469  -4.935  18.758  1.00 42.38 LIG 0.01  A 
ATOM     20  CE2 PHE E  45      24.812  -4.293  19.811  1.00 42.73 LIG 0.00  A 
ATOM     21  CZ  PHE E  45      25.134  -2.978  20.130  1.00 42.74 LIG 0.00  A 
ATOM     22  CE1 PHE E  45      26.112  -2.308  19.401  1.00 41.89 LIG 0.00  A 
ATOM     23  CD1 PHE E  45      26.764  -2.959  18.351  1.00 42.01 LIG 0.01  A 
ENDBRANCH 17 18
ENDBRANCH 9 17
ENDBRANCH 6 9
ENDBRANCH 1 5
BRANCH 1 24
ATOM     24  N   SER E  44      25.372  -9.444  17.520  1.00 46.50 LIG-0.34  N 
ATOM     25  C   PHE E  43      24.679 -10.396  18.107  1.00 47.40 LIG 0.24  C 
ATOM     26 O    PHE E  43      25.110 -11.540  18.214  1.00 45.80 LIG-0.27  OA
ATOM     27 H    SER E  44      25.110  -8.635  17.397  1.00 46.50 LIG 0.16  HD
BRANCH 25 28
ATOM     28  CA  PHE E  43      23.296 -10.033  18.602  1.00 47.87 LIG 0.18  C 
BRANCH 28 29
ATOM     29  CB  PHE E  43      22.439  -9.621  17.410  1.00 42.32 LIG 0.07  C 
BRANCH 29 30
ATOM     30  CG  PHE E  43      21.017  -9.209  17.743  1.00 35.12 LIG-0.06  A 
ATOM     31  CD2 PHE E  43      20.033  -8.999  16.768  1.00 32.72 LIG 0.01  A 
ATOM     32  CE2 PHE E  43      18.728  -8.576  17.148  1.00 30.40 LIG 0.00  A 
ATOM     33  CZ  PHE E  43      18.424  -8.374  18.500  1.00 28.92 LIG 0.00  A 
ATOM     34  CE1 PHE E  43      19.408  -8.585  19.459  1.00 29.46 LIG 0.00  A 
ATOM     35  CD1 PHE E  43      20.686  -8.997  19.072  1.00 34.02 LIG 0.01  A 
ENDBRANCH 29 30
ENDBRANCH 28 29
BRANCH 28 36
ATOM     36  N   PHE E  43      23.665  -8.903  19.404  1.00 51.92 LIG-0.35  N 
ATOM     37  C   GLY E  42      24.386  -8.916  20.511  1.00 55.92 LIG 0.25  C 
ATOM     38 O    GLY E  42      24.862  -9.919  21.059  1.00 57.26 LIG-0.27  OA
ATOM     39 H    PHE E  43      23.357  -8.167  19.082  1.00 51.92 LIG 0.16  HD
BRANCH 37 40
ATOM     40  CA  GLY E  42      24.579  -7.521  21.052  1.00 58.33 LIG 0.47  C 
ATOM     41  N   GLY E  42      25.906  -7.231  21.516  1.00 60.94 LIG 0.61  N 
ENDBRANCH 37 40
ENDBRANCH 28 36
ENDBRANCH 25 28
ENDBRANCH 1 24
TORSDOF 15
ENDMDL
MODEL 67
USER: ADFR SOLUTION from run 155
USER: SCORE 11.138316 LL:  -2.328 LR:  -9.826 RR:   0.000 FEB:  -5.351
USER: RMSD 8.967935
USER: SEED 154
USER: STATUS no improvement in best in 22 clusters for 5 generations
USER: GENES 17
USER: genes 0 Translation |==|  0.42632 0.48128 0.58109
USER: genes 1 Rotation |==|  0.45777 0.48840 0.99803 0.50706
USER: genes 2 Torsion [C]-CA--CB-[OG] |==|  0.61841
USER: genes 3 Torsion [CA]-CB--OG-[HG] |==|  0.46119
USER: genes 4 Torsion [N]-CA--C-[N] |==|  0.51969
USER: genes 5 Torsion [C]-N--CA-[C] |==|  0.77434
USER: genes 6 Torsion [N]-CA--C-[N] |==|  0.39370
USER: genes 7 Torsion [C]-N--CA-[C] |==|  0.74809
USER: genes 8 Torsion [N]-CA--C-[O] |==|  0.13055
USER: genes 9 Torsion [N]-CA--CB-[CG] |==|  0.13349
USER: genes 10 Torsion [CA]-CB--CG-[CD2] |==|  0.72558
USER: genes 11 Torsion [CB]-CA--N-[C] |==|  0.18420
USER: genes 12 Torsion [N]-C--CA-[N] |==|  0.34929
USER: genes 13 Torsion [C]-CA--CB-[CG] |==|  0.88914
USER: genes 14 Torsion [CA]-CB--CG-[CD2] |==|  0.79443
USER: genes 15 Torsion [C]-CA--N-[C] |==|  0.83124
USER: genes 16 Torsion [N]-C--CA-[N] |==|  0.60559
ROOT
ATOM      1  CA  SER E  44      24.741  -7.918  19.563  1.00 44.79 LIG 0.20  C 
ENDROOT
BRANCH 1 2
ATOM      2  CB  SER E  44      23.846  -6.811  19.009  1.00 46.10 LIG 0.20  C 
BRANCH 2 3
ATOM      3 OG   SER E  44      24.596  -5.631  18.805  1.00 47.85 LIG-0.40  OA
ATOM      4 HG   SER E  44      24.155  -5.097  18.330  1.00 47.85 LIG 0.21  HD
ENDBRANCH 2 3
ENDBRANCH 1 2
BRANCH 1 5
ATOM      5  C   SER E  44      24.426  -9.226  18.872  1.00 42.78 LIG 0.24  C 
ATOM      6  N   PHE E  45      23.141  -9.543  18.830  1.00 43.36 LIG-0.35  N 
ATOM      7 H    PHE E  45      22.515  -9.064  19.176  1.00 43.36 LIG 0.16  HD
ATOM      8 O    SER E  44      25.316  -9.944  18.414  1.00 37.54 LIG-0.27  OA
BRANCH 6 9
ATOM      9  CA  PHE E  45      22.681 -10.757  18.178  1.00 46.68 LIG 0.18  C 
BRANCH 9 10
ATOM     10  C   PHE E  45      22.601 -10.496  16.680  1.00 48.11 LIG 0.24  C 
ATOM     11 O    PHE E  45      22.212  -9.408  16.253  1.00 49.85 LIG-0.27  OA
ATOM     12  N   GLY E  46      22.970 -11.486  15.878  1.00 50.71 LIG-0.35  N 
ATOM     13 H    GLY E  46      23.244 -12.259  16.137  1.00 50.71 LIG 0.16  HD
BRANCH 12 14
ATOM     14  CA  GLY E  46      22.922 -11.289  14.442  1.00 54.23 LIG 0.21  C 
BRANCH 14 15
ATOM     15  C   GLY E  46      21.596 -11.697  13.842  1.00 55.55 LIG 0.21  C 
ATOM     16 O    GLY E  46      20.561 -11.300  14.410  1.00 59.11 LIG-0.29  OA
ENDBRANCH 14 15
ENDBRANCH 12 14
ENDBRANCH 9 10
BRANCH 9 17
ATOM     17  CB  PHE E  45      21.308 -11.174  18.717  1.00 43.03 LIG 0.07  C 
BRANCH 17 18
ATOM     18  CG  PHE E  45      20.308 -10.047  18.769  1.00 41.93 LIG-0.06  A 
ATOM     19  CD2 PHE E  45      20.060  -9.365  19.960  1.00 42.38 LIG 0.01  A 
ATOM     20  CE2 PHE E  45      19.154  -8.302  20.001  1.00 42.73 LIG 0.00  A 
ATOM     21  CZ  PHE E  45      18.487  -7.914  18.843  1.00 42.74 LIG 0.00  A 
ATOM     22  CE1 PHE E  45      18.726  -8.586  17.648  1.00 41.89 LIG 0.00  A 
ATOM     23  CD1 PHE E  45      19.634  -9.647  17.618  1.00 42.01 LIG 0.01  A 
ENDBRANCH 17 18
ENDBRANCH 9 17
ENDBRANCH 6 9
ENDBRANCH 1 5
BRANCH 1 24
ATOM     24  N   SER E  44      26.134  -7.544  19.436  1.00 46.50 LIG-0.34  N 
ATOM     25  C   PHE E  43      26.570  -6.527  20.146  1.00 47.40 LIG 0.24  C 
ATOM     26 O    PHE E  43      25.825  -5.878  20.875  1.00 45.80 LIG-0.27  OA
ATOM     27 H    SER E  44      26.604  -8.017  18.893  1.00 46.50 LIG 0.16  HD
BRANCH 25 28
ATOM     28  CA  PHE E  43      28.027  -6.154  19.988  1.00 47.87 LIG 0.18  C 
BRANCH 28 29
ATOM     29  CB  PHE E  43      28.726  -6.322  21.334  1.00 42.32 LIG 0.07  C 
BRANCH 29 30
ATOM     30  CG  PHE E  43      27.925  -5.872  22.543  1.00 35.12 LIG-0.06  A 
ATOM     31  CD2 PHE E  43      27.712  -4.525  22.861  1.00 32.72 LIG 0.01  A 
ATOM     32  CE2 PHE E  43      26.983  -4.173  24.031  1.00 30.40 LIG 0.00  A 
ATOM     33  CZ  PHE E  43      26.472  -5.176  24.865  1.00 28.92 LIG 0.00  A 
ATOM     34  CE1 PHE E  43      26.690  -6.510  24.540  1.00 29.46 LIG 0.00  A 
ATOM     35  CD1 PHE E  43      27.410  -6.841  23.390  1.00 34.02 LIG 0.01  A 
ENDBRANCH 29 30
ENDBRANCH 28 29
BRANCH 28 36
ATOM     36  N   PHE E  43      27.842  -4.771  19.657  1.00 51.92 LIG-0.35  N 
ATOM     37  C   GLY E  42      27.188  -4.285  18.618  1.00 55.92 LIG 0.25  C 
ATOM     38 O    GLY E  42      26.627  -4.947  17.734  1.00 57.26 LIG-0.27  OA
ATOM     39 H    PHE E  43      28.217  -4.251  20.230  1.00 51.92 LIG 0.16  HD
BRANCH 37 40
ATOM     40  CA  GLY E  42      27.194  -2.777  18.628  1.00 58.33 LIG 0.47  C 
ATOM     41  N   GLY E  42      25.971  -2.165  18.190  1.00 60.94 LIG 0.61  N 
ENDBRANCH 37 40
ENDBRANCH 28 36
ENDBRANCH 25 28
ENDBRANCH 1 24
TORSDOF 15
ENDMDL
MODEL 68
USER: ADFR SOLUTION from run 146
USER: SCORE 11.820145 LL:  -3.077 LR:  -9.829 RR:   0.000 FEB:  -5.355
USER: RMSD 8.893354
USER: SEED 145
USER: STATUS no improvement in best in 8 clusters for 5 generations
USER: GENES 17
USER: genes 0 Translation |==|  0.44687 0.41594 0.50853
USER: genes 1 Rotation |==|  0.70760 0.38122 0.91903 0.63119
USER: genes 2 Torsion [C]-CA--CB-[OG] |==|  0.73741
USER: genes 3 Torsion [CA]-CB--OG-[HG] |==|  0.01069
USER: genes 4 Torsion [N]-CA--C-[N] |==|  0.96456
USER: genes 5 Torsion [C]-N--CA-[C] |==|  0.63851
USER: genes 6 Torsion [N]-CA--C-[N] |==|  0.51850
USER: genes 7 Torsion [C]-N--CA-[C] |==|  0.69880
USER: genes 8 Torsion [N]-CA--C-[O] |==|  0.16298
USER: genes 9 Torsion [N]-CA--CB-[CG] |==|  0.70960
USER: genes 10 Torsion [CA]-CB--CG-[CD2] |==|  0.12999
USER: genes 11 Torsion [CB]-CA--N-[C] |==|  0.19482
USER: genes 12 Torsion [N]-C--CA-[N] |==|  0.37523
USER: genes 13 Torsion [C]-CA--CB-[CG] |==|  0.12804
USER: genes 14 Torsion [CA]-CB--CG-[CD2] |==|  0.64810
USER: genes 15 Torsion [C]-CA--N-[C] |==|  0.79834
USER: genes 16 Torsion [N]-C--CA-[N] |==|  0.39058
ROOT
ATOM      1  CA  SER E  44      25.219  -9.241  18.638  1.00 44.79 LIG 0.20  C 
ENDROOT
BRANCH 1 2
ATOM      2  CB  SER E  44      25.116  -7.931  19.417  1.00 46.10 LIG 0.20  C 
BRANCH 2 3
ATOM      3 OG   SER E  44      25.109  -6.832  18.529  1.00 47.85 LIG-0.40  OA
ATOM      4 HG   SER E  44      25.109  -7.112  17.737  1.00 47.85 LIG 0.21  HD
ENDBRANCH 2 3
ENDBRANCH 1 2
BRANCH 1 5
ATOM      5  C   SER E  44      23.836  -9.806  18.401  1.00 42.78 LIG 0.24  C 
ATOM      6  N   PHE E  45      23.424  -9.770  17.143  1.00 43.36 LIG-0.35  N 
ATOM      7 H    PHE E  45      23.883  -9.441  16.494  1.00 43.36 LIG 0.16  HD
ATOM      8 O    SER E  44      23.148 -10.237  19.327  1.00 37.54 LIG-0.27  OA
BRANCH 6 9
ATOM      9  CA  PHE E  45      22.126 -10.298  16.755  1.00 46.68 LIG 0.18  C 
BRANCH 9 10
ATOM     10  C   PHE E  45      22.324 -11.225  15.564  1.00 48.11 LIG 0.24  C 
ATOM     11 O    PHE E  45      23.456 -11.513  15.173  1.00 49.85 LIG-0.27  OA
ATOM     12  N   GLY E  46      21.228 -11.698  14.983  1.00 50.71 LIG-0.35  N 
ATOM     13 H    GLY E  46      20.422 -11.518  15.224  1.00 50.71 LIG 0.16  HD
BRANCH 12 14
ATOM     14  CA  GLY E  46      21.357 -12.591  13.849  1.00 54.23 LIG 0.21  C 
BRANCH 14 15
ATOM     15  C   GLY E  46      20.956 -11.940  12.545  1.00 55.55 LIG 0.21  C 
ATOM     16 O    GLY E  46      21.574 -10.914  12.201  1.00 59.11 LIG-0.29  OA
ENDBRANCH 14 15
ENDBRANCH 12 14
ENDBRANCH 9 10
BRANCH 9 17
ATOM     17  CB  PHE E  45      21.167  -9.161  16.389  1.00 43.03 LIG 0.07  C 
BRANCH 17 18
ATOM     18  CG  PHE E  45      20.131  -8.876  17.447  1.00 41.93 LIG-0.06  A 
ATOM     19  CD2 PHE E  45      20.491  -8.762  18.789  1.00 42.38 LIG 0.01  A 
ATOM     20  CE2 PHE E  45      19.535  -8.469  19.765  1.00 42.73 LIG 0.00  A 
ATOM     21  CZ  PHE E  45      18.204  -8.289  19.400  1.00 42.74 LIG 0.00  A 
ATOM     22  CE1 PHE E  45      17.832  -8.399  18.063  1.00 41.89 LIG 0.00  A 
ATOM     23  CD1 PHE E  45      18.795  -8.692  17.095  1.00 42.01 LIG 0.01  A 
ENDBRANCH 17 18
ENDBRANCH 9 17
ENDBRANCH 6 9
ENDBRANCH 1 5
BRANCH 1 24
ATOM     24  N   SER E  44      25.952  -9.033  17.407  1.00 46.50 LIG-0.34  N 
ATOM     25  C   PHE E  43      27.243  -8.797  17.487  1.00 47.40 LIG 0.24  C 
ATOM     26 O    PHE E  43      27.822  -8.716  18.566  1.00 45.80 LIG-0.27  OA
ATOM     27 H    SER E  44      25.493  -9.077  16.682  1.00 46.50 LIG 0.16  HD
BRANCH 25 28
ATOM     28  CA  PHE E  43      27.983  -8.577  16.186  1.00 47.87 LIG 0.18  C 
BRANCH 28 29
ATOM     29  CB  PHE E  43      28.870  -9.788  15.913  1.00 42.32 LIG 0.07  C 
BRANCH 29 30
ATOM     30  CG  PHE E  43      28.204 -11.138  16.110  1.00 35.12 LIG-0.06  A 
ATOM     31  CD2 PHE E  43      28.738 -12.142  16.929  1.00 32.72 LIG 0.01  A 
ATOM     32  CE2 PHE E  43      28.082 -13.399  17.039  1.00 30.40 LIG 0.00  A 
ATOM     33  CZ  PHE E  43      26.896 -13.634  16.331  1.00 28.92 LIG 0.00  A 
ATOM     34  CE1 PHE E  43      26.375 -12.631  15.521  1.00 29.46 LIG 0.00  A 
ATOM     35  CD1 PHE E  43      27.032 -11.402  15.419  1.00 34.02 LIG 0.01  A 
ENDBRANCH 29 30
ENDBRANCH 28 29
BRANCH 28 36
ATOM     36  N   PHE E  43      28.753  -7.436  16.588  1.00 51.92 LIG-0.35  N 
ATOM     37  C   GLY E  42      28.311  -6.207  16.781  1.00 55.92 LIG 0.25  C 
ATOM     38 O    GLY E  42      27.143  -5.822  16.635  1.00 57.26 LIG-0.27  OA
ATOM     39 H    PHE E  43      29.583  -7.634  16.700  1.00 51.92 LIG 0.16  HD
BRANCH 37 40
ATOM     40  CA  GLY E  42      29.424  -5.290  17.223  1.00 58.33 LIG 0.47  C 
ATOM     41  N   GLY E  42      29.383  -3.973  16.654  1.00 60.94 LIG 0.61  N 
ENDBRANCH 37 40
ENDBRANCH 28 36
ENDBRANCH 25 28
ENDBRANCH 1 24
TORSDOF 15
ENDMDL
MODEL 69
USER: ADFR SOLUTION from run 124
USER: SCORE 10.169641 LL:  -2.489 LR:  -9.817 RR:   0.000 FEB:  -5.342
USER: RMSD 4.501207
USER: SEED 123
USER: STATUS no improvement in best in 11 clusters for 5 generations
USER: GENES 17
USER: genes 0 Translation |==|  0.47925 0.64716 0.68785
USER: genes 1 Rotation |==|  0.28629 0.28498 0.55746 0.89344
USER: genes 2 Torsion [C]-CA--CB-[OG] |==|  0.31627
USER: genes 3 Torsion [CA]-CB--OG-[HG] |==|  0.84954
USER: genes 4 Torsion [N]-CA--C-[N] |==|  0.86668
USER: genes 5 Torsion [C]-N--CA-[C] |==|  0.65816
USER: genes 6 Torsion [N]-CA--C-[N] |==|  0.42074
USER: genes 7 Torsion [C]-N--CA-[C] |==|  0.17384
USER: genes 8 Torsion [N]-CA--C-[O] |==|  0.36823
USER: genes 9 Torsion [N]-CA--CB-[CG] |==|  0.70539
USER: genes 10 Torsion [CA]-CB--CG-[CD2] |==|  0.37093
USER: genes 11 Torsion [CB]-CA--N-[C] |==|  0.52222
USER: genes 12 Torsion [N]-C--CA-[N] |==|  0.79054
USER: genes 13 Torsion [C]-CA--CB-[CG] |==|  0.35147
USER: genes 14 Torsion [CA]-CB--CG-[CD2] |==|  0.60517
USER: genes 15 Torsion [C]-CA--N-[C] |==|  0.21988
USER: genes 16 Torsion [N]-C--CA-[N] |==|  0.89372
ROOT
ATOM      1  CA  SER E  44      25.971  -4.559  20.924  1.00 44.79 LIG 0.20  C 
ENDROOT
BRANCH 1 2
ATOM      2  CB  SER E  44      26.727  -4.902  22.207  1.00 46.10 LIG 0.20  C 
BRANCH 2 3
ATOM      3 OG   SER E  44      26.208  -4.164  23.293  1.00 47.85 LIG-0.40  OA
ATOM      4 HG   SER E  44      26.216  -3.345  23.106  1.00 47.85 LIG 0.21  HD
ENDBRANCH 2 3
ENDBRANCH 1 2
BRANCH 1 5
ATOM      5  C   SER E  44      26.897  -3.856  19.956  1.00 42.78 LIG 0.24  C 
ATOM      6  N   PHE E  45      27.774  -4.641  19.349  1.00 43.36 LIG-0.35  N 
ATOM      7 H    PHE E  45      27.841  -5.487  19.489  1.00 43.36 LIG 0.16  HD
ATOM      8 O    SER E  44      26.843  -2.638  19.781  1.00 37.54 LIG-0.27  OA
BRANCH 6 9
ATOM      9  CA  PHE E  45      28.713  -4.115  18.373  1.00 46.68 LIG 0.18  C 
BRANCH 9 10
ATOM     10  C   PHE E  45      28.523  -4.873  17.067  1.00 48.11 LIG 0.24  C 
ATOM     11 O    PHE E  45      28.113  -6.035  17.070  1.00 49.85 LIG-0.27  OA
ATOM     12  N   GLY E  46      28.815  -4.224  15.947  1.00 50.71 LIG-0.35  N 
ATOM     13 H    GLY E  46      29.105  -3.415  15.904  1.00 50.71 LIG 0.16  HD
BRANCH 12 14
ATOM     14  CA  GLY E  46      28.644  -4.896  14.674  1.00 54.23 LIG 0.21  C 
BRANCH 14 15
ATOM     15  C   GLY E  46      27.205  -5.278  14.405  1.00 55.55 LIG 0.21  C 
ATOM     16 O    GLY E  46      26.737  -5.001  13.284  1.00 59.11 LIG-0.29  OA
ENDBRANCH 14 15
ENDBRANCH 12 14
ENDBRANCH 9 10
BRANCH 9 17
ATOM     17  CB  PHE E  45      30.154  -4.270  18.871  1.00 43.03 LIG 0.07  C 
BRANCH 17 18
ATOM     18  CG  PHE E  45      30.784  -2.977  19.323  1.00 41.93 LIG-0.06  A 
ATOM     19  CD2 PHE E  45      31.485  -2.905  20.527  1.00 42.38 LIG 0.01  A 
ATOM     20  CE2 PHE E  45      32.093  -1.714  20.931  1.00 42.73 LIG 0.00  A 
ATOM     21  CZ  PHE E  45      32.000  -0.581  20.129  1.00 42.74 LIG 0.00  A 
ATOM     22  CE1 PHE E  45      31.304  -0.640  18.925  1.00 41.89 LIG 0.00  A 
ATOM     23  CD1 PHE E  45      30.701  -1.836  18.529  1.00 42.01 LIG 0.01  A 
ENDBRANCH 17 18
ENDBRANCH 9 17
ENDBRANCH 6 9
ENDBRANCH 1 5
BRANCH 1 24
ATOM     24  N   SER E  44      25.380  -5.754  20.359  1.00 46.50 LIG-0.34  N 
ATOM     25  C   PHE E  43      24.828  -5.669  19.168  1.00 47.40 LIG 0.24  C 
ATOM     26 O    PHE E  43      24.774  -4.607  18.553  1.00 45.80 LIG-0.27  OA
ATOM     27 H    SER E  44      25.425  -6.463  20.843  1.00 46.50 LIG 0.16  HD
BRANCH 25 28
ATOM     28  CA  PHE E  43      24.212  -6.930  18.605  1.00 47.87 LIG 0.18  C 
BRANCH 28 29
ATOM     29  CB  PHE E  43      23.476  -7.660  19.725  1.00 42.32 LIG 0.07  C 
BRANCH 29 30
ATOM     30  CG  PHE E  43      22.026  -8.000  19.435  1.00 35.12 LIG-0.06  A 
ATOM     31  CD2 PHE E  43      21.016  -7.931  20.403  1.00 32.72 LIG 0.01  A 
ATOM     32  CE2 PHE E  43      19.682  -8.301  20.073  1.00 30.40 LIG 0.00  A 
ATOM     33  CZ  PHE E  43      19.376  -8.731  18.775  1.00 28.92 LIG 0.00  A 
ATOM     34  CE1 PHE E  43      20.386  -8.796  17.823  1.00 29.46 LIG 0.00  A 
ATOM     35  CD1 PHE E  43      21.692  -8.433  18.161  1.00 34.02 LIG 0.01  A 
ENDBRANCH 29 30
ENDBRANCH 28 29
BRANCH 28 36
ATOM     36  N   PHE E  43      25.429  -7.600  18.247  1.00 51.92 LIG-0.35  N 
ATOM     37  C   GLY E  42      26.243  -8.253  19.055  1.00 55.92 LIG 0.25  C 
ATOM     38 O    GLY E  42      26.101  -8.391  20.278  1.00 57.26 LIG-0.27  OA
ATOM     39 H    PHE E  43      25.594  -7.535  17.405  1.00 51.92 LIG 0.16  HD
BRANCH 37 40
ATOM     40  CA  GLY E  42      27.407  -8.842  18.297  1.00 58.33 LIG 0.47  C 
ATOM     41  N   GLY E  42      27.081  -9.366  17.001  1.00 60.94 LIG 0.61  N 
ENDBRANCH 37 40
ENDBRANCH 28 36
ENDBRANCH 25 28
ENDBRANCH 1 24
TORSDOF 15
ENDMDL
MODEL 70
USER: ADFR SOLUTION from run 65
USER: SCORE 12.044988 LL:  -3.292 LR:  -9.819 RR:   0.000 FEB:  -5.344
USER: RMSD 8.557203
USER: SEED 64
USER: STATUS no improvement in best in 18 clusters for 5 generations
USER: GENES 17
USER: genes 0 Translation |==|  0.48819 0.50656 0.53530
USER: genes 1 Rotation |==|  0.77669 0.44258 0.89736 0.61069
USER: genes 2 Torsion [C]-CA--CB-[OG] |==|  0.71312
USER: genes 3 Torsion [CA]-CB--OG-[HG] |==|  0.78593
USER: genes 4 Torsion [N]-CA--C-[N] |==|  0.96139
USER: genes 5 Torsion [C]-N--CA-[C] |==|  0.71107
USER: genes 6 Torsion [N]-CA--C-[N] |==|  0.85040
USER: genes 7 Torsion [C]-N--CA-[C] |==|  0.24672
USER: genes 8 Torsion [N]-CA--C-[O] |==|  0.06476
USER: genes 9 Torsion [N]-CA--CB-[CG] |==|  0.62550
USER: genes 10 Torsion [CA]-CB--CG-[CD2] |==|  0.10033
USER: genes 11 Torsion [CB]-CA--N-[C] |==|  0.24318
USER: genes 12 Torsion [N]-C--CA-[N] |==|  0.41341
USER: genes 13 Torsion [C]-CA--CB-[CG] |==|  0.31252
USER: genes 14 Torsion [CA]-CB--CG-[CD2] |==|  0.63091
USER: genes 15 Torsion [C]-CA--N-[C] |==|  0.82267
USER: genes 16 Torsion [N]-C--CA-[N] |==|  0.51513
ROOT
ATOM      1  CA  SER E  44      26.179  -7.406  18.979  1.00 44.79 LIG 0.20  C 
ENDROOT
BRANCH 1 2
ATOM      2  CB  SER E  44      26.026  -6.064  19.693  1.00 46.10 LIG 0.20  C 
BRANCH 2 3
ATOM      3 OG   SER E  44      25.703  -5.050  18.764  1.00 47.85 LIG-0.40  OA
ATOM      4 HG   SER E  44      26.394  -4.825  18.343  1.00 47.85 LIG 0.21  HD
ENDBRANCH 2 3
ENDBRANCH 1 2
BRANCH 1 5
ATOM      5  C   SER E  44      24.951  -8.256  19.215  1.00 42.78 LIG 0.24  C 
ATOM      6  N   PHE E  45      24.172  -8.420  18.156  1.00 43.36 LIG-0.35  N 
ATOM      7 H    PHE E  45      24.325  -8.069  17.386  1.00 43.36 LIG 0.16  HD
ATOM      8 O    SER E  44      24.694  -8.726  20.324  1.00 37.54 LIG-0.27  OA
BRANCH 6 9
ATOM      9  CA  PHE E  45      22.967  -9.231  18.221  1.00 46.68 LIG 0.18  C 
BRANCH 9 10
ATOM     10  C   PHE E  45      23.248 -10.561  17.535  1.00 48.11 LIG 0.24  C 
ATOM     11 O    PHE E  45      23.038 -11.625  18.120  1.00 49.85 LIG-0.27  OA
ATOM     12  N   GLY E  46      23.719 -10.510  16.296  1.00 50.71 LIG-0.35  N 
ATOM     13 H    GLY E  46      23.880  -9.789  15.856  1.00 50.71 LIG 0.16  HD
BRANCH 12 14
ATOM     14  CA  GLY E  46      23.996 -11.747  15.592  1.00 54.23 LIG 0.21  C 
BRANCH 14 15
ATOM     15  C   GLY E  46      22.795 -12.269  14.836  1.00 55.55 LIG 0.21  C 
ATOM     16 O    GLY E  46      21.914 -11.448  14.519  1.00 59.11 LIG-0.29  OA
ENDBRANCH 14 15
ENDBRANCH 12 14
ENDBRANCH 9 10
BRANCH 9 17
ATOM     17  CB  PHE E  45      21.798  -8.518  17.534  1.00 43.03 LIG 0.07  C 
BRANCH 17 18
ATOM     18  CG  PHE E  45      20.513  -8.562  18.321  1.00 41.93 LIG-0.06  A 
ATOM     19  CD2 PHE E  45      20.523  -8.486  19.713  1.00 42.38 LIG 0.01  A 
ATOM     20  CE2 PHE E  45      19.330  -8.497  20.440  1.00 42.73 LIG 0.00  A 
ATOM     21  CZ  PHE E  45      18.112  -8.587  19.773  1.00 42.74 LIG 0.00  A 
ATOM     22  CE1 PHE E  45      18.088  -8.662  18.383  1.00 41.89 LIG 0.00  A 
ATOM     23  CD1 PHE E  45      19.286  -8.649  17.666  1.00 42.01 LIG 0.01  A 
ENDBRANCH 17 18
ENDBRANCH 9 17
ENDBRANCH 6 9
ENDBRANCH 1 5
BRANCH 1 24
ATOM     24  N   SER E  44      26.447  -7.195  17.572  1.00 46.50 LIG-0.34  N 
ATOM     25  C   PHE E  43      27.697  -7.041  17.195  1.00 47.40 LIG 0.24  C 
ATOM     26 O    PHE E  43      28.622  -7.039  18.002  1.00 45.80 LIG-0.27  OA
ATOM     27 H    SER E  44      25.760  -7.182  17.055  1.00 46.50 LIG 0.16  HD
BRANCH 25 28
ATOM     28  CA  PHE E  43      27.947  -6.815  15.720  1.00 47.87 LIG 0.18  C 
BRANCH 28 29
ATOM     29  CB  PHE E  43      28.266  -8.156  15.065  1.00 42.32 LIG 0.07  C 
BRANCH 29 30
ATOM     30  CG  PHE E  43      27.225  -8.665  14.086  1.00 35.12 LIG-0.06  A 
ATOM     31  CD2 PHE E  43      26.743  -9.981  14.098  1.00 32.72 LIG 0.01  A 
ATOM     32  CE2 PHE E  43      25.793 -10.403  13.126  1.00 30.40 LIG 0.00  A 
ATOM     33  CZ  PHE E  43      25.335  -9.501  12.157  1.00 28.92 LIG 0.00  A 
ATOM     34  CE1 PHE E  43      25.820  -8.199  12.154  1.00 29.46 LIG 0.00  A 
ATOM     35  CD1 PHE E  43      26.755  -7.798  13.112  1.00 34.02 LIG 0.01  A 
ENDBRANCH 29 30
ENDBRANCH 28 29
BRANCH 28 36
ATOM     36  N   PHE E  43      29.115  -5.993  15.842  1.00 51.92 LIG-0.35  N 
ATOM     37  C   GLY E  42      29.191  -4.799  16.399  1.00 55.92 LIG 0.25  C 
ATOM     38 O    GLY E  42      28.252  -4.170  16.906  1.00 57.26 LIG-0.27  OA
ATOM     39 H    PHE E  43      29.809  -6.370  15.499  1.00 51.92 LIG 0.16  HD
BRANCH 37 40
ATOM     40  CA  GLY E  42      30.601  -4.264  16.354  1.00 58.33 LIG 0.47  C 
ATOM     41  N   GLY E  42      30.799  -3.022  17.046  1.00 60.94 LIG 0.61  N 
ENDBRANCH 37 40
ENDBRANCH 28 36
ENDBRANCH 25 28
ENDBRANCH 1 24
TORSDOF 15
ENDMDL
MODEL 71
USER: ADFR SOLUTION from run 183
USER: SCORE 11.566132 LL:  -2.397 LR:  -9.822 RR:   0.000 FEB:  -5.347
USER: RMSD 9.114628
USER: SEED 182
USER: STATUS no improvement in best in 10 clusters for 5 generations
USER: GENES 17
USER: genes 0 Translation |==|  0.39215 0.45014 0.54373
USER: genes 1 Rotation |==|  0.64981 0.25831 0.89113 0.62714
USER: genes 2 Torsion [C]-CA--CB-[OG] |==|  0.77016
USER: genes 3 Torsion [CA]-CB--OG-[HG] |==|  0.19835
USER: genes 4 Torsion [N]-CA--C-[N] |==|  0.13889
USER: genes 5 Torsion [C]-N--CA-[C] |==|  0.89435
USER: genes 6 Torsion [N]-CA--C-[N] |==|  0.36057
USER: genes 7 Torsion [C]-N--CA-[C] |==|  0.16234
USER: genes 8 Torsion [N]-CA--C-[O] |==|  0.56959
USER: genes 9 Torsion [N]-CA--CB-[CG] |==|  0.18487
USER: genes 10 Torsion [CA]-CB--CG-[CD2] |==|  0.83216
USER: genes 11 Torsion [CB]-CA--N-[C] |==|  0.14592
USER: genes 12 Torsion [N]-C--CA-[N] |==|  0.88361
USER: genes 13 Torsion [C]-CA--CB-[CG] |==|  0.10900
USER: genes 14 Torsion [CA]-CB--CG-[CD2] |==|  0.13329
USER: genes 15 Torsion [C]-CA--N-[C] |==|  0.77859
USER: genes 16 Torsion [N]-C--CA-[N] |==|  0.67949
ROOT
ATOM      1  CA  SER E  44      23.946  -8.549  19.087  1.00 44.79 LIG 0.20  C 
ENDROOT
BRANCH 1 2
ATOM      2  CB  SER E  44      23.876  -7.611  20.290  1.00 46.10 LIG 0.20  C 
BRANCH 2 3
ATOM      3 OG   SER E  44      24.128  -6.280  19.889  1.00 47.85 LIG-0.40  OA
ATOM      4 HG   SER E  44      23.473  -5.991  19.449  1.00 47.85 LIG 0.21  HD
ENDBRANCH 2 3
ENDBRANCH 1 2
BRANCH 1 5
ATOM      5  C   SER E  44      22.628  -8.533  18.346  1.00 42.78 LIG 0.24  C 
ATOM      6  N   PHE E  45      22.619  -9.200  17.202  1.00 43.36 LIG-0.35  N 
ATOM      7 H    PHE E  45      23.303  -9.608  16.877  1.00 43.36 LIG 0.16  HD
ATOM      8 O    SER E  44      21.654  -7.914  18.777  1.00 37.54 LIG-0.27  OA
BRANCH 6 9
ATOM      9  CA  PHE E  45      21.418  -9.296  16.390  1.00 46.68 LIG 0.18  C 
BRANCH 9 10
ATOM     10  C   PHE E  45      20.221  -9.442  17.319  1.00 48.11 LIG 0.24  C 
ATOM     11 O    PHE E  45      20.224 -10.285  18.218  1.00 49.85 LIG-0.27  OA
ATOM     12  N   GLY E  46      19.198  -8.624  17.113  1.00 50.71 LIG-0.35  N 
ATOM     13 H    GLY E  46      19.157  -8.025  16.497  1.00 50.71 LIG 0.16  HD
BRANCH 12 14
ATOM     14  CA  GLY E  46      18.035  -8.714  17.975  1.00 54.23 LIG 0.21  C 
BRANCH 14 15
ATOM     15  C   GLY E  46      18.371  -8.496  19.433  1.00 55.55 LIG 0.21  C 
ATOM     16 O    GLY E  46      17.610  -9.000  20.280  1.00 59.11 LIG-0.29  OA
ENDBRANCH 14 15
ENDBRANCH 12 14
ENDBRANCH 9 10
BRANCH 9 17
ATOM     17  CB  PHE E  45      21.501 -10.496  15.440  1.00 43.03 LIG 0.07  C 
BRANCH 17 18
ATOM     18  CG  PHE E  45      21.494 -11.829  16.144  1.00 41.93 LIG-0.06  A 
ATOM     19  CD2 PHE E  45      22.493 -12.161  17.058  1.00 42.38 LIG 0.01  A 
ATOM     20  CE2 PHE E  45      22.469 -13.386  17.732  1.00 42.73 LIG 0.00  A 
ATOM     21  CZ  PHE E  45      21.440 -14.290  17.490  1.00 42.74 LIG 0.00  A 
ATOM     22  CE1 PHE E  45      20.436 -13.970  16.580  1.00 41.89 LIG 0.00  A 
ATOM     23  CD1 PHE E  45      20.468 -12.743  15.913  1.00 42.01 LIG 0.01  A 
ENDBRANCH 17 18
ENDBRANCH 9 17
ENDBRANCH 6 9
ENDBRANCH 1 5
BRANCH 1 24
ATOM     24  N   SER E  44      25.064  -8.189  18.239  1.00 46.50 LIG-0.34  N 
ATOM     25  C   PHE E  43      26.252  -8.079  18.792  1.00 47.40 LIG 0.24  C 
ATOM     26 O    PHE E  43      26.423  -8.238  19.998  1.00 45.80 LIG-0.27  OA
ATOM     27 H    SER E  44      24.883  -8.066  17.408  1.00 46.50 LIG 0.16  HD
BRANCH 25 28
ATOM     28  CA  PHE E  43      27.399  -7.696  17.884  1.00 47.87 LIG 0.18  C 
BRANCH 28 29
ATOM     29  CB  PHE E  43      27.282  -6.214  17.543  1.00 42.32 LIG 0.07  C 
BRANCH 29 30
ATOM     30  CG  PHE E  43      26.835  -5.317  18.683  1.00 35.12 LIG-0.06  A 
ATOM     31  CD2 PHE E  43      27.399  -5.371  19.964  1.00 32.72 LIG 0.01  A 
ATOM     32  CE2 PHE E  43      26.906  -4.527  20.998  1.00 30.40 LIG 0.00  A 
ATOM     33  CZ  PHE E  43      25.857  -3.637  20.735  1.00 28.92 LIG 0.00  A 
ATOM     34  CE1 PHE E  43      25.305  -3.592  19.460  1.00 29.46 LIG 0.00  A 
ATOM     35  CD1 PHE E  43      25.796  -4.429  18.454  1.00 34.02 LIG 0.01  A 
ENDBRANCH 29 30
ENDBRANCH 28 29
BRANCH 28 36
ATOM     36  N   PHE E  43      27.052  -8.526  16.767  1.00 51.92 LIG-0.35  N 
ATOM     37  C   GLY E  42      27.280  -9.820  16.639  1.00 55.92 LIG 0.25  C 
ATOM     38 O    GLY E  42      27.850 -10.545  17.466  1.00 57.26 LIG-0.27  OA
ATOM     39 H    PHE E  43      26.657  -8.079  16.147  1.00 51.92 LIG 0.16  HD
BRANCH 37 40
ATOM     40  CA  GLY E  42      26.745 -10.341  15.329  1.00 58.33 LIG 0.47  C 
ATOM     41  N   GLY E  42      25.678 -11.294  15.448  1.00 60.94 LIG 0.61  N 
ENDBRANCH 37 40
ENDBRANCH 28 36
ENDBRANCH 25 28
ENDBRANCH 1 24
TORSDOF 15
ENDMDL
MODEL 72
USER: ADFR SOLUTION from run 10
USER: SCORE 12.413470 LL:  -3.447 LR:  -9.808 RR:   0.000 FEB:  -5.333
USER: RMSD 8.288162
USER: SEED 400629
USER: STATUS no improvement in best in 7 clusters for 5 generations
USER: GENES 17
USER: genes 0 Translation |==|  0.43773 0.46808 0.55591
USER: genes 1 Rotation |==|  0.68076 0.44110 0.96066 0.54061
USER: genes 2 Torsion [C]-CA--CB-[OG] |==|  0.68622
USER: genes 3 Torsion [CA]-CB--OG-[HG] |==|  0.25104
USER: genes 4 Torsion [N]-CA--C-[N] |==|  0.87753
USER: genes 5 Torsion [C]-N--CA-[C] |==|  0.72222
USER: genes 6 Torsion [N]-CA--C-[N] |==|  0.95767
USER: genes 7 Torsion [C]-N--CA-[C] |==|  0.45009
USER: genes 8 Torsion [N]-CA--C-[O] |==|  0.06823
USER: genes 9 Torsion [N]-CA--CB-[CG] |==|  0.76691
USER: genes 10 Torsion [CA]-CB--CG-[CD2] |==|  0.03523
USER: genes 11 Torsion [CB]-CA--N-[C] |==|  0.21144
USER: genes 12 Torsion [N]-C--CA-[N] |==|  0.38407
USER: genes 13 Torsion [C]-CA--CB-[CG] |==|  0.08020
USER: genes 14 Torsion [CA]-CB--CG-[CD2] |==|  0.69635
USER: genes 15 Torsion [C]-CA--N-[C] |==|  0.82110
USER: genes 16 Torsion [N]-C--CA-[N] |==|  0.49509
ROOT
ATOM      1  CA  SER E  44      25.006  -8.185  19.242  1.00 44.79 LIG 0.20  C 
ENDROOT
BRANCH 1 2
ATOM      2  CB  SER E  44      24.235  -6.984  19.786  1.00 46.10 LIG 0.20  C 
BRANCH 2 3
ATOM      3 OG   SER E  44      24.332  -5.894  18.894  1.00 47.85 LIG-0.40  OA
ATOM      4 HG   SER E  44      23.697  -5.923  18.345  1.00 47.85 LIG 0.21  HD
ENDBRANCH 2 3
ENDBRANCH 1 2
BRANCH 1 5
ATOM      5  C   SER E  44      24.043  -9.295  18.886  1.00 42.78 LIG 0.24  C 
ATOM      6  N   PHE E  45      23.414  -9.143  17.731  1.00 43.36 LIG-0.35  N 
ATOM      7 H    PHE E  45      23.518  -8.465  17.211  1.00 43.36 LIG 0.16  HD
ATOM      8 O    SER E  44      23.848 -10.248  19.643  1.00 37.54 LIG-0.27  OA
BRANCH 6 9
ATOM      9  CA  PHE E  45      22.475 -10.139  17.242  1.00 46.68 LIG 0.18  C 
BRANCH 9 10
ATOM     10  C   PHE E  45      23.186 -11.002  16.210  1.00 48.11 LIG 0.24  C 
ATOM     11 O    PHE E  45      22.704 -12.078  15.851  1.00 49.85 LIG-0.27  OA
ATOM     12  N   GLY E  46      24.331 -10.538  15.725  1.00 50.71 LIG-0.35  N 
ATOM     13 H    GLY E  46      24.700  -9.795  15.952  1.00 50.71 LIG 0.16  HD
BRANCH 12 14
ATOM     14  CA  GLY E  46      25.046 -11.315  14.733  1.00 54.23 LIG 0.21  C 
BRANCH 14 15
ATOM     15  C   GLY E  46      26.065 -10.495  13.973  1.00 55.55 LIG 0.21  C 
ATOM     16 O    GLY E  46      26.516  -9.477  14.533  1.00 59.11 LIG-0.29  OA
ENDBRANCH 14 15
ENDBRANCH 12 14
ENDBRANCH 9 10
BRANCH 9 17
ATOM     17  CB  PHE E  45      21.249  -9.465  16.616  1.00 43.03 LIG 0.07  C 
BRANCH 17 18
ATOM     18  CG  PHE E  45      20.193  -9.074  17.617  1.00 41.93 LIG-0.06  A 
ATOM     19  CD2 PHE E  45      20.465  -9.081  18.985  1.00 42.38 LIG 0.01  A 
ATOM     20  CE2 PHE E  45      19.494  -8.690  19.911  1.00 42.73 LIG 0.00  A 
ATOM     21  CZ  PHE E  45      18.237  -8.289  19.470  1.00 42.74 LIG 0.00  A 
ATOM     22  CE1 PHE E  45      17.953  -8.276  18.108  1.00 41.89 LIG 0.00  A 
ATOM     23  CD1 PHE E  45      18.930  -8.668  17.190  1.00 42.01 LIG 0.01  A 
ENDBRANCH 17 18
ENDBRANCH 9 17
ENDBRANCH 6 9
ENDBRANCH 1 5
BRANCH 1 24
ATOM     24  N   SER E  44      25.828  -7.783  18.120  1.00 46.50 LIG-0.34  N 
ATOM     25  C   PHE E  43      26.938  -7.123  18.369  1.00 47.40 LIG 0.24  C 
ATOM     26 O    PHE E  43      27.267  -6.816  19.511  1.00 45.80 LIG-0.27  OA
ATOM     27 H    SER E  44      25.538  -8.003  17.341  1.00 46.50 LIG 0.16  HD
BRANCH 25 28
ATOM     28  CA  PHE E  43      27.773  -6.709  17.178  1.00 47.87 LIG 0.18  C 
BRANCH 28 29
ATOM     29  CB  PHE E  43      29.001  -7.612  17.102  1.00 42.32 LIG 0.07  C 
BRANCH 29 30
ATOM     30  CG  PHE E  43      28.817  -9.009  17.665  1.00 35.12 LIG-0.06  A 
ATOM     31  CD2 PHE E  43      29.418  -9.439  18.856  1.00 32.72 LIG 0.01  A 
ATOM     32  CE2 PHE E  43      29.233 -10.775  19.308  1.00 30.40 LIG 0.00  A 
ATOM     33  CZ  PHE E  43      28.445 -11.663  18.564  1.00 28.92 LIG 0.00  A 
ATOM     34  CE1 PHE E  43      27.854 -11.226  17.384  1.00 29.46 LIG 0.00  A 
ATOM     35  CD1 PHE E  43      28.046  -9.912  16.950  1.00 34.02 LIG 0.01  A 
ENDBRANCH 29 30
ENDBRANCH 28 29
BRANCH 28 36
ATOM     36  N   PHE E  43      28.113  -5.390  17.624  1.00 51.92 LIG-0.35  N 
ATOM     37  C   GLY E  42      27.284  -4.382  17.828  1.00 55.92 LIG 0.25  C 
ATOM     38 O    GLY E  42      26.057  -4.401  17.654  1.00 57.26 LIG-0.27  OA
ATOM     39 H    PHE E  43      28.959  -5.304  17.758  1.00 51.92 LIG 0.16  HD
BRANCH 37 40
ATOM     40  CA  GLY E  42      28.020  -3.161  18.320  1.00 58.33 LIG 0.47  C 
ATOM     41  N   GLY E  42      27.197  -2.003  18.529  1.00 60.94 LIG 0.61  N 
ENDBRANCH 37 40
ENDBRANCH 28 36
ENDBRANCH 25 28
ENDBRANCH 1 24
TORSDOF 15
ENDMDL
MODEL 73
USER: ADFR SOLUTION from run 36
USER: SCORE 11.398677 LL:  -2.719 LR:  -9.808 RR:   0.000 FEB:  -5.333
USER: RMSD 9.713519
USER: SEED 35
USER: STATUS no improvement in best in 14 clusters for 5 generations
USER: GENES 17
USER: genes 0 Translation |==|  0.31483 0.45182 0.51442
USER: genes 1 Rotation |==|  0.37286 0.72699 0.92085 0.57212
USER: genes 2 Torsion [C]-CA--CB-[OG] |==|  0.80394
USER: genes 3 Torsion [CA]-CB--OG-[HG] |==|  0.79245
USER: genes 4 Torsion [N]-CA--C-[N] |==|  0.84700
USER: genes 5 Torsion [C]-N--CA-[C] |==|  0.78468
USER: genes 6 Torsion [N]-CA--C-[N] |==|  0.43803
USER: genes 7 Torsion [C]-N--CA-[C] |==|  0.31223
USER: genes 8 Torsion [N]-CA--C-[O] |==|  0.99676
USER: genes 9 Torsion [N]-CA--CB-[CG] |==|  0.90063
USER: genes 10 Torsion [CA]-CB--CG-[CD2] |==|  0.87041
USER: genes 11 Torsion [CB]-CA--N-[C] |==|  0.19568
USER: genes 12 Torsion [N]-C--CA-[N] |==|  0.31129
USER: genes 13 Torsion [C]-CA--CB-[CG] |==|  0.82714
USER: genes 14 Torsion [CA]-CB--CG-[CD2] |==|  0.81740
USER: genes 15 Torsion [C]-CA--N-[C] |==|  0.55556
USER: genes 16 Torsion [N]-C--CA-[N] |==|  0.20718
ROOT
ATOM      1  CA  SER E  44      22.149  -8.515  18.713  1.00 44.79 LIG 0.20  C 
ENDROOT
BRANCH 1 2
ATOM      2  CB  SER E  44      21.944  -8.296  17.215  1.00 46.10 LIG 0.20  C 
BRANCH 2 3
ATOM      3 OG   SER E  44      22.597  -9.309  16.478  1.00 47.85 LIG-0.40  OA
ATOM      4 HG   SER E  44      23.425  -9.172  16.485  1.00 47.85 LIG 0.21  HD
ENDBRANCH 2 3
ENDBRANCH 1 2
BRANCH 1 5
ATOM      5  C   SER E  44      21.362  -9.723  19.167  1.00 42.78 LIG 0.24  C 
ATOM      6  N   PHE E  45      21.798 -10.884  18.701  1.00 43.36 LIG-0.35  N 
ATOM      7 H    PHE E  45      22.467 -10.968  18.167  1.00 43.36 LIG 0.16  HD
ATOM      8 O    SER E  44      20.373  -9.613  19.894  1.00 37.54 LIG-0.27  OA
BRANCH 6 9
ATOM      9  CA  PHE E  45      21.159 -12.136  19.069  1.00 46.68 LIG 0.18  C 
BRANCH 9 10
ATOM     10  C   PHE E  45      21.612 -12.511  20.473  1.00 48.11 LIG 0.24  C 
ATOM     11 O    PHE E  45      22.659 -12.056  20.937  1.00 49.85 LIG-0.27  OA
ATOM     12  N   GLY E  46      20.829 -13.335  21.157  1.00 50.71 LIG-0.35  N 
ATOM     13 H    GLY E  46      20.094 -13.675  20.868  1.00 50.71 LIG 0.16  HD
BRANCH 12 14
ATOM     14  CA  GLY E  46      21.208 -13.719  22.503  1.00 54.23 LIG 0.21  C 
BRANCH 14 15
ATOM     15  C   GLY E  46      20.271 -13.164  23.552  1.00 55.55 LIG 0.21  C 
ATOM     16 O    GLY E  46      19.329 -12.449  23.162  1.00 59.11 LIG-0.29  OA
ENDBRANCH 14 15
ENDBRANCH 12 14
ENDBRANCH 9 10
BRANCH 9 17
ATOM     17  CB  PHE E  45      21.531 -13.245  18.079  1.00 43.03 LIG 0.07  C 
BRANCH 17 18
ATOM     18  CG  PHE E  45      21.670 -12.767  16.656  1.00 41.93 LIG-0.06  A 
ATOM     19  CD2 PHE E  45      20.706 -11.938  16.083  1.00 42.38 LIG 0.01  A 
ATOM     20  CE2 PHE E  45      20.850 -11.472  14.773  1.00 42.73 LIG 0.00  A 
ATOM     21  CZ  PHE E  45      21.965 -11.837  14.025  1.00 42.74 LIG 0.00  A 
ATOM     22  CE1 PHE E  45      22.935 -12.663  14.586  1.00 41.89 LIG 0.00  A 
ATOM     23  CD1 PHE E  45      22.782 -13.123  15.897  1.00 42.01 LIG 0.01  A 
ENDBRANCH 17 18
ENDBRANCH 9 17
ENDBRANCH 6 9
ENDBRANCH 1 5
BRANCH 1 24
ATOM     24  N   SER E  44      23.561  -8.627  19.011  1.00 46.50 LIG-0.34  N 
ATOM     25  C   PHE E  43      24.304  -7.547  18.913  1.00 47.40 LIG 0.24  C 
ATOM     26 O    PHE E  43      23.838  -6.471  18.546  1.00 45.80 LIG-0.27  OA
ATOM     27 H    SER E  44      23.838  -9.408  19.240  1.00 46.50 LIG 0.16  HD
BRANCH 25 28
ATOM     28  CA  PHE E  43      25.776  -7.694  19.225  1.00 47.87 LIG 0.18  C 
BRANCH 28 29
ATOM     29  CB  PHE E  43      26.192  -6.579  20.179  1.00 42.32 LIG 0.07  C 
BRANCH 29 30
ATOM     30  CG  PHE E  43      26.042  -5.169  19.636  1.00 35.12 LIG-0.06  A 
ATOM     31  CD2 PHE E  43      26.796  -4.679  18.561  1.00 32.72 LIG 0.01  A 
ATOM     32  CE2 PHE E  43      26.631  -3.335  18.127  1.00 30.40 LIG 0.00  A 
ATOM     33  CZ  PHE E  43      25.710  -2.499  18.771  1.00 28.92 LIG 0.00  A 
ATOM     34  CE1 PHE E  43      24.967  -2.995  19.836  1.00 29.46 LIG 0.00  A 
ATOM     35  CD1 PHE E  43      25.141  -4.317  20.255  1.00 34.02 LIG 0.01  A 
ENDBRANCH 29 30
ENDBRANCH 28 29
BRANCH 28 36
ATOM     36  N   PHE E  43      26.280  -7.474  17.900  1.00 51.92 LIG-0.35  N 
ATOM     37  C   GLY E  42      27.464  -7.824  17.433  1.00 55.92 LIG 0.25  C 
ATOM     38 O    GLY E  42      28.358  -8.400  18.069  1.00 57.26 LIG-0.27  OA
ATOM     39 H    PHE E  43      25.708  -7.066  17.403  1.00 51.92 LIG 0.16  HD
BRANCH 37 40
ATOM     40  CA  GLY E  42      27.614  -7.439  15.982  1.00 58.33 LIG 0.47  C 
ATOM     41  N   GLY E  42      27.820  -6.037  15.748  1.00 60.94 LIG 0.61  N 
ENDBRANCH 37 40
ENDBRANCH 28 36
ENDBRANCH 25 28
ENDBRANCH 1 24
TORSDOF 15
ENDMDL
MODEL 74
USER: ADFR SOLUTION from run 122
USER: SCORE 11.774199 LL:  -3.360 LR:  -9.792 RR:   0.000 FEB:  -5.317
USER: RMSD 4.955578
USER: SEED 121
USER: STATUS no improvement in best in 10 clusters for 5 generations
USER: GENES 17
USER: genes 0 Translation |==|  0.43616 0.42860 0.76376
USER: genes 1 Rotation |==|  0.58910 0.24068 0.46361 0.91652
USER: genes 2 Torsion [C]-CA--CB-[OG] |==|  0.12034
USER: genes 3 Torsion [CA]-CB--OG-[HG] |==|  0.55519
USER: genes 4 Torsion [N]-CA--C-[N] |==|  0.86118
USER: genes 5 Torsion [C]-N--CA-[C] |==|  0.78449
USER: genes 6 Torsion [N]-CA--C-[N] |==|  0.91899
USER: genes 7 Torsion [C]-N--CA-[C] |==|  0.30693
USER: genes 8 Torsion [N]-CA--C-[O] |==|  0.25057
USER: genes 9 Torsion [N]-CA--CB-[CG] |==|  0.26450
USER: genes 10 Torsion [CA]-CB--CG-[CD2] |==|  0.27206
USER: genes 11 Torsion [CB]-CA--N-[C] |==|  0.42492
USER: genes 12 Torsion [N]-C--CA-[N] |==|  0.95291
USER: genes 13 Torsion [C]-CA--CB-[CG] |==|  0.25632
USER: genes 14 Torsion [CA]-CB--CG-[CD2] |==|  0.32501
USER: genes 15 Torsion [C]-CA--N-[C] |==|  0.77873
USER: genes 16 Torsion [N]-C--CA-[N] |==|  0.32058
ROOT
ATOM      1  CA  SER E  44      24.970  -8.985  21.892  1.00 44.79 LIG 0.20  C 
ENDROOT
BRANCH 1 2
ATOM      2  CB  SER E  44      25.887 -10.175  22.168  1.00 46.10 LIG 0.20  C 
BRANCH 2 3
ATOM      3 OG   SER E  44      26.351 -10.136  23.502  1.00 47.85 LIG-0.40  OA
ATOM      4 HG   SER E  44      27.042 -10.608  23.573  1.00 47.85 LIG 0.21  HD
ENDBRANCH 2 3
ENDBRANCH 1 2
BRANCH 1 5
ATOM      5  C   SER E  44      25.565  -7.729  22.488  1.00 42.78 LIG 0.24  C 
ATOM      6  N   PHE E  45      26.615  -7.245  21.843  1.00 43.36 LIG-0.35  N 
ATOM      7 H    PHE E  45      26.961  -7.609  21.144  1.00 43.36 LIG 0.16  HD
ATOM      8 O    SER E  44      25.110  -7.224  23.516  1.00 37.54 LIG-0.27  OA
BRANCH 6 9
ATOM      9  CA  PHE E  45      27.281  -6.030  22.282  1.00 46.68 LIG 0.18  C 
BRANCH 9 10
ATOM     10  C   PHE E  45      26.442  -4.839  21.841  1.00 48.11 LIG 0.24  C 
ATOM     11 O    PHE E  45      26.454  -3.789  22.487  1.00 49.85 LIG-0.27  OA
ATOM     12  N   GLY E  46      25.715  -4.991  20.741  1.00 50.71 LIG-0.35  N 
ATOM     13 H    GLY E  46      25.679  -5.706  20.266  1.00 50.71 LIG 0.16  HD
BRANCH 12 14
ATOM     14  CA  GLY E  46      24.904  -3.885  20.270  1.00 54.23 LIG 0.21  C 
BRANCH 14 15
ATOM     15  C   GLY E  46      25.426  -3.285  18.984  1.00 55.55 LIG 0.21  C 
ATOM     16 O    GLY E  46      25.000  -3.759  17.914  1.00 59.11 LIG-0.29  OA
ENDBRANCH 14 15
ENDBRANCH 12 14
ENDBRANCH 9 10
BRANCH 9 17
ATOM     17  CB  PHE E  45      28.689  -5.938  21.683  1.00 43.03 LIG 0.07  C 
BRANCH 17 18
ATOM     18  CG  PHE E  45      28.759  -5.123  20.418  1.00 41.93 LIG-0.06  A 
ATOM     19  CD2 PHE E  45      29.164  -3.789  20.447  1.00 42.38 LIG 0.01  A 
ATOM     20  CE2 PHE E  45      29.256  -3.042  19.270  1.00 42.73 LIG 0.00  A 
ATOM     21  CZ  PHE E  45      28.941  -3.631  18.049  1.00 42.74 LIG 0.00  A 
ATOM     22  CE1 PHE E  45      28.537  -4.962  18.005  1.00 41.89 LIG 0.00  A 
ATOM     23  CD1 PHE E  45      28.448  -5.700  19.188  1.00 42.01 LIG 0.01  A 
ENDBRANCH 17 18
ENDBRANCH 9 17
ENDBRANCH 6 9
ENDBRANCH 1 5
BRANCH 1 24
ATOM     24  N   SER E  44      24.726  -8.863  20.470  1.00 46.50 LIG-0.34  N 
ATOM     25  C   PHE E  43      23.604  -8.300  20.079  1.00 47.40 LIG 0.24  C 
ATOM     26 O    PHE E  43      22.758  -7.914  20.882  1.00 45.80 LIG-0.27  OA
ATOM     27 H    SER E  44      25.341  -9.171  19.954  1.00 46.50 LIG 0.16  HD
BRANCH 25 28
ATOM     28  CA  PHE E  43      23.373  -8.191  18.588  1.00 47.87 LIG 0.18  C 
BRANCH 28 29
ATOM     29  CB  PHE E  43      22.452  -9.327  18.150  1.00 42.32 LIG 0.07  C 
BRANCH 29 30
ATOM     30  CG  PHE E  43      20.971  -8.995  18.139  1.00 35.12 LIG-0.06  A 
ATOM     31  CD2 PHE E  43      20.194  -9.003  16.974  1.00 32.72 LIG 0.01  A 
ATOM     32  CE2 PHE E  43      18.819  -8.645  17.029  1.00 30.40 LIG 0.00  A 
ATOM     33  CZ  PHE E  43      18.237  -8.289  18.253  1.00 28.92 LIG 0.00  A 
ATOM     34  CE1 PHE E  43      19.017  -8.284  19.403  1.00 29.46 LIG 0.00  A 
ATOM     35  CD1 PHE E  43      20.368  -8.635  19.334  1.00 34.02 LIG 0.01  A 
ENDBRANCH 29 30
ENDBRANCH 28 29
BRANCH 28 36
ATOM     36  N   PHE E  43      24.724  -8.411  18.163  1.00 51.92 LIG-0.35  N 
ATOM     37  C   GLY E  42      25.707  -7.529  18.154  1.00 55.92 LIG 0.25  C 
ATOM     38 O    GLY E  42      25.626  -6.344  18.505  1.00 57.26 LIG-0.27  OA
ATOM     39 H    PHE E  43      24.849  -9.219  17.896  1.00 51.92 LIG 0.16  HD
BRANCH 37 40
ATOM     40  CA  GLY E  42      26.990  -8.148  17.658  1.00 58.33 LIG 0.47  C 
ATOM     41  N   GLY E  42      27.485  -7.605  16.425  1.00 60.94 LIG 0.61  N 
ENDBRANCH 37 40
ENDBRANCH 28 36
ENDBRANCH 25 28
ENDBRANCH 1 24
TORSDOF 15
ENDMDL
MODEL 75
USER: ADFR SOLUTION from run 57
USER: SCORE 11.604018 LL:  -2.506 LR:  -9.792 RR:   0.000 FEB:  -5.317
USER: RMSD 8.431506
USER: SEED 56
USER: STATUS no improvement in best in 13 clusters for 5 generations
USER: GENES 17
USER: genes 0 Translation |==|  0.51422 0.41332 0.42433
USER: genes 1 Rotation |==|  0.12669 0.82774 0.44668 0.51953
USER: genes 2 Torsion [C]-CA--CB-[OG] |==|  0.13204
USER: genes 3 Torsion [CA]-CB--OG-[HG] |==|  0.04820
USER: genes 4 Torsion [N]-CA--C-[N] |==|  0.06884
USER: genes 5 Torsion [C]-N--CA-[C] |==|  0.83118
USER: genes 6 Torsion [N]-CA--C-[N] |==|  0.91726
USER: genes 7 Torsion [C]-N--CA-[C] |==|  0.53580
USER: genes 8 Torsion [N]-CA--C-[O] |==|  0.04911
USER: genes 9 Torsion [N]-CA--CB-[CG] |==|  0.48444
USER: genes 10 Torsion [CA]-CB--CG-[CD2] |==|  0.73703
USER: genes 11 Torsion [CB]-CA--N-[C] |==|  0.19444
USER: genes 12 Torsion [N]-C--CA-[N] |==|  0.53188
USER: genes 13 Torsion [C]-CA--CB-[CG] |==|  0.36774
USER: genes 14 Torsion [CA]-CB--CG-[CD2] |==|  0.25044
USER: genes 15 Torsion [C]-CA--N-[C] |==|  0.56011
USER: genes 16 Torsion [N]-C--CA-[N] |==|  0.35677
ROOT
ATOM      1  CA  SER E  44      26.785  -9.294  17.564  1.00 44.79 LIG 0.20  C 
ENDROOT
BRANCH 1 2
ATOM      2  CB  SER E  44      27.836 -10.110  18.314  1.00 46.10 LIG 0.20  C 
BRANCH 2 3
ATOM      3 OG   SER E  44      27.581 -11.491  18.169  1.00 47.85 LIG-0.40  OA
ATOM      4 HG   SER E  44      27.059 -11.614  17.522  1.00 47.85 LIG 0.21  HD
ENDBRANCH 2 3
ENDBRANCH 1 2
BRANCH 1 5
ATOM      5  C   SER E  44      25.403  -9.812  17.894  1.00 42.78 LIG 0.24  C 
ATOM      6  N   PHE E  45      24.447  -8.896  17.897  1.00 43.36 LIG-0.35  N 
ATOM      7 H    PHE E  45      24.579  -8.060  17.740  1.00 43.36 LIG 0.16  HD
ATOM      8 O    SER E  44      25.206 -10.998  18.167  1.00 37.54 LIG-0.27  OA
BRANCH 6 9
ATOM      9  CA  PHE E  45      23.063  -9.245  18.172  1.00 46.68 LIG 0.18  C 
BRANCH 9 10
ATOM     10  C   PHE E  45      22.599 -10.235  17.113  1.00 48.11 LIG 0.24  C 
ATOM     11 O    PHE E  45      21.737 -11.076  17.374  1.00 49.85 LIG-0.27  OA
ATOM     12  N   GLY E  46      23.162 -10.141  15.916  1.00 50.71 LIG-0.35  N 
ATOM     13 H    GLY E  46      23.767  -9.571  15.696  1.00 50.71 LIG 0.16  HD
BRANCH 12 14
ATOM     14  CA  GLY E  46      22.752 -11.053  14.866  1.00 54.23 LIG 0.21  C 
BRANCH 14 15
ATOM     15  C   GLY E  46      23.685 -11.031  13.677  1.00 55.55 LIG 0.21  C 
ATOM     16 O    GLY E  46      24.818 -10.541  13.844  1.00 59.11 LIG-0.29  OA
ENDBRANCH 14 15
ENDBRANCH 12 14
ENDBRANCH 9 10
BRANCH 9 17
ATOM     17  CB  PHE E  45      22.176  -7.996  18.155  1.00 43.03 LIG 0.07  C 
BRANCH 17 18
ATOM     18  CG  PHE E  45      20.705  -8.292  18.300  1.00 41.93 LIG-0.06  A 
ATOM     19  CD2 PHE E  45      19.888  -8.425  17.178  1.00 42.38 LIG 0.01  A 
ATOM     20  CE2 PHE E  45      18.530  -8.728  17.313  1.00 42.73 LIG 0.00  A 
ATOM     21  CZ  PHE E  45      17.980  -8.900  18.579  1.00 42.74 LIG 0.00  A 
ATOM     22  CE1 PHE E  45      18.786  -8.772  19.707  1.00 41.89 LIG 0.00  A 
ATOM     23  CD1 PHE E  45      20.142  -8.469  19.562  1.00 42.01 LIG 0.01  A 
ENDBRANCH 17 18
ENDBRANCH 9 17
ENDBRANCH 6 9
ENDBRANCH 1 5
BRANCH 1 24
ATOM     24  N   SER E  44      26.937  -7.887  17.866  1.00 46.50 LIG-0.34  N 
ATOM     25  C   PHE E  43      27.991  -7.261  17.391  1.00 47.40 LIG 0.24  C 
ATOM     26 O    PHE E  43      28.852  -7.844  16.738  1.00 45.80 LIG-0.27  OA
ATOM     27 H    SER E  44      26.317  -7.534  18.347  1.00 46.50 LIG 0.16  HD
BRANCH 25 28
ATOM     28  CA  PHE E  43      28.128  -5.793  17.728  1.00 47.87 LIG 0.18  C 
BRANCH 28 29
ATOM     29  CB  PHE E  43      26.833  -5.079  17.351  1.00 42.32 LIG 0.07  C 
BRANCH 29 30
ATOM     30  CG  PHE E  43      26.269  -4.152  18.412  1.00 35.12 LIG-0.06  A 
ATOM     31  CD2 PHE E  43      26.603  -2.794  18.497  1.00 32.72 LIG 0.01  A 
ATOM     32  CE2 PHE E  43      26.066  -1.990  19.541  1.00 30.40 LIG 0.00  A 
ATOM     33  CZ  PHE E  43      25.198  -2.556  20.484  1.00 28.92 LIG 0.00  A 
ATOM     34  CE1 PHE E  43      24.874  -3.904  20.390  1.00 29.46 LIG 0.00  A 
ATOM     35  CD1 PHE E  43      25.410  -4.683  19.362  1.00 34.02 LIG 0.01  A 
ENDBRANCH 29 30
ENDBRANCH 28 29
BRANCH 28 36
ATOM     36  N   PHE E  43      29.190  -5.480  16.816  1.00 51.92 LIG-0.35  N 
ATOM     37  C   GLY E  42      30.028  -4.463  16.893  1.00 55.92 LIG 0.25  C 
ATOM     38 O    GLY E  42      30.034  -3.587  17.769  1.00 57.26 LIG-0.27  OA
ATOM     39 H    PHE E  43      29.238  -6.049  16.173  1.00 51.92 LIG 0.16  HD
BRANCH 37 40
ATOM     40  CA  GLY E  42      31.021  -4.488  15.757  1.00 58.33 LIG 0.47  C 
ATOM     41  N   GLY E  42      31.130  -3.259  15.023  1.00 60.94 LIG 0.61  N 
ENDBRANCH 37 40
ENDBRANCH 28 36
ENDBRANCH 25 28
ENDBRANCH 1 24
TORSDOF 15
ENDMDL
MODEL 76
USER: ADFR SOLUTION from run 151
USER: SCORE 11.744263 LL:  -3.036 LR:  -9.783 RR:   0.000 FEB:  -5.308
USER: RMSD 2.943446
USER: SEED 150
USER: STATUS no improvement in best in 6 clusters for 5 generations
USER: GENES 17
USER: genes 0 Translation |==|  0.51128 0.44941 0.51078
USER: genes 1 Rotation |==|  0.49309 0.47256 0.42901 0.99413
USER: genes 2 Torsion [C]-CA--CB-[OG] |==|  0.46108
USER: genes 3 Torsion [CA]-CB--OG-[HG] |==|  0.00763
USER: genes 4 Torsion [N]-CA--C-[N] |==|  0.99530
USER: genes 5 Torsion [C]-N--CA-[C] |==|  0.18332
USER: genes 6 Torsion [N]-CA--C-[N] |==|  0.08867
USER: genes 7 Torsion [C]-N--CA-[C] |==|  0.39209
USER: genes 8 Torsion [N]-CA--C-[O] |==|  0.96714
USER: genes 9 Torsion [N]-CA--CB-[CG] |==|  0.83244
USER: genes 10 Torsion [CA]-CB--CG-[CD2] |==|  0.38349
USER: genes 11 Torsion [CB]-CA--N-[C] |==|  0.25556
USER: genes 12 Torsion [N]-C--CA-[N] |==|  0.31682
USER: genes 13 Torsion [C]-CA--CB-[CG] |==|  0.51444
USER: genes 14 Torsion [CA]-CB--CG-[CD2] |==|  0.43723
USER: genes 15 Torsion [C]-CA--N-[C] |==|  0.63622
USER: genes 16 Torsion [N]-C--CA-[N] |==|  0.29566
ROOT
ATOM      1  CA  SER E  44      26.716  -8.564  18.666  1.00 44.79 LIG 0.20  C 
ENDROOT
BRANCH 1 2
ATOM      2  CB  SER E  44      27.428  -9.878  18.352  1.00 46.10 LIG 0.20  C 
BRANCH 2 3
ATOM      3 OG   SER E  44      26.870 -10.931  19.112  1.00 47.85 LIG-0.40  OA
ATOM      4 HG   SER E  44      26.227 -10.639  19.566  1.00 47.85 LIG 0.21  HD
ENDBRANCH 2 3
ENDBRANCH 1 2
BRANCH 1 5
ATOM      5  C   SER E  44      27.522  -7.403  18.127  1.00 42.78 LIG 0.24  C 
ATOM      6  N   PHE E  45      26.885  -6.635  17.256  1.00 43.36 LIG-0.35  N 
ATOM      7 H    PHE E  45      26.079  -6.774  16.990  1.00 43.36 LIG 0.16  HD
ATOM      8 O    SER E  44      28.693  -7.219  18.463  1.00 37.54 LIG-0.27  OA
BRANCH 6 9
ATOM      9  CA  PHE E  45      27.521  -5.467  16.669  1.00 46.68 LIG 0.18  C 
BRANCH 9 10
ATOM     10  C   PHE E  45      28.674  -5.938  15.794  1.00 48.11 LIG 0.24  C 
ATOM     11 O    PHE E  45      29.686  -5.247  15.664  1.00 49.85 LIG-0.27  OA
ATOM     12  N   GLY E  46      28.531  -7.113  15.195  1.00 50.71 LIG-0.35  N 
ATOM     13 H    GLY E  46      27.841  -7.622  15.259  1.00 50.71 LIG 0.16  HD
BRANCH 12 14
ATOM     14  CA  GLY E  46      29.602  -7.614  14.356  1.00 54.23 LIG 0.21  C 
BRANCH 14 15
ATOM     15  C   GLY E  46      29.807  -9.105  14.501  1.00 55.55 LIG 0.21  C 
ATOM     16 O    GLY E  46      29.228  -9.676  15.445  1.00 59.11 LIG-0.29  OA
ENDBRANCH 14 15
ENDBRANCH 12 14
ENDBRANCH 9 10
BRANCH 9 17
ATOM     17  CB  PHE E  45      28.036  -4.525  17.763  1.00 43.03 LIG 0.07  C 
BRANCH 17 18
ATOM     18  CG  PHE E  45      26.955  -4.006  18.677  1.00 41.93 LIG-0.06  A 
ATOM     19  CD2 PHE E  45      27.161  -3.922  20.053  1.00 42.38 LIG 0.01  A 
ATOM     20  CE2 PHE E  45      26.169  -3.414  20.896  1.00 42.73 LIG 0.00  A 
ATOM     21  CZ  PHE E  45      24.957  -2.986  20.362  1.00 42.74 LIG 0.00  A 
ATOM     22  CE1 PHE E  45      24.740  -3.064  18.990  1.00 41.89 LIG 0.00  A 
ATOM     23  CD1 PHE E  45      25.738  -3.573  18.155  1.00 42.01 LIG 0.01  A 
ENDBRANCH 17 18
ENDBRANCH 9 17
ENDBRANCH 6 9
ENDBRANCH 1 5
BRANCH 1 24
ATOM     24  N   SER E  44      25.366  -8.591  18.146  1.00 46.50 LIG-0.34  N 
ATOM     25  C   PHE E  43      24.404  -9.008  18.940  1.00 47.40 LIG 0.24  C 
ATOM     26 O    PHE E  43      24.629  -9.402  20.081  1.00 45.80 LIG-0.27  OA
ATOM     27 H    SER E  44      25.268  -8.327  17.334  1.00 46.50 LIG 0.16  HD
BRANCH 25 28
ATOM     28  CA  PHE E  43      23.004  -9.033  18.368  1.00 47.87 LIG 0.18  C 
BRANCH 28 29
ATOM     29  CB  PHE E  43      22.064  -8.322  19.338  1.00 42.32 LIG 0.07  C 
BRANCH 29 30
ATOM     30  CG  PHE E  43      20.593  -8.367  18.969  1.00 35.12 LIG-0.06  A 
ATOM     31  CD2 PHE E  43      19.564  -8.199  19.904  1.00 32.72 LIG 0.01  A 
ATOM     32  CE2 PHE E  43      18.204  -8.290  19.496  1.00 30.40 LIG 0.00  A 
ATOM     33  CZ  PHE E  43      17.892  -8.545  18.154  1.00 28.92 LIG 0.00  A 
ATOM     34  CE1 PHE E  43      18.921  -8.711  17.234  1.00 29.46 LIG 0.00  A 
ATOM     35  CD1 PHE E  43      20.252  -8.622  17.649  1.00 34.02 LIG 0.01  A 
ENDBRANCH 29 30
ENDBRANCH 28 29
BRANCH 28 36
ATOM     36  N   PHE E  43      22.808 -10.453  18.386  1.00 51.92 LIG-0.35  N 
ATOM     37  C   GLY E  42      22.368 -11.207  17.396  1.00 55.92 LIG 0.25  C 
ATOM     38 O    GLY E  42      22.033 -10.810  16.271  1.00 57.26 LIG-0.27  OA
ATOM     39 H    PHE E  43      23.016 -10.796  19.148  1.00 51.92 LIG 0.16  HD
BRANCH 37 40
ATOM     40  CA  GLY E  42      22.322 -12.661  17.795  1.00 58.33 LIG 0.47  C 
ATOM     41  N   GLY E  42      21.005 -13.182  18.028  1.00 60.94 LIG 0.61  N 
ENDBRANCH 37 40
ENDBRANCH 28 36
ENDBRANCH 25 28
ENDBRANCH 1 24
TORSDOF 15
ENDMDL
