MODEL 1
USER: ADFR SOLUTION from run 73
USER: SCORE 19.248865 LL:  -2.991 LR: -17.039 RR:   0.000 FEB: -11.073
USER: RMSD 7.680325
USER: SEED 72
USER: STATUS no improvement in best in 8 clusters for 5 generations
USER: GENES 22
USER: genes 0 Translation |==|  0.29579 0.35424 0.47418
USER: genes 1 Rotation |==|  0.95915 0.68620 0.45666 0.55130
USER: genes 2 Torsion [CB]-CA--N-[C] |==|  0.84957
USER: genes 3 Torsion [N]-C--CA-[N] |==|  0.36917
USER: genes 4 Torsion [C]-CA--CB-[CG] |==|  0.32183
USER: genes 5 Torsion [CA]-CB--CG-[ND2] |==|  0.64282
USER: genes 6 Torsion [C]-CA--N-[C] |==|  0.70001
USER: genes 7 Torsion [N]-C--CA-[N] |==|  0.72465
USER: genes 8 Torsion [C]-CA--CB-[CG] |==|  0.28015
USER: genes 9 Torsion [CA]-CB--CG-[CD] |==|  0.97235
USER: genes 10 Torsion [CB]-CG--CD-[NE] |==|  0.25766
USER: genes 11 Torsion [CG]-CD--NE-[HE] |==|  0.93386
USER: genes 12 Torsion [N]-CA--CB-[CG] |==|  0.60320
USER: genes 13 Torsion [CA]-CB--CG-[CD2] |==|  0.76943
USER: genes 14 Torsion [N]-CA--C-[N] |==|  0.95445
USER: genes 15 Torsion [C]-N--CA-[C] |==|  0.83144
USER: genes 16 Torsion [N]-CA--CB-[CG] |==|  0.49068
USER: genes 17 Torsion [CA]-CB--CG-[CD2] |==|  0.15219
USER: genes 18 Torsion [N]-CA--C-[N] |==|  0.38227
USER: genes 19 Torsion [C]-N--CA-[C] |==|  0.27754
USER: genes 20 Torsion [N]-CA--C-[N] |==|  0.35957
USER: genes 21 Torsion [N]-CA--C-[OXT] |==|  0.89518
ROOT
ATOM      1  CA  LEU E  32       9.456 150.803  70.807  1.00142.86 LIG 0.18  C 
ENDROOT
BRANCH 1 2
ATOM      2  N   LEU E  32       8.516 150.037  71.625  1.00142.97 LIG-0.35  N 
ATOM      3 H    LEU E  32       8.212 149.329  71.243  1.00142.97 LIG 0.16  HD
ATOM      4  C   ASN E  31       8.175 150.420  72.852  1.00143.13 LIG 0.24  C 
ATOM      5 O    ASN E  31       8.553 151.478  73.348  1.00142.70 LIG-0.27  OA
BRANCH 4 6
ATOM      6  CA  ASN E  31       7.275 149.463  73.641  1.00143.53 LIG 0.18  C 
BRANCH 6 7
ATOM      7  CB  ASN E  31       5.847 150.008  73.710  1.00143.35 LIG 0.14  C 
BRANCH 7 8
ATOM      8  CG  ASN E  31       4.846 149.125  73.000  1.00142.31 LIG 0.22  C 
ATOM      9  ND2 ASN E  31       4.053 149.721  72.119  1.00140.74 LIG-0.37  N 
ATOM     10 21HD ASN E  31       3.497 149.255  71.657  1.00140.74 LIG 0.16  HD
ATOM     11 22HD ASN E  31       4.096 150.573  72.009  1.00140.74 LIG 0.16  HD
ATOM     12 OD1  ASN E  31       4.826 147.912  73.196  1.00141.61 LIG-0.27  OA
ENDBRANCH 7 8
ENDBRANCH 6 7
BRANCH 6 13
ATOM     13  N   ASN E  31       7.774 149.261  74.996  1.00144.28 LIG-0.34  N 
ATOM     14  C   ARG E  30       8.335 148.120  75.382  1.00145.24 LIG 0.26  C 
ATOM     15 O    ARG E  30       8.262 147.087  74.723  1.00145.16 LIG-0.27  OA
ATOM     16 H    ASN E  31       7.670 149.941  75.513  1.00144.28 LIG 0.16  HD
BRANCH 14 17
ATOM     17  CA  ARG E  30       9.037 148.139  76.745  1.00146.00 LIG 0.40  C 
ATOM     18  N   ARG E  30      10.513 148.304  76.619  1.00146.11 LIG 0.61  N 
BRANCH 17 19
ATOM     19  CB  ARG E  30       8.453 149.261  77.605  1.00146.54 LIG 0.05  C 
BRANCH 19 20
ATOM     20  CG  ARG E  30       7.445 148.774  78.638  1.00147.66 LIG 0.02  C 
BRANCH 20 21
ATOM     21  CD  ARG E  30       7.032 147.324  78.467  1.00149.13 LIG 0.14  C 
BRANCH 21 22
ATOM     22  NE  ARG E  30       7.854 146.415  79.263  1.00150.31 LIG-0.23  N 
ATOM     23 HE   ARG E  30       8.641 146.679  79.487  1.00150.31 LIG 0.18  HD
ATOM     24  CZ  ARG E  30       7.469 145.211  79.664  1.00151.12 LIG 0.67  C 
ATOM     25  NH1 ARG E  30       6.256 144.765  79.367  1.00151.59 LIG-0.23  N 
ATOM     26  NH2 ARG E  30       8.295 144.450  80.368  1.00151.52 LIG-0.23  N 
ATOM     27 1HH1 ARG E  30       5.716 145.257  78.913  1.00151.59 LIG 0.17  HD
ATOM     28 2HH1 ARG E  30       6.010 143.984  79.628  1.00151.59 LIG 0.17  HD
ATOM     29 1HH2 ARG E  30       9.081 144.736  80.565  1.00151.52 LIG 0.17  HD
ATOM     30 2HH2 ARG E  30       8.045 143.669  80.627  1.00151.52 LIG 0.17  HD
ENDBRANCH 21 22
ENDBRANCH 20 21
ENDBRANCH 19 20
ENDBRANCH 17 19
ENDBRANCH 14 17
ENDBRANCH 6 13
ENDBRANCH 4 6
ENDBRANCH 1 2
BRANCH 1 31
ATOM     31  CB  LEU E  32       8.993 152.258  70.695  1.00142.51 LIG 0.04  C 
BRANCH 31 32
ATOM     32  CG  LEU E  32       9.217 152.951  69.352  1.00140.78 LIG-0.02  C 
ATOM     33  CD1 LEU E  32       8.210 154.065  69.170  1.00139.49 LIG 0.01  C 
ATOM     34  CD2 LEU E  32      10.629 153.487  69.250  1.00139.97 LIG 0.01  C 
ENDBRANCH 31 32
ENDBRANCH 1 31
BRANCH 1 35
ATOM     35  C   LEU E  32      10.897 150.767  71.328  1.00143.34 LIG 0.24  C 
ATOM     36  N   PHE E  33      11.069 150.361  72.584  1.00143.72 LIG-0.35  N 
ATOM     37 H    PHE E  33      10.447 150.015  73.066  1.00143.72 LIG 0.16  HD
ATOM     38 O    LEU E  32      11.827 151.151  70.622  1.00143.58 LIG-0.27  OA
BRANCH 36 39
ATOM     39  CA  PHE E  33      12.360 150.474  73.260  1.00144.11 LIG 0.18  C 
BRANCH 39 40
ATOM     40  CB  PHE E  33      12.239 150.004  74.703  1.00143.74 LIG 0.07  C 
BRANCH 40 41
ATOM     41  CG  PHE E  33      13.534 150.013  75.441  1.00143.08 LIG-0.06  A 
ATOM     42  CD2 PHE E  33      14.297 151.163  75.512  1.00142.72 LIG 0.01  A 
ATOM     43  CE2 PHE E  33      15.488 151.174  76.203  1.00141.76 LIG 0.00  A 
ATOM     44  CZ  PHE E  33      15.920 150.039  76.846  1.00141.29 LIG 0.00  A 
ATOM     45  CE1 PHE E  33      15.162 148.890  76.795  1.00141.79 LIG 0.00  A 
ATOM     46  CD1 PHE E  33      13.976 148.880  76.098  1.00142.36 LIG 0.01  A 
ENDBRANCH 40 41
ENDBRANCH 39 40
BRANCH 39 47
ATOM     47  C   PHE E  33      13.470 149.690  72.574  1.00145.05 LIG 0.24  C 
ATOM     48 O    PHE E  33      13.250 148.568  72.120  1.00145.07 LIG-0.27  OA
ATOM     49  N   GLY E  34      14.651 150.289  72.469  1.00146.17 LIG-0.35  N 
ATOM     50 H    GLY E  34      14.803 151.099  72.714  1.00146.17 LIG 0.16  HD
BRANCH 49 51
ATOM     51  CA  GLY E  34      15.804 149.599  71.919  1.00147.07 LIG 0.23  C 
BRANCH 51 52
ATOM     52  C   GLY E  34      16.032 149.990  70.470  1.00147.85 LIG 0.24  C 
ATOM     53  N   PRO E  35      17.261 150.375  70.138  1.00148.70 LIG-0.34  N 
ATOM     54  CA  PRO E  35      17.592 150.780  68.768  1.00149.01 LIG 0.19  C 
ATOM     55  CD  PRO E  35      18.441 150.401  71.022  1.00148.94 LIG 0.13  C 
ATOM     56  CB  PRO E  35      19.117 150.976  68.818  1.00149.16 LIG 0.04  C 
ATOM     57  CG  PRO E  35      19.564 150.230  70.041  1.00149.11 LIG 0.02  C 
ATOM     58 O    GLY E  34      15.111 149.926  69.650  1.00147.94 LIG-0.27  OA
BRANCH 54 59
ATOM     59  C   PRO E  35      17.208 149.703  67.750  1.00149.03 LIG 0.20  C 
ATOM     60 OXT  PRO E  35      17.341 148.505  67.994  1.00149.10 LIG-0.65  OA
ATOM     61 O    PRO E  35      16.701 149.981  66.661  1.00148.99 LIG-0.65  OA
ENDBRANCH 54 59
ENDBRANCH 51 52
ENDBRANCH 49 51
ENDBRANCH 39 47
ENDBRANCH 36 39
ENDBRANCH 1 35
TORSDOF 20
ENDMDL
MODEL 2
USER: ADFR SOLUTION from run 65
USER: SCORE 19.248792 LL:  -3.618 LR: -16.590 RR:   0.000 FEB: -10.624
USER: RMSD 6.533418
USER: SEED 64
USER: STATUS searching
USER: GENES 22
USER: genes 0 Translation |==|  0.32295 0.33137 0.49828
USER: genes 1 Rotation |==|  0.95656 0.67834 0.50993 0.59823
USER: genes 2 Torsion [CB]-CA--N-[C] |==|  0.84444
USER: genes 3 Torsion [N]-C--CA-[N] |==|  0.31824
USER: genes 4 Torsion [C]-CA--CB-[CG] |==|  0.39846
USER: genes 5 Torsion [CA]-CB--CG-[ND2] |==|  0.76188
USER: genes 6 Torsion [C]-CA--N-[C] |==|  0.71801
USER: genes 7 Torsion [N]-C--CA-[N] |==|  0.92503
USER: genes 8 Torsion [C]-CA--CB-[CG] |==|  0.25911
USER: genes 9 Torsion [CA]-CB--CG-[CD] |==|  0.36320
USER: genes 10 Torsion [CB]-CG--CD-[NE] |==|  0.18442
USER: genes 11 Torsion [CG]-CD--NE-[HE] |==|  0.18367
USER: genes 12 Torsion [N]-CA--CB-[CG] |==|  0.64320
USER: genes 13 Torsion [CA]-CB--CG-[CD2] |==|  0.77956
USER: genes 14 Torsion [N]-CA--C-[N] |==|  0.37717
USER: genes 15 Torsion [C]-N--CA-[C] |==|  0.68902
USER: genes 16 Torsion [N]-CA--CB-[CG] |==|  0.29886
USER: genes 17 Torsion [CA]-CB--CG-[CD2] |==|  0.29912
USER: genes 18 Torsion [N]-CA--C-[N] |==|  0.95683
USER: genes 19 Torsion [C]-N--CA-[C] |==|  0.27038
USER: genes 20 Torsion [N]-CA--C-[N] |==|  0.15869
USER: genes 21 Torsion [N]-CA--C-[OXT] |==|  0.33070
ROOT
ATOM      1  CA  LEU E  32      10.006 150.340  71.331  1.00142.86 LIG 0.18  C 
ENDROOT
BRANCH 1 2
ATOM      2  N   LEU E  32       8.883 149.630  71.942  1.00142.97 LIG-0.35  N 
ATOM      3 H    LEU E  32       8.675 148.893  71.549  1.00142.97 LIG 0.16  HD
ATOM      4  C   ASN E  31       8.250 150.100  73.014  1.00143.13 LIG 0.24  C 
ATOM      5 O    ASN E  31       8.505 151.195  73.510  1.00142.70 LIG-0.27  OA
BRANCH 4 6
ATOM      6  CA  ASN E  31       7.171 149.198  73.620  1.00143.53 LIG 0.18  C 
BRANCH 6 7
ATOM      7  CB  ASN E  31       5.835 149.940  73.696  1.00143.35 LIG 0.14  C 
BRANCH 7 8
ATOM      8  CG  ASN E  31       4.649 149.045  73.419  1.00142.31 LIG 0.22  C 
ATOM      9  ND2 ASN E  31       4.317 148.882  72.145  1.00140.74 LIG-0.37  N 
ATOM     10 21HD ASN E  31       3.677 148.347  71.932  1.00140.74 LIG 0.16  HD
ATOM     11 22HD ASN E  31       4.742 149.310  71.531  1.00140.74 LIG 0.16  HD
ATOM     12 OD1  ASN E  31       4.075 148.458  74.333  1.00141.61 LIG-0.27  OA
ENDBRANCH 7 8
ENDBRANCH 6 7
BRANCH 6 13
ATOM     13  N   ASN E  31       7.543 148.750  74.957  1.00144.28 LIG-0.34  N 
ATOM     14  C   ARG E  30       8.026 147.534  75.189  1.00145.24 LIG 0.26  C 
ATOM     15 O    ARG E  30       7.972 146.629  74.361  1.00145.16 LIG-0.27  OA
ATOM     16 H    ASN E  31       7.420 149.340  75.571  1.00144.28 LIG 0.16  HD
BRANCH 14 17
ATOM     17  CA  ARG E  30       8.608 147.293  76.586  1.00146.00 LIG 0.40  C 
ATOM     18  N   ARG E  30       9.116 148.547  77.212  1.00146.11 LIG 0.61  N 
BRANCH 17 19
ATOM     19  CB  ARG E  30       7.544 146.652  77.479  1.00146.54 LIG 0.05  C 
BRANCH 19 20
ATOM     20  CG  ARG E  30       7.602 145.130  77.497  1.00147.66 LIG 0.02  C 
BRANCH 20 21
ATOM     21  CD  ARG E  30       7.586 144.525  78.888  1.00149.13 LIG 0.14  C 
BRANCH 21 22
ATOM     22  NE  ARG E  30       6.318 144.752  79.578  1.00150.31 LIG-0.23  N 
ATOM     23 HE   ARG E  30       5.615 144.373  79.261  1.00150.31 LIG 0.18  HD
ATOM     24  CZ  ARG E  30       6.177 145.505  80.662  1.00151.12 LIG 0.67  C 
ATOM     25  NH1 ARG E  30       7.233 146.093  81.207  1.00151.59 LIG-0.23  N 
ATOM     26  NH2 ARG E  30       4.980 145.667  81.206  1.00151.52 LIG-0.23  N 
ATOM     27 1HH1 ARG E  30       8.012 145.988  80.859  1.00151.59 LIG 0.17  HD
ATOM     28 2HH1 ARG E  30       7.138 146.581  81.909  1.00151.59 LIG 0.17  HD
ATOM     29 1HH2 ARG E  30       4.294 145.285  80.858  1.00151.52 LIG 0.17  HD
ATOM     30 2HH2 ARG E  30       4.890 146.156  81.908  1.00151.52 LIG 0.17  HD
ENDBRANCH 21 22
ENDBRANCH 20 21
ENDBRANCH 19 20
ENDBRANCH 17 19
ENDBRANCH 14 17
ENDBRANCH 6 13
ENDBRANCH 4 6
ENDBRANCH 1 2
BRANCH 1 31
ATOM     31  CB  LEU E  32       9.590 151.765  70.959  1.00142.51 LIG 0.04  C 
BRANCH 31 32
ATOM     32  CG  LEU E  32       9.873 152.214  69.526  1.00140.78 LIG-0.02  C 
ATOM     33  CD1 LEU E  32       8.965 153.366  69.157  1.00139.49 LIG 0.01  C 
ATOM     34  CD2 LEU E  32      11.326 152.607  69.361  1.00139.97 LIG 0.01  C 
ENDBRANCH 31 32
ENDBRANCH 1 31
BRANCH 1 35
ATOM     35  C   LEU E  32      11.257 150.391  72.216  1.00143.34 LIG 0.24  C 
ATOM     36  N   PHE E  33      12.421 150.141  71.620  1.00143.72 LIG-0.35  N 
ATOM     37 H    PHE E  33      12.519 150.072  70.768  1.00143.72 LIG 0.16  HD
ATOM     38 O    LEU E  32      11.161 150.600  73.423  1.00143.58 LIG-0.27  OA
BRANCH 36 39
ATOM     39  CA  PHE E  33      13.654 149.959  72.384  1.00144.11 LIG 0.18  C 
BRANCH 39 40
ATOM     40  CB  PHE E  33      14.306 148.633  72.018  1.00143.74 LIG 0.07  C 
BRANCH 40 41
ATOM     41  CG  PHE E  33      15.540 148.786  71.196  1.00143.08 LIG-0.06  A 
ATOM     42  CD2 PHE E  33      16.786 148.545  71.744  1.00142.72 LIG 0.01  A 
ATOM     43  CE2 PHE E  33      17.926 148.676  70.981  1.00141.76 LIG 0.00  A 
ATOM     44  CZ  PHE E  33      17.829 149.031  69.657  1.00141.29 LIG 0.00  A 
ATOM     45  CE1 PHE E  33      16.592 149.259  69.096  1.00141.79 LIG 0.00  A 
ATOM     46  CD1 PHE E  33      15.456 149.135  69.862  1.00142.36 LIG 0.01  A 
ENDBRANCH 40 41
ENDBRANCH 39 40
BRANCH 39 47
ATOM     47  C   PHE E  33      14.661 151.081  72.179  1.00145.05 LIG 0.24  C 
ATOM     48 O    PHE E  33      15.621 151.202  72.938  1.00145.07 LIG-0.27  OA
ATOM     49  N   GLY E  34      14.462 151.882  71.138  1.00146.17 LIG-0.35  N 
ATOM     50 H    GLY E  34      13.840 151.769  70.555  1.00146.17 LIG 0.16  HD
BRANCH 49 51
ATOM     51  CA  GLY E  34      15.305 153.041  70.902  1.00147.07 LIG 0.23  C 
BRANCH 51 52
ATOM     52  C   GLY E  34      16.393 152.726  69.892  1.00147.85 LIG 0.24  C 
ATOM     53  N   PRO E  35      15.997 152.287  68.701  1.00148.70 LIG-0.34  N 
ATOM     54  CA  PRO E  35      16.963 151.946  67.651  1.00149.01 LIG 0.19  C 
ATOM     55  CD  PRO E  35      14.605 152.135  68.240  1.00148.94 LIG 0.13  C 
ATOM     56  CB  PRO E  35      16.071 151.654  66.433  1.00149.16 LIG 0.04  C 
ATOM     57  CG  PRO E  35      14.753 152.295  66.755  1.00149.11 LIG 0.02  C 
ATOM     58 O    GLY E  34      17.582 152.895  70.176  1.00147.94 LIG-0.27  OA
BRANCH 54 59
ATOM     59  C   PRO E  35      17.923 153.104  67.366  1.00149.03 LIG 0.20  C 
ATOM     60 OXT  PRO E  35      19.138 152.991  67.526  1.00149.10 LIG-0.65  OA
ATOM     61 O    PRO E  35      17.534 154.183  66.915  1.00148.99 LIG-0.65  OA
ENDBRANCH 54 59
ENDBRANCH 51 52
ENDBRANCH 49 51
ENDBRANCH 39 47
ENDBRANCH 36 39
ENDBRANCH 1 35
TORSDOF 20
ENDMDL
MODEL 3
USER: ADFR SOLUTION from run 117
USER: SCORE 18.527613 LL:  -3.797 LR: -16.101 RR:   0.000 FEB: -10.135
USER: RMSD 6.369519
USER: SEED 116
USER: STATUS searching
USER: GENES 22
USER: genes 0 Translation |==|  0.30516 0.35429 0.47265
USER: genes 1 Rotation |==|  0.91134 0.73386 0.50710 0.66143
USER: genes 2 Torsion [CB]-CA--N-[C] |==|  0.78535
USER: genes 3 Torsion [N]-C--CA-[N] |==|  0.39416
USER: genes 4 Torsion [C]-CA--CB-[CG] |==|  0.47438
USER: genes 5 Torsion [CA]-CB--CG-[ND2] |==|  0.65347
USER: genes 6 Torsion [C]-CA--N-[C] |==|  0.72184
USER: genes 7 Torsion [N]-C--CA-[N] |==|  0.39976
USER: genes 8 Torsion [C]-CA--CB-[CG] |==|  0.93071
USER: genes 9 Torsion [CA]-CB--CG-[CD] |==|  0.62517
USER: genes 10 Torsion [CB]-CG--CD-[NE] |==|  0.06159
USER: genes 11 Torsion [CG]-CD--NE-[HE] |==|  0.97089
USER: genes 12 Torsion [N]-CA--CB-[CG] |==|  0.44054
USER: genes 13 Torsion [CA]-CB--CG-[CD2] |==|  0.49649
USER: genes 14 Torsion [N]-CA--C-[N] |==|  0.24065
USER: genes 15 Torsion [C]-N--CA-[C] |==|  0.76917
USER: genes 16 Torsion [N]-CA--CB-[CG] |==|  0.21158
USER: genes 17 Torsion [CA]-CB--CG-[CD2] |==|  0.22489
USER: genes 18 Torsion [N]-CA--C-[N] |==|  0.91667
USER: genes 19 Torsion [C]-N--CA-[C] |==|  0.43568
USER: genes 20 Torsion [N]-CA--C-[N] |==|  0.67216
USER: genes 21 Torsion [N]-CA--C-[OXT] |==|  0.30861
ROOT
ATOM      1  CA  LEU E  32       9.646 150.804  70.774  1.00142.86 LIG 0.18  C 
ENDROOT
BRANCH 1 2
ATOM      2  N   LEU E  32       8.694 150.014  71.553  1.00142.97 LIG-0.35  N 
ATOM      3 H    LEU E  32       8.493 149.255  71.201  1.00142.97 LIG 0.16  HD
ATOM      4  C   ASN E  31       8.193 150.449  72.706  1.00143.13 LIG 0.24  C 
ATOM      5 O    ASN E  31       8.425 151.570  73.151  1.00142.70 LIG-0.27  OA
BRANCH 4 6
ATOM      6  CA  ASN E  31       7.299 149.471  73.475  1.00143.53 LIG 0.18  C 
BRANCH 6 7
ATOM      7  CB  ASN E  31       5.824 149.749  73.179  1.00143.35 LIG 0.14  C 
BRANCH 7 8
ATOM      8  CG  ASN E  31       4.903 148.684  73.729  1.00142.31 LIG 0.22  C 
ATOM      9  ND2 ASN E  31       4.083 148.107  72.860  1.00140.74 LIG-0.37  N 
ATOM     10 21HD ASN E  31       3.570 147.465  73.114  1.00140.74 LIG 0.16  HD
ATOM     11 22HD ASN E  31       4.064 148.375  72.043  1.00140.74 LIG 0.16  HD
ATOM     12 OD1  ASN E  31       4.969 148.340  74.907  1.00141.61 LIG-0.27  OA
ENDBRANCH 7 8
ENDBRANCH 6 7
BRANCH 6 13
ATOM     13  N   ASN E  31       7.522 149.565  74.913  1.00144.28 LIG-0.34  N 
ATOM     14  C   ARG E  30       8.282 148.697  75.572  1.00145.24 LIG 0.26  C 
ATOM     15 O    ARG E  30       8.650 147.632  75.083  1.00145.16 LIG-0.27  OA
ATOM     16 H    ASN E  31       7.121 150.228  75.287  1.00144.28 LIG 0.16  HD
BRANCH 14 17
ATOM     17  CA  ARG E  30       8.631 149.064  77.018  1.00146.00 LIG 0.40  C 
ATOM     18  N   ARG E  30       8.679 147.870  77.909  1.00146.11 LIG 0.61  N 
BRANCH 17 19
ATOM     19  CB  ARG E  30       9.971 149.799  77.049  1.00146.54 LIG 0.05  C 
BRANCH 19 20
ATOM     20  CG  ARG E  30      10.873 149.472  75.866  1.00147.66 LIG 0.02  C 
BRANCH 20 21
ATOM     21  CD  ARG E  30      12.318 149.202  76.242  1.00149.13 LIG 0.14  C 
BRANCH 21 22
ATOM     22  NE  ARG E  30      12.462 148.802  77.640  1.00150.31 LIG-0.23  N 
ATOM     23 HE   ARG E  30      11.777 148.885  78.153  1.00150.31 LIG 0.18  HD
ATOM     24  CZ  ARG E  30      13.577 148.320  78.172  1.00151.12 LIG 0.67  C 
ATOM     25  NH1 ARG E  30      14.656 148.148  77.419  1.00151.59 LIG-0.23  N 
ATOM     26  NH2 ARG E  30      13.617 148.003  79.458  1.00151.52 LIG-0.23  N 
ATOM     27 1HH1 ARG E  30      14.634 148.350  76.584  1.00151.59 LIG 0.17  HD
ATOM     28 2HH1 ARG E  30      15.377 147.836  77.767  1.00151.59 LIG 0.17  HD
ATOM     29 1HH2 ARG E  30      12.920 148.110  79.949  1.00151.52 LIG 0.17  HD
ATOM     30 2HH2 ARG E  30      14.341 147.691  79.802  1.00151.52 LIG 0.17  HD
ENDBRANCH 21 22
ENDBRANCH 20 21
ENDBRANCH 19 20
ENDBRANCH 17 19
ENDBRANCH 14 17
ENDBRANCH 6 13
ENDBRANCH 4 6
ENDBRANCH 1 2
BRANCH 1 31
ATOM     31  CB  LEU E  32       8.916 151.920  70.023  1.00142.51 LIG 0.04  C 
BRANCH 31 32
ATOM     32  CG  LEU E  32       9.755 153.118  69.582  1.00140.78 LIG-0.02  C 
ATOM     33  CD1 LEU E  32      10.914 152.652  68.730  1.00139.49 LIG 0.01  C 
ATOM     34  CD2 LEU E  32       8.908 154.122  68.827  1.00139.97 LIG 0.01  C 
ENDBRANCH 31 32
ENDBRANCH 1 31
BRANCH 1 35
ATOM     35  C   LEU E  32      10.774 151.412  71.615  1.00143.34 LIG 0.24  C 
ATOM     36  N   PHE E  33      11.846 150.648  71.818  1.00143.72 LIG-0.35  N 
ATOM     37 H    PHE E  33      11.986 149.900  71.416  1.00143.72 LIG 0.16  HD
ATOM     38 O    LEU E  32      10.653 152.529  72.112  1.00143.58 LIG-0.27  OA
BRANCH 36 39
ATOM     39  CA  PHE E  33      12.895 151.028  72.763  1.00144.11 LIG 0.18  C 
BRANCH 39 40
ATOM     40  CB  PHE E  33      13.621 149.788  73.266  1.00143.74 LIG 0.07  C 
BRANCH 40 41
ATOM     41  CG  PHE E  33      14.577 149.218  72.275  1.00143.08 LIG-0.06  A 
ATOM     42  CD2 PHE E  33      15.839 149.759  72.120  1.00142.72 LIG 0.01  A 
ATOM     43  CE2 PHE E  33      16.726 149.224  71.212  1.00141.76 LIG 0.00  A 
ATOM     44  CZ  PHE E  33      16.366 148.130  70.464  1.00141.29 LIG 0.00  A 
ATOM     45  CE1 PHE E  33      15.117 147.571  70.619  1.00141.79 LIG 0.00  A 
ATOM     46  CD1 PHE E  33      14.230 148.112  71.522  1.00142.36 LIG 0.01  A 
ENDBRANCH 40 41
ENDBRANCH 39 40
BRANCH 39 47
ATOM     47  C   PHE E  33      13.912 151.996  72.175  1.00145.05 LIG 0.24  C 
ATOM     48 O    PHE E  33      14.506 152.790  72.902  1.00145.07 LIG-0.27  OA
ATOM     49  N   GLY E  34      14.137 151.910  70.869  1.00146.17 LIG-0.35  N 
ATOM     50 H    GLY E  34      13.787 151.312  70.359  1.00146.17 LIG 0.16  HD
BRANCH 49 51
ATOM     51  CA  GLY E  34      15.016 152.844  70.188  1.00147.07 LIG 0.23  C 
BRANCH 51 52
ATOM     52  C   GLY E  34      15.555 152.246  68.901  1.00147.85 LIG 0.24  C 
ATOM     53  N   PRO E  35      16.873 152.090  68.818  1.00148.70 LIG-0.34  N 
ATOM     54  CA  PRO E  35      17.502 151.528  67.619  1.00149.01 LIG 0.19  C 
ATOM     55  CD  PRO E  35      17.859 152.380  69.875  1.00148.94 LIG 0.13  C 
ATOM     56  CB  PRO E  35      18.978 151.386  68.029  1.00149.16 LIG 0.04  C 
ATOM     57  CG  PRO E  35      18.969 151.431  69.529  1.00149.11 LIG 0.02  C 
ATOM     58 O    GLY E  34      14.787 151.909  67.996  1.00147.94 LIG-0.27  OA
BRANCH 54 59
ATOM     59  C   PRO E  35      16.901 150.170  67.246  1.00149.03 LIG 0.20  C 
ATOM     60 OXT  PRO E  35      16.216 150.021  66.235  1.00149.10 LIG-0.65  OA
ATOM     61 O    PRO E  35      17.116 149.153  67.909  1.00148.99 LIG-0.65  OA
ENDBRANCH 54 59
ENDBRANCH 51 52
ENDBRANCH 49 51
ENDBRANCH 39 47
ENDBRANCH 36 39
ENDBRANCH 1 35
TORSDOF 20
ENDMDL
MODEL 4
USER: ADFR SOLUTION from run 65
USER: SCORE 19.173097 LL:  -3.586 LR: -15.967 RR:   0.000 FEB: -10.001
USER: RMSD 6.961209
USER: SEED 64
USER: STATUS searching
USER: GENES 22
USER: genes 0 Translation |==|  0.32106 0.32897 0.50100
USER: genes 1 Rotation |==|  0.95835 0.67407 0.51398 0.59706
USER: genes 2 Torsion [CB]-CA--N-[C] |==|  0.83588
USER: genes 3 Torsion [N]-C--CA-[N] |==|  0.33166
USER: genes 4 Torsion [C]-CA--CB-[CG] |==|  0.33792
USER: genes 5 Torsion [CA]-CB--CG-[ND2] |==|  0.64300
USER: genes 6 Torsion [C]-CA--N-[C] |==|  0.73485
USER: genes 7 Torsion [N]-C--CA-[N] |==|  0.91756
USER: genes 8 Torsion [C]-CA--CB-[CG] |==|  0.26856
USER: genes 9 Torsion [CA]-CB--CG-[CD] |==|  0.36253
USER: genes 10 Torsion [CB]-CG--CD-[NE] |==|  0.16617
USER: genes 11 Torsion [CG]-CD--NE-[HE] |==|  0.19559
USER: genes 12 Torsion [N]-CA--CB-[CG] |==|  0.63741
USER: genes 13 Torsion [CA]-CB--CG-[CD2] |==|  0.77373
USER: genes 14 Torsion [N]-CA--C-[N] |==|  0.34765
USER: genes 15 Torsion [C]-N--CA-[C] |==|  0.75642
USER: genes 16 Torsion [N]-CA--CB-[CG] |==|  0.25966
USER: genes 17 Torsion [CA]-CB--CG-[CD2] |==|  0.82530
USER: genes 18 Torsion [N]-CA--C-[N] |==|  0.99076
USER: genes 19 Torsion [C]-N--CA-[C] |==|  0.21577
USER: genes 20 Torsion [N]-CA--C-[N] |==|  0.58543
USER: genes 21 Torsion [N]-CA--C-[OXT] |==|  0.39534
ROOT
ATOM      1  CA  LEU E  32       9.967 150.292  71.391  1.00142.86 LIG 0.18  C 
ENDROOT
BRANCH 1 2
ATOM      2  N   LEU E  32       8.824 149.591  71.974  1.00142.97 LIG-0.35  N 
ATOM      3 H    LEU E  32       8.586 148.885  71.545  1.00142.97 LIG 0.16  HD
ATOM      4  C   ASN E  31       8.219 150.026  73.077  1.00143.13 LIG 0.24  C 
ATOM      5 O    ASN E  31       8.518 151.082  73.627  1.00142.70 LIG-0.27  OA
BRANCH 4 6
ATOM      6  CA  ASN E  31       7.112 149.132  73.645  1.00143.53 LIG 0.18  C 
BRANCH 6 7
ATOM      7  CB  ASN E  31       5.778 149.881  73.663  1.00143.35 LIG 0.14  C 
BRANCH 7 8
ATOM      8  CG  ASN E  31       4.701 149.181  72.865  1.00142.31 LIG 0.22  C 
ATOM      9  ND2 ASN E  31       4.058 149.918  71.969  1.00140.74 LIG-0.37  N 
ATOM     10 21HD ASN E  31       3.466 149.556  71.459  1.00140.74 LIG 0.16  HD
ATOM     11 22HD ASN E  31       4.231 150.758  71.897  1.00140.74 LIG 0.16  HD
ATOM     12 OD1  ASN E  31       4.491 147.980  73.009  1.00141.61 LIG-0.27  OA
ENDBRANCH 7 8
ENDBRANCH 6 7
BRANCH 6 13
ATOM     13  N   ASN E  31       7.428 148.692  74.999  1.00144.28 LIG-0.34  N 
ATOM     14  C   ARG E  30       8.006 147.522  75.247  1.00145.24 LIG 0.26  C 
ATOM     15 O    ARG E  30       8.096 146.633  74.404  1.00145.16 LIG-0.27  OA
ATOM     16 H    ASN E  31       7.208 149.255  75.611  1.00144.28 LIG 0.16  HD
BRANCH 14 17
ATOM     17  CA  ARG E  30       8.507 147.305  76.679  1.00146.00 LIG 0.40  C 
ATOM     18  N   ARG E  30       8.910 148.580  77.337  1.00146.11 LIG 0.61  N 
BRANCH 17 19
ATOM     19  CB  ARG E  30       7.421 146.609  77.501  1.00146.54 LIG 0.05  C 
BRANCH 19 20
ATOM     20  CG  ARG E  30       7.599 145.099  77.591  1.00147.66 LIG 0.02  C 
BRANCH 20 21
ATOM     21  CD  ARG E  30       7.510 144.546  79.000  1.00149.13 LIG 0.14  C 
BRANCH 21 22
ATOM     22  NE  ARG E  30       6.220 144.827  79.626  1.00150.31 LIG-0.23  N 
ATOM     23 HE   ARG E  30       5.531 144.408  79.329  1.00150.31 LIG 0.18  HD
ATOM     24  CZ  ARG E  30       6.039 145.684  80.623  1.00151.12 LIG 0.67  C 
ATOM     25  NH1 ARG E  30       7.072 146.338  81.136  1.00151.59 LIG-0.23  N 
ATOM     26  NH2 ARG E  30       4.824 145.886  81.113  1.00151.52 LIG-0.23  N 
ATOM     27 1HH1 ARG E  30       7.863 146.207  80.823  1.00151.59 LIG 0.17  HD
ATOM     28 2HH1 ARG E  30       6.952 146.893  81.782  1.00151.59 LIG 0.17  HD
ATOM     29 1HH2 ARG E  30       4.153 145.462  80.785  1.00151.52 LIG 0.17  HD
ATOM     30 2HH2 ARG E  30       4.708 146.442  81.758  1.00151.52 LIG 0.17  HD
ENDBRANCH 21 22
ENDBRANCH 20 21
ENDBRANCH 19 20
ENDBRANCH 17 19
ENDBRANCH 14 17
ENDBRANCH 6 13
ENDBRANCH 4 6
ENDBRANCH 1 2
BRANCH 1 31
ATOM     31  CB  LEU E  32       9.579 151.727  71.029  1.00142.51 LIG 0.04  C 
BRANCH 31 32
ATOM     32  CG  LEU E  32       9.936 152.204  69.622  1.00140.78 LIG-0.02  C 
ATOM     33  CD1 LEU E  32       9.020 153.336  69.212  1.00139.49 LIG 0.01  C 
ATOM     34  CD2 LEU E  32      11.385 152.639  69.552  1.00139.97 LIG 0.01  C 
ENDBRANCH 31 32
ENDBRANCH 1 31
BRANCH 1 35
ATOM     35  C   LEU E  32      11.204 150.313  72.296  1.00143.34 LIG 0.24  C 
ATOM     36  N   PHE E  33      12.336 149.843  71.774  1.00143.72 LIG-0.35  N 
ATOM     37 H    PHE E  33      12.435 149.645  70.943  1.00143.72 LIG 0.16  HD
ATOM     38 O    LEU E  32      11.121 150.698  73.460  1.00143.58 LIG-0.27  OA
BRANCH 36 39
ATOM     39  CA  PHE E  33      13.527 149.622  72.591  1.00144.11 LIG 0.18  C 
BRANCH 39 40
ATOM     40  CB  PHE E  33      14.349 148.475  72.019  1.00143.74 LIG 0.07  C 
BRANCH 40 41
ATOM     41  CG  PHE E  33      15.420 148.921  71.084  1.00143.08 LIG-0.06  A 
ATOM     42  CD2 PHE E  33      15.101 149.568  69.905  1.00142.72 LIG 0.01  A 
ATOM     43  CE2 PHE E  33      16.092 149.991  69.045  1.00141.76 LIG 0.00  A 
ATOM     44  CZ  PHE E  33      17.412 149.787  69.366  1.00141.29 LIG 0.00  A 
ATOM     45  CE1 PHE E  33      17.743 149.156  70.545  1.00141.79 LIG 0.00  A 
ATOM     46  CD1 PHE E  33      16.751 148.729  71.398  1.00142.36 LIG 0.01  A 
ENDBRANCH 40 41
ENDBRANCH 39 40
BRANCH 39 47
ATOM     47  C   PHE E  33      14.412 150.854  72.713  1.00145.05 LIG 0.24  C 
ATOM     48 O    PHE E  33      15.432 150.823  73.399  1.00145.07 LIG-0.27  OA
ATOM     49  N   GLY E  34      14.041 151.929  72.025  1.00146.17 LIG-0.35  N 
ATOM     50 H    GLY E  34      13.374 151.947  71.483  1.00146.17 LIG 0.16  HD
BRANCH 49 51
ATOM     51  CA  GLY E  34      14.757 153.187  72.141  1.00147.07 LIG 0.23  C 
BRANCH 51 52
ATOM     52  C   GLY E  34      16.048 153.154  71.343  1.00147.85 LIG 0.24  C 
ATOM     53  N   PRO E  35      17.058 153.884  71.808  1.00148.70 LIG-0.34  N 
ATOM     54  CA  PRO E  35      18.350 153.932  71.114  1.00149.01 LIG 0.19  C 
ATOM     55  CD  PRO E  35      17.071 154.674  73.053  1.00148.94 LIG 0.13  C 
ATOM     56  CB  PRO E  35      19.235 154.744  72.075  1.00149.16 LIG 0.04  C 
ATOM     57  CG  PRO E  35      18.532 154.679  73.399  1.00149.11 LIG 0.02  C 
ATOM     58 O    GLY E  34      16.141 152.461  70.327  1.00147.94 LIG-0.27  OA
BRANCH 54 59
ATOM     59  C   PRO E  35      18.923 152.531  70.887  1.00149.03 LIG 0.20  C 
ATOM     60 OXT  PRO E  35      19.526 152.239  69.855  1.00149.10 LIG-0.65  OA
ATOM     61 O    PRO E  35      18.855 151.647  71.743  1.00148.99 LIG-0.65  OA
ENDBRANCH 54 59
ENDBRANCH 51 52
ENDBRANCH 49 51
ENDBRANCH 39 47
ENDBRANCH 36 39
ENDBRANCH 1 35
TORSDOF 20
ENDMDL
MODEL 5
USER: ADFR SOLUTION from run 80
USER: SCORE 17.086972 LL:  -3.115 LR: -15.825 RR:   0.000 FEB:  -9.859
USER: RMSD 4.526988
USER: SEED 79
USER: STATUS no improvement in best in 2 clusters for 5 generations
USER: GENES 22
USER: genes 0 Translation |==|  0.53493 0.36174 0.48613
USER: genes 1 Rotation |==|  0.48102 0.63802 0.49268 0.98014
USER: genes 2 Torsion [CB]-CA--N-[C] |==|  0.19584
USER: genes 3 Torsion [N]-C--CA-[N] |==|  0.55951
USER: genes 4 Torsion [C]-CA--CB-[CG] |==|  0.25423
USER: genes 5 Torsion [CA]-CB--CG-[ND2] |==|  0.32964
USER: genes 6 Torsion [C]-CA--N-[C] |==|  0.63148
USER: genes 7 Torsion [N]-C--CA-[N] |==|  0.89719
USER: genes 8 Torsion [C]-CA--CB-[CG] |==|  0.45586
USER: genes 9 Torsion [CA]-CB--CG-[CD] |==|  0.87623
USER: genes 10 Torsion [CB]-CG--CD-[NE] |==|  0.36177
USER: genes 11 Torsion [CG]-CD--NE-[HE] |==|  0.92558
USER: genes 12 Torsion [N]-CA--CB-[CG] |==|  0.63205
USER: genes 13 Torsion [CA]-CB--CG-[CD2] |==|  0.60542
USER: genes 14 Torsion [N]-CA--C-[N] |==|  0.78629
USER: genes 15 Torsion [C]-N--CA-[C] |==|  0.63537
USER: genes 16 Torsion [N]-CA--CB-[CG] |==|  0.80802
USER: genes 17 Torsion [CA]-CB--CG-[CD2] |==|  0.82986
USER: genes 18 Torsion [N]-CA--C-[N] |==|  0.36908
USER: genes 19 Torsion [C]-N--CA-[C] |==|  0.83789
USER: genes 20 Torsion [N]-CA--C-[N] |==|  0.43322
USER: genes 21 Torsion [N]-CA--C-[OXT] |==|  0.34932
ROOT
ATOM      1  CA  LEU E  32      14.298 150.955  71.067  1.00142.86 LIG 0.18  C 
ENDROOT
BRANCH 1 2
ATOM      2  N   LEU E  32      12.865 150.969  71.357  1.00142.97 LIG-0.35  N 
ATOM      3 H    LEU E  32      12.392 151.399  70.781  1.00142.97 LIG 0.16  HD
ATOM      4  C   ASN E  31      12.356 150.361  72.426  1.00143.13 LIG 0.24  C 
ATOM      5 O    ASN E  31      13.055 149.825  73.282  1.00142.70 LIG-0.27  OA
BRANCH 4 6
ATOM      6  CA  ASN E  31      10.829 150.353  72.544  1.00143.53 LIG 0.18  C 
BRANCH 6 7
ATOM      7  CB  ASN E  31      10.248 151.678  72.045  1.00143.35 LIG 0.14  C 
BRANCH 7 8
ATOM      8  CG  ASN E  31       9.894 151.648  70.575  1.00142.31 LIG 0.22  C 
ATOM      9  ND2 ASN E  31       8.617 151.845  70.272  1.00140.74 LIG-0.37  N 
ATOM     10 21HD ASN E  31       8.372 151.881  69.448  1.00140.74 LIG 0.16  HD
ATOM     11 22HD ASN E  31       8.035 151.937  70.898  1.00140.74 LIG 0.16  HD
ATOM     12 OD1  ASN E  31      10.765 151.510  69.720  1.00141.61 LIG-0.27  OA
ENDBRANCH 7 8
ENDBRANCH 6 7
BRANCH 6 13
ATOM     13  N   ASN E  31      10.404 150.136  73.921  1.00144.28 LIG-0.34  N 
ATOM     14  C   ARG E  30       9.463 149.255  74.243  1.00145.24 LIG 0.26  C 
ATOM     15 O    ARG E  30       8.722 148.741  73.410  1.00145.16 LIG-0.27  OA
ATOM     16 H    ASN E  31      10.815 150.627  74.497  1.00144.28 LIG 0.16  HD
BRANCH 14 17
ATOM     17  CA  ARG E  30       9.301 148.953  75.737  1.00146.00 LIG 0.40  C 
ATOM     18  N   ARG E  30      10.608 148.933  76.455  1.00146.11 LIG 0.61  N 
BRANCH 17 19
ATOM     19  CB  ARG E  30       8.368 149.985  76.369  1.00146.54 LIG 0.05  C 
BRANCH 19 20
ATOM     20  CG  ARG E  30       7.836 149.570  77.735  1.00147.66 LIG 0.02  C 
BRANCH 20 21
ATOM     21  CD  ARG E  30       7.366 148.130  77.806  1.00149.13 LIG 0.14  C 
BRANCH 21 22
ATOM     22  NE  ARG E  30       7.930 147.417  78.951  1.00150.31 LIG-0.23  N 
ATOM     23 HE   ARG E  30       8.687 147.686  79.257  1.00150.31 LIG 0.18  HD
ATOM     24  CZ  ARG E  30       7.353 146.384  79.550  1.00151.12 LIG 0.67  C 
ATOM     25  NH1 ARG E  30       6.173 145.944  79.134  1.00151.59 LIG-0.23  N 
ATOM     26  NH2 ARG E  30       7.953 145.789  80.572  1.00151.52 LIG-0.23  N 
ATOM     27 1HH1 ARG E  30       5.779 146.329  78.474  1.00151.59 LIG 0.17  HD
ATOM     28 2HH1 ARG E  30       5.802 145.274  79.524  1.00151.59 LIG 0.17  HD
ATOM     29 1HH2 ARG E  30       8.716 146.073  80.846  1.00151.52 LIG 0.17  HD
ATOM     30 2HH2 ARG E  30       7.578 145.119  80.959  1.00151.52 LIG 0.17  HD
ENDBRANCH 21 22
ENDBRANCH 20 21
ENDBRANCH 19 20
ENDBRANCH 17 19
ENDBRANCH 14 17
ENDBRANCH 6 13
ENDBRANCH 4 6
ENDBRANCH 1 2
BRANCH 1 31
ATOM     31  CB  LEU E  32      14.737 149.554  70.637  1.00142.51 LIG 0.04  C 
BRANCH 31 32
ATOM     32  CG  LEU E  32      15.990 148.988  71.304  1.00140.78 LIG-0.02  C 
ATOM     33  CD1 LEU E  32      15.604 148.123  72.483  1.00139.49 LIG 0.01  C 
ATOM     34  CD2 LEU E  32      16.819 148.199  70.312  1.00139.97 LIG 0.01  C 
ENDBRANCH 31 32
ENDBRANCH 1 31
BRANCH 1 35
ATOM     35  C   LEU E  32      14.721 151.970  69.999  1.00143.34 LIG 0.24  C 
ATOM     36  N   PHE E  33      14.456 151.652  68.734  1.00143.72 LIG-0.35  N 
ATOM     37 H    PHE E  33      13.969 150.983  68.499  1.00143.72 LIG 0.16  HD
ATOM     38 O    LEU E  32      15.321 152.995  70.313  1.00143.58 LIG-0.27  OA
BRANCH 36 39
ATOM     39  CA  PHE E  33      14.985 152.432  67.617  1.00144.11 LIG 0.18  C 
BRANCH 39 40
ATOM     40  CB  PHE E  33      16.105 151.666  66.926  1.00143.74 LIG 0.07  C 
BRANCH 40 41
ATOM     41  CG  PHE E  33      17.337 151.542  67.755  1.00143.08 LIG-0.06  A 
ATOM     42  CD2 PHE E  33      18.028 152.667  68.165  1.00142.72 LIG 0.01  A 
ATOM     43  CE2 PHE E  33      19.161 152.551  68.940  1.00141.76 LIG 0.00  A 
ATOM     44  CZ  PHE E  33      19.603 151.310  69.330  1.00141.29 LIG 0.00  A 
ATOM     45  CE1 PHE E  33      18.916 150.182  68.940  1.00141.79 LIG 0.00  A 
ATOM     46  CD1 PHE E  33      17.789 150.300  68.160  1.00142.36 LIG 0.01  A 
ENDBRANCH 40 41
ENDBRANCH 39 40
BRANCH 39 47
ATOM     47  C   PHE E  33      13.928 152.803  66.587  1.00145.05 LIG 0.24  C 
ATOM     48 O    PHE E  33      13.126 151.960  66.188  1.00145.07 LIG-0.27  OA
ATOM     49  N   GLY E  34      13.904 154.067  66.179  1.00146.17 LIG-0.35  N 
ATOM     50 H    GLY E  34      14.407 154.686  66.501  1.00146.17 LIG 0.16  HD
BRANCH 49 51
ATOM     51  CA  GLY E  34      13.001 154.509  65.131  1.00147.07 LIG 0.23  C 
BRANCH 51 52
ATOM     52  C   GLY E  34      13.234 153.732  63.848  1.00147.85 LIG 0.24  C 
ATOM     53  N   PRO E  35      12.215 153.662  62.996  1.00148.70 LIG-0.34  N 
ATOM     54  CA  PRO E  35      12.327 152.932  61.729  1.00149.01 LIG 0.19  C 
ATOM     55  CD  PRO E  35      10.901 154.315  63.143  1.00148.94 LIG 0.13  C 
ATOM     56  CB  PRO E  35      11.001 153.254  61.020  1.00149.16 LIG 0.04  C 
ATOM     57  CG  PRO E  35      10.477 154.478  61.712  1.00149.11 LIG 0.02  C 
ATOM     58 O    GLY E  34      14.330 153.215  63.617  1.00147.94 LIG-0.27  OA
BRANCH 54 59
ATOM     59  C   PRO E  35      13.524 153.410  60.903  1.00149.03 LIG 0.20  C 
ATOM     60 OXT  PRO E  35      14.381 152.628  60.494  1.00149.10 LIG-0.65  OA
ATOM     61 O    PRO E  35      13.660 154.588  60.565  1.00148.99 LIG-0.65  OA
ENDBRANCH 54 59
ENDBRANCH 51 52
ENDBRANCH 49 51
ENDBRANCH 39 47
ENDBRANCH 36 39
ENDBRANCH 1 35
TORSDOF 20
ENDMDL
MODEL 6
USER: ADFR SOLUTION from run 34
USER: SCORE 16.597956 LL:  -3.731 LR: -15.718 RR:   0.000 FEB:  -9.752
USER: RMSD 6.190181
USER: SEED 33
USER: STATUS no improvement in best in 9 clusters for 5 generations
USER: GENES 22
USER: genes 0 Translation |==|  0.41087 0.31156 0.58389
USER: genes 1 Rotation |==|  0.84396 0.67009 0.21689 0.65036
USER: genes 2 Torsion [CB]-CA--N-[C] |==|  0.54110
USER: genes 3 Torsion [N]-C--CA-[N] |==|  0.17046
USER: genes 4 Torsion [C]-CA--CB-[CG] |==|  0.12986
USER: genes 5 Torsion [CA]-CB--CG-[ND2] |==|  0.59185
USER: genes 6 Torsion [C]-CA--N-[C] |==|  0.78889
USER: genes 7 Torsion [N]-C--CA-[N] |==|  0.26077
USER: genes 8 Torsion [C]-CA--CB-[CG] |==|  0.19802
USER: genes 9 Torsion [CA]-CB--CG-[CD] |==|  0.60610
USER: genes 10 Torsion [CB]-CG--CD-[NE] |==|  0.65134
USER: genes 11 Torsion [CG]-CD--NE-[HE] |==|  0.86770
USER: genes 12 Torsion [N]-CA--CB-[CG] |==|  0.53683
USER: genes 13 Torsion [CA]-CB--CG-[CD2] |==|  0.59336
USER: genes 14 Torsion [N]-CA--C-[N] |==|  0.93433
USER: genes 15 Torsion [C]-N--CA-[C] |==|  0.21527
USER: genes 16 Torsion [N]-CA--CB-[CG] |==|  0.44900
USER: genes 17 Torsion [CA]-CB--CG-[CD2] |==|  0.19655
USER: genes 18 Torsion [N]-CA--C-[N] |==|  0.94027
USER: genes 19 Torsion [C]-N--CA-[C] |==|  0.25853
USER: genes 20 Torsion [N]-CA--C-[N] |==|  0.71174
USER: genes 21 Torsion [N]-CA--C-[OXT] |==|  0.70318
ROOT
ATOM      1  CA  LEU E  32      11.786 149.939  73.194  1.00142.86 LIG 0.18  C 
ENDROOT
BRANCH 1 2
ATOM      2  N   LEU E  32      11.892 150.189  74.630  1.00142.97 LIG-0.35  N 
ATOM      3 H    LEU E  32      11.309 150.741  74.937  1.00142.97 LIG 0.16  HD
ATOM      4  C   ASN E  31      12.820 149.600  75.381  1.00143.13 LIG 0.24  C 
ATOM      5 O    ASN E  31      13.697 148.880  74.912  1.00142.70 LIG-0.27  OA
BRANCH 4 6
ATOM      6  CA  ASN E  31      12.743 149.859  76.889  1.00143.53 LIG 0.18  C 
BRANCH 6 7
ATOM      7  CB  ASN E  31      13.907 149.174  77.609  1.00143.35 LIG 0.14  C 
BRANCH 7 8
ATOM      8  CG  ASN E  31      15.238 149.416  76.935  1.00142.31 LIG 0.22  C 
ATOM      9  ND2 ASN E  31      16.123 148.429  77.004  1.00140.74 LIG-0.37  N 
ATOM     10 21HD ASN E  31      16.879 148.500  76.600  1.00140.74 LIG 0.16  HD
ATOM     11 22HD ASN E  31      15.940 147.718  77.454  1.00140.74 LIG 0.16  HD
ATOM     12 OD1  ASN E  31      15.448 150.451  76.308  1.00141.61 LIG-0.27  OA
ENDBRANCH 7 8
ENDBRANCH 6 7
BRANCH 6 13
ATOM     13  N   ASN E  31      11.487 149.374  77.448  1.00144.28 LIG-0.34  N 
ATOM     14  C   ARG E  30      10.339 150.023  77.283  1.00145.24 LIG 0.26  C 
ATOM     15 O    ARG E  30      10.283 151.178  76.869  1.00145.16 LIG-0.27  OA
ATOM     16 H    ASN E  31      11.559 148.638  77.888  1.00144.28 LIG 0.16  HD
BRANCH 14 17
ATOM     17  CA  ARG E  30       9.070 149.273  77.702  1.00146.00 LIG 0.40  C 
ATOM     18  N   ARG E  30       8.662 149.588  79.100  1.00146.11 LIG 0.61  N 
BRANCH 17 19
ATOM     19  CB  ARG E  30       7.936 149.607  76.733  1.00146.54 LIG 0.05  C 
BRANCH 19 20
ATOM     20  CG  ARG E  30       8.111 148.987  75.353  1.00147.66 LIG 0.02  C 
BRANCH 20 21
ATOM     21  CD  ARG E  30       7.673 149.883  74.210  1.00149.13 LIG 0.14  C 
BRANCH 21 22
ATOM     22  NE  ARG E  30       6.698 149.232  73.337  1.00150.31 LIG-0.23  N 
ATOM     23 HE   ARG E  30       6.868 148.432  73.072  1.00150.31 LIG 0.18  HD
ATOM     24  CZ  ARG E  30       5.568 149.791  72.925  1.00151.12 LIG 0.67  C 
ATOM     25  NH1 ARG E  30       5.244 151.014  73.324  1.00151.59 LIG-0.23  N 
ATOM     26  NH2 ARG E  30       4.754 149.127  72.116  1.00151.52 LIG-0.23  N 
ATOM     27 1HH1 ARG E  30       5.768 151.447  73.851  1.00151.59 LIG 0.17  HD
ATOM     28 2HH1 ARG E  30       4.511 151.374  73.055  1.00151.59 LIG 0.17  HD
ATOM     29 1HH2 ARG E  30       4.959 148.333  71.858  1.00151.52 LIG 0.17  HD
ATOM     30 2HH2 ARG E  30       4.022 149.491  71.850  1.00151.52 LIG 0.17  HD
ENDBRANCH 21 22
ENDBRANCH 20 21
ENDBRANCH 19 20
ENDBRANCH 17 19
ENDBRANCH 14 17
ENDBRANCH 6 13
ENDBRANCH 4 6
ENDBRANCH 1 2
BRANCH 1 31
ATOM     31  CB  LEU E  32      10.899 151.000  72.537  1.00142.51 LIG 0.04  C 
BRANCH 31 32
ATOM     32  CG  LEU E  32      10.429 150.719  71.111  1.00140.78 LIG-0.02  C 
ATOM     33  CD1 LEU E  32       9.102 149.993  71.138  1.00139.49 LIG 0.01  C 
ATOM     34  CD2 LEU E  32      10.318 152.003  70.317  1.00139.97 LIG 0.01  C 
ENDBRANCH 31 32
ENDBRANCH 1 31
BRANCH 1 35
ATOM     35  C   LEU E  32      13.139 149.892  72.475  1.00143.34 LIG 0.24  C 
ATOM     36  N   PHE E  33      14.150 150.532  73.060  1.00143.72 LIG-0.35  N 
ATOM     37 H    PHE E  33      14.115 150.860  73.854  1.00143.72 LIG 0.16  HD
ATOM     38 O    LEU E  32      13.251 149.332  71.387  1.00143.58 LIG-0.27  OA
BRANCH 36 39
ATOM     39  CA  PHE E  33      15.429 150.734  72.383  1.00144.11 LIG 0.18  C 
BRANCH 39 40
ATOM     40  CB  PHE E  33      15.870 149.445  71.701  1.00143.74 LIG 0.07  C 
BRANCH 40 41
ATOM     41  CG  PHE E  33      16.905 149.654  70.650  1.00143.08 LIG-0.06  A 
ATOM     42  CD2 PHE E  33      18.196 150.007  70.993  1.00142.72 LIG 0.01  A 
ATOM     43  CE2 PHE E  33      19.156 150.189  70.021  1.00141.76 LIG 0.00  A 
ATOM     44  CZ  PHE E  33      18.838 150.001  68.698  1.00141.29 LIG 0.00  A 
ATOM     45  CE1 PHE E  33      17.558 149.635  68.344  1.00141.79 LIG 0.00  A 
ATOM     46  CD1 PHE E  33      16.600 149.460  69.316  1.00142.36 LIG 0.01  A 
ENDBRANCH 40 41
ENDBRANCH 39 40
BRANCH 39 47
ATOM     47  C   PHE E  33      15.396 151.853  71.353  1.00145.05 LIG 0.24  C 
ATOM     48 O    PHE E  33      16.440 152.382  70.975  1.00145.07 LIG-0.27  OA
ATOM     49  N   GLY E  34      14.204 152.194  70.876  1.00146.17 LIG-0.35  N 
ATOM     50 H    GLY E  34      13.472 151.787  71.072  1.00146.17 LIG 0.16  HD
BRANCH 49 51
ATOM     51  CA  GLY E  34      14.044 153.311  69.961  1.00147.07 LIG 0.23  C 
BRANCH 51 52
ATOM     52  C   GLY E  34      14.099 152.845  68.518  1.00147.85 LIG 0.24  C 
ATOM     53  N   PRO E  35      15.226 153.084  67.853  1.00148.70 LIG-0.34  N 
ATOM     54  CA  PRO E  35      15.387 152.683  66.451  1.00149.01 LIG 0.19  C 
ATOM     55  CD  PRO E  35      16.451 153.701  68.394  1.00148.94 LIG 0.13  C 
ATOM     56  CB  PRO E  35      16.862 153.005  66.161  1.00149.16 LIG 0.04  C 
ATOM     57  CG  PRO E  35      17.510 153.110  67.510  1.00149.11 LIG 0.02  C 
ATOM     58 O    GLY E  34      13.141 152.255  68.011  1.00147.94 LIG-0.27  OA
BRANCH 54 59
ATOM     59  C   PRO E  35      15.098 151.193  66.251  1.00149.03 LIG 0.20  C 
ATOM     60 OXT  PRO E  35      15.999 150.382  66.041  1.00149.10 LIG-0.65  OA
ATOM     61 O    PRO E  35      13.960 150.727  66.341  1.00148.99 LIG-0.65  OA
ENDBRANCH 54 59
ENDBRANCH 51 52
ENDBRANCH 49 51
ENDBRANCH 39 47
ENDBRANCH 36 39
ENDBRANCH 1 35
TORSDOF 20
ENDMDL
MODEL 7
USER: ADFR SOLUTION from run 131
USER: SCORE 18.199383 LL:  -3.610 LR: -15.708 RR:   0.000 FEB:  -9.742
USER: RMSD 6.751856
USER: SEED 130
USER: STATUS no improvement in best in 6 clusters for 5 generations
USER: GENES 22
USER: genes 0 Translation |==|  0.37356 0.34130 0.55294
USER: genes 1 Rotation |==|  0.31763 0.61974 0.59930 0.93880
USER: genes 2 Torsion [CB]-CA--N-[C] |==|  0.52233
USER: genes 3 Torsion [N]-C--CA-[N] |==|  0.16017
USER: genes 4 Torsion [C]-CA--CB-[CG] |==|  0.43758
USER: genes 5 Torsion [CA]-CB--CG-[ND2] |==|  0.76050
USER: genes 6 Torsion [C]-CA--N-[C] |==|  0.74483
USER: genes 7 Torsion [N]-C--CA-[N] |==|  0.42655
USER: genes 8 Torsion [C]-CA--CB-[CG] |==|  0.86506
USER: genes 9 Torsion [CA]-CB--CG-[CD] |==|  0.54614
USER: genes 10 Torsion [CB]-CG--CD-[NE] |==|  0.16319
USER: genes 11 Torsion [CG]-CD--NE-[HE] |==|  0.88685
USER: genes 12 Torsion [N]-CA--CB-[CG] |==|  0.50420
USER: genes 13 Torsion [CA]-CB--CG-[CD2] |==|  0.60910
USER: genes 14 Torsion [N]-CA--C-[N] |==|  0.42046
USER: genes 15 Torsion [C]-N--CA-[C] |==|  0.66071
USER: genes 16 Torsion [N]-CA--CB-[CG] |==|  0.65278
USER: genes 17 Torsion [CA]-CB--CG-[CD2] |==|  0.69849
USER: genes 18 Torsion [N]-CA--C-[N] |==|  0.41911
USER: genes 19 Torsion [C]-N--CA-[C] |==|  0.17256
USER: genes 20 Torsion [N]-CA--C-[N] |==|  0.67196
USER: genes 21 Torsion [N]-CA--C-[OXT] |==|  0.43116
ROOT
ATOM      1  CA  LEU E  32      11.031 150.541  72.521  1.00142.86 LIG 0.18  C 
ENDROOT
BRANCH 1 2
ATOM      2  N   LEU E  32       9.796 149.911  72.985  1.00142.97 LIG-0.35  N 
ATOM      3 H    LEU E  32       9.914 149.173  73.410  1.00142.97 LIG 0.16  HD
ATOM      4  C   ASN E  31       8.600 150.451  72.759  1.00143.13 LIG 0.24  C 
ATOM      5 O    ASN E  31       8.445 151.461  72.077  1.00142.70 LIG-0.27  OA
BRANCH 4 6
ATOM      6  CA  ASN E  31       7.401 149.748  73.403  1.00143.53 LIG 0.18  C 
BRANCH 6 7
ATOM      7  CB  ASN E  31       6.106 150.496  73.076  1.00143.35 LIG 0.14  C 
BRANCH 7 8
ATOM      8  CG  ASN E  31       4.878 149.622  73.193  1.00142.31 LIG 0.22  C 
ATOM      9  ND2 ASN E  31       4.554 148.913  72.119  1.00140.74 LIG-0.37  N 
ATOM     10 21HD ASN E  31       3.890 148.367  72.148  1.00140.74 LIG 0.16  HD
ATOM     11 22HD ASN E  31       5.008 148.999  71.393  1.00140.74 LIG 0.16  HD
ATOM     12 OD1  ASN E  31       4.263 149.537  74.253  1.00141.61 LIG-0.27  OA
ENDBRANCH 7 8
ENDBRANCH 6 7
BRANCH 6 13
ATOM     13  N   ASN E  31       7.550 149.664  74.851  1.00144.28 LIG-0.34  N 
ATOM     14  C   ARG E  30       8.110 148.617  75.447  1.00145.24 LIG 0.26  C 
ATOM     15 O    ARG E  30       8.320 147.556  74.865  1.00145.16 LIG-0.27  OA
ATOM     16 H    ASN E  31       7.244 150.348  75.275  1.00144.28 LIG 0.16  HD
BRANCH 14 17
ATOM     17  CA  ARG E  30       8.428 148.777  76.937  1.00146.00 LIG 0.40  C 
ATOM     18  N   ARG E  30       8.442 147.471  77.656  1.00146.11 LIG 0.61  N 
BRANCH 17 19
ATOM     19  CB  ARG E  30       9.774 149.483  77.100  1.00146.54 LIG 0.05  C 
BRANCH 19 20
ATOM     20  CG  ARG E  30      10.882 148.886  76.242  1.00147.66 LIG 0.02  C 
BRANCH 20 21
ATOM     21  CD  ARG E  30      12.281 149.289  76.665  1.00149.13 LIG 0.14  C 
BRANCH 21 22
ATOM     22  NE  ARG E  30      12.576 148.907  78.044  1.00150.31 LIG-0.23  N 
ATOM     23 HE   ARG E  30      11.956 149.011  78.630  1.00150.31 LIG 0.18  HD
ATOM     24  CZ  ARG E  30      13.736 148.409  78.453  1.00151.12 LIG 0.67  C 
ATOM     25  NH1 ARG E  30      14.718 148.205  77.586  1.00151.59 LIG-0.23  N 
ATOM     26  NH2 ARG E  30      13.915 148.109  79.732  1.00151.52 LIG-0.23  N 
ATOM     27 1HH1 ARG E  30      14.605 148.395  76.755  1.00151.59 LIG 0.17  HD
ATOM     28 2HH1 ARG E  30      15.468 147.882  77.855  1.00151.59 LIG 0.17  HD
ATOM     29 1HH2 ARG E  30      13.280 148.237  80.297  1.00151.52 LIG 0.17  HD
ATOM     30 2HH2 ARG E  30      14.668 147.787  79.996  1.00151.52 LIG 0.17  HD
ENDBRANCH 21 22
ENDBRANCH 20 21
ENDBRANCH 19 20
ENDBRANCH 17 19
ENDBRANCH 14 17
ENDBRANCH 6 13
ENDBRANCH 4 6
ENDBRANCH 1 2
BRANCH 1 31
ATOM     31  CB  LEU E  32      12.219 149.605  72.747  1.00142.51 LIG 0.04  C 
BRANCH 31 32
ATOM     32  CG  LEU E  32      13.597 150.130  72.346  1.00140.78 LIG-0.02  C 
ATOM     33  CD1 LEU E  32      14.305 150.700  73.555  1.00139.49 LIG 0.01  C 
ATOM     34  CD2 LEU E  32      14.427 149.035  71.710  1.00139.97 LIG 0.01  C 
ENDBRANCH 31 32
ENDBRANCH 1 31
BRANCH 1 35
ATOM     35  C   LEU E  32      10.990 150.964  71.048  1.00143.34 LIG 0.24  C 
ATOM     36  N   PHE E  33      11.746 152.005  70.703  1.00143.72 LIG-0.35  N 
ATOM     37 H    PHE E  33      12.329 152.367  71.221  1.00143.72 LIG 0.16  HD
ATOM     38 O    LEU E  32      10.248 150.392  70.253  1.00143.58 LIG-0.27  OA
BRANCH 36 39
ATOM     39  CA  PHE E  33      11.642 152.630  69.386  1.00144.11 LIG 0.18  C 
BRANCH 39 40
ATOM     40  CB  PHE E  33      11.139 154.061  69.523  1.00143.74 LIG 0.07  C 
BRANCH 40 41
ATOM     41  CG  PHE E  33       9.923 154.342  68.709  1.00143.08 LIG-0.06  A 
ATOM     42  CD2 PHE E  33       9.996 155.143  67.585  1.00142.72 LIG 0.01  A 
ATOM     43  CE2 PHE E  33       8.874 155.394  66.827  1.00141.76 LIG 0.00  A 
ATOM     44  CZ  PHE E  33       7.670 154.831  67.176  1.00141.29 LIG 0.00  A 
ATOM     45  CE1 PHE E  33       7.586 154.019  68.285  1.00141.79 LIG 0.00  A 
ATOM     46  CD1 PHE E  33       8.708 153.776  69.044  1.00142.36 LIG 0.01  A 
ENDBRANCH 40 41
ENDBRANCH 39 40
BRANCH 39 47
ATOM     47  C   PHE E  33      12.955 152.636  68.617  1.00145.05 LIG 0.24  C 
ATOM     48 O    PHE E  33      14.028 152.638  69.218  1.00145.07 LIG-0.27  OA
ATOM     49  N   GLY E  34      12.874 152.607  67.291  1.00146.17 LIG-0.35  N 
ATOM     50 H    GLY E  34      12.136 152.530  66.856  1.00146.17 LIG 0.16  HD
BRANCH 49 51
ATOM     51  CA  GLY E  34      14.058 152.705  66.457  1.00147.07 LIG 0.23  C 
BRANCH 51 52
ATOM     52  C   GLY E  34      14.998 151.539  66.706  1.00147.85 LIG 0.24  C 
ATOM     53  N   PRO E  35      16.207 151.832  67.175  1.00148.70 LIG-0.34  N 
ATOM     54  CA  PRO E  35      17.197 150.785  67.445  1.00149.01 LIG 0.19  C 
ATOM     55  CD  PRO E  35      16.707 153.172  67.536  1.00148.94 LIG 0.13  C 
ATOM     56  CB  PRO E  35      18.351 151.555  68.110  1.00149.16 LIG 0.04  C 
ATOM     57  CG  PRO E  35      17.739 152.844  68.575  1.00149.11 LIG 0.02  C 
ATOM     58 O    GLY E  34      14.629 150.380  66.496  1.00147.94 LIG-0.27  OA
BRANCH 54 59
ATOM     59  C   PRO E  35      16.642 149.708  68.381  1.00149.03 LIG 0.20  C 
ATOM     60 OXT  PRO E  35      17.091 148.563  68.387  1.00149.10 LIG-0.65  OA
ATOM     61 O    PRO E  35      15.758 149.947  69.206  1.00148.99 LIG-0.65  OA
ENDBRANCH 54 59
ENDBRANCH 51 52
ENDBRANCH 49 51
ENDBRANCH 39 47
ENDBRANCH 36 39
ENDBRANCH 1 35
TORSDOF 20
ENDMDL
MODEL 8
USER: ADFR SOLUTION from run 114
USER: SCORE 18.134955 LL:  -3.054 LR: -15.600 RR:   0.000 FEB:  -9.634
USER: RMSD 8.821465
USER: SEED 113
USER: STATUS searching
USER: GENES 22
USER: genes 0 Translation |==|  0.61934 0.26105 0.45377
USER: genes 1 Rotation |==|  0.86193 0.28957 0.72694 0.65240
USER: genes 2 Torsion [CB]-CA--N-[C] |==|  0.84361
USER: genes 3 Torsion [N]-C--CA-[N] |==|  0.46183
USER: genes 4 Torsion [C]-CA--CB-[CG] |==|  0.31675
USER: genes 5 Torsion [CA]-CB--CG-[ND2] |==|  0.24134
USER: genes 6 Torsion [C]-CA--N-[C] |==|  0.78011
USER: genes 7 Torsion [N]-C--CA-[N] |==|  0.99614
USER: genes 8 Torsion [C]-CA--CB-[CG] |==|  0.27372
USER: genes 9 Torsion [CA]-CB--CG-[CD] |==|  0.75701
USER: genes 10 Torsion [CB]-CG--CD-[NE] |==|  0.82263
USER: genes 11 Torsion [CG]-CD--NE-[HE] |==|  0.27669
USER: genes 12 Torsion [N]-CA--CB-[CG] |==|  0.79547
USER: genes 13 Torsion [CA]-CB--CG-[CD2] |==|  0.43358
USER: genes 14 Torsion [N]-CA--C-[N] |==|  0.92296
USER: genes 15 Torsion [C]-N--CA-[C] |==|  0.61349
USER: genes 16 Torsion [N]-CA--CB-[CG] |==|  0.65219
USER: genes 17 Torsion [CA]-CB--CG-[CD2] |==|  0.77675
USER: genes 18 Torsion [N]-CA--C-[N] |==|  0.46665
USER: genes 19 Torsion [C]-N--CA-[C] |==|  0.43652
USER: genes 20 Torsion [N]-CA--C-[N] |==|  0.54175
USER: genes 21 Torsion [N]-CA--C-[OXT] |==|  0.99209
ROOT
ATOM      1  CA  LEU E  32      16.008 148.916  70.363  1.00142.86 LIG 0.18  C 
ENDROOT
BRANCH 1 2
ATOM      2  N   LEU E  32      15.499 149.805  69.320  1.00142.97 LIG-0.35  N 
ATOM      3 H    LEU E  32      15.407 149.431  68.551  1.00142.97 LIG 0.16  HD
ATOM      4  C   ASN E  31      15.209 151.082  69.561  1.00143.13 LIG 0.24  C 
ATOM      5 O    ASN E  31      15.427 151.621  70.643  1.00142.70 LIG-0.27  OA
BRANCH 4 6
ATOM      6  CA  ASN E  31      14.573 151.866  68.409  1.00143.53 LIG 0.18  C 
BRANCH 6 7
ATOM      7  CB  ASN E  31      15.611 152.152  67.321  1.00143.35 LIG 0.14  C 
BRANCH 7 8
ATOM      8  CG  ASN E  31      15.310 151.440  66.022  1.00142.31 LIG 0.22  C 
ATOM      9  ND2 ASN E  31      14.502 152.068  65.178  1.00140.74 LIG-0.37  N 
ATOM     10 21HD ASN E  31      14.334 151.725  64.407  1.00140.74 LIG 0.16  HD
ATOM     11 22HD ASN E  31      14.145 152.819  65.401  1.00140.74 LIG 0.16  HD
ATOM     12 OD1  ASN E  31      15.844 150.367  65.752  1.00141.61 LIG-0.27  OA
ENDBRANCH 7 8
ENDBRANCH 6 7
BRANCH 6 13
ATOM     13  N   ASN E  31      14.012 153.129  68.874  1.00144.28 LIG-0.34  N 
ATOM     14  C   ARG E  30      12.836 153.199  69.489  1.00145.24 LIG 0.26  C 
ATOM     15 O    ARG E  30      12.035 152.268  69.498  1.00145.16 LIG-0.27  OA
ATOM     16 H    ASN E  31      14.507 153.814  68.713  1.00144.28 LIG 0.16  HD
BRANCH 14 17
ATOM     17  CA  ARG E  30      12.493 154.542  70.142  1.00146.00 LIG 0.40  C 
ATOM     18  N   ARG E  30      13.588 155.541  69.991  1.00146.11 LIG 0.61  N 
BRANCH 17 19
ATOM     19  CB  ARG E  30      11.196 155.086  69.542  1.00146.54 LIG 0.05  C 
BRANCH 19 20
ATOM     20  CG  ARG E  30       9.966 154.810  70.398  1.00147.66 LIG 0.02  C 
BRANCH 20 21
ATOM     21  CD  ARG E  30       9.306 153.473  70.123  1.00149.13 LIG 0.14  C 
BRANCH 21 22
ATOM     22  NE  ARG E  30       8.772 153.386  68.765  1.00150.31 LIG-0.23  N 
ATOM     23 HE   ARG E  30       9.240 152.970  68.177  1.00150.31 LIG 0.18  HD
ATOM     24  CZ  ARG E  30       7.614 153.905  68.379  1.00151.12 LIG 0.67  C 
ATOM     25  NH1 ARG E  30       6.841 154.536  69.253  1.00151.59 LIG-0.23  N 
ATOM     26  NH2 ARG E  30       7.223 153.791  67.118  1.00151.52 LIG-0.23  N 
ATOM     27 1HH1 ARG E  30       7.089 154.610  70.073  1.00151.59 LIG 0.17  HD
ATOM     28 2HH1 ARG E  30       6.091 154.872  68.999  1.00151.59 LIG 0.17  HD
ATOM     29 1HH2 ARG E  30       7.719 153.380  66.549  1.00151.52 LIG 0.17  HD
ATOM     30 2HH2 ARG E  30       6.472 154.129  66.869  1.00151.52 LIG 0.17  HD
ENDBRANCH 21 22
ENDBRANCH 20 21
ENDBRANCH 19 20
ENDBRANCH 17 19
ENDBRANCH 14 17
ENDBRANCH 6 13
ENDBRANCH 4 6
ENDBRANCH 1 2
BRANCH 1 31
ATOM     31  CB  LEU E  32      17.279 149.501  70.982  1.00142.51 LIG 0.04  C 
BRANCH 31 32
ATOM     32  CG  LEU E  32      18.550 149.437  70.137  1.00140.78 LIG-0.02  C 
ATOM     33  CD1 LEU E  32      18.204 149.581  68.671  1.00139.49 LIG 0.01  C 
ATOM     34  CD2 LEU E  32      19.534 150.507  70.560  1.00139.97 LIG 0.01  C 
ENDBRANCH 31 32
ENDBRANCH 1 31
BRANCH 1 35
ATOM     35  C   LEU E  32      14.991 148.623  71.472  1.00143.34 LIG 0.24  C 
ATOM     36  N   PHE E  33      14.071 149.558  71.703  1.00143.72 LIG-0.35  N 
ATOM     37 H    PHE E  33      13.947 150.244  71.199  1.00143.72 LIG 0.16  HD
ATOM     38 O    LEU E  32      15.072 147.595  72.140  1.00143.58 LIG-0.27  OA
BRANCH 36 39
ATOM     39  CA  PHE E  33      13.178 149.492  72.859  1.00144.11 LIG 0.18  C 
BRANCH 39 40
ATOM     40  CB  PHE E  33      13.704 150.379  73.978  1.00143.74 LIG 0.07  C 
BRANCH 40 41
ATOM     41  CG  PHE E  33      13.885 149.659  75.271  1.00143.08 LIG-0.06  A 
ATOM     42  CD2 PHE E  33      12.806 149.419  76.101  1.00142.72 LIG 0.01  A 
ATOM     43  CE2 PHE E  33      12.972 148.743  77.290  1.00141.76 LIG 0.00  A 
ATOM     44  CZ  PHE E  33      14.215 148.285  77.652  1.00141.29 LIG 0.00  A 
ATOM     45  CE1 PHE E  33      15.296 148.505  76.827  1.00141.79 LIG 0.00  A 
ATOM     46  CD1 PHE E  33      15.128 149.186  75.643  1.00142.36 LIG 0.01  A 
ENDBRANCH 40 41
ENDBRANCH 39 40
BRANCH 39 47
ATOM     47  C   PHE E  33      11.746 149.893  72.537  1.00145.05 LIG 0.24  C 
ATOM     48 O    PHE E  33      11.473 150.411  71.456  1.00145.07 LIG-0.27  OA
ATOM     49  N   GLY E  34      10.828 149.628  73.459  1.00146.17 LIG-0.35  N 
ATOM     50 H    GLY E  34      10.987 149.200  74.188  1.00146.17 LIG 0.16  HD
BRANCH 49 51
ATOM     51  CA  GLY E  34       9.448 150.052  73.299  1.00147.07 LIG 0.23  C 
BRANCH 51 52
ATOM     52  C   GLY E  34       8.514 149.197  74.136  1.00147.85 LIG 0.24  C 
ATOM     53  N   PRO E  35       7.217 149.271  73.853  1.00148.70 LIG-0.34  N 
ATOM     54  CA  PRO E  35       6.225 148.493  74.603  1.00149.01 LIG 0.19  C 
ATOM     55  CD  PRO E  35       6.599 150.052  72.766  1.00148.94 LIG 0.13  C 
ATOM     56  CB  PRO E  35       4.917 148.763  73.840  1.00149.16 LIG 0.04  C 
ATOM     57  CG  PRO E  35       5.350 149.266  72.494  1.00149.11 LIG 0.02  C 
ATOM     58 O    GLY E  34       8.961 148.460  75.020  1.00147.94 LIG-0.27  OA
BRANCH 54 59
ATOM     59  C   PRO E  35       6.562 147.000  74.609  1.00149.03 LIG 0.20  C 
ATOM     60 OXT  PRO E  35       7.530 146.553  73.995  1.00149.10 LIG-0.65  OA
ATOM     61 O    PRO E  35       5.914 146.184  75.268  1.00148.99 LIG-0.65  OA
ENDBRANCH 54 59
ENDBRANCH 51 52
ENDBRANCH 49 51
ENDBRANCH 39 47
ENDBRANCH 36 39
ENDBRANCH 1 35
TORSDOF 20
ENDMDL
MODEL 9
USER: ADFR SOLUTION from run 44
USER: SCORE 17.947458 LL:  -4.884 LR: -15.572 RR:   0.000 FEB:  -9.606
USER: RMSD 4.601297
USER: SEED 43
USER: STATUS 1 or 2 clusters left
USER: GENES 22
USER: genes 0 Translation |==|  0.59193 0.39975 0.47274
USER: genes 1 Rotation |==|  0.40171 0.36659 0.45248 0.96934
USER: genes 2 Torsion [CB]-CA--N-[C] |==|  0.48535
USER: genes 3 Torsion [N]-C--CA-[N] |==|  0.36878
USER: genes 4 Torsion [C]-CA--CB-[CG] |==|  0.17311
USER: genes 5 Torsion [CA]-CB--CG-[ND2] |==|  0.64202
USER: genes 6 Torsion [C]-CA--N-[C] |==|  0.74785
USER: genes 7 Torsion [N]-C--CA-[N] |==|  0.32853
USER: genes 8 Torsion [C]-CA--CB-[CG] |==|  0.69760
USER: genes 9 Torsion [CA]-CB--CG-[CD] |==|  0.31708
USER: genes 10 Torsion [CB]-CG--CD-[NE] |==|  0.84654
USER: genes 11 Torsion [CG]-CD--NE-[HE] |==|  0.11964
USER: genes 12 Torsion [N]-CA--CB-[CG] |==|  0.91035
USER: genes 13 Torsion [CA]-CB--CG-[CD2] |==|  0.78920
USER: genes 14 Torsion [N]-CA--C-[N] |==|  0.97128
USER: genes 15 Torsion [C]-N--CA-[C] |==|  0.60615
USER: genes 16 Torsion [N]-CA--CB-[CG] |==|  0.94485
USER: genes 17 Torsion [CA]-CB--CG-[CD2] |==|  0.24908
USER: genes 18 Torsion [N]-CA--C-[N] |==|  0.02082
USER: genes 19 Torsion [C]-N--CA-[C] |==|  0.87978
USER: genes 20 Torsion [N]-CA--C-[N] |==|  0.85556
USER: genes 21 Torsion [N]-CA--C-[OXT] |==|  0.29070
ROOT
ATOM      1  CA  LEU E  32      15.453 151.725  70.776  1.00142.86 LIG 0.18  C 
ENDROOT
BRANCH 1 2
ATOM      2  N   LEU E  32      14.538 151.591  69.643  1.00142.97 LIG-0.35  N 
ATOM      3 H    LEU E  32      14.344 150.778  69.440  1.00142.97 LIG 0.16  HD
ATOM      4  C   ASN E  31      14.057 152.650  68.997  1.00143.13 LIG 0.24  C 
ATOM      5 O    ASN E  31      14.411 153.799  69.247  1.00142.70 LIG-0.27  OA
BRANCH 4 6
ATOM      6  CA  ASN E  31      13.017 152.370  67.907  1.00143.53 LIG 0.18  C 
BRANCH 6 7
ATOM      7  CB  ASN E  31      13.637 152.546  66.519  1.00143.35 LIG 0.14  C 
BRANCH 7 8
ATOM      8  CG  ASN E  31      14.767 151.578  66.253  1.00142.31 LIG 0.22  C 
ATOM      9  ND2 ASN E  31      15.905 152.104  65.818  1.00140.74 LIG-0.37  N 
ATOM     10 21HD ASN E  31      16.591 151.601  65.693  1.00140.74 LIG 0.16  HD
ATOM     11 22HD ASN E  31      15.956 152.948  65.659  1.00140.74 LIG 0.16  HD
ATOM     12 OD1  ASN E  31      14.640 150.380  66.494  1.00141.61 LIG-0.27  OA
ENDBRANCH 7 8
ENDBRANCH 6 7
BRANCH 6 13
ATOM     13  N   ASN E  31      11.867 153.258  68.030  1.00144.28 LIG-0.34  N 
ATOM     14  C   ARG E  30      10.797 152.937  68.751  1.00145.24 LIG 0.26  C 
ATOM     15 O    ARG E  30      10.589 151.798  69.160  1.00145.16 LIG-0.27  OA
ATOM     16 H    ASN E  31      11.947 153.997  67.598  1.00144.28 LIG 0.16  HD
BRANCH 14 17
ATOM     17  CA  ARG E  30       9.785 154.061  68.997  1.00146.00 LIG 0.40  C 
ATOM     18  N   ARG E  30       8.447 153.755  68.415  1.00146.11 LIG 0.61  N 
BRANCH 17 19
ATOM     19  CB  ARG E  30       9.661 154.317  70.499  1.00146.54 LIG 0.05  C 
BRANCH 19 20
ATOM     20  CG  ARG E  30       8.335 153.852  71.088  1.00147.66 LIG 0.02  C 
BRANCH 20 21
ATOM     21  CD  ARG E  30       8.462 152.707  72.074  1.00149.13 LIG 0.14  C 
BRANCH 21 22
ATOM     22  NE  ARG E  30       9.158 151.556  71.503  1.00150.31 LIG-0.23  N 
ATOM     23 HE   ARG E  30       9.861 151.707  71.031  1.00150.31 LIG 0.18  HD
ATOM     24  CZ  ARG E  30       8.779 150.295  71.662  1.00151.12 LIG 0.67  C 
ATOM     25  NH1 ARG E  30       7.717 150.005  72.400  1.00151.59 LIG-0.23  N 
ATOM     26  NH2 ARG E  30       9.466 149.318  71.087  1.00151.52 LIG-0.23  N 
ATOM     27 1HH1 ARG E  30       7.270 150.635  72.777  1.00151.59 LIG 0.17  HD
ATOM     28 2HH1 ARG E  30       7.473 149.186  72.501  1.00151.59 LIG 0.17  HD
ATOM     29 1HH2 ARG E  30      10.157 149.501  70.610  1.00151.52 LIG 0.17  HD
ATOM     30 2HH2 ARG E  30       9.219 148.501  71.190  1.00151.52 LIG 0.17  HD
ENDBRANCH 21 22
ENDBRANCH 20 21
ENDBRANCH 19 20
ENDBRANCH 17 19
ENDBRANCH 14 17
ENDBRANCH 6 13
ENDBRANCH 4 6
ENDBRANCH 1 2
BRANCH 1 31
ATOM     31  CB  LEU E  32      15.731 150.354  71.396  1.00142.51 LIG 0.04  C 
BRANCH 31 32
ATOM     32  CG  LEU E  32      14.598 149.330  71.343  1.00140.78 LIG-0.02  C 
ATOM     33  CD1 LEU E  32      15.148 147.938  71.562  1.00139.49 LIG 0.01  C 
ATOM     34  CD2 LEU E  32      13.533 149.650  72.371  1.00139.97 LIG 0.01  C 
ENDBRANCH 31 32
ENDBRANCH 1 31
BRANCH 1 35
ATOM     35  C   LEU E  32      16.781 152.400  70.418  1.00143.34 LIG 0.24  C 
ATOM     36  N   PHE E  33      17.030 152.582  69.122  1.00143.72 LIG-0.35  N 
ATOM     37 H    PHE E  33      16.451 152.453  68.500  1.00143.72 LIG 0.16  HD
ATOM     38 O    LEU E  32      17.587 152.701  71.296  1.00143.58 LIG-0.27  OA
BRANCH 36 39
ATOM     39  CA  PHE E  33      18.338 153.025  68.644  1.00144.11 LIG 0.18  C 
BRANCH 39 40
ATOM     40  CB  PHE E  33      19.177 151.824  68.227  1.00143.74 LIG 0.07  C 
BRANCH 40 41
ATOM     41  CG  PHE E  33      18.706 150.538  68.816  1.00143.08 LIG-0.06  A 
ATOM     42  CD2 PHE E  33      17.769 149.764  68.159  1.00142.72 LIG 0.01  A 
ATOM     43  CE2 PHE E  33      17.343 148.570  68.698  1.00141.76 LIG 0.00  A 
ATOM     44  CZ  PHE E  33      17.863 148.130  69.891  1.00141.29 LIG 0.00  A 
ATOM     45  CE1 PHE E  33      18.808 148.885  70.548  1.00141.79 LIG 0.00  A 
ATOM     46  CD1 PHE E  33      19.227 150.081  70.011  1.00142.36 LIG 0.01  A 
ENDBRANCH 40 41
ENDBRANCH 39 40
BRANCH 39 47
ATOM     47  C   PHE E  33      18.255 154.001  67.480  1.00145.05 LIG 0.24  C 
ATOM     48 O    PHE E  33      19.271 154.328  66.869  1.00145.07 LIG-0.27  OA
ATOM     49  N   GLY E  34      17.045 154.441  67.151  1.00146.17 LIG-0.35  N 
ATOM     50 H    GLY E  34      16.317 154.166  67.518  1.00146.17 LIG 0.16  HD
BRANCH 49 51
ATOM     51  CA  GLY E  34      16.859 155.446  66.120  1.00147.07 LIG 0.23  C 
BRANCH 51 52
ATOM     52  C   GLY E  34      17.882 156.559  66.252  1.00147.85 LIG 0.24  C 
ATOM     53  N   PRO E  35      17.993 157.132  67.447  1.00148.70 LIG-0.34  N 
ATOM     54  CA  PRO E  35      18.945 158.222  67.687  1.00149.01 LIG 0.19  C 
ATOM     55  CD  PRO E  35      17.268 156.753  68.674  1.00148.94 LIG 0.13  C 
ATOM     56  CB  PRO E  35      18.844 158.450  69.204  1.00149.16 LIG 0.04  C 
ATOM     57  CG  PRO E  35      18.222 157.196  69.744  1.00149.11 LIG 0.02  C 
ATOM     58 O    GLY E  34      18.581 156.887  65.290  1.00147.94 LIG-0.27  OA
BRANCH 54 59
ATOM     59  C   PRO E  35      20.369 157.831  67.282  1.00149.03 LIG 0.20  C 
ATOM     60 OXT  PRO E  35      20.888 158.258  66.251  1.00149.10 LIG-0.65  OA
ATOM     61 O    PRO E  35      21.079 157.115  67.990  1.00148.99 LIG-0.65  OA
ENDBRANCH 54 59
ENDBRANCH 51 52
ENDBRANCH 49 51
ENDBRANCH 39 47
ENDBRANCH 36 39
ENDBRANCH 1 35
TORSDOF 20
ENDMDL
MODEL 10
USER: ADFR SOLUTION from run 121
USER: SCORE 17.913299 LL:  -4.194 LR: -15.570 RR:   0.000 FEB:  -9.604
USER: RMSD 6.899219
USER: SEED 120
USER: STATUS no improvement in best in 12 clusters for 5 generations
USER: GENES 22
USER: genes 0 Translation |==|  0.30562 0.30855 0.50931
USER: genes 1 Rotation |==|  0.88433 0.61934 0.48852 0.79651
USER: genes 2 Torsion [CB]-CA--N-[C] |==|  0.49444
USER: genes 3 Torsion [N]-C--CA-[N] |==|  0.42962
USER: genes 4 Torsion [C]-CA--CB-[CG] |==|  0.31868
USER: genes 5 Torsion [CA]-CB--CG-[ND2] |==|  0.08379
USER: genes 6 Torsion [C]-CA--N-[C] |==|  0.64511
USER: genes 7 Torsion [N]-C--CA-[N] |==|  0.47499
USER: genes 8 Torsion [C]-CA--CB-[CG] |==|  0.39420
USER: genes 9 Torsion [CA]-CB--CG-[CD] |==|  0.87676
USER: genes 10 Torsion [CB]-CG--CD-[NE] |==|  0.32510
USER: genes 11 Torsion [CG]-CD--NE-[HE] |==|  0.90760
USER: genes 12 Torsion [N]-CA--CB-[CG] |==|  0.25484
USER: genes 13 Torsion [CA]-CB--CG-[CD2] |==|  0.70490
USER: genes 14 Torsion [N]-CA--C-[N] |==|  0.46918
USER: genes 15 Torsion [C]-N--CA-[C] |==|  0.66753
USER: genes 16 Torsion [N]-CA--CB-[CG] |==|  0.20822
USER: genes 17 Torsion [CA]-CB--CG-[CD2] |==|  0.74235
USER: genes 18 Torsion [N]-CA--C-[N] |==|  0.91201
USER: genes 19 Torsion [C]-N--CA-[C] |==|  0.43402
USER: genes 20 Torsion [N]-CA--C-[N] |==|  0.67724
USER: genes 21 Torsion [N]-CA--C-[OXT] |==|  0.28441
ROOT
ATOM      1  CA  LEU E  32       9.655 149.878  71.571  1.00142.86 LIG 0.18  C 
ENDROOT
BRANCH 1 2
ATOM      2  N   LEU E  32       8.308 149.893  72.142  1.00142.97 LIG-0.35  N 
ATOM      3 H    LEU E  32       7.723 150.294  71.656  1.00142.97 LIG 0.16  HD
ATOM      4  C   ASN E  31       8.033 149.328  73.315  1.00143.13 LIG 0.24  C 
ATOM      5 O    ASN E  31       8.898 148.835  74.034  1.00142.70 LIG-0.27  OA
BRANCH 4 6
ATOM      6  CA  ASN E  31       6.561 149.313  73.737  1.00143.53 LIG 0.18  C 
BRANCH 6 7
ATOM      7  CB  ASN E  31       6.184 150.637  74.405  1.00143.35 LIG 0.14  C 
BRANCH 7 8
ATOM      8  CG  ASN E  31       5.167 151.427  73.612  1.00142.31 LIG 0.22  C 
ATOM      9  ND2 ASN E  31       4.312 150.722  72.882  1.00140.74 LIG-0.37  N 
ATOM     10 21HD ASN E  31       3.687 151.122  72.447  1.00140.74 LIG 0.16  HD
ATOM     11 22HD ASN E  31       4.383 149.866  72.843  1.00140.74 LIG 0.16  HD
ATOM     12 OD1  ASN E  31       5.111 152.651  73.701  1.00141.61 LIG-0.27  OA
ENDBRANCH 7 8
ENDBRANCH 6 7
BRANCH 6 13
ATOM     13  N   ASN E  31       6.284 148.219  74.659  1.00144.28 LIG-0.34  N 
ATOM     14  C   ARG E  30       5.299 147.351  74.455  1.00145.24 LIG 0.26  C 
ATOM     15 O    ARG E  30       4.411 147.537  73.627  1.00145.16 LIG-0.27  OA
ATOM     16 H    ASN E  31       6.812 148.190  75.338  1.00144.28 LIG 0.16  HD
BRANCH 14 17
ATOM     17  CA  ARG E  30       5.286 146.116  75.362  1.00146.00 LIG 0.40  C 
ATOM     18  N   ARG E  30       4.039 145.314  75.209  1.00146.11 LIG 0.61  N 
BRANCH 17 19
ATOM     19  CB  ARG E  30       6.510 145.249  75.062  1.00146.54 LIG 0.05  C 
BRANCH 19 20
ATOM     20  CG  ARG E  30       7.127 144.616  76.302  1.00147.66 LIG 0.02  C 
BRANCH 20 21
ATOM     21  CD  ARG E  30       7.263 145.563  77.480  1.00149.13 LIG 0.14  C 
BRANCH 21 22
ATOM     22  NE  ARG E  30       6.465 145.139  78.628  1.00150.31 LIG-0.23  N 
ATOM     23 HE   ARG E  30       5.719 144.741  78.472  1.00150.31 LIG 0.18  HD
ATOM     24  CZ  ARG E  30       6.813 145.326  79.894  1.00151.12 LIG 0.67  C 
ATOM     25  NH1 ARG E  30       7.964 145.912  80.190  1.00151.59 LIG-0.23  N 
ATOM     26  NH2 ARG E  30       6.011 144.923  80.870  1.00151.52 LIG-0.23  N 
ATOM     27 1HH1 ARG E  30       8.489 146.173  79.560  1.00151.59 LIG 0.17  HD
ATOM     28 2HH1 ARG E  30       8.187 146.033  81.012  1.00151.59 LIG 0.17  HD
ATOM     29 1HH2 ARG E  30       5.265 144.540  80.682  1.00151.52 LIG 0.17  HD
ATOM     30 2HH2 ARG E  30       6.237 145.046  81.690  1.00151.52 LIG 0.17  HD
ENDBRANCH 21 22
ENDBRANCH 20 21
ENDBRANCH 19 20
ENDBRANCH 17 19
ENDBRANCH 14 17
ENDBRANCH 6 13
ENDBRANCH 4 6
ENDBRANCH 1 2
BRANCH 1 31
ATOM     31  CB  LEU E  32       9.656 150.557  70.200  1.00142.51 LIG 0.04  C 
BRANCH 31 32
ATOM     32  CG  LEU E  32       9.961 152.054  70.172  1.00140.78 LIG-0.02  C 
ATOM     33  CD1 LEU E  32      11.015 152.347  69.126  1.00139.49 LIG 0.01  C 
ATOM     34  CD2 LEU E  32       8.706 152.856  69.902  1.00139.97 LIG 0.01  C 
ENDBRANCH 31 32
ENDBRANCH 1 31
BRANCH 1 35
ATOM     35  C   LEU E  32      10.710 150.538  72.466  1.00143.34 LIG 0.24  C 
ATOM     36  N   PHE E  33      11.984 150.361  72.120  1.00143.72 LIG-0.35  N 
ATOM     37 H    PHE E  33      12.234 150.006  71.378  1.00143.72 LIG 0.16  HD
ATOM     38 O    LEU E  32      10.377 151.151  73.478  1.00143.58 LIG-0.27  OA
BRANCH 36 39
ATOM     39  CA  PHE E  33      13.082 150.763  72.996  1.00144.11 LIG 0.18  C 
BRANCH 39 40
ATOM     40  CB  PHE E  33      13.905 149.546  73.398  1.00143.74 LIG 0.07  C 
BRANCH 40 41
ATOM     41  CG  PHE E  33      14.786 149.040  72.308  1.00143.08 LIG-0.06  A 
ATOM     42  CD2 PHE E  33      14.350 148.046  71.452  1.00142.72 LIG 0.01  A 
ATOM     43  CE2 PHE E  33      15.161 147.587  70.438  1.00141.76 LIG 0.00  A 
ATOM     44  CZ  PHE E  33      16.410 148.130  70.258  1.00141.29 LIG 0.00  A 
ATOM     45  CE1 PHE E  33      16.852 149.131  71.095  1.00141.79 LIG 0.00  A 
ATOM     46  CD1 PHE E  33      16.042 149.583  72.112  1.00142.36 LIG 0.01  A 
ENDBRANCH 40 41
ENDBRANCH 39 40
BRANCH 39 47
ATOM     47  C   PHE E  33      14.003 151.800  72.369  1.00145.05 LIG 0.24  C 
ATOM     48 O    PHE E  33      14.589 152.619  73.075  1.00145.07 LIG-0.27  OA
ATOM     49  N   GLY E  34      14.157 151.746  71.051  1.00146.17 LIG-0.35  N 
ATOM     50 H    GLY E  34      13.815 151.136  70.551  1.00146.17 LIG 0.16  HD
BRANCH 49 51
ATOM     51  CA  GLY E  34      14.937 152.743  70.337  1.00147.07 LIG 0.23  C 
BRANCH 51 52
ATOM     52  C   GLY E  34      15.448 152.192  69.018  1.00147.85 LIG 0.24  C 
ATOM     53  N   PRO E  35      16.766 152.090  68.882  1.00148.70 LIG-0.34  N 
ATOM     54  CA  PRO E  35      17.370 151.577  67.648  1.00149.01 LIG 0.19  C 
ATOM     55  CD  PRO E  35      17.782 152.398  69.906  1.00148.94 LIG 0.13  C 
ATOM     56  CB  PRO E  35      18.865 151.486  67.999  1.00149.16 LIG 0.04  C 
ATOM     57  CG  PRO E  35      18.913 151.500  69.498  1.00149.11 LIG 0.02  C 
ATOM     58 O    GLY E  34      14.659 151.843  68.136  1.00147.94 LIG-0.27  OA
BRANCH 54 59
ATOM     59  C   PRO E  35      16.808 150.204  67.269  1.00149.03 LIG 0.20  C 
ATOM     60 OXT  PRO E  35      15.968 150.073  66.380  1.00149.10 LIG-0.65  OA
ATOM     61 O    PRO E  35      17.205 149.164  67.797  1.00148.99 LIG-0.65  OA
ENDBRANCH 54 59
ENDBRANCH 51 52
ENDBRANCH 49 51
ENDBRANCH 39 47
ENDBRANCH 36 39
ENDBRANCH 1 35
TORSDOF 20
ENDMDL
MODEL 11
USER: ADFR SOLUTION from run 73
USER: SCORE 18.264022 LL:  -3.472 LR: -15.554 RR:   0.000 FEB:  -9.588
USER: RMSD 7.401395
USER: SEED 72
USER: STATUS no improvement in best in 8 clusters for 5 generations
USER: GENES 22
USER: genes 0 Translation |==|  0.29647 0.35648 0.47341
USER: genes 1 Rotation |==|  0.96032 0.68371 0.45826 0.55117
USER: genes 2 Torsion [CB]-CA--N-[C] |==|  0.84418
USER: genes 3 Torsion [N]-C--CA-[N] |==|  0.37465
USER: genes 4 Torsion [C]-CA--CB-[CG] |==|  0.32509
USER: genes 5 Torsion [CA]-CB--CG-[ND2] |==|  0.63525
USER: genes 6 Torsion [C]-CA--N-[C] |==|  0.70170
USER: genes 7 Torsion [N]-C--CA-[N] |==|  0.62955
USER: genes 8 Torsion [C]-CA--CB-[CG] |==|  0.67682
USER: genes 9 Torsion [CA]-CB--CG-[CD] |==|  0.63561
USER: genes 10 Torsion [CB]-CG--CD-[NE] |==|  0.23102
USER: genes 11 Torsion [CG]-CD--NE-[HE] |==|  0.81740
USER: genes 12 Torsion [N]-CA--CB-[CG] |==|  0.62854
USER: genes 13 Torsion [CA]-CB--CG-[CD2] |==|  0.77394
USER: genes 14 Torsion [N]-CA--C-[N] |==|  0.95725
USER: genes 15 Torsion [C]-N--CA-[C] |==|  0.83178
USER: genes 16 Torsion [N]-CA--CB-[CG] |==|  0.49788
USER: genes 17 Torsion [CA]-CB--CG-[CD2] |==|  0.15295
USER: genes 18 Torsion [N]-CA--C-[N] |==|  0.38131
USER: genes 19 Torsion [C]-N--CA-[C] |==|  0.27194
USER: genes 20 Torsion [N]-CA--C-[N] |==|  0.35534
USER: genes 21 Torsion [N]-CA--C-[OXT] |==|  0.89302
ROOT
ATOM      1  CA  LEU E  32       9.469 150.849  70.791  1.00142.86 LIG 0.18  C 
ENDROOT
BRANCH 1 2
ATOM      2  N   LEU E  32       8.516 150.090  71.599  1.00142.97 LIG-0.35  N 
ATOM      3 H    LEU E  32       8.188 149.400  71.204  1.00142.97 LIG 0.16  HD
ATOM      4  C   ASN E  31       8.199 150.452  72.840  1.00143.13 LIG 0.24  C 
ATOM      5 O    ASN E  31       8.612 151.487  73.357  1.00142.70 LIG-0.27  OA
BRANCH 4 6
ATOM      6  CA  ASN E  31       7.280 149.503  73.614  1.00143.53 LIG 0.18  C 
BRANCH 6 7
ATOM      7  CB  ASN E  31       5.857 150.064  73.670  1.00143.35 LIG 0.14  C 
BRANCH 7 8
ATOM      8  CG  ASN E  31       4.849 149.181  72.971  1.00142.31 LIG 0.22  C 
ATOM      9  ND2 ASN E  31       4.029 149.782  72.119  1.00140.74 LIG-0.37  N 
ATOM     10 21HD ASN E  31       3.466 149.317  71.663  1.00140.74 LIG 0.16  HD
ATOM     11 22HD ASN E  31       4.059 150.636  72.023  1.00140.74 LIG 0.16  HD
ATOM     12 OD1  ASN E  31       4.847 147.965  73.146  1.00141.61 LIG-0.27  OA
ENDBRANCH 7 8
ENDBRANCH 6 7
BRANCH 6 13
ATOM     13  N   ASN E  31       7.761 149.290  74.974  1.00144.28 LIG-0.34  N 
ATOM     14  C   ARG E  30       8.316 148.145  75.359  1.00145.24 LIG 0.26  C 
ATOM     15 O    ARG E  30       8.250 147.117  74.691  1.00145.16 LIG-0.27  OA
ATOM     16 H    ASN E  31       7.652 149.966  75.495  1.00144.28 LIG 0.16  HD
BRANCH 14 17
ATOM     17  CA  ARG E  30       9.001 148.153  76.730  1.00146.00 LIG 0.40  C 
ATOM     18  N   ARG E  30      10.349 147.518  76.693  1.00146.11 LIG 0.61  N 
BRANCH 17 19
ATOM     19  CB  ARG E  30       9.109 149.590  77.239  1.00146.54 LIG 0.05  C 
BRANCH 19 20
ATOM     20  CG  ARG E  30      10.545 150.072  77.400  1.00147.66 LIG 0.02  C 
BRANCH 20 21
ATOM     21  CD  ARG E  30      10.834 150.729  78.736  1.00149.13 LIG 0.14  C 
BRANCH 21 22
ATOM     22  NE  ARG E  30      11.130 149.753  79.782  1.00150.31 LIG-0.23  N 
ATOM     23 HE   ARG E  30      10.499 149.222  80.025  1.00150.31 LIG 0.18  HD
ATOM     24  CZ  ARG E  30      12.306 149.631  80.384  1.00151.12 LIG 0.67  C 
ATOM     25  NH1 ARG E  30      13.320 150.408  80.031  1.00151.59 LIG-0.23  N 
ATOM     26  NH2 ARG E  30      12.473 148.726  81.338  1.00151.52 LIG-0.23  N 
ATOM     27 1HH1 ARG E  30      13.218 150.995  79.411  1.00151.59 LIG 0.17  HD
ATOM     28 2HH1 ARG E  30      14.081 150.327  80.423  1.00151.59 LIG 0.17  HD
ATOM     29 1HH2 ARG E  30      11.819 148.218  81.568  1.00151.52 LIG 0.17  HD
ATOM     30 2HH2 ARG E  30      13.235 148.648  81.728  1.00151.52 LIG 0.17  HD
ENDBRANCH 21 22
ENDBRANCH 20 21
ENDBRANCH 19 20
ENDBRANCH 17 19
ENDBRANCH 14 17
ENDBRANCH 6 13
ENDBRANCH 4 6
ENDBRANCH 1 2
BRANCH 1 31
ATOM     31  CB  LEU E  32       9.023 152.308  70.678  1.00142.51 LIG 0.04  C 
BRANCH 31 32
ATOM     32  CG  LEU E  32       9.063 152.937  69.287  1.00140.78 LIG-0.02  C 
ATOM     33  CD1 LEU E  32       8.090 154.093  69.213  1.00139.49 LIG 0.01  C 
ATOM     34  CD2 LEU E  32      10.464 153.396  68.943  1.00139.97 LIG 0.01  C 
ENDBRANCH 31 32
ENDBRANCH 1 31
BRANCH 1 35
ATOM     35  C   LEU E  32      10.906 150.797  71.321  1.00143.34 LIG 0.24  C 
ATOM     36  N   PHE E  33      11.068 150.365  72.571  1.00143.72 LIG-0.35  N 
ATOM     37 H    PHE E  33      10.440 150.013  73.041  1.00143.72 LIG 0.16  HD
ATOM     38 O    LEU E  32      11.843 151.189  70.630  1.00143.58 LIG-0.27  OA
BRANCH 36 39
ATOM     39  CA  PHE E  33      12.354 150.460  73.258  1.00144.11 LIG 0.18  C 
BRANCH 39 40
ATOM     40  CB  PHE E  33      12.220 149.960  74.691  1.00143.74 LIG 0.07  C 
BRANCH 40 41
ATOM     41  CG  PHE E  33      13.498 150.007  75.457  1.00143.08 LIG-0.06  A 
ATOM     42  CD2 PHE E  33      14.210 151.186  75.569  1.00142.72 LIG 0.01  A 
ATOM     43  CE2 PHE E  33      15.385 151.232  76.287  1.00141.76 LIG 0.00  A 
ATOM     44  CZ  PHE E  33      15.850 150.102  76.915  1.00141.29 LIG 0.00  A 
ATOM     45  CE1 PHE E  33      15.142 148.924  76.823  1.00141.79 LIG 0.00  A 
ATOM     46  CD1 PHE E  33      13.973 148.880  76.100  1.00142.36 LIG 0.01  A 
ENDBRANCH 40 41
ENDBRANCH 39 40
BRANCH 39 47
ATOM     47  C   PHE E  33      13.466 149.687  72.564  1.00145.05 LIG 0.24  C 
ATOM     48 O    PHE E  33      13.247 148.573  72.091  1.00145.07 LIG-0.27  OA
ATOM     49  N   GLY E  34      14.648 150.287  72.475  1.00146.17 LIG-0.35  N 
ATOM     50 H    GLY E  34      14.799 151.093  72.733  1.00146.17 LIG 0.16  HD
BRANCH 49 51
ATOM     51  CA  GLY E  34      15.803 149.606  71.918  1.00147.07 LIG 0.23  C 
BRANCH 51 52
ATOM     52  C   GLY E  34      16.008 149.982  70.462  1.00147.85 LIG 0.24  C 
ATOM     53  N   PRO E  35      17.220 150.409  70.117  1.00148.70 LIG-0.34  N 
ATOM     54  CA  PRO E  35      17.528 150.805  68.740  1.00149.01 LIG 0.19  C 
ATOM     55  CD  PRO E  35      18.403 150.494  70.994  1.00148.94 LIG 0.13  C 
ATOM     56  CB  PRO E  35      19.044 151.060  68.778  1.00149.16 LIG 0.04  C 
ATOM     57  CG  PRO E  35      19.526 150.351  70.009  1.00149.11 LIG 0.02  C 
ATOM     58 O    GLY E  34      15.086 149.871  69.649  1.00147.94 LIG-0.27  OA
BRANCH 54 59
ATOM     59  C   PRO E  35      17.180 149.699  67.740  1.00149.03 LIG 0.20  C 
ATOM     60 OXT  PRO E  35      17.373 148.512  67.996  1.00149.10 LIG-0.65  OA
ATOM     61 O    PRO E  35      16.644 149.940  66.656  1.00148.99 LIG-0.65  OA
ENDBRANCH 54 59
ENDBRANCH 51 52
ENDBRANCH 49 51
ENDBRANCH 39 47
ENDBRANCH 36 39
ENDBRANCH 1 35
TORSDOF 20
ENDMDL
MODEL 12
USER: ADFR SOLUTION from run 123
USER: SCORE 17.848302 LL:  -4.119 LR: -15.555 RR:   0.000 FEB:  -9.589
USER: RMSD 5.253557
USER: SEED 122
USER: STATUS no improvement in best in 7 clusters for 5 generations
USER: GENES 22
USER: genes 0 Translation |==|  0.41369 0.36085 0.66061
USER: genes 1 Rotation |==|  0.34449 0.44664 0.42282 0.96585
USER: genes 2 Torsion [CB]-CA--N-[C] |==|  0.80303
USER: genes 3 Torsion [N]-C--CA-[N] |==|  0.86111
USER: genes 4 Torsion [C]-CA--CB-[CG] |==|  0.19814
USER: genes 5 Torsion [CA]-CB--CG-[ND2] |==|  0.35717
USER: genes 6 Torsion [C]-CA--N-[C] |==|  0.83564
USER: genes 7 Torsion [N]-C--CA-[N] |==|  0.28242
USER: genes 8 Torsion [C]-CA--CB-[CG] |==|  0.79764
USER: genes 9 Torsion [CA]-CB--CG-[CD] |==|  0.45948
USER: genes 10 Torsion [CB]-CG--CD-[NE] |==|  0.31964
USER: genes 11 Torsion [CG]-CD--NE-[HE] |==|  0.09971
USER: genes 12 Torsion [N]-CA--CB-[CG] |==|  0.54153
USER: genes 13 Torsion [CA]-CB--CG-[CD2] |==|  0.07600
USER: genes 14 Torsion [N]-CA--C-[N] |==|  0.78626
USER: genes 15 Torsion [C]-N--CA-[C] |==|  0.85337
USER: genes 16 Torsion [N]-CA--CB-[CG] |==|  0.45415
USER: genes 17 Torsion [CA]-CB--CG-[CD2] |==|  0.24101
USER: genes 18 Torsion [N]-CA--C-[N] |==|  0.88987
USER: genes 19 Torsion [C]-N--CA-[C] |==|  0.29946
USER: genes 20 Torsion [N]-CA--C-[N] |==|  0.70461
USER: genes 21 Torsion [N]-CA--C-[OXT] |==|  0.69376
ROOT
ATOM      1  CA  LEU E  32      11.843 150.937  74.862  1.00142.86 LIG 0.18  C 
ENDROOT
BRANCH 1 2
ATOM      2  N   LEU E  32      10.617 150.909  74.065  1.00142.97 LIG-0.35  N 
ATOM      3 H    LEU E  32       9.994 151.424  74.357  1.00142.97 LIG 0.16  HD
ATOM      4  C   ASN E  31      10.498 150.143  72.984  1.00143.13 LIG 0.24  C 
ATOM      5 O    ASN E  31      11.367 149.350  72.631  1.00142.70 LIG-0.27  OA
BRANCH 4 6
ATOM      6  CA  ASN E  31       9.206 150.299  72.176  1.00143.53 LIG 0.18  C 
BRANCH 6 7
ATOM      7  CB  ASN E  31       9.194 151.641  71.441  1.00143.35 LIG 0.14  C 
BRANCH 7 8
ATOM      8  CG  ASN E  31      10.172 151.689  70.289  1.00142.31 LIG 0.22  C 
ATOM      9  ND2 ASN E  31       9.687 152.084  69.119  1.00140.74 LIG-0.37  N 
ATOM     10 21HD ASN E  31      10.211 152.170  68.442  1.00140.74 LIG 0.16  HD
ATOM     11 22HD ASN E  31       8.847 152.254  69.036  1.00140.74 LIG 0.16  HD
ATOM     12 OD1  ASN E  31      11.361 151.433  70.461  1.00141.61 LIG-0.27  OA
ENDBRANCH 7 8
ENDBRANCH 6 7
BRANCH 6 13
ATOM     13  N   ASN E  31       8.030 150.217  73.034  1.00144.28 LIG-0.34  N 
ATOM     14  C   ARG E  30       7.766 149.146  73.776  1.00145.24 LIG 0.26  C 
ATOM     15 O    ARG E  30       8.341 148.072  73.619  1.00145.16 LIG-0.27  OA
ATOM     16 H    ASN E  31       7.531 150.917  73.014  1.00144.28 LIG 0.16  HD
BRANCH 14 17
ATOM     17  CA  ARG E  30       6.648 149.299  74.812  1.00146.00 LIG 0.40  C 
ATOM     18  N   ARG E  30       5.369 148.679  74.359  1.00146.11 LIG 0.61  N 
BRANCH 17 19
ATOM     19  CB  ARG E  30       7.091 148.682  76.138  1.00146.54 LIG 0.05  C 
BRANCH 19 20
ATOM     20  CG  ARG E  30       7.121 147.159  76.122  1.00147.66 LIG 0.02  C 
BRANCH 20 21
ATOM     21  CD  ARG E  30       7.877 146.540  77.282  1.00149.13 LIG 0.14  C 
BRANCH 21 22
ATOM     22  NE  ARG E  30       7.006 145.764  78.162  1.00150.31 LIG-0.23  N 
ATOM     23 HE   ARG E  30       6.362 145.324  77.801  1.00150.31 LIG 0.18  HD
ATOM     24  CZ  ARG E  30       7.142 145.692  79.479  1.00151.12 LIG 0.67  C 
ATOM     25  NH1 ARG E  30       8.133 146.331  80.084  1.00151.59 LIG-0.23  N 
ATOM     26  NH2 ARG E  30       6.288 144.975  80.196  1.00151.52 LIG-0.23  N 
ATOM     27 1HH1 ARG E  30       8.692 146.795  79.623  1.00151.59 LIG 0.17  HD
ATOM     28 2HH1 ARG E  30       8.219 146.283  80.938  1.00151.59 LIG 0.17  HD
ATOM     29 1HH2 ARG E  30       5.646 144.557  79.808  1.00151.52 LIG 0.17  HD
ATOM     30 2HH2 ARG E  30       6.376 144.929  81.050  1.00151.52 LIG 0.17  HD
ENDBRANCH 21 22
ENDBRANCH 20 21
ENDBRANCH 19 20
ENDBRANCH 17 19
ENDBRANCH 14 17
ENDBRANCH 6 13
ENDBRANCH 4 6
ENDBRANCH 1 2
BRANCH 1 31
ATOM     31  CB  LEU E  32      12.006 149.623  75.629  1.00142.51 LIG 0.04  C 
BRANCH 31 32
ATOM     32  CG  LEU E  32      13.025 149.610  76.767  1.00140.78 LIG-0.02  C 
ATOM     33  CD1 LEU E  32      14.349 149.075  76.269  1.00139.49 LIG 0.01  C 
ATOM     34  CD2 LEU E  32      13.196 150.995  77.354  1.00139.97 LIG 0.01  C 
ENDBRANCH 31 32
ENDBRANCH 1 31
BRANCH 1 35
ATOM     35  C   LEU E  32      13.107 151.205  74.038  1.00143.34 LIG 0.24  C 
ATOM     36  N   PHE E  33      13.586 150.185  73.328  1.00143.72 LIG-0.35  N 
ATOM     37 H    PHE E  33      13.170 149.441  73.217  1.00143.72 LIG 0.16  HD
ATOM     38 O    LEU E  32      13.666 152.298  74.087  1.00143.58 LIG-0.27  OA
BRANCH 36 39
ATOM     39  CA  PHE E  33      14.888 150.251  72.667  1.00144.11 LIG 0.18  C 
BRANCH 39 40
ATOM     40  CB  PHE E  33      15.118 148.994  71.838  1.00143.74 LIG 0.07  C 
BRANCH 40 41
ATOM     41  CG  PHE E  33      16.214 149.136  70.838  1.00143.08 LIG-0.06  A 
ATOM     42  CD2 PHE E  33      17.526 148.880  71.189  1.00142.72 LIG 0.01  A 
ATOM     43  CE2 PHE E  33      18.537 149.000  70.261  1.00141.76 LIG 0.00  A 
ATOM     44  CZ  PHE E  33      18.244 149.360  68.968  1.00141.29 LIG 0.00  A 
ATOM     45  CE1 PHE E  33      16.939 149.604  68.602  1.00141.79 LIG 0.00  A 
ATOM     46  CD1 PHE E  33      15.932 149.490  69.533  1.00142.36 LIG 0.01  A 
ENDBRANCH 40 41
ENDBRANCH 39 40
BRANCH 39 47
ATOM     47  C   PHE E  33      15.048 151.472  71.773  1.00145.05 LIG 0.24  C 
ATOM     48 O    PHE E  33      16.126 152.062  71.714  1.00145.07 LIG-0.27  OA
ATOM     49  N   GLY E  34      13.991 151.832  71.055  1.00146.17 LIG-0.35  N 
ATOM     50 H    GLY E  34      13.254 151.389  71.027  1.00146.17 LIG 0.16  HD
BRANCH 49 51
ATOM     51  CA  GLY E  34      14.002 153.035  70.241  1.00147.07 LIG 0.23  C 
BRANCH 51 52
ATOM     52  C   GLY E  34      14.067 152.693  68.764  1.00147.85 LIG 0.24  C 
ATOM     53  N   PRO E  35      15.228 152.903  68.150  1.00148.70 LIG-0.34  N 
ATOM     54  CA  PRO E  35      15.402 152.614  66.723  1.00149.01 LIG 0.19  C 
ATOM     55  CD  PRO E  35      16.477 153.377  68.773  1.00148.94 LIG 0.13  C 
ATOM     56  CB  PRO E  35      16.905 152.848  66.497  1.00149.16 LIG 0.04  C 
ATOM     57  CG  PRO E  35      17.517 152.787  67.866  1.00149.11 LIG 0.02  C 
ATOM     58 O    GLY E  34      13.084 152.223  68.184  1.00147.94 LIG-0.27  OA
BRANCH 54 59
ATOM     59  C   PRO E  35      15.011 151.172  66.385  1.00149.03 LIG 0.20  C 
ATOM     60 OXT  PRO E  35      15.852 150.333  66.066  1.00149.10 LIG-0.65  OA
ATOM     61 O    PRO E  35      13.849 150.771  66.465  1.00148.99 LIG-0.65  OA
ENDBRANCH 54 59
ENDBRANCH 51 52
ENDBRANCH 49 51
ENDBRANCH 39 47
ENDBRANCH 36 39
ENDBRANCH 1 35
TORSDOF 20
ENDMDL
MODEL 13
USER: ADFR SOLUTION from run 65
USER: SCORE 18.257936 LL:  -3.147 LR: -15.492 RR:   0.000 FEB:  -9.526
USER: RMSD 7.237617
USER: SEED 64
USER: STATUS searching
USER: GENES 22
USER: genes 0 Translation |==|  0.31777 0.32664 0.50394
USER: genes 1 Rotation |==|  0.96558 0.66246 0.50930 0.58222
USER: genes 2 Torsion [CB]-CA--N-[C] |==|  0.84087
USER: genes 3 Torsion [N]-C--CA-[N] |==|  0.34014
USER: genes 4 Torsion [C]-CA--CB-[CG] |==|  0.33999
USER: genes 5 Torsion [CA]-CB--CG-[ND2] |==|  0.65323
USER: genes 6 Torsion [C]-CA--N-[C] |==|  0.74922
USER: genes 7 Torsion [N]-C--CA-[N] |==|  0.91707
USER: genes 8 Torsion [C]-CA--CB-[CG] |==|  0.26436
USER: genes 9 Torsion [CA]-CB--CG-[CD] |==|  0.34824
USER: genes 10 Torsion [CB]-CG--CD-[NE] |==|  0.17316
USER: genes 11 Torsion [CG]-CD--NE-[HE] |==|  0.18612
USER: genes 12 Torsion [N]-CA--CB-[CG] |==|  0.65169
USER: genes 13 Torsion [CA]-CB--CG-[CD2] |==|  0.75857
USER: genes 14 Torsion [N]-CA--C-[N] |==|  0.34798
USER: genes 15 Torsion [C]-N--CA-[C] |==|  0.76999
USER: genes 16 Torsion [N]-CA--CB-[CG] |==|  0.27554
USER: genes 17 Torsion [CA]-CB--CG-[CD2] |==|  0.82069
USER: genes 18 Torsion [N]-CA--C-[N] |==|  0.97329
USER: genes 19 Torsion [C]-N--CA-[C] |==|  0.85000
USER: genes 20 Torsion [N]-CA--C-[N] |==|  0.35846
USER: genes 21 Torsion [N]-CA--C-[OXT] |==|  0.39793
ROOT
ATOM      1  CA  LEU E  32       9.901 150.244  71.455  1.00142.86 LIG 0.18  C 
ENDROOT
BRANCH 1 2
ATOM      2  N   LEU E  32       8.738 149.575  72.035  1.00142.97 LIG-0.35  N 
ATOM      3 H    LEU E  32       8.463 148.893  71.589  1.00142.97 LIG 0.16  HD
ATOM      4  C   ASN E  31       8.167 150.001  73.159  1.00143.13 LIG 0.24  C 
ATOM      5 O    ASN E  31       8.519 151.027  73.736  1.00142.70 LIG-0.27  OA
BRANCH 4 6
ATOM      6  CA  ASN E  31       7.032 149.138  73.718  1.00143.53 LIG 0.18  C 
BRANCH 6 7
ATOM      7  CB  ASN E  31       5.714 149.917  73.708  1.00143.35 LIG 0.14  C 
BRANCH 7 8
ATOM      8  CG  ASN E  31       4.629 149.225  72.915  1.00142.31 LIG 0.22  C 
ATOM      9  ND2 ASN E  31       4.063 149.934  71.947  1.00140.74 LIG-0.37  N 
ATOM     10 21HD ASN E  31       3.471 149.572  71.438  1.00140.74 LIG 0.16  HD
ATOM     11 22HD ASN E  31       4.287 150.756  71.828  1.00140.74 LIG 0.16  HD
ATOM     12 OD1  ASN E  31       4.345 148.049  73.128  1.00141.61 LIG-0.27  OA
ENDBRANCH 7 8
ENDBRANCH 6 7
BRANCH 6 13
ATOM     13  N   ASN E  31       7.317 148.703  75.080  1.00144.28 LIG-0.34  N 
ATOM     14  C   ARG E  30       7.954 147.567  75.344  1.00145.24 LIG 0.26  C 
ATOM     15 O    ARG E  30       8.134 146.695  74.498  1.00145.16 LIG-0.27  OA
ATOM     16 H    ASN E  31       7.036 149.244  75.687  1.00144.28 LIG 0.16  HD
BRANCH 14 17
ATOM     17  CA  ARG E  30       8.407 147.366  76.794  1.00146.00 LIG 0.40  C 
ATOM     18  N   ARG E  30       8.707 148.656  77.478  1.00146.11 LIG 0.61  N 
BRANCH 17 19
ATOM     19  CB  ARG E  30       7.330 146.600  77.563  1.00146.54 LIG 0.05  C 
BRANCH 19 20
ATOM     20  CG  ARG E  30       7.574 145.097  77.618  1.00147.66 LIG 0.02  C 
BRANCH 20 21
ATOM     21  CD  ARG E  30       7.591 144.522  79.021  1.00149.13 LIG 0.14  C 
BRANCH 21 22
ATOM     22  NE  ARG E  30       6.310 144.689  79.705  1.00150.31 LIG-0.23  N 
ATOM     23 HE   ARG E  30       5.634 144.253  79.402  1.00150.31 LIG 0.18  HD
ATOM     24  CZ  ARG E  30       6.120 145.467  80.762  1.00151.12 LIG 0.67  C 
ATOM     25  NH1 ARG E  30       7.134 146.143  81.285  1.00151.59 LIG-0.23  N 
ATOM     26  NH2 ARG E  30       4.914 145.569  81.303  1.00151.52 LIG-0.23  N 
ATOM     27 1HH1 ARG E  30       7.918 146.078  80.939  1.00151.59 LIG 0.17  HD
ATOM     28 2HH1 ARG E  30       7.007 146.647  81.970  1.00151.59 LIG 0.17  HD
ATOM     29 1HH2 ARG E  30       4.255 145.131  80.969  1.00151.52 LIG 0.17  HD
ATOM     30 2HH2 ARG E  30       4.791 146.075  81.988  1.00151.52 LIG 0.17  HD
ENDBRANCH 21 22
ENDBRANCH 20 21
ENDBRANCH 19 20
ENDBRANCH 17 19
ENDBRANCH 14 17
ENDBRANCH 6 13
ENDBRANCH 4 6
ENDBRANCH 1 2
BRANCH 1 31
ATOM     31  CB  LEU E  32       9.582 151.716  71.183  1.00142.51 LIG 0.04  C 
BRANCH 31 32
ATOM     32  CG  LEU E  32       9.813 152.220  69.759  1.00140.78 LIG-0.02  C 
ATOM     33  CD1 LEU E  32       8.849 153.343  69.446  1.00139.49 LIG 0.01  C 
ATOM     34  CD2 LEU E  32      11.244 152.679  69.574  1.00139.97 LIG 0.01  C 
ENDBRANCH 31 32
ENDBRANCH 1 31
BRANCH 1 35
ATOM     35  C   LEU E  32      11.162 150.149  72.321  1.00143.34 LIG 0.24  C 
ATOM     36  N   PHE E  33      12.251 149.651  71.739  1.00143.72 LIG-0.35  N 
ATOM     37 H    PHE E  33      12.316 149.496  70.895  1.00143.72 LIG 0.16  HD
ATOM     38 O    LEU E  32      11.133 150.471  73.506  1.00143.58 LIG-0.27  OA
BRANCH 36 39
ATOM     39  CA  PHE E  33      13.451 149.321  72.505  1.00144.11 LIG 0.18  C 
BRANCH 39 40
ATOM     40  CB  PHE E  33      14.256 148.250  71.782  1.00143.74 LIG 0.07  C 
BRANCH 40 41
ATOM     41  CG  PHE E  33      15.403 148.796  71.002  1.00143.08 LIG-0.06  A 
ATOM     42  CD2 PHE E  33      15.187 149.630  69.921  1.00142.72 LIG 0.01  A 
ATOM     43  CE2 PHE E  33      16.248 150.144  69.208  1.00141.76 LIG 0.00  A 
ATOM     44  CZ  PHE E  33      17.536 149.842  69.579  1.00141.29 LIG 0.00  A 
ATOM     45  CE1 PHE E  33      17.765 149.023  70.662  1.00141.79 LIG 0.00  A 
ATOM     46  CD1 PHE E  33      16.703 148.506  71.369  1.00142.36 LIG 0.01  A 
ENDBRANCH 40 41
ENDBRANCH 39 40
BRANCH 39 47
ATOM     47  C   PHE E  33      14.347 150.523  72.768  1.00145.05 LIG 0.24  C 
ATOM     48 O    PHE E  33      15.312 150.425  73.524  1.00145.07 LIG-0.27  OA
ATOM     49  N   GLY E  34      14.050 151.646  72.124  1.00146.17 LIG-0.35  N 
ATOM     50 H    GLY E  34      13.425 151.712  71.536  1.00146.17 LIG 0.16  HD
BRANCH 49 51
ATOM     51  CA  GLY E  34      14.778 152.877  72.371  1.00147.07 LIG 0.23  C 
BRANCH 51 52
ATOM     52  C   GLY E  34      14.779 153.222  73.849  1.00147.85 LIG 0.24  C 
ATOM     53  N   PRO E  35      15.959 153.491  74.401  1.00148.70 LIG-0.34  N 
ATOM     54  CA  PRO E  35      16.079 153.830  75.823  1.00149.01 LIG 0.19  C 
ATOM     55  CD  PRO E  35      17.260 153.548  73.709  1.00148.94 LIG 0.13  C 
ATOM     56  CB  PRO E  35      17.561 154.210  75.970  1.00149.16 LIG 0.04  C 
ATOM     57  CG  PRO E  35      18.027 154.504  74.575  1.00149.11 LIG 0.02  C 
ATOM     58 O    GLY E  34      13.723 153.267  74.484  1.00147.94 LIG-0.27  OA
BRANCH 54 59
ATOM     59  C   PRO E  35      15.168 155.000  76.205  1.00149.03 LIG 0.20  C 
ATOM     60 OXT  PRO E  35      14.596 155.045  77.293  1.00149.10 LIG-0.65  OA
ATOM     61 O    PRO E  35      15.006 155.974  75.467  1.00148.99 LIG-0.65  OA
ENDBRANCH 54 59
ENDBRANCH 51 52
ENDBRANCH 49 51
ENDBRANCH 39 47
ENDBRANCH 36 39
ENDBRANCH 1 35
TORSDOF 20
ENDMDL
MODEL 14
USER: ADFR SOLUTION from run 179
USER: SCORE 17.915572 LL:  -4.067 LR: -15.484 RR:   0.000 FEB:  -9.518
USER: RMSD 6.315961
USER: SEED 178
USER: STATUS no improvement in best in 9 clusters for 5 generations
USER: GENES 22
USER: genes 0 Translation |==|  0.38040 0.31338 0.58530
USER: genes 1 Rotation |==|  0.90663 0.65752 0.25909 0.54240
USER: genes 2 Torsion [CB]-CA--N-[C] |==|  0.84502
USER: genes 3 Torsion [N]-C--CA-[N] |==|  0.89228
USER: genes 4 Torsion [C]-CA--CB-[CG] |==|  0.23349
USER: genes 5 Torsion [CA]-CB--CG-[ND2] |==|  0.39873
USER: genes 6 Torsion [C]-CA--N-[C] |==|  0.84396
USER: genes 7 Torsion [N]-C--CA-[N] |==|  0.44098
USER: genes 8 Torsion [C]-CA--CB-[CG] |==|  0.20934
USER: genes 9 Torsion [CA]-CB--CG-[CD] |==|  0.09529
USER: genes 10 Torsion [CB]-CG--CD-[NE] |==|  0.19969
USER: genes 11 Torsion [CG]-CD--NE-[HE] |==|  0.11528
USER: genes 12 Torsion [N]-CA--CB-[CG] |==|  0.61805
USER: genes 13 Torsion [CA]-CB--CG-[CD2] |==|  0.06229
USER: genes 14 Torsion [N]-CA--C-[N] |==|  0.91536
USER: genes 15 Torsion [C]-N--CA-[C] |==|  0.19036
USER: genes 16 Torsion [N]-CA--CB-[CG] |==|  0.41661
USER: genes 17 Torsion [CA]-CB--CG-[CD2] |==|  0.22273
USER: genes 18 Torsion [N]-CA--C-[N] |==|  0.88847
USER: genes 19 Torsion [C]-N--CA-[C] |==|  0.33879
USER: genes 20 Torsion [N]-CA--C-[N] |==|  0.66342
USER: genes 21 Torsion [N]-CA--C-[OXT] |==|  0.21982
ROOT
ATOM      1  CA  LEU E  32      11.169 149.976  73.224  1.00142.86 LIG 0.18  C 
ENDROOT
BRANCH 1 2
ATOM      2  N   LEU E  32      11.073 149.630  74.642  1.00142.97 LIG-0.35  N 
ATOM      3 H    LEU E  32      10.576 148.948  74.806  1.00142.97 LIG 0.16  HD
ATOM      4  C   ASN E  31      11.708 150.326  75.582  1.00143.13 LIG 0.24  C 
ATOM      5 O    ASN E  31      12.344 151.348  75.337  1.00142.70 LIG-0.27  OA
BRANCH 4 6
ATOM      6  CA  ASN E  31      11.616 149.784  77.011  1.00143.53 LIG 0.18  C 
BRANCH 6 7
ATOM      7  CB  ASN E  31      12.651 148.678  77.231  1.00143.35 LIG 0.14  C 
BRANCH 7 8
ATOM      8  CG  ASN E  31      14.016 149.215  77.596  1.00142.31 LIG 0.22  C 
ATOM      9  ND2 ASN E  31      14.713 148.505  78.474  1.00140.74 LIG-0.37  N 
ATOM     10 21HD ASN E  31      15.513 148.744  78.683  1.00140.74 LIG 0.16  HD
ATOM     11 22HD ASN E  31      14.366 147.806  78.836  1.00140.74 LIG 0.16  HD
ATOM     12 OD1  ASN E  31      14.465 150.220  77.052  1.00141.61 LIG-0.27  OA
ENDBRANCH 7 8
ENDBRANCH 6 7
BRANCH 6 13
ATOM     13  N   ASN E  31      10.288 149.255  77.295  1.00144.28 LIG-0.34  N 
ATOM     14  C   ARG E  30       9.188 149.988  77.155  1.00145.24 LIG 0.26  C 
ATOM     15 O    ARG E  30       9.216 151.208  77.016  1.00145.16 LIG-0.27  OA
ATOM     16 H    ASN E  31      10.285 148.436  77.558  1.00144.28 LIG 0.16  HD
BRANCH 14 17
ATOM     17  CA  ARG E  30       7.857 149.234  77.240  1.00146.00 LIG 0.40  C 
ATOM     18  N   ARG E  30       6.717 150.133  77.579  1.00146.11 LIG 0.61  N 
BRANCH 17 19
ATOM     19  CB  ARG E  30       7.588 148.519  75.915  1.00146.54 LIG 0.05  C 
BRANCH 19 20
ATOM     20  CG  ARG E  30       8.434 147.268  75.716  1.00147.66 LIG 0.02  C 
BRANCH 20 21
ATOM     21  CD  ARG E  30       8.720 146.502  76.994  1.00149.13 LIG 0.14  C 
BRANCH 21 22
ATOM     22  NE  ARG E  30       7.537 145.812  77.505  1.00150.31 LIG-0.23  N 
ATOM     23 HE   ARG E  30       7.028 145.416  76.937  1.00150.31 LIG 0.18  HD
ATOM     24  CZ  ARG E  30       7.196 145.755  78.785  1.00151.12 LIG 0.67  C 
ATOM     25  NH1 ARG E  30       7.959 146.328  79.706  1.00151.59 LIG-0.23  N 
ATOM     26  NH2 ARG E  30       6.091 145.121  79.150  1.00151.52 LIG-0.23  N 
ATOM     27 1HH1 ARG E  30       8.678 146.739  79.474  1.00151.59 LIG 0.17  HD
ATOM     28 2HH1 ARG E  30       7.735 146.290  80.535  1.00151.59 LIG 0.17  HD
ATOM     29 1HH2 ARG E  30       5.595 144.745  78.557  1.00151.52 LIG 0.17  HD
ATOM     30 2HH2 ARG E  30       5.870 145.085  79.981  1.00151.52 LIG 0.17  HD
ENDBRANCH 21 22
ENDBRANCH 20 21
ENDBRANCH 19 20
ENDBRANCH 17 19
ENDBRANCH 14 17
ENDBRANCH 6 13
ENDBRANCH 4 6
ENDBRANCH 1 2
BRANCH 1 31
ATOM     31  CB  LEU E  32      10.748 151.431  73.005  1.00142.51 LIG 0.04  C 
BRANCH 31 32
ATOM     32  CG  LEU E  32       9.860 151.718  71.796  1.00140.78 LIG-0.02  C 
ATOM     33  CD1 LEU E  32      10.693 152.271  70.661  1.00139.49 LIG 0.01  C 
ATOM     34  CD2 LEU E  32       9.125 150.468  71.358  1.00139.97 LIG 0.01  C 
ENDBRANCH 31 32
ENDBRANCH 1 31
BRANCH 1 35
ATOM     35  C   LEU E  32      12.564 149.756  72.630  1.00143.34 LIG 0.24  C 
ATOM     36  N   PHE E  33      13.598 149.905  73.457  1.00143.72 LIG-0.35  N 
ATOM     37 H    PHE E  33      13.521 149.998  74.309  1.00143.72 LIG 0.16  HD
ATOM     38 O    LEU E  32      12.703 149.507  71.435  1.00143.58 LIG-0.27  OA
BRANCH 36 39
ATOM     39  CA  PHE E  33      14.976 149.922  72.972  1.00144.11 LIG 0.18  C 
BRANCH 39 40
ATOM     40  CB  PHE E  33      15.254 148.677  72.141  1.00143.74 LIG 0.07  C 
BRANCH 40 41
ATOM     41  CG  PHE E  33      16.270 148.893  71.072  1.00143.08 LIG-0.06  A 
ATOM     42  CD2 PHE E  33      17.620 148.880  71.369  1.00142.72 LIG 0.01  A 
ATOM     43  CE2 PHE E  33      18.559 149.068  70.378  1.00141.76 LIG 0.00  A 
ATOM     44  CZ  PHE E  33      18.157 149.252  69.078  1.00141.29 LIG 0.00  A 
ATOM     45  CE1 PHE E  33      16.816 149.252  68.766  1.00141.79 LIG 0.00  A 
ATOM     46  CD1 PHE E  33      15.880 149.071  69.758  1.00142.36 LIG 0.01  A 
ENDBRANCH 40 41
ENDBRANCH 39 40
BRANCH 39 47
ATOM     47  C   PHE E  33      15.308 151.156  72.146  1.00145.05 LIG 0.24  C 
ATOM     48 O    PHE E  33      16.407 151.698  72.252  1.00145.07 LIG-0.27  OA
ATOM     49  N   GLY E  34      14.375 151.581  71.301  1.00146.17 LIG-0.35  N 
ATOM     50 H    GLY E  34      13.632 151.172  71.159  1.00146.17 LIG 0.16  HD
BRANCH 49 51
ATOM     51  CA  GLY E  34      14.548 152.801  70.532  1.00147.07 LIG 0.23  C 
BRANCH 51 52
ATOM     52  C   GLY E  34      14.454 152.525  69.043  1.00147.85 LIG 0.24  C 
ATOM     53  N   PRO E  35      15.512 152.849  68.305  1.00148.70 LIG-0.34  N 
ATOM     54  CA  PRO E  35      15.529 152.632  66.855  1.00149.01 LIG 0.19  C 
ATOM     55  CD  PRO E  35      16.792 153.394  68.797  1.00148.94 LIG 0.13  C 
ATOM     56  CB  PRO E  35      16.972 152.991  66.462  1.00149.16 LIG 0.04  C 
ATOM     57  CG  PRO E  35      17.751 152.923  67.743  1.00149.11 LIG 0.02  C 
ATOM     58 O    GLY E  34      13.444 152.003  68.563  1.00147.94 LIG-0.27  OA
BRANCH 54 59
ATOM     59  C   PRO E  35      15.205 151.179  66.495  1.00149.03 LIG 0.20  C 
ATOM     60 OXT  PRO E  35      14.050 150.758  66.488  1.00149.10 LIG-0.65  OA
ATOM     61 O    PRO E  35      16.076 150.380  66.147  1.00148.99 LIG-0.65  OA
ENDBRANCH 54 59
ENDBRANCH 51 52
ENDBRANCH 49 51
ENDBRANCH 39 47
ENDBRANCH 36 39
ENDBRANCH 1 35
TORSDOF 20
ENDMDL
MODEL 15
USER: ADFR SOLUTION from run 56
USER: SCORE 16.503189 LL:  -3.471 LR: -15.463 RR:   0.000 FEB:  -9.497
USER: RMSD 7.314609
USER: SEED 55
USER: STATUS no improvement in best in 5 clusters for 5 generations
USER: GENES 22
USER: genes 0 Translation |==|  0.39203 0.36927 0.70894
USER: genes 1 Rotation |==|  0.23635 0.36376 0.43136 0.89650
USER: genes 2 Torsion [CB]-CA--N-[C] |==|  0.51827
USER: genes 3 Torsion [N]-C--CA-[N] |==|  0.07556
USER: genes 4 Torsion [C]-CA--CB-[CG] |==|  0.21829
USER: genes 5 Torsion [CA]-CB--CG-[ND2] |==|  0.46494
USER: genes 6 Torsion [C]-CA--N-[C] |==|  0.71830
USER: genes 7 Torsion [N]-C--CA-[N] |==|  0.31360
USER: genes 8 Torsion [C]-CA--CB-[CG] |==|  0.84593
USER: genes 9 Torsion [CA]-CB--CG-[CD] |==|  0.60563
USER: genes 10 Torsion [CB]-CG--CD-[NE] |==|  0.84621
USER: genes 11 Torsion [CG]-CD--NE-[HE] |==|  0.87232
USER: genes 12 Torsion [N]-CA--CB-[CG] |==|  0.40686
USER: genes 13 Torsion [CA]-CB--CG-[CD2] |==|  0.68090
USER: genes 14 Torsion [N]-CA--C-[N] |==|  0.84517
USER: genes 15 Torsion [C]-N--CA-[C] |==|  0.64951
USER: genes 16 Torsion [N]-CA--CB-[CG] |==|  0.72247
USER: genes 17 Torsion [CA]-CB--CG-[CD2] |==|  0.52897
USER: genes 18 Torsion [N]-CA--C-[N] |==|  0.10464
USER: genes 19 Torsion [C]-N--CA-[C] |==|  0.72965
USER: genes 20 Torsion [N]-CA--C-[N] |==|  0.30000
USER: genes 21 Torsion [N]-CA--C-[OXT] |==|  0.32811
ROOT
ATOM      1  CA  LEU E  32      11.405 151.108  75.913  1.00142.86 LIG 0.18  C 
ENDROOT
BRANCH 1 2
ATOM      2  N   LEU E  32      10.429 150.534  74.987  1.00142.97 LIG-0.35  N 
ATOM      3 H    LEU E  32       9.898 149.959  75.344  1.00142.97 LIG 0.16  HD
ATOM      4  C   ASN E  31      10.385 150.886  73.704  1.00143.13 LIG 0.24  C 
ATOM      5 O    ASN E  31      11.205 151.644  73.193  1.00142.70 LIG-0.27  OA
BRANCH 4 6
ATOM      6  CA  ASN E  31       9.239 150.297  72.875  1.00143.53 LIG 0.18  C 
BRANCH 6 7
ATOM      7  CB  ASN E  31       8.819 151.275  71.775  1.00143.35 LIG 0.14  C 
BRANCH 7 8
ATOM      8  CG  ASN E  31       9.756 151.262  70.589  1.00142.31 LIG 0.22  C 
ATOM      9  ND2 ASN E  31       9.331 151.879  69.494  1.00140.74 LIG-0.37  N 
ATOM     10 21HD ASN E  31       9.844 151.938  68.806  1.00140.74 LIG 0.16  HD
ATOM     11 22HD ASN E  31       8.541 152.221  69.471  1.00140.74 LIG 0.16  HD
ATOM     12 OD1  ASN E  31      10.873 150.758  70.673  1.00141.61 LIG-0.27  OA
ENDBRANCH 7 8
ENDBRANCH 6 7
BRANCH 6 13
ATOM     13  N   ASN E  31       8.082 149.993  73.708  1.00144.28 LIG-0.34  N 
ATOM     14  C   ARG E  30       7.803 148.758  74.110  1.00145.24 LIG 0.26  C 
ATOM     15 O    ARG E  30       8.339 147.765  73.627  1.00145.16 LIG-0.27  OA
ATOM     16 H    ASN E  31       7.605 150.680  73.910  1.00144.28 LIG 0.16  HD
BRANCH 14 17
ATOM     17  CA  ARG E  30       6.714 148.625  75.180  1.00146.00 LIG 0.40  C 
ATOM     18  N   ARG E  30       5.492 147.946  74.663  1.00146.11 LIG 0.61  N 
BRANCH 17 19
ATOM     19  CB  ARG E  30       7.270 147.863  76.384  1.00146.54 LIG 0.05  C 
BRANCH 19 20
ATOM     20  CG  ARG E  30       7.849 146.500  76.027  1.00147.66 LIG 0.02  C 
BRANCH 20 21
ATOM     21  CD  ARG E  30       7.573 145.420  77.055  1.00149.13 LIG 0.14  C 
BRANCH 21 22
ATOM     22  NE  ARG E  30       8.033 145.795  78.391  1.00150.31 LIG-0.23  N 
ATOM     23 HE   ARG E  30       8.818 146.136  78.463  1.00150.31 LIG 0.18  HD
ATOM     24  CZ  ARG E  30       7.320 145.644  79.499  1.00151.12 LIG 0.67  C 
ATOM     25  NH1 ARG E  30       6.093 145.145  79.441  1.00151.59 LIG-0.23  N 
ATOM     26  NH2 ARG E  30       7.831 145.996  80.670  1.00151.52 LIG-0.23  N 
ATOM     27 1HH1 ARG E  30       5.756 144.918  78.683  1.00151.59 LIG 0.17  HD
ATOM     28 2HH1 ARG E  30       5.634 145.048  80.162  1.00151.59 LIG 0.17  HD
ATOM     29 1HH2 ARG E  30       8.625 146.323  80.712  1.00151.52 LIG 0.17  HD
ATOM     30 2HH2 ARG E  30       7.369 145.898  81.388  1.00151.52 LIG 0.17  HD
ENDBRANCH 21 22
ENDBRANCH 20 21
ENDBRANCH 19 20
ENDBRANCH 17 19
ENDBRANCH 14 17
ENDBRANCH 6 13
ENDBRANCH 4 6
ENDBRANCH 1 2
BRANCH 1 31
ATOM     31  CB  LEU E  32      11.325 150.401  77.268  1.00142.51 LIG 0.04  C 
BRANCH 31 32
ATOM     32  CG  LEU E  32      12.632 150.250  78.045  1.00140.78 LIG-0.02  C 
ATOM     33  CD1 LEU E  32      12.502 150.896  79.407  1.00139.49 LIG 0.01  C 
ATOM     34  CD2 LEU E  32      13.014 148.791  78.181  1.00139.97 LIG 0.01  C 
ENDBRANCH 31 32
ENDBRANCH 1 31
BRANCH 1 35
ATOM     35  C   LEU E  32      12.847 151.058  75.398  1.00143.34 LIG 0.24  C 
ATOM     36  N   PHE E  33      13.319 149.861  75.054  1.00143.72 LIG-0.35  N 
ATOM     37 H    PHE E  33      12.834 149.153  74.995  1.00143.72 LIG 0.16  HD
ATOM     38 O    LEU E  32      13.534 152.076  75.363  1.00143.58 LIG-0.27  OA
BRANCH 36 39
ATOM     39  CA  PHE E  33      14.731 149.651  74.743  1.00144.11 LIG 0.18  C 
BRANCH 39 40
ATOM     40  CB  PHE E  33      15.384 148.797  75.822  1.00143.74 LIG 0.07  C 
BRANCH 40 41
ATOM     41  CG  PHE E  33      16.161 149.591  76.816  1.00143.08 LIG-0.06  A 
ATOM     42  CD2 PHE E  33      16.986 148.962  77.730  1.00142.72 LIG 0.01  A 
ATOM     43  CE2 PHE E  33      17.712 149.697  78.641  1.00141.76 LIG 0.00  A 
ATOM     44  CZ  PHE E  33      17.635 151.069  78.636  1.00141.29 LIG 0.00  A 
ATOM     45  CE1 PHE E  33      16.827 151.708  77.721  1.00141.79 LIG 0.00  A 
ATOM     46  CD1 PHE E  33      16.097 150.971  76.817  1.00142.36 LIG 0.01  A 
ENDBRANCH 40 41
ENDBRANCH 39 40
BRANCH 39 47
ATOM     47  C   PHE E  33      14.959 148.997  73.388  1.00145.05 LIG 0.24  C 
ATOM     48 O    PHE E  33      15.837 148.147  73.247  1.00145.07 LIG-0.27  OA
ATOM     49  N   GLY E  34      14.150 149.366  72.400  1.00146.17 LIG-0.35  N 
ATOM     50 H    GLY E  34      13.485 149.902  72.498  1.00146.17 LIG 0.16  HD
BRANCH 49 51
ATOM     51  CA  GLY E  34      14.337 148.878  71.045  1.00147.07 LIG 0.23  C 
BRANCH 51 52
ATOM     52  C   GLY E  34      15.103 149.883  70.205  1.00147.85 LIG 0.24  C 
ATOM     53  N   PRO E  35      16.357 149.571  69.892  1.00148.70 LIG-0.34  N 
ATOM     54  CA  PRO E  35      17.191 150.471  69.090  1.00149.01 LIG 0.19  C 
ATOM     55  CD  PRO E  35      17.060 148.318  70.226  1.00148.94 LIG 0.13  C 
ATOM     56  CB  PRO E  35      18.467 149.647  68.848  1.00149.16 LIG 0.04  C 
ATOM     57  CG  PRO E  35      18.067 148.226  69.118  1.00149.11 LIG 0.02  C 
ATOM     58 O    GLY E  34      14.561 150.924  69.823  1.00147.94 LIG-0.27  OA
BRANCH 54 59
ATOM     59  C   PRO E  35      16.516 150.842  67.766  1.00149.03 LIG 0.20  C 
ATOM     60 OXT  PRO E  35      16.224 152.006  67.493  1.00149.10 LIG-0.65  OA
ATOM     61 O    PRO E  35      16.280 150.005  66.893  1.00148.99 LIG-0.65  OA
ENDBRANCH 54 59
ENDBRANCH 51 52
ENDBRANCH 49 51
ENDBRANCH 39 47
ENDBRANCH 36 39
ENDBRANCH 1 35
TORSDOF 20
ENDMDL
MODEL 16
USER: ADFR SOLUTION from run 73
USER: SCORE 18.496789 LL:  -3.579 LR: -15.446 RR:   0.000 FEB:  -9.480
USER: RMSD 6.301646
USER: SEED 72
USER: STATUS no improvement in best in 8 clusters for 5 generations
USER: GENES 22
USER: genes 0 Translation |==|  0.32485 0.32168 0.48943
USER: genes 1 Rotation |==|  0.93334 0.67975 0.49282 0.67279
USER: genes 2 Torsion [CB]-CA--N-[C] |==|  0.84636
USER: genes 3 Torsion [N]-C--CA-[N] |==|  0.27387
USER: genes 4 Torsion [C]-CA--CB-[CG] |==|  0.31856
USER: genes 5 Torsion [CA]-CB--CG-[ND2] |==|  0.98646
USER: genes 6 Torsion [C]-CA--N-[C] |==|  0.74944
USER: genes 7 Torsion [N]-C--CA-[N] |==|  0.52294
USER: genes 8 Torsion [C]-CA--CB-[CG] |==|  0.76358
USER: genes 9 Torsion [CA]-CB--CG-[CD] |==|  0.63273
USER: genes 10 Torsion [CB]-CG--CD-[NE] |==|  0.45406
USER: genes 11 Torsion [CG]-CD--NE-[HE] |==|  0.15280
USER: genes 12 Torsion [N]-CA--CB-[CG] |==|  0.38537
USER: genes 13 Torsion [CA]-CB--CG-[CD2] |==|  0.64223
USER: genes 14 Torsion [N]-CA--C-[N] |==|  0.33943
USER: genes 15 Torsion [C]-N--CA-[C] |==|  0.77423
USER: genes 16 Torsion [N]-CA--CB-[CG] |==|  0.23986
USER: genes 17 Torsion [CA]-CB--CG-[CD2] |==|  0.89543
USER: genes 18 Torsion [N]-CA--C-[N] |==|  0.46029
USER: genes 19 Torsion [C]-N--CA-[C] |==|  0.81746
USER: genes 20 Torsion [N]-CA--C-[N] |==|  0.45000
USER: genes 21 Torsion [N]-CA--C-[OXT] |==|  0.33111
ROOT
ATOM      1  CA  LEU E  32      10.044 150.144  71.139  1.00142.86 LIG 0.18  C 
ENDROOT
BRANCH 1 2
ATOM      2  N   LEU E  32       8.902 149.630  71.894  1.00142.97 LIG-0.35  N 
ATOM      3 H    LEU E  32       8.728 148.800  71.749  1.00142.97 LIG 0.16  HD
ATOM      4  C   ASN E  31       8.206 150.397  72.729  1.00143.13 LIG 0.24  C 
ATOM      5 O    ASN E  31       8.417 151.600  72.859  1.00142.70 LIG-0.27  OA
BRANCH 4 6
ATOM      6  CA  ASN E  31       7.111 149.701  73.543  1.00143.53 LIG 0.18  C 
BRANCH 6 7
ATOM      7  CB  ASN E  31       5.870 150.592  73.640  1.00143.35 LIG 0.14  C 
BRANCH 7 8
ATOM      8  CG  ASN E  31       4.669 150.004  72.934  1.00142.31 LIG 0.22  C 
ATOM      9  ND2 ASN E  31       4.873 148.880  72.259  1.00140.74 LIG-0.37  N 
ATOM     10 21HD ASN E  31       4.213 148.482  71.876  1.00140.74 LIG 0.16  HD
ATOM     11 22HD ASN E  31       5.665 148.549  72.204  1.00140.74 LIG 0.16  HD
ATOM     12 OD1  ASN E  31       3.560 150.519  73.043  1.00141.61 LIG-0.27  OA
ENDBRANCH 7 8
ENDBRANCH 6 7
BRANCH 6 13
ATOM     13  N   ASN E  31       7.572 149.381  74.889  1.00144.28 LIG-0.34  N 
ATOM     14  C   ARG E  30       8.158 148.225  75.181  1.00145.24 LIG 0.26  C 
ATOM     15 O    ARG E  30       8.139 147.260  74.422  1.00145.16 LIG-0.27  OA
ATOM     16 H    ASN E  31       7.431 150.003  75.466  1.00144.28 LIG 0.16  HD
BRANCH 14 17
ATOM     17  CA  ARG E  30       8.815 148.129  76.563  1.00146.00 LIG 0.40  C 
ATOM     18  N   ARG E  30       9.610 146.879  76.726  1.00146.11 LIG 0.61  N 
BRANCH 17 19
ATOM     19  CB  ARG E  30       9.703 149.353  76.792  1.00146.54 LIG 0.05  C 
BRANCH 19 20
ATOM     20  CG  ARG E  30      11.105 149.203  76.216  1.00147.66 LIG 0.02  C 
BRANCH 20 21
ATOM     21  CD  ARG E  30      12.215 149.593  77.174  1.00149.13 LIG 0.14  C 
BRANCH 21 22
ATOM     22  NE  ARG E  30      13.518 149.085  76.751  1.00150.31 LIG-0.23  N 
ATOM     23 HE   ARG E  30      13.788 149.284  75.959  1.00150.31 LIG 0.18  HD
ATOM     24  CZ  ARG E  30      14.313 148.338  77.505  1.00151.12 LIG 0.67  C 
ATOM     25  NH1 ARG E  30      13.957 148.022  78.742  1.00151.59 LIG-0.23  N 
ATOM     26  NH2 ARG E  30      15.471 147.907  77.025  1.00151.52 LIG-0.23  N 
ATOM     27 1HH1 ARG E  30      13.207 148.302  79.059  1.00151.59 LIG 0.17  HD
ATOM     28 2HH1 ARG E  30      14.474 147.537  79.229  1.00151.59 LIG 0.17  HD
ATOM     29 1HH2 ARG E  30      15.708 148.112  76.224  1.00151.52 LIG 0.17  HD
ATOM     30 2HH2 ARG E  30      15.986 147.422  77.514  1.00151.52 LIG 0.17  HD
ENDBRANCH 21 22
ENDBRANCH 20 21
ENDBRANCH 19 20
ENDBRANCH 17 19
ENDBRANCH 14 17
ENDBRANCH 6 13
ENDBRANCH 4 6
ENDBRANCH 1 2
BRANCH 1 31
ATOM     31  CB  LEU E  32       9.630 151.372  70.325  1.00142.51 LIG 0.04  C 
BRANCH 31 32
ATOM     32  CG  LEU E  32      10.615 152.539  70.286  1.00140.78 LIG-0.02  C 
ATOM     33  CD1 LEU E  32      11.247 152.637  68.915  1.00139.49 LIG 0.01  C 
ATOM     34  CD2 LEU E  32       9.927 153.837  70.650  1.00139.97 LIG 0.01  C 
ENDBRANCH 31 32
ENDBRANCH 1 31
BRANCH 1 35
ATOM     35  C   LEU E  32      11.251 150.499  72.014  1.00143.34 LIG 0.24  C 
ATOM     36  N   PHE E  33      12.397 149.879  71.734  1.00143.72 LIG-0.35  N 
ATOM     37 H    PHE E  33      12.521 149.395  71.034  1.00143.72 LIG 0.16  HD
ATOM     38 O    LEU E  32      11.133 151.278  72.957  1.00143.58 LIG-0.27  OA
BRANCH 36 39
ATOM     39  CA  PHE E  33      13.560 149.976  72.614  1.00144.11 LIG 0.18  C 
BRANCH 39 40
ATOM     40  CB  PHE E  33      14.475 148.777  72.405  1.00143.74 LIG 0.07  C 
BRANCH 40 41
ATOM     41  CG  PHE E  33      15.452 148.963  71.296  1.00143.08 LIG-0.06  A 
ATOM     42  CD2 PHE E  33      15.088 149.627  70.139  1.00142.72 LIG 0.01  A 
ATOM     43  CE2 PHE E  33      15.996 149.808  69.119  1.00141.76 LIG 0.00  A 
ATOM     44  CZ  PHE E  33      17.282 149.344  69.252  1.00141.29 LIG 0.00  A 
ATOM     45  CE1 PHE E  33      17.661 148.694  70.405  1.00141.79 LIG 0.00  A 
ATOM     46  CD1 PHE E  33      16.751 148.508  71.420  1.00142.36 LIG 0.01  A 
ENDBRANCH 40 41
ENDBRANCH 39 40
BRANCH 39 47
ATOM     47  C   PHE E  33      14.362 151.254  72.414  1.00145.05 LIG 0.24  C 
ATOM     48 O    PHE E  33      14.159 151.968  71.434  1.00145.07 LIG-0.27  OA
ATOM     49  N   GLY E  34      15.248 151.559  73.355  1.00146.17 LIG-0.35  N 
ATOM     50 H    GLY E  34      15.351 151.111  74.082  1.00146.17 LIG 0.16  HD
BRANCH 49 51
ATOM     51  CA  GLY E  34      16.133 152.703  73.221  1.00147.07 LIG 0.23  C 
BRANCH 51 52
ATOM     52  C   GLY E  34      17.103 152.508  72.069  1.00147.85 LIG 0.24  C 
ATOM     53  N   PRO E  35      17.707 153.598  71.603  1.00148.70 LIG-0.34  N 
ATOM     54  CA  PRO E  35      18.658 153.528  70.489  1.00149.01 LIG 0.19  C 
ATOM     55  CD  PRO E  35      17.577 154.968  72.133  1.00148.94 LIG 0.13  C 
ATOM     56  CB  PRO E  35      19.210 154.961  70.408  1.00149.16 LIG 0.04  C 
ATOM     57  CG  PRO E  35      18.891 155.576  71.739  1.00149.11 LIG 0.02  C 
ATOM     58 O    GLY E  34      17.322 151.382  71.616  1.00147.94 LIG-0.27  OA
BRANCH 54 59
ATOM     59  C   PRO E  35      19.778 152.521  70.762  1.00149.03 LIG 0.20  C 
ATOM     60 OXT  PRO E  35      19.958 151.543  70.038  1.00149.10 LIG-0.65  OA
ATOM     61 O    PRO E  35      20.581 152.667  71.685  1.00148.99 LIG-0.65  OA
ENDBRANCH 54 59
ENDBRANCH 51 52
ENDBRANCH 49 51
ENDBRANCH 39 47
ENDBRANCH 36 39
ENDBRANCH 1 35
TORSDOF 20
ENDMDL
MODEL 17
USER: ADFR SOLUTION from run 119
USER: SCORE 17.657371 LL:  -3.711 LR: -15.304 RR:   0.000 FEB:  -9.338
USER: RMSD 6.412020
USER: SEED 118
USER: STATUS no improvement in best in 15 clusters for 5 generations
USER: GENES 22
USER: genes 0 Translation |==|  0.45466 0.29350 0.56823
USER: genes 1 Rotation |==|  0.68773 0.51943 0.54647 0.96068
USER: genes 2 Torsion [CB]-CA--N-[C] |==|  0.81541
USER: genes 3 Torsion [N]-C--CA-[N] |==|  0.00382
USER: genes 4 Torsion [C]-CA--CB-[CG] |==|  0.22863
USER: genes 5 Torsion [CA]-CB--CG-[ND2] |==|  0.95493
USER: genes 6 Torsion [C]-CA--N-[C] |==|  0.20606
USER: genes 7 Torsion [N]-C--CA-[N] |==|  0.83019
USER: genes 8 Torsion [C]-CA--CB-[CG] |==|  0.29675
USER: genes 9 Torsion [CA]-CB--CG-[CD] |==|  0.29841
USER: genes 10 Torsion [CB]-CG--CD-[NE] |==|  0.54470
USER: genes 11 Torsion [CG]-CD--NE-[HE] |==|  0.97558
USER: genes 12 Torsion [N]-CA--CB-[CG] |==|  0.53445
USER: genes 13 Torsion [CA]-CB--CG-[CD2] |==|  0.71603
USER: genes 14 Torsion [N]-CA--C-[N] |==|  0.46111
USER: genes 15 Torsion [C]-N--CA-[C] |==|  0.71070
USER: genes 16 Torsion [N]-CA--CB-[CG] |==|  0.95716
USER: genes 17 Torsion [CA]-CB--CG-[CD2] |==|  0.80485
USER: genes 18 Torsion [N]-CA--C-[N] |==|  0.06810
USER: genes 19 Torsion [C]-N--CA-[C] |==|  0.49131
USER: genes 20 Torsion [N]-CA--C-[N] |==|  0.64748
USER: genes 21 Torsion [N]-CA--C-[OXT] |==|  0.90567
ROOT
ATOM      1  CA  LEU E  32      12.673 149.573  72.853  1.00142.86 LIG 0.18  C 
ENDROOT
BRANCH 1 2
ATOM      2  N   LEU E  32      11.263 149.638  72.473  1.00142.97 LIG-0.35  N 
ATOM      3 H    LEU E  32      10.743 149.153  72.956  1.00142.97 LIG 0.16  HD
ATOM      4  C   ASN E  31      10.840 150.392  71.460  1.00143.13 LIG 0.24  C 
ATOM      5 O    ASN E  31      11.606 151.012  70.727  1.00142.70 LIG-0.27  OA
BRANCH 4 6
ATOM      6  CA  ASN E  31       9.324 150.459  71.246  1.00143.53 LIG 0.18  C 
BRANCH 6 7
ATOM      7  CB  ASN E  31       8.841 151.911  71.304  1.00143.35 LIG 0.14  C 
BRANCH 7 8
ATOM      8  CG  ASN E  31       9.029 152.644  69.995  1.00142.31 LIG 0.22  C 
ATOM      9  ND2 ASN E  31       9.855 152.087  69.119  1.00140.74 LIG-0.37  N 
ATOM     10 21HD ASN E  31       9.962 152.442  68.343  1.00140.74 LIG 0.16  HD
ATOM     11 22HD ASN E  31      10.283 151.370  69.327  1.00140.74 LIG 0.16  HD
ATOM     12 OD1  ASN E  31       8.393 153.667  69.749  1.00141.61 LIG-0.27  OA
ENDBRANCH 7 8
ENDBRANCH 6 7
BRANCH 6 13
ATOM     13  N   ASN E  31       8.611 149.680  72.251  1.00144.28 LIG-0.34  N 
ATOM     14  C   ARG E  30       8.479 150.093  73.507  1.00145.24 LIG 0.26  C 
ATOM     15 O    ARG E  30       9.137 151.019  73.974  1.00145.16 LIG-0.27  OA
ATOM     16 H    ASN E  31       8.289 148.939  71.956  1.00144.28 LIG 0.16  HD
BRANCH 14 17
ATOM     17  CA  ARG E  30       7.496 149.305  74.379  1.00146.00 LIG 0.40  C 
ATOM     18  N   ARG E  30       6.104 149.354  73.848  1.00146.11 LIG 0.61  N 
BRANCH 17 19
ATOM     19  CB  ARG E  30       7.965 147.854  74.493  1.00146.54 LIG 0.05  C 
BRANCH 19 20
ATOM     20  CG  ARG E  30       8.543 147.507  75.859  1.00147.66 LIG 0.02  C 
BRANCH 20 21
ATOM     21  CD  ARG E  30       7.648 146.623  76.706  1.00149.13 LIG 0.14  C 
BRANCH 21 22
ATOM     22  NE  ARG E  30       8.043 146.619  78.113  1.00150.31 LIG-0.23  N 
ATOM     23 HE   ARG E  30       8.784 147.001  78.322  1.00150.31 LIG 0.18  HD
ATOM     24  CZ  ARG E  30       7.335 146.068  79.090  1.00151.12 LIG 0.67  C 
ATOM     25  NH1 ARG E  30       6.173 145.487  78.826  1.00151.59 LIG-0.23  N 
ATOM     26  NH2 ARG E  30       7.786 146.098  80.336  1.00151.52 LIG-0.23  N 
ATOM     27 1HH1 ARG E  30       5.875 145.468  78.019  1.00151.59 LIG 0.17  HD
ATOM     28 2HH1 ARG E  30       5.716 145.130  79.461  1.00151.59 LIG 0.17  HD
ATOM     29 1HH2 ARG E  30       8.538 146.476  80.512  1.00151.52 LIG 0.17  HD
ATOM     30 2HH2 ARG E  30       7.327 145.739  80.968  1.00151.52 LIG 0.17  HD
ENDBRANCH 21 22
ENDBRANCH 20 21
ENDBRANCH 19 20
ENDBRANCH 17 19
ENDBRANCH 14 17
ENDBRANCH 6 13
ENDBRANCH 4 6
ENDBRANCH 1 2
BRANCH 1 31
ATOM     31  CB  LEU E  32      13.489 148.906  71.744  1.00142.51 LIG 0.04  C 
BRANCH 31 32
ATOM     32  CG  LEU E  32      14.919 148.495  72.092  1.00140.78 LIG-0.02  C 
ATOM     33  CD1 LEU E  32      15.196 147.101  71.572  1.00139.49 LIG 0.01  C 
ATOM     34  CD2 LEU E  32      15.917 149.483  71.527  1.00139.97 LIG 0.01  C 
ENDBRANCH 31 32
ENDBRANCH 1 31
BRANCH 1 35
ATOM     35  C   LEU E  32      13.285 150.939  73.184  1.00143.34 LIG 0.24  C 
ATOM     36  N   PHE E  33      14.462 150.932  73.807  1.00143.72 LIG-0.35  N 
ATOM     37 H    PHE E  33      14.938 150.226  73.924  1.00143.72 LIG 0.16  HD
ATOM     38 O    LEU E  32      12.678 151.976  72.926  1.00143.58 LIG-0.27  OA
BRANCH 36 39
ATOM     39  CA  PHE E  33      15.050 152.153  74.355  1.00144.11 LIG 0.18  C 
BRANCH 39 40
ATOM     40  CB  PHE E  33      15.557 151.901  75.768  1.00143.74 LIG 0.07  C 
BRANCH 40 41
ATOM     41  CG  PHE E  33      15.026 150.648  76.375  1.00143.08 LIG-0.06  A 
ATOM     42  CD2 PHE E  33      13.697 150.549  76.739  1.00142.72 LIG 0.01  A 
ATOM     43  CE2 PHE E  33      13.204 149.386  77.289  1.00141.76 LIG 0.00  A 
ATOM     44  CZ  PHE E  33      14.032 148.304  77.463  1.00141.29 LIG 0.00  A 
ATOM     45  CE1 PHE E  33      15.355 148.384  77.090  1.00141.79 LIG 0.00  A 
ATOM     46  CD1 PHE E  33      15.847 149.549  76.547  1.00142.36 LIG 0.01  A 
ENDBRANCH 40 41
ENDBRANCH 39 40
BRANCH 39 47
ATOM     47  C   PHE E  33      16.189 152.704  73.509  1.00145.05 LIG 0.24  C 
ATOM     48 O    PHE E  33      17.069 153.392  74.024  1.00145.07 LIG-0.27  OA
ATOM     49  N   GLY E  34      16.192 152.379  72.221  1.00146.17 LIG-0.35  N 
ATOM     50 H    GLY E  34      15.628 151.840  71.860  1.00146.17 LIG 0.16  HD
BRANCH 49 51
ATOM     51  CA  GLY E  34      17.176 152.925  71.303  1.00147.07 LIG 0.23  C 
BRANCH 51 52
ATOM     52  C   GLY E  34      17.009 152.339  69.913  1.00147.85 LIG 0.24  C 
ATOM     53  N   PRO E  35      18.089 151.799  69.356  1.00148.70 LIG-0.34  N 
ATOM     54  CA  PRO E  35      18.044 151.209  68.015  1.00149.01 LIG 0.19  C 
ATOM     55  CD  PRO E  35      19.418 151.655  69.978  1.00148.94 LIG 0.13  C 
ATOM     56  CB  PRO E  35      19.438 150.580  67.859  1.00149.16 LIG 0.04  C 
ATOM     57  CG  PRO E  35      19.966 150.457  69.258  1.00149.11 LIG 0.02  C 
ATOM     58 O    GLY E  34      15.910 152.355  69.353  1.00147.94 LIG-0.27  OA
BRANCH 54 59
ATOM     59  C   PRO E  35      16.944 150.149  67.897  1.00149.03 LIG 0.20  C 
ATOM     60 OXT  PRO E  35      16.640 149.426  68.845  1.00149.10 LIG-0.65  OA
ATOM     61 O    PRO E  35      16.279 150.005  66.869  1.00148.99 LIG-0.65  OA
ENDBRANCH 54 59
ENDBRANCH 51 52
ENDBRANCH 49 51
ENDBRANCH 39 47
ENDBRANCH 36 39
ENDBRANCH 1 35
TORSDOF 20
ENDMDL
MODEL 18
USER: ADFR SOLUTION from run 105
USER: SCORE 17.109037 LL:  -3.981 LR: -15.294 RR:   0.000 FEB:  -9.328
USER: RMSD 4.054214
USER: SEED 104
USER: STATUS no improvement in best in 13 clusters for 5 generations
USER: GENES 22
USER: genes 0 Translation |==|  0.50343 0.36631 0.49920
USER: genes 1 Rotation |==|  0.52176 0.61078 0.61142 0.97417
USER: genes 2 Torsion [CB]-CA--N-[C] |==|  0.47995
USER: genes 3 Torsion [N]-C--CA-[N] |==|  0.43079
USER: genes 4 Torsion [C]-CA--CB-[CG] |==|  0.95276
USER: genes 5 Torsion [CA]-CB--CG-[ND2] |==|  0.72904
USER: genes 6 Torsion [C]-CA--N-[C] |==|  0.60392
USER: genes 7 Torsion [N]-C--CA-[N] |==|  0.42319
USER: genes 8 Torsion [C]-CA--CB-[CG] |==|  0.93599
USER: genes 9 Torsion [CA]-CB--CG-[CD] |==|  0.36822
USER: genes 10 Torsion [CB]-CG--CD-[NE] |==|  0.33581
USER: genes 11 Torsion [CG]-CD--NE-[HE] |==|  0.90693
USER: genes 12 Torsion [N]-CA--CB-[CG] |==|  0.80915
USER: genes 13 Torsion [CA]-CB--CG-[CD2] |==|  0.91902
USER: genes 14 Torsion [N]-CA--C-[N] |==|  0.77347
USER: genes 15 Torsion [C]-N--CA-[C] |==|  0.61874
USER: genes 16 Torsion [N]-CA--CB-[CG] |==|  0.08292
USER: genes 17 Torsion [CA]-CB--CG-[CD2] |==|  0.20245
USER: genes 18 Torsion [N]-CA--C-[N] |==|  0.53326
USER: genes 19 Torsion [C]-N--CA-[C] |==|  0.75965
USER: genes 20 Torsion [N]-CA--C-[N] |==|  0.44684
USER: genes 21 Torsion [N]-CA--C-[OXT] |==|  0.97762
ROOT
ATOM      1  CA  LEU E  32      13.660 151.048  71.352  1.00142.86 LIG 0.18  C 
ENDROOT
BRANCH 1 2
ATOM      2  N   LEU E  32      12.344 150.417  71.433  1.00142.97 LIG-0.35  N 
ATOM      3 H    LEU E  32      12.278 149.679  70.996  1.00142.97 LIG 0.16  HD
ATOM      4  C   ASN E  31      11.346 150.956  72.129  1.00143.13 LIG 0.24  C 
ATOM      5 O    ASN E  31      11.432 152.052  72.676  1.00142.70 LIG-0.27  OA
BRANCH 4 6
ATOM      6  CA  ASN E  31      10.059 150.131  72.228  1.00143.53 LIG 0.18  C 
BRANCH 6 7
ATOM      7  CB  ASN E  31       9.187 150.353  70.989  1.00143.35 LIG 0.14  C 
BRANCH 7 8
ATOM      8  CG  ASN E  31       9.579 151.586  70.208  1.00142.31 LIG 0.22  C 
ATOM      9  ND2 ASN E  31       8.870 152.683  70.442  1.00140.74 LIG-0.37  N 
ATOM     10 21HD ASN E  31       9.081 153.422  70.055  1.00140.74 LIG 0.16  HD
ATOM     11 22HD ASN E  31       8.199 152.655  70.980  1.00140.74 LIG 0.16  HD
ATOM     12 OD1  ASN E  31      10.545 151.571  69.449  1.00141.61 LIG-0.27  OA
ENDBRANCH 7 8
ENDBRANCH 6 7
BRANCH 6 13
ATOM     13  N   ASN E  31       9.293 150.482  73.417  1.00144.28 LIG-0.34  N 
ATOM     14  C   ARG E  30       8.632 149.574  74.128  1.00145.24 LIG 0.26  C 
ATOM     15 O    ARG E  30       8.414 148.438  73.717  1.00145.16 LIG-0.27  OA
ATOM     16 H    ASN E  31       9.310 151.320  73.611  1.00144.28 LIG 0.16  HD
BRANCH 14 17
ATOM     17  CA  ARG E  30       8.088 150.041  75.483  1.00146.00 LIG 0.40  C 
ATOM     18  N   ARG E  30       6.876 149.279  75.899  1.00146.11 LIG 0.61  N 
BRANCH 17 19
ATOM     19  CB  ARG E  30       9.182 149.913  76.544  1.00146.54 LIG 0.05  C 
BRANCH 19 20
ATOM     20  CG  ARG E  30      10.261 148.899  76.186  1.00147.66 LIG 0.02  C 
BRANCH 20 21
ATOM     21  CD  ARG E  30      11.677 149.404  76.382  1.00149.13 LIG 0.14  C 
BRANCH 21 22
ATOM     22  NE  ARG E  30      12.434 148.585  77.325  1.00150.31 LIG-0.23  N 
ATOM     23 HE   ARG E  30      12.006 148.228  77.980  1.00150.31 LIG 0.18  HD
ATOM     24  CZ  ARG E  30      13.738 148.352  77.240  1.00151.12 LIG 0.67  C 
ATOM     25  NH1 ARG E  30      14.442 148.857  76.237  1.00151.59 LIG-0.23  N 
ATOM     26  NH2 ARG E  30      14.341 147.610  78.157  1.00151.52 LIG-0.23  N 
ATOM     27 1HH1 ARG E  30      14.054 149.337  75.637  1.00151.59 LIG 0.17  HD
ATOM     28 2HH1 ARG E  30      15.286 148.705  76.184  1.00151.59 LIG 0.17  HD
ATOM     29 1HH2 ARG E  30      13.888 147.278  78.808  1.00151.52 LIG 0.17  HD
ATOM     30 2HH2 ARG E  30      15.186 147.460  78.102  1.00151.52 LIG 0.17  HD
ENDBRANCH 21 22
ENDBRANCH 20 21
ENDBRANCH 19 20
ENDBRANCH 17 19
ENDBRANCH 14 17
ENDBRANCH 6 13
ENDBRANCH 4 6
ENDBRANCH 1 2
BRANCH 1 31
ATOM     31  CB  LEU E  32      14.648 150.121  70.639  1.00142.51 LIG 0.04  C 
BRANCH 31 32
ATOM     32  CG  LEU E  32      15.053 148.846  71.377  1.00140.78 LIG-0.02  C 
ATOM     33  CD1 LEU E  32      16.440 148.420  70.951  1.00139.49 LIG 0.01  C 
ATOM     34  CD2 LEU E  32      14.994 149.049  72.876  1.00139.97 LIG 0.01  C 
ENDBRANCH 31 32
ENDBRANCH 1 31
BRANCH 1 35
ATOM     35  C   LEU E  32      13.648 152.411  70.652  1.00143.34 LIG 0.24  C 
ATOM     36  N   PHE E  33      13.660 152.401  69.320  1.00143.72 LIG-0.35  N 
ATOM     37 H    PHE E  33      13.557 151.691  68.845  1.00143.72 LIG 0.16  HD
ATOM     38 O    LEU E  32      13.680 153.451  71.306  1.00143.58 LIG-0.27  OA
BRANCH 36 39
ATOM     39  CA  PHE E  33      13.854 153.622  68.542  1.00144.11 LIG 0.18  C 
BRANCH 39 40
ATOM     40  CB  PHE E  33      15.296 153.714  68.061  1.00143.74 LIG 0.07  C 
BRANCH 40 41
ATOM     41  CG  PHE E  33      15.933 152.385  67.841  1.00143.08 LIG-0.06  A 
ATOM     42  CD2 PHE E  33      15.578 151.604  66.757  1.00142.72 LIG 0.01  A 
ATOM     43  CE2 PHE E  33      16.176 150.380  66.548  1.00141.76 LIG 0.00  A 
ATOM     44  CZ  PHE E  33      17.148 149.934  67.411  1.00141.29 LIG 0.00  A 
ATOM     45  CE1 PHE E  33      17.520 150.709  68.486  1.00141.79 LIG 0.00  A 
ATOM     46  CD1 PHE E  33      16.917 151.928  68.696  1.00142.36 LIG 0.01  A 
ENDBRANCH 40 41
ENDBRANCH 39 40
BRANCH 39 47
ATOM     47  C   PHE E  33      12.922 153.727  67.343  1.00145.05 LIG 0.24  C 
ATOM     48 O    PHE E  33      11.953 152.977  67.241  1.00145.07 LIG-0.27  OA
ATOM     49  N   GLY E  34      13.195 154.674  66.452  1.00146.17 LIG-0.35  N 
ATOM     50 H    GLY E  34      13.823 155.254  66.544  1.00146.17 LIG 0.16  HD
BRANCH 49 51
ATOM     51  CA  GLY E  34      12.430 154.803  65.224  1.00147.07 LIG 0.23  C 
BRANCH 51 52
ATOM     52  C   GLY E  34      12.996 153.911  64.134  1.00147.85 LIG 0.24  C 
ATOM     53  N   PRO E  35      12.193 153.630  63.112  1.00148.70 LIG-0.34  N 
ATOM     54  CA  PRO E  35      12.634 152.773  62.007  1.00149.01 LIG 0.19  C 
ATOM     55  CD  PRO E  35      10.829 154.147  62.900  1.00148.94 LIG 0.13  C 
ATOM     56  CB  PRO E  35      11.468 152.861  61.008  1.00149.16 LIG 0.04  C 
ATOM     57  CG  PRO E  35      10.708 154.092  61.405  1.00149.11 LIG 0.02  C 
ATOM     58 O    GLY E  34      14.156 153.495  64.202  1.00147.94 LIG-0.27  OA
BRANCH 54 59
ATOM     59  C   PRO E  35      13.936 153.279  61.381  1.00149.03 LIG 0.20  C 
ATOM     60 OXT  PRO E  35      14.425 154.363  61.694  1.00149.10 LIG-0.65  OA
ATOM     61 O    PRO E  35      14.581 152.606  60.575  1.00148.99 LIG-0.65  OA
ENDBRANCH 54 59
ENDBRANCH 51 52
ENDBRANCH 49 51
ENDBRANCH 39 47
ENDBRANCH 36 39
ENDBRANCH 1 35
TORSDOF 20
ENDMDL
MODEL 19
USER: ADFR SOLUTION from run 104
USER: SCORE 16.151289 LL:  -2.773 LR: -15.209 RR:   0.000 FEB:  -9.243
USER: RMSD 8.495455
USER: SEED 103
USER: STATUS no improvement in best in 7 clusters for 5 generations
USER: GENES 22
USER: genes 0 Translation |==|  0.32749 0.30935 0.53438
USER: genes 1 Rotation |==|  0.94923 0.68881 0.54776 0.60133
USER: genes 2 Torsion [CB]-CA--N-[C] |==|  0.84965
USER: genes 3 Torsion [N]-C--CA-[N] |==|  0.25794
USER: genes 4 Torsion [C]-CA--CB-[CG] |==|  0.22077
USER: genes 5 Torsion [CA]-CB--CG-[ND2] |==|  0.61759
USER: genes 6 Torsion [C]-CA--N-[C] |==|  0.71974
USER: genes 7 Torsion [N]-C--CA-[N] |==|  0.90275
USER: genes 8 Torsion [C]-CA--CB-[CG] |==|  0.80438
USER: genes 9 Torsion [CA]-CB--CG-[CD] |==|  0.68679
USER: genes 10 Torsion [CB]-CG--CD-[NE] |==|  0.23465
USER: genes 11 Torsion [CG]-CD--NE-[HE] |==|  0.79539
USER: genes 12 Torsion [N]-CA--CB-[CG] |==|  0.63446
USER: genes 13 Torsion [CA]-CB--CG-[CD2] |==|  0.75937
USER: genes 14 Torsion [N]-CA--C-[N] |==|  0.45467
USER: genes 15 Torsion [C]-N--CA-[C] |==|  0.83880
USER: genes 16 Torsion [N]-CA--CB-[CG] |==|  0.78971
USER: genes 17 Torsion [CA]-CB--CG-[CD2] |==|  0.44524
USER: genes 18 Torsion [N]-CA--C-[N] |==|  0.27880
USER: genes 19 Torsion [C]-N--CA-[C] |==|  0.81185
USER: genes 20 Torsion [N]-CA--C-[N] |==|  0.83342
USER: genes 21 Torsion [N]-CA--C-[OXT] |==|  0.92002
ROOT
ATOM      1  CA  LEU E  32      10.098 149.894  72.117  1.00142.86 LIG 0.18  C 
ENDROOT
BRANCH 1 2
ATOM      2  N   LEU E  32       8.964 149.077  72.547  1.00142.97 LIG-0.35  N 
ATOM      3 H    LEU E  32       8.885 148.332  72.124  1.00142.97 LIG 0.16  HD
ATOM      4  C   ASN E  31       8.137 149.470  73.512  1.00143.13 LIG 0.24  C 
ATOM      5 O    ASN E  31       8.214 150.574  74.045  1.00142.70 LIG-0.27  OA
BRANCH 4 6
ATOM      6  CA  ASN E  31       7.065 148.465  73.944  1.00143.53 LIG 0.18  C 
BRANCH 6 7
ATOM      7  CB  ASN E  31       5.777 149.194  74.337  1.00143.35 LIG 0.14  C 
BRANCH 7 8
ATOM      8  CG  ASN E  31       4.952 149.613  73.142  1.00142.31 LIG 0.22  C 
ATOM      9  ND2 ASN E  31       4.418 150.827  73.190  1.00140.74 LIG-0.37  N 
ATOM     10 21HD ASN E  31       3.976 151.129  72.516  1.00140.74 LIG 0.16  HD
ATOM     11 22HD ASN E  31       4.514 151.312  73.894  1.00140.74 LIG 0.16  HD
ATOM     12 OD1  ASN E  31       4.844 148.880  72.162  1.00141.61 LIG-0.27  OA
ENDBRANCH 7 8
ENDBRANCH 6 7
BRANCH 6 13
ATOM     13  N   ASN E  31       7.517 147.658  75.070  1.00144.28 LIG-0.34  N 
ATOM     14  C   ARG E  30       7.967 146.417  74.918  1.00145.24 LIG 0.26  C 
ATOM     15 O    ARG E  30       7.814 145.778  73.881  1.00145.16 LIG-0.27  OA
ATOM     16 H    ASN E  31       7.465 148.056  75.831  1.00144.28 LIG 0.16  HD
BRANCH 14 17
ATOM     17  CA  ARG E  30       8.640 145.786  76.142  1.00146.00 LIG 0.40  C 
ATOM     18  N   ARG E  30       9.407 146.784  76.942  1.00146.11 LIG 0.61  N 
BRANCH 17 19
ATOM     19  CB  ARG E  30       7.584 145.110  77.015  1.00146.54 LIG 0.05  C 
BRANCH 19 20
ATOM     20  CG  ARG E  30       6.665 146.092  77.730  1.00147.66 LIG 0.02  C 
BRANCH 20 21
ATOM     21  CD  ARG E  30       6.829 146.112  79.238  1.00149.13 LIG 0.14  C 
BRANCH 21 22
ATOM     22  NE  ARG E  30       7.918 146.987  79.666  1.00150.31 LIG-0.23  N 
ATOM     23 HE   ARG E  30       8.724 146.718  79.536  1.00150.31 LIG 0.18  HD
ATOM     24  CZ  ARG E  30       7.748 148.170  80.242  1.00151.12 LIG 0.67  C 
ATOM     25  NH1 ARG E  30       6.527 148.644  80.444  1.00151.59 LIG-0.23  N 
ATOM     26  NH2 ARG E  30       8.800 148.885  80.614  1.00151.52 LIG-0.23  N 
ATOM     27 1HH1 ARG E  30       5.841 148.186  80.202  1.00151.59 LIG 0.17  HD
ATOM     28 2HH1 ARG E  30       6.419 149.411  80.818  1.00151.59 LIG 0.17  HD
ATOM     29 1HH2 ARG E  30       9.594 148.582  80.482  1.00151.52 LIG 0.17  HD
ATOM     30 2HH2 ARG E  30       8.689 149.651  80.988  1.00151.52 LIG 0.17  HD
ENDBRANCH 21 22
ENDBRANCH 20 21
ENDBRANCH 19 20
ENDBRANCH 17 19
ENDBRANCH 14 17
ENDBRANCH 6 13
ENDBRANCH 4 6
ENDBRANCH 1 2
BRANCH 1 31
ATOM     31  CB  LEU E  32       9.622 151.298  71.735  1.00142.51 LIG 0.04  C 
BRANCH 31 32
ATOM     32  CG  LEU E  32      10.117 151.855  70.401  1.00140.78 LIG-0.02  C 
ATOM     33  CD1 LEU E  32       9.095 152.815  69.831  1.00139.49 LIG 0.01  C 
ATOM     34  CD2 LEU E  32      11.457 152.539  70.567  1.00139.97 LIG 0.01  C 
ENDBRANCH 31 32
ENDBRANCH 1 31
BRANCH 1 35
ATOM     35  C   LEU E  32      11.211 150.003  73.164  1.00143.34 LIG 0.24  C 
ATOM     36  N   PHE E  33      12.396 150.436  72.735  1.00143.72 LIG-0.35  N 
ATOM     37 H    PHE E  33      12.532 150.761  71.951  1.00143.72 LIG 0.16  HD
ATOM     38 O    LEU E  32      11.015 149.651  74.325  1.00143.58 LIG-0.27  OA
BRANCH 36 39
ATOM     39  CA  PHE E  33      13.585 150.391  73.584  1.00144.11 LIG 0.18  C 
BRANCH 39 40
ATOM     40  CB  PHE E  33      14.788 150.938  72.828  1.00143.74 LIG 0.07  C 
BRANCH 40 41
ATOM     41  CG  PHE E  33      15.335 149.990  71.817  1.00143.08 LIG-0.06  A 
ATOM     42  CD2 PHE E  33      16.135 150.443  70.785  1.00142.72 LIG 0.01  A 
ATOM     43  CE2 PHE E  33      16.649 149.565  69.857  1.00141.76 LIG 0.00  A 
ATOM     44  CZ  PHE E  33      16.383 148.221  69.962  1.00141.29 LIG 0.00  A 
ATOM     45  CE1 PHE E  33      15.600 147.754  70.994  1.00141.79 LIG 0.00  A 
ATOM     46  CD1 PHE E  33      15.082 148.635  71.916  1.00142.36 LIG 0.01  A 
ENDBRANCH 40 41
ENDBRANCH 39 40
BRANCH 39 47
ATOM     47  C   PHE E  33      13.425 151.160  74.887  1.00145.05 LIG 0.24  C 
ATOM     48 O    PHE E  33      13.517 152.387  74.900  1.00145.07 LIG-0.27  OA
ATOM     49  N   GLY E  34      13.154 150.448  75.975  1.00146.17 LIG-0.35  N 
ATOM     50 H    GLY E  34      13.013 149.600  75.972  1.00146.17 LIG 0.16  HD
BRANCH 49 51
ATOM     51  CA  GLY E  34      13.074 151.067  77.286  1.00147.07 LIG 0.23  C 
BRANCH 51 52
ATOM     52  C   GLY E  34      14.436 151.564  77.738  1.00147.85 LIG 0.24  C 
ATOM     53  N   PRO E  35      15.399 150.654  77.850  1.00148.70 LIG-0.34  N 
ATOM     54  CA  PRO E  35      16.751 151.020  78.285  1.00149.01 LIG 0.19  C 
ATOM     55  CD  PRO E  35      15.295 149.220  77.521  1.00148.94 LIG 0.13  C 
ATOM     56  CB  PRO E  35      17.543 149.713  78.112  1.00149.16 LIG 0.04  C 
ATOM     57  CG  PRO E  35      16.716 148.880  77.177  1.00149.11 LIG 0.02  C 
ATOM     58 O    GLY E  34      14.624 152.762  77.964  1.00147.94 LIG-0.27  OA
BRANCH 54 59
ATOM     59  C   PRO E  35      17.340 152.140  77.422  1.00149.03 LIG 0.20  C 
ATOM     60 OXT  PRO E  35      17.013 152.290  76.246  1.00149.10 LIG-0.65  OA
ATOM     61 O    PRO E  35      18.127 152.973  77.876  1.00148.99 LIG-0.65  OA
ENDBRANCH 54 59
ENDBRANCH 51 52
ENDBRANCH 49 51
ENDBRANCH 39 47
ENDBRANCH 36 39
ENDBRANCH 1 35
TORSDOF 20
ENDMDL
MODEL 20
USER: ADFR SOLUTION from run 134
USER: SCORE 17.240528 LL:  -3.795 LR: -15.127 RR:   0.000 FEB:  -9.161
USER: RMSD 6.465818
USER: SEED 133
USER: STATUS no improvement in best in 8 clusters for 5 generations
USER: GENES 22
USER: genes 0 Translation |==|  0.34390 0.32162 0.59666
USER: genes 1 Rotation |==|  0.91114 0.73885 0.34553 0.50720
USER: genes 2 Torsion [CB]-CA--N-[C] |==|  0.23015
USER: genes 3 Torsion [N]-C--CA-[N] |==|  0.11086
USER: genes 4 Torsion [C]-CA--CB-[CG] |==|  0.23760
USER: genes 5 Torsion [CA]-CB--CG-[ND2] |==|  0.81230
USER: genes 6 Torsion [C]-CA--N-[C] |==|  0.15420
USER: genes 7 Torsion [N]-C--CA-[N] |==|  0.88824
USER: genes 8 Torsion [C]-CA--CB-[CG] |==|  0.98972
USER: genes 9 Torsion [CA]-CB--CG-[CD] |==|  0.72655
USER: genes 10 Torsion [CB]-CG--CD-[NE] |==|  0.92946
USER: genes 11 Torsion [CG]-CD--NE-[HE] |==|  0.05115
USER: genes 12 Torsion [N]-CA--CB-[CG] |==|  0.65438
USER: genes 13 Torsion [CA]-CB--CG-[CD2] |==|  0.05334
USER: genes 14 Torsion [N]-CA--C-[N] |==|  0.29222
USER: genes 15 Torsion [C]-N--CA-[C] |==|  0.73917
USER: genes 16 Torsion [N]-CA--CB-[CG] |==|  0.47431
USER: genes 17 Torsion [CA]-CB--CG-[CD2] |==|  0.65572
USER: genes 18 Torsion [N]-CA--C-[N] |==|  0.96122
USER: genes 19 Torsion [C]-N--CA-[C] |==|  0.20829
USER: genes 20 Torsion [N]-CA--C-[N] |==|  0.69910
USER: genes 21 Torsion [N]-CA--C-[OXT] |==|  0.25783
ROOT
ATOM      1  CA  LEU E  32      10.430 150.143  73.471  1.00142.86 LIG 0.18  C 
ENDROOT
BRANCH 1 2
ATOM      2  N   LEU E  32      10.187 149.256  74.608  1.00142.97 LIG-0.35  N 
ATOM      3 H    LEU E  32      10.808 149.264  75.203  1.00142.97 LIG 0.16  HD
ATOM      4  C   ASN E  31       9.090 148.507  74.695  1.00143.13 LIG 0.24  C 
ATOM      5 O    ASN E  31       8.255 148.443  73.797  1.00142.70 LIG-0.27  OA
BRANCH 4 6
ATOM      6  CA  ASN E  31       8.906 147.715  75.994  1.00143.53 LIG 0.18  C 
BRANCH 6 7
ATOM      7  CB  ASN E  31       7.444 147.291  76.158  1.00143.35 LIG 0.14  C 
BRANCH 7 8
ATOM      8  CG  ASN E  31       7.124 145.998  75.445  1.00142.31 LIG 0.22  C 
ATOM      9  ND2 ASN E  31       7.163 146.029  74.119  1.00140.74 LIG-0.37  N 
ATOM     10 21HD ASN E  31       7.031 145.309  73.667  1.00140.74 LIG 0.16  HD
ATOM     11 22HD ASN E  31       7.320 146.770  73.710  1.00140.74 LIG 0.16  HD
ATOM     12 OD1  ASN E  31       6.904 144.967  76.077  1.00141.61 LIG-0.27  OA
ENDBRANCH 7 8
ENDBRANCH 6 7
BRANCH 6 13
ATOM     13  N   ASN E  31       9.307 148.499  77.155  1.00144.28 LIG-0.34  N 
ATOM     14  C   ARG E  30       8.791 149.694  77.417  1.00145.24 LIG 0.26  C 
ATOM     15 O    ARG E  30       8.133 150.328  76.596  1.00145.16 LIG-0.27  OA
ATOM     16 H    ASN E  31       9.902 148.118  77.647  1.00144.28 LIG 0.16  HD
BRANCH 14 17
ATOM     17  CA  ARG E  30       9.114 150.284  78.794  1.00146.00 LIG 0.40  C 
ATOM     18  N   ARG E  30       9.071 149.257  79.874  1.00146.11 LIG 0.61  N 
BRANCH 17 19
ATOM     19  CB  ARG E  30      10.489 150.950  78.755  1.00146.54 LIG 0.05  C 
BRANCH 19 20
ATOM     20  CG  ARG E  30      11.208 150.784  77.422  1.00147.66 LIG 0.02  C 
BRANCH 20 21
ATOM     21  CD  ARG E  30      12.232 149.665  77.405  1.00149.13 LIG 0.14  C 
BRANCH 21 22
ATOM     22  NE  ARG E  30      12.755 149.370  78.737  1.00150.31 LIG-0.23  N 
ATOM     23 HE   ARG E  30      12.302 149.643  79.415  1.00150.31 LIG 0.18  HD
ATOM     24  CZ  ARG E  30      13.880 148.708  78.972  1.00151.12 LIG 0.67  C 
ATOM     25  NH1 ARG E  30      14.604 148.243  77.964  1.00151.59 LIG-0.23  N 
ATOM     26  NH2 ARG E  30      14.283 148.505  80.219  1.00151.52 LIG-0.23  N 
ATOM     27 1HH1 ARG E  30      14.345 148.369  77.154  1.00151.59 LIG 0.17  HD
ATOM     28 2HH1 ARG E  30      15.333 147.815  78.119  1.00151.59 LIG 0.17  HD
ATOM     29 1HH2 ARG E  30      13.815 148.802  80.875  1.00151.52 LIG 0.17  HD
ATOM     30 2HH2 ARG E  30      15.013 148.077  80.370  1.00151.52 LIG 0.17  HD
ENDBRANCH 21 22
ENDBRANCH 20 21
ENDBRANCH 19 20
ENDBRANCH 17 19
ENDBRANCH 14 17
ENDBRANCH 6 13
ENDBRANCH 4 6
ENDBRANCH 1 2
BRANCH 1 31
ATOM     31  CB  LEU E  32       9.695 151.470  73.670  1.00142.51 LIG 0.04  C 
BRANCH 31 32
ATOM     32  CG  LEU E  32       8.734 151.900  72.563  1.00140.78 LIG-0.02  C 
ATOM     33  CD1 LEU E  32       9.367 152.986  71.722  1.00139.49 LIG 0.01  C 
ATOM     34  CD2 LEU E  32       8.342 150.718  71.701  1.00139.97 LIG 0.01  C 
ENDBRANCH 31 32
ENDBRANCH 1 31
BRANCH 1 35
ATOM     35  C   LEU E  32      11.915 150.418  73.212  1.00143.34 LIG 0.24  C 
ATOM     36  N   PHE E  33      12.466 149.798  72.169  1.00143.72 LIG-0.35  N 
ATOM     37 H    PHE E  33      12.017 149.359  71.581  1.00143.72 LIG 0.16  HD
ATOM     38 O    LEU E  32      12.561 151.135  73.972  1.00143.58 LIG-0.27  OA
BRANCH 36 39
ATOM     39  CA  PHE E  33      13.908 149.816  71.936  1.00144.11 LIG 0.18  C 
BRANCH 39 40
ATOM     40  CB  PHE E  33      14.364 148.479  71.368  1.00143.74 LIG 0.07  C 
BRANCH 40 41
ATOM     41  CG  PHE E  33      15.778 148.485  70.899  1.00143.08 LIG-0.06  A 
ATOM     42  CD2 PHE E  33      16.091 148.130  69.600  1.00142.72 LIG 0.01  A 
ATOM     43  CE2 PHE E  33      17.398 148.147  69.163  1.00141.76 LIG 0.00  A 
ATOM     44  CZ  PHE E  33      18.402 148.536  70.016  1.00141.29 LIG 0.00  A 
ATOM     45  CE1 PHE E  33      18.102 148.906  71.308  1.00141.79 LIG 0.00  A 
ATOM     46  CD1 PHE E  33      16.797 148.881  71.744  1.00142.36 LIG 0.01  A 
ENDBRANCH 40 41
ENDBRANCH 39 40
BRANCH 39 47
ATOM     47  C   PHE E  33      14.353 150.931  71.001  1.00145.05 LIG 0.24  C 
ATOM     48 O    PHE E  33      15.546 151.212  70.892  1.00145.07 LIG-0.27  OA
ATOM     49  N   GLY E  34      13.404 151.543  70.303  1.00146.17 LIG-0.35  N 
ATOM     50 H    GLY E  34      12.576 151.311  70.310  1.00146.17 LIG 0.16  HD
BRANCH 49 51
ATOM     51  CA  GLY E  34      13.703 152.681  69.452  1.00147.07 LIG 0.23  C 
BRANCH 51 52
ATOM     52  C   GLY E  34      14.396 152.240  68.176  1.00147.85 LIG 0.24  C 
ATOM     53  N   PRO E  35      15.688 152.535  68.062  1.00148.70 LIG-0.34  N 
ATOM     54  CA  PRO E  35      16.456 152.163  66.870  1.00149.01 LIG 0.19  C 
ATOM     55  CD  PRO E  35      16.531 153.193  69.078  1.00148.94 LIG 0.13  C 
ATOM     56  CB  PRO E  35      17.896 152.549  67.244  1.00149.16 LIG 0.04  C 
ATOM     57  CG  PRO E  35      17.892 152.659  68.740  1.00149.11 LIG 0.02  C 
ATOM     58 O    GLY E  34      13.777 151.621  67.307  1.00147.94 LIG-0.27  OA
BRANCH 54 59
ATOM     59  C   PRO E  35      16.346 150.665  66.569  1.00149.03 LIG 0.20  C 
ATOM     60 OXT  PRO E  35      15.491 150.220  65.805  1.00149.10 LIG-0.65  OA
ATOM     61 O    PRO E  35      17.137 149.843  67.036  1.00148.99 LIG-0.65  OA
ENDBRANCH 54 59
ENDBRANCH 51 52
ENDBRANCH 49 51
ENDBRANCH 39 47
ENDBRANCH 36 39
ENDBRANCH 1 35
TORSDOF 20
ENDMDL
