MODEL 1
USER: ADFR SOLUTION from run 58
USER: SCORE 11.162286 LL:  -1.260 LR:  -9.907 RR:   0.000 FEB:  -7.819
USER: RMSD 1.271726
USER: SEED 57
USER: STATUS no improvement in best in 3 clusters for 5 generations
USER: GENES 9
USER: genes 0 Translation |==|  0.56350 0.47339 0.43758
USER: genes 1 Rotation |==|  0.57572 0.51082 0.54792 0.99179
USER: genes 2 Torsion [N]-CA--C-[N] |==|  0.38912
USER: genes 3 Torsion [C]-N--CA-[CB] |==|  0.34226
USER: genes 4 Torsion [N]-CA--C-[O] |==|  0.86494
USER: genes 5 Torsion [C]-CA--CB-[CG1] |==|  0.91905
USER: genes 6 Torsion [C]-CA--N-[C] |==|  0.81123
USER: genes 7 Torsion [N]-C--CA-[N] |==|  0.22714
USER: genes 8 Torsion [C]-CA--N-[H2] |==|  0.37101
ROOT
ATOM      1  CA  VAL C   2      59.106  30.146 100.759  1.00 18.98 LIG 0.18  C 
ENDROOT
BRANCH 1 2
ATOM      2  C   VAL C   2      58.979  29.027 101.789  1.00 19.28 LIG 0.24  C 
ATOM      3  N   ALA C   3      57.813  28.402 101.912  1.00 19.49 LIG-0.35  N 
ATOM      4 H    ALA C   3      57.121  28.620 101.451  1.00 19.49 LIG 0.16  HD
ATOM      5 O    VAL C   2      59.955  28.730 102.463  1.00 19.03 LIG-0.27  OA
BRANCH 3 6
ATOM      6  CA  ALA C   3      57.565  27.295 102.826  1.00 19.91 LIG 0.16  C 
ATOM      7  CB  ALA C   3      56.418  27.603 103.766  1.00 20.02 LIG 0.04  C 
BRANCH 6 8
ATOM      8  C   ALA C   3      57.191  26.007 102.105  1.00 20.51 LIG 0.22  C 
ATOM      9 O    ALA C   3      56.322  26.012 101.227  1.00 21.40 LIG-0.29  OA
ENDBRANCH 6 8
ENDBRANCH 3 6
ENDBRANCH 1 2
BRANCH 1 10
ATOM     10  CB  VAL C   2      59.701  29.532  99.492  1.00 18.88 LIG 0.01  C 
ATOM     11  CG2 VAL C   2      58.556  29.105  98.599  1.00 18.45 LIG 0.01  C 
ATOM     12  CG1 VAL C   2      60.586  28.355  99.800  1.00 18.43 LIG 0.01  C 
ENDBRANCH 1 10
BRANCH 1 13
ATOM     13  N   VAL C   2      59.873  31.325 101.139  1.00 19.26 LIG-0.35  N 
ATOM     14  C   ALA C   1      59.521  32.204 102.058  1.00 19.51 LIG 0.25  C 
ATOM     15 O    ALA C   1      58.437  32.203 102.647  1.00 19.32 LIG-0.27  OA
ATOM     16 H    VAL C   2      60.605  31.400 100.693  1.00 19.26 LIG 0.16  HD
BRANCH 14 17
ATOM     17  CA  ALA C   1      60.466  33.393 102.277  1.00 19.89 LIG 0.27  C 
ATOM     18  CB  ALA C   1      60.192  33.977 103.663  1.00 20.07 LIG 0.05  C 
BRANCH 17 19
ATOM     19  N   ALA C   1      60.145  34.355 101.234  1.00 19.80 LIG-0.07  N 
ATOM     20 H2   ALA C   1      60.076  35.167 101.591  1.00 19.80 LIG 0.28  HD
ATOM     21 H3   ALA C   1      60.790  34.355 100.622  1.00 19.80 LIG 0.28  HD
ATOM     22 H1   ALA C   1      59.373  34.133 100.852  1.00 19.80 LIG 0.28  HD
ENDBRANCH 17 19
ENDBRANCH 14 17
ENDBRANCH 1 13
TORSDOF 7
ENDMDL
MODEL 2
USER: ADFR SOLUTION from run 154
USER: SCORE 9.517601 LL:  -1.005 LR:  -9.082 RR:   0.000 FEB:  -6.994
USER: RMSD 5.537732
USER: SEED 153
USER: STATUS no improvement in best in 3 clusters for 5 generations
USER: GENES 9
USER: genes 0 Translation |==|  0.55799 0.45359 0.53343
USER: genes 1 Rotation |==|  0.37865 0.73630 0.91684 0.57533
USER: genes 2 Torsion [N]-CA--C-[N] |==|  0.55439
USER: genes 3 Torsion [C]-N--CA-[CB] |==|  0.91432
USER: genes 4 Torsion [N]-CA--C-[O] |==|  0.17748
USER: genes 5 Torsion [C]-CA--CB-[CG1] |==|  0.42377
USER: genes 6 Torsion [C]-CA--N-[C] |==|  0.73352
USER: genes 7 Torsion [N]-C--CA-[N] |==|  0.15617
USER: genes 8 Torsion [C]-CA--N-[H2] |==|  0.28105
ROOT
ATOM      1  CA  VAL C   2      59.027  29.804 102.053  1.00 18.98 LIG 0.18  C 
ENDROOT
BRANCH 1 2
ATOM      2  C   VAL C   2      59.328  31.279 102.305  1.00 19.28 LIG 0.24  C 
ATOM      3  N   ALA C   3      60.390  31.823 101.723  1.00 19.49 LIG-0.35  N 
ATOM      4 H    ALA C   3      60.928  31.371 101.227  1.00 19.49 LIG 0.16  HD
ATOM      5 O    VAL C   2      58.577  31.921 103.028  1.00 19.03 LIG-0.27  OA
BRANCH 3 6
ATOM      6  CA  ALA C   3      60.770  33.224 101.847  1.00 19.91 LIG 0.16  C 
ATOM      7  CB  ALA C   3      59.555  34.111 102.028  1.00 20.02 LIG 0.04  C 
BRANCH 6 8
ATOM      8  C   ALA C   3      61.672  33.488 103.044  1.00 20.51 LIG 0.22  C 
ATOM      9 O    ALA C   3      62.797  32.980 103.102  1.00 21.40 LIG-0.29  OA
ENDBRANCH 6 8
ENDBRANCH 3 6
ENDBRANCH 1 2
BRANCH 1 10
ATOM     10  CB  VAL C   2      59.396  29.508 100.599  1.00 18.88 LIG 0.01  C 
ATOM     11  CG2 VAL C   2      58.202  29.855  99.736  1.00 18.45 LIG 0.01  C 
ATOM     12  CG1 VAL C   2      59.780  28.068 100.399  1.00 18.43 LIG 0.01  C 
ENDBRANCH 1 10
BRANCH 1 13
ATOM     13  N   VAL C   2      57.673  29.339 102.320  1.00 19.26 LIG-0.35  N 
ATOM     14  C   ALA C   1      57.268  28.762 103.436  1.00 19.51 LIG 0.25  C 
ATOM     15 O    ALA C   1      58.011  28.444 104.368  1.00 19.32 LIG-0.27  OA
ATOM     16 H    VAL C   2      57.140  29.478 101.660  1.00 19.26 LIG 0.16  HD
BRANCH 14 17
ATOM     17  CA  ALA C   1      55.800  28.321 103.493  1.00 19.89 LIG 0.27  C 
ATOM     18  CB  ALA C   1      55.570  27.579 104.811  1.00 20.07 LIG 0.05  C 
BRANCH 17 19
ATOM     19  N   ALA C   1      55.606  27.434 102.357  1.00 19.80 LIG-0.07  N 
ATOM     20 H2   ALA C   1      55.623  26.588 102.634  1.00 19.80 LIG 0.28  HD
ATOM     21 H3   ALA C   1      54.820  27.605 101.977  1.00 19.80 LIG 0.28  HD
ATOM     22 H1   ALA C   1      56.256  27.564 101.764  1.00 19.80 LIG 0.28  HD
ENDBRANCH 17 19
ENDBRANCH 14 17
ENDBRANCH 1 13
TORSDOF 7
ENDMDL
MODEL 3
USER: ADFR SOLUTION from run 131
USER: SCORE 9.521511 LL:  -1.263 LR:  -8.261 RR:   0.000 FEB:  -6.173
USER: RMSD 5.504500
USER: SEED 130
USER: STATUS no improvement in best in 4 clusters for 5 generations
USER: GENES 9
USER: genes 0 Translation |==|  0.53990 0.48157 0.60584
USER: genes 1 Rotation |==|  0.08180 0.65305 0.47978 0.72644
USER: genes 2 Torsion [N]-CA--C-[N] |==|  0.92709
USER: genes 3 Torsion [C]-N--CA-[CB] |==|  0.91935
USER: genes 4 Torsion [N]-CA--C-[O] |==|  0.16112
USER: genes 5 Torsion [C]-CA--CB-[CG1] |==|  0.50471
USER: genes 6 Torsion [C]-CA--N-[C] |==|  0.82363
USER: genes 7 Torsion [N]-C--CA-[N] |==|  0.46146
USER: genes 8 Torsion [C]-CA--N-[H2] |==|  0.21916
ROOT
ATOM      1  CA  VAL C   2      58.770  30.287 103.031  1.00 18.98 LIG 0.18  C 
ENDROOT
BRANCH 1 2
ATOM      2  C   VAL C   2      59.268  31.723 102.900  1.00 19.28 LIG 0.24  C 
ATOM      3  N   ALA C   3      60.339  31.962 102.152  1.00 19.49 LIG-0.35  N 
ATOM      4 H    ALA C   3      60.776  31.335 101.757  1.00 19.49 LIG 0.16  HD
ATOM      5 O    VAL C   2      58.663  32.615 103.479  1.00 19.03 LIG-0.27  OA
BRANCH 3 6
ATOM      6  CA  ALA C   3      60.898  33.285 101.912  1.00 19.91 LIG 0.16  C 
ATOM      7  CB  ALA C   3      59.826  34.355 101.973  1.00 20.02 LIG 0.04  C 
BRANCH 6 8
ATOM      8  C   ALA C   3      61.951  33.678 102.939  1.00 20.51 LIG 0.22  C 
ATOM      9 O    ALA C   3      62.956  32.978 103.102  1.00 21.40 LIG-0.29  OA
ENDBRANCH 6 8
ENDBRANCH 3 6
ENDBRANCH 1 2
BRANCH 1 10
ATOM     10  CB  VAL C   2      59.326  29.730 104.342  1.00 18.88 LIG 0.01  C 
ATOM     11  CG2 VAL C   2      60.834  29.855 104.298  1.00 18.45 LIG 0.01  C 
ATOM     12  CG1 VAL C   2      58.929  28.296 104.556  1.00 18.43 LIG 0.01  C 
ENDBRANCH 1 10
BRANCH 1 13
ATOM     13  N   VAL C   2      59.072  29.369 101.942  1.00 19.26 LIG-0.35  N 
ATOM     14  C   ALA C   1      58.638  29.483 100.700  1.00 19.51 LIG 0.25  C 
ATOM     15 O    ALA C   1      57.826  30.331 100.320  1.00 19.32 LIG-0.27  OA
ATOM     16 H    VAL C   2      59.579  28.719 102.188  1.00 19.26 LIG 0.16  HD
BRANCH 14 17
ATOM     17  CA  ALA C   1      59.054  28.382  99.717  1.00 19.89 LIG 0.27  C 
ATOM     18  CB  ALA C   1      60.524  28.593  99.352  1.00 20.07 LIG 0.05  C 
BRANCH 17 19
ATOM     19  N   ALA C   1      58.201  28.546  98.550  1.00 19.80 LIG-0.07  N 
ATOM     20 H2   ALA C   1      58.508  29.213  98.048  1.00 19.80 LIG 0.28  HD
ATOM     21 H3   ALA C   1      58.201  27.794  98.075  1.00 19.80 LIG 0.28  HD
ATOM     22 H1   ALA C   1      57.371  28.730  98.813  1.00 19.80 LIG 0.28  HD
ENDBRANCH 17 19
ENDBRANCH 14 17
ENDBRANCH 1 13
TORSDOF 7
ENDMDL
MODEL 4
USER: ADFR SOLUTION from run 14
USER: SCORE 9.164946 LL:  -1.278 LR:  -8.235 RR:   0.000 FEB:  -6.147
USER: RMSD 3.575730
USER: SEED 864456
USER: STATUS no improvement in best in 4 clusters for 5 generations
USER: GENES 9
USER: genes 0 Translation |==|  0.69594 0.49002 0.60006
USER: genes 1 Rotation |==|  0.40875 0.02779 0.56950 0.61774
USER: genes 2 Torsion [N]-CA--C-[N] |==|  0.92473
USER: genes 3 Torsion [C]-N--CA-[CB] |==|  0.82173
USER: genes 4 Torsion [N]-CA--C-[O] |==|  0.61487
USER: genes 5 Torsion [C]-CA--CB-[CG1] |==|  0.47879
USER: genes 6 Torsion [C]-CA--N-[C] |==|  0.66126
USER: genes 7 Torsion [N]-C--CA-[N] |==|  0.73808
USER: genes 8 Torsion [C]-CA--N-[H2] |==|  0.87545
ROOT
ATOM      1  CA  VAL C   2      60.993  30.433 102.953  1.00 18.98 LIG 0.18  C 
ENDROOT
BRANCH 1 2
ATOM      2  C   VAL C   2      60.443  29.419 101.954  1.00 19.28 LIG 0.24  C 
ATOM      3  N   ALA C   3      59.210  29.584 101.490  1.00 19.49 LIG-0.35  N 
ATOM      4 H    ALA C   3      58.701  30.228 101.748  1.00 19.49 LIG 0.16  HD
ATOM      5 O    VAL C   2      61.155  28.489 101.602  1.00 19.03 LIG-0.27  OA
BRANCH 3 6
ATOM      6  CA  ALA C   3      58.576  28.716 100.507  1.00 19.91 LIG 0.16  C 
ATOM      7  CB  ALA C   3      59.296  28.773  99.175  1.00 20.02 LIG 0.04  C 
BRANCH 6 8
ATOM      8  C   ALA C   3      58.573  27.252 100.927  1.00 20.51 LIG 0.22  C 
ATOM      9 O    ALA C   3      58.816  26.365 100.102  1.00 21.40 LIG-0.29  OA
ENDBRANCH 6 8
ENDBRANCH 3 6
ENDBRANCH 1 2
BRANCH 1 10
ATOM     10  CB  VAL C   2      60.788  29.850 104.352  1.00 18.88 LIG 0.01  C 
ATOM     11  CG2 VAL C   2      59.299  29.775 104.611  1.00 18.45 LIG 0.01  C 
ATOM     12  CG1 VAL C   2      61.459  30.682 105.410  1.00 18.43 LIG 0.01  C 
ENDBRANCH 1 10
BRANCH 1 13
ATOM     13  N   VAL C   2      60.456  31.786 102.903  1.00 19.26 LIG-0.35  N 
ATOM     14  C   ALA C   1      61.163  32.884 102.710  1.00 19.51 LIG 0.25  C 
ATOM     15 O    ALA C   1      62.395  32.920 102.651  1.00 19.32 LIG-0.27  OA
ATOM     16 H    VAL C   2      59.604  31.807 103.014  1.00 19.26 LIG 0.16  HD
BRANCH 14 17
ATOM     17  CA  ALA C   1      60.396  34.212 102.723  1.00 19.89 LIG 0.27  C 
ATOM     18  CB  ALA C   1      59.123  34.025 103.550  1.00 20.07 LIG 0.05  C 
BRANCH 17 19
ATOM     19  N   ALA C   1      60.076  34.503 101.335  1.00 19.80 LIG-0.07  N 
ATOM     20 H2   ALA C   1      60.792  34.355 100.828  1.00 19.80 LIG 0.28  HD
ATOM     21 H3   ALA C   1      59.410  33.976 101.067  1.00 19.80 LIG 0.28  HD
ATOM     22 H1   ALA C   1      59.829  35.354 101.258  1.00 19.80 LIG 0.28  HD
ENDBRANCH 17 19
ENDBRANCH 14 17
ENDBRANCH 1 13
TORSDOF 7
ENDMDL
MODEL 5
USER: ADFR SOLUTION from run 39
USER: SCORE 9.644660 LL:  -1.432 LR:  -8.220 RR:   0.000 FEB:  -6.132
USER: RMSD 2.711624
USER: SEED 38
USER: STATUS no improvement in best in 5 clusters for 5 generations
USER: GENES 9
USER: genes 0 Translation |==|  0.55453 0.47105 0.51067
USER: genes 1 Rotation |==|  0.46429 0.54067 0.53314 0.99596
USER: genes 2 Torsion [N]-CA--C-[N] |==|  0.91771
USER: genes 3 Torsion [C]-N--CA-[CB] |==|  0.14630
USER: genes 4 Torsion [N]-CA--C-[O] |==|  0.02423
USER: genes 5 Torsion [C]-CA--CB-[CG1] |==|  0.15620
USER: genes 6 Torsion [C]-CA--N-[C] |==|  0.82222
USER: genes 7 Torsion [N]-C--CA-[N] |==|  0.36515
USER: genes 8 Torsion [C]-CA--N-[H2] |==|  0.92505
ROOT
ATOM      1  CA  VAL C   2      58.978  30.106 101.746  1.00 18.98 LIG 0.18  C 
ENDROOT
BRANCH 1 2
ATOM      2  C   VAL C   2      58.929  29.562 103.171  1.00 19.28 LIG 0.24  C 
ATOM      3  N   ALA C   3      59.982  29.741 103.960  1.00 19.49 LIG-0.35  N 
ATOM      4 H    ALA C   3      60.700  30.131 103.691  1.00 19.49 LIG 0.16  HD
ATOM      5 O    VAL C   2      57.918  28.986 103.550  1.00 19.03 LIG-0.27  OA
BRANCH 3 6
ATOM      6  CA  ALA C   3      60.054  29.308 105.348  1.00 19.91 LIG 0.16  C 
ATOM      7  CB  ALA C   3      59.702  27.840 105.487  1.00 20.02 LIG 0.04  C 
BRANCH 6 8
ATOM      8  C   ALA C   3      61.444  29.471 105.948  1.00 20.51 LIG 0.22  C 
ATOM      9 O    ALA C   3      62.325  30.074 105.327  1.00 21.40 LIG-0.29  OA
ENDBRANCH 6 8
ENDBRANCH 3 6
ENDBRANCH 1 2
BRANCH 1 10
ATOM     10  CB  VAL C   2      59.451  28.967 100.842  1.00 18.88 LIG 0.01  C 
ATOM     11  CG2 VAL C   2      59.451  29.474  99.416  1.00 18.45 LIG 0.01  C 
ATOM     12  CG1 VAL C   2      58.573  27.752 100.961  1.00 18.43 LIG 0.01  C 
ENDBRANCH 1 10
BRANCH 1 13
ATOM     13  N   VAL C   2      59.790  31.291 101.506  1.00 19.26 LIG-0.35  N 
ATOM     14  C   ALA C   1      59.572  32.486 102.024  1.00 19.51 LIG 0.25  C 
ATOM     15 O    ALA C   1      58.584  32.784 102.700  1.00 19.32 LIG-0.27  OA
ATOM     16 H    VAL C   2      60.450  31.137 100.977  1.00 19.26 LIG 0.16  HD
BRANCH 14 17
ATOM     17  CA  ALA C   1      60.538  33.604 101.613  1.00 19.89 LIG 0.27  C 
ATOM     18  CB  ALA C   1      61.409  33.957 102.819  1.00 20.07 LIG 0.05  C 
BRANCH 17 19
ATOM     19  N   ALA C   1      59.702  34.731 101.228  1.00 19.80 LIG-0.07  N 
ATOM     20 H2   ALA C   1      58.914  34.432 100.942  1.00 19.80 LIG 0.28  HD
ATOM     21 H3   ALA C   1      59.580  35.264 101.930  1.00 19.80 LIG 0.28  HD
ATOM     22 H1   ALA C   1      60.100  35.187 100.575  1.00 19.80 LIG 0.28  HD
ENDBRANCH 17 19
ENDBRANCH 14 17
ENDBRANCH 1 13
TORSDOF 7
ENDMDL
