MODEL 1
USER: ADFR SOLUTION from run 34
USER: SCORE 16.806236 LL:  -4.558 LR: -13.632 RR:   0.000 FEB:  -7.965
USER: RMSD 11.151557
USER: SEED 33
USER: STATUS no improvement in best in 2 clusters for 5 generations
USER: GENES 21
USER: genes 0 Translation |==|  0.52069 0.48605 0.70630
USER: genes 1 Rotation |==|  0.67941 0.15893 0.31089 0.75637
USER: genes 2 Torsion [N]-CA--C-[N] |==|  0.21111
USER: genes 3 Torsion [C]-N--CA-[C] |==|  0.75952
USER: genes 4 Torsion [N]-CA--C-[N] |==|  0.79104
USER: genes 5 Torsion [C]-N--CA-[CB] |==|  0.21336
USER: genes 6 Torsion [N]-CA--CB-[CG1] |==|  0.64980
USER: genes 7 Torsion [CA]-CB--CG1-[CD1] |==|  0.81436
USER: genes 8 Torsion [N]-CA--C-[OXT] |==|  0.36041
USER: genes 9 Torsion [N]-CA--CB-[CG] |==|  0.13568
USER: genes 10 Torsion [CA]-CB--CG-[CD2] |==|  0.36715
USER: genes 11 Torsion [C]-CA--CB-[CG] |==|  0.48844
USER: genes 12 Torsion [CA]-CB--CG-[CD1] |==|  0.00149
USER: genes 13 Torsion [C]-CA--N-[C] |==|  0.74259
USER: genes 14 Torsion [N]-C--CA-[N] |==|  0.32279
USER: genes 15 Torsion [C]-CA--CB-[CG] |==|  0.08553
USER: genes 16 Torsion [CA]-CB--CG-[CD2] |==|  0.69304
USER: genes 17 Torsion [C]-CA--N-[C] |==|  0.56160
USER: genes 18 Torsion [N]-C--CA-[N] |==|  0.36582
USER: genes 19 Torsion [C]-CA--CB-[CG] |==|  0.73585
USER: genes 20 Torsion [CA]-CB--CG-[OD1] |==|  0.82944
ROOT
ATOM      1  CA  LEU D  11      19.185   6.767  67.533  1.00 47.89 LIG 0.18  C 
ENDROOT
BRANCH 1 2
ATOM      2  C   LEU D  11      19.998   7.893  66.907  1.00 48.14 LIG 0.24  C 
ATOM      3 O    LEU D  11      20.617   7.720  65.866  1.00 47.13 LIG-0.27  OA
ATOM      4  N   HIS D  12      20.021   9.041  67.574  1.00 49.28 LIG-0.35  N 
ATOM      5 H    HIS D  12      19.587   9.190  68.302  1.00 49.28 LIG 0.16  HD
BRANCH 4 6
ATOM      6  CA  HIS D  12      20.817  10.166  67.094  1.00 50.49 LIG 0.18  C 
BRANCH 6 7
ATOM      7  C   HIS D  12      22.258  10.096  67.595  1.00 51.38 LIG 0.24  C 
ATOM      8  N   ILE D  13      22.414  10.424  68.867  1.00 53.16 LIG-0.34  N 
ATOM      9 H    ILE D  13      21.749  10.682  69.347  1.00 53.16 LIG 0.16  HD
ATOM     10 O    HIS D  12      23.170   9.752  66.858  1.00 51.57 LIG-0.27  OA
BRANCH 8 11
ATOM     11  CA  ILE D  13      23.671  10.404  69.633  1.00 55.12 LIG 0.19  C 
BRANCH 11 12
ATOM     12  CB  ILE D  13      24.621  11.618  69.323  1.00 55.01 LIG 0.01  C 
ATOM     13  CG2 ILE D  13      24.717  12.613  70.495  1.00 56.15 LIG 0.01  C 
BRANCH 12 14
ATOM     14  CG1 ILE D  13      26.011  11.110  68.926  1.00 55.50 LIG 0.00  C 
ATOM     15  CD1 ILE D  13      26.784  10.404  70.072  1.00 55.45 LIG 0.01  C 
ENDBRANCH 12 14
ENDBRANCH 11 12
BRANCH 11 16
ATOM     16  C   ILE D  13      23.623  10.058  71.124  1.00 55.63 LIG 0.20  C 
ATOM     17 O    ILE D  13      22.855  10.643  71.891  1.00 56.94 LIG-0.65  OA
ATOM     18 OXT  ILE D  13      24.401   9.188  71.540  1.00 55.86 LIG-0.65  OA
ENDBRANCH 11 16
ENDBRANCH 8 11
ENDBRANCH 6 7
BRANCH 6 19
ATOM     19  CB  HIS D  12      20.186  11.502  67.491  1.00 50.55 LIG 0.10  C 
BRANCH 19 20
ATOM     20  CG  HIS D  12      19.804  11.583  68.936  1.00 49.61 LIG 0.06  A 
ATOM     21  CD2 HIS D  12      20.028  12.541  69.866  1.00 48.49 LIG 0.14  A 
ATOM     22 NE2  HIS D  12      19.455  12.109  71.036  1.00 48.62 LIG-0.25  NA
ATOM     23  CE1 HIS D  12      18.878  10.940  70.827  1.00 49.12 LIG 0.23  A 
ATOM     24 ND1  HIS D  12      19.078  10.598  69.568  1.00 49.92 LIG-0.24  NA
ENDBRANCH 19 20
ENDBRANCH 6 19
ENDBRANCH 4 6
ENDBRANCH 1 2
BRANCH 1 25
ATOM     25  CB  LEU D  11      19.626   5.460  66.884  1.00 47.69 LIG 0.04  C 
BRANCH 25 26
ATOM     26  CG  LEU D  11      19.039   4.137  67.392  1.00 48.05 LIG-0.02  C 
ATOM     27  CD1 LEU D  11      18.050   4.401  68.518  1.00 46.53 LIG 0.01  C 
ATOM     28  CD2 LEU D  11      18.400   3.321  66.293  1.00 50.43 LIG 0.01  C 
ENDBRANCH 25 26
ENDBRANCH 1 25
BRANCH 1 29
ATOM     29  N   LEU D  11      17.748   6.930  67.371  1.00 47.51 LIG-0.35  N 
ATOM     30  C   LEU D  10      16.981   7.534  68.279  1.00 47.80 LIG 0.24  C 
ATOM     31 O    LEU D  10      17.423   8.078  69.302  1.00 47.07 LIG-0.27  OA
ATOM     32 H    LEU D  11      17.442   6.602  66.637  1.00 47.51 LIG 0.16  HD
BRANCH 30 33
ATOM     33  CA  LEU D  10      15.485   7.516  67.992  1.00 47.63 LIG 0.18  C 
BRANCH 33 34
ATOM     34  CB  LEU D  10      14.932   8.931  67.855  1.00 47.29 LIG 0.04  C 
BRANCH 34 35
ATOM     35  CG  LEU D  10      15.941   9.941  67.297  1.00 46.92 LIG-0.02  C 
ATOM     36  CD1 LEU D  10      15.388  10.693  66.088  1.00 46.83 LIG 0.01  C 
ATOM     37  CD2 LEU D  10      16.360  10.922  68.340  1.00 45.50 LIG 0.01  C 
ENDBRANCH 34 35
ENDBRANCH 33 34
BRANCH 33 38
ATOM     38  N   LEU D  10      14.793   6.760  69.022  1.00 47.82 LIG-0.35  N 
ATOM     39 H    LEU D  10      15.216   6.692  69.768  1.00 47.82 LIG 0.16  HD
ATOM     40  C   ASP D   9      13.597   6.235  68.784  1.00 48.63 LIG 0.26  C 
ATOM     41 O    ASP D   9      13.018   6.334  67.705  1.00 48.10 LIG-0.27  OA
BRANCH 40 42
ATOM     42  CA  ASP D   9      12.970   5.479  69.926  1.00 49.27 LIG 0.41  C 
ATOM     43  N   ASP D   9      11.571   5.959  70.069  1.00 49.86 LIG 0.61  N 
BRANCH 42 44
ATOM     44  CB  ASP D   9      12.996   3.991  69.604  1.00 50.02 LIG 0.16  C 
BRANCH 44 45
ATOM     45  CG  ASP D   9      11.717   3.511  68.984  1.00 50.84 LIG 0.17  C 
ATOM     46 OD1  ASP D   9      10.667   3.611  69.641  1.00 53.44 LIG-0.65  OA
ATOM     47 OD2  ASP D   9      11.657   3.039  67.826  1.00 53.75 LIG-0.65  OA
ENDBRANCH 44 45
ENDBRANCH 42 44
ENDBRANCH 40 42
ENDBRANCH 33 38
ENDBRANCH 30 33
ENDBRANCH 1 29
TORSDOF 19
ENDMDL
MODEL 2
USER: ADFR SOLUTION from run 111
USER: SCORE 15.563801 LL:  -4.423 LR: -13.313 RR:   0.000 FEB:  -7.645
USER: RMSD 7.439093
USER: SEED 110
USER: STATUS no improvement in best in 10 clusters for 5 generations
USER: GENES 21
USER: genes 0 Translation |==|  0.50645 0.45531 0.67681
USER: genes 1 Rotation |==|  0.54174 0.15412 0.36272 0.83133
USER: genes 2 Torsion [N]-CA--C-[N] |==|  0.81231
USER: genes 3 Torsion [C]-N--CA-[C] |==|  0.47812
USER: genes 4 Torsion [N]-CA--C-[N] |==|  0.88570
USER: genes 5 Torsion [C]-N--CA-[CB] |==|  0.69455
USER: genes 6 Torsion [N]-CA--CB-[CG1] |==|  0.63620
USER: genes 7 Torsion [CA]-CB--CG1-[CD1] |==|  0.46736
USER: genes 8 Torsion [N]-CA--C-[OXT] |==|  0.31308
USER: genes 9 Torsion [N]-CA--CB-[CG] |==|  0.35323
USER: genes 10 Torsion [CA]-CB--CG-[CD2] |==|  0.24117
USER: genes 11 Torsion [C]-CA--CB-[CG] |==|  0.69643
USER: genes 12 Torsion [CA]-CB--CG-[CD1] |==|  0.42804
USER: genes 13 Torsion [C]-CA--N-[C] |==|  0.59856
USER: genes 14 Torsion [N]-C--CA-[N] |==|  0.35175
USER: genes 15 Torsion [C]-CA--CB-[CG] |==|  0.22737
USER: genes 16 Torsion [CA]-CB--CG-[CD2] |==|  0.05414
USER: genes 17 Torsion [C]-CA--N-[C] |==|  0.62355
USER: genes 18 Torsion [N]-C--CA-[N] |==|  0.32964
USER: genes 19 Torsion [C]-CA--CB-[CG] |==|  0.74936
USER: genes 20 Torsion [CA]-CB--CG-[OD1] |==|  0.33644
ROOT
ATOM      1  CA  LEU D  11      18.908   6.191  66.869  1.00 47.89 LIG 0.18  C 
ENDROOT
BRANCH 1 2
ATOM      2  C   LEU D  11      19.517   6.640  65.547  1.00 48.14 LIG 0.24  C 
ATOM      3 O    LEU D  11      20.383   7.504  65.515  1.00 47.13 LIG-0.27  OA
ATOM      4  N   HIS D  12      19.026   6.071  64.452  1.00 49.28 LIG-0.35  N 
ATOM      5 H    HIS D  12      18.425   5.456  64.451  1.00 49.28 LIG 0.16  HD
BRANCH 4 6
ATOM      6  CA  HIS D  12      19.497   6.472  63.130  1.00 50.49 LIG 0.18  C 
BRANCH 6 7
ATOM      7  C   HIS D  12      18.947   5.564  62.033  1.00 51.38 LIG 0.24  C 
ATOM      8  N   ILE D  13      18.931   4.277  62.341  1.00 53.16 LIG-0.34  N 
ATOM      9 H    ILE D  13      19.239   3.994  63.092  1.00 53.16 LIG 0.16  HD
ATOM     10 O    HIS D  12      18.552   6.020  60.970  1.00 51.57 LIG-0.27  OA
BRANCH 8 11
ATOM     11  CA  ILE D  13      18.416   3.179  61.506  1.00 55.12 LIG 0.19  C 
BRANCH 11 12
ATOM     12  CB  ILE D  13      17.093   2.533  62.055  1.00 55.01 LIG 0.01  C 
ATOM     13  CG2 ILE D  13      15.846   2.957  61.257  1.00 56.15 LIG 0.01  C 
BRANCH 12 14
ATOM     14  CG1 ILE D  13      17.226   1.007  62.084  1.00 55.50 LIG 0.00  C 
ATOM     15  CD1 ILE D  13      16.100   0.282  62.870  1.00 55.45 LIG 0.01  C 
ENDBRANCH 12 14
ENDBRANCH 11 12
BRANCH 11 16
ATOM     16  C   ILE D  13      18.400   3.353  59.984  1.00 55.63 LIG 0.20  C 
ATOM     17 O    ILE D  13      17.642   4.159  59.441  1.00 56.94 LIG-0.65  OA
ATOM     18 OXT  ILE D  13      19.158   2.637  59.314  1.00 55.86 LIG-0.65  OA
ENDBRANCH 11 16
ENDBRANCH 8 11
ENDBRANCH 6 7
BRANCH 6 19
ATOM     19  CB  HIS D  12      21.026   6.502  63.071  1.00 50.55 LIG 0.10  C 
BRANCH 19 20
ATOM     20  CG  HIS D  12      21.602   5.707  61.943  1.00 49.61 LIG 0.06  A 
ATOM     21  CD2 HIS D  12      21.855   6.037  60.655  1.00 48.49 LIG 0.14  A 
ATOM     22 NE2  HIS D  12      22.392   4.928  60.051  1.00 48.62 LIG-0.25  NA
ATOM     23  CE1 HIS D  12      22.489   3.958  60.941  1.00 49.12 LIG 0.23  A 
ATOM     24 ND1  HIS D  12      22.014   4.400  62.091  1.00 49.92 LIG-0.24  NA
ENDBRANCH 19 20
ENDBRANCH 6 19
ENDBRANCH 4 6
ENDBRANCH 1 2
BRANCH 1 25
ATOM     25  CB  LEU D  11      19.003   4.671  66.933  1.00 47.69 LIG 0.04  C 
BRANCH 25 26
ATOM     26  CG  LEU D  11      17.723   3.834  66.807  1.00 48.05 LIG-0.02  C 
ATOM     27  CD1 LEU D  11      18.054   2.451  66.265  1.00 46.53 LIG 0.01  C 
ATOM     28  CD2 LEU D  11      16.960   3.736  68.107  1.00 50.43 LIG 0.01  C 
ENDBRANCH 25 26
ENDBRANCH 1 25
BRANCH 1 29
ATOM     29  N   LEU D  11      17.520   6.598  67.035  1.00 47.51 LIG-0.35  N 
ATOM     30  C   LEU D  10      17.006   6.951  68.214  1.00 47.80 LIG 0.24  C 
ATOM     31 O    LEU D  10      17.670   7.040  69.257  1.00 47.07 LIG-0.27  OA
ATOM     32 H    LEU D  11      17.066   6.590  66.305  1.00 47.51 LIG 0.16  HD
BRANCH 30 33
ATOM     33  CA  LEU D  10      15.510   7.241  68.217  1.00 47.63 LIG 0.18  C 
BRANCH 33 34
ATOM     34  CB  LEU D  10      15.238   8.732  68.391  1.00 47.29 LIG 0.04  C 
BRANCH 34 35
ATOM     35  CG  LEU D  10      15.352   9.540  67.093  1.00 46.92 LIG-0.02  C 
ATOM     36  CD1 LEU D  10      16.659  10.327  67.022  1.00 46.83 LIG 0.01  C 
ATOM     37  CD2 LEU D  10      15.241   8.658  65.894  1.00 45.50 LIG 0.01  C 
ENDBRANCH 34 35
ENDBRANCH 33 34
BRANCH 33 38
ATOM     38  N   LEU D  10      14.854   6.447  69.242  1.00 47.82 LIG-0.35  N 
ATOM     39 H    LEU D  10      15.258   6.428  70.001  1.00 47.82 LIG 0.16  HD
ATOM     40  C   ASP D   9      13.716   5.816  68.981  1.00 48.63 LIG 0.26  C 
ATOM     41 O    ASP D   9      13.163   5.847  67.883  1.00 48.10 LIG-0.27  OA
BRANCH 40 42
ATOM     42  CA  ASP D   9      13.121   5.030  70.119  1.00 49.27 LIG 0.41  C 
ATOM     43  N   ASP D   9      11.787   5.612  70.419  1.00 49.86 LIG 0.61  N 
BRANCH 42 44
ATOM     44  CB  ASP D   9      12.987   3.574  69.694  1.00 50.02 LIG 0.16  C 
BRANCH 44 45
ATOM     45  CG  ASP D   9      11.664   3.278  69.052  1.00 50.84 LIG 0.17  C 
ATOM     46 OD1  ASP D   9      11.657   2.834  67.891  1.00 53.44 LIG-0.65  OA
ATOM     47 OD2  ASP D   9      10.571   3.432  69.641  1.00 53.75 LIG-0.65  OA
ENDBRANCH 44 45
ENDBRANCH 42 44
ENDBRANCH 40 42
ENDBRANCH 33 38
ENDBRANCH 30 33
ENDBRANCH 1 29
TORSDOF 19
ENDMDL
MODEL 3
USER: ADFR SOLUTION from run 197
USER: SCORE 16.677320 LL:  -4.425 LR: -13.284 RR:   0.000 FEB:  -7.616
USER: RMSD 10.134337
USER: SEED 196
USER: STATUS no improvement in best in 8 clusters for 5 generations
USER: GENES 21
USER: genes 0 Translation |==|  0.36199 0.21707 0.40110
USER: genes 1 Rotation |==|  0.68875 0.19806 0.14936 0.51602
USER: genes 2 Torsion [N]-CA--C-[N] |==|  0.04426
USER: genes 3 Torsion [C]-N--CA-[C] |==|  0.66111
USER: genes 4 Torsion [N]-CA--C-[N] |==|  0.68397
USER: genes 5 Torsion [C]-N--CA-[CB] |==|  0.07443
USER: genes 6 Torsion [N]-CA--CB-[CG1] |==|  0.57192
USER: genes 7 Torsion [CA]-CB--CG1-[CD1] |==|  0.15605
USER: genes 8 Torsion [N]-CA--C-[OXT] |==|  0.34474
USER: genes 9 Torsion [N]-CA--CB-[CG] |==|  0.67160
USER: genes 10 Torsion [CA]-CB--CG-[CD2] |==|  0.70558
USER: genes 11 Torsion [C]-CA--CB-[CG] |==|  0.72736
USER: genes 12 Torsion [CA]-CB--CG-[CD1] |==|  0.20303
USER: genes 13 Torsion [C]-CA--N-[C] |==|  0.71112
USER: genes 14 Torsion [N]-C--CA-[N] |==|  0.17238
USER: genes 15 Torsion [C]-CA--CB-[CG] |==|  0.84305
USER: genes 16 Torsion [CA]-CB--CG-[CD2] |==|  0.70278
USER: genes 17 Torsion [C]-CA--N-[C] |==|  0.75924
USER: genes 18 Torsion [N]-C--CA-[N] |==|  0.33290
USER: genes 19 Torsion [C]-CA--CB-[CG] |==|  0.66458
USER: genes 20 Torsion [CA]-CB--CG-[OD1] |==|  0.18204
ROOT
ATOM      1  CA  LEU D  11      16.091   1.724  60.666  1.00 47.89 LIG 0.18  C 
ENDROOT
BRANCH 1 2
ATOM      2  C   LEU D  11      17.448   2.059  61.269  1.00 48.14 LIG 0.24  C 
ATOM      3 O    LEU D  11      18.407   1.314  61.117  1.00 47.13 LIG-0.27  OA
ATOM      4  N   HIS D  12      17.511   3.172  61.992  1.00 49.28 LIG-0.35  N 
ATOM      5 H    HIS D  12      16.854   3.715  62.105  1.00 49.28 LIG 0.16  HD
BRANCH 4 6
ATOM      6  CA  HIS D  12      18.747   3.555  62.665  1.00 50.49 LIG 0.18  C 
BRANCH 6 7
ATOM      7  C   HIS D  12      18.551   3.704  64.172  1.00 51.38 LIG 0.24  C 
ATOM      8  N   ILE D  13      18.694   4.938  64.625  1.00 53.16 LIG-0.34  N 
ATOM      9 H    ILE D  13      18.910   5.585  64.101  1.00 53.16 LIG 0.16  HD
ATOM     10 O    HIS D  12      18.275   2.742  64.874  1.00 51.57 LIG-0.27  OA
BRANCH 8 11
ATOM     11  CA  ILE D  13      18.518   5.391  66.015  1.00 55.12 LIG 0.19  C 
BRANCH 11 12
ATOM     12  CB  ILE D  13      18.782   4.270  67.085  1.00 55.01 LIG 0.01  C 
ATOM     13  CG2 ILE D  13      20.279   4.079  67.391  1.00 56.15 LIG 0.01  C 
BRANCH 12 14
ATOM     14  CG1 ILE D  13      18.000   4.571  68.367  1.00 55.50 LIG 0.00  C 
ATOM     15  CD1 ILE D  13      16.471   4.741  68.157  1.00 55.45 LIG 0.01  C 
ENDBRANCH 12 14
ENDBRANCH 11 12
BRANCH 11 16
ATOM     16  C   ILE D  13      19.094   6.748  66.429  1.00 55.63 LIG 0.20  C 
ATOM     17 O    ILE D  13      20.294   7.000  66.296  1.00 56.94 LIG-0.65  OA
ATOM     18 OXT  ILE D  13      18.319   7.577  66.926  1.00 55.86 LIG-0.65  OA
ENDBRANCH 11 16
ENDBRANCH 8 11
ENDBRANCH 6 7
BRANCH 6 19
ATOM     19  CB  HIS D  12      19.320   4.847  62.078  1.00 50.55 LIG 0.10  C 
BRANCH 19 20
ATOM     20  CG  HIS D  12      20.675   4.682  61.465  1.00 49.61 LIG 0.06  A 
ATOM     21  CD2 HIS D  12      21.902   5.063  61.892  1.00 48.49 LIG 0.14  A 
ATOM     22 NE2  HIS D  12      22.805   4.657  60.942  1.00 48.62 LIG-0.25  NA
ATOM     23  CE1 HIS D  12      22.160   4.027  59.977  1.00 49.12 LIG 0.23  A 
ATOM     24 ND1  HIS D  12      20.872   4.033  60.265  1.00 49.92 LIG-0.24  NA
ENDBRANCH 19 20
ENDBRANCH 6 19
ENDBRANCH 4 6
ENDBRANCH 1 2
BRANCH 1 25
ATOM     25  CB  LEU D  11      16.322   1.252  59.234  1.00 47.69 LIG 0.04  C 
BRANCH 25 26
ATOM     26  CG  LEU D  11      16.132   2.243  58.079  1.00 48.05 LIG-0.02  C 
ATOM     27  CD1 LEU D  11      17.281   3.240  58.050  1.00 46.53 LIG 0.01  C 
ATOM     28  CD2 LEU D  11      15.978   1.558  56.742  1.00 50.43 LIG 0.01  C 
ENDBRANCH 25 26
ENDBRANCH 1 25
BRANCH 1 29
ATOM     29  N   LEU D  11      15.165   2.847  60.663  1.00 47.51 LIG-0.35  N 
ATOM     30  C   LEU D  10      14.153   2.952  61.526  1.00 47.80 LIG 0.24  C 
ATOM     31 O    LEU D  10      13.951   2.154  62.452  1.00 47.07 LIG-0.27  OA
ATOM     32 H    LEU D  11      15.330   3.433  60.056  1.00 47.51 LIG 0.16  HD
BRANCH 30 33
ATOM     33  CA  LEU D  10      13.222   4.138  61.305  1.00 47.63 LIG 0.18  C 
BRANCH 33 34
ATOM     34  CB  LEU D  10      12.202   4.256  62.433  1.00 47.29 LIG 0.04  C 
BRANCH 34 35
ATOM     35  CG  LEU D  10      11.358   2.994  62.642  1.00 46.92 LIG-0.02  C 
ATOM     36  CD1 LEU D  10      11.330   2.561  64.106  1.00 46.83 LIG 0.01  C 
ATOM     37  CD2 LEU D  10       9.960   3.191  62.158  1.00 45.50 LIG 0.01  C 
ENDBRANCH 34 35
ENDBRANCH 33 34
BRANCH 33 38
ATOM     38  N   LEU D  10      12.583   4.029  60.005  1.00 47.82 LIG-0.35  N 
ATOM     39 H    LEU D  10      11.815   3.642  60.009  1.00 47.82 LIG 0.16  HD
ATOM     40  C   ASP D   9      13.176   4.508  58.918  1.00 48.63 LIG 0.26  C 
ATOM     41 O    ASP D   9      14.281   5.046  58.934  1.00 48.10 LIG-0.27  OA
BRANCH 40 42
ATOM     42  CA  ASP D   9      12.418   4.347  57.627  1.00 49.27 LIG 0.41  C 
ATOM     43  N   ASP D   9      12.174   5.706  57.077  1.00 49.86 LIG 0.61  N 
BRANCH 42 44
ATOM     44  CB  ASP D   9      13.259   3.522  56.663  1.00 50.02 LIG 0.16  C 
BRANCH 44 45
ATOM     45  CG  ASP D   9      13.569   4.255  55.391  1.00 50.84 LIG 0.17  C 
ATOM     46 OD1  ASP D   9      14.288   5.266  55.452  1.00 53.44 LIG-0.65  OA
ATOM     47 OD2  ASP D   9      13.157   3.879  54.270  1.00 53.75 LIG-0.65  OA
ENDBRANCH 44 45
ENDBRANCH 42 44
ENDBRANCH 40 42
ENDBRANCH 33 38
ENDBRANCH 30 33
ENDBRANCH 1 29
TORSDOF 19
ENDMDL
MODEL 4
USER: ADFR SOLUTION from run 145
USER: SCORE 17.117768 LL:  -4.503 LR: -13.125 RR:   0.000 FEB:  -7.457
USER: RMSD 10.653426
USER: SEED 144
USER: STATUS no improvement in best in 4 clusters for 5 generations
USER: GENES 21
USER: genes 0 Translation |==|  0.52903 0.50237 0.69098
USER: genes 1 Rotation |==|  0.69411 0.22229 0.19775 0.70939
USER: genes 2 Torsion [N]-CA--C-[N] |==|  0.06746
USER: genes 3 Torsion [C]-N--CA-[C] |==|  0.73385
USER: genes 4 Torsion [N]-CA--C-[N] |==|  0.29517
USER: genes 5 Torsion [C]-N--CA-[CB] |==|  0.74412
USER: genes 6 Torsion [N]-CA--CB-[CG1] |==|  0.54039
USER: genes 7 Torsion [CA]-CB--CG1-[CD1] |==|  0.10241
USER: genes 8 Torsion [N]-CA--C-[OXT] |==|  0.79826
USER: genes 9 Torsion [N]-CA--CB-[CG] |==|  0.86860
USER: genes 10 Torsion [CA]-CB--CG-[CD2] |==|  0.93792
USER: genes 11 Torsion [C]-CA--CB-[CG] |==|  0.38143
USER: genes 12 Torsion [CA]-CB--CG-[CD1] |==|  0.05667
USER: genes 13 Torsion [C]-CA--N-[C] |==|  0.64088
USER: genes 14 Torsion [N]-C--CA-[N] |==|  0.45923
USER: genes 15 Torsion [C]-CA--CB-[CG] |==|  0.99893
USER: genes 16 Torsion [CA]-CB--CG-[CD2] |==|  0.75478
USER: genes 17 Torsion [C]-CA--N-[C] |==|  0.79499
USER: genes 18 Torsion [N]-C--CA-[N] |==|  0.15213
USER: genes 19 Torsion [C]-CA--CB-[CG] |==|  0.71189
USER: genes 20 Torsion [CA]-CB--CG-[OD1] |==|  0.33557
ROOT
ATOM      1  CA  LEU D  11      19.348   7.073  67.188  1.00 47.89 LIG 0.18  C 
ENDROOT
BRANCH 1 2
ATOM      2  C   LEU D  11      20.308   8.245  67.031  1.00 48.14 LIG 0.24  C 
ATOM      3 O    LEU D  11      21.388   8.104  66.474  1.00 47.13 LIG-0.27  OA
ATOM      4  N   HIS D  12      19.920   9.398  67.566  1.00 49.28 LIG-0.35  N 
ATOM      5 H    HIS D  12      19.163   9.523  67.953  1.00 49.28 LIG 0.16  HD
BRANCH 4 6
ATOM      6  CA  HIS D  12      20.790  10.568  67.525  1.00 50.49 LIG 0.18  C 
BRANCH 6 7
ATOM      7  C   HIS D  12      21.598  10.720  68.812  1.00 51.38 LIG 0.24  C 
ATOM      8  N   ILE D  13      22.878  10.408  68.697  1.00 53.16 LIG-0.34  N 
ATOM      9 H    ILE D  13      23.203  10.117  67.955  1.00 53.16 LIG 0.16  HD
ATOM     10 O    HIS D  12      21.076  11.108  69.847  1.00 51.57 LIG-0.27  OA
BRANCH 8 11
ATOM     11  CA  ILE D  13      23.904  10.501  69.749  1.00 55.12 LIG 0.19  C 
BRANCH 11 12
ATOM     12  CB  ILE D  13      24.674  11.871  69.764  1.00 55.01 LIG 0.01  C 
ATOM     13  CG2 ILE D  13      23.796  13.043  70.240  1.00 56.15 LIG 0.01  C 
BRANCH 12 14
ATOM     14  CG1 ILE D  13      25.937  11.755  70.623  1.00 55.50 LIG 0.00  C 
ATOM     15  CD1 ILE D  13      26.657  10.384  70.518  1.00 55.45 LIG 0.01  C 
ENDBRANCH 12 14
ENDBRANCH 11 12
BRANCH 11 16
ATOM     16  C   ILE D  13      23.568   9.998  71.155  1.00 55.63 LIG 0.20  C 
ATOM     17 O    ILE D  13      24.032   8.938  71.583  1.00 56.94 LIG-0.65  OA
ATOM     18 OXT  ILE D  13      22.791  10.678  71.841  1.00 55.86 LIG-0.65  OA
ENDBRANCH 11 16
ENDBRANCH 8 11
ENDBRANCH 6 7
BRANCH 6 19
ATOM     19  CB  HIS D  12      19.991  11.844  67.251  1.00 50.55 LIG 0.10  C 
BRANCH 19 20
ATOM     20  CG  HIS D  12      19.022  11.719  66.118  1.00 49.61 LIG 0.06  A 
ATOM     21  CD2 HIS D  12      18.986  10.870  65.064  1.00 48.49 LIG 0.14  A 
ATOM     22 NE2  HIS D  12      17.874  11.189  64.326  1.00 48.62 LIG-0.25  NA
ATOM     23  CE1 HIS D  12      17.235  12.181  64.918  1.00 49.12 LIG 0.23  A 
ATOM     24 ND1  HIS D  12      17.910  12.523  66.000  1.00 49.92 LIG-0.24  NA
ENDBRANCH 19 20
ENDBRANCH 6 19
ENDBRANCH 4 6
ENDBRANCH 1 2
BRANCH 1 25
ATOM     25  CB  LEU D  11      19.454   6.214  65.933  1.00 47.69 LIG 0.04  C 
BRANCH 25 26
ATOM     26  CG  LEU D  11      19.492   4.687  66.072  1.00 48.05 LIG-0.02  C 
ATOM     27  CD1 LEU D  11      18.920   4.270  67.419  1.00 46.53 LIG 0.01  C 
ATOM     28  CD2 LEU D  11      18.782   3.980  64.942  1.00 50.43 LIG 0.01  C 
ENDBRANCH 25 26
ENDBRANCH 1 25
BRANCH 1 29
ATOM     29  N   LEU D  11      17.964   7.480  67.383  1.00 47.51 LIG-0.35  N 
ATOM     30  C   LEU D  10      17.206   7.014  68.376  1.00 47.80 LIG 0.24  C 
ATOM     31 O    LEU D  10      17.623   6.259  69.265  1.00 47.07 LIG-0.27  OA
ATOM     32 H    LEU D  11      17.683   8.046  66.800  1.00 47.51 LIG 0.16  HD
BRANCH 30 33
ATOM     33  CA  LEU D  10      15.751   7.467  68.359  1.00 47.63 LIG 0.18  C 
BRANCH 33 34
ATOM     34  CB  LEU D  10      15.631   8.949  68.697  1.00 47.29 LIG 0.04  C 
BRANCH 34 35
ATOM     35  CG  LEU D  10      16.973   9.633  68.981  1.00 46.92 LIG-0.02  C 
ATOM     36  CD1 LEU D  10      16.963  11.105  68.573  1.00 46.83 LIG 0.01  C 
ATOM     37  CD2 LEU D  10      17.344   9.521  70.422  1.00 45.50 LIG 0.01  C 
ENDBRANCH 34 35
ENDBRANCH 33 34
BRANCH 33 38
ATOM     38  N   LEU D  10      14.965   6.640  69.258  1.00 47.82 LIG-0.35  N 
ATOM     39 H    LEU D  10      14.731   7.023  69.992  1.00 47.82 LIG 0.16  HD
ATOM     40  C   ASP D   9      14.654   5.392  68.929  1.00 48.63 LIG 0.26  C 
ATOM     41 O    ASP D   9      15.012   4.861  67.880  1.00 48.10 LIG-0.27  OA
BRANCH 40 42
ATOM     42  CA  ASP D   9      13.829   4.631  69.934  1.00 49.27 LIG 0.41  C 
ATOM     43  N   ASP D   9      12.610   5.432  70.214  1.00 49.86 LIG 0.61  N 
BRANCH 42 44
ATOM     44  CB  ASP D   9      13.458   3.279  69.341  1.00 50.02 LIG 0.16  C 
BRANCH 44 45
ATOM     45  CG  ASP D   9      12.033   3.222  68.875  1.00 50.84 LIG 0.17  C 
ATOM     46 OD1  ASP D   9      11.812   2.969  67.678  1.00 53.44 LIG-0.65  OA
ATOM     47 OD2  ASP D   9      11.058   3.393  69.641  1.00 53.75 LIG-0.65  OA
ENDBRANCH 44 45
ENDBRANCH 42 44
ENDBRANCH 40 42
ENDBRANCH 33 38
ENDBRANCH 30 33
ENDBRANCH 1 29
TORSDOF 19
ENDMDL
MODEL 5
USER: ADFR SOLUTION from run 142
USER: SCORE 16.769913 LL:  -4.124 LR: -13.068 RR:   0.000 FEB:  -7.400
USER: RMSD 5.363524
USER: SEED 141
USER: STATUS no improvement in best in 6 clusters for 5 generations
USER: GENES 21
USER: genes 0 Translation |==|  0.52480 0.48276 0.67208
USER: genes 1 Rotation |==|  0.27310 0.32778 0.20158 0.78249
USER: genes 2 Torsion [N]-CA--C-[N] |==|  0.32778
USER: genes 3 Torsion [C]-N--CA-[C] |==|  0.69372
USER: genes 4 Torsion [N]-CA--C-[N] |==|  0.45446
USER: genes 5 Torsion [C]-N--CA-[CB] |==|  0.17054
USER: genes 6 Torsion [N]-CA--CB-[CG1] |==|  0.68102
USER: genes 7 Torsion [CA]-CB--CG1-[CD1] |==|  0.30977
USER: genes 8 Torsion [N]-CA--C-[OXT] |==|  0.90893
USER: genes 9 Torsion [N]-CA--CB-[CG] |==|  0.30079
USER: genes 10 Torsion [CA]-CB--CG-[CD2] |==|  0.77036
USER: genes 11 Torsion [C]-CA--CB-[CG] |==|  0.28060
USER: genes 12 Torsion [CA]-CB--CG-[CD1] |==|  0.50666
USER: genes 13 Torsion [C]-CA--N-[C] |==|  0.80203
USER: genes 14 Torsion [N]-C--CA-[N] |==|  0.42522
USER: genes 15 Torsion [C]-CA--CB-[CG] |==|  0.23901
USER: genes 16 Torsion [CA]-CB--CG-[CD2] |==|  0.06612
USER: genes 17 Torsion [C]-CA--N-[C] |==|  0.60041
USER: genes 18 Torsion [N]-C--CA-[N] |==|  0.23647
USER: genes 19 Torsion [C]-CA--CB-[CG] |==|  0.26724
USER: genes 20 Torsion [CA]-CB--CG-[OD1] |==|  0.72437
ROOT
ATOM      1  CA  LEU D  11      19.266   6.706  66.763  1.00 47.89 LIG 0.18  C 
ENDROOT
BRANCH 1 2
ATOM      2  C   LEU D  11      18.996   6.773  65.265  1.00 48.14 LIG 0.24  C 
ATOM      3 O    LEU D  11      18.037   7.393  64.826  1.00 47.13 LIG-0.27  OA
ATOM      4  N   HIS D  12      19.832   6.095  64.487  1.00 49.28 LIG-0.35  N 
ATOM      5 H    HIS D  12      20.518   5.661  64.773  1.00 49.28 LIG 0.16  HD
BRANCH 4 6
ATOM      6  CA  HIS D  12      19.630   6.044  63.043  1.00 50.49 LIG 0.18  C 
BRANCH 6 7
ATOM      7  C   HIS D  12      19.201   4.653  62.580  1.00 51.38 LIG 0.24  C 
ATOM      8  N   ILE D  13      18.679   4.616  61.365  1.00 53.16 LIG-0.34  N 
ATOM      9 H    ILE D  13      18.570   5.333  60.903  1.00 53.16 LIG 0.16  HD
ATOM     10 O    HIS D  12      19.351   3.672  63.294  1.00 51.57 LIG-0.27  OA
BRANCH 8 11
ATOM     11  CA  ILE D  13      18.223   3.418  60.640  1.00 55.12 LIG 0.19  C 
BRANCH 11 12
ATOM     12  CB  ILE D  13      17.052   2.651  61.357  1.00 55.01 LIG 0.01  C 
ATOM     13  CG2 ILE D  13      15.788   2.545  60.485  1.00 56.15 LIG 0.01  C 
BRANCH 12 14
ATOM     14  CG1 ILE D  13      17.526   1.263  61.798  1.00 55.50 LIG 0.00  C 
ATOM     15  CD1 ILE D  13      17.636   1.085  63.337  1.00 55.45 LIG 0.01  C 
ENDBRANCH 12 14
ENDBRANCH 11 12
BRANCH 11 16
ATOM     16  C   ILE D  13      18.032   3.501  59.123  1.00 55.63 LIG 0.20  C 
ATOM     17 O    ILE D  13      18.266   2.533  58.396  1.00 56.94 LIG-0.65  OA
ATOM     18 OXT  ILE D  13      17.658   4.582  58.646  1.00 55.86 LIG-0.65  OA
ENDBRANCH 11 16
ENDBRANCH 8 11
ENDBRANCH 6 7
BRANCH 6 19
ATOM     19  CB  HIS D  12      20.887   6.485  62.291  1.00 50.55 LIG 0.10  C 
BRANCH 19 20
ATOM     20  CG  HIS D  12      21.604   5.366  61.605  1.00 49.61 LIG 0.06  A 
ATOM     21  CD2 HIS D  12      22.495   4.458  62.070  1.00 48.49 LIG 0.14  A 
ATOM     22 NE2  HIS D  12      22.836   3.650  61.014  1.00 48.62 LIG-0.25  NA
ATOM     23  CE1 HIS D  12      22.162   4.031  59.945  1.00 49.12 LIG 0.23  A 
ATOM     24 ND1  HIS D  12      21.414   5.068  60.273  1.00 49.92 LIG-0.24  NA
ENDBRANCH 19 20
ENDBRANCH 6 19
ENDBRANCH 4 6
ENDBRANCH 1 2
BRANCH 1 25
ATOM     25  CB  LEU D  11      18.029   6.116  67.432  1.00 47.69 LIG 0.04  C 
BRANCH 25 26
ATOM     26  CG  LEU D  11      18.034   4.638  67.845  1.00 48.05 LIG-0.02  C 
ATOM     27  CD1 LEU D  11      16.684   4.256  68.435  1.00 46.53 LIG 0.01  C 
ATOM     28  CD2 LEU D  11      18.407   3.716  66.709  1.00 50.43 LIG 0.01  C 
ENDBRANCH 25 26
ENDBRANCH 1 25
BRANCH 1 29
ATOM     29  N   LEU D  11      19.568   8.000  67.356  1.00 47.51 LIG-0.35  N 
ATOM     30  C   LEU D  10      20.713   8.647  67.136  1.00 47.80 LIG 0.24  C 
ATOM     31 O    LEU D  10      21.589   8.251  66.354  1.00 47.07 LIG-0.27  OA
ATOM     32 H    LEU D  11      18.941   8.307  67.859  1.00 47.51 LIG 0.16  HD
BRANCH 30 33
ATOM     33  CA  LEU D  10      20.901   9.936  67.927  1.00 47.63 LIG 0.18  C 
BRANCH 33 34
ATOM     34  CB  LEU D  10      20.191  11.105  67.252  1.00 47.29 LIG 0.04  C 
BRANCH 34 35
ATOM     35  CG  LEU D  10      18.714  11.242  67.638  1.00 46.92 LIG-0.02  C 
ATOM     36  CD1 LEU D  10      17.788  10.637  66.585  1.00 46.83 LIG 0.01  C 
ATOM     37  CD2 LEU D  10      18.439  10.608  68.961  1.00 45.50 LIG 0.01  C 
ENDBRANCH 34 35
ENDBRANCH 33 34
BRANCH 33 38
ATOM     38  N   LEU D  10      22.317  10.199  68.117  1.00 47.82 LIG-0.35  N 
ATOM     39 H    LEU D  10      22.819   9.979  67.454  1.00 47.82 LIG 0.16  HD
ATOM     40  C   ASP D   9      22.758  10.740  69.246  1.00 48.63 LIG 0.26  C 
ATOM     41 O    ASP D   9      22.022  11.032  70.186  1.00 48.10 LIG-0.27  OA
BRANCH 40 42
ATOM     42  CA  ASP D   9      24.243  10.974  69.330  1.00 49.27 LIG 0.41  C 
ATOM     43  N   ASP D   9      24.528  12.287  68.695  1.00 49.86 LIG 0.61  N 
BRANCH 42 44
ATOM     44  CB  ASP D   9      24.657  10.986  70.795  1.00 50.02 LIG 0.16  C 
BRANCH 44 45
ATOM     45  CG  ASP D   9      25.173   9.657  71.261  1.00 50.84 LIG 0.17  C 
ATOM     46 OD1  ASP D   9      24.403   8.911  71.890  1.00 53.44 LIG-0.65  OA
ATOM     47 OD2  ASP D   9      26.335   9.256  71.023  1.00 53.75 LIG-0.65  OA
ENDBRANCH 44 45
ENDBRANCH 42 44
ENDBRANCH 40 42
ENDBRANCH 33 38
ENDBRANCH 30 33
ENDBRANCH 1 29
TORSDOF 19
ENDMDL
MODEL 6
USER: ADFR SOLUTION from run 154
USER: SCORE 17.039148 LL:  -4.686 LR: -13.062 RR:   0.000 FEB:  -7.394
USER: RMSD 11.183707
USER: SEED 153
USER: STATUS no improvement in best in 3 clusters for 5 generations
USER: GENES 21
USER: genes 0 Translation |==|  0.52463 0.49681 0.70065
USER: genes 1 Rotation |==|  0.67106 0.20451 0.19751 0.70475
USER: genes 2 Torsion [N]-CA--C-[N] |==|  0.06110
USER: genes 3 Torsion [C]-N--CA-[C] |==|  0.72915
USER: genes 4 Torsion [N]-CA--C-[N] |==|  0.30993
USER: genes 5 Torsion [C]-N--CA-[CB] |==|  0.74352
USER: genes 6 Torsion [N]-CA--CB-[CG1] |==|  0.80007
USER: genes 7 Torsion [CA]-CB--CG1-[CD1] |==|  0.38537
USER: genes 8 Torsion [N]-CA--C-[OXT] |==|  0.27156
USER: genes 9 Torsion [N]-CA--CB-[CG] |==|  0.41958
USER: genes 10 Torsion [CA]-CB--CG-[CD2] |==|  0.68720
USER: genes 11 Torsion [C]-CA--CB-[CG] |==|  0.37961
USER: genes 12 Torsion [CA]-CB--CG-[CD1] |==|  0.84439
USER: genes 13 Torsion [C]-CA--N-[C] |==|  0.60696
USER: genes 14 Torsion [N]-C--CA-[N] |==|  0.46658
USER: genes 15 Torsion [C]-CA--CB-[CG] |==|  0.99368
USER: genes 16 Torsion [CA]-CB--CG-[CD2] |==|  0.71234
USER: genes 17 Torsion [C]-CA--N-[C] |==|  0.62220
USER: genes 18 Torsion [N]-C--CA-[N] |==|  0.41676
USER: genes 19 Torsion [C]-CA--CB-[CG] |==|  0.66650
USER: genes 20 Torsion [CA]-CB--CG-[OD1] |==|  0.35941
ROOT
ATOM      1  CA  LEU D  11      19.262   6.969  67.406  1.00 47.89 LIG 0.18  C 
ENDROOT
BRANCH 1 2
ATOM      2  C   LEU D  11      20.320   8.034  67.150  1.00 48.14 LIG 0.24  C 
ATOM      3 O    LEU D  11      21.389   7.747  66.628  1.00 47.13 LIG-0.27  OA
ATOM      4  N   HIS D  12      20.027   9.263  67.560  1.00 49.28 LIG-0.35  N 
ATOM      5 H    HIS D  12      19.280   9.490  67.920  1.00 49.28 LIG 0.16  HD
BRANCH 4 6
ATOM      6  CA  HIS D  12      20.994  10.346  67.418  1.00 50.49 LIG 0.18  C 
BRANCH 6 7
ATOM      7  C   HIS D  12      21.771  10.586  68.711  1.00 51.38 LIG 0.24  C 
ATOM      8  N   ILE D  13      23.053  10.262  68.649  1.00 53.16 LIG-0.34  N 
ATOM      9 H    ILE D  13      23.393   9.917  67.939  1.00 53.16 LIG 0.16  HD
ATOM     10 O    HIS D  12      21.227  11.049  69.702  1.00 51.57 LIG-0.27  OA
BRANCH 8 11
ATOM     11  CA  ILE D  13      24.053  10.425  69.717  1.00 55.12 LIG 0.19  C 
BRANCH 11 12
ATOM     12  CB  ILE D  13      24.834  11.788  69.651  1.00 55.01 LIG 0.01  C 
ATOM     13  CG2 ILE D  13      25.570  12.118  70.963  1.00 56.15 LIG 0.01  C 
BRANCH 12 14
ATOM     14  CG1 ILE D  13      25.809  11.778  68.469  1.00 55.50 LIG 0.00  C 
ATOM     15  CD1 ILE D  13      25.865  13.113  67.677  1.00 55.45 LIG 0.01  C 
ENDBRANCH 12 14
ENDBRANCH 11 12
BRANCH 11 16
ATOM     16  C   ILE D  13      23.678  10.029  71.148  1.00 55.63 LIG 0.20  C 
ATOM     17 O    ILE D  13      23.067  10.805  71.886  1.00 56.94 LIG-0.65  OA
ATOM     18 OXT  ILE D  13      24.033   8.912  71.549  1.00 55.86 LIG-0.65  OA
ENDBRANCH 11 16
ENDBRANCH 8 11
ENDBRANCH 6 7
BRANCH 6 19
ATOM     19  CB  HIS D  12      20.315  11.641  66.965  1.00 50.55 LIG 0.10  C 
BRANCH 19 20
ATOM     20  CG  HIS D  12      21.008  12.881  67.432  1.00 49.61 LIG 0.06  A 
ATOM     21  CD2 HIS D  12      20.629  13.839  68.310  1.00 48.49 LIG 0.14  A 
ATOM     22 NE2  HIS D  12      21.649  14.756  68.373  1.00 48.62 LIG-0.25  NA
ATOM     23  CE1 HIS D  12      22.630  14.363  67.582  1.00 49.12 LIG 0.23  A 
ATOM     24 ND1  HIS D  12      22.267  13.236  66.998  1.00 49.92 LIG-0.24  NA
ENDBRANCH 19 20
ENDBRANCH 6 19
ENDBRANCH 4 6
ENDBRANCH 1 2
BRANCH 1 25
ATOM     25  CB  LEU D  11      19.266   6.014  66.217  1.00 47.69 LIG 0.04  C 
BRANCH 25 26
ATOM     26  CG  LEU D  11      19.185   4.504  66.469  1.00 48.05 LIG-0.02  C 
ATOM     27  CD1 LEU D  11      20.314   4.066  67.391  1.00 46.53 LIG 0.01  C 
ATOM     28  CD2 LEU D  11      17.845   4.074  67.016  1.00 50.43 LIG 0.01  C 
ENDBRANCH 25 26
ENDBRANCH 1 25
BRANCH 1 29
ATOM     29  N   LEU D  11      17.925   7.513  67.587  1.00 47.51 LIG-0.35  N 
ATOM     30  C   LEU D  10      17.059   7.025  68.476  1.00 47.80 LIG 0.24  C 
ATOM     31 O    LEU D  10      17.333   6.121  69.279  1.00 47.07 LIG-0.27  OA
ATOM     32 H    LEU D  11      17.746   8.176  67.069  1.00 47.51 LIG 0.16  HD
BRANCH 30 33
ATOM     33  CA  LEU D  10      15.669   7.648  68.450  1.00 47.63 LIG 0.18  C 
BRANCH 33 34
ATOM     34  CB  LEU D  10      15.708   9.103  68.908  1.00 47.29 LIG 0.04  C 
BRANCH 34 35
ATOM     35  CG  LEU D  10      17.100   9.582  69.336  1.00 46.92 LIG-0.02  C 
ATOM     36  CD1 LEU D  10      17.446  10.943  68.734  1.00 46.83 LIG 0.01  C 
ATOM     37  CD2 LEU D  10      17.216   9.654  70.822  1.00 45.50 LIG 0.01  C 
ENDBRANCH 34 35
ENDBRANCH 33 34
BRANCH 33 38
ATOM     38  N   LEU D  10      14.754   6.852  69.251  1.00 47.82 LIG-0.35  N 
ATOM     39 H    LEU D  10      15.067   6.594  70.009  1.00 47.82 LIG 0.16  HD
ATOM     40  C   ASP D   9      13.537   6.570  68.804  1.00 48.63 LIG 0.26  C 
ATOM     41 O    ASP D   9      13.118   6.938  67.709  1.00 48.10 LIG-0.27  OA
BRANCH 40 42
ATOM     42  CA  ASP D   9      12.672   5.745  69.720  1.00 49.27 LIG 0.41  C 
ATOM     43  N   ASP D   9      11.258   6.127  69.469  1.00 49.86 LIG 0.61  N 
BRANCH 42 44
ATOM     44  CB  ASP D   9      12.892   4.271  69.409  1.00 50.02 LIG 0.16  C 
BRANCH 44 45
ATOM     45  CG  ASP D   9      11.634   3.575  68.980  1.00 50.84 LIG 0.17  C 
ATOM     46 OD1  ASP D   9      11.657   2.903  67.936  1.00 53.44 LIG-0.65  OA
ATOM     47 OD2  ASP D   9      10.572   3.621  69.641  1.00 53.75 LIG-0.65  OA
ENDBRANCH 44 45
ENDBRANCH 42 44
ENDBRANCH 40 42
ENDBRANCH 33 38
ENDBRANCH 30 33
ENDBRANCH 1 29
TORSDOF 19
ENDMDL
MODEL 7
USER: ADFR SOLUTION from run 103
USER: SCORE 15.772174 LL:  -4.139 LR: -13.036 RR:   0.000 FEB:  -7.368
USER: RMSD 5.282319
USER: SEED 102
USER: STATUS no improvement in best in 30 clusters for 5 generations
USER: GENES 21
USER: genes 0 Translation |==|  0.55769 0.45128 0.57026
USER: genes 1 Rotation |==|  0.25992 0.29949 0.19370 0.74153
USER: genes 2 Torsion [N]-CA--C-[N] |==|  0.45076
USER: genes 3 Torsion [C]-N--CA-[C] |==|  0.62976
USER: genes 4 Torsion [N]-CA--C-[N] |==|  0.10897
USER: genes 5 Torsion [C]-N--CA-[CB] |==|  0.28167
USER: genes 6 Torsion [N]-CA--CB-[CG1] |==|  0.96110
USER: genes 7 Torsion [CA]-CB--CG1-[CD1] |==|  0.38010
USER: genes 8 Torsion [N]-CA--C-[OXT] |==|  0.62895
USER: genes 9 Torsion [N]-CA--CB-[CG] |==|  0.86311
USER: genes 10 Torsion [CA]-CB--CG-[CD2] |==|  0.32223
USER: genes 11 Torsion [C]-CA--CB-[CG] |==|  0.43126
USER: genes 12 Torsion [CA]-CB--CG-[CD1] |==|  0.37399
USER: genes 13 Torsion [C]-CA--N-[C] |==|  0.53509
USER: genes 14 Torsion [N]-C--CA-[N] |==|  0.65914
USER: genes 15 Torsion [C]-CA--CB-[CG] |==|  0.26418
USER: genes 16 Torsion [CA]-CB--CG-[CD2] |==|  0.08434
USER: genes 17 Torsion [C]-CA--N-[C] |==|  0.62152
USER: genes 18 Torsion [N]-C--CA-[N] |==|  0.23262
USER: genes 19 Torsion [C]-CA--CB-[CG] |==|  0.34127
USER: genes 20 Torsion [CA]-CB--CG-[OD1] |==|  0.67443
ROOT
ATOM      1  CA  LEU D  11      19.907   6.115  64.472  1.00 47.89 LIG 0.18  C 
ENDROOT
BRANCH 1 2
ATOM      2  C   LEU D  11      19.790   5.956  62.962  1.00 48.14 LIG 0.24  C 
ATOM      3 O    LEU D  11      19.632   6.929  62.236  1.00 47.13 LIG-0.27  OA
ATOM      4  N   HIS D  12      19.829   4.712  62.498  1.00 49.28 LIG-0.35  N 
ATOM      5 H    HIS D  12      19.948   4.015  62.987  1.00 49.28 LIG 0.16  HD
BRANCH 4 6
ATOM      6  CA  HIS D  12      19.665   4.442  61.073  1.00 50.49 LIG 0.18  C 
BRANCH 6 7
ATOM      7  C   HIS D  12      18.679   3.304  60.821  1.00 51.38 LIG 0.24  C 
ATOM      8  N   ILE D  13      17.624   3.304  61.620  1.00 53.16 LIG-0.34  N 
ATOM      9 H    ILE D  13      17.536   3.889  62.244  1.00 53.16 LIG 0.16  HD
ATOM     10 O    HIS D  12      18.872   2.480  59.939  1.00 51.57 LIG-0.27  OA
BRANCH 8 11
ATOM     11  CA  ILE D  13      16.491   2.364  61.581  1.00 55.12 LIG 0.19  C 
BRANCH 11 12
ATOM     12  CB  ILE D  13      16.562   1.241  62.678  1.00 55.01 LIG 0.01  C 
ATOM     13  CG2 ILE D  13      16.157  -0.144  62.141  1.00 56.15 LIG 0.01  C 
BRANCH 12 14
ATOM     14  CG1 ILE D  13      17.963   1.196  63.295  1.00 55.50 LIG 0.00  C 
ATOM     15  CD1 ILE D  13      17.977   1.043  64.840  1.00 55.45 LIG 0.01  C 
ENDBRANCH 12 14
ENDBRANCH 11 12
BRANCH 11 16
ATOM     16  C   ILE D  13      15.076   2.920  61.395  1.00 55.63 LIG 0.20  C 
ATOM     17 O    ILE D  13      14.836   3.786  60.551  1.00 56.94 LIG-0.65  OA
ATOM     18 OXT  ILE D  13      14.185   2.490  62.141  1.00 55.86 LIG-0.65  OA
ENDBRANCH 11 16
ENDBRANCH 8 11
ENDBRANCH 6 7
BRANCH 6 19
ATOM     19  CB  HIS D  12      21.009   4.132  60.410  1.00 50.55 LIG 0.10  C 
BRANCH 19 20
ATOM     20  CG  HIS D  12      22.082   5.124  60.727  1.00 49.61 LIG 0.06  A 
ATOM     21  CD2 HIS D  12      23.254   4.990  61.391  1.00 48.49 LIG 0.14  A 
ATOM     22 NE2  HIS D  12      23.862   6.221  61.391  1.00 48.62 LIG-0.25  NA
ATOM     23  CE1 HIS D  12      23.103   7.075  60.730  1.00 49.12 LIG 0.23  A 
ATOM     24 ND1  HIS D  12      22.020   6.440  60.322  1.00 49.92 LIG-0.24  NA
ENDBRANCH 19 20
ENDBRANCH 6 19
ENDBRANCH 4 6
ENDBRANCH 1 2
BRANCH 1 25
ATOM     25  CB  LEU D  11      18.564   5.736  65.085  1.00 47.69 LIG 0.04  C 
BRANCH 25 26
ATOM     26  CG  LEU D  11      18.515   5.248  66.539  1.00 48.05 LIG-0.02  C 
ATOM     27  CD1 LEU D  11      17.377   5.932  67.282  1.00 46.53 LIG 0.01  C 
ATOM     28  CD2 LEU D  11      18.405   3.746  66.647  1.00 50.43 LIG 0.01  C 
ENDBRANCH 25 26
ENDBRANCH 1 25
BRANCH 1 29
ATOM     29  N   LEU D  11      20.266   7.464  64.885  1.00 47.51 LIG-0.35  N 
ATOM     30  C   LEU D  10      20.657   7.760  66.126  1.00 47.80 LIG 0.24  C 
ATOM     31 O    LEU D  10      20.825   6.915  67.016  1.00 47.07 LIG-0.27  OA
ATOM     32 H    LEU D  11      20.203   8.049  64.258  1.00 47.51 LIG 0.16  HD
BRANCH 30 33
ATOM     33  CA  LEU D  10      20.887   9.240  66.406  1.00 47.63 LIG 0.18  C 
BRANCH 33 34
ATOM     34  CB  LEU D  10      20.569  10.089  65.179  1.00 47.29 LIG 0.04  C 
BRANCH 34 35
ATOM     35  CG  LEU D  10      19.147  10.662  65.171  1.00 46.92 LIG-0.02  C 
ATOM     36  CD1 LEU D  10      18.166   9.749  64.438  1.00 46.83 LIG 0.01  C 
ATOM     37  CD2 LEU D  10      18.654  10.906  66.558  1.00 45.50 LIG 0.01  C 
ENDBRANCH 34 35
ENDBRANCH 33 34
BRANCH 33 38
ATOM     38  N   LEU D  10      22.246   9.451  66.873  1.00 47.82 LIG-0.35  N 
ATOM     39 H    LEU D  10      22.851   9.022  66.436  1.00 47.82 LIG 0.16  HD
ATOM     40  C   ASP D   9      22.490  10.255  67.901  1.00 48.63 LIG 0.26  C 
ATOM     41 O    ASP D   9      21.608  10.846  68.519  1.00 48.10 LIG-0.27  OA
BRANCH 40 42
ATOM     42  CA  ASP D   9      23.936  10.404  68.294  1.00 49.27 LIG 0.41  C 
ATOM     43  N   ASP D   9      24.536  11.442  67.415  1.00 49.86 LIG 0.61  N 
BRANCH 42 44
ATOM     44  CB  ASP D   9      24.007  10.830  69.753  1.00 50.02 LIG 0.16  C 
BRANCH 44 45
ATOM     45  CG  ASP D   9      24.812   9.883  70.594  1.00 50.84 LIG 0.17  C 
ATOM     46 OD1  ASP D   9      24.238   9.279  71.517  1.00 53.44 LIG-0.65  OA
ATOM     47 OD2  ASP D   9      26.025   9.654  70.391  1.00 53.75 LIG-0.65  OA
ENDBRANCH 44 45
ENDBRANCH 42 44
ENDBRANCH 40 42
ENDBRANCH 33 38
ENDBRANCH 30 33
ENDBRANCH 1 29
TORSDOF 19
ENDMDL
MODEL 8
USER: ADFR SOLUTION from run 1
USER: SCORE 16.319111 LL:  -4.159 LR: -13.018 RR:   0.000 FEB:  -7.351
USER: RMSD 6.985071
USER: SEED 326201
USER: STATUS no improvement in best in 14 clusters for 5 generations
USER: GENES 21
USER: genes 0 Translation |==|  0.51581 0.35797 0.59751
USER: genes 1 Rotation |==|  0.48040 0.24860 0.23010 0.83700
USER: genes 2 Torsion [N]-CA--C-[N] |==|  0.46272
USER: genes 3 Torsion [C]-N--CA-[C] |==|  0.74644
USER: genes 4 Torsion [N]-CA--C-[N] |==|  0.25895
USER: genes 5 Torsion [C]-N--CA-[CB] |==|  0.25803
USER: genes 6 Torsion [N]-CA--CB-[CG1] |==|  0.70293
USER: genes 7 Torsion [CA]-CB--CG1-[CD1] |==|  0.72300
USER: genes 8 Torsion [N]-CA--C-[OXT] |==|  0.44449
USER: genes 9 Torsion [N]-CA--CB-[CG] |==|  0.61893
USER: genes 10 Torsion [CA]-CB--CG-[CD2] |==|  0.28649
USER: genes 11 Torsion [C]-CA--CB-[CG] |==|  0.01760
USER: genes 12 Torsion [CA]-CB--CG-[CD1] |==|  0.45051
USER: genes 13 Torsion [C]-CA--N-[C] |==|  0.50556
USER: genes 14 Torsion [N]-C--CA-[N] |==|  0.41198
USER: genes 15 Torsion [C]-CA--CB-[CG] |==|  0.22629
USER: genes 16 Torsion [CA]-CB--CG-[CD2] |==|  0.06834
USER: genes 17 Torsion [C]-CA--N-[C] |==|  0.58523
USER: genes 18 Torsion [N]-C--CA-[N] |==|  0.46138
USER: genes 19 Torsion [C]-CA--CB-[CG] |==|  0.69152
USER: genes 20 Torsion [CA]-CB--CG-[OD1] |==|  0.35578
ROOT
ATOM      1  CA  LEU D  11      19.090   4.366  65.085  1.00 47.89 LIG 0.18  C 
ENDROOT
BRANCH 1 2
ATOM      2  C   LEU D  11      19.444   5.001  63.746  1.00 48.14 LIG 0.24  C 
ATOM      3 O    LEU D  11      18.808   5.953  63.314  1.00 47.13 LIG-0.27  OA
ATOM      4  N   HIS D  12      20.441   4.437  63.074  1.00 49.28 LIG-0.35  N 
ATOM      5 H    HIS D  12      20.907   3.774  63.362  1.00 49.28 LIG 0.16  HD
BRANCH 4 6
ATOM      6  CA  HIS D  12      20.821   4.929  61.754  1.00 50.49 LIG 0.18  C 
BRANCH 6 7
ATOM      7  C   HIS D  12      20.078   4.196  60.640  1.00 51.38 LIG 0.24  C 
ATOM      8  N   ILE D  13      18.962   4.786  60.243  1.00 53.16 LIG-0.34  N 
ATOM      9 H    ILE D  13      18.681   5.508  60.617  1.00 53.16 LIG 0.16  HD
ATOM     10 O    HIS D  12      20.509   3.155  60.167  1.00 51.57 LIG-0.27  OA
BRANCH 8 11
ATOM     11  CA  ILE D  13      18.067   4.340  59.162  1.00 55.12 LIG 0.19  C 
BRANCH 11 12
ATOM     12  CB  ILE D  13      16.889   3.423  59.653  1.00 55.01 LIG 0.01  C 
ATOM     13  CG2 ILE D  13      15.513   3.904  59.158  1.00 56.15 LIG 0.01  C 
BRANCH 12 14
ATOM     14  CG1 ILE D  13      17.142   1.972  59.231  1.00 55.50 LIG 0.00  C 
ATOM     15  CD1 ILE D  13      16.364   1.531  57.962  1.00 55.45 LIG 0.01  C 
ENDBRANCH 12 14
ENDBRANCH 11 12
BRANCH 11 16
ATOM     16  C   ILE D  13      17.623   5.355  58.105  1.00 55.63 LIG 0.20  C 
ATOM     17 O    ILE D  13      17.657   6.568  58.329  1.00 56.94 LIG-0.65  OA
ATOM     18 OXT  ILE D  13      17.203   4.917  57.025  1.00 55.86 LIG-0.65  OA
ENDBRANCH 11 16
ENDBRANCH 8 11
ENDBRANCH 6 7
BRANCH 6 19
ATOM     19  CB  HIS D  12      22.332   4.823  61.537  1.00 50.55 LIG 0.10  C 
BRANCH 19 20
ATOM     20  CG  HIS D  12      22.934   6.026  60.883  1.00 49.61 LIG 0.06  A 
ATOM     21  CD2 HIS D  12      23.658   7.051  61.391  1.00 48.49 LIG 0.14  A 
ATOM     22 NE2  HIS D  12      23.964   7.886  60.346  1.00 48.62 LIG-0.25  NA
ATOM     23  CE1 HIS D  12      23.468   7.382  59.232  1.00 49.12 LIG 0.23  A 
ATOM     24 ND1  HIS D  12      22.837   6.261  59.528  1.00 49.92 LIG-0.24  NA
ENDBRANCH 19 20
ENDBRANCH 6 19
ENDBRANCH 4 6
ENDBRANCH 1 2
BRANCH 1 25
ATOM     25  CB  LEU D  11      18.407   3.033  64.802  1.00 47.69 LIG 0.04  C 
BRANCH 25 26
ATOM     26  CG  LEU D  11      18.335   2.519  63.358  1.00 48.05 LIG-0.02  C 
ATOM     27  CD1 LEU D  11      18.029   1.029  63.348  1.00 46.53 LIG 0.01  C 
ATOM     28  CD2 LEU D  11      17.339   3.281  62.516  1.00 50.43 LIG 0.01  C 
ENDBRANCH 25 26
ENDBRANCH 1 25
BRANCH 1 29
ATOM     29  N   LEU D  11      18.219   5.193  65.906  1.00 47.51 LIG-0.35  N 
ATOM     30  C   LEU D  10      17.825   4.837  67.130  1.00 47.80 LIG 0.24  C 
ATOM     31 O    LEU D  10      18.219   3.816  67.710  1.00 47.07 LIG-0.27  OA
ATOM     32 H    LEU D  11      17.983   5.930  65.530  1.00 47.51 LIG 0.16  HD
BRANCH 30 33
ATOM     33  CA  LEU D  10      16.827   5.775  67.797  1.00 47.63 LIG 0.18  C 
BRANCH 33 34
ATOM     34  CB  LEU D  10      17.540   6.897  68.545  1.00 47.29 LIG 0.04  C 
BRANCH 34 35
ATOM     35  CG  LEU D  10      17.984   8.058  67.647  1.00 46.92 LIG-0.02  C 
ATOM     36  CD1 LEU D  10      19.456   7.948  67.255  1.00 46.83 LIG 0.01  C 
ATOM     37  CD2 LEU D  10      17.149   8.138  66.413  1.00 45.50 LIG 0.01  C 
ENDBRANCH 34 35
ENDBRANCH 33 34
BRANCH 33 38
ATOM     38  N   LEU D  10      15.943   5.019  68.668  1.00 47.82 LIG-0.35  N 
ATOM     39 H    LEU D  10      16.295   4.319  69.022  1.00 47.82 LIG 0.16  HD
ATOM     40  C   ASP D   9      14.694   5.419  68.874  1.00 48.63 LIG 0.26  C 
ATOM     41 O    ASP D   9      14.209   6.417  68.345  1.00 48.10 LIG-0.27  OA
BRANCH 40 42
ATOM     42  CA  ASP D   9      13.871   4.564  69.801  1.00 49.27 LIG 0.41  C 
ATOM     43  N   ASP D   9      12.656   5.337  70.166  1.00 49.86 LIG 0.61  N 
BRANCH 42 44
ATOM     44  CB  ASP D   9      13.492   3.279  69.078  1.00 50.02 LIG 0.16  C 
BRANCH 44 45
ATOM     45  CG  ASP D   9      12.026   3.199  68.771  1.00 50.84 LIG 0.17  C 
ATOM     46 OD1  ASP D   9      11.680   2.951  67.603  1.00 53.44 LIG-0.65  OA
ATOM     47 OD2  ASP D   9      11.139   3.344  69.641  1.00 53.75 LIG-0.65  OA
ENDBRANCH 44 45
ENDBRANCH 42 44
ENDBRANCH 40 42
ENDBRANCH 33 38
ENDBRANCH 30 33
ENDBRANCH 1 29
TORSDOF 19
ENDMDL
MODEL 9
USER: ADFR SOLUTION from run 116
USER: SCORE 16.159486 LL:  -4.190 LR: -12.962 RR:   0.000 FEB:  -7.295
USER: RMSD 6.727998
USER: SEED 115
USER: STATUS no improvement in best in 3 clusters for 5 generations
USER: GENES 21
USER: genes 0 Translation |==|  0.49466 0.28148 0.41456
USER: genes 1 Rotation |==|  0.20618 0.35831 0.24331 0.77875
USER: genes 2 Torsion [N]-CA--C-[N] |==|  0.52221
USER: genes 3 Torsion [C]-N--CA-[C] |==|  0.82793
USER: genes 4 Torsion [N]-CA--C-[N] |==|  0.36178
USER: genes 5 Torsion [C]-N--CA-[CB] |==|  0.24238
USER: genes 6 Torsion [N]-CA--CB-[CG1] |==|  0.18628
USER: genes 7 Torsion [CA]-CB--CG1-[CD1] |==|  0.74569
USER: genes 8 Torsion [N]-CA--C-[OXT] |==|  0.53200
USER: genes 9 Torsion [N]-CA--CB-[CG] |==|  0.53114
USER: genes 10 Torsion [CA]-CB--CG-[CD2] |==|  0.07843
USER: genes 11 Torsion [C]-CA--CB-[CG] |==|  0.26070
USER: genes 12 Torsion [CA]-CB--CG-[CD1] |==|  0.32943
USER: genes 13 Torsion [C]-CA--N-[C] |==|  0.76965
USER: genes 14 Torsion [N]-C--CA-[N] |==|  0.57216
USER: genes 15 Torsion [C]-CA--CB-[CG] |==|  0.26638
USER: genes 16 Torsion [CA]-CB--CG-[CD2] |==|  0.98827
USER: genes 17 Torsion [C]-CA--N-[C] |==|  0.64654
USER: genes 18 Torsion [N]-C--CA-[N] |==|  0.05910
USER: genes 19 Torsion [C]-CA--CB-[CG] |==|  0.33737
USER: genes 20 Torsion [CA]-CB--CG-[OD1] |==|  0.21800
ROOT
ATOM      1  CA  LEU D  11      18.678   2.932  60.969  1.00 47.89 LIG 0.18  C 
ENDROOT
BRANCH 1 2
ATOM      2  C   LEU D  11      17.975   2.824  59.622  1.00 48.14 LIG 0.24  C 
ATOM      3 O    LEU D  11      17.977   3.761  58.834  1.00 47.13 LIG-0.27  OA
ATOM      4  N   HIS D  12      17.340   1.683  59.381  1.00 49.28 LIG-0.35  N 
ATOM      5 H    HIS D  12      17.333   1.009  59.914  1.00 49.28 LIG 0.16  HD
BRANCH 4 6
ATOM      6  CA  HIS D  12      16.584   1.498  58.146  1.00 50.49 LIG 0.18  C 
BRANCH 6 7
ATOM      7  C   HIS D  12      15.433   2.494  58.031  1.00 51.38 LIG 0.24  C 
ATOM      8  N   ILE D  13      15.375   3.136  56.875  1.00 53.16 LIG-0.34  N 
ATOM      9 H    ILE D  13      15.966   3.010  56.264  1.00 53.16 LIG 0.16  HD
ATOM     10 O    HIS D  12      14.639   2.657  58.947  1.00 51.57 LIG-0.27  OA
BRANCH 8 11
ATOM     11  CA  ILE D  13      14.355   4.114  56.462  1.00 55.12 LIG 0.19  C 
BRANCH 11 12
ATOM     12  CB  ILE D  13      14.679   5.589  56.895  1.00 55.01 LIG 0.01  C 
ATOM     13  CG2 ILE D  13      14.873   5.736  58.416  1.00 56.15 LIG 0.01  C 
BRANCH 12 14
ATOM     14  CG1 ILE D  13      15.910   6.100  56.140  1.00 55.50 LIG 0.00  C 
ATOM     15  CD1 ILE D  13      17.256   5.860  56.875  1.00 55.45 LIG 0.01  C 
ENDBRANCH 12 14
ENDBRANCH 11 12
BRANCH 11 16
ATOM     16  C   ILE D  13      13.780   4.028  55.045  1.00 55.63 LIG 0.20  C 
ATOM     17 O    ILE D  13      14.014   3.059  54.319  1.00 56.94 LIG-0.65  OA
ATOM     18 OXT  ILE D  13      13.093   4.977  54.643  1.00 55.86 LIG-0.65  OA
ENDBRANCH 11 16
ENDBRANCH 8 11
ENDBRANCH 6 7
BRANCH 6 19
ATOM     19  CB  HIS D  12      16.056   0.067  58.029  1.00 50.55 LIG 0.10  C 
BRANCH 19 20
ATOM     20  CG  HIS D  12      15.505  -0.264  56.678  1.00 49.61 LIG 0.06  A 
ATOM     21  CD2 HIS D  12      15.805   0.217  55.448  1.00 48.49 LIG 0.14  A 
ATOM     22 NE2  HIS D  12      15.000  -0.438  54.551  1.00 48.62 LIG-0.25  NA
ATOM     23  CE1 HIS D  12      14.251  -1.309  55.200  1.00 49.12 LIG 0.23  A 
ATOM     24 ND1  HIS D  12      14.533  -1.222  56.487  1.00 49.92 LIG-0.24  NA
ENDBRANCH 19 20
ENDBRANCH 6 19
ENDBRANCH 4 6
ENDBRANCH 1 2
BRANCH 1 25
ATOM     25  CB  LEU D  11      17.676   2.539  62.049  1.00 47.69 LIG 0.04  C 
BRANCH 25 26
ATOM     26  CG  LEU D  11      17.636   1.087  62.541  1.00 48.05 LIG-0.02  C 
ATOM     27  CD1 LEU D  11      17.963   1.028  64.026  1.00 46.53 LIG 0.01  C 
ATOM     28  CD2 LEU D  11      16.318   0.408  62.252  1.00 50.43 LIG 0.01  C 
ENDBRANCH 25 26
ENDBRANCH 1 25
BRANCH 1 29
ATOM     29  N   LEU D  11      19.195   4.263  61.247  1.00 47.51 LIG-0.35  N 
ATOM     30  C   LEU D  10      20.369   4.696  60.783  1.00 47.80 LIG 0.24  C 
ATOM     31 O    LEU D  10      21.089   4.042  60.015  1.00 47.07 LIG-0.27  OA
ATOM     32 H    LEU D  11      18.676   4.743  61.737  1.00 47.51 LIG 0.16  HD
BRANCH 30 33
ATOM     33  CA  LEU D  10      20.798   6.075  61.267  1.00 47.63 LIG 0.18  C 
BRANCH 33 34
ATOM     34  CB  LEU D  10      19.588   6.958  61.558  1.00 47.29 LIG 0.04  C 
BRANCH 34 35
ATOM     35  CG  LEU D  10      19.168   6.968  63.032  1.00 46.92 LIG-0.02  C 
ATOM     36  CD1 LEU D  10      17.689   6.630  63.207  1.00 46.83 LIG 0.01  C 
ATOM     37  CD2 LEU D  10      19.991   6.019  63.838  1.00 45.50 LIG 0.01  C 
ENDBRANCH 34 35
ENDBRANCH 33 34
BRANCH 33 38
ATOM     38  N   LEU D  10      21.692   6.684  60.297  1.00 47.82 LIG-0.35  N 
ATOM     39 H    LEU D  10      21.392   6.706  59.491  1.00 47.82 LIG 0.16  HD
ATOM     40  C   ASP D   9      22.874   7.157  60.673  1.00 48.63 LIG 0.26  C 
ATOM     41 O    ASP D   9      23.287   7.100  61.829  1.00 48.10 LIG-0.27  OA
BRANCH 40 42
ATOM     42  CA  ASP D   9      23.715   7.773  59.585  1.00 49.27 LIG 0.41  C 
ATOM     43  N   ASP D   9      22.804   8.154  58.475  1.00 49.86 LIG 0.61  N 
BRANCH 42 44
ATOM     44  CB  ASP D   9      24.422   8.999  60.145  1.00 50.02 LIG 0.16  C 
BRANCH 44 45
ATOM     45  CG  ASP D   9      25.915   8.904  60.041  1.00 50.84 LIG 0.17  C 
ATOM     46 OD1  ASP D   9      26.446   9.133  58.940  1.00 53.44 LIG-0.65  OA
ATOM     47 OD2  ASP D   9      26.651   8.631  61.016  1.00 53.75 LIG-0.65  OA
ENDBRANCH 44 45
ENDBRANCH 42 44
ENDBRANCH 40 42
ENDBRANCH 33 38
ENDBRANCH 30 33
ENDBRANCH 1 29
TORSDOF 19
ENDMDL
MODEL 10
USER: ADFR SOLUTION from run 125
USER: SCORE 17.134251 LL:  -4.697 LR: -12.865 RR:   0.000 FEB:  -7.198
USER: RMSD 6.198638
USER: SEED 124
USER: STATUS no improvement in best in 8 clusters for 5 generations
USER: GENES 21
USER: genes 0 Translation |==|  0.46054 0.22566 0.40330
USER: genes 1 Rotation |==|  0.21062 0.49854 0.36179 0.88361
USER: genes 2 Torsion [N]-CA--C-[N] |==|  0.95684
USER: genes 3 Torsion [C]-N--CA-[C] |==|  0.79444
USER: genes 4 Torsion [N]-CA--C-[N] |==|  0.22133
USER: genes 5 Torsion [C]-N--CA-[CB] |==|  0.43187
USER: genes 6 Torsion [N]-CA--CB-[CG1] |==|  0.37838
USER: genes 7 Torsion [CA]-CB--CG1-[CD1] |==|  0.41774
USER: genes 8 Torsion [N]-CA--C-[OXT] |==|  0.35746
USER: genes 9 Torsion [N]-CA--CB-[CG] |==|  0.72717
USER: genes 10 Torsion [CA]-CB--CG-[CD2] |==|  0.53252
USER: genes 11 Torsion [C]-CA--CB-[CG] |==|  0.85265
USER: genes 12 Torsion [CA]-CB--CG-[CD1] |==|  0.28005
USER: genes 13 Torsion [C]-CA--N-[C] |==|  0.82720
USER: genes 14 Torsion [N]-C--CA-[N] |==|  0.95288
USER: genes 15 Torsion [C]-CA--CB-[CG] |==|  0.80427
USER: genes 16 Torsion [CA]-CB--CG-[CD2] |==|  0.62233
USER: genes 17 Torsion [C]-CA--N-[C] |==|  0.79667
USER: genes 18 Torsion [N]-C--CA-[N] |==|  0.92933
USER: genes 19 Torsion [C]-CA--CB-[CG] |==|  0.65992
USER: genes 20 Torsion [CA]-CB--CG-[OD1] |==|  0.36589
ROOT
ATOM      1  CA  LEU D  11      18.013   1.885  60.715  1.00 47.89 LIG 0.18  C 
ENDROOT
BRANCH 1 2
ATOM      2  C   LEU D  11      16.588   2.018  60.193  1.00 48.14 LIG 0.24  C 
ATOM      3 O    LEU D  11      16.086   1.140  59.503  1.00 47.13 LIG-0.27  OA
ATOM      4  N   HIS D  12      15.955   3.145  60.495  1.00 49.28 LIG-0.35  N 
ATOM      5 H    HIS D  12      16.283   3.771  60.984  1.00 49.28 LIG 0.16  HD
BRANCH 4 6
ATOM      6  CA  HIS D  12      14.608   3.400  59.994  1.00 50.49 LIG 0.18  C 
BRANCH 6 7
ATOM      7  C   HIS D  12      14.613   3.746  58.506  1.00 51.38 LIG 0.24  C 
ATOM      8  N   ILE D  13      14.711   2.702  57.700  1.00 53.16 LIG-0.34  N 
ATOM      9 H    ILE D  13      14.796   1.904  58.009  1.00 53.16 LIG 0.16  HD
ATOM     10 O    HIS D  12      14.522   4.903  58.123  1.00 51.57 LIG-0.27  OA
BRANCH 8 11
ATOM     11  CA  ILE D  13      14.693   2.723  56.227  1.00 55.12 LIG 0.19  C 
BRANCH 11 12
ATOM     12  CB  ILE D  13      15.413   1.491  55.568  1.00 55.01 LIG 0.01  C 
ATOM     13  CG2 ILE D  13      15.730   0.374  56.579  1.00 56.15 LIG 0.01  C 
BRANCH 12 14
ATOM     14  CG1 ILE D  13      14.571   0.951  54.407  1.00 55.50 LIG 0.00  C 
ATOM     15  CD1 ILE D  13      15.398   0.287  53.273  1.00 55.45 LIG 0.01  C 
ENDBRANCH 12 14
ENDBRANCH 11 12
BRANCH 11 16
ATOM     16  C   ILE D  13      13.394   3.102  55.509  1.00 55.63 LIG 0.20  C 
ATOM     17 O    ILE D  13      12.332   2.529  55.766  1.00 56.94 LIG-0.65  OA
ATOM     18 OXT  ILE D  13      13.451   3.985  54.643  1.00 55.86 LIG-0.65  OA
ENDBRANCH 11 16
ENDBRANCH 8 11
ENDBRANCH 6 7
BRANCH 6 19
ATOM     19  CB  HIS D  12      13.921   4.511  60.791  1.00 50.55 LIG 0.10  C 
BRANCH 19 20
ATOM     20  CG  HIS D  12      12.996   4.007  61.853  1.00 49.61 LIG 0.06  A 
ATOM     21  CD2 HIS D  12      12.070   4.645  62.607  1.00 48.49 LIG 0.14  A 
ATOM     22 NE2  HIS D  12      11.498   3.704  63.427  1.00 48.62 LIG-0.25  NA
ATOM     23  CE1 HIS D  12      12.035   2.526  63.169  1.00 49.12 LIG 0.23  A 
ATOM     24 ND1  HIS D  12      12.945   2.682  62.226  1.00 49.92 LIG-0.24  NA
ENDBRANCH 19 20
ENDBRANCH 6 19
ENDBRANCH 4 6
ENDBRANCH 1 2
BRANCH 1 25
ATOM     25  CB  LEU D  11      17.991   0.900  61.879  1.00 47.69 LIG 0.04  C 
BRANCH 25 26
ATOM     26  CG  LEU D  11      17.013   1.130  63.037  1.00 48.05 LIG-0.02  C 
ATOM     27  CD1 LEU D  11      15.802   0.221  62.887  1.00 46.53 LIG 0.01  C 
ATOM     28  CD2 LEU D  11      17.657   0.950  64.391  1.00 50.43 LIG 0.01  C 
ENDBRANCH 25 26
ENDBRANCH 1 25
BRANCH 1 29
ATOM     29  N   LEU D  11      18.587   3.147  61.158  1.00 47.51 LIG-0.35  N 
ATOM     30  C   LEU D  10      18.779   4.182  60.338  1.00 47.80 LIG 0.24  C 
ATOM     31 O    LEU D  10      18.421   4.196  59.152  1.00 47.07 LIG-0.27  OA
ATOM     32 H    LEU D  11      18.790   3.163  61.993  1.00 47.51 LIG 0.16  HD
BRANCH 30 33
ATOM     33  CA  LEU D  10      19.492   5.381  60.951  1.00 47.63 LIG 0.18  C 
BRANCH 33 34
ATOM     34  CB  LEU D  10      20.919   5.503  60.424  1.00 47.29 LIG 0.04  C 
BRANCH 34 35
ATOM     35  CG  LEU D  10      21.865   4.410  60.934  1.00 46.92 LIG-0.02  C 
ATOM     36  CD1 LEU D  10      22.092   3.317  59.891  1.00 46.83 LIG 0.01  C 
ATOM     37  CD2 LEU D  10      23.180   4.981  61.346  1.00 45.50 LIG 0.01  C 
ENDBRANCH 34 35
ENDBRANCH 33 34
BRANCH 33 38
ATOM     38  N   LEU D  10      19.455   5.292  62.400  1.00 47.82 LIG-0.35  N 
ATOM     39 H    LEU D  10      20.204   5.085  62.770  1.00 47.82 LIG 0.16  HD
ATOM     40  C   ASP D   9      18.328   5.521  63.062  1.00 48.63 LIG 0.26  C 
ATOM     41 O    ASP D   9      17.266   5.801  62.510  1.00 48.10 LIG-0.27  OA
BRANCH 40 42
ATOM     42  CA  ASP D   9      18.408   5.408  64.562  1.00 49.27 LIG 0.41  C 
ATOM     43  N   ASP D   9      19.532   4.491  64.884  1.00 49.86 LIG 0.61  N 
BRANCH 42 44
ATOM     44  CB  ASP D   9      18.659   6.791  65.147  1.00 50.02 LIG 0.16  C 
BRANCH 44 45
ATOM     45  CG  ASP D   9      19.907   6.850  65.978  1.00 50.84 LIG 0.17  C 
ATOM     46 OD1  ASP D   9      20.707   7.779  65.777  1.00 53.44 LIG-0.65  OA
ATOM     47 OD2  ASP D   9      20.164   6.021  66.880  1.00 53.75 LIG-0.65  OA
ENDBRANCH 44 45
ENDBRANCH 42 44
ENDBRANCH 40 42
ENDBRANCH 33 38
ENDBRANCH 30 33
ENDBRANCH 1 29
TORSDOF 19
ENDMDL
MODEL 11
USER: ADFR SOLUTION from run 152
USER: SCORE 16.825723 LL:  -4.561 LR: -12.836 RR:   0.000 FEB:  -7.168
USER: RMSD 6.740853
USER: SEED 151
USER: STATUS no improvement in best in 8 clusters for 5 generations
USER: GENES 21
USER: genes 0 Translation |==|  0.50059 0.27419 0.40178
USER: genes 1 Rotation |==|  0.17454 0.37805 0.23877 0.74690
USER: genes 2 Torsion [N]-CA--C-[N] |==|  0.49444
USER: genes 3 Torsion [C]-N--CA-[C] |==|  0.82498
USER: genes 4 Torsion [N]-CA--C-[N] |==|  0.37735
USER: genes 5 Torsion [C]-N--CA-[CB] |==|  0.17619
USER: genes 6 Torsion [N]-CA--CB-[CG1] |==|  0.07994
USER: genes 7 Torsion [CA]-CB--CG1-[CD1] |==|  0.18773
USER: genes 8 Torsion [N]-CA--C-[OXT] |==|  0.06109
USER: genes 9 Torsion [N]-CA--CB-[CG] |==|  0.53858
USER: genes 10 Torsion [CA]-CB--CG-[CD2] |==|  0.08298
USER: genes 11 Torsion [C]-CA--CB-[CG] |==|  0.25336
USER: genes 12 Torsion [CA]-CB--CG-[CD1] |==|  0.34607
USER: genes 13 Torsion [C]-CA--N-[C] |==|  0.73349
USER: genes 14 Torsion [N]-C--CA-[N] |==|  0.16149
USER: genes 15 Torsion [C]-CA--CB-[CG] |==|  0.45411
USER: genes 16 Torsion [CA]-CB--CG-[CD2] |==|  0.25308
USER: genes 17 Torsion [C]-CA--N-[C] |==|  0.76627
USER: genes 18 Torsion [N]-C--CA-[N] |==|  0.38651
USER: genes 19 Torsion [C]-CA--CB-[CG] |==|  0.47166
USER: genes 20 Torsion [CA]-CB--CG-[OD1] |==|  0.00985
ROOT
ATOM      1  CA  LEU D  11      18.793   2.795  60.681  1.00 47.89 LIG 0.18  C 
ENDROOT
BRANCH 1 2
ATOM      2  C   LEU D  11      17.991   2.675  59.393  1.00 48.14 LIG 0.24  C 
ATOM      3 O    LEU D  11      17.938   3.601  58.595  1.00 47.13 LIG-0.27  OA
ATOM      4  N   HIS D  12      17.331   1.536  59.216  1.00 49.28 LIG-0.35  N 
ATOM      5 H    HIS D  12      17.360   0.868  59.758  1.00 49.28 LIG 0.16  HD
BRANCH 4 6
ATOM      6  CA  HIS D  12      16.483   1.339  58.045  1.00 50.49 LIG 0.18  C 
BRANCH 6 7
ATOM      7  C   HIS D  12      15.318   2.326  58.016  1.00 51.38 LIG 0.24  C 
ATOM      8  N   ILE D  13      15.092   2.876  56.835  1.00 53.16 LIG-0.34  N 
ATOM      9 H    ILE D  13      15.593   2.702  56.158  1.00 53.16 LIG 0.16  HD
ATOM     10 O    HIS D  12      14.660   2.560  59.020  1.00 51.57 LIG-0.27  OA
BRANCH 8 11
ATOM     11  CA  ILE D  13      14.015   3.821  56.495  1.00 55.12 LIG 0.19  C 
BRANCH 11 12
ATOM     12  CB  ILE D  13      14.103   5.186  57.268  1.00 55.01 LIG 0.01  C 
ATOM     13  CG2 ILE D  13      13.229   5.212  58.536  1.00 56.15 LIG 0.01  C 
BRANCH 12 14
ATOM     14  CG1 ILE D  13      15.563   5.504  57.609  1.00 55.50 LIG 0.00  C 
ATOM     15  CD1 ILE D  13      16.454   5.813  56.376  1.00 55.45 LIG 0.01  C 
ENDBRANCH 12 14
ENDBRANCH 11 12
BRANCH 11 16
ATOM     16  C   ILE D  13      13.625   3.999  55.025  1.00 55.63 LIG 0.20  C 
ATOM     17 O    ILE D  13      13.025   5.006  54.641  1.00 56.94 LIG-0.65  OA
ATOM     18 OXT  ILE D  13      13.908   3.085  54.238  1.00 55.86 LIG-0.65  OA
ENDBRANCH 11 16
ENDBRANCH 8 11
ENDBRANCH 6 7
BRANCH 6 19
ATOM     19  CB  HIS D  12      15.960  -0.097  57.973  1.00 50.55 LIG 0.10  C 
BRANCH 19 20
ATOM     20  CG  HIS D  12      15.365  -0.457  56.649  1.00 49.61 LIG 0.06  A 
ATOM     21  CD2 HIS D  12      15.639  -0.018  55.397  1.00 48.49 LIG 0.14  A 
ATOM     22 NE2  HIS D  12      14.797  -0.684  54.542  1.00 48.62 LIG-0.25  NA
ATOM     23  CE1 HIS D  12      14.050  -1.520  55.239  1.00 49.12 LIG 0.23  A 
ATOM     24 ND1  HIS D  12      14.369  -1.399  56.514  1.00 49.92 LIG-0.24  NA
ENDBRANCH 19 20
ENDBRANCH 6 19
ENDBRANCH 4 6
ENDBRANCH 1 2
BRANCH 1 25
ATOM     25  CB  LEU D  11      17.821   2.671  61.849  1.00 47.69 LIG 0.04  C 
BRANCH 25 26
ATOM     26  CG  LEU D  11      17.546   1.288  62.451  1.00 48.05 LIG-0.02  C 
ATOM     27  CD1 LEU D  11      17.829   1.303  63.947  1.00 46.53 LIG 0.01  C 
ATOM     28  CD2 LEU D  11      16.145   0.797  62.173  1.00 50.43 LIG 0.01  C 
ENDBRANCH 25 26
ENDBRANCH 1 25
BRANCH 1 29
ATOM     29  N   LEU D  11      19.528   4.047  60.791  1.00 47.51 LIG-0.35  N 
ATOM     30  C   LEU D  10      20.811   4.166  60.447  1.00 47.80 LIG 0.24  C 
ATOM     31 O    LEU D  10      21.474   3.254  59.933  1.00 47.07 LIG-0.27  OA
ATOM     32 H    LEU D  11      19.059   4.699  61.098  1.00 47.51 LIG 0.16  HD
BRANCH 30 33
ATOM     33  CA  LEU D  10      21.444   5.522  60.733  1.00 47.63 LIG 0.18  C 
BRANCH 33 34
ATOM     34  CB  LEU D  10      22.888   5.570  60.243  1.00 47.29 LIG 0.04  C 
BRANCH 34 35
ATOM     35  CG  LEU D  10      23.458   6.988  60.127  1.00 46.92 LIG-0.02  C 
ATOM     36  CD1 LEU D  10      22.381   8.009  59.765  1.00 46.83 LIG 0.01  C 
ATOM     37  CD2 LEU D  10      24.131   7.407  61.391  1.00 45.50 LIG 0.01  C 
ENDBRANCH 34 35
ENDBRANCH 33 34
BRANCH 33 38
ATOM     38  N   LEU D  10      21.342   5.827  62.150  1.00 47.82 LIG-0.35  N 
ATOM     39 H    LEU D  10      22.037   5.628  62.615  1.00 47.82 LIG 0.16  HD
ATOM     40  C   ASP D   9      20.238   6.374  62.644  1.00 48.63 LIG 0.26  C 
ATOM     41 O    ASP D   9      19.251   6.637  61.961  1.00 48.10 LIG-0.27  OA
BRANCH 40 42
ATOM     42  CA  ASP D   9      20.246   6.654  64.124  1.00 49.27 LIG 0.41  C 
ATOM     43  N   ASP D   9      19.600   7.976  64.334  1.00 49.86 LIG 0.61  N 
BRANCH 42 44
ATOM     44  CB  ASP D   9      19.467   5.557  64.836  1.00 50.02 LIG 0.16  C 
BRANCH 44 45
ATOM     45  CG  ASP D   9      19.623   5.612  66.327  1.00 50.84 LIG 0.17  C 
ATOM     46 OD1  ASP D   9      20.282   6.544  66.819  1.00 53.44 LIG-0.65  OA
ATOM     47 OD2  ASP D   9      19.097   4.778  67.098  1.00 53.75 LIG-0.65  OA
ENDBRANCH 44 45
ENDBRANCH 42 44
ENDBRANCH 40 42
ENDBRANCH 33 38
ENDBRANCH 30 33
ENDBRANCH 1 29
TORSDOF 19
ENDMDL
MODEL 12
USER: ADFR SOLUTION from run 52
USER: SCORE 17.405346 LL:  -5.462 LR: -12.770 RR:   0.000 FEB:  -7.102
USER: RMSD 9.368679
USER: SEED 51
USER: STATUS no improvement in best in 4 clusters for 5 generations
USER: GENES 21
USER: genes 0 Translation |==|  0.39958 0.25015 0.38824
USER: genes 1 Rotation |==|  0.66121 0.19459 0.15322 0.60236
USER: genes 2 Torsion [N]-CA--C-[N] |==|  0.06111
USER: genes 3 Torsion [C]-N--CA-[C] |==|  0.68412
USER: genes 4 Torsion [N]-CA--C-[N] |==|  0.87266
USER: genes 5 Torsion [C]-N--CA-[CB] |==|  0.78863
USER: genes 6 Torsion [N]-CA--CB-[CG1] |==|  0.96734
USER: genes 7 Torsion [CA]-CB--CG1-[CD1] |==|  0.52910
USER: genes 8 Torsion [N]-CA--C-[OXT] |==|  0.07635
USER: genes 9 Torsion [N]-CA--CB-[CG] |==|  0.99736
USER: genes 10 Torsion [CA]-CB--CG-[CD2] |==|  0.26543
USER: genes 11 Torsion [C]-CA--CB-[CG] |==|  0.72929
USER: genes 12 Torsion [CA]-CB--CG-[CD1] |==|  0.19622
USER: genes 13 Torsion [C]-CA--N-[C] |==|  0.64454
USER: genes 14 Torsion [N]-C--CA-[N] |==|  0.19463
USER: genes 15 Torsion [C]-CA--CB-[CG] |==|  0.80446
USER: genes 16 Torsion [CA]-CB--CG-[CD2] |==|  0.73061
USER: genes 17 Torsion [C]-CA--N-[C] |==|  0.76553
USER: genes 18 Torsion [N]-C--CA-[N] |==|  0.34116
USER: genes 19 Torsion [C]-CA--CB-[CG] |==|  0.67956
USER: genes 20 Torsion [CA]-CB--CG-[OD1] |==|  0.66911
ROOT
ATOM      1  CA  LEU D  11      16.824   2.344  60.376  1.00 47.89 LIG 0.18  C 
ENDROOT
BRANCH 1 2
ATOM      2  C   LEU D  11      18.203   2.975  60.516  1.00 48.14 LIG 0.24  C 
ATOM      3 O    LEU D  11      19.200   2.409  60.089  1.00 47.13 LIG-0.27  OA
ATOM      4  N   HIS D  12      18.254   4.138  61.156  1.00 49.28 LIG-0.35  N 
ATOM      5 H    HIS D  12      17.567   4.558  61.456  1.00 49.28 LIG 0.16  HD
BRANCH 4 6
ATOM      6  CA  HIS D  12      19.532   4.799  61.397  1.00 50.49 LIG 0.18  C 
BRANCH 6 7
ATOM      7  C   HIS D  12      19.869   4.857  62.886  1.00 51.38 LIG 0.24  C 
ATOM      8  N   ILE D  13      18.868   5.240  63.661  1.00 53.16 LIG-0.34  N 
ATOM      9 H    ILE D  13      18.106   5.465  63.330  1.00 53.16 LIG 0.16  HD
ATOM     10 O    HIS D  12      20.980   4.557  63.298  1.00 51.57 LIG-0.27  OA
BRANCH 8 11
ATOM     11  CA  ILE D  13      18.882   5.343  65.130  1.00 55.12 LIG 0.19  C 
BRANCH 11 12
ATOM     12  CB  ILE D  13      18.784   3.956  65.863  1.00 55.01 LIG 0.01  C 
ATOM     13  CG2 ILE D  13      17.802   3.976  67.049  1.00 56.15 LIG 0.01  C 
BRANCH 12 14
ATOM     14  CG1 ILE D  13      18.406   2.859  64.863  1.00 55.50 LIG 0.00  C 
ATOM     15  CD1 ILE D  13      18.032   1.501  65.516  1.00 55.45 LIG 0.01  C 
ENDBRANCH 12 14
ENDBRANCH 11 12
BRANCH 11 16
ATOM     16  C   ILE D  13      19.884   6.292  65.795  1.00 55.63 LIG 0.20  C 
ATOM     17 O    ILE D  13      20.282   6.097  66.945  1.00 56.94 LIG-0.65  OA
ATOM     18 OXT  ILE D  13      20.261   7.279  65.147  1.00 55.86 LIG-0.65  OA
ENDBRANCH 11 16
ENDBRANCH 8 11
ENDBRANCH 6 7
BRANCH 6 19
ATOM     19  CB  HIS D  12      19.550   6.208  60.799  1.00 50.55 LIG 0.10  C 
BRANCH 19 20
ATOM     20  CG  HIS D  12      18.285   6.579  60.092  1.00 49.61 LIG 0.06  A 
ATOM     21  CD2 HIS D  12      17.194   7.261  60.513  1.00 48.49 LIG 0.14  A 
ATOM     22 NE2  HIS D  12      16.322   7.322  59.455  1.00 48.62 LIG-0.25  NA
ATOM     23  CE1 HIS D  12      16.867   6.721  58.413  1.00 49.12 LIG 0.23  A 
ATOM     24 ND1  HIS D  12      18.051   6.259  58.773  1.00 49.92 LIG-0.24  NA
ENDBRANCH 19 20
ENDBRANCH 6 19
ENDBRANCH 4 6
ENDBRANCH 1 2
BRANCH 1 25
ATOM     25  CB  LEU D  11      16.757   1.669  59.011  1.00 47.69 LIG 0.04  C 
BRANCH 25 26
ATOM     26  CG  LEU D  11      16.101   2.411  57.840  1.00 48.05 LIG-0.02  C 
ATOM     27  CD1 LEU D  11      16.980   3.573  57.399  1.00 46.53 LIG 0.01  C 
ATOM     28  CD2 LEU D  11      15.785   1.502  56.676  1.00 50.43 LIG 0.01  C 
ENDBRANCH 25 26
ENDBRANCH 1 25
BRANCH 1 29
ATOM     29  N   LEU D  11      15.734   3.301  60.499  1.00 47.51 LIG-0.35  N 
ATOM     30  C   LEU D  10      14.711   3.130  61.338  1.00 47.80 LIG 0.24  C 
ATOM     31 O    LEU D  10      14.629   2.190  62.141  1.00 47.07 LIG-0.27  OA
ATOM     32 H    LEU D  11      15.811   3.984  59.982  1.00 47.51 LIG 0.16  HD
BRANCH 30 33
ATOM     33  CA  LEU D  10      13.609   4.178  61.251  1.00 47.63 LIG 0.18  C 
BRANCH 33 34
ATOM     34  CB  LEU D  10      12.684   4.106  62.463  1.00 47.29 LIG 0.04  C 
BRANCH 34 35
ATOM     35  CG  LEU D  10      11.792   2.860  62.491  1.00 46.92 LIG-0.02  C 
ATOM     36  CD1 LEU D  10      11.657   2.285  63.899  1.00 46.83 LIG 0.01  C 
ATOM     37  CD2 LEU D  10      10.435   3.152  61.943  1.00 45.50 LIG 0.01  C 
ENDBRANCH 34 35
ENDBRANCH 33 34
BRANCH 33 38
ATOM     38  N   LEU D  10      12.880   4.029  60.003  1.00 47.82 LIG-0.35  N 
ATOM     39 H    LEU D  10      12.160   3.561  60.057  1.00 47.82 LIG 0.16  HD
ATOM     40  C   ASP D   9      13.329   4.592  58.888  1.00 48.63 LIG 0.26  C 
ATOM     41 O    ASP D   9      14.369   5.245  58.833  1.00 48.10 LIG-0.27  OA
BRANCH 40 42
ATOM     42  CA  ASP D   9      12.490   4.378  57.656  1.00 49.27 LIG 0.41  C 
ATOM     43  N   ASP D   9      12.119   5.716  57.127  1.00 49.86 LIG 0.61  N 
BRANCH 42 44
ATOM     44  CB  ASP D   9      13.307   3.603  56.633  1.00 50.02 LIG 0.16  C 
BRANCH 44 45
ATOM     45  CG  ASP D   9      13.584   4.399  55.391  1.00 50.84 LIG 0.17  C 
ATOM     46 OD1  ASP D   9      13.157   3.969  54.306  1.00 53.44 LIG-0.65  OA
ATOM     47 OD2  ASP D   9      14.203   5.487  55.403  1.00 53.75 LIG-0.65  OA
ENDBRANCH 44 45
ENDBRANCH 42 44
ENDBRANCH 40 42
ENDBRANCH 33 38
ENDBRANCH 30 33
ENDBRANCH 1 29
TORSDOF 19
ENDMDL
MODEL 13
USER: ADFR SOLUTION from run 111
USER: SCORE 15.789722 LL:  -4.371 LR: -12.758 RR:   0.000 FEB:  -7.090
USER: RMSD 11.124698
USER: SEED 110
USER: STATUS no improvement in best in 10 clusters for 5 generations
USER: GENES 21
USER: genes 0 Translation |==|  0.54380 0.49334 0.70623
USER: genes 1 Rotation |==|  0.65912 0.16128 0.29017 0.75676
USER: genes 2 Torsion [N]-CA--C-[N] |==|  0.24575
USER: genes 3 Torsion [C]-N--CA-[C] |==|  0.63971
USER: genes 4 Torsion [N]-CA--C-[N] |==|  0.84258
USER: genes 5 Torsion [C]-N--CA-[CB] |==|  0.43640
USER: genes 6 Torsion [N]-CA--CB-[CG1] |==|  0.11123
USER: genes 7 Torsion [CA]-CB--CG1-[CD1] |==|  0.48593
USER: genes 8 Torsion [N]-CA--C-[OXT] |==|  0.24993
USER: genes 9 Torsion [N]-CA--CB-[CG] |==|  0.41274
USER: genes 10 Torsion [CA]-CB--CG-[CD2] |==|  0.20748
USER: genes 11 Torsion [C]-CA--CB-[CG] |==|  0.67338
USER: genes 12 Torsion [CA]-CB--CG-[CD1] |==|  0.34040
USER: genes 13 Torsion [C]-CA--N-[C] |==|  0.56111
USER: genes 14 Torsion [N]-C--CA-[N] |==|  0.50355
USER: genes 15 Torsion [C]-CA--CB-[CG] |==|  0.26656
USER: genes 16 Torsion [CA]-CB--CG-[CD2] |==|  0.71323
USER: genes 17 Torsion [C]-CA--N-[C] |==|  0.76968
USER: genes 18 Torsion [N]-C--CA-[N] |==|  0.14284
USER: genes 19 Torsion [C]-CA--CB-[CG] |==|  0.72972
USER: genes 20 Torsion [CA]-CB--CG-[OD1] |==|  0.32812
ROOT
ATOM      1  CA  LEU D  11      19.636   6.904  67.531  1.00 47.89 LIG 0.18  C 
ENDROOT
BRANCH 1 2
ATOM      2  C   LEU D  11      20.508   7.963  66.869  1.00 48.14 LIG 0.24  C 
ATOM      3 O    LEU D  11      20.853   7.853  65.700  1.00 47.13 LIG-0.27  OA
ATOM      4  N   HIS D  12      20.895   8.971  67.641  1.00 49.28 LIG-0.35  N 
ATOM      5 H    HIS D  12      20.658   9.074  68.461  1.00 49.28 LIG 0.16  HD
BRANCH 4 6
ATOM      6  CA  HIS D  12      21.781  10.008  67.123  1.00 50.49 LIG 0.18  C 
BRANCH 6 7
ATOM      7  C   HIS D  12      22.973  10.250  68.048  1.00 51.38 LIG 0.24  C 
ATOM      8  N   ILE D  13      22.648  10.571  69.289  1.00 53.16 LIG-0.34  N 
ATOM      9 H    ILE D  13      21.827  10.661  69.528  1.00 53.16 LIG 0.16  HD
ATOM     10 O    HIS D  12      24.122  10.140  67.645  1.00 51.57 LIG-0.27  OA
BRANCH 8 11
ATOM     11  CA  ILE D  13      23.576  10.813  70.407  1.00 55.12 LIG 0.19  C 
BRANCH 11 12
ATOM     12  CB  ILE D  13      22.968  11.699  71.554  1.00 55.01 LIG 0.01  C 
ATOM     13  CG2 ILE D  13      23.088  13.207  71.271  1.00 56.15 LIG 0.01  C 
BRANCH 12 14
ATOM     14  CG1 ILE D  13      21.508  11.307  71.803  1.00 55.50 LIG 0.00  C 
ATOM     15  CD1 ILE D  13      20.846  12.036  73.003  1.00 55.45 LIG 0.01  C 
ENDBRANCH 12 14
ENDBRANCH 11 12
BRANCH 11 16
ATOM     16  C   ILE D  13      24.410   9.645  70.941  1.00 55.63 LIG 0.20  C 
ATOM     17 O    ILE D  13      24.003   8.942  71.869  1.00 56.94 LIG-0.65  OA
ATOM     18 OXT  ILE D  13      25.520   9.447  70.429  1.00 55.86 LIG-0.65  OA
ENDBRANCH 11 16
ENDBRANCH 8 11
ENDBRANCH 6 7
BRANCH 6 19
ATOM     19  CB  HIS D  12      21.025  11.317  66.886  1.00 50.55 LIG 0.10  C 
BRANCH 19 20
ATOM     20  CG  HIS D  12      21.860  12.542  67.084  1.00 49.61 LIG 0.06  A 
ATOM     21  CD2 HIS D  12      22.829  13.097  66.318  1.00 48.49 LIG 0.14  A 
ATOM     22 NE2  HIS D  12      23.266  14.222  66.971  1.00 48.62 LIG-0.25  NA
ATOM     23  CE1 HIS D  12      22.575  14.368  68.086  1.00 49.12 LIG 0.23  A 
ATOM     24 ND1  HIS D  12      21.723  13.364  68.181  1.00 49.92 LIG-0.24  NA
ENDBRANCH 19 20
ENDBRANCH 6 19
ENDBRANCH 4 6
ENDBRANCH 1 2
BRANCH 1 25
ATOM     25  CB  LEU D  11      19.908   5.575  66.835  1.00 47.69 LIG 0.04  C 
BRANCH 25 26
ATOM     26  CG  LEU D  11      18.766   4.872  66.091  1.00 48.05 LIG-0.02  C 
ATOM     27  CD1 LEU D  11      19.148   4.650  64.635  1.00 46.53 LIG 0.01  C 
ATOM     28  CD2 LEU D  11      18.354   3.574  66.744  1.00 50.43 LIG 0.01  C 
ENDBRANCH 25 26
ENDBRANCH 1 25
BRANCH 1 29
ATOM     29  N   LEU D  11      18.213   7.204  67.468  1.00 47.51 LIG-0.35  N 
ATOM     30  C   LEU D  10      17.325   6.679  68.313  1.00 47.80 LIG 0.24  C 
ATOM     31 O    LEU D  10      17.630   5.955  69.272  1.00 47.07 LIG-0.27  OA
ATOM     32 H    LEU D  11      18.000   7.748  66.837  1.00 47.51 LIG 0.16  HD
BRANCH 30 33
ATOM     33  CA  LEU D  10      15.867   7.018  68.028  1.00 47.63 LIG 0.18  C 
BRANCH 33 34
ATOM     34  CB  LEU D  10      15.660   8.527  67.938  1.00 47.29 LIG 0.04  C 
BRANCH 34 35
ATOM     35  CG  LEU D  10      15.691   9.074  66.507  1.00 46.92 LIG-0.02  C 
ATOM     36  CD1 LEU D  10      14.542  10.045  66.240  1.00 46.83 LIG 0.01  C 
ATOM     37  CD2 LEU D  10      16.988   9.751  66.213  1.00 45.50 LIG 0.01  C 
ENDBRANCH 34 35
ENDBRANCH 33 34
BRANCH 33 38
ATOM     38  N   LEU D  10      15.012   6.413  69.035  1.00 47.82 LIG-0.35  N 
ATOM     39 H    LEU D  10      14.783   6.935  69.678  1.00 47.82 LIG 0.16  HD
ATOM     40  C   ASP D   9      14.636   5.145  68.926  1.00 48.63 LIG 0.26  C 
ATOM     41 O    ASP D   9      14.987   4.413  68.003  1.00 48.10 LIG-0.27  OA
BRANCH 40 42
ATOM     42  CA  ASP D   9      13.743   4.625  70.022  1.00 49.27 LIG 0.41  C 
ATOM     43  N   ASP D   9      12.609   5.573  70.166  1.00 49.86 LIG 0.61  N 
BRANCH 42 44
ATOM     44  CB  ASP D   9      13.240   3.242  69.632  1.00 50.02 LIG 0.16  C 
BRANCH 44 45
ATOM     45  CG  ASP D   9      11.871   3.276  69.019  1.00 50.84 LIG 0.17  C 
ATOM     46 OD1  ASP D   9      11.738   2.880  67.848  1.00 53.44 LIG-0.65  OA
ATOM     47 OD2  ASP D   9      10.855   3.659  69.641  1.00 53.75 LIG-0.65  OA
ENDBRANCH 44 45
ENDBRANCH 42 44
ENDBRANCH 40 42
ENDBRANCH 33 38
ENDBRANCH 30 33
ENDBRANCH 1 29
TORSDOF 19
ENDMDL
MODEL 14
USER: ADFR SOLUTION from run 45
USER: SCORE 16.263368 LL:  -3.953 LR: -12.685 RR:   0.000 FEB:  -7.018
USER: RMSD 5.382279
USER: SEED 44
USER: STATUS no improvement in best in 1 clusters for 5 generations
USER: GENES 21
USER: genes 0 Translation |==|  0.50058 0.48762 0.68100
USER: genes 1 Rotation |==|  0.21116 0.33501 0.23718 0.76510
USER: genes 2 Torsion [N]-CA--C-[N] |==|  0.30291
USER: genes 3 Torsion [C]-N--CA-[C] |==|  0.65714
USER: genes 4 Torsion [N]-CA--C-[N] |==|  0.41381
USER: genes 5 Torsion [C]-N--CA-[CB] |==|  0.78352
USER: genes 6 Torsion [N]-CA--CB-[CG1] |==|  0.76184
USER: genes 7 Torsion [CA]-CB--CG1-[CD1] |==|  0.78181
USER: genes 8 Torsion [N]-CA--C-[OXT] |==|  0.36180
USER: genes 9 Torsion [N]-CA--CB-[CG] |==|  0.26029
USER: genes 10 Torsion [CA]-CB--CG-[CD2] |==|  0.27795
USER: genes 11 Torsion [C]-CA--CB-[CG] |==|  0.24126
USER: genes 12 Torsion [CA]-CB--CG-[CD1] |==|  0.57984
USER: genes 13 Torsion [C]-CA--N-[C] |==|  0.73851
USER: genes 14 Torsion [N]-C--CA-[N] |==|  0.43542
USER: genes 15 Torsion [C]-CA--CB-[CG] |==|  0.95624
USER: genes 16 Torsion [CA]-CB--CG-[CD2] |==|  0.67352
USER: genes 17 Torsion [C]-CA--N-[C] |==|  0.63163
USER: genes 18 Torsion [N]-C--CA-[N] |==|  0.23598
USER: genes 19 Torsion [C]-CA--CB-[CG] |==|  0.29557
USER: genes 20 Torsion [CA]-CB--CG-[OD1] |==|  0.19698
ROOT
ATOM      1  CA  LEU D  11      18.793   6.797  66.963  1.00 47.89 LIG 0.18  C 
ENDROOT
BRANCH 1 2
ATOM      2  C   LEU D  11      18.220   6.592  65.567  1.00 48.14 LIG 0.24  C 
ATOM      3 O    LEU D  11      17.131   7.058  65.259  1.00 47.13 LIG-0.27  OA
ATOM      4  N   HIS D  12      18.948   5.855  64.736  1.00 49.28 LIG-0.35  N 
ATOM      5 H    HIS D  12      19.719   5.526  64.927  1.00 49.28 LIG 0.16  HD
BRANCH 4 6
ATOM      6  CA  HIS D  12      18.464   5.548  63.394  1.00 50.49 LIG 0.18  C 
BRANCH 6 7
ATOM      7  C   HIS D  12      18.407   4.042  63.143  1.00 51.38 LIG 0.24  C 
ATOM      8  N   ILE D  13      17.451   3.659  62.313  1.00 53.16 LIG-0.34  N 
ATOM      9 H    ILE D  13      16.898   4.225  61.977  1.00 53.16 LIG 0.16  HD
ATOM     10 O    HIS D  12      19.201   3.280  63.675  1.00 51.57 LIG-0.27  OA
BRANCH 8 11
ATOM     11  CA  ILE D  13      17.186   2.287  61.850  1.00 55.12 LIG 0.19  C 
BRANCH 11 12
ATOM     12  CB  ILE D  13      18.169   1.797  60.725  1.00 55.01 LIG 0.01  C 
ATOM     13  CG2 ILE D  13      18.402   0.276  60.758  1.00 56.15 LIG 0.01  C 
BRANCH 12 14
ATOM     14  CG1 ILE D  13      17.657   2.238  59.350  1.00 55.50 LIG 0.00  C 
ATOM     15  CD1 ILE D  13      16.504   1.363  58.787  1.00 55.45 LIG 0.01  C 
ENDBRANCH 12 14
ENDBRANCH 11 12
BRANCH 11 16
ATOM     16  C   ILE D  13      16.889   1.201  62.888  1.00 55.63 LIG 0.20  C 
ATOM     17 O    ILE D  13      17.633   1.022  63.855  1.00 56.94 LIG-0.65  OA
ATOM     18 OXT  ILE D  13      15.891   0.490  62.710  1.00 55.86 LIG-0.65  OA
ENDBRANCH 11 16
ENDBRANCH 8 11
ENDBRANCH 6 7
BRANCH 6 19
ATOM     19  CB  HIS D  12      19.322   6.228  62.326  1.00 50.55 LIG 0.10  C 
BRANCH 19 20
ATOM     20  CG  HIS D  12      20.424   5.366  61.798  1.00 49.61 LIG 0.06  A 
ATOM     21  CD2 HIS D  12      20.521   4.635  60.662  1.00 48.49 LIG 0.14  A 
ATOM     22 NE2  HIS D  12      21.756   4.036  60.671  1.00 48.62 LIG-0.25  NA
ATOM     23  CE1 HIS D  12      22.405   4.404  61.760  1.00 49.12 LIG 0.23  A 
ATOM     24 ND1  HIS D  12      21.622   5.203  62.460  1.00 49.92 LIG-0.24  NA
ENDBRANCH 19 20
ENDBRANCH 6 19
ENDBRANCH 4 6
ENDBRANCH 1 2
BRANCH 1 25
ATOM     25  CB  LEU D  11      17.702   6.449  67.970  1.00 47.69 LIG 0.04  C 
BRANCH 25 26
ATOM     26  CG  LEU D  11      17.538   4.993  68.424  1.00 48.05 LIG-0.02  C 
ATOM     27  CD1 LEU D  11      16.089   4.724  68.803  1.00 46.53 LIG 0.01  C 
ATOM     28  CD2 LEU D  11      18.018   4.001  67.391  1.00 50.43 LIG 0.01  C 
ENDBRANCH 25 26
ENDBRANCH 1 25
BRANCH 1 29
ATOM     29  N   LEU D  11      19.261   8.154  67.204  1.00 47.51 LIG-0.35  N 
ATOM     30  C   LEU D  10      20.530   8.524  67.024  1.00 47.80 LIG 0.24  C 
ATOM     31 O    LEU D  10      21.407   7.778  66.566  1.00 47.07 LIG-0.27  OA
ATOM     32 H    LEU D  11      18.646   8.691  67.472  1.00 47.51 LIG 0.16  HD
BRANCH 30 33
ATOM     33  CA  LEU D  10      20.860   9.955  67.431  1.00 47.63 LIG 0.18  C 
BRANCH 33 34
ATOM     34  CB  LEU D  10      20.405  10.949  66.367  1.00 47.29 LIG 0.04  C 
BRANCH 34 35
ATOM     35  CG  LEU D  10      20.089  10.307  65.011  1.00 46.92 LIG-0.02  C 
ATOM     36  CD1 LEU D  10      18.638  10.537  64.594  1.00 46.83 LIG 0.01  C 
ATOM     37  CD2 LEU D  10      20.998  10.819  63.944  1.00 45.50 LIG 0.01  C 
ENDBRANCH 34 35
ENDBRANCH 33 34
BRANCH 33 38
ATOM     38  N   LEU D  10      22.280  10.075  67.713  1.00 47.82 LIG-0.35  N 
ATOM     39 H    LEU D  10      22.798   9.727  67.121  1.00 47.82 LIG 0.16  HD
ATOM     40  C   ASP D   9      22.700  10.684  68.814  1.00 48.63 LIG 0.26  C 
ATOM     41 O    ASP D   9      21.940  11.161  69.654  1.00 48.10 LIG-0.27  OA
BRANCH 40 42
ATOM     42  CA  ASP D   9      24.193  10.757  69.001  1.00 49.27 LIG 0.41  C 
ATOM     43  N   ASP D   9      24.682  11.947  68.258  1.00 49.86 LIG 0.61  N 
BRANCH 42 44
ATOM     44  CB  ASP D   9      24.497  10.889  70.486  1.00 50.02 LIG 0.16  C 
BRANCH 44 45
ATOM     45  CG  ASP D   9      25.047   9.625  71.079  1.00 50.84 LIG 0.17  C 
ATOM     46 OD1  ASP D   9      26.199   9.279  70.770  1.00 53.44 LIG-0.65  OA
ATOM     47 OD2  ASP D   9      24.407   8.919  71.891  1.00 53.75 LIG-0.65  OA
ENDBRANCH 44 45
ENDBRANCH 42 44
ENDBRANCH 40 42
ENDBRANCH 33 38
ENDBRANCH 30 33
ENDBRANCH 1 29
TORSDOF 19
ENDMDL
MODEL 15
USER: ADFR SOLUTION from run 187
USER: SCORE 15.917488 LL:  -4.292 LR: -12.669 RR:   0.000 FEB:  -7.001
USER: RMSD 7.394911
USER: SEED 186
USER: STATUS searching
USER: GENES 21
USER: genes 0 Translation |==|  0.44745 0.47816 0.62625
USER: genes 1 Rotation |==|  0.46915 0.22609 0.43236 0.91164
USER: genes 2 Torsion [N]-CA--C-[N] |==|  0.56667
USER: genes 3 Torsion [C]-N--CA-[C] |==|  0.64969
USER: genes 4 Torsion [N]-CA--C-[N] |==|  0.41724
USER: genes 5 Torsion [C]-N--CA-[CB] |==|  0.18117
USER: genes 6 Torsion [N]-CA--CB-[CG1] |==|  0.08562
USER: genes 7 Torsion [CA]-CB--CG1-[CD1] |==|  0.15611
USER: genes 8 Torsion [N]-CA--C-[OXT] |==|  0.21147
USER: genes 9 Torsion [N]-CA--CB-[CG] |==|  0.22449
USER: genes 10 Torsion [CA]-CB--CG-[CD2] |==|  0.82150
USER: genes 11 Torsion [C]-CA--CB-[CG] |==|  0.42859
USER: genes 12 Torsion [CA]-CB--CG-[CD1] |==|  0.29309
USER: genes 13 Torsion [C]-CA--N-[C] |==|  0.54460
USER: genes 14 Torsion [N]-C--CA-[N] |==|  0.30398
USER: genes 15 Torsion [C]-CA--CB-[CG] |==|  0.46103
USER: genes 16 Torsion [CA]-CB--CG-[CD2] |==|  0.24229
USER: genes 17 Torsion [C]-CA--N-[C] |==|  0.67845
USER: genes 18 Torsion [N]-C--CA-[N] |==|  0.31050
USER: genes 19 Torsion [C]-CA--CB-[CG] |==|  0.75658
USER: genes 20 Torsion [CA]-CB--CG-[OD1] |==|  0.84892
ROOT
ATOM      1  CA  LEU D  11      17.757   6.620  65.732  1.00 47.89 LIG 0.18  C 
ENDROOT
BRANCH 1 2
ATOM      2  C   LEU D  11      17.648   6.599  64.213  1.00 48.14 LIG 0.24  C 
ATOM      3 O    LEU D  11      16.801   7.266  63.633  1.00 47.13 LIG-0.27  OA
ATOM      4  N   HIS D  12      18.490   5.794  63.574  1.00 49.28 LIG-0.35  N 
ATOM      5 H    HIS D  12      19.098   5.324  63.959  1.00 49.28 LIG 0.16  HD
BRANCH 4 6
ATOM      6  CA  HIS D  12      18.430   5.654  62.123  1.00 50.49 LIG 0.18  C 
BRANCH 6 7
ATOM      7  C   HIS D  12      18.302   4.192  61.700  1.00 51.38 LIG 0.24  C 
ATOM      8  N   ILE D  13      17.649   4.004  60.565  1.00 53.16 LIG-0.34  N 
ATOM      9 H    ILE D  13      17.306   4.663  60.132  1.00 53.16 LIG 0.16  HD
ATOM     10 O    HIS D  12      18.782   3.291  62.373  1.00 51.57 LIG-0.27  OA
BRANCH 8 11
ATOM     11  CA  ILE D  13      17.412   2.718  59.889  1.00 55.12 LIG 0.19  C 
BRANCH 11 12
ATOM     12  CB  ILE D  13      16.494   1.735  60.702  1.00 55.01 LIG 0.01  C 
ATOM     13  CG2 ILE D  13      17.297   0.760  61.583  1.00 56.15 LIG 0.01  C 
BRANCH 12 14
ATOM     14  CG1 ILE D  13      15.491   2.528  61.545  1.00 55.50 LIG 0.00  C 
ATOM     15  CD1 ILE D  13      14.607   3.511  60.730  1.00 55.45 LIG 0.01  C 
ENDBRANCH 12 14
ENDBRANCH 11 12
BRANCH 11 16
ATOM     16  C   ILE D  13      17.095   2.718  58.390  1.00 55.63 LIG 0.20  C 
ATOM     17 O    ILE D  13      15.950   2.513  57.980  1.00 56.94 LIG-0.65  OA
ATOM     18 OXT  ILE D  13      18.032   2.904  57.602  1.00 55.86 LIG-0.65  OA
ENDBRANCH 11 16
ENDBRANCH 8 11
ENDBRANCH 6 7
BRANCH 6 19
ATOM     19  CB  HIS D  12      19.650   6.290  61.454  1.00 50.55 LIG 0.10  C 
BRANCH 19 20
ATOM     20  CG  HIS D  12      20.869   5.424  61.472  1.00 49.61 LIG 0.06  A 
ATOM     21  CD2 HIS D  12      21.620   4.961  62.499  1.00 48.49 LIG 0.14  A 
ATOM     22 NE2  HIS D  12      22.626   4.202  61.954  1.00 48.62 LIG-0.25  NA
ATOM     23  CE1 HIS D  12      22.485   4.180  60.642  1.00 49.12 LIG 0.23  A 
ATOM     24 ND1  HIS D  12      21.434   4.914  60.324  1.00 49.92 LIG-0.24  NA
ENDBRANCH 19 20
ENDBRANCH 6 19
ENDBRANCH 4 6
ENDBRANCH 1 2
BRANCH 1 25
ATOM     25  CB  LEU D  11      18.127   5.214  66.190  1.00 47.69 LIG 0.04  C 
BRANCH 25 26
ATOM     26  CG  LEU D  11      18.870   5.030  67.520  1.00 48.05 LIG-0.02  C 
ATOM     27  CD1 LEU D  11      17.920   4.487  68.579  1.00 46.53 LIG 0.01  C 
ATOM     28  CD2 LEU D  11      20.092   4.153  67.391  1.00 50.43 LIG 0.01  C 
ENDBRANCH 25 26
ENDBRANCH 1 25
BRANCH 1 29
ATOM     29  N   LEU D  11      16.532   7.040  66.395  1.00 47.51 LIG-0.35  N 
ATOM     30  C   LEU D  10      16.495   7.425  67.671  1.00 47.80 LIG 0.24  C 
ATOM     31 O    LEU D  10      17.501   7.534  68.387  1.00 47.07 LIG-0.27  OA
ATOM     32 H    LEU D  11      15.837   7.017  65.889  1.00 47.51 LIG 0.16  HD
BRANCH 30 33
ATOM     33  CA  LEU D  10      15.109   7.725  68.227  1.00 47.63 LIG 0.18  C 
BRANCH 33 34
ATOM     34  CB  LEU D  10      15.052   9.119  68.843  1.00 47.29 LIG 0.04  C 
BRANCH 34 35
ATOM     35  CG  LEU D  10      13.629   9.622  69.113  1.00 46.92 LIG-0.02  C 
ATOM     36  CD1 LEU D  10      12.645   9.156  68.041  1.00 46.83 LIG 0.01  C 
ATOM     37  CD2 LEU D  10      13.144   9.182  70.454  1.00 45.50 LIG 0.01  C 
ENDBRANCH 34 35
ENDBRANCH 33 34
BRANCH 33 38
ATOM     38  N   LEU D  10      14.722   6.696  69.177  1.00 47.82 LIG-0.35  N 
ATOM     39 H    LEU D  10      15.210   6.654  69.884  1.00 47.82 LIG 0.16  HD
ATOM     40  C   ASP D   9      13.686   5.904  68.930  1.00 48.63 LIG 0.26  C 
ATOM     41 O    ASP D   9      13.012   5.974  67.905  1.00 48.10 LIG-0.27  OA
BRANCH 40 42
ATOM     42  CA  ASP D   9      13.372   4.879  69.988  1.00 49.27 LIG 0.41  C 
ATOM     43  N   ASP D   9      12.077   5.257  70.611  1.00 49.86 LIG 0.61  N 
BRANCH 42 44
ATOM     44  CB  ASP D   9      13.272   3.509  69.331  1.00 50.02 LIG 0.16  C 
BRANCH 44 45
ATOM     45  CG  ASP D   9      11.892   3.211  68.822  1.00 50.84 LIG 0.17  C 
ATOM     46 OD1  ASP D   9      10.938   3.301  69.613  1.00 53.44 LIG-0.65  OA
ATOM     47 OD2  ASP D   9      11.657   2.903  67.632  1.00 53.75 LIG-0.65  OA
ENDBRANCH 44 45
ENDBRANCH 42 44
ENDBRANCH 40 42
ENDBRANCH 33 38
ENDBRANCH 30 33
ENDBRANCH 1 29
TORSDOF 19
ENDMDL
MODEL 16
USER: ADFR SOLUTION from run 67
USER: SCORE 16.202872 LL:  -4.559 LR: -12.634 RR:   0.000 FEB:  -6.966
USER: RMSD 9.780754
USER: SEED 66
USER: STATUS no improvement in best in 3 clusters for 5 generations
USER: GENES 21
USER: genes 0 Translation |==|  0.42076 0.25976 0.36880
USER: genes 1 Rotation |==|  0.66979 0.23416 0.12186 0.58666
USER: genes 2 Torsion [N]-CA--C-[N] |==|  0.06537
USER: genes 3 Torsion [C]-N--CA-[C] |==|  0.63939
USER: genes 4 Torsion [N]-CA--C-[N] |==|  0.87383
USER: genes 5 Torsion [C]-N--CA-[CB] |==|  0.79738
USER: genes 6 Torsion [N]-CA--CB-[CG1] |==|  0.95164
USER: genes 7 Torsion [CA]-CB--CG1-[CD1] |==|  0.52206
USER: genes 8 Torsion [N]-CA--C-[OXT] |==|  0.08744
USER: genes 9 Torsion [N]-CA--CB-[CG] |==|  0.53855
USER: genes 10 Torsion [CA]-CB--CG-[CD2] |==|  0.17748
USER: genes 11 Torsion [C]-CA--CB-[CG] |==|  0.47798
USER: genes 12 Torsion [CA]-CB--CG-[CD1] |==|  0.40769
USER: genes 13 Torsion [C]-CA--N-[C] |==|  0.63889
USER: genes 14 Torsion [N]-C--CA-[N] |==|  0.22525
USER: genes 15 Torsion [C]-CA--CB-[CG] |==|  0.75380
USER: genes 16 Torsion [CA]-CB--CG-[CD2] |==|  0.74810
USER: genes 17 Torsion [C]-CA--N-[C] |==|  0.77744
USER: genes 18 Torsion [N]-C--CA-[N] |==|  0.36741
USER: genes 19 Torsion [C]-CA--CB-[CG] |==|  0.68953
USER: genes 20 Torsion [CA]-CB--CG-[OD1] |==|  0.66927
ROOT
ATOM      1  CA  LEU D  11      17.237   2.525  59.939  1.00 47.89 LIG 0.18  C 
ENDROOT
BRANCH 1 2
ATOM      2  C   LEU D  11      18.616   3.117  60.195  1.00 48.14 LIG 0.24  C 
ATOM      3 O    LEU D  11      19.606   2.676  59.626  1.00 47.13 LIG-0.27  OA
ATOM      4  N   HIS D  12      18.678   4.096  61.090  1.00 49.28 LIG-0.35  N 
ATOM      5 H    HIS D  12      17.995   4.428  61.495  1.00 49.28 LIG 0.16  HD
BRANCH 4 6
ATOM      6  CA  HIS D  12      19.958   4.693  61.455  1.00 50.49 LIG 0.18  C 
BRANCH 6 7
ATOM      7  C   HIS D  12      20.147   4.749  62.969  1.00 51.38 LIG 0.24  C 
ATOM      8  N   ILE D  13      19.092   5.184  63.639  1.00 53.16 LIG-0.34  N 
ATOM      9 H    ILE D  13      18.379   5.439  63.232  1.00 53.16 LIG 0.16  HD
ATOM     10 O    HIS D  12      21.197   4.404  63.491  1.00 51.57 LIG-0.27  OA
BRANCH 8 11
ATOM     11  CA  ILE D  13      18.965   5.300  65.101  1.00 55.12 LIG 0.19  C 
BRANCH 11 12
ATOM     12  CB  ILE D  13      18.811   3.918  65.835  1.00 55.01 LIG 0.01  C 
ATOM     13  CG2 ILE D  13      17.819   3.976  67.012  1.00 56.15 LIG 0.01  C 
BRANCH 12 14
ATOM     14  CG1 ILE D  13      18.401   2.834  64.833  1.00 55.50 LIG 0.00  C 
ATOM     15  CD1 ILE D  13      18.032   1.472  65.480  1.00 55.45 LIG 0.01  C 
ENDBRANCH 12 14
ENDBRANCH 11 12
BRANCH 11 16
ATOM     16  C   ILE D  13      19.890   6.265  65.849  1.00 55.63 LIG 0.20  C 
ATOM     17 O    ILE D  13      20.236   6.045  67.012  1.00 56.94 LIG-0.65  OA
ATOM     18 OXT  ILE D  13      20.257   7.288  65.256  1.00 55.86 LIG-0.65  OA
ENDBRANCH 11 16
ENDBRANCH 8 11
ENDBRANCH 6 7
BRANCH 6 19
ATOM     19  CB  HIS D  12      20.109   6.092  60.853  1.00 50.55 LIG 0.10  C 
BRANCH 19 20
ATOM     20  CG  HIS D  12      21.506   6.624  60.907  1.00 49.61 LIG 0.06  A 
ATOM     21  CD2 HIS D  12      22.649   6.195  60.321  1.00 48.49 LIG 0.14  A 
ATOM     22 NE2  HIS D  12      23.647   7.056  60.704  1.00 48.62 LIG-0.25  NA
ATOM     23  CE1 HIS D  12      23.133   7.995  61.476  1.00 49.12 LIG 0.23  A 
ATOM     24 ND1  HIS D  12      21.843   7.755  61.619  1.00 49.92 LIG-0.24  NA
ENDBRANCH 19 20
ENDBRANCH 6 19
ENDBRANCH 4 6
ENDBRANCH 1 2
BRANCH 1 25
ATOM     25  CB  LEU D  11      17.156   2.155  58.462  1.00 47.69 LIG 0.04  C 
BRANCH 25 26
ATOM     26  CG  LEU D  11      15.943   1.366  57.952  1.00 48.05 LIG-0.02  C 
ATOM     27  CD1 LEU D  11      15.612   1.781  56.526  1.00 46.53 LIG 0.01  C 
ATOM     28  CD2 LEU D  11      16.135  -0.128  58.049  1.00 50.43 LIG 0.01  C 
ENDBRANCH 25 26
ENDBRANCH 1 25
BRANCH 1 29
ATOM     29  N   LEU D  11      16.147   3.429  60.273  1.00 47.51 LIG-0.35  N 
ATOM     30  C   LEU D  10      15.113   3.068  61.035  1.00 47.80 LIG 0.24  C 
ATOM     31 O    LEU D  10      15.020   1.963  61.589  1.00 47.07 LIG-0.27  OA
ATOM     32 H    LEU D  11      16.231   4.216  59.935  1.00 47.51 LIG 0.16  HD
BRANCH 30 33
ATOM     33  CA  LEU D  10      14.014   4.111  61.188  1.00 47.63 LIG 0.18  C 
BRANCH 33 34
ATOM     34  CB  LEU D  10      13.241   3.911  62.488  1.00 47.29 LIG 0.04  C 
BRANCH 34 35
ATOM     35  CG  LEU D  10      12.049   2.955  62.362  1.00 46.92 LIG-0.02  C 
ATOM     36  CD1 LEU D  10      11.820   2.154  63.642  1.00 46.83 LIG 0.01  C 
ATOM     37  CD2 LEU D  10      10.800   3.690  62.008  1.00 45.50 LIG 0.01  C 
ENDBRANCH 34 35
ENDBRANCH 33 34
BRANCH 33 38
ATOM     38  N   LEU D  10      13.139   4.083  60.028  1.00 47.82 LIG-0.35  N 
ATOM     39 H    LEU D  10      12.402   3.654  60.140  1.00 47.82 LIG 0.16  HD
ATOM     40  C   ASP D   9      13.494   4.689  58.901  1.00 48.63 LIG 0.26  C 
ATOM     41 O    ASP D   9      14.560   5.283  58.761  1.00 48.10 LIG-0.27  OA
BRANCH 40 42
ATOM     42  CA  ASP D   9      12.507   4.601  57.766  1.00 49.27 LIG 0.41  C 
ATOM     43  N   ASP D   9      12.342   5.968  57.209  1.00 49.86 LIG 0.61  N 
BRANCH 42 44
ATOM     44  CB  ASP D   9      13.056   3.653  56.710  1.00 50.02 LIG 0.16  C 
BRANCH 44 45
ATOM     45  CG  ASP D   9      13.429   4.357  55.438  1.00 50.84 LIG 0.17  C 
ATOM     46 OD1  ASP D   9      12.844   4.034  54.390  1.00 53.44 LIG-0.65  OA
ATOM     47 OD2  ASP D   9      14.282   5.272  55.391  1.00 53.75 LIG-0.65  OA
ENDBRANCH 44 45
ENDBRANCH 42 44
ENDBRANCH 40 42
ENDBRANCH 33 38
ENDBRANCH 30 33
ENDBRANCH 1 29
TORSDOF 19
ENDMDL
MODEL 17
USER: ADFR SOLUTION from run 152
USER: SCORE 16.512508 LL:  -4.529 LR: -12.547 RR:   0.000 FEB:  -6.879
USER: RMSD 6.333151
USER: SEED 151
USER: STATUS no improvement in best in 8 clusters for 5 generations
USER: GENES 21
USER: genes 0 Translation |==|  0.49459 0.46522 0.69543
USER: genes 1 Rotation |==|  0.24360 0.17037 0.23355 0.56785
USER: genes 2 Torsion [N]-CA--C-[N] |==|  0.91244
USER: genes 3 Torsion [C]-N--CA-[C] |==|  0.66111
USER: genes 4 Torsion [N]-CA--C-[N] |==|  0.85326
USER: genes 5 Torsion [C]-N--CA-[CB] |==|  0.20575
USER: genes 6 Torsion [N]-CA--CB-[CG1] |==|  0.79576
USER: genes 7 Torsion [CA]-CB--CG1-[CD1] |==|  0.37152
USER: genes 8 Torsion [N]-CA--C-[OXT] |==|  0.84170
USER: genes 9 Torsion [N]-CA--CB-[CG] |==|  0.66461
USER: genes 10 Torsion [CA]-CB--CG-[CD2] |==|  0.06715
USER: genes 11 Torsion [C]-CA--CB-[CG] |==|  0.25798
USER: genes 12 Torsion [CA]-CB--CG-[CD1] |==|  0.47381
USER: genes 13 Torsion [C]-CA--N-[C] |==|  0.81976
USER: genes 14 Torsion [N]-C--CA-[N] |==|  0.44044
USER: genes 15 Torsion [C]-CA--CB-[CG] |==|  0.21718
USER: genes 16 Torsion [CA]-CB--CG-[CD2] |==|  0.71259
USER: genes 17 Torsion [C]-CA--N-[C] |==|  0.72158
USER: genes 18 Torsion [N]-C--CA-[N] |==|  0.21640
USER: genes 19 Torsion [C]-CA--CB-[CG] |==|  0.31237
USER: genes 20 Torsion [CA]-CB--CG-[OD1] |==|  0.18168
ROOT
ATOM      1  CA  LEU D  11      18.677   6.377  67.288  1.00 47.89 LIG 0.18  C 
ENDROOT
BRANCH 1 2
ATOM      2  C   LEU D  11      19.017   5.203  66.380  1.00 48.14 LIG 0.24  C 
ATOM      3 O    LEU D  11      19.191   4.082  66.838  1.00 47.13 LIG-0.27  OA
ATOM      4  N   HIS D  12      19.151   5.480  65.088  1.00 49.28 LIG-0.35  N 
ATOM      5 H    HIS D  12      19.025   6.257  64.742  1.00 49.28 LIG 0.16  HD
BRANCH 4 6
ATOM      6  CA  HIS D  12      19.535   4.440  64.139  1.00 50.49 LIG 0.18  C 
BRANCH 6 7
ATOM      7  C   HIS D  12      20.813   4.803  63.387  1.00 51.38 LIG 0.24  C 
ATOM      8  N   ILE D  13      20.789   5.989  62.802  1.00 53.16 LIG-0.34  N 
ATOM      9 H    ILE D  13      20.089   6.487  62.829  1.00 53.16 LIG 0.16  HD
ATOM     10 O    HIS D  12      21.769   4.041  63.354  1.00 51.57 LIG-0.27  OA
BRANCH 8 11
ATOM     11  CA  ILE D  13      21.886   6.623  62.051  1.00 55.12 LIG 0.19  C 
BRANCH 11 12
ATOM     12  CB  ILE D  13      22.126   5.996  60.630  1.00 55.01 LIG 0.01  C 
ATOM     13  CG2 ILE D  13      22.947   6.913  59.705  1.00 56.15 LIG 0.01  C 
BRANCH 12 14
ATOM     14  CG1 ILE D  13      22.795   4.624  60.767  1.00 55.50 LIG 0.00  C 
ATOM     15  CD1 ILE D  13      22.157   3.512  59.891  1.00 55.45 LIG 0.01  C 
ENDBRANCH 12 14
ENDBRANCH 11 12
BRANCH 11 16
ATOM     16  C   ILE D  13      21.993   8.151  62.048  1.00 55.63 LIG 0.20  C 
ATOM     17 O    ILE D  13      23.008   8.721  62.457  1.00 56.94 LIG-0.65  OA
ATOM     18 OXT  ILE D  13      21.016   8.797  61.645  1.00 55.86 LIG-0.65  OA
ENDBRANCH 11 16
ENDBRANCH 8 11
ENDBRANCH 6 7
BRANCH 6 19
ATOM     19  CB  HIS D  12      18.406   4.150  63.148  1.00 50.55 LIG 0.10  C 
BRANCH 19 20
ATOM     20  CG  HIS D  12      17.932   2.731  63.172  1.00 49.61 LIG 0.06  A 
ATOM     21  CD2 HIS D  12      17.987   1.787  64.141  1.00 48.49 LIG 0.14  A 
ATOM     22 NE2  HIS D  12      17.400   0.654  63.635  1.00 48.62 LIG-0.25  NA
ATOM     23  CE1 HIS D  12      16.977   0.899  62.409  1.00 49.12 LIG 0.23  A 
ATOM     24 ND1  HIS D  12      17.290   2.145  62.103  1.00 49.92 LIG-0.24  NA
ENDBRANCH 19 20
ENDBRANCH 6 19
ENDBRANCH 4 6
ENDBRANCH 1 2
BRANCH 1 25
ATOM     25  CB  LEU D  11      17.157   6.482  67.362  1.00 47.69 LIG 0.04  C 
BRANCH 25 26
ATOM     26  CG  LEU D  11      16.411   5.768  68.496  1.00 48.05 LIG-0.02  C 
ATOM     27  CD1 LEU D  11      14.951   6.195  68.512  1.00 46.53 LIG 0.01  C 
ATOM     28  CD2 LEU D  11      16.533   4.265  68.419  1.00 50.43 LIG 0.01  C 
ENDBRANCH 25 26
ENDBRANCH 1 25
BRANCH 1 29
ATOM     29  N   LEU D  11      19.229   7.643  66.830  1.00 47.51 LIG-0.35  N 
ATOM     30  C   LEU D  10      20.541   7.880  66.768  1.00 47.80 LIG 0.24  C 
ATOM     31 O    LEU D  10      21.407   7.029  67.016  1.00 47.07 LIG-0.27  OA
ATOM     32 H    LEU D  11      18.634   8.221  66.606  1.00 47.51 LIG 0.16  HD
BRANCH 30 33
ATOM     33  CA  LEU D  10      20.934   9.297  66.370  1.00 47.63 LIG 0.18  C 
BRANCH 33 34
ATOM     34  CB  LEU D  10      20.769   9.513  64.868  1.00 47.29 LIG 0.04  C 
BRANCH 34 35
ATOM     35  CG  LEU D  10      19.319   9.746  64.429  1.00 46.92 LIG-0.02  C 
ATOM     36  CD1 LEU D  10      19.195  10.926  63.467  1.00 46.83 LIG 0.01  C 
ATOM     37  CD2 LEU D  10      18.743   8.526  63.792  1.00 45.50 LIG 0.01  C 
ENDBRANCH 34 35
ENDBRANCH 33 34
BRANCH 33 38
ATOM     38  N   LEU D  10      22.288   9.578  66.813  1.00 47.82 LIG-0.35  N 
ATOM     39 H    LEU D  10      22.908   9.259  66.310  1.00 47.82 LIG 0.16  HD
ATOM     40  C   ASP D   9      22.504  10.281  67.918  1.00 48.63 LIG 0.26  C 
ATOM     41 O    ASP D   9      21.601  10.716  68.629  1.00 48.10 LIG-0.27  OA
BRANCH 40 42
ATOM     42  CA  ASP D   9      23.947  10.519  68.278  1.00 49.27 LIG 0.41  C 
ATOM     43  N   ASP D   9      24.456  11.606  67.403  1.00 49.86 LIG 0.61  N 
BRANCH 42 44
ATOM     44  CB  ASP D   9      24.028  10.926  69.742  1.00 50.02 LIG 0.16  C 
BRANCH 44 45
ATOM     45  CG  ASP D   9      24.703   9.892  70.594  1.00 50.84 LIG 0.17  C 
ATOM     46 OD1  ASP D   9      25.907   9.655  70.394  1.00 53.44 LIG-0.65  OA
ATOM     47 OD2  ASP D   9      24.116   9.277  71.513  1.00 53.75 LIG-0.65  OA
ENDBRANCH 44 45
ENDBRANCH 42 44
ENDBRANCH 40 42
ENDBRANCH 33 38
ENDBRANCH 30 33
ENDBRANCH 1 29
TORSDOF 19
ENDMDL
MODEL 18
USER: ADFR SOLUTION from run 40
USER: SCORE 16.121300 LL:  -4.609 LR: -12.554 RR:   0.000 FEB:  -6.886
USER: RMSD 6.972475
USER: SEED 39
USER: STATUS no improvement in best in 9 clusters for 5 generations
USER: GENES 21
USER: genes 0 Translation |==|  0.45897 0.28035 0.42243
USER: genes 1 Rotation |==|  0.17587 0.35269 0.30832 0.79411
USER: genes 2 Torsion [N]-CA--C-[N] |==|  0.23955
USER: genes 3 Torsion [C]-N--CA-[C] |==|  0.19436
USER: genes 4 Torsion [N]-CA--C-[N] |==|  0.65751
USER: genes 5 Torsion [C]-N--CA-[CB] |==|  0.79794
USER: genes 6 Torsion [N]-CA--CB-[CG1] |==|  0.94373
USER: genes 7 Torsion [CA]-CB--CG1-[CD1] |==|  0.65073
USER: genes 8 Torsion [N]-CA--C-[OXT] |==|  0.62601
USER: genes 9 Torsion [N]-CA--CB-[CG] |==|  0.55835
USER: genes 10 Torsion [CA]-CB--CG-[CD2] |==|  0.00736
USER: genes 11 Torsion [C]-CA--CB-[CG] |==|  0.22935
USER: genes 12 Torsion [CA]-CB--CG-[CD1] |==|  0.37549
USER: genes 13 Torsion [C]-CA--N-[C] |==|  0.73967
USER: genes 14 Torsion [N]-C--CA-[N] |==|  0.47221
USER: genes 15 Torsion [C]-CA--CB-[CG] |==|  0.00126
USER: genes 16 Torsion [CA]-CB--CG-[CD2] |==|  0.64805
USER: genes 17 Torsion [C]-CA--N-[C] |==|  0.77312
USER: genes 18 Torsion [N]-C--CA-[N] |==|  0.00180
USER: genes 19 Torsion [C]-CA--CB-[CG] |==|  0.54494
USER: genes 20 Torsion [CA]-CB--CG-[OD1] |==|  0.19739
ROOT
ATOM      1  CA  LEU D  11      17.982   2.911  61.146  1.00 47.89 LIG 0.18  C 
ENDROOT
BRANCH 1 2
ATOM      2  C   LEU D  11      17.042   2.528  60.010  1.00 48.14 LIG 0.24  C 
ATOM      3 O    LEU D  11      15.834   2.455  60.190  1.00 47.13 LIG-0.27  OA
ATOM      4  N   HIS D  12      17.614   2.244  58.845  1.00 49.28 LIG-0.35  N 
ATOM      5 H    HIS D  12      18.458   2.297  58.693  1.00 49.28 LIG 0.16  HD
BRANCH 4 6
ATOM      6  CA  HIS D  12      16.810   1.808  57.708  1.00 50.49 LIG 0.18  C 
BRANCH 6 7
ATOM      7  C   HIS D  12      15.948   2.940  57.155  1.00 51.38 LIG 0.24  C 
ATOM      8  N   ILE D  13      14.652   2.678  57.122  1.00 53.16 LIG-0.34  N 
ATOM      9 H    ILE D  13      14.344   1.914  57.369  1.00 53.16 LIG 0.16  HD
ATOM     10 O    HIS D  12      16.444   3.996  56.789  1.00 51.57 LIG-0.27  OA
BRANCH 8 11
ATOM     11  CA  ILE D  13      13.580   3.590  56.688  1.00 55.12 LIG 0.19  C 
BRANCH 11 12
ATOM     12  CB  ILE D  13      13.283   4.750  57.706  1.00 55.01 LIG 0.01  C 
ATOM     13  CG2 ILE D  13      11.790   5.121  57.768  1.00 56.15 LIG 0.01  C 
BRANCH 12 14
ATOM     14  CG1 ILE D  13      13.808   4.375  59.096  1.00 55.50 LIG 0.00  C 
ATOM     15  CD1 ILE D  13      12.745   4.461  60.225  1.00 55.45 LIG 0.01  C 
ENDBRANCH 12 14
ENDBRANCH 11 12
BRANCH 11 16
ATOM     16  C   ILE D  13      13.560   4.065  55.232  1.00 55.63 LIG 0.20  C 
ATOM     17 O    ILE D  13      13.760   3.280  54.301  1.00 56.94 LIG-0.65  OA
ATOM     18 OXT  ILE D  13      13.361   5.269  55.020  1.00 55.86 LIG-0.65  OA
ENDBRANCH 11 16
ENDBRANCH 8 11
ENDBRANCH 6 7
BRANCH 6 19
ATOM     19  CB  HIS D  12      15.933   0.609  58.076  1.00 50.55 LIG 0.10  C 
BRANCH 19 20
ATOM     20  CG  HIS D  12      15.477  -0.189  56.896  1.00 49.61 LIG 0.06  A 
ATOM     21  CD2 HIS D  12      15.742  -0.062  55.574  1.00 48.49 LIG 0.14  A 
ATOM     22 NE2  HIS D  12      15.066  -1.066  54.928  1.00 48.62 LIG-0.25  NA
ATOM     23  CE1 HIS D  12      14.428  -1.800  55.821  1.00 49.12 LIG 0.23  A 
ATOM     24 ND1  HIS D  12      14.655  -1.289  57.016  1.00 49.92 LIG-0.24  NA
ENDBRANCH 19 20
ENDBRANCH 6 19
ENDBRANCH 4 6
ENDBRANCH 1 2
BRANCH 1 25
ATOM     25  CB  LEU D  11      17.307   2.527  62.458  1.00 47.69 LIG 0.04  C 
BRANCH 25 26
ATOM     26  CG  LEU D  11      17.401   1.079  62.954  1.00 48.05 LIG-0.02  C 
ATOM     27  CD1 LEU D  11      17.729   1.055  64.440  1.00 46.53 LIG 0.01  C 
ATOM     28  CD2 LEU D  11      16.153   0.279  62.663  1.00 50.43 LIG 0.01  C 
ENDBRANCH 25 26
ENDBRANCH 1 25
BRANCH 1 29
ATOM     29  N   LEU D  11      18.317   4.327  61.167  1.00 47.51 LIG-0.35  N 
ATOM     30  C   LEU D  10      19.405   4.823  60.576  1.00 47.80 LIG 0.24  C 
ATOM     31 O    LEU D  10      20.186   4.146  59.892  1.00 47.07 LIG-0.27  OA
ATOM     32 H    LEU D  11      17.750   4.812  61.596  1.00 47.51 LIG 0.16  HD
BRANCH 30 33
ATOM     33  CA  LEU D  10      19.651   6.310  60.795  1.00 47.63 LIG 0.18  C 
BRANCH 33 34
ATOM     34  CB  LEU D  10      18.555   7.152  60.150  1.00 47.29 LIG 0.04  C 
BRANCH 34 35
ATOM     35  CG  LEU D  10      17.469   6.327  59.450  1.00 46.92 LIG-0.02  C 
ATOM     36  CD1 LEU D  10      16.134   6.397  60.188  1.00 46.83 LIG 0.01  C 
ATOM     37  CD2 LEU D  10      17.278   6.770  58.038  1.00 45.50 LIG 0.01  C 
ENDBRANCH 34 35
ENDBRANCH 33 34
BRANCH 33 38
ATOM     38  N   LEU D  10      20.971   6.670  60.306  1.00 47.82 LIG-0.35  N 
ATOM     39 H    LEU D  10      20.984   7.020  59.521  1.00 47.82 LIG 0.16  HD
ATOM     40  C   ASP D   9      22.048   6.458  61.052  1.00 48.63 LIG 0.26  C 
ATOM     41 O    ASP D   9      22.007   5.942  62.167  1.00 48.10 LIG-0.27  OA
BRANCH 40 42
ATOM     42  CA  ASP D   9      23.363   6.877  60.447  1.00 49.27 LIG 0.41  C 
ATOM     43  N   ASP D   9      23.077   7.462  59.112  1.00 49.86 LIG 0.61  N 
BRANCH 42 44
ATOM     44  CB  ASP D   9      24.015   7.909  61.357  1.00 50.02 LIG 0.16  C 
BRANCH 44 45
ATOM     45  CG  ASP D   9      25.115   8.668  60.675  1.00 50.84 LIG 0.17  C 
ATOM     46 OD1  ASP D   9      24.809   9.490  59.795  1.00 53.44 LIG-0.65  OA
ATOM     47 OD2  ASP D   9      26.324   8.529  60.972  1.00 53.75 LIG-0.65  OA
ENDBRANCH 44 45
ENDBRANCH 42 44
ENDBRANCH 40 42
ENDBRANCH 33 38
ENDBRANCH 30 33
ENDBRANCH 1 29
TORSDOF 19
ENDMDL
MODEL 19
USER: ADFR SOLUTION from run 58
USER: SCORE 16.026008 LL:  -4.490 LR: -12.536 RR:   0.000 FEB:  -6.868
USER: RMSD 12.203961
USER: SEED 57
USER: STATUS no improvement in best in 4 clusters for 5 generations
USER: GENES 21
USER: genes 0 Translation |==|  0.50614 0.63777 0.74560
USER: genes 1 Rotation |==|  0.51580 0.14090 0.83350 0.59786
USER: genes 2 Torsion [N]-CA--C-[N] |==|  0.56968
USER: genes 3 Torsion [C]-N--CA-[C] |==|  0.68941
USER: genes 4 Torsion [N]-CA--C-[N] |==|  0.39314
USER: genes 5 Torsion [C]-N--CA-[CB] |==|  0.77005
USER: genes 6 Torsion [N]-CA--CB-[CG1] |==|  0.29241
USER: genes 7 Torsion [CA]-CB--CG1-[CD1] |==|  0.73719
USER: genes 8 Torsion [N]-CA--C-[OXT] |==|  0.02443
USER: genes 9 Torsion [N]-CA--CB-[CG] |==|  0.19126
USER: genes 10 Torsion [CA]-CB--CG-[CD2] |==|  0.82557
USER: genes 11 Torsion [C]-CA--CB-[CG] |==|  0.32426
USER: genes 12 Torsion [CA]-CB--CG-[CD1] |==|  0.90905
USER: genes 13 Torsion [C]-CA--N-[C] |==|  0.54931
USER: genes 14 Torsion [N]-C--CA-[N] |==|  0.45065
USER: genes 15 Torsion [C]-CA--CB-[CG] |==|  0.21458
USER: genes 16 Torsion [CA]-CB--CG-[CD2] |==|  0.58325
USER: genes 17 Torsion [C]-CA--N-[C] |==|  0.55000
USER: genes 18 Torsion [N]-C--CA-[N] |==|  0.12764
USER: genes 19 Torsion [C]-CA--CB-[CG] |==|  0.59138
USER: genes 20 Torsion [CA]-CB--CG-[OD1] |==|  0.27006
ROOT
ATOM      1  CA  LEU D  11      18.902   9.612  68.417  1.00 47.89 LIG 0.18  C 
ENDROOT
BRANCH 1 2
ATOM      2  C   LEU D  11      20.379   9.779  68.086  1.00 48.14 LIG 0.24  C 
ATOM      3 O    LEU D  11      20.967   8.956  67.397  1.00 47.13 LIG-0.27  OA
ATOM      4  N   HIS D  12      20.984  10.835  68.619  1.00 49.28 LIG-0.35  N 
ATOM      5 H    HIS D  12      20.590  11.430  69.098  1.00 49.28 LIG 0.16  HD
BRANCH 4 6
ATOM      6  CA  HIS D  12      22.412  11.056  68.415  1.00 50.49 LIG 0.18  C 
BRANCH 6 7
ATOM      7  C   HIS D  12      23.203  10.884  69.710  1.00 51.38 LIG 0.24  C 
ATOM      8  N   ILE D  13      24.377  10.291  69.562  1.00 53.16 LIG-0.34  N 
ATOM      9 H    ILE D  13      24.640  10.006  68.794  1.00 53.16 LIG 0.16  HD
ATOM     10 O    HIS D  12      22.765  11.279  70.780  1.00 51.57 LIG-0.27  OA
BRANCH 8 11
ATOM     11  CA  ILE D  13      25.372  10.033  70.616  1.00 55.12 LIG 0.19  C 
BRANCH 11 12
ATOM     12  CB  ILE D  13      26.296  11.265  70.929  1.00 55.01 LIG 0.01  C 
ATOM     13  CG2 ILE D  13      26.304  12.308  69.796  1.00 56.15 LIG 0.01  C 
BRANCH 12 14
ATOM     14  CG1 ILE D  13      25.883  11.908  72.257  1.00 55.50 LIG 0.00  C 
ATOM     15  CD1 ILE D  13      24.899  13.100  72.110  1.00 55.45 LIG 0.01  C 
ENDBRANCH 12 14
ENDBRANCH 11 12
BRANCH 11 16
ATOM     16  C   ILE D  13      24.932   9.289  71.880  1.00 55.63 LIG 0.20  C 
ATOM     17 O    ILE D  13      25.689   9.168  72.846  1.00 56.94 LIG-0.65  OA
ATOM     18 OXT  ILE D  13      23.798   8.789  71.891  1.00 55.86 LIG-0.65  OA
ENDBRANCH 11 16
ENDBRANCH 8 11
ENDBRANCH 6 7
BRANCH 6 19
ATOM     19  CB  HIS D  12      22.678  12.439  67.816  1.00 50.55 LIG 0.10  C 
BRANCH 19 20
ATOM     20  CG  HIS D  12      22.390  13.569  68.753  1.00 49.61 LIG 0.06  A 
ATOM     21  CD2 HIS D  12      21.238  13.972  69.338  1.00 48.49 LIG 0.14  A 
ATOM     22 NE2  HIS D  12      21.538  15.065  70.112  1.00 48.62 LIG-0.25  NA
ATOM     23  CE1 HIS D  12      22.833  15.310  70.026  1.00 49.12 LIG 0.23  A 
ATOM     24 ND1  HIS D  12      23.370  14.424  69.208  1.00 49.92 LIG-0.24  NA
ENDBRANCH 19 20
ENDBRANCH 6 19
ENDBRANCH 4 6
ENDBRANCH 1 2
BRANCH 1 25
ATOM     25  CB  LEU D  11      18.680  10.132  69.833  1.00 47.69 LIG 0.04  C 
BRANCH 25 26
ATOM     26  CG  LEU D  11      17.765  11.343  70.052  1.00 48.05 LIG-0.02  C 
ATOM     27  CD1 LEU D  11      17.859  12.291  68.865  1.00 46.53 LIG 0.01  C 
ATOM     28  CD2 LEU D  11      16.331  10.952  70.318  1.00 50.43 LIG 0.01  C 
ENDBRANCH 25 26
ENDBRANCH 1 25
BRANCH 1 29
ATOM     29  N   LEU D  11      18.440   8.235  68.327  1.00 47.51 LIG-0.35  N 
ATOM     30  C   LEU D  10      17.151   7.908  68.235  1.00 47.80 LIG 0.24  C 
ATOM     31 O    LEU D  10      16.235   8.738  68.139  1.00 47.07 LIG-0.27  OA
ATOM     32 H    LEU D  11      19.075   7.654  68.340  1.00 47.51 LIG 0.16  HD
BRANCH 30 33
ATOM     33  CA  LEU D  10      16.848   6.415  68.262  1.00 47.63 LIG 0.18  C 
BRANCH 33 34
ATOM     34  CB  LEU D  10      17.247   5.748  66.949  1.00 47.29 LIG 0.04  C 
BRANCH 34 35
ATOM     35  CG  LEU D  10      18.755   5.505  66.809  1.00 46.92 LIG-0.02  C 
ATOM     36  CD1 LEU D  10      19.178   4.171  67.419  1.00 46.83 LIG 0.01  C 
ATOM     37  CD2 LEU D  10      19.181   5.553  65.379  1.00 45.50 LIG 0.01  C 
ENDBRANCH 34 35
ENDBRANCH 33 34
BRANCH 33 38
ATOM     38  N   LEU D  10      15.446   6.199  68.575  1.00 47.82 LIG-0.35  N 
ATOM     39 H    LEU D  10      14.939   6.885  68.462  1.00 47.82 LIG 0.16  HD
ATOM     40  C   ASP D   9      15.024   5.015  69.000  1.00 48.63 LIG 0.26  C 
ATOM     41 O    ASP D   9      15.770   4.053  69.167  1.00 48.10 LIG-0.27  OA
BRANCH 40 42
ATOM     42  CA  ASP D   9      13.549   4.903  69.287  1.00 49.27 LIG 0.41  C 
ATOM     43  N   ASP D   9      12.822   5.526  68.151  1.00 49.86 LIG 0.61  N 
BRANCH 42 44
ATOM     44  CB  ASP D   9      13.184   3.431  69.416  1.00 50.02 LIG 0.16  C 
BRANCH 44 45
ATOM     45  CG  ASP D   9      11.796   3.135  68.928  1.00 50.84 LIG 0.17  C 
ATOM     46 OD1  ASP D   9      11.657   2.701  67.772  1.00 53.44 LIG-0.65  OA
ATOM     47 OD2  ASP D   9      10.778   3.279  69.641  1.00 53.75 LIG-0.65  OA
ENDBRANCH 44 45
ENDBRANCH 42 44
ENDBRANCH 40 42
ENDBRANCH 33 38
ENDBRANCH 30 33
ENDBRANCH 1 29
TORSDOF 19
ENDMDL
MODEL 20
USER: ADFR SOLUTION from run 156
USER: SCORE 16.245599 LL:  -4.328 LR: -12.500 RR:   0.000 FEB:  -6.833
USER: RMSD 5.340149
USER: SEED 155
USER: STATUS no improvement in best in 18 clusters for 5 generations
USER: GENES 21
USER: genes 0 Translation |==|  0.50963 0.47378 0.64303
USER: genes 1 Rotation |==|  0.25103 0.26054 0.22302 0.73229
USER: genes 2 Torsion [N]-CA--C-[N] |==|  0.29651
USER: genes 3 Torsion [C]-N--CA-[C] |==|  0.81651
USER: genes 4 Torsion [N]-CA--C-[N] |==|  0.44925
USER: genes 5 Torsion [C]-N--CA-[CB] |==|  0.15441
USER: genes 6 Torsion [N]-CA--CB-[CG1] |==|  0.64126
USER: genes 7 Torsion [CA]-CB--CG1-[CD1] |==|  0.14707
USER: genes 8 Torsion [N]-CA--C-[OXT] |==|  0.99678
USER: genes 9 Torsion [N]-CA--CB-[CG] |==|  0.69645
USER: genes 10 Torsion [CA]-CB--CG-[CD2] |==|  0.66400
USER: genes 11 Torsion [C]-CA--CB-[CG] |==|  0.26349
USER: genes 12 Torsion [CA]-CB--CG-[CD1] |==|  0.98677
USER: genes 13 Torsion [C]-CA--N-[C] |==|  0.70002
USER: genes 14 Torsion [N]-C--CA-[N] |==|  0.38664
USER: genes 15 Torsion [C]-CA--CB-[CG] |==|  0.88478
USER: genes 16 Torsion [CA]-CB--CG-[CD2] |==|  0.71489
USER: genes 17 Torsion [C]-CA--N-[C] |==|  0.56982
USER: genes 18 Torsion [N]-C--CA-[N] |==|  0.72316
USER: genes 19 Torsion [C]-CA--CB-[CG] |==|  0.58116
USER: genes 20 Torsion [CA]-CB--CG-[OD1] |==|  0.91257
ROOT
ATOM      1  CA  LEU D  11      18.970   6.537  66.109  1.00 47.89 LIG 0.18  C 
ENDROOT
BRANCH 1 2
ATOM      2  C   LEU D  11      18.899   6.104  64.651  1.00 48.14 LIG 0.24  C 
ATOM      3 O    LEU D  11      17.907   6.336  63.973  1.00 47.13 LIG-0.27  OA
ATOM      4  N   HIS D  12      19.948   5.436  64.185  1.00 49.28 LIG-0.35  N 
ATOM      5 H    HIS D  12      20.659   5.270  64.640  1.00 49.28 LIG 0.16  HD
BRANCH 4 6
ATOM      6  CA  HIS D  12      19.958   4.923  62.819  1.00 50.49 LIG 0.18  C 
BRANCH 6 7
ATOM      7  C   HIS D  12      18.912   3.829  62.617  1.00 51.38 LIG 0.24  C 
ATOM      8  N   ILE D  13      18.603   3.591  61.352  1.00 53.16 LIG-0.34  N 
ATOM      9 H    ILE D  13      18.953   4.048  60.713  1.00 53.16 LIG 0.16  HD
ATOM     10 O    HIS D  12      18.424   3.234  63.566  1.00 51.57 LIG-0.27  OA
BRANCH 8 11
ATOM     11  CA  ILE D  13      17.669   2.569  60.852  1.00 55.12 LIG 0.19  C 
BRANCH 11 12
ATOM     12  CB  ILE D  13      16.228   2.671  61.471  1.00 55.01 LIG 0.01  C 
ATOM     13  CG2 ILE D  13      15.190   3.224  60.477  1.00 56.15 LIG 0.01  C 
BRANCH 12 14
ATOM     14  CG1 ILE D  13      15.790   1.305  62.010  1.00 55.50 LIG 0.00  C 
ATOM     15  CD1 ILE D  13      16.799   0.652  62.992  1.00 55.45 LIG 0.01  C 
ENDBRANCH 12 14
ENDBRANCH 11 12
BRANCH 11 16
ATOM     16  C   ILE D  13      17.647   2.259  59.353  1.00 55.63 LIG 0.20  C 
ATOM     17 O    ILE D  13      16.916   1.378  58.893  1.00 56.94 LIG-0.65  OA
ATOM     18 OXT  ILE D  13      18.408   2.904  58.619  1.00 55.86 LIG-0.65  OA
ENDBRANCH 11 16
ENDBRANCH 8 11
ENDBRANCH 6 7
BRANCH 6 19
ATOM     19  CB  HIS D  12      21.344   4.404  62.432  1.00 50.55 LIG 0.10  C 
BRANCH 19 20
ATOM     20  CG  HIS D  12      22.052   5.262  61.431  1.00 49.61 LIG 0.06  A 
ATOM     21  CD2 HIS D  12      22.529   4.984  60.195  1.00 48.49 LIG 0.14  A 
ATOM     22 NE2  HIS D  12      23.087   6.140  59.708  1.00 48.62 LIG-0.25  NA
ATOM     23  CE1 HIS D  12      22.937   7.100  60.602  1.00 49.12 LIG 0.23  A 
ATOM     24 ND1  HIS D  12      22.319   6.595  61.654  1.00 49.92 LIG-0.24  NA
ENDBRANCH 19 20
ENDBRANCH 6 19
ENDBRANCH 4 6
ENDBRANCH 1 2
BRANCH 1 25
ATOM     25  CB  LEU D  11      17.656   6.146  66.775  1.00 47.69 LIG 0.04  C 
BRANCH 25 26
ATOM     26  CG  LEU D  11      17.565   4.812  67.527  1.00 48.05 LIG-0.02  C 
ATOM     27  CD1 LEU D  11      18.860   4.029  67.362  1.00 46.53 LIG 0.01  C 
ATOM     28  CD2 LEU D  11      17.224   4.987  68.988  1.00 50.43 LIG 0.01  C 
ENDBRANCH 25 26
ENDBRANCH 1 25
BRANCH 1 29
ATOM     29  N   LEU D  11      19.194   7.965  66.279  1.00 47.51 LIG-0.35  N 
ATOM     30  C   LEU D  10      20.352   8.471  66.705  1.00 47.80 LIG 0.24  C 
ATOM     31 O    LEU D  10      21.364   7.788  66.921  1.00 47.07 LIG-0.27  OA
ATOM     32 H    LEU D  11      18.512   8.450  66.080  1.00 47.51 LIG 0.16  HD
BRANCH 30 33
ATOM     33  CA  LEU D  10      20.369   9.978  66.927  1.00 47.63 LIG 0.18  C 
BRANCH 33 34
ATOM     34  CB  LEU D  10      20.933  10.708  65.712  1.00 47.29 LIG 0.04  C 
BRANCH 34 35
ATOM     35  CG  LEU D  10      22.154  10.024  65.088  1.00 46.92 LIG-0.02  C 
ATOM     36  CD1 LEU D  10      22.054   9.953  63.566  1.00 46.83 LIG 0.01  C 
ATOM     37  CD2 LEU D  10      23.419  10.720  65.468  1.00 45.50 LIG 0.01  C 
ENDBRANCH 34 35
ENDBRANCH 33 34
BRANCH 33 38
ATOM     38  N   LEU D  10      21.106  10.292  68.139  1.00 47.82 LIG-0.35  N 
ATOM     39 H    LEU D  10      21.692   9.705  68.369  1.00 47.82 LIG 0.16  HD
ATOM     40  C   ASP D   9      20.860  11.411  68.808  1.00 48.63 LIG 0.26  C 
ATOM     41 O    ASP D   9      20.007  12.228  68.467  1.00 48.10 LIG-0.27  OA
BRANCH 40 42
ATOM     42  CA  ASP D   9      21.689  11.637  70.045  1.00 49.27 LIG 0.41  C 
ATOM     43  N   ASP D   9      20.865  11.243  71.217  1.00 49.86 LIG 0.61  N 
BRANCH 42 44
ATOM     44  CB  ASP D   9      22.944  10.780  69.959  1.00 50.02 LIG 0.16  C 
BRANCH 44 45
ATOM     45  CG  ASP D   9      23.460  10.372  71.308  1.00 50.84 LIG 0.17  C 
ATOM     46 OD1  ASP D   9      23.286  11.145  72.265  1.00 53.44 LIG-0.65  OA
ATOM     47 OD2  ASP D   9      24.032   9.278  71.516  1.00 53.75 LIG-0.65  OA
ENDBRANCH 44 45
ENDBRANCH 42 44
ENDBRANCH 40 42
ENDBRANCH 33 38
ENDBRANCH 30 33
ENDBRANCH 1 29
TORSDOF 19
ENDMDL
MODEL 21
USER: ADFR SOLUTION from run 150
USER: SCORE 16.627878 LL:  -5.230 LR: -12.493 RR:   0.000 FEB:  -6.826
USER: RMSD 7.442859
USER: SEED 149
USER: STATUS no improvement in best in 12 clusters for 5 generations
USER: GENES 21
USER: genes 0 Translation |==|  0.46102 0.26768 0.42193
USER: genes 1 Rotation |==|  0.16374 0.36909 0.28924 0.77453
USER: genes 2 Torsion [N]-CA--C-[N] |==|  0.20786
USER: genes 3 Torsion [C]-N--CA-[C] |==|  0.20416
USER: genes 4 Torsion [N]-CA--C-[N] |==|  0.66257
USER: genes 5 Torsion [C]-N--CA-[CB] |==|  0.77258
USER: genes 6 Torsion [N]-CA--CB-[CG1] |==|  0.01004
USER: genes 7 Torsion [CA]-CB--CG1-[CD1] |==|  0.66699
USER: genes 8 Torsion [N]-CA--C-[OXT] |==|  0.74338
USER: genes 9 Torsion [N]-CA--CB-[CG] |==|  0.57054
USER: genes 10 Torsion [CA]-CB--CG-[CD2] |==|  0.99825
USER: genes 11 Torsion [C]-CA--CB-[CG] |==|  0.24589
USER: genes 12 Torsion [CA]-CB--CG-[CD1] |==|  0.36543
USER: genes 13 Torsion [C]-CA--N-[C] |==|  0.73889
USER: genes 14 Torsion [N]-C--CA-[N] |==|  0.91468
USER: genes 15 Torsion [C]-CA--CB-[CG] |==|  0.24737
USER: genes 16 Torsion [CA]-CB--CG-[CD2] |==|  0.12822
USER: genes 17 Torsion [C]-CA--N-[C] |==|  0.82720
USER: genes 18 Torsion [N]-C--CA-[N] |==|  0.57688
USER: genes 19 Torsion [C]-CA--CB-[CG] |==|  0.77457
USER: genes 20 Torsion [CA]-CB--CG-[OD1] |==|  0.64553
ROOT
ATOM      1  CA  LEU D  11      18.022   2.673  61.135  1.00 47.89 LIG 0.18  C 
ENDROOT
BRANCH 1 2
ATOM      2  C   LEU D  11      17.055   2.380  59.995  1.00 48.14 LIG 0.24  C 
ATOM      3 O    LEU D  11      15.854   2.269  60.202  1.00 47.13 LIG-0.27  OA
ATOM      4  N   HIS D  12      17.596   2.216  58.793  1.00 49.28 LIG-0.35  N 
ATOM      5 H    HIS D  12      18.435   2.298  58.623  1.00 49.28 LIG 0.16  HD
BRANCH 4 6
ATOM      6  CA  HIS D  12      16.766   1.872  57.643  1.00 50.49 LIG 0.18  C 
BRANCH 6 7
ATOM      7  C   HIS D  12      15.934   3.062  57.169  1.00 51.38 LIG 0.24  C 
ATOM      8  N   ILE D  13      14.627   2.855  57.174  1.00 53.16 LIG-0.34  N 
ATOM      9 H    ILE D  13      14.296   2.095  57.401  1.00 53.16 LIG 0.16  HD
ATOM     10 O    HIS D  12      16.462   4.110  56.827  1.00 51.57 LIG-0.27  OA
BRANCH 8 11
ATOM     11  CA  ILE D  13      13.581   3.828  56.817  1.00 55.12 LIG 0.19  C 
BRANCH 11 12
ATOM     12  CB  ILE D  13      13.212   4.817  57.981  1.00 55.01 LIG 0.01  C 
ATOM     13  CG2 ILE D  13      11.728   4.735  58.385  1.00 56.15 LIG 0.01  C 
BRANCH 12 14
ATOM     14  CG1 ILE D  13      14.118   4.566  59.191  1.00 55.50 LIG 0.00  C 
ATOM     15  CD1 ILE D  13      13.360   4.161  60.484  1.00 55.45 LIG 0.01  C 
ENDBRANCH 12 14
ENDBRANCH 11 12
BRANCH 11 16
ATOM     16  C   ILE D  13      13.653   4.522  55.454  1.00 55.63 LIG 0.20  C 
ATOM     17 O    ILE D  13      13.166   4.003  54.446  1.00 56.94 LIG-0.65  OA
ATOM     18 OXT  ILE D  13      14.239   5.612  55.391  1.00 55.86 LIG-0.65  OA
ENDBRANCH 11 16
ENDBRANCH 8 11
ENDBRANCH 6 7
BRANCH 6 19
ATOM     19  CB  HIS D  12      15.856   0.682  57.952  1.00 50.55 LIG 0.10  C 
BRANCH 19 20
ATOM     20  CG  HIS D  12      15.445  -0.093  56.741  1.00 49.61 LIG 0.06  A 
ATOM     21  CD2 HIS D  12      15.728   0.083  55.428  1.00 48.49 LIG 0.14  A 
ATOM     22 NE2  HIS D  12      15.096  -0.922  54.740  1.00 48.62 LIG-0.25  NA
ATOM     23  CE1 HIS D  12      14.466  -1.702  55.599  1.00 49.12 LIG 0.23  A 
ATOM     24 ND1  HIS D  12      14.657  -1.221  56.813  1.00 49.92 LIG-0.24  NA
ENDBRANCH 19 20
ENDBRANCH 6 19
ENDBRANCH 4 6
ENDBRANCH 1 2
BRANCH 1 25
ATOM     25  CB  LEU D  11      17.285   2.424  62.446  1.00 47.69 LIG 0.04  C 
BRANCH 25 26
ATOM     26  CG  LEU D  11      17.298   1.018  63.058  1.00 48.05 LIG-0.02  C 
ATOM     27  CD1 LEU D  11      17.660   1.093  64.534  1.00 46.53 LIG 0.01  C 
ATOM     28  CD2 LEU D  11      15.995   0.282  62.859  1.00 50.43 LIG 0.01  C 
ENDBRANCH 25 26
ENDBRANCH 1 25
BRANCH 1 29
ATOM     29  N   LEU D  11      18.540   4.033  61.119  1.00 47.51 LIG-0.35  N 
ATOM     30  C   LEU D  10      19.694   4.361  60.536  1.00 47.80 LIG 0.24  C 
ATOM     31 O    LEU D  10      20.391   3.565  59.891  1.00 47.07 LIG-0.27  OA
ATOM     32 H    LEU D  11      18.035   4.602  61.519  1.00 47.51 LIG 0.16  HD
BRANCH 30 33
ATOM     33  CA  LEU D  10      20.131   5.810  60.714  1.00 47.63 LIG 0.18  C 
BRANCH 33 34
ATOM     34  CB  LEU D  10      21.065   5.961  61.911  1.00 47.29 LIG 0.04  C 
BRANCH 34 35
ATOM     35  CG  LEU D  10      22.547   5.769  61.570  1.00 46.92 LIG-0.02  C 
ATOM     36  CD1 LEU D  10      22.906   4.296  61.388  1.00 46.83 LIG 0.01  C 
ATOM     37  CD2 LEU D  10      22.923   6.525  60.339  1.00 45.50 LIG 0.01  C 
ENDBRANCH 34 35
ENDBRANCH 33 34
BRANCH 33 38
ATOM     38  N   LEU D  10      18.964   6.669  60.825  1.00 47.82 LIG-0.35  N 
ATOM     39 H    LEU D  10      18.893   7.089  61.572  1.00 47.82 LIG 0.16  HD
ATOM     40  C   ASP D   9      18.101   6.767  59.821  1.00 48.63 LIG 0.26  C 
ATOM     41 O    ASP D   9      18.217   6.146  58.767  1.00 48.10 LIG-0.27  OA
BRANCH 40 42
ATOM     42  CA  ASP D   9      16.934   7.693  60.043  1.00 49.27 LIG 0.41  C 
ATOM     43  N   ASP D   9      15.804   7.198  59.215  1.00 49.86 LIG 0.61  N 
BRANCH 42 44
ATOM     44  CB  ASP D   9      16.565   7.673  61.520  1.00 50.02 LIG 0.16  C 
BRANCH 44 45
ATOM     45  CG  ASP D   9      15.717   6.491  61.889  1.00 50.84 LIG 0.17  C 
ATOM     46 OD1  ASP D   9      14.651   6.695  62.495  1.00 53.44 LIG-0.65  OA
ATOM     47 OD2  ASP D   9      16.022   5.314  61.591  1.00 53.75 LIG-0.65  OA
ENDBRANCH 44 45
ENDBRANCH 42 44
ENDBRANCH 40 42
ENDBRANCH 33 38
ENDBRANCH 30 33
ENDBRANCH 1 29
TORSDOF 19
ENDMDL
MODEL 22
USER: ADFR SOLUTION from run 22
USER: SCORE 15.385961 LL:  -4.473 LR: -12.460 RR:   0.000 FEB:  -6.793
USER: RMSD 10.197941
USER: SEED 21
USER: STATUS no improvement in best in 10 clusters for 5 generations
USER: GENES 21
USER: genes 0 Translation |==|  0.58489 0.57179 0.64083
USER: genes 1 Rotation |==|  0.35007 0.95580 0.38070 0.57439
USER: genes 2 Torsion [N]-CA--C-[N] |==|  0.02192
USER: genes 3 Torsion [C]-N--CA-[C] |==|  0.21020
USER: genes 4 Torsion [N]-CA--C-[N] |==|  0.69818
USER: genes 5 Torsion [C]-N--CA-[CB] |==|  0.24599
USER: genes 6 Torsion [N]-CA--CB-[CG1] |==|  0.92634
USER: genes 7 Torsion [CA]-CB--CG1-[CD1] |==|  0.25512
USER: genes 8 Torsion [N]-CA--C-[OXT] |==|  0.37441
USER: genes 9 Torsion [N]-CA--CB-[CG] |==|  0.81818
USER: genes 10 Torsion [CA]-CB--CG-[CD2] |==|  0.73545
USER: genes 11 Torsion [C]-CA--CB-[CG] |==|  0.47426
USER: genes 12 Torsion [CA]-CB--CG-[CD1] |==|  0.31252
USER: genes 13 Torsion [C]-CA--N-[C] |==|  0.57778
USER: genes 14 Torsion [N]-C--CA-[N] |==|  0.87971
USER: genes 15 Torsion [C]-CA--CB-[CG] |==|  0.43060
USER: genes 16 Torsion [CA]-CB--CG-[CD2] |==|  0.24838
USER: genes 17 Torsion [C]-CA--N-[C] |==|  0.84473
USER: genes 18 Torsion [N]-C--CA-[N] |==|  0.79829
USER: genes 19 Torsion [C]-CA--CB-[CG] |==|  0.70646
USER: genes 20 Torsion [CA]-CB--CG-[OD1] |==|  0.21651
ROOT
ATOM      1  CA  LEU D  11      20.437   8.375  66.060  1.00 47.89 LIG 0.18  C 
ENDROOT
BRANCH 1 2
ATOM      2  C   LEU D  11      21.398   9.348  66.731  1.00 48.14 LIG 0.24  C 
ATOM      3 O    LEU D  11      21.176   9.775  67.857  1.00 47.13 LIG-0.27  OA
ATOM      4  N   HIS D  12      22.449   9.725  66.013  1.00 49.28 LIG-0.35  N 
ATOM      5 H    HIS D  12      22.630   9.432  65.225  1.00 49.28 LIG 0.16  HD
BRANCH 4 6
ATOM      6  CA  HIS D  12      23.399  10.700  66.538  1.00 50.49 LIG 0.18  C 
BRANCH 6 7
ATOM      7  C   HIS D  12      24.322  10.083  67.588  1.00 51.38 LIG 0.24  C 
ATOM      8  N   ILE D  13      24.089  10.483  68.827  1.00 53.16 LIG-0.34  N 
ATOM      9 H    ILE D  13      23.482  11.067  69.002  1.00 53.16 LIG 0.16  HD
ATOM     10 O    HIS D  12      25.191   9.281  67.277  1.00 51.57 LIG-0.27  OA
BRANCH 8 11
ATOM     11  CA  ILE D  13      24.782  10.027  70.043  1.00 55.12 LIG 0.19  C 
BRANCH 11 12
ATOM     12  CB  ILE D  13      26.069  10.861  70.389  1.00 55.01 LIG 0.01  C 
ATOM     13  CG2 ILE D  13      27.132  10.035  71.137  1.00 56.15 LIG 0.01  C 
BRANCH 12 14
ATOM     14  CG1 ILE D  13      26.656  11.474  69.114  1.00 55.50 LIG 0.00  C 
ATOM     15  CD1 ILE D  13      26.137  12.902  68.794  1.00 55.45 LIG 0.01  C 
ENDBRANCH 12 14
ENDBRANCH 11 12
BRANCH 11 16
ATOM     16  C   ILE D  13      23.951   9.684  71.283  1.00 55.63 LIG 0.20  C 
ATOM     17 O    ILE D  13      23.055  10.433  71.679  1.00 56.94 LIG-0.65  OA
ATOM     18 OXT  ILE D  13      24.226   8.640  71.891  1.00 55.86 LIG-0.65  OA
ENDBRANCH 11 16
ENDBRANCH 8 11
ENDBRANCH 6 7
BRANCH 6 19
ATOM     19  CB  HIS D  12      22.680  11.918  67.121  1.00 50.55 LIG 0.10  C 
BRANCH 19 20
ATOM     20  CG  HIS D  12      21.938  12.724  66.102  1.00 49.61 LIG 0.06  A 
ATOM     21  CD2 HIS D  12      22.295  13.828  65.404  1.00 48.49 LIG 0.14  A 
ATOM     22 NE2  HIS D  12      21.234  14.157  64.598  1.00 48.62 LIG-0.25  NA
ATOM     23  CE1 HIS D  12      20.269  13.274  64.775  1.00 49.12 LIG 0.23  A 
ATOM     24 ND1  HIS D  12      20.666  12.400  65.682  1.00 49.92 LIG-0.24  NA
ENDBRANCH 19 20
ENDBRANCH 6 19
ENDBRANCH 4 6
ENDBRANCH 1 2
BRANCH 1 25
ATOM     25  CB  LEU D  11      20.208   7.211  67.018  1.00 47.69 LIG 0.04  C 
BRANCH 25 26
ATOM     26  CG  LEU D  11      19.117   6.181  66.698  1.00 48.05 LIG-0.02  C 
ATOM     27  CD1 LEU D  11      19.748   4.834  66.378  1.00 46.53 LIG 0.01  C 
ATOM     28  CD2 LEU D  11      18.096   6.050  67.802  1.00 50.43 LIG 0.01  C 
ENDBRANCH 25 26
ENDBRANCH 1 25
BRANCH 1 29
ATOM     29  N   LEU D  11      20.925   7.867  64.786  1.00 47.51 LIG-0.35  N 
ATOM     30  C   LEU D  10      20.112   7.476  63.803  1.00 47.80 LIG 0.24  C 
ATOM     31 O    LEU D  10      18.877   7.580  63.849  1.00 47.07 LIG-0.27  OA
ATOM     32 H    LEU D  11      21.782   7.842  64.727  1.00 47.51 LIG 0.16  HD
BRANCH 30 33
ATOM     33  CA  LEU D  10      20.797   6.870  62.586  1.00 47.63 LIG 0.18  C 
BRANCH 33 34
ATOM     34  CB  LEU D  10      21.147   5.404  62.823  1.00 47.29 LIG 0.04  C 
BRANCH 34 35
ATOM     35  CG  LEU D  10      21.263   4.578  61.537  1.00 46.92 LIG-0.02  C 
ATOM     36  CD1 LEU D  10      20.292   5.056  60.460  1.00 46.83 LIG 0.01  C 
ATOM     37  CD2 LEU D  10      22.654   4.607  60.997  1.00 45.50 LIG 0.01  C 
ENDBRANCH 34 35
ENDBRANCH 33 34
BRANCH 33 38
ATOM     38  N   LEU D  10      21.967   7.657  62.233  1.00 47.82 LIG-0.35  N 
ATOM     39 H    LEU D  10      22.704   7.215  62.198  1.00 47.82 LIG 0.16  HD
ATOM     40  C   ASP D   9      21.857   8.957  61.990  1.00 48.63 LIG 0.26  C 
ATOM     41 O    ASP D   9      20.794   9.570  62.059  1.00 48.10 LIG-0.27  OA
BRANCH 40 42
ATOM     42  CA  ASP D   9      23.133   9.671  61.626  1.00 49.27 LIG 0.41  C 
ATOM     43  N   ASP D   9      23.952   9.783  62.860  1.00 49.86 LIG 0.61  N 
BRANCH 42 44
ATOM     44  CB  ASP D   9      23.865   8.859  60.567  1.00 50.02 LIG 0.16  C 
BRANCH 44 45
ATOM     45  CG  ASP D   9      25.063   8.139  61.115  1.00 50.84 LIG 0.17  C 
ATOM     46 OD1  ASP D   9      24.879   7.095  61.764  1.00 53.44 LIG-0.65  OA
ATOM     47 OD2  ASP D   9      26.237   8.529  60.926  1.00 53.75 LIG-0.65  OA
ENDBRANCH 44 45
ENDBRANCH 42 44
ENDBRANCH 40 42
ENDBRANCH 33 38
ENDBRANCH 30 33
ENDBRANCH 1 29
TORSDOF 19
ENDMDL
MODEL 23
USER: ADFR SOLUTION from run 150
USER: SCORE 15.584348 LL:  -4.366 LR: -12.420 RR:   0.000 FEB:  -6.752
USER: RMSD 5.794051
USER: SEED 149
USER: STATUS no improvement in best in 12 clusters for 5 generations
USER: GENES 21
USER: genes 0 Translation |==|  0.47872 0.29364 0.38421
USER: genes 1 Rotation |==|  0.23632 0.40424 0.20640 0.79172
USER: genes 2 Torsion [N]-CA--C-[N] |==|  0.85000
USER: genes 3 Torsion [C]-N--CA-[C] |==|  0.19348
USER: genes 4 Torsion [N]-CA--C-[N] |==|  0.64934
USER: genes 5 Torsion [C]-N--CA-[CB] |==|  0.80725
USER: genes 6 Torsion [N]-CA--CB-[CG1] |==|  0.95963
USER: genes 7 Torsion [CA]-CB--CG1-[CD1] |==|  0.44442
USER: genes 8 Torsion [N]-CA--C-[OXT] |==|  0.67870
USER: genes 9 Torsion [N]-CA--CB-[CG] |==|  0.72023
USER: genes 10 Torsion [CA]-CB--CG-[CD2] |==|  0.03196
USER: genes 11 Torsion [C]-CA--CB-[CG] |==|  0.34846
USER: genes 12 Torsion [CA]-CB--CG-[CD1] |==|  0.30849
USER: genes 13 Torsion [C]-CA--N-[C] |==|  0.72687
USER: genes 14 Torsion [N]-C--CA-[N] |==|  0.06766
USER: genes 15 Torsion [C]-CA--CB-[CG] |==|  0.30741
USER: genes 16 Torsion [CA]-CB--CG-[CD2] |==|  0.20258
USER: genes 17 Torsion [C]-CA--N-[C] |==|  0.16805
USER: genes 18 Torsion [N]-C--CA-[N] |==|  0.51267
USER: genes 19 Torsion [C]-CA--CB-[CG] |==|  0.68841
USER: genes 20 Torsion [CA]-CB--CG-[OD1] |==|  0.34447
ROOT
ATOM      1  CA  LEU D  11      18.367   3.160  60.286  1.00 47.89 LIG 0.18  C 
ENDROOT
BRANCH 1 2
ATOM      2  C   LEU D  11      17.720   3.458  58.940  1.00 48.14 LIG 0.24  C 
ATOM      3 O    LEU D  11      18.006   2.805  57.945  1.00 47.13 LIG-0.27  OA
ATOM      4  N   HIS D  12      16.872   4.480  58.910  1.00 49.28 LIG-0.35  N 
ATOM      5 H    HIS D  12      16.649   4.947  59.597  1.00 49.28 LIG 0.16  HD
BRANCH 4 6
ATOM      6  CA  HIS D  12      16.243   4.889  57.659  1.00 50.49 LIG 0.18  C 
BRANCH 6 7
ATOM      7  C   HIS D  12      15.227   3.858  57.172  1.00 51.38 LIG 0.24  C 
ATOM      8  N   ILE D  13      15.419   3.442  55.931  1.00 53.16 LIG-0.34  N 
ATOM      9 H    ILE D  13      16.052   3.762  55.444  1.00 53.16 LIG 0.16  HD
ATOM     10 O    HIS D  12      14.326   3.462  57.897  1.00 51.57 LIG-0.27  OA
BRANCH 8 11
ATOM     11  CA  ILE D  13      14.633   2.424  55.213  1.00 55.12 LIG 0.19  C 
BRANCH 11 12
ATOM     12  CB  ILE D  13      14.833   0.965  55.762  1.00 55.01 LIG 0.01  C 
ATOM     13  CG2 ILE D  13      14.937  -0.086  54.641  1.00 56.15 LIG 0.01  C 
BRANCH 12 14
ATOM     14  CG1 ILE D  13      16.065   0.911  56.673  1.00 55.50 LIG 0.00  C 
ATOM     15  CD1 ILE D  13      16.090  -0.303  57.641  1.00 55.45 LIG 0.01  C 
ENDBRANCH 12 14
ENDBRANCH 11 12
BRANCH 11 16
ATOM     16  C   ILE D  13      13.173   2.728  54.864  1.00 55.63 LIG 0.20  C 
ATOM     17 O    ILE D  13      12.877   3.654  54.106  1.00 56.94 LIG-0.65  OA
ATOM     18 OXT  ILE D  13      12.297   2.028  55.391  1.00 55.86 LIG-0.65  OA
ENDBRANCH 11 16
ENDBRANCH 8 11
ENDBRANCH 6 7
BRANCH 6 19
ATOM     19  CB  HIS D  12      17.287   5.154  56.572  1.00 50.55 LIG 0.10  C 
BRANCH 19 20
ATOM     20  CG  HIS D  12      17.587   6.604  56.364  1.00 49.61 LIG 0.06  A 
ATOM     21  CD2 HIS D  12      17.258   7.698  57.090  1.00 48.49 LIG 0.14  A 
ATOM     22 NE2  HIS D  12      17.794   8.786  56.448  1.00 48.62 LIG-0.25  NA
ATOM     23  CE1 HIS D  12      18.449   8.375  55.379  1.00 49.12 LIG 0.23  A 
ATOM     24 ND1  HIS D  12      18.336   7.062  55.302  1.00 49.92 LIG-0.24  NA
ENDBRANCH 19 20
ENDBRANCH 6 19
ENDBRANCH 4 6
ENDBRANCH 1 2
BRANCH 1 25
ATOM     25  CB  LEU D  11      17.275   2.665  61.228  1.00 47.69 LIG 0.04  C 
BRANCH 25 26
ATOM     26  CG  LEU D  11      17.453   1.318  61.939  1.00 48.05 LIG-0.02  C 
ATOM     27  CD1 LEU D  11      17.658   1.536  63.431  1.00 46.53 LIG 0.01  C 
ATOM     28  CD2 LEU D  11      16.306   0.368  61.686  1.00 50.43 LIG 0.01  C 
ENDBRANCH 25 26
ENDBRANCH 1 25
BRANCH 1 29
ATOM     29  N   LEU D  11      19.033   4.311  60.876  1.00 47.51 LIG-0.35  N 
ATOM     30  C   LEU D  10      20.348   4.514  60.783  1.00 47.80 LIG 0.24  C 
ATOM     31 O    LEU D  10      21.111   3.791  60.127  1.00 47.07 LIG-0.27  OA
ATOM     32 H    LEU D  11      18.501   4.847  61.289  1.00 47.51 LIG 0.16  HD
BRANCH 30 33
ATOM     33  CA  LEU D  10      20.884   5.712  61.555  1.00 47.63 LIG 0.18  C 
BRANCH 33 34
ATOM     34  CB  LEU D  10      22.311   5.466  62.035  1.00 47.29 LIG 0.04  C 
BRANCH 34 35
ATOM     35  CG  LEU D  10      23.363   6.325  61.324  1.00 46.92 LIG-0.02  C 
ATOM     36  CD1 LEU D  10      23.218   6.265  59.804  1.00 46.83 LIG 0.01  C 
ATOM     37  CD2 LEU D  10      23.294   7.747  61.771  1.00 45.50 LIG 0.01  C 
ENDBRANCH 34 35
ENDBRANCH 33 34
BRANCH 33 38
ATOM     38  N   LEU D  10      19.990   6.034  62.655  1.00 47.82 LIG-0.35  N 
ATOM     39 H    LEU D  10      19.647   6.822  62.625  1.00 47.82 LIG 0.16  HD
ATOM     40  C   ASP D   9      19.751   5.145  63.611  1.00 48.63 LIG 0.26  C 
ATOM     41 O    ASP D   9      20.265   4.029  63.640  1.00 48.10 LIG-0.27  OA
BRANCH 40 42
ATOM     42  CA  ASP D   9      18.803   5.583  64.697  1.00 49.27 LIG 0.41  C 
ATOM     43  N   ASP D   9      18.756   4.502  65.716  1.00 49.86 LIG 0.61  N 
BRANCH 42 44
ATOM     44  CB  ASP D   9      19.321   6.876  65.309  1.00 50.02 LIG 0.16  C 
BRANCH 44 45
ATOM     45  CG  ASP D   9      19.781   6.702  66.727  1.00 50.84 LIG 0.17  C 
ATOM     46 OD1  ASP D   9      20.944   7.031  67.015  1.00 53.44 LIG-0.65  OA
ATOM     47 OD2  ASP D   9      19.039   6.265  67.635  1.00 53.75 LIG-0.65  OA
ENDBRANCH 44 45
ENDBRANCH 42 44
ENDBRANCH 40 42
ENDBRANCH 33 38
ENDBRANCH 30 33
ENDBRANCH 1 29
TORSDOF 19
ENDMDL
MODEL 24
USER: ADFR SOLUTION from run 96
USER: SCORE 15.619722 LL:  -4.466 LR: -12.414 RR:   0.000 FEB:  -6.747
USER: RMSD 4.388818
USER: SEED 95
USER: STATUS no improvement in best in 8 clusters for 5 generations
USER: GENES 21
USER: genes 0 Translation |==|  0.60131 0.38645 0.42679
USER: genes 1 Rotation |==|  0.49548 0.45869 0.70414 0.95453
USER: genes 2 Torsion [N]-CA--C-[N] |==|  0.16441
USER: genes 3 Torsion [C]-N--CA-[C] |==|  0.74293
USER: genes 4 Torsion [N]-CA--C-[N] |==|  0.77363
USER: genes 5 Torsion [C]-N--CA-[CB] |==|  0.76486
USER: genes 6 Torsion [N]-CA--CB-[CG1] |==|  0.23915
USER: genes 7 Torsion [CA]-CB--CG1-[CD1] |==|  0.45627
USER: genes 8 Torsion [N]-CA--C-[OXT] |==|  0.48550
USER: genes 9 Torsion [N]-CA--CB-[CG] |==|  0.83443
USER: genes 10 Torsion [CA]-CB--CG-[CD2] |==|  0.64430
USER: genes 11 Torsion [C]-CA--CB-[CG] |==|  0.42104
USER: genes 12 Torsion [CA]-CB--CG-[CD1] |==|  0.74582
USER: genes 13 Torsion [C]-CA--N-[C] |==|  0.72278
USER: genes 14 Torsion [N]-C--CA-[N] |==|  0.42506
USER: genes 15 Torsion [C]-CA--CB-[CG] |==|  0.49713
USER: genes 16 Torsion [CA]-CB--CG-[CD2] |==|  0.80701
USER: genes 17 Torsion [C]-CA--N-[C] |==|  0.60431
USER: genes 18 Torsion [N]-C--CA-[N] |==|  0.35560
USER: genes 19 Torsion [C]-CA--CB-[CG] |==|  0.72482
USER: genes 20 Torsion [CA]-CB--CG-[OD1] |==|  0.33145
ROOT
ATOM      1  CA  LEU D  11      20.758   4.900  61.244  1.00 47.89 LIG 0.18  C 
ENDROOT
BRANCH 1 2
ATOM      2  C   LEU D  11      19.992   3.779  60.552  1.00 48.14 LIG 0.24  C 
ATOM      3 O    LEU D  11      20.577   2.932  59.891  1.00 47.13 LIG-0.27  OA
ATOM      4  N   HIS D  12      18.670   3.806  60.679  1.00 49.28 LIG-0.35  N 
ATOM      5 H    HIS D  12      18.239   4.386  61.145  1.00 49.28 LIG 0.16  HD
BRANCH 4 6
ATOM      6  CA  HIS D  12      17.838   2.814  60.007  1.00 50.49 LIG 0.18  C 
BRANCH 6 7
ATOM      7  C   HIS D  12      17.371   3.300  58.636  1.00 51.38 LIG 0.24  C 
ATOM      8  N   ILE D  13      16.321   4.104  58.666  1.00 53.16 LIG-0.34  N 
ATOM      9 H    ILE D  13      15.929   4.300  59.406  1.00 53.16 LIG 0.16  HD
ATOM     10 O    HIS D  12      17.948   2.962  57.613  1.00 51.57 LIG-0.27  OA
BRANCH 8 11
ATOM     11  CA  ILE D  13      15.683   4.761  57.514  1.00 55.12 LIG 0.19  C 
BRANCH 11 12
ATOM     12  CB  ILE D  13      16.366   6.114  57.097  1.00 55.01 LIG 0.01  C 
ATOM     13  CG2 ILE D  13      16.835   6.942  58.308  1.00 56.15 LIG 0.01  C 
BRANCH 12 14
ATOM     14  CG1 ILE D  13      17.532   5.842  56.141  1.00 55.50 LIG 0.00  C 
ATOM     15  CD1 ILE D  13      18.031   7.093  55.370  1.00 55.45 LIG 0.01  C 
ENDBRANCH 12 14
ENDBRANCH 11 12
BRANCH 11 16
ATOM     16  C   ILE D  13      15.280   3.908  56.307  1.00 55.63 LIG 0.20  C 
ATOM     17 O    ILE D  13      15.588   2.716  56.236  1.00 56.94 LIG-0.65  OA
ATOM     18 OXT  ILE D  13      14.656   4.462  55.391  1.00 55.86 LIG-0.65  OA
ENDBRANCH 11 16
ENDBRANCH 8 11
ENDBRANCH 6 7
BRANCH 6 19
ATOM     19  CB  HIS D  12      16.632   2.428  60.867  1.00 50.55 LIG 0.10  C 
BRANCH 19 20
ATOM     20  CG  HIS D  12      17.000   1.847  62.195  1.00 49.61 LIG 0.06  A 
ATOM     21  CD2 HIS D  12      16.617   0.701  62.806  1.00 48.49 LIG 0.14  A 
ATOM     22 NE2  HIS D  12      17.262   0.654  64.017  1.00 48.62 LIG-0.25  NA
ATOM     23  CE1 HIS D  12      18.032   1.719  64.137  1.00 49.12 LIG 0.23  A 
ATOM     24 ND1  HIS D  12      17.889   2.459  63.052  1.00 49.92 LIG-0.24  NA
ENDBRANCH 19 20
ENDBRANCH 6 19
ENDBRANCH 4 6
ENDBRANCH 1 2
BRANCH 1 25
ATOM     25  CB  LEU D  11      22.242   4.691  60.964  1.00 47.69 LIG 0.04  C 
BRANCH 25 26
ATOM     26  CG  LEU D  11      23.176   5.907  60.932  1.00 48.05 LIG-0.02  C 
ATOM     27  CD1 LEU D  11      23.281   6.449  59.513  1.00 46.53 LIG 0.01  C 
ATOM     28  CD2 LEU D  11      22.756   6.993  61.894  1.00 50.43 LIG 0.01  C 
ENDBRANCH 25 26
ENDBRANCH 1 25
BRANCH 1 29
ATOM     29  N   LEU D  11      20.537   4.951  62.681  1.00 47.51 LIG-0.35  N 
ATOM     30  C   LEU D  10      19.688   5.806  63.254  1.00 47.80 LIG 0.24  C 
ATOM     31 O    LEU D  10      18.956   6.579  62.619  1.00 47.07 LIG-0.27  OA
ATOM     32 H    LEU D  11      21.003   4.380  63.125  1.00 47.51 LIG 0.16  HD
BRANCH 30 33
ATOM     33  CA  LEU D  10      19.668   5.792  64.777  1.00 47.63 LIG 0.18  C 
BRANCH 33 34
ATOM     34  CB  LEU D  10      18.782   4.668  65.305  1.00 47.29 LIG 0.04  C 
BRANCH 34 35
ATOM     35  CG  LEU D  10      18.737   4.580  66.835  1.00 46.92 LIG-0.02  C 
ATOM     36  CD1 LEU D  10      17.624   3.654  67.322  1.00 46.83 LIG 0.01  C 
ATOM     37  CD2 LEU D  10      20.042   4.118  67.391  1.00 45.50 LIG 0.01  C 
ENDBRANCH 34 35
ENDBRANCH 33 34
BRANCH 33 38
ATOM     38  N   LEU D  10      19.255   7.091  65.279  1.00 47.82 LIG-0.35  N 
ATOM     39 H    LEU D  10      18.642   7.480  64.818  1.00 47.82 LIG 0.16  HD
ATOM     40  C   ASP D   9      19.808   7.598  66.374  1.00 48.63 LIG 0.26  C 
ATOM     41 O    ASP D   9      20.693   7.029  67.009  1.00 48.10 LIG-0.27  OA
BRANCH 40 42
ATOM     42  CA  ASP D   9      19.297   8.947  66.807  1.00 49.27 LIG 0.41  C 
ATOM     43  N   ASP D   9      18.914   8.844  68.239  1.00 49.86 LIG 0.61  N 
BRANCH 42 44
ATOM     44  CB  ASP D   9      20.404   9.975  66.621  1.00 50.02 LIG 0.16  C 
BRANCH 44 45
ATOM     45  CG  ASP D   9      21.132  10.280  67.897  1.00 50.84 LIG 0.17  C 
ATOM     46 OD1  ASP D   9      22.351  10.046  67.952  1.00 53.44 LIG-0.65  OA
ATOM     47 OD2  ASP D   9      20.572  10.783  68.897  1.00 53.75 LIG-0.65  OA
ENDBRANCH 44 45
ENDBRANCH 42 44
ENDBRANCH 40 42
ENDBRANCH 33 38
ENDBRANCH 30 33
ENDBRANCH 1 29
TORSDOF 19
ENDMDL
MODEL 25
USER: ADFR SOLUTION from run 68
USER: SCORE 16.355664 LL:  -4.699 LR: -12.385 RR:   0.000 FEB:  -6.717
USER: RMSD 6.422493
USER: SEED 67
USER: STATUS no improvement in best in 11 clusters for 5 generations
USER: GENES 21
USER: genes 0 Translation |==|  0.54707 0.41362 0.57944
USER: genes 1 Rotation |==|  0.40096 0.24095 0.24567 0.82924
USER: genes 2 Torsion [N]-CA--C-[N] |==|  0.42441
USER: genes 3 Torsion [C]-N--CA-[C] |==|  0.73637
USER: genes 4 Torsion [N]-CA--C-[N] |==|  0.18546
USER: genes 5 Torsion [C]-N--CA-[CB] |==|  0.34104
USER: genes 6 Torsion [N]-CA--CB-[CG1] |==|  0.95202
USER: genes 7 Torsion [CA]-CB--CG1-[CD1] |==|  0.61201
USER: genes 8 Torsion [N]-CA--C-[OXT] |==|  0.80668
USER: genes 9 Torsion [N]-CA--CB-[CG] |==|  0.72280
USER: genes 10 Torsion [CA]-CB--CG-[CD2] |==|  0.25957
USER: genes 11 Torsion [C]-CA--CB-[CG] |==|  0.50703
USER: genes 12 Torsion [CA]-CB--CG-[CD1] |==|  0.55937
USER: genes 13 Torsion [C]-CA--N-[C] |==|  0.64513
USER: genes 14 Torsion [N]-C--CA-[N] |==|  0.25698
USER: genes 15 Torsion [C]-CA--CB-[CG] |==|  0.18712
USER: genes 16 Torsion [CA]-CB--CG-[CD2] |==|  0.07030
USER: genes 17 Torsion [C]-CA--N-[C] |==|  0.77778
USER: genes 18 Torsion [N]-C--CA-[N] |==|  0.31210
USER: genes 19 Torsion [C]-CA--CB-[CG] |==|  0.62015
USER: genes 20 Torsion [CA]-CB--CG-[OD1] |==|  0.17848
ROOT
ATOM      1  CA  LEU D  11      19.700   5.409  64.678  1.00 47.89 LIG 0.18  C 
ENDROOT
BRANCH 1 2
ATOM      2  C   LEU D  11      19.913   5.628  63.186  1.00 48.14 LIG 0.24  C 
ATOM      3 O    LEU D  11      19.162   6.347  62.542  1.00 47.13 LIG-0.27  OA
ATOM      4  N   HIS D  12      20.925   4.968  62.635  1.00 49.28 LIG-0.35  N 
ATOM      5 H    HIS D  12      21.471   4.465  63.069  1.00 49.28 LIG 0.16  HD
BRANCH 4 6
ATOM      6  CA  HIS D  12      21.181   5.059  61.201  1.00 50.49 LIG 0.18  C 
BRANCH 6 7
ATOM      7  C   HIS D  12      20.530   3.910  60.435  1.00 51.38 LIG 0.24  C 
ATOM      8  N   ILE D  13      19.207   3.926  60.440  1.00 53.16 LIG-0.34  N 
ATOM      9 H    ILE D  13      18.769   4.526  60.873  1.00 53.16 LIG 0.16  HD
ATOM     10 O    HIS D  12      21.204   3.065  59.864  1.00 51.57 LIG-0.27  OA
BRANCH 8 11
ATOM     11  CA  ILE D  13      18.313   2.980  59.751  1.00 55.12 LIG 0.19  C 
BRANCH 11 12
ATOM     12  CB  ILE D  13      17.306   2.248  60.710  1.00 55.01 LIG 0.01  C 
ATOM     13  CG2 ILE D  13      17.088   0.771  60.332  1.00 56.15 LIG 0.01  C 
BRANCH 12 14
ATOM     14  CG1 ILE D  13      17.777   2.373  62.162  1.00 55.50 LIG 0.00  C 
ATOM     15  CD1 ILE D  13      17.595   1.083  63.006  1.00 55.45 LIG 0.01  C 
ENDBRANCH 12 14
ENDBRANCH 11 12
BRANCH 11 16
ATOM     16  C   ILE D  13      17.667   3.404  58.429  1.00 55.63 LIG 0.20  C 
ATOM     17 O    ILE D  13      18.018   2.904  57.357  1.00 56.94 LIG-0.65  OA
ATOM     18 OXT  ILE D  13      16.798   4.286  58.468  1.00 55.86 LIG-0.65  OA
ENDBRANCH 11 16
ENDBRANCH 8 11
ENDBRANCH 6 7
BRANCH 6 19
ATOM     19  CB  HIS D  12      22.682   5.104  60.908  1.00 50.55 LIG 0.10  C 
BRANCH 19 20
ATOM     20  CG  HIS D  12      23.205   6.481  60.646  1.00 49.61 LIG 0.06  A 
ATOM     21  CD2 HIS D  12      23.763   7.397  61.471  1.00 48.49 LIG 0.14  A 
ATOM     22 NE2  HIS D  12      24.069   8.496  60.708  1.00 48.62 LIG-0.25  NA
ATOM     23  CE1 HIS D  12      23.734   8.256  59.454  1.00 49.12 LIG 0.23  A 
ATOM     24 ND1  HIS D  12      23.205   7.048  59.390  1.00 49.92 LIG-0.24  NA
ENDBRANCH 19 20
ENDBRANCH 6 19
ENDBRANCH 4 6
ENDBRANCH 1 2
BRANCH 1 25
ATOM     25  CB  LEU D  11      18.834   4.166  64.847  1.00 47.69 LIG 0.04  C 
BRANCH 25 26
ATOM     26  CG  LEU D  11      18.407   3.736  66.256  1.00 48.05 LIG-0.02  C 
ATOM     27  CD1 LEU D  11      18.032   2.261  66.262  1.00 46.53 LIG 0.01  C 
ATOM     28  CD2 LEU D  11      19.458   4.029  67.300  1.00 50.43 LIG 0.01  C 
ENDBRANCH 25 26
ENDBRANCH 1 25
BRANCH 1 29
ATOM     29  N   LEU D  11      19.065   6.537  65.344  1.00 47.51 LIG-0.35  N 
ATOM     30  C   LEU D  10      19.570   7.111  66.437  1.00 47.80 LIG 0.24  C 
ATOM     31 O    LEU D  10      20.657   6.794  66.941  1.00 47.07 LIG-0.27  OA
ATOM     32 H    LEU D  11      18.336   6.797  64.969  1.00 47.51 LIG 0.16  HD
BRANCH 30 33
ATOM     33  CA  LEU D  10      18.713   8.206  67.060  1.00 47.63 LIG 0.18  C 
BRANCH 33 34
ATOM     34  CB  LEU D  10      19.578   9.338  67.607  1.00 47.29 LIG 0.04  C 
BRANCH 34 35
ATOM     35  CG  LEU D  10      20.310  10.139  66.524  1.00 46.92 LIG-0.02  C 
ATOM     36  CD1 LEU D  10      21.751   9.667  66.340  1.00 46.83 LIG 0.01  C 
ATOM     37  CD2 LEU D  10      19.594  10.065  65.217  1.00 45.50 LIG 0.01  C 
ENDBRANCH 34 35
ENDBRANCH 33 34
BRANCH 33 38
ATOM     38  N   LEU D  10      17.851   7.639  68.083  1.00 47.82 LIG-0.35  N 
ATOM     39 H    LEU D  10      18.128   7.746  68.890  1.00 47.82 LIG 0.16  HD
ATOM     40  C   ASP D   9      16.730   7.012  67.749  1.00 48.63 LIG 0.26  C 
ATOM     41 O    ASP D   9      16.363   6.859  66.586  1.00 48.10 LIG-0.27  OA
BRANCH 40 42
ATOM     42  CA  ASP D   9      15.911   6.471  68.891  1.00 49.27 LIG 0.41  C 
ATOM     43  N   ASP D   9      14.650   7.254  68.950  1.00 49.86 LIG 0.61  N 
BRANCH 42 44
ATOM     44  CB  ASP D   9      15.618   5.000  68.632  1.00 50.02 LIG 0.16  C 
BRANCH 44 45
ATOM     45  CG  ASP D   9      14.198   4.629  68.943  1.00 50.84 LIG 0.17  C 
ATOM     46 OD1  ASP D   9      13.291   5.146  68.268  1.00 53.44 LIG-0.65  OA
ATOM     47 OD2  ASP D   9      13.888   3.805  69.832  1.00 53.75 LIG-0.65  OA
ENDBRANCH 44 45
ENDBRANCH 42 44
ENDBRANCH 40 42
ENDBRANCH 33 38
ENDBRANCH 30 33
ENDBRANCH 1 29
TORSDOF 19
ENDMDL
MODEL 26
USER: ADFR SOLUTION from run 128
USER: SCORE 16.316013 LL:  -4.787 LR: -12.296 RR:   0.000 FEB:  -6.628
USER: RMSD 7.608528
USER: SEED 127
USER: STATUS no improvement in best in 8 clusters for 5 generations
USER: GENES 21
USER: genes 0 Translation |==|  0.43525 0.27040 0.43129
USER: genes 1 Rotation |==|  0.12005 0.46702 0.35445 0.78873
USER: genes 2 Torsion [N]-CA--C-[N] |==|  0.85135
USER: genes 3 Torsion [C]-N--CA-[C] |==|  0.78192
USER: genes 4 Torsion [N]-CA--C-[N] |==|  0.18822
USER: genes 5 Torsion [C]-N--CA-[CB] |==|  0.42166
USER: genes 6 Torsion [N]-CA--CB-[CG1] |==|  0.25606
USER: genes 7 Torsion [CA]-CB--CG1-[CD1] |==|  0.72943
USER: genes 8 Torsion [N]-CA--C-[OXT] |==|  0.44132
USER: genes 9 Torsion [N]-CA--CB-[CG] |==|  0.70337
USER: genes 10 Torsion [CA]-CB--CG-[CD2] |==|  0.13991
USER: genes 11 Torsion [C]-CA--CB-[CG] |==|  0.23562
USER: genes 12 Torsion [CA]-CB--CG-[CD1] |==|  0.46691
USER: genes 13 Torsion [C]-CA--N-[C] |==|  0.66214
USER: genes 14 Torsion [N]-C--CA-[N] |==|  0.89475
USER: genes 15 Torsion [C]-CA--CB-[CG] |==|  0.26058
USER: genes 16 Torsion [CA]-CB--CG-[CD2] |==|  0.15049
USER: genes 17 Torsion [C]-CA--N-[C] |==|  0.84159
USER: genes 18 Torsion [N]-C--CA-[N] |==|  0.22677
USER: genes 19 Torsion [C]-CA--CB-[CG] |==|  0.75621
USER: genes 20 Torsion [CA]-CB--CG-[OD1] |==|  0.81358
ROOT
ATOM      1  CA  LEU D  11      17.519   2.724  61.345  1.00 47.89 LIG 0.18  C 
ENDROOT
BRANCH 1 2
ATOM      2  C   LEU D  11      16.105   2.640  60.787  1.00 48.14 LIG 0.24  C 
ATOM      3 O    LEU D  11      15.784   1.745  60.016  1.00 47.13 LIG-0.27  OA
ATOM      4  N   HIS D  12      15.271   3.606  61.154  1.00 49.28 LIG-0.35  N 
ATOM      5 H    HIS D  12      15.471   4.239  61.701  1.00 49.28 LIG 0.16  HD
BRANCH 4 6
ATOM      6  CA  HIS D  12      13.910   3.654  60.630  1.00 50.49 LIG 0.18  C 
BRANCH 6 7
ATOM      7  C   HIS D  12      13.868   4.220  59.212  1.00 51.38 LIG 0.24  C 
ATOM      8  N   ILE D  13      14.428   3.448  58.296  1.00 53.16 LIG-0.34  N 
ATOM      9 H    ILE D  13      14.807   2.706  58.507  1.00 53.16 LIG 0.16  HD
ATOM     10 O    HIS D  12      13.343   5.298  58.974  1.00 51.57 LIG-0.27  OA
BRANCH 8 11
ATOM     11  CA  ILE D  13      14.496   3.708  56.848  1.00 55.12 LIG 0.19  C 
BRANCH 11 12
ATOM     12  CB  ILE D  13      15.741   3.057  56.145  1.00 55.01 LIG 0.01  C 
ATOM     13  CG2 ILE D  13      16.974   2.983  57.064  1.00 56.15 LIG 0.01  C 
BRANCH 12 14
ATOM     14  CG1 ILE D  13      15.377   1.668  55.611  1.00 55.50 LIG 0.00  C 
ATOM     15  CD1 ILE D  13      15.786   0.497  56.546  1.00 55.45 LIG 0.01  C 
ENDBRANCH 12 14
ENDBRANCH 11 12
BRANCH 11 16
ATOM     16  C   ILE D  13      13.217   3.585  56.015  1.00 55.63 LIG 0.20  C 
ATOM     17 O    ILE D  13      12.265   2.904  56.402  1.00 56.94 LIG-0.65  OA
ATOM     18 OXT  ILE D  13      13.180   4.172  54.924  1.00 55.86 LIG-0.65  OA
ENDBRANCH 11 16
ENDBRANCH 8 11
ENDBRANCH 6 7
BRANCH 6 19
ATOM     19  CB  HIS D  12      12.990   4.463  61.547  1.00 50.55 LIG 0.10  C 
BRANCH 19 20
ATOM     20  CG  HIS D  12      12.030   3.625  62.330  1.00 49.61 LIG 0.06  A 
ATOM     21  CD2 HIS D  12      12.223   2.529  63.101  1.00 48.49 LIG 0.14  A 
ATOM     22 NE2  HIS D  12      10.996   2.159  63.592  1.00 48.62 LIG-0.25  NA
ATOM     23  CE1 HIS D  12      10.085   3.011  63.160  1.00 49.12 LIG 0.23  A 
ATOM     24 ND1  HIS D  12      10.682   3.903  62.392  1.00 49.92 LIG-0.24  NA
ENDBRANCH 19 20
ENDBRANCH 6 19
ENDBRANCH 4 6
ENDBRANCH 1 2
BRANCH 1 25
ATOM     25  CB  LEU D  11      17.443   2.478  62.848  1.00 47.69 LIG 0.04  C 
BRANCH 25 26
ATOM     26  CG  LEU D  11      17.444   1.037  63.372  1.00 48.05 LIG-0.02  C 
ATOM     27  CD1 LEU D  11      17.657   1.029  64.879  1.00 46.53 LIG 0.01  C 
ATOM     28  CD2 LEU D  11      16.192   0.279  63.001  1.00 50.43 LIG 0.01  C 
ENDBRANCH 25 26
ENDBRANCH 1 25
BRANCH 1 29
ATOM     29  N   LEU D  11      18.166   4.004  61.094  1.00 47.51 LIG-0.35  N 
ATOM     30  C   LEU D  10      19.313   4.116  60.424  1.00 47.80 LIG 0.24  C 
ATOM     31 O    LEU D  10      19.895   3.162  59.889  1.00 47.07 LIG-0.27  OA
ATOM     32 H    LEU D  11      17.740   4.678  61.418  1.00 47.51 LIG 0.16  HD
BRANCH 30 33
ATOM     33  CA  LEU D  10      19.897   5.522  60.354  1.00 47.63 LIG 0.18  C 
BRANCH 33 34
ATOM     34  CB  LEU D  10      20.767   5.819  61.572  1.00 47.29 LIG 0.04  C 
BRANCH 34 35
ATOM     35  CG  LEU D  10      22.256   5.527  61.358  1.00 46.92 LIG-0.02  C 
ATOM     36  CD1 LEU D  10      22.532   4.031  61.224  1.00 46.83 LIG 0.01  C 
ATOM     37  CD2 LEU D  10      22.780   6.236  60.154  1.00 45.50 LIG 0.01  C 
ENDBRANCH 34 35
ENDBRANCH 33 34
BRANCH 33 38
ATOM     38  N   LEU D  10      18.829   6.495  60.199  1.00 47.82 LIG-0.35  N 
ATOM     39 H    LEU D  10      18.803   7.103  60.807  1.00 47.82 LIG 0.16  HD
ATOM     40  C   ASP D   9      17.983   6.411  59.181  1.00 48.63 LIG 0.26  C 
ATOM     41 O    ASP D   9      18.032   5.523  58.333  1.00 48.10 LIG-0.27  OA
BRANCH 40 42
ATOM     42  CA  ASP D   9      16.921   7.477  59.116  1.00 49.27 LIG 0.41  C 
ATOM     43  N   ASP D   9      17.530   8.682  58.495  1.00 49.86 LIG 0.61  N 
BRANCH 42 44
ATOM     44  CB  ASP D   9      15.762   6.966  58.272  1.00 50.02 LIG 0.16  C 
BRANCH 44 45
ATOM     45  CG  ASP D   9      15.942   7.249  56.810  1.00 50.84 LIG 0.17  C 
ATOM     46 OD1  ASP D   9      15.914   8.432  56.429  1.00 53.44 LIG-0.65  OA
ATOM     47 OD2  ASP D   9      16.145   6.351  55.962  1.00 53.75 LIG-0.65  OA
ENDBRANCH 44 45
ENDBRANCH 42 44
ENDBRANCH 40 42
ENDBRANCH 33 38
ENDBRANCH 30 33
ENDBRANCH 1 29
TORSDOF 19
ENDMDL
MODEL 27
USER: ADFR SOLUTION from run 53
USER: SCORE 15.316427 LL:  -4.039 LR: -12.275 RR:   0.000 FEB:  -6.607
USER: RMSD 6.176064
USER: SEED 52
USER: STATUS no improvement in best in 8 clusters for 5 generations
USER: GENES 21
USER: genes 0 Translation |==|  0.47733 0.27997 0.42844
USER: genes 1 Rotation |==|  0.24700 0.33955 0.21417 0.78026
USER: genes 2 Torsion [N]-CA--C-[N] |==|  0.92224
USER: genes 3 Torsion [C]-N--CA-[C] |==|  0.56564
USER: genes 4 Torsion [N]-CA--C-[N] |==|  0.55556
USER: genes 5 Torsion [C]-N--CA-[CB] |==|  0.17872
USER: genes 6 Torsion [N]-CA--CB-[CG1] |==|  0.06164
USER: genes 7 Torsion [CA]-CB--CG1-[CD1] |==|  0.43104
USER: genes 8 Torsion [N]-CA--C-[OXT] |==|  0.58231
USER: genes 9 Torsion [N]-CA--CB-[CG] |==|  0.69651
USER: genes 10 Torsion [CA]-CB--CG-[CD2] |==|  0.19578
USER: genes 11 Torsion [C]-CA--CB-[CG] |==|  0.29451
USER: genes 12 Torsion [CA]-CB--CG-[CD1] |==|  0.27335
USER: genes 13 Torsion [C]-CA--N-[C] |==|  0.82843
USER: genes 14 Torsion [N]-C--CA-[N] |==|  0.00013
USER: genes 15 Torsion [C]-CA--CB-[CG] |==|  0.19327
USER: genes 16 Torsion [CA]-CB--CG-[CD2] |==|  0.70195
USER: genes 17 Torsion [C]-CA--N-[C] |==|  0.19520
USER: genes 18 Torsion [N]-C--CA-[N] |==|  0.44400
USER: genes 19 Torsion [C]-CA--CB-[CG] |==|  0.84401
USER: genes 20 Torsion [CA]-CB--CG-[OD1] |==|  0.89054
ROOT
ATOM      1  CA  LEU D  11      18.340   2.904  61.281  1.00 47.89 LIG 0.18  C 
ENDROOT
BRANCH 1 2
ATOM      2  C   LEU D  11      17.911   2.906  59.820  1.00 48.14 LIG 0.24  C 
ATOM      3 O    LEU D  11      18.062   1.915  59.118  1.00 47.13 LIG-0.27  OA
ATOM      4  N   HIS D  12      17.409   4.045  59.357  1.00 49.28 LIG-0.35  N 
ATOM      5 H    HIS D  12      17.285   4.750  59.833  1.00 49.28 LIG 0.16  HD
BRANCH 4 6
ATOM      6  CA  HIS D  12      17.022   4.174  57.956  1.00 50.49 LIG 0.18  C 
BRANCH 6 7
ATOM      7  C   HIS D  12      17.030   5.631  57.497  1.00 51.38 LIG 0.24  C 
ATOM      8  N   ILE D  13      16.314   5.868  56.411  1.00 53.16 LIG-0.34  N 
ATOM      9 H    ILE D  13      15.909   5.234  55.994  1.00 53.16 LIG 0.16  HD
ATOM     10 O    HIS D  12      17.651   6.486  58.111  1.00 51.57 LIG-0.27  OA
BRANCH 8 11
ATOM     11  CA  ILE D  13      16.098   7.175  55.768  1.00 55.12 LIG 0.19  C 
BRANCH 11 12
ATOM     12  CB  ILE D  13      17.410   7.822  55.192  1.00 55.01 LIG 0.01  C 
ATOM     13  CG2 ILE D  13      17.972   8.935  56.095  1.00 56.15 LIG 0.01  C 
BRANCH 12 14
ATOM     14  CG1 ILE D  13      18.465   6.739  54.944  1.00 55.50 LIG 0.00  C 
ATOM     15  CD1 ILE D  13      19.517   7.107  53.863  1.00 55.45 LIG 0.01  C 
ENDBRANCH 12 14
ENDBRANCH 11 12
BRANCH 11 16
ATOM     16  C   ILE D  13      14.895   7.351  54.836  1.00 55.63 LIG 0.20  C 
ATOM     17 O    ILE D  13      13.868   6.685  54.987  1.00 56.94 LIG-0.65  OA
ATOM     18 OXT  ILE D  13      14.998   8.165  53.908  1.00 55.86 LIG-0.65  OA
ENDBRANCH 11 16
ENDBRANCH 8 11
ENDBRANCH 6 7
BRANCH 6 19
ATOM     19  CB  HIS D  12      15.650   3.549  57.699  1.00 50.55 LIG 0.10  C 
BRANCH 19 20
ATOM     20  CG  HIS D  12      15.702   2.284  56.903  1.00 49.61 LIG 0.06  A 
ATOM     21  CD2 HIS D  12      16.152   1.046  57.219  1.00 48.49 LIG 0.14  A 
ATOM     22 NE2  HIS D  12      15.960   0.253  56.116  1.00 48.62 LIG-0.25  NA
ATOM     23  CE1 HIS D  12      15.391   0.969  55.164  1.00 49.12 LIG 0.23  A 
ATOM     24 ND1  HIS D  12      15.228   2.200  55.611  1.00 49.92 LIG-0.24  NA
ENDBRANCH 19 20
ENDBRANCH 6 19
ENDBRANCH 4 6
ENDBRANCH 1 2
BRANCH 1 25
ATOM     25  CB  LEU D  11      17.166   2.394  62.110  1.00 47.69 LIG 0.04  C 
BRANCH 25 26
ATOM     26  CG  LEU D  11      17.222   0.978  62.696  1.00 48.05 LIG-0.02  C 
ATOM     27  CD1 LEU D  11      17.659   1.032  64.153  1.00 46.53 LIG 0.01  C 
ATOM     28  CD2 LEU D  11      15.916   0.234  62.552  1.00 50.43 LIG 0.01  C 
ENDBRANCH 25 26
ENDBRANCH 1 25
BRANCH 1 29
ATOM     29  N   LEU D  11      18.745   4.214  61.767  1.00 47.51 LIG-0.35  N 
ATOM     30  C   LEU D  10      19.778   4.887  61.258  1.00 47.80 LIG 0.24  C 
ATOM     31 O    LEU D  10      20.438   4.502  60.282  1.00 47.07 LIG-0.27  OA
ATOM     32 H    LEU D  11      18.259   4.512  62.411  1.00 47.51 LIG 0.16  HD
BRANCH 30 33
ATOM     33  CA  LEU D  10      20.124   6.192  61.964  1.00 47.63 LIG 0.18  C 
BRANCH 33 34
ATOM     34  CB  LEU D  10      21.582   6.207  62.413  1.00 47.29 LIG 0.04  C 
BRANCH 34 35
ATOM     35  CG  LEU D  10      22.586   6.296  61.258  1.00 46.92 LIG-0.02  C 
ATOM     36  CD1 LEU D  10      23.618   7.399  61.482  1.00 46.83 LIG 0.01  C 
ATOM     37  CD2 LEU D  10      23.289   4.996  61.050  1.00 45.50 LIG 0.01  C 
ENDBRANCH 34 35
ENDBRANCH 33 34
BRANCH 33 38
ATOM     38  N   LEU D  10      19.212   6.411  63.075  1.00 47.82 LIG-0.35  N 
ATOM     39 H    LEU D  10      18.651   7.053  62.962  1.00 47.82 LIG 0.16  HD
ATOM     40  C   ASP D   9      19.278   5.651  64.161  1.00 48.63 LIG 0.26  C 
ATOM     41 O    ASP D   9      20.099   4.748  64.304  1.00 48.10 LIG-0.27  OA
BRANCH 40 42
ATOM     42  CA  ASP D   9      18.280   5.962  65.245  1.00 49.27 LIG 0.41  C 
ATOM     43  N   ASP D   9      18.169   4.761  66.112  1.00 49.86 LIG 0.61  N 
BRANCH 42 44
ATOM     44  CB  ASP D   9      18.780   7.157  66.045  1.00 50.02 LIG 0.16  C 
BRANCH 44 45
ATOM     45  CG  ASP D   9      20.151   6.939  66.615  1.00 50.84 LIG 0.17  C 
ATOM     46 OD1  ASP D   9      20.431   5.816  67.068  1.00 53.44 LIG-0.65  OA
ATOM     47 OD2  ASP D   9      21.031   7.828  66.631  1.00 53.75 LIG-0.65  OA
ENDBRANCH 44 45
ENDBRANCH 42 44
ENDBRANCH 40 42
ENDBRANCH 33 38
ENDBRANCH 30 33
ENDBRANCH 1 29
TORSDOF 19
ENDMDL
MODEL 28
USER: ADFR SOLUTION from run 111
USER: SCORE 15.683129 LL:  -4.368 LR: -12.270 RR:   0.000 FEB:  -6.602
USER: RMSD 10.363664
USER: SEED 110
USER: STATUS no improvement in best in 10 clusters for 5 generations
USER: GENES 21
USER: genes 0 Translation |==|  0.50994 0.47699 0.71666
USER: genes 1 Rotation |==|  0.63020 0.14137 0.30925 0.76086
USER: genes 2 Torsion [N]-CA--C-[N] |==|  0.17665
USER: genes 3 Torsion [C]-N--CA-[C] |==|  0.73155
USER: genes 4 Torsion [N]-CA--C-[N] |==|  0.33930
USER: genes 5 Torsion [C]-N--CA-[CB] |==|  0.59732
USER: genes 6 Torsion [N]-CA--CB-[CG1] |==|  0.74206
USER: genes 7 Torsion [CA]-CB--CG1-[CD1] |==|  0.37260
USER: genes 8 Torsion [N]-CA--C-[OXT] |==|  0.33860
USER: genes 9 Torsion [N]-CA--CB-[CG] |==|  0.47206
USER: genes 10 Torsion [CA]-CB--CG-[CD2] |==|  0.17229
USER: genes 11 Torsion [C]-CA--CB-[CG] |==|  0.63414
USER: genes 12 Torsion [CA]-CB--CG-[CD1] |==|  0.47434
USER: genes 13 Torsion [C]-CA--N-[C] |==|  0.72864
USER: genes 14 Torsion [N]-C--CA-[N] |==|  0.28700
USER: genes 15 Torsion [C]-CA--CB-[CG] |==|  0.19445
USER: genes 16 Torsion [CA]-CB--CG-[CD2] |==|  0.07168
USER: genes 17 Torsion [C]-CA--N-[C] |==|  0.60047
USER: genes 18 Torsion [N]-C--CA-[N] |==|  0.36314
USER: genes 19 Torsion [C]-CA--CB-[CG] |==|  0.69613
USER: genes 20 Torsion [CA]-CB--CG-[OD1] |==|  0.35874
ROOT
ATOM      1  CA  LEU D  11      18.976   6.598  67.766  1.00 47.89 LIG 0.18  C 
ENDROOT
BRANCH 1 2
ATOM      2  C   LEU D  11      19.908   7.494  66.962  1.00 48.14 LIG 0.24  C 
ATOM      3 O    LEU D  11      20.600   7.036  66.062  1.00 47.13 LIG-0.27  OA
ATOM      4  N   HIS D  12      19.950   8.771  67.322  1.00 49.28 LIG-0.35  N 
ATOM      5 H    HIS D  12      19.467   9.117  67.944  1.00 49.28 LIG 0.16  HD
BRANCH 4 6
ATOM      6  CA  HIS D  12      20.854   9.704  66.657  1.00 50.49 LIG 0.18  C 
BRANCH 6 7
ATOM      7  C   HIS D  12      22.153   9.889  67.438  1.00 51.38 LIG 0.24  C 
ATOM      8  N   ILE D  13      23.249   9.592  66.760  1.00 53.16 LIG-0.34  N 
ATOM      9 H    ILE D  13      23.210   9.291  65.955  1.00 53.16 LIG 0.16  HD
ATOM     10 O    HIS D  12      22.148  10.289  68.593  1.00 51.57 LIG-0.27  OA
BRANCH 8 11
ATOM     11  CA  ILE D  13      24.638   9.717  67.234  1.00 55.12 LIG 0.19  C 
BRANCH 11 12
ATOM     12  CB  ILE D  13      25.654  10.139  66.112  1.00 55.01 LIG 0.01  C 
ATOM     13  CG2 ILE D  13      26.747  11.095  66.626  1.00 56.15 LIG 0.01  C 
BRANCH 12 14
ATOM     14  CG1 ILE D  13      26.279   8.894  65.473  1.00 55.50 LIG 0.00  C 
ATOM     15  CD1 ILE D  13      26.323   8.926  63.921  1.00 55.45 LIG 0.01  C 
ENDBRANCH 12 14
ENDBRANCH 11 12
BRANCH 11 16
ATOM     16  C   ILE D  13      24.903  10.424  68.566  1.00 55.63 LIG 0.20  C 
ATOM     17 O    ILE D  13      24.566  11.596  68.745  1.00 56.94 LIG-0.65  OA
ATOM     18 OXT  ILE D  13      25.492   9.786  69.450  1.00 55.86 LIG-0.65  OA
ENDBRANCH 11 16
ENDBRANCH 8 11
ENDBRANCH 6 7
BRANCH 6 19
ATOM     19  CB  HIS D  12      20.182  11.058  66.425  1.00 50.55 LIG 0.10  C 
BRANCH 19 20
ATOM     20  CG  HIS D  12      21.121  12.128  65.967  1.00 49.61 LIG 0.06  A 
ATOM     21  CD2 HIS D  12      21.884  12.230  64.853  1.00 48.49 LIG 0.14  A 
ATOM     22 NE2  HIS D  12      22.556  13.424  64.931  1.00 48.62 LIG-0.25  NA
ATOM     23  CE1 HIS D  12      22.201  14.046  66.040  1.00 49.12 LIG 0.23  A 
ATOM     24 ND1  HIS D  12      21.339  13.283  66.686  1.00 49.92 LIG-0.24  NA
ENDBRANCH 19 20
ENDBRANCH 6 19
ENDBRANCH 4 6
ENDBRANCH 1 2
BRANCH 1 25
ATOM     25  CB  LEU D  11      19.171   5.166  67.278  1.00 47.69 LIG 0.04  C 
BRANCH 25 26
ATOM     26  CG  LEU D  11      17.940   4.315  66.942  1.00 48.05 LIG-0.02  C 
ATOM     27  CD1 LEU D  11      18.368   3.020  66.267  1.00 46.53 LIG 0.01  C 
ATOM     28  CD2 LEU D  11      17.076   4.034  68.148  1.00 50.43 LIG 0.01  C 
ENDBRANCH 25 26
ENDBRANCH 1 25
BRANCH 1 29
ATOM     29  N   LEU D  11      17.573   6.965  67.645  1.00 47.51 LIG-0.35  N 
ATOM     30  C   LEU D  10      16.940   7.713  68.550  1.00 47.80 LIG 0.24  C 
ATOM     31 O    LEU D  10      17.497   8.226  69.530  1.00 47.07 LIG-0.27  OA
ATOM     32 H    LEU D  11      17.192   6.656  66.938  1.00 47.51 LIG 0.16  HD
BRANCH 30 33
ATOM     33  CA  LEU D  10      15.447   7.904  68.315  1.00 47.63 LIG 0.18  C 
BRANCH 33 34
ATOM     34  CB  LEU D  10      15.052   9.372  68.446  1.00 47.29 LIG 0.04  C 
BRANCH 34 35
ATOM     35  CG  LEU D  10      15.571  10.259  67.309  1.00 46.92 LIG-0.02  C 
ATOM     36  CD1 LEU D  10      16.865  10.977  67.690  1.00 46.83 LIG 0.01  C 
ATOM     37  CD2 LEU D  10      15.793   9.470  66.063  1.00 45.50 LIG 0.01  C 
ENDBRANCH 34 35
ENDBRANCH 33 34
BRANCH 33 38
ATOM     38  N   LEU D  10      14.690   7.056  69.219  1.00 47.82 LIG-0.35  N 
ATOM     39 H    LEU D  10      15.032   6.965  70.003  1.00 47.82 LIG 0.16  HD
ATOM     40  C   ASP D   9      13.559   6.485  68.822  1.00 48.63 LIG 0.26  C 
ATOM     41 O    ASP D   9      13.097   6.618  67.691  1.00 48.10 LIG-0.27  OA
BRANCH 40 42
ATOM     42  CA  ASP D   9      12.855   5.633  69.845  1.00 49.27 LIG 0.41  C 
ATOM     43  N   ASP D   9      11.429   6.049  69.872  1.00 49.86 LIG 0.61  N 
BRANCH 42 44
ATOM     44  CB  ASP D   9      12.980   4.172  69.438  1.00 50.02 LIG 0.16  C 
BRANCH 44 45
ATOM     45  CG  ASP D   9      11.679   3.588  68.972  1.00 50.84 LIG 0.17  C 
ATOM     46 OD1  ASP D   9      11.657   2.988  67.883  1.00 53.44 LIG-0.65  OA
ATOM     47 OD2  ASP D   9      10.624   3.654  69.641  1.00 53.75 LIG-0.65  OA
ENDBRANCH 44 45
ENDBRANCH 42 44
ENDBRANCH 40 42
ENDBRANCH 33 38
ENDBRANCH 30 33
ENDBRANCH 1 29
TORSDOF 19
ENDMDL
MODEL 29
USER: ADFR SOLUTION from run 43
USER: SCORE 14.642706 LL:  -3.563 LR: -12.272 RR:   0.000 FEB:  -6.604
USER: RMSD 10.238704
USER: SEED 42
USER: STATUS no improvement in best in 4 clusters for 5 generations
USER: GENES 21
USER: genes 0 Translation |==|  0.34746 0.25609 0.43332
USER: genes 1 Rotation |==|  0.59278 0.02316 0.46384 0.61272
USER: genes 2 Torsion [N]-CA--C-[N] |==|  0.37969
USER: genes 3 Torsion [C]-N--CA-[C] |==|  0.53897
USER: genes 4 Torsion [N]-CA--C-[N] |==|  0.92137
USER: genes 5 Torsion [C]-N--CA-[CB] |==|  0.76211
USER: genes 6 Torsion [N]-CA--CB-[CG1] |==|  0.60242
USER: genes 7 Torsion [CA]-CB--CG1-[CD1] |==|  0.37385
USER: genes 8 Torsion [N]-CA--C-[OXT] |==|  0.57958
USER: genes 9 Torsion [N]-CA--CB-[CG] |==|  0.53581
USER: genes 10 Torsion [CA]-CB--CG-[CD2] |==|  0.17686
USER: genes 11 Torsion [C]-CA--CB-[CG] |==|  0.07372
USER: genes 12 Torsion [CA]-CB--CG-[CD1] |==|  0.79100
USER: genes 13 Torsion [C]-CA--N-[C] |==|  0.85052
USER: genes 14 Torsion [N]-C--CA-[N] |==|  0.44291
USER: genes 15 Torsion [C]-CA--CB-[CG] |==|  0.02051
USER: genes 16 Torsion [CA]-CB--CG-[CD2] |==|  0.75985
USER: genes 17 Torsion [C]-CA--N-[C] |==|  0.65215
USER: genes 18 Torsion [N]-C--CA-[N] |==|  0.92851
USER: genes 19 Torsion [C]-CA--CB-[CG] |==|  0.83918
USER: genes 20 Torsion [CA]-CB--CG-[OD1] |==|  0.77629
ROOT
ATOM      1  CA  LEU D  11      15.808   2.456  61.391  1.00 47.89 LIG 0.18  C 
ENDROOT
BRANCH 1 2
ATOM      2  C   LEU D  11      17.265   2.870  61.234  1.00 48.14 LIG 0.24  C 
ATOM      3 O    LEU D  11      17.928   2.488  60.279  1.00 47.13 LIG-0.27  OA
ATOM      4  N   HIS D  12      17.769   3.624  62.204  1.00 49.28 LIG-0.35  N 
ATOM      5 H    HIS D  12      17.319   3.911  62.879  1.00 49.28 LIG 0.16  HD
BRANCH 4 6
ATOM      6  CA  HIS D  12      19.171   4.026  62.183  1.00 50.49 LIG 0.18  C 
BRANCH 6 7
ATOM      7  C   HIS D  12      19.621   4.583  63.532  1.00 51.38 LIG 0.24  C 
ATOM      8  N   ILE D  13      18.659   5.147  64.243  1.00 53.16 LIG-0.34  N 
ATOM      9 H    ILE D  13      17.857   5.212  63.938  1.00 53.16 LIG 0.16  HD
ATOM     10 O    HIS D  12      20.783   4.491  63.900  1.00 51.57 LIG-0.27  OA
BRANCH 8 11
ATOM     11  CA  ILE D  13      18.784   5.724  65.591  1.00 55.12 LIG 0.19  C 
BRANCH 11 12
ATOM     12  CB  ILE D  13      18.622   4.672  66.748  1.00 55.01 LIG 0.01  C 
ATOM     13  CG2 ILE D  13      19.966   4.077  67.205  1.00 56.15 LIG 0.01  C 
BRANCH 12 14
ATOM     14  CG1 ILE D  13      17.876   5.301  67.929  1.00 55.50 LIG 0.00  C 
ATOM     15  CD1 ILE D  13      16.755   4.408  68.526  1.00 55.45 LIG 0.01  C 
ENDBRANCH 12 14
ENDBRANCH 11 12
BRANCH 11 16
ATOM     16  C   ILE D  13      19.906   6.731  65.863  1.00 55.63 LIG 0.20  C 
ATOM     17 O    ILE D  13      20.367   7.433  64.960  1.00 56.94 LIG-0.65  OA
ATOM     18 OXT  ILE D  13      20.353   6.799  67.016  1.00 55.86 LIG-0.65  OA
ENDBRANCH 11 16
ENDBRANCH 8 11
ENDBRANCH 6 7
BRANCH 6 19
ATOM     19  CB  HIS D  12      19.438   5.048  61.076  1.00 50.55 LIG 0.10  C 
BRANCH 19 20
ATOM     20  CG  HIS D  12      20.891   5.272  60.799  1.00 49.61 LIG 0.06  A 
ATOM     21  CD2 HIS D  12      21.851   4.439  60.334  1.00 48.49 LIG 0.14  A 
ATOM     22 NE2  HIS D  12      23.015   5.162  60.264  1.00 48.62 LIG-0.25  NA
ATOM     23  CE1 HIS D  12      22.775   6.402  60.648  1.00 49.12 LIG 0.23  A 
ATOM     24 ND1  HIS D  12      21.501   6.495  60.981  1.00 49.92 LIG-0.24  NA
ENDBRANCH 19 20
ENDBRANCH 6 19
ENDBRANCH 4 6
ENDBRANCH 1 2
BRANCH 1 25
ATOM     25  CB  LEU D  11      15.784   1.011  61.877  1.00 47.69 LIG 0.04  C 
BRANCH 25 26
ATOM     26  CG  LEU D  11      16.976   0.469  62.675  1.00 48.05 LIG-0.02  C 
ATOM     27  CD1 LEU D  11      18.151   0.203  61.745  1.00 46.53 LIG 0.01  C 
ATOM     28  CD2 LEU D  11      17.382   1.380  63.809  1.00 50.43 LIG 0.01  C 
ENDBRANCH 25 26
ENDBRANCH 1 25
BRANCH 1 29
ATOM     29  N   LEU D  11      15.038   2.567  60.160  1.00 47.51 LIG-0.35  N 
ATOM     30  C   LEU D  10      14.975   3.691  59.445  1.00 47.80 LIG 0.24  C 
ATOM     31 O    LEU D  10      15.620   4.715  59.713  1.00 47.07 LIG-0.27  OA
ATOM     32 H    LEU D  11      14.630   1.843  59.939  1.00 47.51 LIG 0.16  HD
BRANCH 30 33
ATOM     33  CA  LEU D  10      14.035   3.656  58.247  1.00 47.63 LIG 0.18  C 
BRANCH 33 34
ATOM     34  CB  LEU D  10      14.645   2.869  57.091  1.00 47.29 LIG 0.04  C 
BRANCH 34 35
ATOM     35  CG  LEU D  10      15.954   2.155  57.447  1.00 46.92 LIG-0.02  C 
ATOM     36  CD1 LEU D  10      16.157   0.887  56.620  1.00 46.83 LIG 0.01  C 
ATOM     37  CD2 LEU D  10      17.129   3.057  57.268  1.00 45.50 LIG 0.01  C 
ENDBRANCH 34 35
ENDBRANCH 33 34
BRANCH 33 38
ATOM     38  N   LEU D  10      13.680   5.009  57.855  1.00 47.82 LIG-0.35  N 
ATOM     39 H    LEU D  10      14.348   5.527  57.696  1.00 47.82 LIG 0.16  HD
ATOM     40  C   ASP D   9      12.407   5.373  57.763  1.00 48.63 LIG 0.26  C 
ATOM     41 O    ASP D   9      11.470   4.618  58.011  1.00 48.10 LIG-0.27  OA
BRANCH 40 42
ATOM     42  CA  ASP D   9      12.157   6.797  57.341  1.00 49.27 LIG 0.41  C 
ATOM     43  N   ASP D   9      13.348   7.597  57.729  1.00 49.86 LIG 0.61  N 
BRANCH 42 44
ATOM     44  CB  ASP D   9      11.953   6.835  55.833  1.00 50.02 LIG 0.16  C 
BRANCH 44 45
ATOM     45  CG  ASP D   9      13.123   6.278  55.077  1.00 50.84 LIG 0.17  C 
ATOM     46 OD1  ASP D   9      14.113   7.008  54.899  1.00 53.44 LIG-0.65  OA
ATOM     47 OD2  ASP D   9      13.157   5.105  54.642  1.00 53.75 LIG-0.65  OA
ENDBRANCH 44 45
ENDBRANCH 42 44
ENDBRANCH 40 42
ENDBRANCH 33 38
ENDBRANCH 30 33
ENDBRANCH 1 29
TORSDOF 19
ENDMDL
MODEL 30
USER: ADFR SOLUTION from run 102
USER: SCORE 15.783659 LL:  -3.955 LR: -12.264 RR:   0.000 FEB:  -6.596
USER: RMSD 4.661284
USER: SEED 101
USER: STATUS no improvement in best in 19 clusters for 5 generations
USER: GENES 21
USER: genes 0 Translation |==|  0.51867 0.47812 0.68336
USER: genes 1 Rotation |==|  0.23002 0.36068 0.26590 0.82078
USER: genes 2 Torsion [N]-CA--C-[N] |==|  0.33390
USER: genes 3 Torsion [C]-N--CA-[C] |==|  0.57222
USER: genes 4 Torsion [N]-CA--C-[N] |==|  0.40813
USER: genes 5 Torsion [C]-N--CA-[CB] |==|  0.24113
USER: genes 6 Torsion [N]-CA--CB-[CG1] |==|  0.30623
USER: genes 7 Torsion [CA]-CB--CG1-[CD1] |==|  0.59859
USER: genes 8 Torsion [N]-CA--C-[OXT] |==|  0.33962
USER: genes 9 Torsion [N]-CA--CB-[CG] |==|  0.45652
USER: genes 10 Torsion [CA]-CB--CG-[CD2] |==|  0.72311
USER: genes 11 Torsion [C]-CA--CB-[CG] |==|  0.07474
USER: genes 12 Torsion [CA]-CB--CG-[CD1] |==|  0.17507
USER: genes 13 Torsion [C]-CA--N-[C] |==|  0.75003
USER: genes 14 Torsion [N]-C--CA-[N] |==|  0.41357
USER: genes 15 Torsion [C]-CA--CB-[CG] |==|  0.22178
USER: genes 16 Torsion [CA]-CB--CG-[CD2] |==|  0.07990
USER: genes 17 Torsion [C]-CA--N-[C] |==|  0.63098
USER: genes 18 Torsion [N]-C--CA-[N] |==|  0.21657
USER: genes 19 Torsion [C]-CA--CB-[CG] |==|  0.26509
USER: genes 20 Torsion [CA]-CB--CG-[OD1] |==|  0.21666
ROOT
ATOM      1  CA  LEU D  11      19.146   6.619  67.017  1.00 47.89 LIG 0.18  C 
ENDROOT
BRANCH 1 2
ATOM      2  C   LEU D  11      18.380   6.570  65.701  1.00 48.14 LIG 0.24  C 
ATOM      3 O    LEU D  11      17.277   7.090  65.596  1.00 47.13 LIG-0.27  OA
ATOM      4  N   HIS D  12      18.959   5.904  64.709  1.00 49.28 LIG-0.35  N 
ATOM      5 H    HIS D  12      19.736   5.540  64.757  1.00 49.28 LIG 0.16  HD
BRANCH 4 6
ATOM      6  CA  HIS D  12      18.284   5.745  63.425  1.00 50.49 LIG 0.18  C 
BRANCH 6 7
ATOM      7  C   HIS D  12      18.758   4.496  62.686  1.00 51.38 LIG 0.24  C 
ATOM      8  N   ILE D  13      17.829   3.907  61.951  1.00 53.16 LIG-0.34  N 
ATOM      9 H    ILE D  13      17.022   4.202  61.930  1.00 53.16 LIG 0.16  HD
ATOM     10 O    HIS D  12      19.912   4.102  62.779  1.00 51.57 LIG-0.27  OA
BRANCH 8 11
ATOM     11  CA  ILE D  13      18.005   2.720  61.097  1.00 55.12 LIG 0.19  C 
BRANCH 11 12
ATOM     12  CB  ILE D  13      17.818   1.358  61.859  1.00 55.01 LIG 0.01  C 
ATOM     13  CG2 ILE D  13      17.832   1.525  63.390  1.00 56.15 LIG 0.01  C 
BRANCH 12 14
ATOM     14  CG1 ILE D  13      16.529   0.670  61.399  1.00 55.50 LIG 0.00  C 
ATOM     15  CD1 ILE D  13      15.782  -0.102  62.520  1.00 55.45 LIG 0.01  C 
ENDBRANCH 12 14
ENDBRANCH 11 12
BRANCH 11 16
ATOM     16  C   ILE D  13      17.364   2.710  59.706  1.00 55.63 LIG 0.20  C 
ATOM     17 O    ILE D  13      16.146   2.839  59.562  1.00 56.94 LIG-0.65  OA
ATOM     18 OXT  ILE D  13      18.108   2.541  58.730  1.00 55.86 LIG-0.65  OA
ENDBRANCH 11 16
ENDBRANCH 8 11
ENDBRANCH 6 7
BRANCH 6 19
ATOM     19  CB  HIS D  12      18.471   6.982  62.543  1.00 50.55 LIG 0.10  C 
BRANCH 19 20
ATOM     20  CG  HIS D  12      18.135   6.753  61.104  1.00 49.61 LIG 0.06  A 
ATOM     21  CD2 HIS D  12      18.922   6.507  60.030  1.00 48.49 LIG 0.14  A 
ATOM     22 NE2  HIS D  12      18.094   6.371  58.944  1.00 48.62 LIG-0.25  NA
ATOM     23  CE1 HIS D  12      16.842   6.503  59.339  1.00 49.12 LIG 0.23  A 
ATOM     24 ND1  HIS D  12      16.838   6.739  60.638  1.00 49.92 LIG-0.24  NA
ENDBRANCH 19 20
ENDBRANCH 6 19
ENDBRANCH 4 6
ENDBRANCH 1 2
BRANCH 1 25
ATOM     25  CB  LEU D  11      18.291   5.937  68.079  1.00 47.69 LIG 0.04  C 
BRANCH 25 26
ATOM     26  CG  LEU D  11      17.286   4.860  67.653  1.00 48.05 LIG-0.02  C 
ATOM     27  CD1 LEU D  11      18.017   3.676  67.037  1.00 46.53 LIG 0.01  C 
ATOM     28  CD2 LEU D  11      16.394   4.412  68.787  1.00 50.43 LIG 0.01  C 
ENDBRANCH 25 26
ENDBRANCH 1 25
BRANCH 1 29
ATOM     29  N   LEU D  11      19.471   7.970  67.448  1.00 47.51 LIG-0.35  N 
ATOM     30  C   LEU D  10      20.599   8.590  67.101  1.00 47.80 LIG 0.24  C 
ATOM     31 O    LEU D  10      21.437   8.111  66.323  1.00 47.07 LIG-0.27  OA
ATOM     32 H    LEU D  11      18.869   8.330  67.946  1.00 47.51 LIG 0.16  HD
BRANCH 30 33
ATOM     33  CA  LEU D  10      20.820   9.957  67.734  1.00 47.63 LIG 0.18  C 
BRANCH 33 34
ATOM     34  CB  LEU D  10      20.154  11.059  66.915  1.00 47.29 LIG 0.04  C 
BRANCH 34 35
ATOM     35  CG  LEU D  10      18.645  11.185  67.153  1.00 46.92 LIG-0.02  C 
ATOM     36  CD1 LEU D  10      17.837  10.384  66.134  1.00 46.83 LIG 0.01  C 
ATOM     37  CD2 LEU D  10      18.276  10.748  68.531  1.00 45.50 LIG 0.01  C 
ENDBRANCH 34 35
ENDBRANCH 33 34
BRANCH 33 38
ATOM     38  N   LEU D  10      22.242  10.198  67.912  1.00 47.82 LIG-0.35  N 
ATOM     39 H    LEU D  10      22.728  10.020  67.226  1.00 47.82 LIG 0.16  HD
ATOM     40  C   ASP D   9      22.709  10.658  69.066  1.00 48.63 LIG 0.26  C 
ATOM     41 O    ASP D   9      21.995  10.890  70.039  1.00 48.10 LIG-0.27  OA
BRANCH 40 42
ATOM     42  CA  ASP D   9      24.198  10.877  69.135  1.00 49.27 LIG 0.41  C 
ATOM     43  N   ASP D   9      24.498  12.148  68.428  1.00 49.86 LIG 0.61  N 
BRANCH 42 44
ATOM     44  CB  ASP D   9      24.614  10.964  70.597  1.00 50.02 LIG 0.16  C 
BRANCH 44 45
ATOM     45  CG  ASP D   9      25.097   9.652  71.140  1.00 50.84 LIG 0.17  C 
ATOM     46 OD1  ASP D   9      26.248   9.280  70.853  1.00 53.44 LIG-0.65  OA
ATOM     47 OD2  ASP D   9      24.403   8.928  71.890  1.00 53.75 LIG-0.65  OA
ENDBRANCH 44 45
ENDBRANCH 42 44
ENDBRANCH 40 42
ENDBRANCH 33 38
ENDBRANCH 30 33
ENDBRANCH 1 29
TORSDOF 19
ENDMDL
MODEL 31
USER: ADFR SOLUTION from run 111
USER: SCORE 15.533620 LL:  -4.302 LR: -12.256 RR:   0.000 FEB:  -6.588
USER: RMSD 10.470411
USER: SEED 110
USER: STATUS no improvement in best in 10 clusters for 5 generations
USER: GENES 21
USER: genes 0 Translation |==|  0.52284 0.47928 0.70172
USER: genes 1 Rotation |==|  0.65408 0.15950 0.29557 0.76177
USER: genes 2 Torsion [N]-CA--C-[N] |==|  0.21485
USER: genes 3 Torsion [C]-N--CA-[C] |==|  0.69068
USER: genes 4 Torsion [N]-CA--C-[N] |==|  0.30829
USER: genes 5 Torsion [C]-N--CA-[CB] |==|  0.61237
USER: genes 6 Torsion [N]-CA--CB-[CG1] |==|  0.13707
USER: genes 7 Torsion [CA]-CB--CG1-[CD1] |==|  0.45349
USER: genes 8 Torsion [N]-CA--C-[OXT] |==|  0.30655
USER: genes 9 Torsion [N]-CA--CB-[CG] |==|  0.07898
USER: genes 10 Torsion [CA]-CB--CG-[CD2] |==|  0.16314
USER: genes 11 Torsion [C]-CA--CB-[CG] |==|  0.48501
USER: genes 12 Torsion [CA]-CB--CG-[CD1] |==|  0.02012
USER: genes 13 Torsion [C]-CA--N-[C] |==|  0.74015
USER: genes 14 Torsion [N]-C--CA-[N] |==|  0.27565
USER: genes 15 Torsion [C]-CA--CB-[CG] |==|  0.72098
USER: genes 16 Torsion [CA]-CB--CG-[CD2] |==|  0.64112
USER: genes 17 Torsion [C]-CA--N-[C] |==|  0.56667
USER: genes 18 Torsion [N]-C--CA-[N] |==|  0.37912
USER: genes 19 Torsion [C]-CA--CB-[CG] |==|  0.67218
USER: genes 20 Torsion [CA]-CB--CG-[OD1] |==|  0.37384
ROOT
ATOM      1  CA  LEU D  11      19.227   6.640  67.430  1.00 47.89 LIG 0.18  C 
ENDROOT
BRANCH 1 2
ATOM      2  C   LEU D  11      20.088   7.679  66.721  1.00 48.14 LIG 0.24  C 
ATOM      3 O    LEU D  11      20.587   7.443  65.629  1.00 47.13 LIG-0.27  OA
ATOM      4  N   HIS D  12      20.289   8.818  67.374  1.00 49.28 LIG-0.35  N 
ATOM      5 H    HIS D  12      19.942   9.009  68.137  1.00 49.28 LIG 0.16  HD
BRANCH 4 6
ATOM      6  CA  HIS D  12      21.147   9.856  66.812  1.00 50.49 LIG 0.18  C 
BRANCH 6 7
ATOM      7  C   HIS D  12      22.435  10.023  67.615  1.00 51.38 LIG 0.24  C 
ATOM      8  N   ILE D  13      23.530   9.628  66.986  1.00 53.16 LIG-0.34  N 
ATOM      9 H    ILE D  13      23.493   9.279  66.201  1.00 53.16 LIG 0.16  HD
ATOM     10 O    HIS D  12      22.424  10.496  68.742  1.00 51.57 LIG-0.27  OA
BRANCH 8 11
ATOM     11  CA  ILE D  13      24.912   9.711  67.488  1.00 55.12 LIG 0.19  C 
BRANCH 11 12
ATOM     12  CB  ILE D  13      25.958  10.140  66.397  1.00 55.01 LIG 0.01  C 
ATOM     13  CG2 ILE D  13      26.282   9.009  65.404  1.00 56.15 LIG 0.01  C 
BRANCH 12 14
ATOM     14  CG1 ILE D  13      25.463  11.387  65.656  1.00 55.50 LIG 0.00  C 
ATOM     15  CD1 ILE D  13      26.565  12.135  64.858  1.00 55.45 LIG 0.01  C 
ENDBRANCH 12 14
ENDBRANCH 11 12
BRANCH 11 16
ATOM     16  C   ILE D  13      25.166  10.378  68.844  1.00 55.63 LIG 0.20  C 
ATOM     17 O    ILE D  13      25.049  11.597  68.988  1.00 56.94 LIG-0.65  OA
ATOM     18 OXT  ILE D  13      25.520   9.654  69.785  1.00 55.86 LIG-0.65  OA
ENDBRANCH 11 16
ENDBRANCH 8 11
ENDBRANCH 6 7
BRANCH 6 19
ATOM     19  CB  HIS D  12      20.409  11.193  66.715  1.00 50.55 LIG 0.10  C 
BRANCH 19 20
ATOM     20  CG  HIS D  12      19.337  11.366  67.744  1.00 49.61 LIG 0.06  A 
ATOM     21  CD2 HIS D  12      19.386  11.350  69.097  1.00 48.49 LIG 0.14  A 
ATOM     22 NE2  HIS D  12      18.109  11.566  69.550  1.00 48.62 LIG-0.25  NA
ATOM     23  CE1 HIS D  12      17.307  11.733  68.515  1.00 49.12 LIG 0.23  A 
ATOM     24 ND1  HIS D  12      18.023  11.612  67.412  1.00 49.92 LIG-0.24  NA
ENDBRANCH 19 20
ENDBRANCH 6 19
ENDBRANCH 4 6
ENDBRANCH 1 2
BRANCH 1 25
ATOM     25  CB  LEU D  11      19.496   5.289  66.777  1.00 47.69 LIG 0.04  C 
BRANCH 25 26
ATOM     26  CG  LEU D  11      18.855   4.029  67.371  1.00 48.05 LIG-0.02  C 
ATOM     27  CD1 LEU D  11      17.876   4.410  68.472  1.00 46.53 LIG 0.01  C 
ATOM     28  CD2 LEU D  11      18.186   3.166  66.329  1.00 50.43 LIG 0.01  C 
ENDBRANCH 25 26
ENDBRANCH 1 25
BRANCH 1 29
ATOM     29  N   LEU D  11      17.803   6.933  67.373  1.00 47.51 LIG-0.35  N 
ATOM     30  C   LEU D  10      17.162   7.603  68.332  1.00 47.80 LIG 0.24  C 
ATOM     31 O    LEU D  10      17.725   8.103  69.316  1.00 47.07 LIG-0.27  OA
ATOM     32 H    LEU D  11      17.415   6.634  66.666  1.00 47.51 LIG 0.16  HD
BRANCH 30 33
ATOM     33  CA  LEU D  10      15.654   7.719  68.156  1.00 47.63 LIG 0.18  C 
BRANCH 33 34
ATOM     34  CB  LEU D  10      15.170   9.133  68.467  1.00 47.29 LIG 0.04  C 
BRANCH 34 35
ATOM     35  CG  LEU D  10      14.554   9.286  69.862  1.00 46.92 LIG-0.02  C 
ATOM     36  CD1 LEU D  10      15.461  10.072  70.805  1.00 46.83 LIG 0.01  C 
ATOM     37  CD2 LEU D  10      13.218   9.948  69.794  1.00 45.50 LIG 0.01  C 
ENDBRANCH 34 35
ENDBRANCH 33 34
BRANCH 33 38
ATOM     38  N   LEU D  10      14.981   6.724  68.974  1.00 47.82 LIG-0.35  N 
ATOM     39 H    LEU D  10      15.432   6.447  69.652  1.00 47.82 LIG 0.16  HD
ATOM     40  C   ASP D   9      13.762   6.305  68.659  1.00 48.63 LIG 0.26  C 
ATOM     41 O    ASP D   9      13.143   6.705  67.676  1.00 48.10 LIG-0.27  OA
BRANCH 40 42
ATOM     42  CA  ASP D   9      13.159   5.278  69.581  1.00 49.27 LIG 0.41  C 
ATOM     43  N   ASP D   9      11.744   5.664  69.821  1.00 49.86 LIG 0.61  N 
BRANCH 42 44
ATOM     44  CB  ASP D   9      13.236   3.912  68.913  1.00 50.02 LIG 0.16  C 
BRANCH 44 45
ATOM     45  CG  ASP D   9      11.883   3.310  68.668  1.00 50.84 LIG 0.17  C 
ATOM     46 OD1  ASP D   9      11.657   2.796  67.559  1.00 53.44 LIG-0.65  OA
ATOM     47 OD2  ASP D   9      10.984   3.279  69.538  1.00 53.75 LIG-0.65  OA
ENDBRANCH 44 45
ENDBRANCH 42 44
ENDBRANCH 40 42
ENDBRANCH 33 38
ENDBRANCH 30 33
ENDBRANCH 1 29
TORSDOF 19
ENDMDL
MODEL 32
USER: ADFR SOLUTION from run 171
USER: SCORE 14.764415 LL:  -4.219 LR: -12.226 RR:   0.000 FEB:  -6.558
USER: RMSD 5.982493
USER: SEED 170
USER: STATUS no improvement in best in 32 clusters for 5 generations
USER: GENES 21
USER: genes 0 Translation |==|  0.44924 0.25488 0.35302
USER: genes 1 Rotation |==|  0.27082 0.45285 0.19019 0.81508
USER: genes 2 Torsion [N]-CA--C-[N] |==|  0.77261
USER: genes 3 Torsion [C]-N--CA-[C] |==|  0.17931
USER: genes 4 Torsion [N]-CA--C-[N] |==|  0.02276
USER: genes 5 Torsion [C]-N--CA-[CB] |==|  0.06308
USER: genes 6 Torsion [N]-CA--CB-[CG1] |==|  0.68688
USER: genes 7 Torsion [CA]-CB--CG1-[CD1] |==|  0.32826
USER: genes 8 Torsion [N]-CA--C-[OXT] |==|  0.31208
USER: genes 9 Torsion [N]-CA--CB-[CG] |==|  0.85995
USER: genes 10 Torsion [CA]-CB--CG-[CD2] |==|  0.76776
USER: genes 11 Torsion [C]-CA--CB-[CG] |==|  0.44244
USER: genes 12 Torsion [CA]-CB--CG-[CD1] |==|  0.94394
USER: genes 13 Torsion [C]-CA--N-[C] |==|  0.72778
USER: genes 14 Torsion [N]-C--CA-[N] |==|  0.65023
USER: genes 15 Torsion [C]-CA--CB-[CG] |==|  0.35747
USER: genes 16 Torsion [CA]-CB--CG-[CD2] |==|  0.70031
USER: genes 17 Torsion [C]-CA--N-[C] |==|  0.65961
USER: genes 18 Torsion [N]-C--CA-[N] |==|  0.05568
USER: genes 19 Torsion [C]-CA--CB-[CG] |==|  0.48286
USER: genes 20 Torsion [CA]-CB--CG-[OD1] |==|  0.60717
ROOT
ATOM      1  CA  LEU D  11      17.792   2.433  59.584  1.00 47.89 LIG 0.18  C 
ENDROOT
BRANCH 1 2
ATOM      2  C   LEU D  11      17.153   3.100  58.373  1.00 48.14 LIG 0.24  C 
ATOM      3 O    LEU D  11      17.711   3.095  57.284  1.00 47.13 LIG-0.27  OA
ATOM      4  N   HIS D  12      15.993   3.711  58.584  1.00 49.28 LIG-0.35  N 
ATOM      5 H    HIS D  12      15.578   3.720  59.338  1.00 49.28 LIG 0.16  HD
BRANCH 4 6
ATOM      6  CA  HIS D  12      15.324   4.433  57.507  1.00 50.49 LIG 0.18  C 
BRANCH 6 7
ATOM      7  C   HIS D  12      14.895   3.497  56.378  1.00 51.38 LIG 0.24  C 
ATOM      8  N   ILE D  13      15.043   2.210  56.646  1.00 53.16 LIG-0.34  N 
ATOM      9 H    ILE D  13      15.385   1.944  57.389  1.00 53.16 LIG 0.16  HD
ATOM     10 O    HIS D  12      14.446   3.933  55.328  1.00 51.57 LIG-0.27  OA
BRANCH 8 11
ATOM     11  CA  ILE D  13      14.674   1.082  55.774  1.00 55.12 LIG 0.19  C 
BRANCH 11 12
ATOM     12  CB  ILE D  13      14.586   1.461  54.251  1.00 55.01 LIG 0.01  C 
ATOM     13  CG2 ILE D  13      15.510   0.601  53.369  1.00 56.15 LIG 0.01  C 
BRANCH 12 14
ATOM     14  CG1 ILE D  13      13.135   1.369  53.769  1.00 55.50 LIG 0.00  C 
ATOM     15  CD1 ILE D  13      12.544   2.712  53.263  1.00 55.45 LIG 0.01  C 
ENDBRANCH 12 14
ENDBRANCH 11 12
BRANCH 11 16
ATOM     16  C   ILE D  13      15.335  -0.279  56.007  1.00 55.63 LIG 0.20  C 
ATOM     17 O    ILE D  13      16.532  -0.457  55.767  1.00 56.94 LIG-0.65  OA
ATOM     18 OXT  ILE D  13      14.622  -1.204  56.420  1.00 55.86 LIG-0.65  OA
ENDBRANCH 11 16
ENDBRANCH 8 11
ENDBRANCH 6 7
BRANCH 6 19
ATOM     19  CB  HIS D  12      16.211   5.551  56.955  1.00 50.55 LIG 0.10  C 
BRANCH 19 20
ATOM     20  CG  HIS D  12      16.777   6.449  58.009  1.00 49.61 LIG 0.06  A 
ATOM     21  CD2 HIS D  12      16.253   7.526  58.640  1.00 48.49 LIG 0.14  A 
ATOM     22 NE2  HIS D  12      17.201   7.976  59.525  1.00 48.62 LIG-0.25  NA
ATOM     23  CE1 HIS D  12      18.259   7.189  59.459  1.00 49.12 LIG 0.23  A 
ATOM     24 ND1  HIS D  12      18.031   6.262  58.548  1.00 49.92 LIG-0.24  NA
ENDBRANCH 19 20
ENDBRANCH 6 19
ENDBRANCH 4 6
ENDBRANCH 1 2
BRANCH 1 25
ATOM     25  CB  LEU D  11      16.680   1.777  60.395  1.00 47.69 LIG 0.04  C 
BRANCH 25 26
ATOM     26  CG  LEU D  11      17.032   0.652  61.376  1.00 48.05 LIG-0.02  C 
ATOM     27  CD1 LEU D  11      18.381   0.046  61.016  1.00 46.53 LIG 0.01  C 
ATOM     28  CD2 LEU D  11      17.013   1.106  62.817  1.00 50.43 LIG 0.01  C 
ENDBRANCH 25 26
ENDBRANCH 1 25
BRANCH 1 29
ATOM     29  N   LEU D  11      18.532   3.357  60.431  1.00 47.51 LIG-0.35  N 
ATOM     30  C   LEU D  10      19.855   3.506  60.357  1.00 47.80 LIG 0.24  C 
ATOM     31 O    LEU D  10      20.566   2.937  59.517  1.00 47.07 LIG-0.27  OA
ATOM     32 H    LEU D  11      18.037   3.795  60.982  1.00 47.51 LIG 0.16  HD
BRANCH 30 33
ATOM     33  CA  LEU D  10      20.470   4.436  61.396  1.00 47.63 LIG 0.18  C 
BRANCH 33 34
ATOM     34  CB  LEU D  10      19.399   5.037  62.300  1.00 47.29 LIG 0.04  C 
BRANCH 34 35
ATOM     35  CG  LEU D  10      19.689   4.879  63.797  1.00 46.92 LIG-0.02  C 
ATOM     36  CD1 LEU D  10      19.567   6.205  64.546  1.00 46.83 LIG 0.01  C 
ATOM     37  CD2 LEU D  10      18.782   3.872  64.422  1.00 45.50 LIG 0.01  C 
ENDBRANCH 34 35
ENDBRANCH 33 34
BRANCH 33 38
ATOM     38  N   LEU D  10      21.261   5.460  60.737  1.00 47.82 LIG-0.35  N 
ATOM     39 H    LEU D  10      20.832   5.940  60.166  1.00 47.82 LIG 0.16  HD
ATOM     40  C   ASP D   9      22.548   5.610  61.026  1.00 48.63 LIG 0.26  C 
ATOM     41 O    ASP D   9      23.144   4.903  61.836  1.00 48.10 LIG-0.27  OA
BRANCH 40 42
ATOM     42  CA  ASP D   9      23.268   6.708  60.288  1.00 49.27 LIG 0.41  C 
ATOM     43  N   ASP D   9      22.242   7.655  59.780  1.00 49.86 LIG 0.61  N 
BRANCH 42 44
ATOM     44  CB  ASP D   9      24.215   7.409  61.252  1.00 50.02 LIG 0.16  C 
BRANCH 44 45
ATOM     45  CG  ASP D   9      25.085   8.424  60.572  1.00 50.84 LIG 0.17  C 
ATOM     46 OD1  ASP D   9      26.268   8.529  60.939  1.00 53.44 LIG-0.65  OA
ATOM     47 OD2  ASP D   9      24.682   9.150  59.635  1.00 53.75 LIG-0.65  OA
ENDBRANCH 44 45
ENDBRANCH 42 44
ENDBRANCH 40 42
ENDBRANCH 33 38
ENDBRANCH 30 33
ENDBRANCH 1 29
TORSDOF 19
ENDMDL
MODEL 33
USER: ADFR SOLUTION from run 145
USER: SCORE 16.704068 LL:  -4.981 LR: -12.230 RR:   0.000 FEB:  -6.562
USER: RMSD 8.290849
USER: SEED 144
USER: STATUS no improvement in best in 4 clusters for 5 generations
USER: GENES 21
USER: genes 0 Translation |==|  0.50526 0.45717 0.68405
USER: genes 1 Rotation |==|  0.64490 0.17396 0.27194 0.76587
USER: genes 2 Torsion [N]-CA--C-[N] |==|  0.92825
USER: genes 3 Torsion [C]-N--CA-[C] |==|  0.16801
USER: genes 4 Torsion [N]-CA--C-[N] |==|  0.10214
USER: genes 5 Torsion [C]-N--CA-[CB] |==|  0.42984
USER: genes 6 Torsion [N]-CA--CB-[CG1] |==|  0.53073
USER: genes 7 Torsion [CA]-CB--CG1-[CD1] |==|  0.69615
USER: genes 8 Torsion [N]-CA--C-[OXT] |==|  0.37682
USER: genes 9 Torsion [N]-CA--CB-[CG] |==|  0.90611
USER: genes 10 Torsion [CA]-CB--CG-[CD2] |==|  0.80757
USER: genes 11 Torsion [C]-CA--CB-[CG] |==|  0.47374
USER: genes 12 Torsion [CA]-CB--CG-[CD1] |==|  0.07446
USER: genes 13 Torsion [C]-CA--N-[C] |==|  0.72838
USER: genes 14 Torsion [N]-C--CA-[N] |==|  0.32510
USER: genes 15 Torsion [C]-CA--CB-[CG] |==|  0.28698
USER: genes 16 Torsion [CA]-CB--CG-[CD2] |==|  0.20666
USER: genes 17 Torsion [C]-CA--N-[C] |==|  0.62778
USER: genes 18 Torsion [N]-C--CA-[N] |==|  0.31651
USER: genes 19 Torsion [C]-CA--CB-[CG] |==|  0.74671
USER: genes 20 Torsion [CA]-CB--CG-[OD1] |==|  0.34711
ROOT
ATOM      1  CA  LEU D  11      18.885   6.226  67.032  1.00 47.89 LIG 0.18  C 
ENDROOT
BRANCH 1 2
ATOM      2  C   LEU D  11      19.736   7.267  66.317  1.00 48.14 LIG 0.24  C 
ATOM      3 O    LEU D  11      20.925   7.394  66.577  1.00 47.13 LIG-0.27  OA
ATOM      4  N   HIS D  12      19.105   8.038  65.439  1.00 49.28 LIG-0.35  N 
ATOM      5 H    HIS D  12      18.274   7.961  65.233  1.00 49.28 LIG 0.16  HD
BRANCH 4 6
ATOM      6  CA  HIS D  12      19.814   9.106  64.741  1.00 50.49 LIG 0.18  C 
BRANCH 6 7
ATOM      7  C   HIS D  12      20.973   8.567  63.906  1.00 51.38 LIG 0.24  C 
ATOM      8  N   ILE D  13      20.736   7.401  63.326  1.00 53.16 LIG-0.34  N 
ATOM      9 H    ILE D  13      19.995   6.984  63.448  1.00 53.16 LIG 0.16  HD
ATOM     10 O    HIS D  12      22.019   9.190  63.794  1.00 51.57 LIG-0.27  OA
BRANCH 8 11
ATOM     11  CA  ILE D  13      21.643   6.665  62.430  1.00 55.12 LIG 0.19  C 
BRANCH 11 12
ATOM     12  CB  ILE D  13      21.389   5.114  62.407  1.00 55.01 LIG 0.01  C 
ATOM     13  CG2 ILE D  13      20.031   4.741  61.785  1.00 56.15 LIG 0.01  C 
BRANCH 12 14
ATOM     14  CG1 ILE D  13      22.534   4.405  61.676  1.00 55.50 LIG 0.00  C 
ATOM     15  CD1 ILE D  13      22.143   3.820  60.292  1.00 55.45 LIG 0.01  C 
ENDBRANCH 12 14
ENDBRANCH 11 12
BRANCH 11 16
ATOM     16  C   ILE D  13      21.930   7.236  61.038  1.00 55.63 LIG 0.20  C 
ATOM     17 O    ILE D  13      21.021   7.662  60.322  1.00 56.94 LIG-0.65  OA
ATOM     18 OXT  ILE D  13      23.105   7.232  60.644  1.00 55.86 LIG-0.65  OA
ENDBRANCH 11 16
ENDBRANCH 8 11
ENDBRANCH 6 7
BRANCH 6 19
ATOM     19  CB  HIS D  12      20.320  10.167  65.721  1.00 50.55 LIG 0.10  C 
BRANCH 19 20
ATOM     20  CG  HIS D  12      19.419  10.382  66.896  1.00 49.61 LIG 0.06  A 
ATOM     21  CD2 HIS D  12      18.185  10.931  66.987  1.00 48.49 LIG 0.14  A 
ATOM     22 NE2  HIS D  12      17.814  10.875  68.307  1.00 48.62 LIG-0.25  NA
ATOM     23  CE1 HIS D  12      18.774  10.290  68.999  1.00 49.12 LIG 0.23  A 
ATOM     24 ND1  HIS D  12      19.757   9.987  68.172  1.00 49.92 LIG-0.24  NA
ENDBRANCH 19 20
ENDBRANCH 6 19
ENDBRANCH 4 6
ENDBRANCH 1 2
BRANCH 1 25
ATOM     25  CB  LEU D  11      19.026   4.910  66.276  1.00 47.69 LIG 0.04  C 
BRANCH 25 26
ATOM     26  CG  LEU D  11      18.453   3.627  66.892  1.00 48.05 LIG-0.02  C 
ATOM     27  CD1 LEU D  11      17.293   3.964  67.818  1.00 46.53 LIG 0.01  C 
ATOM     28  CD2 LEU D  11      18.036   2.615  65.851  1.00 50.43 LIG 0.01  C 
ENDBRANCH 25 26
ENDBRANCH 1 25
BRANCH 1 29
ATOM     29  N   LEU D  11      17.478   6.588  67.117  1.00 47.51 LIG-0.35  N 
ATOM     30  C   LEU D  10      16.939   7.149  68.201  1.00 47.80 LIG 0.24  C 
ATOM     31 O    LEU D  10      17.592   7.483  69.200  1.00 47.07 LIG-0.27  OA
ATOM     32 H    LEU D  11      17.028   6.407  66.407  1.00 47.51 LIG 0.16  HD
BRANCH 30 33
ATOM     33  CA  LEU D  10      15.431   7.358  68.152  1.00 47.63 LIG 0.18  C 
BRANCH 33 34
ATOM     34  CB  LEU D  10      15.075   8.838  68.255  1.00 47.29 LIG 0.04  C 
BRANCH 34 35
ATOM     35  CG  LEU D  10      14.677   9.476  66.919  1.00 46.92 LIG-0.02  C 
ATOM     36  CD1 LEU D  10      15.671   9.144  65.808  1.00 46.83 LIG 0.01  C 
ATOM     37  CD2 LEU D  10      13.309   9.051  66.502  1.00 45.50 LIG 0.01  C 
ENDBRANCH 34 35
ENDBRANCH 33 34
BRANCH 33 38
ATOM     38  N   LEU D  10      14.787   6.572  69.191  1.00 47.82 LIG-0.35  N 
ATOM     39 H    LEU D  10      15.158   6.622  69.965  1.00 47.82 LIG 0.16  HD
ATOM     40  C   ASP D   9      13.710   5.847  68.918  1.00 48.63 LIG 0.26  C 
ATOM     41 O    ASP D   9      13.206   5.780  67.799  1.00 48.10 LIG-0.27  OA
BRANCH 40 42
ATOM     42  CA  ASP D   9      13.122   5.078  70.073  1.00 49.27 LIG 0.41  C 
ATOM     43  N   ASP D   9      11.783   5.654  70.361  1.00 49.86 LIG 0.61  N 
BRANCH 42 44
ATOM     44  CB  ASP D   9      13.002   3.613  69.678  1.00 50.02 LIG 0.16  C 
BRANCH 44 45
ATOM     45  CG  ASP D   9      11.674   3.286  69.063  1.00 50.84 LIG 0.17  C 
ATOM     46 OD1  ASP D   9      11.657   2.752  67.941  1.00 53.44 LIG-0.65  OA
ATOM     47 OD2  ASP D   9      10.584   3.502  69.640  1.00 53.75 LIG-0.65  OA
ENDBRANCH 44 45
ENDBRANCH 42 44
ENDBRANCH 40 42
ENDBRANCH 33 38
ENDBRANCH 30 33
ENDBRANCH 1 29
TORSDOF 19
ENDMDL
MODEL 34
USER: ADFR SOLUTION from run 191
USER: SCORE 15.654572 LL:  -4.353 LR: -12.216 RR:   0.000 FEB:  -6.548
USER: RMSD 5.267393
USER: SEED 190
USER: STATUS no improvement in best in 16 clusters for 5 generations
USER: GENES 21
USER: genes 0 Translation |==|  0.53994 0.45986 0.64281
USER: genes 1 Rotation |==|  0.33635 0.26785 0.18485 0.76458
USER: genes 2 Torsion [N]-CA--C-[N] |==|  0.49927
USER: genes 3 Torsion [C]-N--CA-[C] |==|  0.63769
USER: genes 4 Torsion [N]-CA--C-[N] |==|  0.91785
USER: genes 5 Torsion [C]-N--CA-[CB] |==|  0.13332
USER: genes 6 Torsion [N]-CA--CB-[CG1] |==|  0.64138
USER: genes 7 Torsion [CA]-CB--CG1-[CD1] |==|  0.35627
USER: genes 8 Torsion [N]-CA--C-[OXT] |==|  0.94695
USER: genes 9 Torsion [N]-CA--CB-[CG] |==|  0.67183
USER: genes 10 Torsion [CA]-CB--CG-[CD2] |==|  0.20802
USER: genes 11 Torsion [C]-CA--CB-[CG] |==|  0.34558
USER: genes 12 Torsion [CA]-CB--CG-[CD1] |==|  0.38228
USER: genes 13 Torsion [C]-CA--N-[C] |==|  0.78315
USER: genes 14 Torsion [N]-C--CA-[N] |==|  0.48889
USER: genes 15 Torsion [C]-CA--CB-[CG] |==|  0.27136
USER: genes 16 Torsion [CA]-CB--CG-[CD2] |==|  0.34828
USER: genes 17 Torsion [C]-CA--N-[C] |==|  0.57063
USER: genes 18 Torsion [N]-C--CA-[N] |==|  0.47531
USER: genes 19 Torsion [C]-CA--CB-[CG] |==|  0.81823
USER: genes 20 Torsion [CA]-CB--CG-[OD1] |==|  0.94450
ROOT
ATOM      1  CA  LEU D  11      19.561   6.276  66.104  1.00 47.89 LIG 0.18  C 
ENDROOT
BRANCH 1 2
ATOM      2  C   LEU D  11      19.805   6.328  64.602  1.00 48.14 LIG 0.24  C 
ATOM      3 O    LEU D  11      19.891   7.398  64.014  1.00 47.13 LIG-0.27  OA
ATOM      4  N   HIS D  12      19.877   5.157  63.978  1.00 49.28 LIG-0.35  N 
ATOM      5 H    HIS D  12      19.829   4.394  64.371  1.00 49.28 LIG 0.16  HD
BRANCH 4 6
ATOM      6  CA  HIS D  12      20.049   5.094  62.531  1.00 50.49 LIG 0.18  C 
BRANCH 6 7
ATOM      7  C   HIS D  12      19.037   4.152  61.880  1.00 51.38 LIG 0.24  C 
ATOM      8  N   ILE D  13      18.643   3.152  62.652  1.00 53.16 LIG-0.34  N 
ATOM      9 H    ILE D  13      18.966   3.042  63.441  1.00 53.16 LIG 0.16  HD
ATOM     10 O    HIS D  12      18.637   4.340  60.741  1.00 51.57 LIG-0.27  OA
BRANCH 8 11
ATOM     11  CA  ILE D  13      17.647   2.122  62.314  1.00 55.12 LIG 0.19  C 
BRANCH 11 12
ATOM     12  CB  ILE D  13      17.866   1.467  60.903  1.00 55.01 LIG 0.01  C 
ATOM     13  CG2 ILE D  13      18.416   0.031  60.990  1.00 56.15 LIG 0.01  C 
BRANCH 12 14
ATOM     14  CG1 ILE D  13      16.562   1.501  60.099  1.00 55.50 LIG 0.00  C 
ATOM     15  CD1 ILE D  13      16.702   2.110  58.678  1.00 55.45 LIG 0.01  C 
ENDBRANCH 12 14
ENDBRANCH 11 12
BRANCH 11 16
ATOM     16  C   ILE D  13      17.251   1.099  63.384  1.00 55.63 LIG 0.20  C 
ATOM     17 O    ILE D  13      16.193   0.470  63.306  1.00 56.94 LIG-0.65  OA
ATOM     18 OXT  ILE D  13      18.017   0.943  64.345  1.00 55.86 LIG-0.65  OA
ENDBRANCH 11 16
ENDBRANCH 8 11
ENDBRANCH 6 7
BRANCH 6 19
ATOM     19  CB  HIS D  12      21.473   4.675  62.159  1.00 50.55 LIG 0.10  C 
BRANCH 19 20
ATOM     20  CG  HIS D  12      22.220   5.707  61.376  1.00 49.61 LIG 0.06  A 
ATOM     21  CD2 HIS D  12      22.789   6.876  61.753  1.00 48.49 LIG 0.14  A 
ATOM     22 NE2  HIS D  12      23.352   7.432  60.631  1.00 48.62 LIG-0.25  NA
ATOM     23  CE1 HIS D  12      23.158   6.623  59.606  1.00 49.12 LIG 0.23  A 
ATOM     24 ND1  HIS D  12      22.473   5.576  60.027  1.00 49.92 LIG-0.24  NA
ENDBRANCH 19 20
ENDBRANCH 6 19
ENDBRANCH 4 6
ENDBRANCH 1 2
BRANCH 1 25
ATOM     25  CB  LEU D  11      18.246   5.541  66.337  1.00 47.69 LIG 0.04  C 
BRANCH 25 26
ATOM     26  CG  LEU D  11      18.227   4.311  67.253  1.00 48.05 LIG-0.02  C 
ATOM     27  CD1 LEU D  11      17.001   4.349  68.154  1.00 46.53 LIG 0.01  C 
ATOM     28  CD2 LEU D  11      18.294   3.011  66.488  1.00 50.43 LIG 0.01  C 
ENDBRANCH 25 26
ENDBRANCH 1 25
BRANCH 1 29
ATOM     29  N   LEU D  11      19.499   7.591  66.726  1.00 47.51 LIG-0.35  N 
ATOM     30  C   LEU D  10      20.586   8.312  67.004  1.00 47.80 LIG 0.24  C 
ATOM     31 O    LEU D  10      21.736   7.971  66.694  1.00 47.07 LIG-0.27  OA
ATOM     32 H    LEU D  11      18.699   7.857  66.897  1.00 47.51 LIG 0.16  HD
BRANCH 30 33
ATOM     33  CA  LEU D  10      20.336   9.614  67.755  1.00 47.63 LIG 0.18  C 
BRANCH 33 34
ATOM     34  CB  LEU D  10      19.417  10.539  66.962  1.00 47.29 LIG 0.04  C 
BRANCH 34 35
ATOM     35  CG  LEU D  10      17.948  10.475  67.395  1.00 46.92 LIG-0.02  C 
ATOM     36  CD1 LEU D  10      17.741   9.534  68.580  1.00 46.83 LIG 0.01  C 
ATOM     37  CD2 LEU D  10      17.425  11.829  67.741  1.00 45.50 LIG 0.01  C 
ENDBRANCH 34 35
ENDBRANCH 33 34
BRANCH 33 38
ATOM     38  N   LEU D  10      21.601  10.251  68.076  1.00 47.82 LIG-0.35  N 
ATOM     39 H    LEU D  10      22.253  10.048  67.552  1.00 47.82 LIG 0.16  HD
ATOM     40  C   ASP D   9      21.697  11.079  69.109  1.00 48.63 LIG 0.26  C 
ATOM     41 O    ASP D   9      20.754  11.343  69.852  1.00 48.10 LIG-0.27  OA
BRANCH 40 42
ATOM     42  CA  ASP D   9      23.054  11.688  69.344  1.00 49.27 LIG 0.41  C 
ATOM     43  N   ASP D   9      22.904  12.732  70.390  1.00 49.86 LIG 0.61  N 
BRANCH 42 44
ATOM     44  CB  ASP D   9      24.009  10.597  69.808  1.00 50.02 LIG 0.16  C 
BRANCH 44 45
ATOM     45  CG  ASP D   9      23.634  10.031  71.147  1.00 50.84 LIG 0.17  C 
ATOM     46 OD1  ASP D   9      22.893  10.702  71.885  1.00 53.44 LIG-0.65  OA
ATOM     47 OD2  ASP D   9      24.013   8.905  71.540  1.00 53.75 LIG-0.65  OA
ENDBRANCH 44 45
ENDBRANCH 42 44
ENDBRANCH 40 42
ENDBRANCH 33 38
ENDBRANCH 30 33
ENDBRANCH 1 29
TORSDOF 19
ENDMDL
MODEL 35
USER: ADFR SOLUTION from run 152
USER: SCORE 16.235239 LL:  -4.625 LR: -12.204 RR:   0.000 FEB:  -6.537
USER: RMSD 7.289945
USER: SEED 151
USER: STATUS no improvement in best in 8 clusters for 5 generations
USER: GENES 21
USER: genes 0 Translation |==|  0.50608 0.27552 0.39467
USER: genes 1 Rotation |==|  0.17315 0.37402 0.24916 0.75373
USER: genes 2 Torsion [N]-CA--C-[N] |==|  0.51111
USER: genes 3 Torsion [C]-N--CA-[C] |==|  0.81496
USER: genes 4 Torsion [N]-CA--C-[N] |==|  0.37301
USER: genes 5 Torsion [C]-N--CA-[CB] |==|  0.16491
USER: genes 6 Torsion [N]-CA--CB-[CG1] |==|  0.07991
USER: genes 7 Torsion [CA]-CB--CG1-[CD1] |==|  0.17134
USER: genes 8 Torsion [N]-CA--C-[OXT] |==|  0.08059
USER: genes 9 Torsion [N]-CA--CB-[CG] |==|  0.54542
USER: genes 10 Torsion [CA]-CB--CG-[CD2] |==|  0.08499
USER: genes 11 Torsion [C]-CA--CB-[CG] |==|  0.23503
USER: genes 12 Torsion [CA]-CB--CG-[CD1] |==|  0.34123
USER: genes 13 Torsion [C]-CA--N-[C] |==|  0.71597
USER: genes 14 Torsion [N]-C--CA-[N] |==|  0.01797
USER: genes 15 Torsion [C]-CA--CB-[CG] |==|  0.43373
USER: genes 16 Torsion [CA]-CB--CG-[CD2] |==|  0.23786
USER: genes 17 Torsion [C]-CA--N-[C] |==|  0.65308
USER: genes 18 Torsion [N]-C--CA-[N] |==|  0.40693
USER: genes 19 Torsion [C]-CA--CB-[CG] |==|  0.06251
USER: genes 20 Torsion [CA]-CB--CG-[OD1] |==|  0.27384
ROOT
ATOM      1  CA  LEU D  11      18.901   2.820  60.521  1.00 47.89 LIG 0.18  C 
ENDROOT
BRANCH 1 2
ATOM      2  C   LEU D  11      18.067   2.659  59.257  1.00 48.14 LIG 0.24  C 
ATOM      3 O    LEU D  11      18.039   3.538  58.405  1.00 47.13 LIG-0.27  OA
ATOM      4  N   HIS D  12      17.356   1.542  59.160  1.00 49.28 LIG-0.35  N 
ATOM      5 H    HIS D  12      17.367   0.907  59.741  1.00 49.28 LIG 0.16  HD
BRANCH 4 6
ATOM      6  CA  HIS D  12      16.477   1.314  58.018  1.00 50.49 LIG 0.18  C 
BRANCH 6 7
ATOM      7  C   HIS D  12      15.305   2.293  58.001  1.00 51.38 LIG 0.24  C 
ATOM      8  N   ILE D  13      15.063   2.840  56.821  1.00 53.16 LIG-0.34  N 
ATOM      9 H    ILE D  13      15.557   2.668  56.138  1.00 53.16 LIG 0.16  HD
ATOM     10 O    HIS D  12      14.656   2.525  59.010  1.00 51.57 LIG-0.27  OA
BRANCH 8 11
ATOM     11  CA  ILE D  13      13.976   3.777  56.491  1.00 55.12 LIG 0.19  C 
BRANCH 11 12
ATOM     12  CB  ILE D  13      14.006   5.103  57.334  1.00 55.01 LIG 0.01  C 
ATOM     13  CG2 ILE D  13      13.088   5.045  58.569  1.00 56.15 LIG 0.01  C 
BRANCH 12 14
ATOM     14  CG1 ILE D  13      15.445   5.435  57.742  1.00 55.50 LIG 0.00  C 
ATOM     15  CD1 ILE D  13      16.406   5.684  56.548  1.00 55.45 LIG 0.01  C 
ENDBRANCH 12 14
ENDBRANCH 11 12
BRANCH 11 16
ATOM     16  C   ILE D  13      13.632   4.021  55.019  1.00 55.63 LIG 0.20  C 
ATOM     17 O    ILE D  13      13.138   5.089  54.647  1.00 56.94 LIG-0.65  OA
ATOM     18 OXT  ILE D  13      13.843   3.101  54.217  1.00 55.86 LIG-0.65  OA
ENDBRANCH 11 16
ENDBRANCH 8 11
ENDBRANCH 6 7
BRANCH 6 19
ATOM     19  CB  HIS D  12      15.961  -0.126  57.994  1.00 50.55 LIG 0.10  C 
BRANCH 19 20
ATOM     20  CG  HIS D  12      15.384  -0.538  56.676  1.00 49.61 LIG 0.06  A 
ATOM     21  CD2 HIS D  12      15.680  -0.154  55.412  1.00 48.49 LIG 0.14  A 
ATOM     22 NE2  HIS D  12      14.847  -0.851  54.573  1.00 48.62 LIG-0.25  NA
ATOM     23  CE1 HIS D  12      14.083  -1.652  55.292  1.00 49.12 LIG 0.23  A 
ATOM     24 ND1  HIS D  12      14.384  -1.479  56.566  1.00 49.92 LIG-0.24  NA
ENDBRANCH 19 20
ENDBRANCH 6 19
ENDBRANCH 4 6
ENDBRANCH 1 2
BRANCH 1 25
ATOM     25  CB  LEU D  11      17.968   2.659  61.717  1.00 47.69 LIG 0.04  C 
BRANCH 25 26
ATOM     26  CG  LEU D  11      17.652   1.250  62.235  1.00 48.05 LIG-0.02  C 
ATOM     27  CD1 LEU D  11      18.032   1.136  63.704  1.00 46.53 LIG 0.01  C 
ATOM     28  CD2 LEU D  11      16.210   0.858  62.019  1.00 50.43 LIG 0.01  C 
ENDBRANCH 25 26
ENDBRANCH 1 25
BRANCH 1 29
ATOM     29  N   LEU D  11      19.582   4.103  60.606  1.00 47.51 LIG-0.35  N 
ATOM     30  C   LEU D  10      20.881   4.252  60.341  1.00 47.80 LIG 0.24  C 
ATOM     31 O    LEU D  10      21.608   3.339  59.926  1.00 47.07 LIG-0.27  OA
ATOM     32 H    LEU D  11      19.071   4.753  60.843  1.00 47.51 LIG 0.16  HD
BRANCH 30 33
ATOM     33  CA  LEU D  10      21.446   5.645  60.589  1.00 47.63 LIG 0.18  C 
BRANCH 33 34
ATOM     34  CB  LEU D  10      22.729   5.581  61.411  1.00 47.29 LIG 0.04  C 
BRANCH 34 35
ATOM     35  CG  LEU D  10      23.648   6.794  61.225  1.00 46.92 LIG-0.02  C 
ATOM     36  CD1 LEU D  10      23.645   7.297  59.783  1.00 46.83 LIG 0.01  C 
ATOM     37  CD2 LEU D  10      23.264   7.910  62.139  1.00 45.50 LIG 0.01  C 
ENDBRANCH 34 35
ENDBRANCH 33 34
BRANCH 33 38
ATOM     38  N   LEU D  10      20.440   6.483  61.219  1.00 47.82 LIG-0.35  N 
ATOM     39 H    LEU D  10      20.107   6.166  61.946  1.00 47.82 LIG 0.16  HD
ATOM     40  C   ASP D   9      20.093   7.644  60.678  1.00 48.63 LIG 0.26  C 
ATOM     41 O    ASP D   9      20.573   8.070  59.630  1.00 48.10 LIG-0.27  OA
BRANCH 40 42
ATOM     42  CA  ASP D   9      19.046   8.432  61.420  1.00 49.27 LIG 0.41  C 
ATOM     43  N   ASP D   9      19.352   9.874  61.231  1.00 49.86 LIG 0.61  N 
BRANCH 42 44
ATOM     44  CB  ASP D   9      17.677   8.094  60.847  1.00 50.02 LIG 0.16  C 
BRANCH 44 45
ATOM     45  CG  ASP D   9      17.654   6.767  60.148  1.00 50.84 LIG 0.17  C 
ATOM     46 OD1  ASP D   9      17.218   5.781  60.767  1.00 53.44 LIG-0.65  OA
ATOM     47 OD2  ASP D   9      18.030   6.613  58.964  1.00 53.75 LIG-0.65  OA
ENDBRANCH 44 45
ENDBRANCH 42 44
ENDBRANCH 40 42
ENDBRANCH 33 38
ENDBRANCH 30 33
ENDBRANCH 1 29
TORSDOF 19
ENDMDL
MODEL 36
USER: ADFR SOLUTION from run 180
USER: SCORE 16.422936 LL:  -4.786 LR: -12.146 RR:   0.000 FEB:  -6.478
USER: RMSD 6.116934
USER: SEED 179
USER: STATUS no improvement in best in 13 clusters for 5 generations
USER: GENES 21
USER: genes 0 Translation |==|  0.46929 0.21010 0.38711
USER: genes 1 Rotation |==|  0.23486 0.46121 0.31497 0.87942
USER: genes 2 Torsion [N]-CA--C-[N] |==|  0.00616
USER: genes 3 Torsion [C]-N--CA-[C] |==|  0.82260
USER: genes 4 Torsion [N]-CA--C-[N] |==|  0.37093
USER: genes 5 Torsion [C]-N--CA-[CB] |==|  0.29733
USER: genes 6 Torsion [N]-CA--CB-[CG1] |==|  0.91838
USER: genes 7 Torsion [CA]-CB--CG1-[CD1] |==|  0.33908
USER: genes 8 Torsion [N]-CA--C-[OXT] |==|  0.11318
USER: genes 9 Torsion [N]-CA--CB-[CG] |==|  0.15115
USER: genes 10 Torsion [CA]-CB--CG-[CD2] |==|  0.84906
USER: genes 11 Torsion [C]-CA--CB-[CG] |==|  0.78150
USER: genes 12 Torsion [CA]-CB--CG-[CD1] |==|  0.34284
USER: genes 13 Torsion [C]-CA--N-[C] |==|  0.70862
USER: genes 14 Torsion [N]-C--CA-[N] |==|  0.53327
USER: genes 15 Torsion [C]-CA--CB-[CG] |==|  0.31037
USER: genes 16 Torsion [CA]-CB--CG-[CD2] |==|  0.25167
USER: genes 17 Torsion [C]-CA--N-[C] |==|  0.57601
USER: genes 18 Torsion [N]-C--CA-[N] |==|  0.15749
USER: genes 19 Torsion [C]-CA--CB-[CG] |==|  0.50501
USER: genes 20 Torsion [CA]-CB--CG-[OD1] |==|  0.12597
ROOT
ATOM      1  CA  LEU D  11      18.183   1.593  60.351  1.00 47.89 LIG 0.18  C 
ENDROOT
BRANCH 1 2
ATOM      2  C   LEU D  11      16.944   1.825  59.497  1.00 48.14 LIG 0.24  C 
ATOM      3 O    LEU D  11      16.391   0.896  58.924  1.00 47.13 LIG-0.27  OA
ATOM      4  N   HIS D  12      16.535   3.084  59.386  1.00 49.28 LIG-0.35  N 
ATOM      5 H    HIS D  12      16.901   3.751  59.786  1.00 49.28 LIG 0.16  HD
BRANCH 4 6
ATOM      6  CA  HIS D  12      15.393   3.425  58.543  1.00 50.49 LIG 0.18  C 
BRANCH 6 7
ATOM      7  C   HIS D  12      15.664   3.121  57.071  1.00 51.38 LIG 0.24  C 
ATOM      8  N   ILE D  13      14.685   2.481  56.453  1.00 53.16 LIG-0.34  N 
ATOM      9 H    ILE D  13      13.975   2.238  56.872  1.00 53.16 LIG 0.16  HD
ATOM     10 O    HIS D  12      16.707   3.462  56.534  1.00 51.57 LIG-0.27  OA
BRANCH 8 11
ATOM     11  CA  ILE D  13      14.643   2.099  55.031  1.00 55.12 LIG 0.19  C 
BRANCH 11 12
ATOM     12  CB  ILE D  13      14.838   0.560  54.783  1.00 55.01 LIG 0.01  C 
ATOM     13  CG2 ILE D  13      15.427   0.249  53.394  1.00 56.15 LIG 0.01  C 
BRANCH 12 14
ATOM     14  CG1 ILE D  13      15.708  -0.045  55.889  1.00 55.50 LIG 0.00  C 
ATOM     15  CD1 ILE D  13      15.032  -1.202  56.674  1.00 55.45 LIG 0.01  C 
ENDBRANCH 12 14
ENDBRANCH 11 12
BRANCH 11 16
ATOM     16  C   ILE D  13      13.563   2.709  54.134  1.00 55.63 LIG 0.20  C 
ATOM     17 O    ILE D  13      12.993   2.036  53.272  1.00 56.94 LIG-0.65  OA
ATOM     18 OXT  ILE D  13      13.298   3.910  54.284  1.00 55.86 LIG-0.65  OA
ENDBRANCH 11 16
ENDBRANCH 8 11
ENDBRANCH 6 7
BRANCH 6 19
ATOM     19  CB  HIS D  12      14.996   4.892  58.713  1.00 50.55 LIG 0.10  C 
BRANCH 19 20
ATOM     20  CG  HIS D  12      16.120   5.852  58.484  1.00 49.61 LIG 0.06  A 
ATOM     21  CD2 HIS D  12      17.354   5.932  59.037  1.00 48.49 LIG 0.14  A 
ATOM     22 NE2  HIS D  12      17.986   7.005  58.461  1.00 48.62 LIG-0.25  NA
ATOM     23  CE1 HIS D  12      17.181   7.551  57.569  1.00 49.12 LIG 0.23  A 
ATOM     24 ND1  HIS D  12      16.046   6.877  57.566  1.00 49.92 LIG-0.24  NA
ENDBRANCH 19 20
ENDBRANCH 6 19
ENDBRANCH 4 6
ENDBRANCH 1 2
BRANCH 1 25
ATOM     25  CB  LEU D  11      17.816   0.593  61.442  1.00 47.69 LIG 0.04  C 
BRANCH 25 26
ATOM     26  CG  LEU D  11      17.034   1.077  62.669  1.00 48.05 LIG-0.02  C 
ATOM     27  CD1 LEU D  11      15.749   0.275  62.820  1.00 46.53 LIG 0.01  C 
ATOM     28  CD2 LEU D  11      17.851   1.029  63.939  1.00 50.43 LIG 0.01  C 
ENDBRANCH 25 26
ENDBRANCH 1 25
BRANCH 1 29
ATOM     29  N   LEU D  11      18.702   2.809  60.961  1.00 47.51 LIG-0.35  N 
ATOM     30  C   LEU D  10      19.799   3.428  60.522  1.00 47.80 LIG 0.24  C 
ATOM     31 O    LEU D  10      20.432   3.077  59.516  1.00 47.07 LIG-0.27  OA
ATOM     32 H    LEU D  11      18.237   3.089  61.628  1.00 47.51 LIG 0.16  HD
BRANCH 30 33
ATOM     33  CA  LEU D  10      20.254   4.623  61.350  1.00 47.63 LIG 0.18  C 
BRANCH 33 34
ATOM     34  CB  LEU D  10      19.072   5.503  61.744  1.00 47.29 LIG 0.04  C 
BRANCH 34 35
ATOM     35  CG  LEU D  10      18.758   5.486  63.245  1.00 46.92 LIG-0.02  C 
ATOM     36  CD1 LEU D  10      19.080   4.135  63.881  1.00 46.83 LIG 0.01  C 
ATOM     37  CD2 LEU D  10      19.499   6.562  63.966  1.00 45.50 LIG 0.01  C 
ENDBRANCH 34 35
ENDBRANCH 33 34
BRANCH 33 38
ATOM     38  N   LEU D  10      21.269   5.369  60.626  1.00 47.82 LIG-0.35  N 
ATOM     39 H    LEU D  10      21.221   5.309  59.770  1.00 47.82 LIG 0.16  HD
ATOM     40  C   ASP D   9      22.180   6.078  61.281  1.00 48.63 LIG 0.26  C 
ATOM     41 O    ASP D   9      22.237   6.138  62.507  1.00 48.10 LIG-0.27  OA
BRANCH 40 42
ATOM     42  CA  ASP D   9      23.178   6.818  60.428  1.00 49.27 LIG 0.41  C 
ATOM     43  N   ASP D   9      22.416   7.705  59.511  1.00 49.86 LIG 0.61  N 
BRANCH 42 44
ATOM     44  CB  ASP D   9      24.086   7.637  61.334  1.00 50.02 LIG 0.16  C 
BRANCH 44 45
ATOM     45  CG  ASP D   9      25.091   8.446  60.568  1.00 50.84 LIG 0.17  C 
ATOM     46 OD1  ASP D   9      24.702   9.083  59.574  1.00 53.44 LIG-0.65  OA
ATOM     47 OD2  ASP D   9      26.295   8.529  60.900  1.00 53.75 LIG-0.65  OA
ENDBRANCH 44 45
ENDBRANCH 42 44
ENDBRANCH 40 42
ENDBRANCH 33 38
ENDBRANCH 30 33
ENDBRANCH 1 29
TORSDOF 19
ENDMDL
MODEL 37
USER: ADFR SOLUTION from run 170
USER: SCORE 16.363962 LL:  -4.675 LR: -12.140 RR:   0.000 FEB:  -6.472
USER: RMSD 8.143599
USER: SEED 169
USER: STATUS no improvement in best in 5 clusters for 5 generations
USER: GENES 21
USER: genes 0 Translation |==|  0.49423 0.49558 0.63937
USER: genes 1 Rotation |==|  0.58992 0.23445 0.25876 0.83646
USER: genes 2 Torsion [N]-CA--C-[N] |==|  0.44292
USER: genes 3 Torsion [C]-N--CA-[C] |==|  0.65723
USER: genes 4 Torsion [N]-CA--C-[N] |==|  0.00876
USER: genes 5 Torsion [C]-N--CA-[CB] |==|  0.70421
USER: genes 6 Torsion [N]-CA--CB-[CG1] |==|  0.89331
USER: genes 7 Torsion [CA]-CB--CG1-[CD1] |==|  0.52202
USER: genes 8 Torsion [N]-CA--C-[OXT] |==|  0.64742
USER: genes 9 Torsion [N]-CA--CB-[CG] |==|  0.96094
USER: genes 10 Torsion [CA]-CB--CG-[CD2] |==|  0.32570
USER: genes 11 Torsion [C]-CA--CB-[CG] |==|  0.36966
USER: genes 12 Torsion [CA]-CB--CG-[CD1] |==|  0.94719
USER: genes 13 Torsion [C]-CA--N-[C] |==|  0.54445
USER: genes 14 Torsion [N]-C--CA-[N] |==|  0.44385
USER: genes 15 Torsion [C]-CA--CB-[CG] |==|  0.97931
USER: genes 16 Torsion [CA]-CB--CG-[CD2] |==|  0.64261
USER: genes 17 Torsion [C]-CA--N-[C] |==|  0.64034
USER: genes 18 Torsion [N]-C--CA-[N] |==|  0.33726
USER: genes 19 Torsion [C]-CA--CB-[CG] |==|  0.75486
USER: genes 20 Torsion [CA]-CB--CG-[OD1] |==|  0.35967
ROOT
ATOM      1  CA  LEU D  11      18.669   6.946  66.027  1.00 47.89 LIG 0.18  C 
ENDROOT
BRANCH 1 2
ATOM      2  C   LEU D  11      19.104   7.956  64.973  1.00 48.14 LIG 0.24  C 
ATOM      3 O    LEU D  11      18.290   8.697  64.438  1.00 47.13 LIG-0.27  OA
ATOM      4  N   HIS D  12      20.392   7.950  64.650  1.00 49.28 LIG-0.35  N 
ATOM      5 H    HIS D  12      20.983   7.446  65.018  1.00 49.28 LIG 0.16  HD
BRANCH 4 6
ATOM      6  CA  HIS D  12      20.903   8.836  63.609  1.00 50.49 LIG 0.18  C 
BRANCH 6 7
ATOM      7  C   HIS D  12      21.612   8.059  62.502  1.00 51.38 LIG 0.24  C 
ATOM      8  N   ILE D  13      21.580   6.744  62.646  1.00 53.16 LIG-0.34  N 
ATOM      9 H    ILE D  13      21.211   6.378  63.331  1.00 53.16 LIG 0.16  HD
ATOM     10 O    HIS D  12      22.150   8.634  61.566  1.00 51.57 LIG-0.27  OA
BRANCH 8 11
ATOM     11  CA  ILE D  13      22.135   5.744  61.718  1.00 55.12 LIG 0.19  C 
BRANCH 11 12
ATOM     12  CB  ILE D  13      21.042   4.970  60.894  1.00 55.01 LIG 0.01  C 
ATOM     13  CG2 ILE D  13      21.579   3.671  60.266  1.00 56.15 LIG 0.01  C 
BRANCH 12 14
ATOM     14  CG1 ILE D  13      19.823   4.684  61.777  1.00 55.50 LIG 0.00  C 
ATOM     15  CD1 ILE D  13      18.765   3.755  61.123  1.00 55.45 LIG 0.01  C 
ENDBRANCH 12 14
ENDBRANCH 11 12
BRANCH 11 16
ATOM     16  C   ILE D  13      23.356   6.117  60.873  1.00 55.63 LIG 0.20  C 
ATOM     17 O    ILE D  13      24.371   6.588  61.391  1.00 56.94 LIG-0.65  OA
ATOM     18 OXT  ILE D  13      23.282   5.953  59.647  1.00 55.86 LIG-0.65  OA
ENDBRANCH 11 16
ENDBRANCH 8 11
ENDBRANCH 6 7
BRANCH 6 19
ATOM     19  CB  HIS D  12      21.840   9.895  64.192  1.00 50.55 LIG 0.10  C 
BRANCH 19 20
ATOM     20  CG  HIS D  12      21.768  10.010  65.682  1.00 49.61 LIG 0.06  A 
ATOM     21  CD2 HIS D  12      22.700   9.794  66.641  1.00 48.49 LIG 0.14  A 
ATOM     22 NE2  HIS D  12      22.102  10.051  67.849  1.00 48.62 LIG-0.25  NA
ATOM     23  CE1 HIS D  12      20.857  10.435  67.641  1.00 49.12 LIG 0.23  A 
ATOM     24 ND1  HIS D  12      20.628  10.414  66.341  1.00 49.92 LIG-0.24  NA
ENDBRANCH 19 20
ENDBRANCH 6 19
ENDBRANCH 4 6
ENDBRANCH 1 2
BRANCH 1 25
ATOM     25  CB  LEU D  11      18.533   5.590  65.344  1.00 47.69 LIG 0.04  C 
BRANCH 25 26
ATOM     26  CG  LEU D  11      19.155   4.353  66.003  1.00 48.05 LIG-0.02  C 
ATOM     27  CD1 LEU D  11      20.210   4.775  67.016  1.00 46.53 LIG 0.01  C 
ATOM     28  CD2 LEU D  11      18.126   3.451  66.641  1.00 50.43 LIG 0.01  C 
ENDBRANCH 25 26
ENDBRANCH 1 25
BRANCH 1 29
ATOM     29  N   LEU D  11      17.414   7.291  66.677  1.00 47.51 LIG-0.35  N 
ATOM     30  C   LEU D  10      17.012   6.732  67.819  1.00 47.80 LIG 0.24  C 
ATOM     31 O    LEU D  10      17.697   5.931  68.472  1.00 47.07 LIG-0.27  OA
ATOM     32 H    LEU D  11      16.957   7.887  66.257  1.00 47.51 LIG 0.16  HD
BRANCH 30 33
ATOM     33  CA  LEU D  10      15.622   7.135  68.294  1.00 47.63 LIG 0.18  C 
BRANCH 33 34
ATOM     34  CB  LEU D  10      15.629   8.539  68.891  1.00 47.29 LIG 0.04  C 
BRANCH 34 35
ATOM     35  CG  LEU D  10      17.029   9.142  69.044  1.00 46.92 LIG-0.02  C 
ATOM     36  CD1 LEU D  10      17.279  10.268  68.043  1.00 46.83 LIG 0.01  C 
ATOM     37  CD2 LEU D  10      17.251   9.654  70.429  1.00 45.50 LIG 0.01  C 
ENDBRANCH 34 35
ENDBRANCH 33 34
BRANCH 33 38
ATOM     38  N   LEU D  10      15.114   6.148  69.233  1.00 47.82 LIG-0.35  N 
ATOM     39 H    LEU D  10      15.651   5.949  69.875  1.00 47.82 LIG 0.16  HD
ATOM     40  C   ASP D   9      13.907   5.623  69.071  1.00 48.63 LIG 0.26  C 
ATOM     41 O    ASP D   9      13.163   5.913  68.137  1.00 48.10 LIG-0.27  OA
BRANCH 40 42
ATOM     42  CA  ASP D   9      13.481   4.616  70.108  1.00 49.27 LIG 0.41  C 
ATOM     43  N   ASP D   9      12.232   5.120  70.737  1.00 49.86 LIG 0.61  N 
BRANCH 42 44
ATOM     44  CB  ASP D   9      13.236   3.279  69.424  1.00 50.02 LIG 0.16  C 
BRANCH 44 45
ATOM     45  CG  ASP D   9      11.830   3.136  68.921  1.00 50.84 LIG 0.17  C 
ATOM     46 OD1  ASP D   9      11.657   2.781  67.742  1.00 53.44 LIG-0.65  OA
ATOM     47 OD2  ASP D   9      10.825   3.331  69.641  1.00 53.75 LIG-0.65  OA
ENDBRANCH 44 45
ENDBRANCH 42 44
ENDBRANCH 40 42
ENDBRANCH 33 38
ENDBRANCH 30 33
ENDBRANCH 1 29
TORSDOF 19
ENDMDL
MODEL 38
USER: ADFR SOLUTION from run 117
USER: SCORE 15.421813 LL:  -4.043 LR: -12.110 RR:   0.000 FEB:  -6.442
USER: RMSD 5.656153
USER: SEED 116
USER: STATUS no improvement in best in 10 clusters for 5 generations
USER: GENES 21
USER: genes 0 Translation |==|  0.51011 0.48560 0.68089
USER: genes 1 Rotation |==|  0.22591 0.26945 0.22099 0.70946
USER: genes 2 Torsion [N]-CA--C-[N] |==|  0.28482
USER: genes 3 Torsion [C]-N--CA-[C] |==|  0.80102
USER: genes 4 Torsion [N]-CA--C-[N] |==|  0.43333
USER: genes 5 Torsion [C]-N--CA-[CB] |==|  0.53928
USER: genes 6 Torsion [N]-CA--CB-[CG1] |==|  0.41627
USER: genes 7 Torsion [CA]-CB--CG1-[CD1] |==|  0.48432
USER: genes 8 Torsion [N]-CA--C-[OXT] |==|  0.89887
USER: genes 9 Torsion [N]-CA--CB-[CG] |==|  0.66463
USER: genes 10 Torsion [CA]-CB--CG-[CD2] |==|  0.03612
USER: genes 11 Torsion [C]-CA--CB-[CG] |==|  0.24259
USER: genes 12 Torsion [CA]-CB--CG-[CD1] |==|  0.55605
USER: genes 13 Torsion [C]-CA--N-[C] |==|  0.77075
USER: genes 14 Torsion [N]-C--CA-[N] |==|  0.20924
USER: genes 15 Torsion [C]-CA--CB-[CG] |==|  0.74919
USER: genes 16 Torsion [CA]-CB--CG-[CD2] |==|  0.72839
USER: genes 17 Torsion [C]-CA--N-[C] |==|  0.63528
USER: genes 18 Torsion [N]-C--CA-[N] |==|  0.82767
USER: genes 19 Torsion [C]-CA--CB-[CG] |==|  0.66844
USER: genes 20 Torsion [CA]-CB--CG-[OD1] |==|  0.83089
ROOT
ATOM      1  CA  LEU D  11      18.979   6.759  66.961  1.00 47.89 LIG 0.18  C 
ENDROOT
BRANCH 1 2
ATOM      2  C   LEU D  11      18.816   6.241  65.538  1.00 48.14 LIG 0.24  C 
ATOM      3 O    LEU D  11      17.804   6.482  64.893  1.00 47.13 LIG-0.27  OA
ATOM      4  N   HIS D  12      19.806   5.492  65.069  1.00 49.28 LIG-0.35  N 
ATOM      5 H    HIS D  12      20.530   5.317  65.500  1.00 49.28 LIG 0.16  HD
BRANCH 4 6
ATOM      6  CA  HIS D  12      19.724   4.895  63.740  1.00 50.49 LIG 0.18  C 
BRANCH 6 7
ATOM      7  C   HIS D  12      18.711   3.754  63.692  1.00 51.38 LIG 0.24  C 
ATOM      8  N   ILE D  13      18.219   3.505  62.489  1.00 53.16 LIG-0.34  N 
ATOM      9 H    ILE D  13      18.442   3.981  61.808  1.00 53.16 LIG 0.16  HD
ATOM     10 O    HIS D  12      18.407   3.132  64.700  1.00 51.57 LIG-0.27  OA
BRANCH 8 11
ATOM     11  CA  ILE D  13      17.267   2.441  62.131  1.00 55.12 LIG 0.19  C 
BRANCH 11 12
ATOM     12  CB  ILE D  13      17.151   2.190  60.584  1.00 55.01 LIG 0.01  C 
ATOM     13  CG2 ILE D  13      18.421   2.601  59.816  1.00 56.15 LIG 0.01  C 
BRANCH 12 14
ATOM     14  CG1 ILE D  13      16.804   0.722  60.314  1.00 55.50 LIG 0.00  C 
ATOM     15  CD1 ILE D  13      16.529   0.394  58.821  1.00 55.45 LIG 0.01  C 
ENDBRANCH 12 14
ENDBRANCH 11 12
BRANCH 11 16
ATOM     16  C   ILE D  13      17.273   1.141  62.941  1.00 55.63 LIG 0.20  C 
ATOM     17 O    ILE D  13      16.223   0.553  63.211  1.00 56.94 LIG-0.65  OA
ATOM     18 OXT  ILE D  13      18.365   0.714  63.338  1.00 55.86 LIG-0.65  OA
ENDBRANCH 11 16
ENDBRANCH 8 11
ENDBRANCH 6 7
BRANCH 6 19
ATOM     19  CB  HIS D  12      21.094   4.404  63.266  1.00 50.55 LIG 0.10  C 
BRANCH 19 20
ATOM     20  CG  HIS D  12      21.558   5.043  61.995  1.00 49.61 LIG 0.06  A 
ATOM     21  CD2 HIS D  12      21.102   6.124  61.321  1.00 48.49 LIG 0.14  A 
ATOM     22 NE2  HIS D  12      21.898   6.275  60.213  1.00 48.62 LIG-0.25  NA
ATOM     23  CE1 HIS D  12      22.825   5.335  60.218  1.00 49.12 LIG 0.23  A 
ATOM     24 ND1  HIS D  12      22.640   4.575  61.281  1.00 49.92 LIG-0.24  NA
ENDBRANCH 19 20
ENDBRANCH 6 19
ENDBRANCH 4 6
ENDBRANCH 1 2
BRANCH 1 25
ATOM     25  CB  LEU D  11      17.647   6.574  67.679  1.00 47.69 LIG 0.04  C 
BRANCH 25 26
ATOM     26  CG  LEU D  11      17.352   5.242  68.380  1.00 48.05 LIG-0.02  C 
ATOM     27  CD1 LEU D  11      15.853   5.079  68.585  1.00 46.53 LIG 0.01  C 
ATOM     28  CD2 LEU D  11      17.927   4.055  67.644  1.00 50.43 LIG 0.01  C 
ENDBRANCH 25 26
ENDBRANCH 1 25
BRANCH 1 29
ATOM     29  N   LEU D  11      19.376   8.158  67.026  1.00 47.51 LIG-0.35  N 
ATOM     30  C   LEU D  10      20.643   8.557  66.900  1.00 47.80 LIG 0.24  C 
ATOM     31 O    LEU D  10      21.583   7.793  66.641  1.00 47.07 LIG-0.27  OA
ATOM     32 H    LEU D  11      18.721   8.700  67.153  1.00 47.51 LIG 0.16  HD
BRANCH 30 33
ATOM     33  CA  LEU D  10      20.884  10.047  67.105  1.00 47.63 LIG 0.18  C 
BRANCH 33 34
ATOM     34  CB  LEU D  10      22.207  10.482  66.482  1.00 47.29 LIG 0.04  C 
BRANCH 34 35
ATOM     35  CG  LEU D  10      23.403  10.393  67.438  1.00 46.92 LIG-0.02  C 
ATOM     36  CD1 LEU D  10      24.653   9.858  66.742  1.00 46.83 LIG 0.01  C 
ATOM     37  CD2 LEU D  10      23.707  11.719  68.050  1.00 45.50 LIG 0.01  C 
ENDBRANCH 34 35
ENDBRANCH 33 34
BRANCH 33 38
ATOM     38  N   LEU D  10      20.819  10.370  68.520  1.00 47.82 LIG-0.35  N 
ATOM     39 H    LEU D  10      21.283   9.857  69.031  1.00 47.82 LIG 0.16  HD
ATOM     40  C   ASP D   9      20.085  11.391  68.946  1.00 48.63 LIG 0.26  C 
ATOM     41 O    ASP D   9      19.419  12.102  68.198  1.00 48.10 LIG-0.27  OA
BRANCH 40 42
ATOM     42  CA  ASP D   9      20.098  11.638  70.432  1.00 49.27 LIG 0.41  C 
ATOM     43  N   ASP D   9      19.530  10.434  71.093  1.00 49.86 LIG 0.61  N 
BRANCH 42 44
ATOM     44  CB  ASP D   9      21.534  11.868  70.880  1.00 50.02 LIG 0.16  C 
BRANCH 44 45
ATOM     45  CG  ASP D   9      21.997  10.855  71.885  1.00 50.84 LIG 0.17  C 
ATOM     46 OD1  ASP D   9      21.392  10.779  72.969  1.00 53.44 LIG-0.65  OA
ATOM     47 OD2  ASP D   9      22.945  10.067  71.671  1.00 53.75 LIG-0.65  OA
ENDBRANCH 44 45
ENDBRANCH 42 44
ENDBRANCH 40 42
ENDBRANCH 33 38
ENDBRANCH 30 33
ENDBRANCH 1 29
TORSDOF 19
ENDMDL
MODEL 39
USER: ADFR SOLUTION from run 96
USER: SCORE 16.012349 LL:  -4.657 LR: -12.101 RR:   0.000 FEB:  -6.433
USER: RMSD 9.343811
USER: SEED 95
USER: STATUS no improvement in best in 8 clusters for 5 generations
USER: GENES 21
USER: genes 0 Translation |==|  0.50517 0.43374 0.67073
USER: genes 1 Rotation |==|  0.61436 0.18820 0.20795 0.73325
USER: genes 2 Torsion [N]-CA--C-[N] |==|  0.77293
USER: genes 3 Torsion [C]-N--CA-[C] |==|  0.83468
USER: genes 4 Torsion [N]-CA--C-[N] |==|  0.33889
USER: genes 5 Torsion [C]-N--CA-[CB] |==|  0.33908
USER: genes 6 Torsion [N]-CA--CB-[CG1] |==|  0.13608
USER: genes 7 Torsion [CA]-CB--CG1-[CD1] |==|  0.27707
USER: genes 8 Torsion [N]-CA--C-[OXT] |==|  0.97798
USER: genes 9 Torsion [N]-CA--CB-[CG] |==|  0.76655
USER: genes 10 Torsion [CA]-CB--CG-[CD2] |==|  0.58239
USER: genes 11 Torsion [C]-CA--CB-[CG] |==|  0.39685
USER: genes 12 Torsion [CA]-CB--CG-[CD1] |==|  0.14080
USER: genes 13 Torsion [C]-CA--N-[C] |==|  0.64211
USER: genes 14 Torsion [N]-C--CA-[N] |==|  0.41841
USER: genes 15 Torsion [C]-CA--CB-[CG] |==|  0.20508
USER: genes 16 Torsion [CA]-CB--CG-[CD2] |==|  0.08557
USER: genes 17 Torsion [C]-CA--N-[C] |==|  0.80894
USER: genes 18 Torsion [N]-C--CA-[N] |==|  0.16134
USER: genes 19 Torsion [C]-CA--CB-[CG] |==|  0.74140
USER: genes 20 Torsion [CA]-CB--CG-[OD1] |==|  0.33012
ROOT
ATOM      1  CA  LEU D  11      18.883   5.787  66.732  1.00 47.89 LIG 0.18  C 
ENDROOT
BRANCH 1 2
ATOM      2  C   LEU D  11      19.938   6.690  66.108  1.00 48.14 LIG 0.24  C 
ATOM      3 O    LEU D  11      20.793   7.229  66.797  1.00 47.13 LIG-0.27  OA
ATOM      4  N   HIS D  12      19.845   6.882  64.797  1.00 49.28 LIG-0.35  N 
ATOM      5 H    HIS D  12      19.259   6.507  64.291  1.00 49.28 LIG 0.16  HD
BRANCH 4 6
ATOM      6  CA  HIS D  12      20.768   7.777  64.107  1.00 50.49 LIG 0.18  C 
BRANCH 6 7
ATOM      7  C   HIS D  12      20.694   9.200  64.655  1.00 51.38 LIG 0.24  C 
ATOM      8  N   ILE D  13      21.840   9.672  65.118  1.00 53.16 LIG-0.34  N 
ATOM      9 H    ILE D  13      22.551   9.188  65.128  1.00 53.16 LIG 0.16  HD
ATOM     10 O    HIS D  12      19.646   9.831  64.644  1.00 51.57 LIG-0.27  OA
BRANCH 8 11
ATOM     11  CA  ILE D  13      22.082  11.020  65.659  1.00 55.12 LIG 0.19  C 
BRANCH 11 12
ATOM     12  CB  ILE D  13      22.630  11.021  67.132  1.00 55.01 LIG 0.01  C 
ATOM     13  CG2 ILE D  13      21.542  10.700  68.174  1.00 56.15 LIG 0.01  C 
BRANCH 12 14
ATOM     14  CG1 ILE D  13      23.806  10.047  67.256  1.00 55.50 LIG 0.00  C 
ATOM     15  CD1 ILE D  13      25.203  10.723  67.209  1.00 55.45 LIG 0.01  C 
ENDBRANCH 12 14
ENDBRANCH 11 12
BRANCH 11 16
ATOM     16  C   ILE D  13      22.772  12.060  64.771  1.00 55.63 LIG 0.20  C 
ATOM     17 O    ILE D  13      22.845  13.243  65.112  1.00 56.94 LIG-0.65  OA
ATOM     18 OXT  ILE D  13      23.233  11.678  63.686  1.00 55.86 LIG-0.65  OA
ENDBRANCH 11 16
ENDBRANCH 8 11
ENDBRANCH 6 7
BRANCH 6 19
ATOM     19  CB  HIS D  12      20.516   7.779  62.598  1.00 50.55 LIG 0.10  C 
BRANCH 19 20
ATOM     20  CG  HIS D  12      21.194   6.660  61.872  1.00 49.61 LIG 0.06  A 
ATOM     21  CD2 HIS D  12      21.669   6.575  60.607  1.00 48.49 LIG 0.14  A 
ATOM     22 NE2  HIS D  12      22.201   5.318  60.459  1.00 48.62 LIG-0.25  NA
ATOM     23  CE1 HIS D  12      22.081   4.663  61.599  1.00 49.12 LIG 0.23  A 
ATOM     24 ND1  HIS D  12      21.472   5.449  62.467  1.00 49.92 LIG-0.24  NA
ENDBRANCH 19 20
ENDBRANCH 6 19
ENDBRANCH 4 6
ENDBRANCH 1 2
BRANCH 1 25
ATOM     25  CB  LEU D  11      18.635   4.628  65.773  1.00 47.69 LIG 0.04  C 
BRANCH 25 26
ATOM     26  CG  LEU D  11      18.374   3.227  66.341  1.00 48.05 LIG-0.02  C 
ATOM     27  CD1 LEU D  11      17.282   3.288  67.400  1.00 46.53 LIG 0.01  C 
ATOM     28  CD2 LEU D  11      18.032   2.217  65.272  1.00 50.43 LIG 0.01  C 
ENDBRANCH 25 26
ENDBRANCH 1 25
BRANCH 1 29
ATOM     29  N   LEU D  11      17.626   6.468  67.007  1.00 47.51 LIG-0.35  N 
ATOM     30  C   LEU D  10      17.023   6.422  68.195  1.00 47.80 LIG 0.24  C 
ATOM     31 O    LEU D  10      17.506   5.867  69.192  1.00 47.07 LIG-0.27  OA
ATOM     32 H    LEU D  11      17.311   6.900  66.333  1.00 47.51 LIG 0.16  HD
BRANCH 30 33
ATOM     33  CA  LEU D  10      15.662   7.103  68.267  1.00 47.63 LIG 0.18  C 
BRANCH 33 34
ATOM     34  CB  LEU D  10      15.806   8.598  68.535  1.00 47.29 LIG 0.04  C 
BRANCH 34 35
ATOM     35  CG  LEU D  10      16.300   9.401  67.327  1.00 46.92 LIG-0.02  C 
ATOM     36  CD1 LEU D  10      17.821   9.538  67.314  1.00 46.83 LIG 0.01  C 
ATOM     37  CD2 LEU D  10      15.848   8.785  66.045  1.00 45.50 LIG 0.01  C 
ENDBRANCH 34 35
ENDBRANCH 33 34
BRANCH 33 38
ATOM     38  N   LEU D  10      14.833   6.450  69.266  1.00 47.82 LIG-0.35  N 
ATOM     39 H    LEU D  10      14.670   6.922  69.966  1.00 47.82 LIG 0.16  HD
ATOM     40  C   ASP D   9      14.384   5.217  69.069  1.00 48.63 LIG 0.26  C 
ATOM     41 O    ASP D   9      14.643   4.556  68.066  1.00 48.10 LIG-0.27  OA
BRANCH 40 42
ATOM     42  CA  ASP D   9      13.529   4.642  70.168  1.00 49.27 LIG 0.41  C 
ATOM     43  N   ASP D   9      12.366   5.549  70.353  1.00 49.86 LIG 0.61  N 
BRANCH 42 44
ATOM     44  CB  ASP D   9      13.065   3.252  69.755  1.00 50.02 LIG 0.16  C 
BRANCH 44 45
ATOM     45  CG  ASP D   9      11.728   3.266  69.074  1.00 50.84 LIG 0.17  C 
ATOM     46 OD1  ASP D   9      11.657   2.855  67.904  1.00 53.44 LIG-0.65  OA
ATOM     47 OD2  ASP D   9      10.679   3.648  69.641  1.00 53.75 LIG-0.65  OA
ENDBRANCH 44 45
ENDBRANCH 42 44
ENDBRANCH 40 42
ENDBRANCH 33 38
ENDBRANCH 30 33
ENDBRANCH 1 29
TORSDOF 19
ENDMDL
MODEL 40
USER: ADFR SOLUTION from run 72
USER: SCORE 17.161438 LL:  -5.525 LR: -12.087 RR:   0.000 FEB:  -6.419
USER: RMSD 6.961303
USER: SEED 71
USER: STATUS no improvement in best in 3 clusters for 5 generations
USER: GENES 21
USER: genes 0 Translation |==|  0.46088 0.26847 0.43761
USER: genes 1 Rotation |==|  0.13163 0.42327 0.33898 0.78720
USER: genes 2 Torsion [N]-CA--C-[N] |==|  0.88716
USER: genes 3 Torsion [C]-N--CA-[C] |==|  0.78715
USER: genes 4 Torsion [N]-CA--C-[N] |==|  0.33617
USER: genes 5 Torsion [C]-N--CA-[CB] |==|  0.39289
USER: genes 6 Torsion [N]-CA--CB-[CG1] |==|  0.87373
USER: genes 7 Torsion [CA]-CB--CG1-[CD1] |==|  0.26918
USER: genes 8 Torsion [N]-CA--C-[OXT] |==|  0.82536
USER: genes 9 Torsion [N]-CA--CB-[CG] |==|  0.74603
USER: genes 10 Torsion [CA]-CB--CG-[CD2] |==|  0.58039
USER: genes 11 Torsion [C]-CA--CB-[CG] |==|  0.22100
USER: genes 12 Torsion [CA]-CB--CG-[CD1] |==|  0.44825
USER: genes 13 Torsion [C]-CA--N-[C] |==|  0.70556
USER: genes 14 Torsion [N]-C--CA-[N] |==|  0.90263
USER: genes 15 Torsion [C]-CA--CB-[CG] |==|  0.24186
USER: genes 16 Torsion [CA]-CB--CG-[CD2] |==|  0.11609
USER: genes 17 Torsion [C]-CA--N-[C] |==|  0.82945
USER: genes 18 Torsion [N]-C--CA-[N] |==|  0.57321
USER: genes 19 Torsion [C]-CA--CB-[CG] |==|  0.77799
USER: genes 20 Torsion [CA]-CB--CG-[OD1] |==|  0.22089
ROOT
ATOM      1  CA  LEU D  11      18.019   2.688  61.487  1.00 47.89 LIG 0.18  C 
ENDROOT
BRANCH 1 2
ATOM      2  C   LEU D  11      16.729   2.453  60.713  1.00 48.14 LIG 0.24  C 
ATOM      3 O    LEU D  11      16.535   1.403  60.115  1.00 47.13 LIG-0.27  OA
ATOM      4  N   HIS D  12      15.862   3.460  60.697  1.00 49.28 LIG-0.35  N 
ATOM      5 H    HIS D  12      15.973   4.202  61.117  1.00 49.28 LIG 0.16  HD
BRANCH 4 6
ATOM      6  CA  HIS D  12      14.621   3.363  59.936  1.00 50.49 LIG 0.18  C 
BRANCH 6 7
ATOM      7  C   HIS D  12      14.858   3.552  58.439  1.00 51.38 LIG 0.24  C 
ATOM      8  N   ILE D  13      14.481   2.529  57.690  1.00 53.16 LIG-0.34  N 
ATOM      9 H    ILE D  13      14.159   1.813  58.040  1.00 53.16 LIG 0.16  HD
ATOM     10 O    HIS D  12      15.350   4.581  57.999  1.00 51.57 LIG-0.27  OA
BRANCH 8 11
ATOM     11  CA  ILE D  13      14.542   2.445  56.221  1.00 55.12 LIG 0.19  C 
BRANCH 11 12
ATOM     12  CB  ILE D  13      14.960   1.028  55.684  1.00 55.01 LIG 0.01  C 
ATOM     13  CG2 ILE D  13      15.262   1.028  54.174  1.00 56.15 LIG 0.01  C 
BRANCH 12 14
ATOM     14  CG1 ILE D  13      16.158   0.498  56.478  1.00 55.50 LIG 0.00  C 
ATOM     15  CD1 ILE D  13      15.782  -0.470  57.632  1.00 55.45 LIG 0.01  C 
ENDBRANCH 12 14
ENDBRANCH 11 12
BRANCH 11 16
ATOM     16  C   ILE D  13      13.417   3.080  55.397  1.00 55.63 LIG 0.20  C 
ATOM     17 O    ILE D  13      13.637   4.029  54.641  1.00 56.94 LIG-0.65  OA
ATOM     18 OXT  ILE D  13      12.273   2.625  55.536  1.00 55.86 LIG-0.65  OA
ENDBRANCH 11 16
ENDBRANCH 8 11
ENDBRANCH 6 7
BRANCH 6 19
ATOM     19  CB  HIS D  12      13.583   4.369  60.437  1.00 50.55 LIG 0.10  C 
BRANCH 19 20
ATOM     20  CG  HIS D  12      12.680   3.827  61.498  1.00 49.61 LIG 0.06  A 
ATOM     21  CD2 HIS D  12      11.402   4.132  61.826  1.00 48.49 LIG 0.14  A 
ATOM     22 NE2  HIS D  12      11.052   3.327  62.881  1.00 48.62 LIG-0.25  NA
ATOM     23  CE1 HIS D  12      12.068   2.538  63.176  1.00 49.12 LIG 0.23  A 
ATOM     24 ND1  HIS D  12      13.066   2.822  62.359  1.00 49.92 LIG-0.24  NA
ENDBRANCH 19 20
ENDBRANCH 6 19
ENDBRANCH 4 6
ENDBRANCH 1 2
BRANCH 1 25
ATOM     25  CB  LEU D  11      17.723   2.461  62.965  1.00 47.69 LIG 0.04  C 
BRANCH 25 26
ATOM     26  CG  LEU D  11      17.658   1.026  63.505  1.00 48.05 LIG-0.02  C 
ATOM     27  CD1 LEU D  11      17.813   1.029  65.019  1.00 46.53 LIG 0.01  C 
ATOM     28  CD2 LEU D  11      16.397   0.304  63.094  1.00 50.43 LIG 0.01  C 
ENDBRANCH 25 26
ENDBRANCH 1 25
BRANCH 1 29
ATOM     29  N   LEU D  11      18.571   4.021  61.302  1.00 47.51 LIG-0.35  N 
ATOM     30  C   LEU D  10      19.650   4.261  60.555  1.00 47.80 LIG 0.24  C 
ATOM     31 O    LEU D  10      20.235   3.393  59.891  1.00 47.07 LIG-0.27  OA
ATOM     32 H    LEU D  11      18.139   4.638  61.717  1.00 47.51 LIG 0.16  HD
BRANCH 30 33
ATOM     33  CA  LEU D  10      20.149   5.700  60.564  1.00 47.63 LIG 0.18  C 
BRANCH 33 34
ATOM     34  CB  LEU D  10      21.155   5.928  61.688  1.00 47.29 LIG 0.04  C 
BRANCH 34 35
ATOM     35  CG  LEU D  10      22.602   5.596  61.304  1.00 46.92 LIG-0.02  C 
ATOM     36  CD1 LEU D  10      22.887   4.098  61.390  1.00 46.83 LIG 0.01  C 
ATOM     37  CD2 LEU D  10      22.923   6.082  59.930  1.00 45.50 LIG 0.01  C 
ENDBRANCH 34 35
ENDBRANCH 33 34
BRANCH 33 38
ATOM     38  N   LEU D  10      19.023   6.614  60.651  1.00 47.82 LIG-0.35  N 
ATOM     39 H    LEU D  10      19.016   7.115  61.350  1.00 47.82 LIG 0.16  HD
ATOM     40  C   ASP D   9      18.099   6.640  59.699  1.00 48.63 LIG 0.26  C 
ATOM     41 O    ASP D   9      18.123   5.904  58.715  1.00 48.10 LIG-0.27  OA
BRANCH 40 42
ATOM     42  CA  ASP D   9      16.982   7.632  59.889  1.00 49.27 LIG 0.41  C 
ATOM     43  N   ASP D   9      15.792   7.113  59.165  1.00 49.86 LIG 0.61  N 
BRANCH 42 44
ATOM     44  CB  ASP D   9      16.689   7.763  61.377  1.00 50.02 LIG 0.16  C 
BRANCH 44 45
ATOM     45  CG  ASP D   9      15.840   6.642  61.901  1.00 50.84 LIG 0.17  C 
ATOM     46 OD1  ASP D   9      16.387   5.554  62.150  1.00 53.44 LIG-0.65  OA
ATOM     47 OD2  ASP D   9      14.614   6.762  62.123  1.00 53.75 LIG-0.65  OA
ENDBRANCH 44 45
ENDBRANCH 42 44
ENDBRANCH 40 42
ENDBRANCH 33 38
ENDBRANCH 30 33
ENDBRANCH 1 29
TORSDOF 19
ENDMDL
MODEL 41
USER: ADFR SOLUTION from run 41
USER: SCORE 16.217212 LL:  -4.580 LR: -12.094 RR:   0.000 FEB:  -6.427
USER: RMSD 10.357960
USER: SEED 40
USER: STATUS no improvement in best in 11 clusters for 5 generations
USER: GENES 21
USER: genes 0 Translation |==|  0.58839 0.58743 0.63560
USER: genes 1 Rotation |==|  0.27548 0.91966 0.38871 0.60531
USER: genes 2 Torsion [N]-CA--C-[N] |==|  0.47946
USER: genes 3 Torsion [C]-N--CA-[C] |==|  0.76164
USER: genes 4 Torsion [N]-CA--C-[N] |==|  0.19232
USER: genes 5 Torsion [C]-N--CA-[CB] |==|  0.65592
USER: genes 6 Torsion [N]-CA--CB-[CG1] |==|  0.88486
USER: genes 7 Torsion [CA]-CB--CG1-[CD1] |==|  0.86497
USER: genes 8 Torsion [N]-CA--C-[OXT] |==|  0.80944
USER: genes 9 Torsion [N]-CA--CB-[CG] |==|  0.14928
USER: genes 10 Torsion [CA]-CB--CG-[CD2] |==|  0.32846
USER: genes 11 Torsion [C]-CA--CB-[CG] |==|  0.32495
USER: genes 12 Torsion [CA]-CB--CG-[CD1] |==|  0.95065
USER: genes 13 Torsion [C]-CA--N-[C] |==|  0.61667
USER: genes 14 Torsion [N]-C--CA-[N] |==|  0.92240
USER: genes 15 Torsion [C]-CA--CB-[CG] |==|  0.42005
USER: genes 16 Torsion [CA]-CB--CG-[CD2] |==|  0.45745
USER: genes 17 Torsion [C]-CA--N-[C] |==|  0.78997
USER: genes 18 Torsion [N]-C--CA-[N] |==|  0.90865
USER: genes 19 Torsion [C]-CA--CB-[CG] |==|  0.72985
USER: genes 20 Torsion [CA]-CB--CG-[OD1] |==|  0.12844
ROOT
ATOM      1  CA  LEU D  11      20.506   8.668  65.942  1.00 47.89 LIG 0.18  C 
ENDROOT
BRANCH 1 2
ATOM      2  C   LEU D  11      21.035   9.914  66.640  1.00 48.14 LIG 0.24  C 
ATOM      3 O    LEU D  11      22.064  10.458  66.263  1.00 47.13 LIG-0.27  OA
ATOM      4  N   HIS D  12      20.340  10.338  67.690  1.00 49.28 LIG-0.35  N 
ATOM      5 H    HIS D  12      19.610   9.978  67.967  1.00 49.28 LIG 0.16  HD
BRANCH 4 6
ATOM      6  CA  HIS D  12      20.793  11.488  68.467  1.00 50.49 LIG 0.18  C 
BRANCH 6 7
ATOM      7  C   HIS D  12      21.794  11.084  69.546  1.00 51.38 LIG 0.24  C 
ATOM      8  N   ILE D  13      22.970  10.689  69.085  1.00 53.16 LIG-0.34  N 
ATOM      9 H    ILE D  13      23.126  10.642  68.241  1.00 53.16 LIG 0.16  HD
ATOM     10 O    HIS D  12      21.506  11.140  70.733  1.00 51.57 LIG-0.27  OA
BRANCH 8 11
ATOM     11  CA  ILE D  13      24.139  10.288  69.885  1.00 55.12 LIG 0.19  C 
BRANCH 11 12
ATOM     12  CB  ILE D  13      25.439  11.112  69.563  1.00 55.01 LIG 0.01  C 
ATOM     13  CG2 ILE D  13      26.713  10.463  70.136  1.00 56.15 LIG 0.01  C 
BRANCH 12 14
ATOM     14  CG1 ILE D  13      25.568  11.320  68.051  1.00 55.50 LIG 0.00  C 
ATOM     15  CD1 ILE D  13      25.381  10.029  67.210  1.00 55.45 LIG 0.01  C 
ENDBRANCH 12 14
ENDBRANCH 11 12
BRANCH 11 16
ATOM     16  C   ILE D  13      23.957  10.035  71.384  1.00 55.63 LIG 0.20  C 
ATOM     17 O    ILE D  13      24.032   8.897  71.854  1.00 56.94 LIG-0.65  OA
ATOM     18 OXT  ILE D  13      23.706  11.009  72.108  1.00 55.86 LIG-0.65  OA
ENDBRANCH 11 16
ENDBRANCH 8 11
ENDBRANCH 6 7
BRANCH 6 19
ATOM     19  CB  HIS D  12      19.612  12.231  69.096  1.00 50.55 LIG 0.10  C 
BRANCH 19 20
ATOM     20  CG  HIS D  12      18.711  11.356  69.908  1.00 49.61 LIG 0.06  A 
ATOM     21  CD2 HIS D  12      18.389  11.381  71.223  1.00 48.49 LIG 0.14  A 
ATOM     22 NE2  HIS D  12      17.512  10.349  71.444  1.00 48.62 LIG-0.25  NA
ATOM     23  CE1 HIS D  12      17.284   9.726  70.302  1.00 49.12 LIG 0.23  A 
ATOM     24 ND1  HIS D  12      17.999  10.312  69.360  1.00 49.92 LIG-0.24  NA
ENDBRANCH 19 20
ENDBRANCH 6 19
ENDBRANCH 4 6
ENDBRANCH 1 2
BRANCH 1 25
ATOM     25  CB  LEU D  11      20.638   7.500  66.912  1.00 47.69 LIG 0.04  C 
BRANCH 25 26
ATOM     26  CG  LEU D  11      19.373   6.780  67.395  1.00 48.05 LIG-0.02  C 
ATOM     27  CD1 LEU D  11      18.149   7.648  67.144  1.00 46.53 LIG 0.01  C 
ATOM     28  CD2 LEU D  11      19.203   5.415  66.772  1.00 50.43 LIG 0.01  C 
ENDBRANCH 25 26
ENDBRANCH 1 25
BRANCH 1 29
ATOM     29  N   LEU D  11      21.207   8.355  64.706  1.00 47.51 LIG-0.35  N 
ATOM     30  C   LEU D  10      20.579   7.956  63.599  1.00 47.80 LIG 0.24  C 
ATOM     31 O    LEU D  10      19.347   7.889  63.492  1.00 47.07 LIG-0.27  OA
ATOM     32 H    LEU D  11      22.060   8.451  64.756  1.00 47.51 LIG 0.16  HD
BRANCH 30 33
ATOM     33  CA  LEU D  10      21.483   7.568  62.435  1.00 47.63 LIG 0.18  C 
BRANCH 33 34
ATOM     34  CB  LEU D  10      21.705   6.059  62.390  1.00 47.29 LIG 0.04  C 
BRANCH 34 35
ATOM     35  CG  LEU D  10      21.967   5.512  60.982  1.00 46.92 LIG-0.02  C 
ATOM     36  CD1 LEU D  10      22.906   6.414  60.184  1.00 46.83 LIG 0.01  C 
ATOM     37  CD2 LEU D  10      22.532   4.131  61.034  1.00 45.50 LIG 0.01  C 
ENDBRANCH 34 35
ENDBRANCH 33 34
BRANCH 33 38
ATOM     38  N   LEU D  10      22.737   8.298  62.516  1.00 47.82 LIG-0.35  N 
ATOM     39 H    LEU D  10      23.408   7.837  62.791  1.00 47.82 LIG 0.16  HD
ATOM     40  C   ASP D   9      22.793   9.581  62.180  1.00 48.63 LIG 0.26  C 
ATOM     41 O    ASP D   9      21.815  10.224  61.803  1.00 48.10 LIG-0.27  OA
BRANCH 40 42
ATOM     42  CA  ASP D   9      24.145  10.235  62.296  1.00 49.27 LIG 0.41  C 
ATOM     43  N   ASP D   9      24.855   9.601  63.436  1.00 49.86 LIG 0.61  N 
BRANCH 42 44
ATOM     44  CB  ASP D   9      24.910  10.015  60.998  1.00 50.02 LIG 0.16  C 
BRANCH 44 45
ATOM     45  CG  ASP D   9      25.857   8.855  61.074  1.00 50.84 LIG 0.17  C 
ATOM     46 OD1  ASP D   9      25.448   7.788  61.564  1.00 53.44 LIG-0.65  OA
ATOM     47 OD2  ASP D   9      27.031   8.904  60.643  1.00 53.75 LIG-0.65  OA
ENDBRANCH 44 45
ENDBRANCH 42 44
ENDBRANCH 40 42
ENDBRANCH 33 38
ENDBRANCH 30 33
ENDBRANCH 1 29
TORSDOF 19
ENDMDL
MODEL 42
USER: ADFR SOLUTION from run 187
USER: SCORE 15.571785 LL:  -4.940 LR: -12.077 RR:   0.000 FEB:  -6.409
USER: RMSD 5.212088
USER: SEED 186
USER: STATUS searching
USER: GENES 21
USER: genes 0 Translation |==|  0.55751 0.44539 0.56938
USER: genes 1 Rotation |==|  0.30423 0.22686 0.14540 0.60644
USER: genes 2 Torsion [N]-CA--C-[N] |==|  0.83413
USER: genes 3 Torsion [C]-N--CA-[C] |==|  0.17112
USER: genes 4 Torsion [N]-CA--C-[N] |==|  0.11275
USER: genes 5 Torsion [C]-N--CA-[CB] |==|  0.36700
USER: genes 6 Torsion [N]-CA--CB-[CG1] |==|  0.93312
USER: genes 7 Torsion [CA]-CB--CG1-[CD1] |==|  0.61636
USER: genes 8 Torsion [N]-CA--C-[OXT] |==|  0.12385
USER: genes 9 Torsion [N]-CA--CB-[CG] |==|  0.86351
USER: genes 10 Torsion [CA]-CB--CG-[CD2] |==|  0.96798
USER: genes 11 Torsion [C]-CA--CB-[CG] |==|  0.77382
USER: genes 12 Torsion [CA]-CB--CG-[CD1] |==|  0.31179
USER: genes 13 Torsion [C]-CA--N-[C] |==|  0.61386
USER: genes 14 Torsion [N]-C--CA-[N] |==|  0.65411
USER: genes 15 Torsion [C]-CA--CB-[CG] |==|  0.20669
USER: genes 16 Torsion [CA]-CB--CG-[CD2] |==|  0.51091
USER: genes 17 Torsion [C]-CA--N-[C] |==|  0.63164
USER: genes 18 Torsion [N]-C--CA-[N] |==|  0.25166
USER: genes 19 Torsion [C]-CA--CB-[CG] |==|  0.36149
USER: genes 20 Torsion [CA]-CB--CG-[OD1] |==|  0.65474
ROOT
ATOM      1  CA  LEU D  11      19.903   6.005  64.452  1.00 47.89 LIG 0.18  C 
ENDROOT
BRANCH 1 2
ATOM      2  C   LEU D  11      20.515   5.389  63.201  1.00 48.14 LIG 0.24  C 
ATOM      3 O    LEU D  11      21.203   4.379  63.268  1.00 47.13 LIG-0.27  OA
ATOM      4  N   HIS D  12      20.290   6.030  62.060  1.00 49.28 LIG-0.35  N 
ATOM      5 H    HIS D  12      19.803   6.736  61.987  1.00 49.28 LIG 0.16  HD
BRANCH 4 6
ATOM      6  CA  HIS D  12      20.879   5.559  60.811  1.00 50.49 LIG 0.18  C 
BRANCH 6 7
ATOM      7  C   HIS D  12      20.400   4.154  60.453  1.00 51.38 LIG 0.24  C 
ATOM      8  N   ILE D  13      19.115   3.937  60.682  1.00 53.16 LIG-0.34  N 
ATOM      9 H    ILE D  13      18.615   4.542  61.034  1.00 53.16 LIG 0.16  HD
ATOM     10 O    HIS D  12      21.164   3.322  59.986  1.00 51.57 LIG-0.27  OA
BRANCH 8 11
ATOM     11  CA  ILE D  13      18.366   2.702  60.394  1.00 55.12 LIG 0.19  C 
BRANCH 11 12
ATOM     12  CB  ILE D  13      17.477   2.206  61.591  1.00 55.01 LIG 0.01  C 
ATOM     13  CG2 ILE D  13      17.340   0.673  61.637  1.00 56.15 LIG 0.01  C 
BRANCH 12 14
ATOM     14  CG1 ILE D  13      18.032   2.742  62.915  1.00 55.50 LIG 0.00  C 
ATOM     15  CD1 ILE D  13      18.032   1.707  64.073  1.00 55.45 LIG 0.01  C 
ENDBRANCH 12 14
ENDBRANCH 11 12
BRANCH 11 16
ATOM     16  C   ILE D  13      17.663   2.563  59.040  1.00 55.63 LIG 0.20  C 
ATOM     17 O    ILE D  13      16.522   2.104  58.957  1.00 56.94 LIG-0.65  OA
ATOM     18 OXT  ILE D  13      18.290   2.904  58.027  1.00 55.86 LIG-0.65  OA
ENDBRANCH 11 16
ENDBRANCH 8 11
ENDBRANCH 6 7
BRANCH 6 19
ATOM     19  CB  HIS D  12      22.408   5.594  60.871  1.00 50.55 LIG 0.10  C 
BRANCH 19 20
ATOM     20  CG  HIS D  12      22.962   6.894  61.361  1.00 49.61 LIG 0.06  A 
ATOM     21  CD2 HIS D  12      22.374   8.097  61.565  1.00 48.49 LIG 0.14  A 
ATOM     22 NE2  HIS D  12      23.345   8.948  62.029  1.00 48.62 LIG-0.25  NA
ATOM     23  CE1 HIS D  12      24.484   8.288  62.131  1.00 49.12 LIG 0.23  A 
ATOM     24 ND1  HIS D  12      24.281   7.047  61.730  1.00 49.92 LIG-0.24  NA
ENDBRANCH 19 20
ENDBRANCH 6 19
ENDBRANCH 4 6
ENDBRANCH 1 2
BRANCH 1 25
ATOM     25  CB  LEU D  11      18.389   6.012  64.275  1.00 47.69 LIG 0.04  C 
BRANCH 25 26
ATOM     26  CG  LEU D  11      17.737   7.130  63.452  1.00 48.05 LIG-0.02  C 
ATOM     27  CD1 LEU D  11      17.152   6.561  62.168  1.00 46.53 LIG 0.01  C 
ATOM     28  CD2 LEU D  11      16.690   7.893  64.229  1.00 50.43 LIG 0.01  C 
ENDBRANCH 25 26
ENDBRANCH 1 25
BRANCH 1 29
ATOM     29  N   LEU D  11      20.368   7.359  64.717  1.00 47.51 LIG-0.35  N 
ATOM     30  C   LEU D  10      20.665   7.795  65.942  1.00 47.80 LIG 0.24  C 
ATOM     31 O    LEU D  10      20.649   7.077  66.952  1.00 47.07 LIG-0.27  OA
ATOM     32 H    LEU D  11      20.432   7.848  64.013  1.00 47.51 LIG 0.16  HD
BRANCH 30 33
ATOM     33  CA  LEU D  10      21.029   9.271  66.042  1.00 47.63 LIG 0.18  C 
BRANCH 33 34
ATOM     34  CB  LEU D  10      20.973   9.947  64.676  1.00 47.29 LIG 0.04  C 
BRANCH 34 35
ATOM     35  CG  LEU D  10      19.550  10.202  64.167  1.00 46.92 LIG-0.02  C 
ATOM     36  CD1 LEU D  10      18.768  11.129  65.095  1.00 46.83 LIG 0.01  C 
ATOM     37  CD2 LEU D  10      19.562  10.777  62.789  1.00 45.50 LIG 0.01  C 
ENDBRANCH 34 35
ENDBRANCH 33 34
BRANCH 33 38
ATOM     38  N   LEU D  10      22.333   9.418  66.667  1.00 47.82 LIG-0.35  N 
ATOM     39 H    LEU D  10      22.946   8.904  66.352  1.00 47.82 LIG 0.16  HD
ATOM     40  C   ASP D   9      22.516  10.295  67.647  1.00 48.63 LIG 0.26  C 
ATOM     41 O    ASP D   9      21.620  11.009  68.090  1.00 48.10 LIG-0.27  OA
BRANCH 40 42
ATOM     42  CA  ASP D   9      23.910  10.367  68.215  1.00 49.27 LIG 0.41  C 
ATOM     43  N   ASP D   9      24.657  11.393  67.442  1.00 49.86 LIG 0.61  N 
BRANCH 42 44
ATOM     44  CB  ASP D   9      23.822  10.760  69.683  1.00 50.02 LIG 0.16  C 
BRANCH 44 45
ATOM     45  CG  ASP D   9      24.622   9.854  70.573  1.00 50.84 LIG 0.17  C 
ATOM     46 OD1  ASP D   9      24.041   9.289  71.515  1.00 53.44 LIG-0.65  OA
ATOM     47 OD2  ASP D   9      25.838   9.623  70.393  1.00 53.75 LIG-0.65  OA
ENDBRANCH 44 45
ENDBRANCH 42 44
ENDBRANCH 40 42
ENDBRANCH 33 38
ENDBRANCH 30 33
ENDBRANCH 1 29
TORSDOF 19
ENDMDL
MODEL 43
USER: ADFR SOLUTION from run 54
USER: SCORE 16.479539 LL:  -5.075 LR: -12.066 RR:   0.000 FEB:  -6.398
USER: RMSD 6.610874
USER: SEED 53
USER: STATUS no improvement in best in 6 clusters for 5 generations
USER: GENES 21
USER: genes 0 Translation |==|  0.43803 0.38821 0.36670
USER: genes 1 Rotation |==|  0.62603 0.66449 0.87954 0.75101
USER: genes 2 Torsion [N]-CA--C-[N] |==|  0.42506
USER: genes 3 Torsion [C]-N--CA-[C] |==|  0.65176
USER: genes 4 Torsion [N]-CA--C-[N] |==|  0.91724
USER: genes 5 Torsion [C]-N--CA-[CB] |==|  0.11483
USER: genes 6 Torsion [N]-CA--CB-[CG1] |==|  0.69404
USER: genes 7 Torsion [CA]-CB--CG1-[CD1] |==|  0.43057
USER: genes 8 Torsion [N]-CA--C-[OXT] |==|  0.83337
USER: genes 9 Torsion [N]-CA--CB-[CG] |==|  0.85547
USER: genes 10 Torsion [CA]-CB--CG-[CD2] |==|  0.86491
USER: genes 11 Torsion [C]-CA--CB-[CG] |==|  0.21657
USER: genes 12 Torsion [CA]-CB--CG-[CD1] |==|  0.71787
USER: genes 13 Torsion [C]-CA--N-[C] |==|  0.82083
USER: genes 14 Torsion [N]-C--CA-[N] |==|  0.41330
USER: genes 15 Torsion [C]-CA--CB-[CG] |==|  0.13872
USER: genes 16 Torsion [CA]-CB--CG-[CD2] |==|  0.53931
USER: genes 17 Torsion [C]-CA--N-[C] |==|  0.56286
USER: genes 18 Torsion [N]-C--CA-[N] |==|  0.81491
USER: genes 19 Torsion [C]-CA--CB-[CG] |==|  0.72907
USER: genes 20 Torsion [CA]-CB--CG-[OD1] |==|  0.81350
ROOT
ATOM      1  CA  LEU D  11      17.574   4.933  59.892  1.00 47.89 LIG 0.18  C 
ENDROOT
BRANCH 1 2
ATOM      2  C   LEU D  11      17.815   3.514  59.394  1.00 48.14 LIG 0.24  C 
ATOM      3 O    LEU D  11      18.939   3.030  59.394  1.00 47.13 LIG-0.27  OA
ATOM      4  N   HIS D  12      16.753   2.865  58.932  1.00 49.28 LIG-0.35  N 
ATOM      5 H    HIS D  12      15.953   3.181  58.931  1.00 49.28 LIG 0.16  HD
BRANCH 4 6
ATOM      6  CA  HIS D  12      16.883   1.522  58.376  1.00 50.49 LIG 0.18  C 
BRANCH 6 7
ATOM      7  C   HIS D  12      16.307   1.435  56.964  1.00 51.38 LIG 0.24  C 
ATOM      8  N   ILE D  13      15.308   2.268  56.726  1.00 53.16 LIG-0.34  N 
ATOM      9 H    ILE D  13      15.002   2.787  57.340  1.00 53.16 LIG 0.16  HD
ATOM     10 O    HIS D  12      16.760   0.653  56.141  1.00 51.57 LIG-0.27  OA
BRANCH 8 11
ATOM     11  CA  ILE D  13      14.591   2.441  55.451  1.00 55.12 LIG 0.19  C 
BRANCH 11 12
ATOM     12  CB  ILE D  13      14.287   1.090  54.707  1.00 55.01 LIG 0.01  C 
ATOM     13  CG2 ILE D  13      12.795   0.917  54.371  1.00 56.15 LIG 0.01  C 
BRANCH 12 14
ATOM     14  CG1 ILE D  13      15.145   0.983  53.442  1.00 55.50 LIG 0.00  C 
ATOM     15  CD1 ILE D  13      15.407  -0.472  52.970  1.00 55.45 LIG 0.01  C 
ENDBRANCH 12 14
ENDBRANCH 11 12
BRANCH 11 16
ATOM     16  C   ILE D  13      13.419   3.425  55.390  1.00 55.63 LIG 0.20  C 
ATOM     17 O    ILE D  13      13.445   4.404  54.641  1.00 56.94 LIG-0.65  OA
ATOM     18 OXT  ILE D  13      12.453   3.219  56.139  1.00 55.86 LIG-0.65  OA
ENDBRANCH 11 16
ENDBRANCH 8 11
ENDBRANCH 6 7
BRANCH 6 19
ATOM     19  CB  HIS D  12      16.222   0.481  59.281  1.00 50.55 LIG 0.10  C 
BRANCH 19 20
ATOM     20  CG  HIS D  12      16.669   0.549  60.707  1.00 49.61 LIG 0.06  A 
ATOM     21  CD2 HIS D  12      17.906   0.612  61.253  1.00 48.49 LIG 0.14  A 
ATOM     22 NE2  HIS D  12      17.744   0.662  62.615  1.00 48.62 LIG-0.25  NA
ATOM     23  CE1 HIS D  12      16.454   0.654  62.896  1.00 49.12 LIG 0.23  A 
ATOM     24 ND1  HIS D  12      15.782   0.582  61.761  1.00 49.92 LIG-0.24  NA
ENDBRANCH 19 20
ENDBRANCH 6 19
ENDBRANCH 4 6
ENDBRANCH 1 2
BRANCH 1 25
ATOM     25  CB  LEU D  11      17.657   5.868  58.690  1.00 47.69 LIG 0.04  C 
BRANCH 25 26
ATOM     26  CG  LEU D  11      16.464   5.962  57.730  1.00 48.05 LIG-0.02  C 
ATOM     27  CD1 LEU D  11      16.739   5.148  56.474  1.00 46.53 LIG 0.01  C 
ATOM     28  CD2 LEU D  11      15.163   5.542  58.371  1.00 50.43 LIG 0.01  C 
ENDBRANCH 25 26
ENDBRANCH 1 25
BRANCH 1 29
ATOM     29  N   LEU D  11      18.525   5.361  60.907  1.00 47.51 LIG-0.35  N 
ATOM     30  C   LEU D  10      18.608   4.787  62.108  1.00 47.80 LIG 0.24  C 
ATOM     31 O    LEU D  10      17.945   3.797  62.446  1.00 47.07 LIG-0.27  OA
ATOM     32 H    LEU D  11      19.026   6.015  60.660  1.00 47.51 LIG 0.16  HD
BRANCH 30 33
ATOM     33  CA  LEU D  10      19.585   5.437  63.080  1.00 47.63 LIG 0.18  C 
BRANCH 33 34
ATOM     34  CB  LEU D  10      20.994   4.881  62.899  1.00 47.29 LIG 0.04  C 
BRANCH 34 35
ATOM     35  CG  LEU D  10      21.480   4.879  61.445  1.00 46.92 LIG-0.02  C 
ATOM     36  CD1 LEU D  10      21.776   6.289  60.939  1.00 46.83 LIG 0.01  C 
ATOM     37  CD2 LEU D  10      22.695   4.029  61.281  1.00 45.50 LIG 0.01  C 
ENDBRANCH 34 35
ENDBRANCH 33 34
BRANCH 33 38
ATOM     38  N   LEU D  10      19.109   5.277  64.443  1.00 47.82 LIG-0.35  N 
ATOM     39 H    LEU D  10      18.565   4.622  64.562  1.00 47.82 LIG 0.16  HD
ATOM     40  C   ASP D   9      19.513   6.102  65.400  1.00 48.63 LIG 0.26  C 
ATOM     41 O    ASP D   9      20.282   7.041  65.203  1.00 48.10 LIG-0.27  OA
BRANCH 40 42
ATOM     42  CA  ASP D   9      18.962   5.837  66.777  1.00 49.27 LIG 0.41  C 
ATOM     43  N   ASP D   9      17.501   6.105  66.735  1.00 49.86 LIG 0.61  N 
BRANCH 42 44
ATOM     44  CB  ASP D   9      19.231   4.384  67.143  1.00 50.02 LIG 0.16  C 
BRANCH 44 45
ATOM     45  CG  ASP D   9      18.048   3.496  66.891  1.00 50.84 LIG 0.17  C 
ATOM     46 OD1  ASP D   9      17.031   3.655  67.586  1.00 53.44 LIG-0.65  OA
ATOM     47 OD2  ASP D   9      18.032   2.621  65.995  1.00 53.75 LIG-0.65  OA
ENDBRANCH 44 45
ENDBRANCH 42 44
ENDBRANCH 40 42
ENDBRANCH 33 38
ENDBRANCH 30 33
ENDBRANCH 1 29
TORSDOF 19
ENDMDL
MODEL 44
USER: ADFR SOLUTION from run 177
USER: SCORE 16.626895 LL:  -4.652 LR: -12.069 RR:   0.000 FEB:  -6.401
USER: RMSD 6.186222
USER: SEED 176
USER: STATUS no improvement in best in 7 clusters for 5 generations
USER: GENES 21
USER: genes 0 Translation |==|  0.44988 0.23615 0.39155
USER: genes 1 Rotation |==|  0.23089 0.51949 0.35847 0.89645
USER: genes 2 Torsion [N]-CA--C-[N] |==|  0.89385
USER: genes 3 Torsion [C]-N--CA-[C] |==|  0.81682
USER: genes 4 Torsion [N]-CA--C-[N] |==|  0.37573
USER: genes 5 Torsion [C]-N--CA-[CB] |==|  0.82427
USER: genes 6 Torsion [N]-CA--CB-[CG1] |==|  0.76720
USER: genes 7 Torsion [CA]-CB--CG1-[CD1] |==|  0.17207
USER: genes 8 Torsion [N]-CA--C-[OXT] |==|  0.40491
USER: genes 9 Torsion [N]-CA--CB-[CG] |==|  0.68262
USER: genes 10 Torsion [CA]-CB--CG-[CD2] |==|  0.23956
USER: genes 11 Torsion [C]-CA--CB-[CG] |==|  0.82622
USER: genes 12 Torsion [CA]-CB--CG-[CD1] |==|  0.31398
USER: genes 13 Torsion [C]-CA--N-[C] |==|  0.82619
USER: genes 14 Torsion [N]-C--CA-[N] |==|  0.94632
USER: genes 15 Torsion [C]-CA--CB-[CG] |==|  0.79700
USER: genes 16 Torsion [CA]-CB--CG-[CD2] |==|  0.61786
USER: genes 17 Torsion [C]-CA--N-[C] |==|  0.77222
USER: genes 18 Torsion [N]-C--CA-[N] |==|  0.96343
USER: genes 19 Torsion [C]-CA--CB-[CG] |==|  0.66072
USER: genes 20 Torsion [CA]-CB--CG-[OD1] |==|  0.37508
ROOT
ATOM      1  CA  LEU D  11      17.805   2.082  60.451  1.00 47.89 LIG 0.18  C 
ENDROOT
BRANCH 1 2
ATOM      2  C   LEU D  11      16.372   2.334  59.999  1.00 48.14 LIG 0.24  C 
ATOM      3 O    LEU D  11      15.943   1.845  58.963  1.00 47.13 LIG-0.27  OA
ATOM      4  N   HIS D  12      15.647   3.137  60.769  1.00 49.28 LIG-0.35  N 
ATOM      5 H    HIS D  12      15.923   3.485  61.506  1.00 49.28 LIG 0.16  HD
BRANCH 4 6
ATOM      6  CA  HIS D  12      14.282   3.493  60.397  1.00 50.49 LIG 0.18  C 
BRANCH 6 7
ATOM      7  C   HIS D  12      14.242   4.335  59.123  1.00 51.38 LIG 0.24  C 
ATOM      8  N   ILE D  13      13.318   3.968  58.251  1.00 53.16 LIG-0.34  N 
ATOM      9 H    ILE D  13      12.812   3.288  58.395  1.00 53.16 LIG 0.16  HD
ATOM     10 O    HIS D  12      15.010   5.271  58.957  1.00 51.57 LIG-0.27  OA
BRANCH 8 11
ATOM     11  CA  ILE D  13      13.016   4.617  56.964  1.00 55.12 LIG 0.19  C 
BRANCH 11 12
ATOM     12  CB  ILE D  13      12.496   6.093  57.107  1.00 55.01 LIG 0.01  C 
ATOM     13  CG2 ILE D  13      12.828   6.963  55.880  1.00 56.15 LIG 0.01  C 
BRANCH 12 14
ATOM     14  CG1 ILE D  13      10.989   6.095  57.382  1.00 55.50 LIG 0.00  C 
ATOM     15  CD1 ILE D  13      10.580   5.392  58.704  1.00 55.45 LIG 0.01  C 
ENDBRANCH 12 14
ENDBRANCH 11 12
BRANCH 11 16
ATOM     16  C   ILE D  13      13.998   4.447  55.802  1.00 55.63 LIG 0.20  C 
ATOM     17 O    ILE D  13      15.215   4.395  55.996  1.00 56.94 LIG-0.65  OA
ATOM     18 OXT  ILE D  13      13.532   4.391  54.655  1.00 55.86 LIG-0.65  OA
ENDBRANCH 11 16
ENDBRANCH 8 11
ENDBRANCH 6 7
BRANCH 6 19
ATOM     19  CB  HIS D  12      13.569   4.226  61.535  1.00 50.55 LIG 0.10  C 
BRANCH 19 20
ATOM     20  CG  HIS D  12      12.419   3.467  62.116  1.00 49.61 LIG 0.06  A 
ATOM     21  CD2 HIS D  12      12.369   2.529  63.092  1.00 48.49 LIG 0.14  A 
ATOM     22 NE2  HIS D  12      11.054   2.164  63.234  1.00 48.62 LIG-0.25  NA
ATOM     23  CE1 HIS D  12      10.318   2.869  62.395  1.00 49.12 LIG 0.23  A 
ATOM     24 ND1  HIS D  12      11.118   3.660  61.704  1.00 49.92 LIG-0.24  NA
ENDBRANCH 19 20
ENDBRANCH 6 19
ENDBRANCH 4 6
ENDBRANCH 1 2
BRANCH 1 25
ATOM     25  CB  LEU D  11      17.775   0.971  61.494  1.00 47.69 LIG 0.04  C 
BRANCH 25 26
ATOM     26  CG  LEU D  11      17.019   1.198  62.810  1.00 48.05 LIG-0.02  C 
ATOM     27  CD1 LEU D  11      15.808   0.279  62.883  1.00 46.53 LIG 0.01  C 
ATOM     28  CD2 LEU D  11      17.899   1.029  64.026  1.00 50.43 LIG 0.01  C 
ENDBRANCH 25 26
ENDBRANCH 1 25
BRANCH 1 29
ATOM     29  N   LEU D  11      18.450   3.259  61.013  1.00 47.51 LIG-0.35  N 
ATOM     30  C   LEU D  10      18.671   4.370  60.308  1.00 47.80 LIG 0.24  C 
ATOM     31 O    LEU D  10      18.282   4.534  59.143  1.00 47.07 LIG-0.27  OA
ATOM     32 H    LEU D  11      18.676   3.171  61.838  1.00 47.51 LIG 0.16  HD
BRANCH 30 33
ATOM     33  CA  LEU D  10      19.456   5.459  61.028  1.00 47.63 LIG 0.18  C 
BRANCH 33 34
ATOM     34  CB  LEU D  10      20.890   5.536  60.513  1.00 47.29 LIG 0.04  C 
BRANCH 34 35
ATOM     35  CG  LEU D  10      21.778   4.375  60.972  1.00 46.92 LIG-0.02  C 
ATOM     36  CD1 LEU D  10      21.926   3.306  59.891  1.00 46.83 LIG 0.01  C 
ATOM     37  CD2 LEU D  10      23.131   4.855  61.381  1.00 45.50 LIG 0.01  C 
ENDBRANCH 34 35
ENDBRANCH 33 34
BRANCH 33 38
ATOM     38  N   LEU D  10      19.406   5.239  62.463  1.00 47.82 LIG-0.35  N 
ATOM     39 H    LEU D  10      20.094   4.842  62.793  1.00 47.82 LIG 0.16  HD
ATOM     40  C   ASP D   9      18.358   5.640  63.171  1.00 48.63 LIG 0.26  C 
ATOM     41 O    ASP D   9      17.379   6.194  62.675  1.00 48.10 LIG-0.27  OA
BRANCH 40 42
ATOM     42  CA  ASP D   9      18.417   5.367  64.651  1.00 49.27 LIG 0.41  C 
ATOM     43  N   ASP D   9      19.532   4.414  64.888  1.00 49.86 LIG 0.61  N 
BRANCH 42 44
ATOM     44  CB  ASP D   9      18.667   6.678  65.383  1.00 50.02 LIG 0.16  C 
BRANCH 44 45
ATOM     45  CG  ASP D   9      19.907   6.643  66.227  1.00 50.84 LIG 0.17  C 
ATOM     46 OD1  ASP D   9      20.680   7.615  66.180  1.00 53.44 LIG-0.65  OA
ATOM     47 OD2  ASP D   9      20.184   5.693  66.993  1.00 53.75 LIG-0.65  OA
ENDBRANCH 44 45
ENDBRANCH 42 44
ENDBRANCH 40 42
ENDBRANCH 33 38
ENDBRANCH 30 33
ENDBRANCH 1 29
TORSDOF 19
ENDMDL
MODEL 45
USER: ADFR SOLUTION from run 145
USER: SCORE 16.721534 LL:  -5.312 LR: -12.055 RR:   0.000 FEB:  -6.388
USER: RMSD 10.522144
USER: SEED 144
USER: STATUS no improvement in best in 4 clusters for 5 generations
USER: GENES 21
USER: genes 0 Translation |==|  0.52119 0.48535 0.68885
USER: genes 1 Rotation |==|  0.70104 0.22287 0.19374 0.69746
USER: genes 2 Torsion [N]-CA--C-[N] |==|  0.03126
USER: genes 3 Torsion [C]-N--CA-[C] |==|  0.63537
USER: genes 4 Torsion [N]-CA--C-[N] |==|  0.26206
USER: genes 5 Torsion [C]-N--CA-[CB] |==|  0.13440
USER: genes 6 Torsion [N]-CA--CB-[CG1] |==|  0.63722
USER: genes 7 Torsion [CA]-CB--CG1-[CD1] |==|  0.23828
USER: genes 8 Torsion [N]-CA--C-[OXT] |==|  0.47980
USER: genes 9 Torsion [N]-CA--CB-[CG] |==|  0.98393
USER: genes 10 Torsion [CA]-CB--CG-[CD2] |==|  0.76952
USER: genes 11 Torsion [C]-CA--CB-[CG] |==|  0.39875
USER: genes 12 Torsion [CA]-CB--CG-[CD1] |==|  0.08818
USER: genes 13 Torsion [C]-CA--N-[C] |==|  0.66111
USER: genes 14 Torsion [N]-C--CA-[N] |==|  0.46345
USER: genes 15 Torsion [C]-CA--CB-[CG] |==|  0.99027
USER: genes 16 Torsion [CA]-CB--CG-[CD2] |==|  0.73942
USER: genes 17 Torsion [C]-CA--N-[C] |==|  0.78118
USER: genes 18 Torsion [N]-C--CA-[N] |==|  0.15601
USER: genes 19 Torsion [C]-CA--CB-[CG] |==|  0.73934
USER: genes 20 Torsion [CA]-CB--CG-[OD1] |==|  0.33714
ROOT
ATOM      1  CA  LEU D  11      19.195   6.754  67.140  1.00 47.89 LIG 0.18  C 
ENDROOT
BRANCH 1 2
ATOM      2  C   LEU D  11      20.182   7.912  67.066  1.00 48.14 LIG 0.24  C 
ATOM      3 O    LEU D  11      21.352   7.723  66.763  1.00 47.13 LIG-0.27  OA
ATOM      4  N   HIS D  12      19.706   9.110  67.385  1.00 49.28 LIG-0.35  N 
ATOM      5 H    HIS D  12      18.886   9.268  67.591  1.00 49.28 LIG 0.16  HD
BRANCH 4 6
ATOM      6  CA  HIS D  12      20.580  10.278  67.404  1.00 50.49 LIG 0.18  C 
BRANCH 6 7
ATOM      7  C   HIS D  12      20.421  11.084  68.691  1.00 51.38 LIG 0.24  C 
ATOM      8  N   ILE D  13      21.289  10.779  69.642  1.00 53.16 LIG-0.34  N 
ATOM      9 H    ILE D  13      21.868  10.153  69.534  1.00 53.16 LIG 0.16  HD
ATOM     10 O    HIS D  12      19.557  11.942  68.800  1.00 51.57 LIG-0.27  OA
BRANCH 8 11
ATOM     11  CA  ILE D  13      21.406  11.418  70.964  1.00 55.12 LIG 0.19  C 
BRANCH 11 12
ATOM     12  CB  ILE D  13      20.037  11.563  71.721  1.00 55.01 LIG 0.01  C 
ATOM     13  CG2 ILE D  13      19.881  10.551  72.871  1.00 56.15 LIG 0.01  C 
BRANCH 12 14
ATOM     14  CG1 ILE D  13      19.870  12.997  72.234  1.00 55.50 LIG 0.00  C 
ATOM     15  CD1 ILE D  13      19.262  13.980  71.198  1.00 55.45 LIG 0.01  C 
ENDBRANCH 12 14
ENDBRANCH 11 12
BRANCH 11 16
ATOM     16  C   ILE D  13      22.551  10.994  71.890  1.00 55.63 LIG 0.20  C 
ATOM     17 O    ILE D  13      23.269  10.029  71.617  1.00 56.94 LIG-0.65  OA
ATOM     18 OXT  ILE D  13      22.714  11.637  72.936  1.00 55.86 LIG-0.65  OA
ENDBRANCH 11 16
ENDBRANCH 8 11
ENDBRANCH 6 7
BRANCH 6 19
ATOM     19  CB  HIS D  12      20.337  11.174  66.188  1.00 50.55 LIG 0.10  C 
BRANCH 19 20
ATOM     20  CG  HIS D  12      19.376  10.598  65.197  1.00 49.61 LIG 0.06  A 
ATOM     21  CD2 HIS D  12      19.554   9.706  64.194  1.00 48.49 LIG 0.14  A 
ATOM     22 NE2  HIS D  12      18.334   9.523  63.594  1.00 48.62 LIG-0.25  NA
ATOM     23  CE1 HIS D  12      17.432  10.256  64.220  1.00 49.12 LIG 0.23  A 
ATOM     24 ND1  HIS D  12      18.036  10.918  65.189  1.00 49.92 LIG-0.24  NA
ENDBRANCH 19 20
ENDBRANCH 6 19
ENDBRANCH 4 6
ENDBRANCH 1 2
BRANCH 1 25
ATOM     25  CB  LEU D  11      19.331   5.944  65.856  1.00 47.69 LIG 0.04  C 
BRANCH 25 26
ATOM     26  CG  LEU D  11      19.191   4.418  65.915  1.00 48.05 LIG-0.02  C 
ATOM     27  CD1 LEU D  11      18.217   4.023  67.016  1.00 46.53 LIG 0.01  C 
ATOM     28  CD2 LEU D  11      18.780   3.817  64.591  1.00 50.43 LIG 0.01  C 
ENDBRANCH 25 26
ENDBRANCH 1 25
BRANCH 1 29
ATOM     29  N   LEU D  11      17.813   7.181  67.302  1.00 47.51 LIG-0.35  N 
ATOM     30  C   LEU D  10      17.053   6.799  68.329  1.00 47.80 LIG 0.24  C 
ATOM     31 O    LEU D  10      17.468   6.115  69.276  1.00 47.07 LIG-0.27  OA
ATOM     32 H    LEU D  11      17.533   7.699  66.675  1.00 47.51 LIG 0.16  HD
BRANCH 30 33
ATOM     33  CA  LEU D  10      15.600   7.253  68.276  1.00 47.63 LIG 0.18  C 
BRANCH 33 34
ATOM     34  CB  LEU D  10      15.488   8.764  68.457  1.00 47.29 LIG 0.04  C 
BRANCH 34 35
ATOM     35  CG  LEU D  10      16.827   9.458  68.732  1.00 46.92 LIG-0.02  C 
ATOM     36  CD1 LEU D  10      16.909  10.828  68.062  1.00 46.83 LIG 0.01  C 
ATOM     37  CD2 LEU D  10      17.070   9.608  70.196  1.00 45.50 LIG 0.01  C 
ENDBRANCH 34 35
ENDBRANCH 33 34
BRANCH 33 38
ATOM     38  N   LEU D  10      14.818   6.530  69.264  1.00 47.82 LIG-0.35  N 
ATOM     39 H    LEU D  10      14.649   6.968  69.984  1.00 47.82 LIG 0.16  HD
ATOM     40  C   ASP D   9      14.416   5.287  69.028  1.00 48.63 LIG 0.26  C 
ATOM     41 O    ASP D   9      14.683   4.676  67.996  1.00 48.10 LIG-0.27  OA
BRANCH 40 42
ATOM     42  CA  ASP D   9      13.605   4.637  70.118  1.00 49.27 LIG 0.41  C 
ATOM     43  N   ASP D   9      12.435   5.511  70.390  1.00 49.86 LIG 0.61  N 
BRANCH 42 44
ATOM     44  CB  ASP D   9      13.151   3.265  69.642  1.00 50.02 LIG 0.16  C 
BRANCH 44 45
ATOM     45  CG  ASP D   9      11.786   3.290  69.021  1.00 50.84 LIG 0.17  C 
ATOM     46 OD1  ASP D   9      11.663   2.903  67.847  1.00 53.44 LIG-0.65  OA
ATOM     47 OD2  ASP D   9      10.762   3.658  69.641  1.00 53.75 LIG-0.65  OA
ENDBRANCH 44 45
ENDBRANCH 42 44
ENDBRANCH 40 42
ENDBRANCH 33 38
ENDBRANCH 30 33
ENDBRANCH 1 29
TORSDOF 19
ENDMDL
MODEL 46
USER: ADFR SOLUTION from run 171
USER: SCORE 14.876213 LL:  -4.903 LR: -12.063 RR:   0.000 FEB:  -6.396
USER: RMSD 5.686654
USER: SEED 170
USER: STATUS no improvement in best in 32 clusters for 5 generations
USER: GENES 21
USER: genes 0 Translation |==|  0.46559 0.25190 0.36360
USER: genes 1 Rotation |==|  0.24531 0.45488 0.18441 0.78897
USER: genes 2 Torsion [N]-CA--C-[N] |==|  0.75330
USER: genes 3 Torsion [C]-N--CA-[C] |==|  0.18334
USER: genes 4 Torsion [N]-CA--C-[N] |==|  0.02945
USER: genes 5 Torsion [C]-N--CA-[CB] |==|  0.11025
USER: genes 6 Torsion [N]-CA--CB-[CG1] |==|  0.72721
USER: genes 7 Torsion [CA]-CB--CG1-[CD1] |==|  0.88723
USER: genes 8 Torsion [N]-CA--C-[OXT] |==|  0.39702
USER: genes 9 Torsion [N]-CA--CB-[CG] |==|  0.83462
USER: genes 10 Torsion [CA]-CB--CG-[CD2] |==|  0.74204
USER: genes 11 Torsion [C]-CA--CB-[CG] |==|  0.43893
USER: genes 12 Torsion [CA]-CB--CG-[CD1] |==|  0.25885
USER: genes 13 Torsion [C]-CA--N-[C] |==|  0.18698
USER: genes 14 Torsion [N]-C--CA-[N] |==|  0.60711
USER: genes 15 Torsion [C]-CA--CB-[CG] |==|  0.25114
USER: genes 16 Torsion [CA]-CB--CG-[CD2] |==|  0.66309
USER: genes 17 Torsion [C]-CA--N-[C] |==|  0.18325
USER: genes 18 Torsion [N]-C--CA-[N] |==|  0.58091
USER: genes 19 Torsion [C]-CA--CB-[CG] |==|  0.64534
USER: genes 20 Torsion [CA]-CB--CG-[OD1] |==|  0.15752
ROOT
ATOM      1  CA  LEU D  11      18.111   2.377  59.822  1.00 47.89 LIG 0.18  C 
ENDROOT
BRANCH 1 2
ATOM      2  C   LEU D  11      17.471   2.975  58.575  1.00 48.14 LIG 0.24  C 
ATOM      3 O    LEU D  11      18.032   2.913  57.489  1.00 47.13 LIG-0.27  OA
ATOM      4  N   HIS D  12      16.307   3.590  58.750  1.00 49.28 LIG-0.35  N 
ATOM      5 H    HIS D  12      15.891   3.637  59.501  1.00 49.28 LIG 0.16  HD
BRANCH 4 6
ATOM      6  CA  HIS D  12      15.638   4.249  57.634  1.00 50.49 LIG 0.18  C 
BRANCH 6 7
ATOM      7  C   HIS D  12      15.185   3.247  56.573  1.00 51.38 LIG 0.24  C 
ATOM      8  N   ILE D  13      15.272   1.980  56.942  1.00 53.16 LIG-0.34  N 
ATOM      9 H    ILE D  13      15.589   1.758  57.710  1.00 53.16 LIG 0.16  HD
ATOM     10 O    HIS D  12      14.772   3.618  55.485  1.00 51.57 LIG-0.27  OA
BRANCH 8 11
ATOM     11  CA  ILE D  13      14.866   0.804  56.154  1.00 55.12 LIG 0.19  C 
BRANCH 11 12
ATOM     12  CB  ILE D  13      15.215   0.915  54.626  1.00 55.01 LIG 0.01  C 
ATOM     13  CG2 ILE D  13      15.782  -0.395  54.047  1.00 56.15 LIG 0.01  C 
BRANCH 12 14
ATOM     14  CG1 ILE D  13      13.984   1.369  53.836  1.00 55.50 LIG 0.00  C 
ATOM     15  CD1 ILE D  13      12.653   0.716  54.297  1.00 55.45 LIG 0.01  C 
ENDBRANCH 12 14
ENDBRANCH 11 12
BRANCH 11 16
ATOM     16  C   ILE D  13      15.132  -0.594  56.721  1.00 55.63 LIG 0.20  C 
ATOM     17 O    ILE D  13      16.170  -0.846  57.337  1.00 56.94 LIG-0.65  OA
ATOM     18 OXT  ILE D  13      14.282  -1.471  56.516  1.00 55.86 LIG-0.65  OA
ENDBRANCH 11 16
ENDBRANCH 8 11
ENDBRANCH 6 7
BRANCH 6 19
ATOM     19  CB  HIS D  12      16.534   5.316  57.001  1.00 50.55 LIG 0.10  C 
BRANCH 19 20
ATOM     20  CG  HIS D  12      16.947   6.396  57.950  1.00 49.61 LIG 0.06  A 
ATOM     21  CD2 HIS D  12      16.398   7.603  58.224  1.00 48.49 LIG 0.14  A 
ATOM     22 NE2  HIS D  12      17.182   8.195  59.183  1.00 48.62 LIG-0.25  NA
ATOM     23  CE1 HIS D  12      18.162   7.372  59.505  1.00 49.12 LIG 0.23  A 
ATOM     24 ND1  HIS D  12      18.047   6.281  58.772  1.00 49.92 LIG-0.24  NA
ENDBRANCH 19 20
ENDBRANCH 6 19
ENDBRANCH 4 6
ENDBRANCH 1 2
BRANCH 1 25
ATOM     25  CB  LEU D  11      16.989   1.917  60.745  1.00 47.69 LIG 0.04  C 
BRANCH 25 26
ATOM     26  CG  LEU D  11      17.282   0.848  61.806  1.00 48.05 LIG-0.02  C 
ATOM     27  CD1 LEU D  11      17.655   1.509  63.125  1.00 46.53 LIG 0.01  C 
ATOM     28  CD2 LEU D  11      16.138  -0.120  61.993  1.00 50.43 LIG 0.01  C 
ENDBRANCH 25 26
ENDBRANCH 1 25
BRANCH 1 29
ATOM     29  N   LEU D  11      18.974   3.309  60.533  1.00 47.51 LIG-0.35  N 
ATOM     30  C   LEU D  10      18.510   4.392  61.158  1.00 47.80 LIG 0.24  C 
ATOM     31 O    LEU D  10      17.306   4.667  61.259  1.00 47.07 LIG-0.27  OA
ATOM     32 H    LEU D  11      19.807   3.096  60.513  1.00 47.51 LIG 0.16  HD
BRANCH 30 33
ATOM     33  CA  LEU D  10      19.570   5.310  61.755  1.00 47.63 LIG 0.18  C 
BRANCH 33 34
ATOM     34  CB  LEU D  10      20.913   4.596  61.875  1.00 47.29 LIG 0.04  C 
BRANCH 34 35
ATOM     35  CG  LEU D  10      21.810   4.750  60.642  1.00 46.92 LIG-0.02  C 
ATOM     36  CD1 LEU D  10      23.094   5.513  60.961  1.00 46.83 LIG 0.01  C 
ATOM     37  CD2 LEU D  10      22.157   3.422  60.055  1.00 45.50 LIG 0.01  C 
ENDBRANCH 34 35
ENDBRANCH 33 34
BRANCH 33 38
ATOM     38  N   LEU D  10      19.114   5.826  63.034  1.00 47.82 LIG-0.35  N 
ATOM     39 H    LEU D  10      18.974   6.675  63.053  1.00 47.82 LIG 0.16  HD
ATOM     40  C   ASP D   9      18.939   5.012  64.067  1.00 48.63 LIG 0.26  C 
ATOM     41 O    ASP D   9      19.159   3.804  64.019  1.00 48.10 LIG-0.27  OA
BRANCH 40 42
ATOM     42  CA  ASP D   9      18.457   5.655  65.341  1.00 49.27 LIG 0.41  C 
ATOM     43  N   ASP D   9      18.978   4.851  66.476  1.00 49.86 LIG 0.61  N 
BRANCH 42 44
ATOM     44  CB  ASP D   9      18.989   7.080  65.404  1.00 50.02 LIG 0.16  C 
BRANCH 44 45
ATOM     45  CG  ASP D   9      19.700   7.376  66.692  1.00 50.84 LIG 0.17  C 
ATOM     46 OD1  ASP D   9      20.660   6.655  67.016  1.00 53.44 LIG-0.65  OA
ATOM     47 OD2  ASP D   9      19.388   8.330  67.439  1.00 53.75 LIG-0.65  OA
ENDBRANCH 44 45
ENDBRANCH 42 44
ENDBRANCH 40 42
ENDBRANCH 33 38
ENDBRANCH 30 33
ENDBRANCH 1 29
TORSDOF 19
ENDMDL
MODEL 47
USER: ADFR SOLUTION from run 107
USER: SCORE 16.052568 LL:  -5.109 LR: -12.048 RR:   0.000 FEB:  -6.380
USER: RMSD 9.038118
USER: SEED 106
USER: STATUS no improvement in best in 3 clusters for 5 generations
USER: GENES 21
USER: genes 0 Translation |==|  0.54973 0.38078 0.45088
USER: genes 1 Rotation |==|  0.87583 0.40075 0.33403 0.76712
USER: genes 2 Torsion [N]-CA--C-[N] |==|  0.06667
USER: genes 3 Torsion [C]-N--CA-[C] |==|  0.75227
USER: genes 4 Torsion [N]-CA--C-[N] |==|  0.93815
USER: genes 5 Torsion [C]-N--CA-[CB] |==|  0.45873
USER: genes 6 Torsion [N]-CA--CB-[CG1] |==|  0.09273
USER: genes 7 Torsion [CA]-CB--CG1-[CD1] |==|  0.63485
USER: genes 8 Torsion [N]-CA--C-[OXT] |==|  0.80585
USER: genes 9 Torsion [N]-CA--CB-[CG] |==|  0.89517
USER: genes 10 Torsion [CA]-CB--CG-[CD2] |==|  0.26013
USER: genes 11 Torsion [C]-CA--CB-[CG] |==|  0.39173
USER: genes 12 Torsion [CA]-CB--CG-[CD1] |==|  0.87965
USER: genes 13 Torsion [C]-CA--N-[C] |==|  0.16814
USER: genes 14 Torsion [N]-C--CA-[N] |==|  0.54054
USER: genes 15 Torsion [C]-CA--CB-[CG] |==|  0.30252
USER: genes 16 Torsion [CA]-CB--CG-[CD2] |==|  0.17917
USER: genes 17 Torsion [C]-CA--N-[C] |==|  0.16143
USER: genes 18 Torsion [N]-C--CA-[N] |==|  0.77772
USER: genes 19 Torsion [C]-CA--CB-[CG] |==|  0.53493
USER: genes 20 Torsion [CA]-CB--CG-[OD1] |==|  0.74948
ROOT
ATOM      1  CA  LEU D  11      19.752   4.794  61.786  1.00 47.89 LIG 0.18  C 
ENDROOT
BRANCH 1 2
ATOM      2  C   LEU D  11      19.100   6.110  62.188  1.00 48.14 LIG 0.24  C 
ATOM      3 O    LEU D  11      19.691   7.173  62.053  1.00 47.13 LIG-0.27  OA
ATOM      4  N   HIS D  12      17.887   6.025  62.722  1.00 49.28 LIG-0.35  N 
ATOM      5 H    HIS D  12      17.448   5.291  62.818  1.00 49.28 LIG 0.16  HD
BRANCH 4 6
ATOM      6  CA  HIS D  12      17.196   7.220  63.197  1.00 50.49 LIG 0.18  C 
BRANCH 6 7
ATOM      7  C   HIS D  12      17.521   7.519  64.658  1.00 51.38 LIG 0.24  C 
ATOM      8  N   ILE D  13      17.947   6.475  65.352  1.00 53.16 LIG-0.34  N 
ATOM      9 H    ILE D  13      17.999   5.694  64.996  1.00 53.16 LIG 0.16  HD
ATOM     10 O    HIS D  12      17.397   8.644  65.119  1.00 51.57 LIG-0.27  OA
BRANCH 8 11
ATOM     11  CA  ILE D  13      18.377   6.471  66.760  1.00 55.12 LIG 0.19  C 
BRANCH 11 12
ATOM     12  CB  ILE D  13      18.470   5.033  67.389  1.00 55.01 LIG 0.01  C 
ATOM     13  CG2 ILE D  13      17.157   4.589  68.060  1.00 56.15 LIG 0.01  C 
BRANCH 12 14
ATOM     14  CG1 ILE D  13      18.906   4.021  66.324  1.00 55.50 LIG 0.00  C 
ATOM     15  CD1 ILE D  13      18.033   2.738  66.268  1.00 55.45 LIG 0.01  C 
ENDBRANCH 12 14
ENDBRANCH 11 12
BRANCH 11 16
ATOM     16  C   ILE D  13      19.538   7.376  67.181  1.00 55.63 LIG 0.20  C 
ATOM     17 O    ILE D  13      19.349   8.378  67.874  1.00 56.94 LIG-0.65  OA
ATOM     18 OXT  ILE D  13      20.673   7.082  66.779  1.00 55.86 LIG-0.65  OA
ENDBRANCH 11 16
ENDBRANCH 8 11
ENDBRANCH 6 7
BRANCH 6 19
ATOM     19  CB  HIS D  12      15.683   7.098  63.008  1.00 50.55 LIG 0.10  C 
BRANCH 19 20
ATOM     20  CG  HIS D  12      15.287   6.407  61.742  1.00 49.61 LIG 0.06  A 
ATOM     21  CD2 HIS D  12      14.999   5.109  61.484  1.00 48.49 LIG 0.14  A 
ATOM     22 NE2  HIS D  12      14.691   5.021  60.150  1.00 48.62 LIG-0.25  NA
ATOM     23  CE1 HIS D  12      14.761   6.224  59.611  1.00 49.12 LIG 0.23  A 
ATOM     24 ND1  HIS D  12      15.124   7.079  60.549  1.00 49.92 LIG-0.24  NA
ENDBRANCH 19 20
ENDBRANCH 6 19
ENDBRANCH 4 6
ENDBRANCH 1 2
BRANCH 1 25
ATOM     25  CB  LEU D  11      20.581   5.049  60.532  1.00 47.69 LIG 0.04  C 
BRANCH 25 26
ATOM     26  CG  LEU D  11      21.942   4.358  60.380  1.00 48.05 LIG-0.02  C 
ATOM     27  CD1 LEU D  11      22.710   4.421  61.693  1.00 46.53 LIG 0.01  C 
ATOM     28  CD2 LEU D  11      21.824   2.934  59.893  1.00 50.43 LIG 0.01  C 
ENDBRANCH 25 26
ENDBRANCH 1 25
BRANCH 1 29
ATOM     29  N   LEU D  11      18.794   3.728  61.527  1.00 47.51 LIG-0.35  N 
ATOM     30  C   LEU D  10      17.862   3.809  60.576  1.00 47.80 LIG 0.24  C 
ATOM     31 O    LEU D  10      17.770   4.753  59.779  1.00 47.07 LIG-0.27  OA
ATOM     32 H    LEU D  11      18.886   3.046  62.042  1.00 47.51 LIG 0.16  HD
BRANCH 30 33
ATOM     33  CA  LEU D  10      16.878   2.647  60.522  1.00 47.63 LIG 0.18  C 
BRANCH 33 34
ATOM     34  CB  LEU D  10      17.587   1.314  60.742  1.00 47.29 LIG 0.04  C 
BRANCH 34 35
ATOM     35  CG  LEU D  10      17.278   0.662  62.095  1.00 46.92 LIG-0.02  C 
ATOM     36  CD1 LEU D  10      17.653   1.569  63.265  1.00 46.83 LIG 0.01  C 
ATOM     37  CD2 LEU D  10      15.837   0.289  62.200  1.00 45.50 LIG 0.01  C 
ENDBRANCH 34 35
ENDBRANCH 33 34
BRANCH 33 38
ATOM     38  N   LEU D  10      16.150   2.673  59.265  1.00 47.82 LIG-0.35  N 
ATOM     39 H    LEU D  10      15.295   2.724  59.342  1.00 47.82 LIG 0.16  HD
ATOM     40  C   ASP D   9      16.799   2.620  58.108  1.00 48.63 LIG 0.26  C 
ATOM     41 O    ASP D   9      18.022   2.533  58.023  1.00 48.10 LIG-0.27  OA
BRANCH 40 42
ATOM     42  CA  ASP D   9      15.943   2.661  56.869  1.00 49.27 LIG 0.41  C 
ATOM     43  N   ASP D   9      15.399   1.295  56.653  1.00 49.86 LIG 0.61  N 
BRANCH 42 44
ATOM     44  CB  ASP D   9      14.815   3.660  57.083  1.00 50.02 LIG 0.16  C 
BRANCH 44 45
ATOM     45  CG  ASP D   9      13.744   3.557  56.038  1.00 50.84 LIG 0.17  C 
ATOM     46 OD1  ASP D   9      13.851   4.250  55.011  1.00 53.44 LIG-0.65  OA
ATOM     47 OD2  ASP D   9      12.764   2.786  56.141  1.00 53.75 LIG-0.65  OA
ENDBRANCH 44 45
ENDBRANCH 42 44
ENDBRANCH 40 42
ENDBRANCH 33 38
ENDBRANCH 30 33
ENDBRANCH 1 29
TORSDOF 19
ENDMDL
MODEL 48
USER: ADFR SOLUTION from run 3
USER: SCORE 15.246147 LL:  -4.001 LR: -12.030 RR:   0.000 FEB:  -6.362
USER: RMSD 5.287169
USER: SEED 806827
USER: STATUS no improvement in best in 17 clusters for 5 generations
USER: GENES 21
USER: genes 0 Translation |==|  0.50854 0.46340 0.63485
USER: genes 1 Rotation |==|  0.23671 0.22166 0.19766 0.60862
USER: genes 2 Torsion [N]-CA--C-[N] |==|  0.49095
USER: genes 3 Torsion [C]-N--CA-[C] |==|  0.84925
USER: genes 4 Torsion [N]-CA--C-[N] |==|  0.39437
USER: genes 5 Torsion [C]-N--CA-[CB] |==|  0.80825
USER: genes 6 Torsion [N]-CA--CB-[CG1] |==|  0.61446
USER: genes 7 Torsion [CA]-CB--CG1-[CD1] |==|  0.54636
USER: genes 8 Torsion [N]-CA--C-[OXT] |==|  0.01807
USER: genes 9 Torsion [N]-CA--CB-[CG] |==|  0.39721
USER: genes 10 Torsion [CA]-CB--CG-[CD2] |==|  0.72260
USER: genes 11 Torsion [C]-CA--CB-[CG] |==|  0.34126
USER: genes 12 Torsion [CA]-CB--CG-[CD1] |==|  0.89638
USER: genes 13 Torsion [C]-CA--N-[C] |==|  0.71557
USER: genes 14 Torsion [N]-C--CA-[N] |==|  0.52039
USER: genes 15 Torsion [C]-CA--CB-[CG] |==|  0.69269
USER: genes 16 Torsion [CA]-CB--CG-[CD2] |==|  0.71308
USER: genes 17 Torsion [C]-CA--N-[C] |==|  0.68941
USER: genes 18 Torsion [N]-C--CA-[N] |==|  0.22535
USER: genes 19 Torsion [C]-CA--CB-[CG] |==|  0.34184
USER: genes 20 Torsion [CA]-CB--CG-[OD1] |==|  0.66519
ROOT
ATOM      1  CA  LEU D  11      18.948   6.343  65.925  1.00 47.89 LIG 0.18  C 
ENDROOT
BRANCH 1 2
ATOM      2  C   LEU D  11      19.149   5.460  64.700  1.00 48.14 LIG 0.24  C 
ATOM      3 O    LEU D  11      19.682   5.897  63.689  1.00 47.13 LIG-0.27  OA
ATOM      4  N   HIS D  12      18.678   4.221  64.787  1.00 49.28 LIG-0.35  N 
ATOM      5 H    HIS D  12      18.308   3.889  65.489  1.00 49.28 LIG 0.16  HD
BRANCH 4 6
ATOM      6  CA  HIS D  12      18.764   3.310  63.650  1.00 50.49 LIG 0.18  C 
BRANCH 6 7
ATOM      7  C   HIS D  12      18.139   3.912  62.393  1.00 51.38 LIG 0.24  C 
ATOM      8  N   ILE D  13      18.785   3.635  61.272  1.00 53.16 LIG-0.34  N 
ATOM      9 H    ILE D  13      19.513   3.177  61.277  1.00 53.16 LIG 0.16  HD
ATOM     10 O    HIS D  12      17.120   4.584  62.450  1.00 51.57 LIG-0.27  OA
BRANCH 8 11
ATOM     11  CA  ILE D  13      18.395   4.037  59.910  1.00 55.12 LIG 0.19  C 
BRANCH 11 12
ATOM     12  CB  ILE D  13      17.101   3.317  59.383  1.00 55.01 LIG 0.01  C 
ATOM     13  CG2 ILE D  13      15.830   4.165  59.568  1.00 56.15 LIG 0.01  C 
BRANCH 12 14
ATOM     14  CG1 ILE D  13      17.282   2.920  57.915  1.00 55.50 LIG 0.00  C 
ATOM     15  CD1 ILE D  13      15.958   2.580  57.178  1.00 55.45 LIG 0.01  C 
ENDBRANCH 12 14
ENDBRANCH 11 12
BRANCH 11 16
ATOM     16  C   ILE D  13      18.437   5.522  59.537  1.00 55.63 LIG 0.20  C 
ATOM     17 O    ILE D  13      18.032   5.917  58.441  1.00 56.94 LIG-0.65  OA
ATOM     18 OXT  ILE D  13      18.916   6.311  60.363  1.00 55.86 LIG-0.65  OA
ENDBRANCH 11 16
ENDBRANCH 8 11
ENDBRANCH 6 7
BRANCH 6 19
ATOM     19  CB  HIS D  12      18.112   1.963  63.968  1.00 50.55 LIG 0.10  C 
BRANCH 19 20
ATOM     20  CG  HIS D  12      17.384   1.357  62.811  1.00 49.61 LIG 0.06  A 
ATOM     21  CD2 HIS D  12      16.067   1.330  62.499  1.00 48.49 LIG 0.14  A 
ATOM     22 NE2  HIS D  12      15.945   0.641  61.318  1.00 48.62 LIG-0.25  NA
ATOM     23  CE1 HIS D  12      17.145   0.279  60.905  1.00 49.12 LIG 0.23  A 
ATOM     24 ND1  HIS D  12      18.032   0.694  61.790  1.00 49.92 LIG-0.24  NA
ENDBRANCH 19 20
ENDBRANCH 6 19
ENDBRANCH 4 6
ENDBRANCH 1 2
BRANCH 1 25
ATOM     25  CB  LEU D  11      17.448   6.490  66.152  1.00 47.69 LIG 0.04  C 
BRANCH 25 26
ATOM     26  CG  LEU D  11      16.850   6.071  67.501  1.00 48.05 LIG-0.02  C 
ATOM     27  CD1 LEU D  11      17.554   4.827  68.022  1.00 46.53 LIG 0.01  C 
ATOM     28  CD2 LEU D  11      16.885   7.180  68.526  1.00 50.43 LIG 0.01  C 
ENDBRANCH 25 26
ENDBRANCH 1 25
BRANCH 1 29
ATOM     29  N   LEU D  11      19.552   7.661  65.793  1.00 47.51 LIG-0.35  N 
ATOM     30  C   LEU D  10      20.705   7.990  66.377  1.00 47.80 LIG 0.24  C 
ATOM     31 O    LEU D  10      21.406   7.193  67.016  1.00 47.07 LIG-0.27  OA
ATOM     32 H    LEU D  11      19.097   8.204  65.307  1.00 47.51 LIG 0.16  HD
BRANCH 30 33
ATOM     33  CA  LEU D  10      21.128   9.445  66.219  1.00 47.63 LIG 0.18  C 
BRANCH 33 34
ATOM     34  CB  LEU D  10      21.018   9.897  64.766  1.00 47.29 LIG 0.04  C 
BRANCH 34 35
ATOM     35  CG  LEU D  10      22.371  10.148  64.090  1.00 46.92 LIG-0.02  C 
ATOM     36  CD1 LEU D  10      22.441   9.517  62.701  1.00 46.83 LIG 0.01  C 
ATOM     37  CD2 LEU D  10      22.662  11.608  63.985  1.00 45.50 LIG 0.01  C 
ENDBRANCH 34 35
ENDBRANCH 33 34
BRANCH 33 38
ATOM     38  N   LEU D  10      22.470   9.631  66.745  1.00 47.82 LIG-0.35  N 
ATOM     39 H    LEU D  10      23.093   9.246  66.294  1.00 47.82 LIG 0.16  HD
ATOM     40  C   ASP D   9      22.671  10.350  67.842  1.00 48.63 LIG 0.26  C 
ATOM     41 O    ASP D   9      21.763  10.879  68.479  1.00 48.10 LIG-0.27  OA
BRANCH 40 42
ATOM     42  CA  ASP D   9      24.103  10.481  68.292  1.00 49.27 LIG 0.41  C 
ATOM     43  N   ASP D   9      24.733  11.551  67.476  1.00 49.86 LIG 0.61  N 
BRANCH 42 44
ATOM     44  CB  ASP D   9      24.122  10.851  69.769  1.00 50.02 LIG 0.16  C 
BRANCH 44 45
ATOM     45  CG  ASP D   9      24.900   9.873  70.599  1.00 50.84 LIG 0.17  C 
ATOM     46 OD1  ASP D   9      24.311   9.279  71.519  1.00 53.44 LIG-0.65  OA
ATOM     47 OD2  ASP D   9      26.106   9.609  70.391  1.00 53.75 LIG-0.65  OA
ENDBRANCH 44 45
ENDBRANCH 42 44
ENDBRANCH 40 42
ENDBRANCH 33 38
ENDBRANCH 30 33
ENDBRANCH 1 29
TORSDOF 19
ENDMDL
MODEL 49
USER: ADFR SOLUTION from run 131
USER: SCORE 15.670577 LL:  -4.968 LR: -12.022 RR:   0.000 FEB:  -6.355
USER: RMSD 8.057806
USER: SEED 130
USER: STATUS no improvement in best in 4 clusters for 5 generations
USER: GENES 21
USER: genes 0 Translation |==|  0.42162 0.26789 0.41192
USER: genes 1 Rotation |==|  0.17920 0.33802 0.27712 0.76679
USER: genes 2 Torsion [N]-CA--C-[N] |==|  0.20927
USER: genes 3 Torsion [C]-N--CA-[C] |==|  0.19444
USER: genes 4 Torsion [N]-CA--C-[N] |==|  0.70343
USER: genes 5 Torsion [C]-N--CA-[CB] |==|  0.76231
USER: genes 6 Torsion [N]-CA--CB-[CG1] |==|  0.93560
USER: genes 7 Torsion [CA]-CB--CG1-[CD1] |==|  0.33579
USER: genes 8 Torsion [N]-CA--C-[OXT] |==|  0.11785
USER: genes 9 Torsion [N]-CA--CB-[CG] |==|  0.53770
USER: genes 10 Torsion [CA]-CB--CG-[CD2] |==|  0.04537
USER: genes 11 Torsion [C]-CA--CB-[CG] |==|  0.27374
USER: genes 12 Torsion [CA]-CB--CG-[CD1] |==|  0.83655
USER: genes 13 Torsion [C]-CA--N-[C] |==|  0.74470
USER: genes 14 Torsion [N]-C--CA-[N] |==|  0.85654
USER: genes 15 Torsion [C]-CA--CB-[CG] |==|  0.06629
USER: genes 16 Torsion [CA]-CB--CG-[CD2] |==|  0.57384
USER: genes 17 Torsion [C]-CA--N-[C] |==|  0.85982
USER: genes 18 Torsion [N]-C--CA-[N] |==|  0.21259
USER: genes 19 Torsion [C]-CA--CB-[CG] |==|  0.75276
USER: genes 20 Torsion [CA]-CB--CG-[OD1] |==|  0.09764
ROOT
ATOM      1  CA  LEU D  11      17.254   2.677  60.909  1.00 47.89 LIG 0.18  C 
ENDROOT
BRANCH 1 2
ATOM      2  C   LEU D  11      16.468   2.299  59.660  1.00 48.14 LIG 0.24  C 
ATOM      3 O    LEU D  11      15.258   2.128  59.705  1.00 47.13 LIG-0.27  OA
ATOM      4  N   HIS D  12      17.177   2.132  58.549  1.00 49.28 LIG-0.35  N 
ATOM      5 H    HIS D  12      18.026   2.256  58.492  1.00 49.28 LIG 0.16  HD
BRANCH 4 6
ATOM      6  CA  HIS D  12      16.532   1.711  57.310  1.00 50.49 LIG 0.18  C 
BRANCH 6 7
ATOM      7  C   HIS D  12      15.645   2.811  56.731  1.00 51.38 LIG 0.24  C 
ATOM      8  N   ILE D  13      14.346   2.595  56.861  1.00 53.16 LIG-0.34  N 
ATOM      9 H    ILE D  13      14.047   1.872  57.218  1.00 53.16 LIG 0.16  HD
ATOM     10 O    HIS D  12      16.126   3.803  56.204  1.00 51.57 LIG-0.27  OA
BRANCH 8 11
ATOM     11  CA  ILE D  13      13.259   3.495  56.444  1.00 55.12 LIG 0.19  C 
BRANCH 11 12
ATOM     12  CB  ILE D  13      12.890   4.583  57.517  1.00 55.01 LIG 0.01  C 
ATOM     13  CG2 ILE D  13      11.396   4.954  57.501  1.00 56.15 LIG 0.01  C 
BRANCH 12 14
ATOM     14  CG1 ILE D  13      13.318   4.113  58.910  1.00 55.50 LIG 0.00  C 
ATOM     15  CD1 ILE D  13      14.327   5.056  59.621  1.00 55.45 LIG 0.01  C 
ENDBRANCH 12 14
ENDBRANCH 11 12
BRANCH 11 16
ATOM     16  C   ILE D  13      13.267   4.053  55.017  1.00 55.63 LIG 0.20  C 
ATOM     17 O    ILE D  13      12.966   5.227  54.788  1.00 56.94 LIG-0.65  OA
ATOM     18 OXT  ILE D  13      13.562   3.278  54.096  1.00 55.86 LIG-0.65  OA
ENDBRANCH 11 16
ENDBRANCH 8 11
ENDBRANCH 6 7
BRANCH 6 19
ATOM     19  CB  HIS D  12      15.718   0.432  57.515  1.00 50.55 LIG 0.10  C 
BRANCH 19 20
ATOM     20  CG  HIS D  12      15.299  -0.228  56.240  1.00 49.61 LIG 0.06  A 
ATOM     21  CD2 HIS D  12      15.737  -0.073  54.968  1.00 48.49 LIG 0.14  A 
ATOM     22 NE2  HIS D  12      15.010  -0.932  54.183  1.00 48.62 LIG-0.25  NA
ATOM     23  CE1 HIS D  12      14.172  -1.608  54.946  1.00 49.12 LIG 0.23  A 
ATOM     24 ND1  HIS D  12      14.323  -1.199  56.192  1.00 49.92 LIG-0.24  NA
ENDBRANCH 19 20
ENDBRANCH 6 19
ENDBRANCH 4 6
ENDBRANCH 1 2
BRANCH 1 25
ATOM     25  CB  LEU D  11      16.362   2.413  62.117  1.00 47.69 LIG 0.04  C 
BRANCH 25 26
ATOM     26  CG  LEU D  11      16.539   1.111  62.909  1.00 48.05 LIG-0.02  C 
ATOM     27  CD1 LEU D  11      16.326  -0.089  61.998  1.00 46.53 LIG 0.01  C 
ATOM     28  CD2 LEU D  11      17.876   1.029  63.606  1.00 50.43 LIG 0.01  C 
ENDBRANCH 25 26
ENDBRANCH 1 25
BRANCH 1 29
ATOM     29  N   LEU D  11      17.689   4.066  60.921  1.00 47.51 LIG-0.35  N 
ATOM     30  C   LEU D  10      18.874   4.457  60.451  1.00 47.80 LIG 0.24  C 
ATOM     31 O    LEU D  10      19.679   3.696  59.894  1.00 47.07 LIG-0.27  OA
ATOM     32 H    LEU D  11      17.113   4.608  61.259  1.00 47.51 LIG 0.16  HD
BRANCH 30 33
ATOM     33  CA  LEU D  10      19.204   5.931  60.646  1.00 47.63 LIG 0.18  C 
BRANCH 33 34
ATOM     34  CB  LEU D  10      19.525   6.235  62.106  1.00 47.29 LIG 0.04  C 
BRANCH 34 35
ATOM     35  CG  LEU D  10      20.010   5.019  62.903  1.00 46.92 LIG-0.02  C 
ATOM     36  CD1 LEU D  10      21.507   4.776  62.722  1.00 46.83 LIG 0.01  C 
ATOM     37  CD2 LEU D  10      19.705   5.166  64.356  1.00 45.50 LIG 0.01  C 
ENDBRANCH 34 35
ENDBRANCH 33 34
BRANCH 33 38
ATOM     38  N   LEU D  10      18.115   6.753  60.147  1.00 47.82 LIG-0.35  N 
ATOM     39 H    LEU D  10      17.834   7.353  60.695  1.00 47.82 LIG 0.16  HD
ATOM     40  C   ASP D   9      17.623   6.555  58.931  1.00 48.63 LIG 0.26  C 
ATOM     41 O    ASP D   9      18.032   5.680  58.171  1.00 48.10 LIG-0.27  OA
BRANCH 40 42
ATOM     42  CA  ASP D   9      16.501   7.470  58.516  1.00 49.27 LIG 0.41  C 
ATOM     43  N   ASP D   9      17.098   8.785  58.169  1.00 49.86 LIG 0.61  N 
BRANCH 42 44
ATOM     44  CB  ASP D   9      15.795   6.866  57.310  1.00 50.02 LIG 0.16  C 
BRANCH 44 45
ATOM     45  CG  ASP D   9      16.405   7.294  56.008  1.00 50.84 LIG 0.17  C 
ATOM     46 OD1  ASP D   9      17.636   7.459  55.958  1.00 53.44 LIG-0.65  OA
ATOM     47 OD2  ASP D   9      15.734   7.467  54.965  1.00 53.75 LIG-0.65  OA
ENDBRANCH 44 45
ENDBRANCH 42 44
ENDBRANCH 40 42
ENDBRANCH 33 38
ENDBRANCH 30 33
ENDBRANCH 1 29
TORSDOF 19
ENDMDL
MODEL 50
USER: ADFR SOLUTION from run 38
USER: SCORE 16.385350 LL:  -5.017 LR: -12.014 RR:   0.000 FEB:  -6.347
USER: RMSD 10.213857
USER: SEED 37
USER: STATUS no improvement in best in 12 clusters for 5 generations
USER: GENES 21
USER: genes 0 Translation |==|  0.53906 0.51921 0.69041
USER: genes 1 Rotation |==|  0.70066 0.24346 0.21220 0.74717
USER: genes 2 Torsion [N]-CA--C-[N] |==|  0.49979
USER: genes 3 Torsion [C]-N--CA-[C] |==|  0.15807
USER: genes 4 Torsion [N]-CA--C-[N] |==|  0.11794
USER: genes 5 Torsion [C]-N--CA-[CB] |==|  0.19851
USER: genes 6 Torsion [N]-CA--CB-[CG1] |==|  0.07945
USER: genes 7 Torsion [CA]-CB--CG1-[CD1] |==|  0.44573
USER: genes 8 Torsion [N]-CA--C-[OXT] |==|  0.08337
USER: genes 9 Torsion [N]-CA--CB-[CG] |==|  0.87566
USER: genes 10 Torsion [CA]-CB--CG-[CD2] |==|  0.23020
USER: genes 11 Torsion [C]-CA--CB-[CG] |==|  0.50376
USER: genes 12 Torsion [CA]-CB--CG-[CD1] |==|  0.48836
USER: genes 13 Torsion [C]-CA--N-[C] |==|  0.58248
USER: genes 14 Torsion [N]-C--CA-[N] |==|  0.50205
USER: genes 15 Torsion [C]-CA--CB-[CG] |==|  0.28121
USER: genes 16 Torsion [CA]-CB--CG-[CD2] |==|  0.00413
USER: genes 17 Torsion [C]-CA--N-[C] |==|  0.60221
USER: genes 18 Torsion [N]-C--CA-[N] |==|  0.33958
USER: genes 19 Torsion [C]-CA--CB-[CG] |==|  0.73194
USER: genes 20 Torsion [CA]-CB--CG-[OD1] |==|  0.35781
ROOT
ATOM      1  CA  LEU D  11      19.544   7.389  67.175  1.00 47.89 LIG 0.18  C 
ENDROOT
BRANCH 1 2
ATOM      2  C   LEU D  11      20.284   8.694  66.914  1.00 48.14 LIG 0.24  C 
ATOM      3 O    LEU D  11      19.694   9.766  66.927  1.00 47.13 LIG-0.27  OA
ATOM      4  N   HIS D  12      21.578   8.589  66.636  1.00 49.28 LIG-0.35  N 
ATOM      5 H    HIS D  12      22.016   7.849  66.630  1.00 49.28 LIG 0.16  HD
BRANCH 4 6
ATOM      6  CA  HIS D  12      22.368   9.772  66.310  1.00 50.49 LIG 0.18  C 
BRANCH 6 7
ATOM      7  C   HIS D  12      22.306  10.819  67.421  1.00 51.38 LIG 0.24  C 
ATOM      8  N   ILE D  13      22.400  10.327  68.645  1.00 53.16 LIG-0.34  N 
ATOM      9 H    ILE D  13      22.460   9.480  68.784  1.00 53.16 LIG 0.16  HD
ATOM     10 O    HIS D  12      22.187  12.008  67.166  1.00 51.57 LIG-0.27  OA
BRANCH 8 11
ATOM     11  CA  ILE D  13      22.418  11.094  69.902  1.00 55.12 LIG 0.19  C 
BRANCH 11 12
ATOM     12  CB  ILE D  13      21.030  11.728  70.277  1.00 55.01 LIG 0.01  C 
ATOM     13  CG2 ILE D  13      20.900  13.192  69.817  1.00 56.15 LIG 0.01  C 
BRANCH 12 14
ATOM     14  CG1 ILE D  13      19.891  10.877  69.706  1.00 55.50 LIG 0.00  C 
ATOM     15  CD1 ILE D  13      18.515  11.111  70.386  1.00 55.45 LIG 0.01  C 
ENDBRANCH 12 14
ENDBRANCH 11 12
BRANCH 11 16
ATOM     16  C   ILE D  13      23.145  10.506  71.116  1.00 55.63 LIG 0.20  C 
ATOM     17 O    ILE D  13      22.792  10.779  72.266  1.00 56.94 LIG-0.65  OA
ATOM     18 OXT  ILE D  13      24.117   9.767  70.904  1.00 55.86 LIG-0.65  OA
ENDBRANCH 11 16
ENDBRANCH 8 11
ENDBRANCH 6 7
BRANCH 6 19
ATOM     19  CB  HIS D  12      21.925  10.387  64.981  1.00 50.55 LIG 0.10  C 
BRANCH 19 20
ATOM     20  CG  HIS D  12      21.712   9.383  63.893  1.00 49.61 LIG 0.06  A 
ATOM     21  CD2 HIS D  12      20.651   8.595  63.600  1.00 48.49 LIG 0.14  A 
ATOM     22 NE2  HIS D  12      20.986   7.862  62.489  1.00 48.62 LIG-0.25  NA
ATOM     23  CE1 HIS D  12      22.199   8.205  62.098  1.00 49.12 LIG 0.23  A 
ATOM     24 ND1  HIS D  12      22.662   9.118  62.931  1.00 49.92 LIG-0.24  NA
ENDBRANCH 19 20
ENDBRANCH 6 19
ENDBRANCH 4 6
ENDBRANCH 1 2
BRANCH 1 25
ATOM     25  CB  LEU D  11      19.690   6.515  65.935  1.00 47.69 LIG 0.04  C 
BRANCH 25 26
ATOM     26  CG  LEU D  11      19.011   5.139  65.904  1.00 48.05 LIG-0.02  C 
ATOM     27  CD1 LEU D  11      19.204   4.492  64.540  1.00 46.53 LIG 0.01  C 
ATOM     28  CD2 LEU D  11      19.491   4.226  67.007  1.00 50.43 LIG 0.01  C 
ENDBRANCH 25 26
ENDBRANCH 1 25
BRANCH 1 29
ATOM     29  N   LEU D  11      18.132   7.574  67.475  1.00 47.51 LIG-0.35  N 
ATOM     30  C   LEU D  10      17.443   6.744  68.260  1.00 47.80 LIG 0.24  C 
ATOM     31 O    LEU D  10      17.951   5.789  68.866  1.00 47.07 LIG-0.27  OA
ATOM     32 H    LEU D  11      17.784   8.266  67.101  1.00 47.51 LIG 0.16  HD
BRANCH 30 33
ATOM     33  CA  LEU D  10      15.952   7.032  68.373  1.00 47.63 LIG 0.18  C 
BRANCH 33 34
ATOM     34  CB  LEU D  10      15.700   8.469  68.818  1.00 47.29 LIG 0.04  C 
BRANCH 34 35
ATOM     35  CG  LEU D  10      15.307   9.414  67.677  1.00 46.92 LIG-0.02  C 
ATOM     36  CD1 LEU D  10      16.279  10.585  67.543  1.00 46.83 LIG 0.01  C 
ATOM     37  CD2 LEU D  10      15.226   8.688  66.376  1.00 45.50 LIG 0.01  C 
ENDBRANCH 34 35
ENDBRANCH 33 34
BRANCH 33 38
ATOM     38  N   LEU D  10      15.327   6.071  69.266  1.00 47.82 LIG-0.35  N 
ATOM     39 H    LEU D  10      15.807   5.839  69.941  1.00 47.82 LIG 0.16  HD
ATOM     40  C   ASP D   9      14.107   5.613  69.017  1.00 48.63 LIG 0.26  C 
ATOM     41 O    ASP D   9      13.446   5.949  68.037  1.00 48.10 LIG-0.27  OA
BRANCH 40 42
ATOM     42  CA  ASP D   9      13.556   4.627  70.013  1.00 49.27 LIG 0.41  C 
ATOM     43  N   ASP D   9      12.286   5.185  70.545  1.00 49.86 LIG 0.61  N 
BRANCH 42 44
ATOM     44  CB  ASP D   9      13.305   3.302  69.306  1.00 50.02 LIG 0.16  C 
BRANCH 44 45
ATOM     45  CG  ASP D   9      11.880   3.142  68.866  1.00 50.84 LIG 0.17  C 
ATOM     46 OD1  ASP D   9      11.658   2.826  67.685  1.00 53.44 LIG-0.65  OA
ATOM     47 OD2  ASP D   9      10.907   3.286  69.641  1.00 53.75 LIG-0.65  OA
ENDBRANCH 44 45
ENDBRANCH 42 44
ENDBRANCH 40 42
ENDBRANCH 33 38
ENDBRANCH 30 33
ENDBRANCH 1 29
TORSDOF 19
ENDMDL
MODEL 51
USER: ADFR SOLUTION from run 112
USER: SCORE 16.783404 LL:  -5.164 LR: -12.000 RR:   0.000 FEB:  -6.332
USER: RMSD 5.972565
USER: SEED 111
USER: STATUS no improvement in best in 11 clusters for 5 generations
USER: GENES 21
USER: genes 0 Translation |==|  0.47326 0.21671 0.39518
USER: genes 1 Rotation |==|  0.23447 0.43544 0.33495 0.88482
USER: genes 2 Torsion [N]-CA--C-[N] |==|  0.96352
USER: genes 3 Torsion [C]-N--CA-[C] |==|  0.84093
USER: genes 4 Torsion [N]-CA--C-[N] |==|  0.38428
USER: genes 5 Torsion [C]-N--CA-[CB] |==|  0.30550
USER: genes 6 Torsion [N]-CA--CB-[CG1] |==|  0.90416
USER: genes 7 Torsion [CA]-CB--CG1-[CD1] |==|  0.26898
USER: genes 8 Torsion [N]-CA--C-[OXT] |==|  0.16980
USER: genes 9 Torsion [N]-CA--CB-[CG] |==|  0.12340
USER: genes 10 Torsion [CA]-CB--CG-[CD2] |==|  0.73305
USER: genes 11 Torsion [C]-CA--CB-[CG] |==|  0.79355
USER: genes 12 Torsion [CA]-CB--CG-[CD1] |==|  0.31900
USER: genes 13 Torsion [C]-CA--N-[C] |==|  0.83849
USER: genes 14 Torsion [N]-C--CA-[N] |==|  0.99005
USER: genes 15 Torsion [C]-CA--CB-[CG] |==|  0.79191
USER: genes 16 Torsion [CA]-CB--CG-[CD2] |==|  0.58659
USER: genes 17 Torsion [C]-CA--N-[C] |==|  0.69244
USER: genes 18 Torsion [N]-C--CA-[N] |==|  0.01177
USER: genes 19 Torsion [C]-CA--CB-[CG] |==|  0.69090
USER: genes 20 Torsion [CA]-CB--CG-[OD1] |==|  0.84940
ROOT
ATOM      1  CA  LEU D  11      18.261   1.717  60.533  1.00 47.89 LIG 0.18  C 
ENDROOT
BRANCH 1 2
ATOM      2  C   LEU D  11      17.033   1.767  59.632  1.00 48.14 LIG 0.24  C 
ATOM      3 O    LEU D  11      16.779   0.849  58.864  1.00 47.13 LIG-0.27  OA
ATOM      4  N   HIS D  12      16.295   2.869  59.706  1.00 49.28 LIG-0.35  N 
ATOM      5 H    HIS D  12      16.449   3.521  60.245  1.00 49.28 LIG 0.16  HD
BRANCH 4 6
ATOM      6  CA  HIS D  12      15.131   3.045  58.844  1.00 50.49 LIG 0.18  C 
BRANCH 6 7
ATOM      7  C   HIS D  12      15.501   2.946  57.366  1.00 51.38 LIG 0.24  C 
ATOM      8  N   ILE D  13      14.641   2.262  56.629  1.00 53.16 LIG-0.34  N 
ATOM      9 H    ILE D  13      13.952   1.886  56.980  1.00 53.16 LIG 0.16  HD
ATOM     10 O    HIS D  12      16.512   3.474  56.927  1.00 51.57 LIG-0.27  OA
BRANCH 8 11
ATOM     11  CA  ILE D  13      14.709   2.041  55.175  1.00 55.12 LIG 0.19  C 
BRANCH 11 12
ATOM     12  CB  ILE D  13      15.042   0.558  54.774  1.00 55.01 LIG 0.01  C 
ATOM     13  CG2 ILE D  13      15.614   0.440  53.350  1.00 56.15 LIG 0.01  C 
BRANCH 12 14
ATOM     14  CG1 ILE D  13      16.000  -0.060  55.798  1.00 55.50 LIG 0.00  C 
ATOM     15  CD1 ILE D  13      15.303  -0.912  56.892  1.00 55.45 LIG 0.01  C 
ENDBRANCH 12 14
ENDBRANCH 11 12
BRANCH 11 16
ATOM     16  C   ILE D  13      13.633   2.666  54.281  1.00 55.63 LIG 0.20  C 
ATOM     17 O    ILE D  13      12.908   1.966  53.570  1.00 56.94 LIG-0.65  OA
ATOM     18 OXT  ILE D  13      13.532   3.901  54.277  1.00 55.86 LIG-0.65  OA
ENDBRANCH 11 16
ENDBRANCH 8 11
ENDBRANCH 6 7
BRANCH 6 19
ATOM     19  CB  HIS D  12      14.430   4.376  59.124  1.00 50.55 LIG 0.10  C 
BRANCH 19 20
ATOM     20  CG  HIS D  12      15.367   5.533  59.267  1.00 49.61 LIG 0.06  A 
ATOM     21  CD2 HIS D  12      15.907   6.115  60.364  1.00 48.49 LIG 0.14  A 
ATOM     22 NE2  HIS D  12      16.706   7.141  59.925  1.00 48.62 LIG-0.25  NA
ATOM     23  CE1 HIS D  12      16.679   7.174  58.605  1.00 49.12 LIG 0.23  A 
ATOM     24 ND1  HIS D  12      15.874   6.216  58.183  1.00 49.92 LIG-0.24  NA
ENDBRANCH 19 20
ENDBRANCH 6 19
ENDBRANCH 4 6
ENDBRANCH 1 2
BRANCH 1 25
ATOM     25  CB  LEU D  11      17.980   0.715  61.647  1.00 47.69 LIG 0.04  C 
BRANCH 25 26
ATOM     26  CG  LEU D  11      17.021   1.102  62.779  1.00 48.05 LIG-0.02  C 
ATOM     27  CD1 LEU D  11      15.782   0.220  62.740  1.00 46.53 LIG 0.01  C 
ATOM     28  CD2 LEU D  11      17.675   1.054  64.140  1.00 50.43 LIG 0.01  C 
ENDBRANCH 25 26
ENDBRANCH 1 25
BRANCH 1 29
ATOM     29  N   LEU D  11      18.605   3.006  61.114  1.00 47.51 LIG-0.35  N 
ATOM     30  C   LEU D  10      18.873   4.085  60.377  1.00 47.80 LIG 0.24  C 
ATOM     31 O    LEU D  10      18.782   4.115  59.141  1.00 47.07 LIG-0.27  OA
ATOM     32 H    LEU D  11      18.619   3.007  61.974  1.00 47.51 LIG 0.16  HD
BRANCH 30 33
ATOM     33  CA  LEU D  10      19.321   5.316  61.154  1.00 47.63 LIG 0.18  C 
BRANCH 33 34
ATOM     34  CB  LEU D  10      20.706   5.776  60.708  1.00 47.29 LIG 0.04  C 
BRANCH 34 35
ATOM     35  CG  LEU D  10      21.848   4.894  61.223  1.00 46.92 LIG-0.02  C 
ATOM     36  CD1 LEU D  10      22.145   3.733  60.276  1.00 46.83 LIG 0.01  C 
ATOM     37  CD2 LEU D  10      23.093   5.689  61.436  1.00 45.50 LIG 0.01  C 
ENDBRANCH 34 35
ENDBRANCH 33 34
BRANCH 33 38
ATOM     38  N   LEU D  10      19.272   5.047  62.581  1.00 47.82 LIG-0.35  N 
ATOM     39 H    LEU D  10      19.860   4.487  62.865  1.00 47.82 LIG 0.16  HD
ATOM     40  C   ASP D   9      18.370   5.644  63.349  1.00 48.63 LIG 0.26  C 
ATOM     41 O    ASP D   9      17.529   6.431  62.918  1.00 48.10 LIG-0.27  OA
BRANCH 40 42
ATOM     42  CA  ASP D   9      18.416   5.296  64.814  1.00 49.27 LIG 0.41  C 
ATOM     43  N   ASP D   9      19.585   4.405  65.028  1.00 49.86 LIG 0.61  N 
BRANCH 42 44
ATOM     44  CB  ASP D   9      18.565   6.579  65.620  1.00 50.02 LIG 0.16  C 
BRANCH 44 45
ATOM     45  CG  ASP D   9      19.904   6.692  66.286  1.00 50.84 LIG 0.17  C 
ATOM     46 OD1  ASP D   9      20.282   5.760  67.016  1.00 53.44 LIG-0.65  OA
ATOM     47 OD2  ASP D   9      20.668   7.669  66.118  1.00 53.75 LIG-0.65  OA
ENDBRANCH 44 45
ENDBRANCH 42 44
ENDBRANCH 40 42
ENDBRANCH 33 38
ENDBRANCH 30 33
ENDBRANCH 1 29
TORSDOF 19
ENDMDL
MODEL 52
USER: ADFR SOLUTION from run 12
USER: SCORE 16.198240 LL:  -4.734 LR: -11.986 RR:   0.000 FEB:  -6.318
USER: RMSD 10.152204
USER: SEED 547194
USER: STATUS no improvement in best in 13 clusters for 5 generations
USER: GENES 21
USER: genes 0 Translation |==|  0.42827 0.29207 0.45947
USER: genes 1 Rotation |==|  0.30528 0.94351 0.62310 0.51507
USER: genes 2 Torsion [N]-CA--C-[N] |==|  0.04137
USER: genes 3 Torsion [C]-N--CA-[C] |==|  0.74842
USER: genes 4 Torsion [N]-CA--C-[N] |==|  0.28889
USER: genes 5 Torsion [C]-N--CA-[CB] |==|  0.39350
USER: genes 6 Torsion [N]-CA--CB-[CG1] |==|  0.06697
USER: genes 7 Torsion [CA]-CB--CG1-[CD1] |==|  0.73507
USER: genes 8 Torsion [N]-CA--C-[OXT] |==|  0.41463
USER: genes 9 Torsion [N]-CA--CB-[CG] |==|  0.81318
USER: genes 10 Torsion [CA]-CB--CG-[CD2] |==|  0.52061
USER: genes 11 Torsion [C]-CA--CB-[CG] |==|  0.27117
USER: genes 12 Torsion [CA]-CB--CG-[CD1] |==|  0.85197
USER: genes 13 Torsion [C]-CA--N-[C] |==|  0.17942
USER: genes 14 Torsion [N]-C--CA-[N] |==|  0.87231
USER: genes 15 Torsion [C]-CA--CB-[CG] |==|  0.48799
USER: genes 16 Torsion [CA]-CB--CG-[CD2] |==|  0.24969
USER: genes 17 Torsion [C]-CA--N-[C] |==|  0.80559
USER: genes 18 Torsion [N]-C--CA-[N] |==|  0.00436
USER: genes 19 Torsion [C]-CA--CB-[CG] |==|  0.74398
USER: genes 20 Torsion [CA]-CB--CG-[OD1] |==|  0.58645
ROOT
ATOM      1  CA  LEU D  11      17.383   3.130  61.979  1.00 47.89 LIG 0.18  C 
ENDROOT
BRANCH 1 2
ATOM      2  C   LEU D  11      18.534   3.796  62.722  1.00 48.14 LIG 0.24  C 
ATOM      3 O    LEU D  11      19.075   3.243  63.670  1.00 47.13 LIG-0.27  OA
ATOM      4  N   HIS D  12      18.877   5.010  62.306  1.00 49.28 LIG-0.35  N 
ATOM      5 H    HIS D  12      18.518   5.414  61.637  1.00 49.28 LIG 0.16  HD
BRANCH 4 6
ATOM      6  CA  HIS D  12      19.927   5.762  62.986  1.00 50.49 LIG 0.18  C 
BRANCH 6 7
ATOM      7  C   HIS D  12      19.364   6.634  64.106  1.00 51.38 LIG 0.24  C 
ATOM      8  N   ILE D  13      19.571   6.164  65.325  1.00 53.16 LIG-0.34  N 
ATOM      9 H    ILE D  13      19.964   5.411  65.453  1.00 53.16 LIG 0.16  HD
ATOM     10 O    HIS D  12      18.783   7.682  63.864  1.00 51.57 LIG-0.27  OA
BRANCH 8 11
ATOM     11  CA  ILE D  13      19.187   6.807  66.593  1.00 55.12 LIG 0.19  C 
BRANCH 11 12
ATOM     12  CB  ILE D  13      18.671   5.800  67.684  1.00 55.01 LIG 0.01  C 
ATOM     13  CG2 ILE D  13      17.135   5.763  67.782  1.00 56.15 LIG 0.01  C 
BRANCH 12 14
ATOM     14  CG1 ILE D  13      19.233   4.401  67.414  1.00 55.50 LIG 0.00  C 
ATOM     15  CD1 ILE D  13      18.282   3.476  66.606  1.00 55.45 LIG 0.01  C 
ENDBRANCH 12 14
ENDBRANCH 11 12
BRANCH 11 16
ATOM     16  C   ILE D  13      20.096   7.893  67.175  1.00 55.63 LIG 0.20  C 
ATOM     17 O    ILE D  13      21.318   7.859  67.012  1.00 56.94 LIG-0.65  OA
ATOM     18 OXT  ILE D  13      19.566   8.795  67.839  1.00 55.86 LIG-0.65  OA
ENDBRANCH 11 16
ENDBRANCH 8 11
ENDBRANCH 6 7
BRANCH 6 19
ATOM     19  CB  HIS D  12      20.723   6.619  62.000  1.00 50.55 LIG 0.10  C 
BRANCH 19 20
ATOM     20  CG  HIS D  12      21.539   5.823  61.031  1.00 49.61 LIG 0.06  A 
ATOM     21  CD2 HIS D  12      22.459   6.204  60.113  1.00 48.49 LIG 0.14  A 
ATOM     22 NE2  HIS D  12      22.906   5.065  59.493  1.00 48.62 LIG-0.25  NA
ATOM     23  CE1 HIS D  12      22.303   4.019  60.026  1.00 49.12 LIG 0.23  A 
ATOM     24 ND1  HIS D  12      21.468   4.449  60.954  1.00 49.92 LIG-0.24  NA
ENDBRANCH 19 20
ENDBRANCH 6 19
ENDBRANCH 4 6
ENDBRANCH 1 2
BRANCH 1 25
ATOM     25  CB  LEU D  11      17.772   1.678  61.725  1.00 47.69 LIG 0.04  C 
BRANCH 25 26
ATOM     26  CG  LEU D  11      17.262   0.589  62.676  1.00 48.05 LIG-0.02  C 
ATOM     27  CD1 LEU D  11      17.611   0.944  64.114  1.00 46.53 LIG 0.01  C 
ATOM     28  CD2 LEU D  11      15.782   0.330  62.529  1.00 50.43 LIG 0.01  C 
ENDBRANCH 25 26
ENDBRANCH 1 25
BRANCH 1 29
ATOM     29  N   LEU D  11      17.060   3.775  60.715  1.00 47.51 LIG-0.35  N 
ATOM     30  C   LEU D  10      17.905   3.813  59.684  1.00 47.80 LIG 0.24  C 
ATOM     31 O    LEU D  10      19.006   3.243  59.675  1.00 47.07 LIG-0.27  OA
ATOM     32 H    LEU D  11      16.276   4.128  60.695  1.00 47.51 LIG 0.16  HD
BRANCH 30 33
ATOM     33  CA  LEU D  10      17.440   4.625  58.483  1.00 47.63 LIG 0.18  C 
BRANCH 33 34
ATOM     34  CB  LEU D  10      17.633   6.120  58.719  1.00 47.29 LIG 0.04  C 
BRANCH 34 35
ATOM     35  CG  LEU D  10      17.282   6.991  57.507  1.00 46.92 LIG-0.02  C 
ATOM     36  CD1 LEU D  10      17.591   6.286  56.188  1.00 46.83 LIG 0.01  C 
ATOM     37  CD2 LEU D  10      15.845   7.395  57.528  1.00 45.50 LIG 0.01  C 
ENDBRANCH 34 35
ENDBRANCH 33 34
BRANCH 33 38
ATOM     38  N   LEU D  10      16.059   4.299  58.170  1.00 47.82 LIG-0.35  N 
ATOM     39 H    LEU D  10      15.492   4.925  58.336  1.00 47.82 LIG 0.16  HD
ATOM     40  C   ASP D   9      15.743   3.113  57.665  1.00 48.63 LIG 0.26  C 
ATOM     41 O    ASP D   9      16.569   2.230  57.449  1.00 48.10 LIG-0.27  OA
BRANCH 40 42
ATOM     42  CA  ASP D   9      14.283   2.888  57.372  1.00 49.27 LIG 0.41  C 
ATOM     43  N   ASP D   9      13.558   4.139  57.714  1.00 49.86 LIG 0.61  N 
BRANCH 42 44
ATOM     44  CB  ASP D   9      14.122   2.561  55.894  1.00 50.02 LIG 0.16  C 
BRANCH 44 45
ATOM     45  CG  ASP D   9      13.858   3.778  55.058  1.00 50.84 LIG 0.17  C 
ATOM     46 OD1  ASP D   9      13.161   3.653  54.037  1.00 53.44 LIG-0.65  OA
ATOM     47 OD2  ASP D   9      14.287   4.916  55.356  1.00 53.75 LIG-0.65  OA
ENDBRANCH 44 45
ENDBRANCH 42 44
ENDBRANCH 40 42
ENDBRANCH 33 38
ENDBRANCH 30 33
ENDBRANCH 1 29
TORSDOF 19
ENDMDL
MODEL 53
USER: ADFR SOLUTION from run 191
USER: SCORE 15.738387 LL:  -4.201 LR: -11.980 RR:   0.000 FEB:  -6.313
USER: RMSD 6.180001
USER: SEED 190
USER: STATUS no improvement in best in 16 clusters for 5 generations
USER: GENES 21
USER: genes 0 Translation |==|  0.45155 0.23424 0.40738
USER: genes 1 Rotation |==|  0.24523 0.50294 0.37226 0.91081
USER: genes 2 Torsion [N]-CA--C-[N] |==|  0.00593
USER: genes 3 Torsion [C]-N--CA-[C] |==|  0.77723
USER: genes 4 Torsion [N]-CA--C-[N] |==|  0.21312
USER: genes 5 Torsion [C]-N--CA-[CB] |==|  0.42804
USER: genes 6 Torsion [N]-CA--CB-[CG1] |==|  0.37095
USER: genes 7 Torsion [CA]-CB--CG1-[CD1] |==|  0.42639
USER: genes 8 Torsion [N]-CA--C-[OXT] |==|  0.35686
USER: genes 9 Torsion [N]-CA--CB-[CG] |==|  0.70670
USER: genes 10 Torsion [CA]-CB--CG-[CD2] |==|  0.60620
USER: genes 11 Torsion [C]-CA--CB-[CG] |==|  0.83921
USER: genes 12 Torsion [CA]-CB--CG-[CD1] |==|  0.29941
USER: genes 13 Torsion [C]-CA--N-[C] |==|  0.71667
USER: genes 14 Torsion [N]-C--CA-[N] |==|  0.48228
USER: genes 15 Torsion [C]-CA--CB-[CG] |==|  0.30644
USER: genes 16 Torsion [CA]-CB--CG-[CD2] |==|  0.30951
USER: genes 17 Torsion [C]-CA--N-[C] |==|  0.76016
USER: genes 18 Torsion [N]-C--CA-[N] |==|  0.97951
USER: genes 19 Torsion [C]-CA--CB-[CG] |==|  0.50983
USER: genes 20 Torsion [CA]-CB--CG-[OD1] |==|  0.59152
ROOT
ATOM      1  CA  LEU D  11      17.837   2.046  60.807  1.00 47.89 LIG 0.18  C 
ENDROOT
BRANCH 1 2
ATOM      2  C   LEU D  11      16.406   2.193  60.308  1.00 48.14 LIG 0.24  C 
ATOM      3 O    LEU D  11      15.840   1.269  59.738  1.00 47.13 LIG-0.27  OA
ATOM      4  N   HIS D  12      15.838   3.379  60.494  1.00 49.28 LIG-0.35  N 
ATOM      5 H    HIS D  12      16.212   4.038  60.900  1.00 49.28 LIG 0.16  HD
BRANCH 4 6
ATOM      6  CA  HIS D  12      14.491   3.645  60.001  1.00 50.49 LIG 0.18  C 
BRANCH 6 7
ATOM      7  C   HIS D  12      14.487   3.969  58.508  1.00 51.38 LIG 0.24  C 
ATOM      8  N   ILE D  13      14.625   2.917  57.718  1.00 53.16 LIG-0.34  N 
ATOM      9 H    ILE D  13      14.738   2.127  58.040  1.00 53.16 LIG 0.16  HD
ATOM     10 O    HIS D  12      14.356   5.116  58.107  1.00 51.57 LIG-0.27  OA
BRANCH 8 11
ATOM     11  CA  ILE D  13      14.611   2.915  56.245  1.00 55.12 LIG 0.19  C 
BRANCH 11 12
ATOM     12  CB  ILE D  13      15.405   1.719  55.606  1.00 55.01 LIG 0.01  C 
ATOM     13  CG2 ILE D  13      15.843   0.670  56.645  1.00 56.15 LIG 0.01  C 
BRANCH 12 14
ATOM     14  CG1 ILE D  13      14.573   1.069  54.496  1.00 55.50 LIG 0.00  C 
ATOM     15  CD1 ILE D  13      15.413   0.363  53.397  1.00 55.45 LIG 0.01  C 
ENDBRANCH 12 14
ENDBRANCH 11 12
BRANCH 11 16
ATOM     16  C   ILE D  13      13.294   3.204  55.519  1.00 55.63 LIG 0.20  C 
ATOM     17 O    ILE D  13      12.269   2.570  55.779  1.00 56.94 LIG-0.65  OA
ATOM     18 OXT  ILE D  13      13.299   4.079  54.642  1.00 55.86 LIG-0.65  OA
ENDBRANCH 11 16
ENDBRANCH 8 11
ENDBRANCH 6 7
BRANCH 6 19
ATOM     19  CB  HIS D  12      13.826   4.777  60.787  1.00 50.55 LIG 0.10  C 
BRANCH 19 20
ATOM     20  CG  HIS D  12      12.776   4.312  61.744  1.00 49.61 LIG 0.06  A 
ATOM     21  CD2 HIS D  12      11.580   4.846  62.088  1.00 48.49 LIG 0.14  A 
ATOM     22 NE2  HIS D  12      11.012   4.005  63.012  1.00 48.62 LIG-0.25  NA
ATOM     23  CE1 HIS D  12      11.817   2.978  63.210  1.00 49.12 LIG 0.23  A 
ATOM     24 ND1  HIS D  12      12.891   3.140  62.461  1.00 49.92 LIG-0.24  NA
ENDBRANCH 19 20
ENDBRANCH 6 19
ENDBRANCH 4 6
ENDBRANCH 1 2
BRANCH 1 25
ATOM     25  CB  LEU D  11      17.873   0.875  61.782  1.00 47.69 LIG 0.04  C 
BRANCH 25 26
ATOM     26  CG  LEU D  11      16.967   0.902  63.020  1.00 48.05 LIG-0.02  C 
ATOM     27  CD1 LEU D  11      15.829  -0.095  62.858  1.00 46.53 LIG 0.01  C 
ATOM     28  CD2 LEU D  11      17.723   0.654  64.303  1.00 50.43 LIG 0.01  C 
ENDBRANCH 25 26
ENDBRANCH 1 25
BRANCH 1 29
ATOM     29  N   LEU D  11      18.347   3.241  61.464  1.00 47.51 LIG-0.35  N 
ATOM     30  C   LEU D  10      19.176   4.097  60.867  1.00 47.80 LIG 0.24  C 
ATOM     31 O    LEU D  10      19.529   4.003  59.682  1.00 47.07 LIG-0.27  OA
ATOM     32 H    LEU D  11      18.064   3.341  62.270  1.00 47.51 LIG 0.16  HD
BRANCH 30 33
ATOM     33  CA  LEU D  10      19.692   5.231  61.743  1.00 47.63 LIG 0.18  C 
BRANCH 33 34
ATOM     34  CB  LEU D  10      18.548   6.111  62.237  1.00 47.29 LIG 0.04  C 
BRANCH 34 35
ATOM     35  CG  LEU D  10      18.271   5.987  63.739  1.00 46.92 LIG-0.02  C 
ATOM     36  CD1 LEU D  10      19.016   4.808  64.362  1.00 46.83 LIG 0.01  C 
ATOM     37  CD2 LEU D  10      18.635   7.240  64.463  1.00 45.50 LIG 0.01  C 
ENDBRANCH 34 35
ENDBRANCH 33 34
BRANCH 33 38
ATOM     38  N   LEU D  10      20.694   5.998  61.023  1.00 47.82 LIG-0.35  N 
ATOM     39 H    LEU D  10      20.393   6.687  60.606  1.00 47.82 LIG 0.16  HD
ATOM     40  C   ASP D   9      21.968   5.625  61.037  1.00 48.63 LIG 0.26  C 
ATOM     41 O    ASP D   9      22.373   4.627  61.629  1.00 48.10 LIG-0.27  OA
BRANCH 40 42
ATOM     42  CA  ASP D   9      22.920   6.498  60.262  1.00 49.27 LIG 0.41  C 
ATOM     43  N   ASP D   9      22.109   7.493  59.514  1.00 49.86 LIG 0.61  N 
BRANCH 42 44
ATOM     44  CB  ASP D   9      23.856   7.194  61.240  1.00 50.02 LIG 0.16  C 
BRANCH 44 45
ATOM     45  CG  ASP D   9      24.789   8.154  60.564  1.00 50.84 LIG 0.17  C 
ATOM     46 OD1  ASP D   9      25.928   8.305  61.040  1.00 53.44 LIG-0.65  OA
ATOM     47 OD2  ASP D   9      24.483   8.789  59.530  1.00 53.75 LIG-0.65  OA
ENDBRANCH 44 45
ENDBRANCH 42 44
ENDBRANCH 40 42
ENDBRANCH 33 38
ENDBRANCH 30 33
ENDBRANCH 1 29
TORSDOF 19
ENDMDL
MODEL 54
USER: ADFR SOLUTION from run 51
USER: SCORE 15.359722 LL:  -4.360 LR: -11.975 RR:   0.000 FEB:  -6.307
USER: RMSD 11.781525
USER: SEED 50
USER: STATUS no improvement in best in 4 clusters for 5 generations
USER: GENES 21
USER: genes 0 Translation |==|  0.53987 0.59178 0.72279
USER: genes 1 Rotation |==|  0.75923 0.24780 0.22340 0.70661
USER: genes 2 Torsion [N]-CA--C-[N] |==|  0.25911
USER: genes 3 Torsion [C]-N--CA-[C] |==|  0.70643
USER: genes 4 Torsion [N]-CA--C-[N] |==|  0.09444
USER: genes 5 Torsion [C]-N--CA-[CB] |==|  0.79980
USER: genes 6 Torsion [N]-CA--CB-[CG1] |==|  0.23829
USER: genes 7 Torsion [CA]-CB--CG1-[CD1] |==|  0.68732
USER: genes 8 Torsion [N]-CA--C-[OXT] |==|  0.04458
USER: genes 9 Torsion [N]-CA--CB-[CG] |==|  0.13755
USER: genes 10 Torsion [CA]-CB--CG-[CD2] |==|  0.23410
USER: genes 11 Torsion [C]-CA--CB-[CG] |==|  0.52993
USER: genes 12 Torsion [CA]-CB--CG-[CD1] |==|  0.45965
USER: genes 13 Torsion [C]-CA--N-[C] |==|  0.60846
USER: genes 14 Torsion [N]-C--CA-[N] |==|  0.48201
USER: genes 15 Torsion [C]-CA--CB-[CG] |==|  0.92063
USER: genes 16 Torsion [CA]-CB--CG-[CD2] |==|  0.66498
USER: genes 17 Torsion [C]-CA--N-[C] |==|  0.56223
USER: genes 18 Torsion [N]-C--CA-[N] |==|  0.15389
USER: genes 19 Torsion [C]-CA--CB-[CG] |==|  0.42775
USER: genes 20 Torsion [CA]-CB--CG-[OD1] |==|  0.80465
ROOT
ATOM      1  CA  LEU D  11      19.559   8.750  67.904  1.00 47.89 LIG 0.18  C 
ENDROOT
BRANCH 1 2
ATOM      2  C   LEU D  11      20.240  10.106  68.031  1.00 48.14 LIG 0.24  C 
ATOM      3 O    LEU D  11      20.509  10.771  67.040  1.00 47.13 LIG-0.27  OA
ATOM      4  N   HIS D  12      20.552  10.493  69.263  1.00 49.28 LIG-0.35  N 
ATOM      5 H    HIS D  12      20.364  10.048  69.974  1.00 49.28 LIG 0.16  HD
BRANCH 4 6
ATOM      6  CA  HIS D  12      21.259  11.748  69.493  1.00 50.49 LIG 0.18  C 
BRANCH 6 7
ATOM      7  C   HIS D  12      22.722  11.515  69.863  1.00 51.38 LIG 0.24  C 
ATOM      8  N   ILE D  13      23.278  10.470  69.273  1.00 53.16 LIG-0.34  N 
ATOM      9 H    ILE D  13      22.826   9.958  68.751  1.00 53.16 LIG 0.16  HD
ATOM     10 O    HIS D  12      23.307  12.257  70.639  1.00 51.57 LIG-0.27  OA
BRANCH 8 11
ATOM     11  CA  ILE D  13      24.678  10.029  69.400  1.00 55.12 LIG 0.19  C 
BRANCH 11 12
ATOM     12  CB  ILE D  13      25.705  10.962  68.663  1.00 55.01 LIG 0.01  C 
ATOM     13  CG2 ILE D  13      25.174  11.486  67.315  1.00 56.15 LIG 0.01  C 
BRANCH 12 14
ATOM     14  CG1 ILE D  13      26.109  12.124  69.576  1.00 55.50 LIG 0.00  C 
ATOM     15  CD1 ILE D  13      25.616  13.516  69.095  1.00 55.45 LIG 0.01  C 
ENDBRANCH 12 14
ENDBRANCH 11 12
BRANCH 11 16
ATOM     16  C   ILE D  13      25.183   9.559  70.767  1.00 55.63 LIG 0.20  C 
ATOM     17 O    ILE D  13      26.389   9.437  70.995  1.00 56.94 LIG-0.65  OA
ATOM     18 OXT  ILE D  13      24.339   9.281  71.630  1.00 55.86 LIG-0.65  OA
ENDBRANCH 11 16
ENDBRANCH 8 11
ENDBRANCH 6 7
BRANCH 6 19
ATOM     19  CB  HIS D  12      20.569  12.584  70.573  1.00 50.55 LIG 0.10  C 
BRANCH 19 20
ATOM     20  CG  HIS D  12      20.261  11.821  71.822  1.00 49.61 LIG 0.06  A 
ATOM     21  CD2 HIS D  12      21.021  11.537  72.906  1.00 48.49 LIG 0.14  A 
ATOM     22 NE2  HIS D  12      20.240  10.807  73.767  1.00 48.62 LIG-0.25  NA
ATOM     23  CE1 HIS D  12      19.036  10.668  73.243  1.00 49.12 LIG 0.23  A 
ATOM     24 ND1  HIS D  12      19.023  11.267  72.066  1.00 49.92 LIG-0.24  NA
ENDBRANCH 19 20
ENDBRANCH 6 19
ENDBRANCH 4 6
ENDBRANCH 1 2
BRANCH 1 25
ATOM     25  CB  LEU D  11      20.040   8.108  66.607  1.00 47.69 LIG 0.04  C 
BRANCH 25 26
ATOM     26  CG  LEU D  11      19.337   6.847  66.089  1.00 48.05 LIG-0.02  C 
ATOM     27  CD1 LEU D  11      19.723   6.591  64.640  1.00 46.53 LIG 0.01  C 
ATOM     28  CD2 LEU D  11      19.612   5.633  66.944  1.00 50.43 LIG 0.01  C 
ENDBRANCH 25 26
ENDBRANCH 1 25
BRANCH 1 29
ATOM     29  N   LEU D  11      18.106   8.829  67.897  1.00 47.51 LIG-0.35  N 
ATOM     30  C   LEU D  10      17.330   7.941  68.519  1.00 47.80 LIG 0.24  C 
ATOM     31 O    LEU D  10      17.766   7.016  69.219  1.00 47.07 LIG-0.27  OA
ATOM     32 H    LEU D  11      17.797   9.499  67.456  1.00 47.51 LIG 0.16  HD
BRANCH 30 33
ATOM     33  CA  LEU D  10      15.831   8.120  68.312  1.00 47.63 LIG 0.18  C 
BRANCH 33 34
ATOM     34  CB  LEU D  10      15.356   9.464  68.856  1.00 47.29 LIG 0.04  C 
BRANCH 34 35
ATOM     35  CG  LEU D  10      16.197   9.993  70.023  1.00 46.92 LIG-0.02  C 
ATOM     36  CD1 LEU D  10      16.898  11.305  69.674  1.00 46.83 LIG 0.01  C 
ATOM     37  CD2 LEU D  10      15.364  10.188  71.246  1.00 45.50 LIG 0.01  C 
ENDBRANCH 34 35
ENDBRANCH 33 34
BRANCH 33 38
ATOM     38  N   LEU D  10      15.112   7.008  68.910  1.00 47.82 LIG-0.35  N 
ATOM     39 H    LEU D  10      15.540   6.590  69.528  1.00 47.82 LIG 0.16  HD
ATOM     40  C   ASP D   9      13.888   6.698  68.502  1.00 48.63 LIG 0.26  C 
ATOM     41 O    ASP D   9      13.302   7.302  67.606  1.00 48.10 LIG-0.27  OA
BRANCH 40 42
ATOM     42  CA  ASP D   9      13.235   5.533  69.197  1.00 49.27 LIG 0.41  C 
ATOM     43  N   ASP D   9      13.247   5.815  70.656  1.00 49.86 LIG 0.61  N 
BRANCH 42 44
ATOM     44  CB  ASP D   9      11.807   5.394  68.689  1.00 50.02 LIG 0.16  C 
BRANCH 44 45
ATOM     45  CG  ASP D   9      11.285   3.992  68.804  1.00 50.84 LIG 0.17  C 
ATOM     46 OD1  ASP D   9      11.756   3.123  68.052  1.00 53.44 LIG-0.65  OA
ATOM     47 OD2  ASP D   9      10.418   3.654  69.641  1.00 53.75 LIG-0.65  OA
ENDBRANCH 44 45
ENDBRANCH 42 44
ENDBRANCH 40 42
ENDBRANCH 33 38
ENDBRANCH 30 33
ENDBRANCH 1 29
TORSDOF 19
ENDMDL
MODEL 55
USER: ADFR SOLUTION from run 103
USER: SCORE 15.339350 LL:  -4.583 LR: -11.956 RR:   0.000 FEB:  -6.288
USER: RMSD 5.029383
USER: SEED 102
USER: STATUS no improvement in best in 30 clusters for 5 generations
USER: GENES 21
USER: genes 0 Translation |==|  0.55065 0.43227 0.59766
USER: genes 1 Rotation |==|  0.38408 0.25150 0.23126 0.82030
USER: genes 2 Torsion [N]-CA--C-[N] |==|  0.39621
USER: genes 3 Torsion [C]-N--CA-[C] |==|  0.75254
USER: genes 4 Torsion [N]-CA--C-[N] |==|  0.16402
USER: genes 5 Torsion [C]-N--CA-[CB] |==|  0.38353
USER: genes 6 Torsion [N]-CA--CB-[CG1] |==|  0.74265
USER: genes 7 Torsion [CA]-CB--CG1-[CD1] |==|  0.34225
USER: genes 8 Torsion [N]-CA--C-[OXT] |==|  0.82644
USER: genes 9 Torsion [N]-CA--CB-[CG] |==|  0.67271
USER: genes 10 Torsion [CA]-CB--CG-[CD2] |==|  0.24801
USER: genes 11 Torsion [C]-CA--CB-[CG] |==|  0.45829
USER: genes 12 Torsion [CA]-CB--CG-[CD1] |==|  0.91529
USER: genes 13 Torsion [C]-CA--N-[C] |==|  0.67699
USER: genes 14 Torsion [N]-C--CA-[N] |==|  0.58332
USER: genes 15 Torsion [C]-CA--CB-[CG] |==|  0.27662
USER: genes 16 Torsion [CA]-CB--CG-[CD2] |==|  0.98768
USER: genes 17 Torsion [C]-CA--N-[C] |==|  0.59429
USER: genes 18 Torsion [N]-C--CA-[N] |==|  0.47475
USER: genes 19 Torsion [C]-CA--CB-[CG] |==|  0.68935
USER: genes 20 Torsion [CA]-CB--CG-[OD1] |==|  0.80176
ROOT
ATOM      1  CA  LEU D  11      19.770   5.759  65.088  1.00 47.89 LIG 0.18  C 
ENDROOT
BRANCH 1 2
ATOM      2  C   LEU D  11      19.956   5.958  63.590  1.00 48.14 LIG 0.24  C 
ATOM      3 O    LEU D  11      19.148   6.604  62.935  1.00 47.13 LIG-0.27  OA
ATOM      4  N   HIS D  12      21.010   5.361  63.045  1.00 49.28 LIG-0.35  N 
ATOM      5 H    HIS D  12      21.595   4.911  63.486  1.00 49.28 LIG 0.16  HD
BRANCH 4 6
ATOM      6  CA  HIS D  12      21.248   5.437  61.608  1.00 50.49 LIG 0.18  C 
BRANCH 6 7
ATOM      7  C   HIS D  12      20.557   4.301  60.857  1.00 51.38 LIG 0.24  C 
ATOM      8  N   ILE D  13      19.244   4.258  61.013  1.00 53.16 LIG-0.34  N 
ATOM      9 H    ILE D  13      18.836   4.815  61.525  1.00 53.16 LIG 0.16  HD
ATOM     10 O    HIS D  12      21.193   3.516  60.169  1.00 51.57 LIG-0.27  OA
BRANCH 8 11
ATOM     11  CA  ILE D  13      18.314   3.309  60.379  1.00 55.12 LIG 0.19  C 
BRANCH 11 12
ATOM     12  CB  ILE D  13      17.201   2.770  61.348  1.00 55.01 LIG 0.01  C 
ATOM     13  CG2 ILE D  13      15.841   2.585  60.651  1.00 56.15 LIG 0.01  C 
BRANCH 12 14
ATOM     14  CG1 ILE D  13      17.660   1.461  61.999  1.00 55.50 LIG 0.00  C 
ATOM     15  CD1 ILE D  13      17.663   1.485  63.551  1.00 55.45 LIG 0.01  C 
ENDBRANCH 12 14
ENDBRANCH 11 12
BRANCH 11 16
ATOM     16  C   ILE D  13      17.775   3.626  58.981  1.00 55.63 LIG 0.20  C 
ATOM     17 O    ILE D  13      18.037   2.904  58.016  1.00 56.94 LIG-0.65  OA
ATOM     18 OXT  ILE D  13      17.088   4.648  58.845  1.00 55.86 LIG-0.65  OA
ENDBRANCH 11 16
ENDBRANCH 8 11
ENDBRANCH 6 7
BRANCH 6 19
ATOM     19  CB  HIS D  12      22.746   5.442  61.293  1.00 50.55 LIG 0.10  C 
BRANCH 19 20
ATOM     20  CG  HIS D  12      23.215   6.688  60.611  1.00 49.61 LIG 0.06  A 
ATOM     21  CD2 HIS D  12      23.672   7.861  61.108  1.00 48.49 LIG 0.14  A 
ATOM     22 NE2  HIS D  12      23.972   8.665  60.037  1.00 48.62 LIG-0.25  NA
ATOM     23  CE1 HIS D  12      23.732   8.002  58.921  1.00 49.12 LIG 0.23  A 
ATOM     24 ND1  HIS D  12      23.269   6.807  59.239  1.00 49.92 LIG-0.24  NA
ENDBRANCH 19 20
ENDBRANCH 6 19
ENDBRANCH 4 6
ENDBRANCH 1 2
BRANCH 1 25
ATOM     25  CB  LEU D  11      18.791   4.607  65.287  1.00 47.69 LIG 0.04  C 
BRANCH 25 26
ATOM     26  CG  LEU D  11      18.675   3.953  66.669  1.00 48.05 LIG-0.02  C 
ATOM     27  CD1 LEU D  11      20.009   4.029  67.398  1.00 46.53 LIG 0.01  C 
ATOM     28  CD2 LEU D  11      17.568   4.549  67.507  1.00 50.43 LIG 0.01  C 
ENDBRANCH 25 26
ENDBRANCH 1 25
BRANCH 1 29
ATOM     29  N   LEU D  11      19.272   6.943  65.772  1.00 47.51 LIG-0.35  N 
ATOM     30  C   LEU D  10      19.975   7.593  66.701  1.00 47.80 LIG 0.24  C 
ATOM     31 O    LEU D  10      21.138   7.301  67.013  1.00 47.07 LIG-0.27  OA
ATOM     32 H    LEU D  11      18.484   7.184  65.523  1.00 47.51 LIG 0.16  HD
BRANCH 30 33
ATOM     33  CA  LEU D  10      19.251   8.744  67.387  1.00 47.63 LIG 0.18  C 
BRANCH 33 34
ATOM     34  CB  LEU D  10      18.156   9.318  66.493  1.00 47.29 LIG 0.04  C 
BRANCH 34 35
ATOM     35  CG  LEU D  10      16.749   8.814  66.834  1.00 46.92 LIG-0.02  C 
ATOM     36  CD1 LEU D  10      16.034   8.242  65.612  1.00 46.83 LIG 0.01  C 
ATOM     37  CD2 LEU D  10      16.788   7.783  67.912  1.00 45.50 LIG 0.01  C 
ENDBRANCH 34 35
ENDBRANCH 33 34
BRANCH 33 38
ATOM     38  N   LEU D  10      20.208   9.760  67.792  1.00 47.82 LIG-0.35  N 
ATOM     39 H    LEU D  10      20.880   9.856  67.263  1.00 47.82 LIG 0.16  HD
ATOM     40  C   ASP D   9      20.017  10.462  68.902  1.00 48.63 LIG 0.26  C 
ATOM     41 O    ASP D   9      19.056  10.296  69.649  1.00 48.10 LIG-0.27  OA
BRANCH 40 42
ATOM     42  CA  ASP D   9      21.069  11.493  69.219  1.00 49.27 LIG 0.41  C 
ATOM     43  N   ASP D   9      20.569  12.310  70.355  1.00 49.86 LIG 0.61  N 
BRANCH 42 44
ATOM     44  CB  ASP D   9      22.358  10.779  69.599  1.00 50.02 LIG 0.16  C 
BRANCH 44 45
ATOM     45  CG  ASP D   9      22.714  10.956  71.046  1.00 50.84 LIG 0.17  C 
ATOM     46 OD1  ASP D   9      23.108  12.072  71.425  1.00 53.44 LIG-0.65  OA
ATOM     47 OD2  ASP D   9      22.605  10.039  71.891  1.00 53.75 LIG-0.65  OA
ENDBRANCH 44 45
ENDBRANCH 42 44
ENDBRANCH 40 42
ENDBRANCH 33 38
ENDBRANCH 30 33
ENDBRANCH 1 29
TORSDOF 19
ENDMDL
MODEL 56
USER: ADFR SOLUTION from run 83
USER: SCORE 15.698317 LL:  -4.586 LR: -11.944 RR:   0.000 FEB:  -6.276
USER: RMSD 6.780475
USER: SEED 82
USER: STATUS no improvement in best in 8 clusters for 5 generations
USER: GENES 21
USER: genes 0 Translation |==|  0.46390 0.25479 0.41180
USER: genes 1 Rotation |==|  0.21948 0.31952 0.18581 0.70005
USER: genes 2 Torsion [N]-CA--C-[N] |==|  0.55556
USER: genes 3 Torsion [C]-N--CA-[C] |==|  0.79709
USER: genes 4 Torsion [N]-CA--C-[N] |==|  0.91066
USER: genes 5 Torsion [C]-N--CA-[CB] |==|  0.56543
USER: genes 6 Torsion [N]-CA--CB-[CG1] |==|  0.03733
USER: genes 7 Torsion [CA]-CB--CG1-[CD1] |==|  0.66594
USER: genes 8 Torsion [N]-CA--C-[OXT] |==|  0.25250
USER: genes 9 Torsion [N]-CA--CB-[CG] |==|  0.48376
USER: genes 10 Torsion [CA]-CB--CG-[CD2] |==|  0.10236
USER: genes 11 Torsion [C]-CA--CB-[CG] |==|  0.30998
USER: genes 12 Torsion [CA]-CB--CG-[CD1] |==|  0.79385
USER: genes 13 Torsion [C]-CA--N-[C] |==|  0.52243
USER: genes 14 Torsion [N]-C--CA-[N] |==|  0.42313
USER: genes 15 Torsion [C]-CA--CB-[CG] |==|  0.18698
USER: genes 16 Torsion [CA]-CB--CG-[CD2] |==|  0.72797
USER: genes 17 Torsion [C]-CA--N-[C] |==|  0.78593
USER: genes 18 Torsion [N]-C--CA-[N] |==|  0.54554
USER: genes 19 Torsion [C]-CA--CB-[CG] |==|  0.78328
USER: genes 20 Torsion [CA]-CB--CG-[OD1] |==|  0.82922
ROOT
ATOM      1  CA  LEU D  11      18.078   2.431  60.906  1.00 47.89 LIG 0.18  C 
ENDROOT
BRANCH 1 2
ATOM      2  C   LEU D  11      17.830   2.168  59.427  1.00 48.14 LIG 0.24  C 
ATOM      3 O    LEU D  11      18.445   2.782  58.566  1.00 47.13 LIG-0.27  OA
ATOM      4  N   HIS D  12      16.891   1.273  59.140  1.00 49.28 LIG-0.35  N 
ATOM      5 H    HIS D  12      16.453   0.823  59.727  1.00 49.28 LIG 0.16  HD
BRANCH 4 6
ATOM      6  CA  HIS D  12      16.531   0.989  57.755  1.00 50.49 LIG 0.18  C 
BRANCH 6 7
ATOM      7  C   HIS D  12      15.729   2.129  57.132  1.00 51.38 LIG 0.24  C 
ATOM      8  N   ILE D  13      14.953   2.783  57.980  1.00 53.16 LIG-0.34  N 
ATOM      9 H    ILE D  13      14.896   2.548  58.806  1.00 53.16 LIG 0.16  HD
ATOM     10 O    HIS D  12      15.825   2.398  55.943  1.00 51.57 LIG-0.27  OA
BRANCH 8 11
ATOM     11  CA  ILE D  13      14.106   3.949  57.680  1.00 55.12 LIG 0.19  C 
BRANCH 11 12
ATOM     12  CB  ILE D  13      13.779   4.835  58.936  1.00 55.01 LIG 0.01  C 
ATOM     13  CG2 ILE D  13      12.298   4.755  59.352  1.00 56.15 LIG 0.01  C 
BRANCH 12 14
ATOM     14  CG1 ILE D  13      14.693   4.451  60.103  1.00 55.50 LIG 0.00  C 
ATOM     15  CD1 ILE D  13      13.941   3.956  61.368  1.00 55.45 LIG 0.01  C 
ENDBRANCH 12 14
ENDBRANCH 11 12
BRANCH 11 16
ATOM     16  C   ILE D  13      14.415   4.784  56.433  1.00 55.63 LIG 0.20  C 
ATOM     17 O    ILE D  13      15.179   5.751  56.485  1.00 56.94 LIG-0.65  OA
ATOM     18 OXT  ILE D  13      13.851   4.472  55.375  1.00 55.86 LIG-0.65  OA
ENDBRANCH 11 16
ENDBRANCH 8 11
ENDBRANCH 6 7
BRANCH 6 19
ATOM     19  CB  HIS D  12      15.755  -0.324  57.641  1.00 50.55 LIG 0.10  C 
BRANCH 19 20
ATOM     20  CG  HIS D  12      15.238  -0.603  56.265  1.00 49.61 LIG 0.06  A 
ATOM     21  CD2 HIS D  12      15.774  -0.366  55.045  1.00 48.49 LIG 0.14  A 
ATOM     22 NE2  HIS D  12      14.877  -0.826  54.114  1.00 48.62 LIG-0.25  NA
ATOM     23  CE1 HIS D  12      13.838  -1.349  54.738  1.00 49.12 LIG 0.23  A 
ATOM     24 ND1  HIS D  12      14.028  -1.223  56.038  1.00 49.92 LIG-0.24  NA
ENDBRANCH 19 20
ENDBRANCH 6 19
ENDBRANCH 4 6
ENDBRANCH 1 2
BRANCH 1 25
ATOM     25  CB  LEU D  11      16.728   2.415  61.615  1.00 47.69 LIG 0.04  C 
BRANCH 25 26
ATOM     26  CG  LEU D  11      16.408   1.275  62.590  1.00 48.05 LIG-0.02  C 
ATOM     27  CD1 LEU D  11      16.115  -0.005  61.821  1.00 46.53 LIG 0.01  C 
ATOM     28  CD2 LEU D  11      17.501   1.053  63.609  1.00 50.43 LIG 0.01  C 
ENDBRANCH 25 26
ENDBRANCH 1 25
BRANCH 1 29
ATOM     29  N   LEU D  11      18.747   3.698  61.165  1.00 47.51 LIG-0.35  N 
ATOM     30  C   LEU D  10      19.195   4.047  62.371  1.00 47.80 LIG 0.24  C 
ATOM     31 O    LEU D  10      19.157   3.304  63.362  1.00 47.07 LIG-0.27  OA
ATOM     32 H    LEU D  11      18.824   4.198  60.469  1.00 47.51 LIG 0.16  HD
BRANCH 30 33
ATOM     33  CA  LEU D  10      19.769   5.454  62.476  1.00 47.63 LIG 0.18  C 
BRANCH 33 34
ATOM     34  CB  LEU D  10      21.224   5.492  62.019  1.00 47.29 LIG 0.04  C 
BRANCH 34 35
ATOM     35  CG  LEU D  10      21.411   5.225  60.521  1.00 46.92 LIG-0.02  C 
ATOM     36  CD1 LEU D  10      22.466   6.141  59.904  1.00 46.83 LIG 0.01  C 
ATOM     37  CD2 LEU D  10      21.782   3.802  60.266  1.00 45.50 LIG 0.01  C 
ENDBRANCH 34 35
ENDBRANCH 33 34
BRANCH 33 38
ATOM     38  N   LEU D  10      19.614   5.952  63.833  1.00 47.82 LIG-0.35  N 
ATOM     39 H    LEU D  10      20.330   5.937  64.309  1.00 47.82 LIG 0.16  HD
ATOM     40  C   ASP D   9      18.436   6.390  64.260  1.00 48.63 LIG 0.26  C 
ATOM     41 O    ASP D   9      17.423   6.389  63.565  1.00 48.10 LIG-0.27  OA
BRANCH 40 42
ATOM     42  CA  ASP D   9      18.394   6.890  65.680  1.00 49.27 LIG 0.41  C 
ATOM     43  N   ASP D   9      16.968   6.949  66.094  1.00 49.86 LIG 0.61  N 
BRANCH 42 44
ATOM     44  CB  ASP D   9      19.170   5.924  66.565  1.00 50.02 LIG 0.16  C 
BRANCH 44 45
ATOM     45  CG  ASP D   9      18.391   4.683  66.889  1.00 50.84 LIG 0.17  C 
ATOM     46 OD1  ASP D   9      17.325   4.802  67.516  1.00 53.44 LIG-0.65  OA
ATOM     47 OD2  ASP D   9      18.754   3.539  66.533  1.00 53.75 LIG-0.65  OA
ENDBRANCH 44 45
ENDBRANCH 42 44
ENDBRANCH 40 42
ENDBRANCH 33 38
ENDBRANCH 30 33
ENDBRANCH 1 29
TORSDOF 19
ENDMDL
MODEL 57
USER: ADFR SOLUTION from run 113
USER: SCORE 16.564031 LL:  -5.634 LR: -11.934 RR:   0.000 FEB:  -6.266
USER: RMSD 10.670014
USER: SEED 112
USER: STATUS no improvement in best in 7 clusters for 5 generations
USER: GENES 21
USER: genes 0 Translation |==|  0.49809 0.47477 0.73257
USER: genes 1 Rotation |==|  0.63553 0.21996 0.21271 0.76584
USER: genes 2 Torsion [N]-CA--C-[N] |==|  0.09294
USER: genes 3 Torsion [C]-N--CA-[C] |==|  0.60556
USER: genes 4 Torsion [N]-CA--C-[N] |==|  0.00617
USER: genes 5 Torsion [C]-N--CA-[CB] |==|  0.33677
USER: genes 6 Torsion [N]-CA--CB-[CG1] |==|  0.19673
USER: genes 7 Torsion [CA]-CB--CG1-[CD1] |==|  0.79049
USER: genes 8 Torsion [N]-CA--C-[OXT] |==|  0.11778
USER: genes 9 Torsion [N]-CA--CB-[CG] |==|  0.20552
USER: genes 10 Torsion [CA]-CB--CG-[CD2] |==|  0.28088
USER: genes 11 Torsion [C]-CA--CB-[CG] |==|  0.44870
USER: genes 12 Torsion [CA]-CB--CG-[CD1] |==|  0.16644
USER: genes 13 Torsion [C]-CA--N-[C] |==|  0.18333
USER: genes 14 Torsion [N]-C--CA-[N] |==|  0.84896
USER: genes 15 Torsion [C]-CA--CB-[CG] |==|  0.52104
USER: genes 16 Torsion [CA]-CB--CG-[CD2] |==|  0.79820
USER: genes 17 Torsion [C]-CA--N-[C] |==|  0.71729
USER: genes 18 Torsion [N]-C--CA-[N] |==|  0.32288
USER: genes 19 Torsion [C]-CA--CB-[CG] |==|  0.72105
USER: genes 20 Torsion [CA]-CB--CG-[OD1] |==|  0.35854
ROOT
ATOM      1  CA  LEU D  11      18.745   6.556  68.124  1.00 47.89 LIG 0.18  C 
ENDROOT
BRANCH 1 2
ATOM      2  C   LEU D  11      19.576   7.663  67.490  1.00 48.14 LIG 0.24  C 
ATOM      3 O    LEU D  11      20.390   7.414  66.610  1.00 47.13 LIG-0.27  OA
ATOM      4  N   HIS D  12      19.392   8.886  67.974  1.00 49.28 LIG-0.35  N 
ATOM      5 H    HIS D  12      18.820   9.086  68.584  1.00 49.28 LIG 0.16  HD
BRANCH 4 6
ATOM      6  CA  HIS D  12      20.181  10.010  67.479  1.00 50.49 LIG 0.18  C 
BRANCH 6 7
ATOM      7  C   HIS D  12      20.551  10.980  68.599  1.00 51.38 LIG 0.24  C 
ATOM      8  N   ILE D  13      20.140  10.613  69.802  1.00 53.16 LIG-0.34  N 
ATOM      9 H    ILE D  13      19.676   9.898  69.917  1.00 53.16 LIG 0.16  HD
ATOM     10 O    HIS D  12      21.184  12.000  68.372  1.00 51.57 LIG-0.27  OA
BRANCH 8 11
ATOM     11  CA  ILE D  13      20.388  11.319  71.069  1.00 55.12 LIG 0.19  C 
BRANCH 11 12
ATOM     12  CB  ILE D  13      19.077  11.744  71.825  1.00 55.01 LIG 0.01  C 
ATOM     13  CG2 ILE D  13      18.116  12.559  70.940  1.00 56.15 LIG 0.01  C 
BRANCH 12 14
ATOM     14  CG1 ILE D  13      18.375  10.508  72.395  1.00 55.50 LIG 0.00  C 
ATOM     15  CD1 ILE D  13      17.626   9.654  71.337  1.00 55.45 LIG 0.01  C 
ENDBRANCH 12 14
ENDBRANCH 11 12
BRANCH 11 16
ATOM     16  C   ILE D  13      21.467  10.782  72.015  1.00 55.63 LIG 0.20  C 
ATOM     17 O    ILE D  13      21.288  10.751  73.235  1.00 56.94 LIG-0.65  OA
ATOM     18 OXT  ILE D  13      22.536  10.404  71.516  1.00 55.86 LIG-0.65  OA
ENDBRANCH 11 16
ENDBRANCH 8 11
ENDBRANCH 6 7
BRANCH 6 19
ATOM     19  CB  HIS D  12      19.447  10.752  66.360  1.00 50.55 LIG 0.10  C 
BRANCH 19 20
ATOM     20  CG  HIS D  12      18.306  11.592  66.840  1.00 49.61 LIG 0.06  A 
ATOM     21  CD2 HIS D  12      18.205  12.925  67.053  1.00 48.49 LIG 0.14  A 
ATOM     22 NE2  HIS D  12      16.928  13.169  67.491  1.00 48.62 LIG-0.25  NA
ATOM     23  CE1 HIS D  12      16.259  12.031  67.523  1.00 49.12 LIG 0.23  A 
ATOM     24 ND1  HIS D  12      17.070  11.062  67.140  1.00 49.92 LIG-0.24  NA
ENDBRANCH 19 20
ENDBRANCH 6 19
ENDBRANCH 4 6
ENDBRANCH 1 2
BRANCH 1 25
ATOM     25  CB  LEU D  11      18.601   5.437  67.099  1.00 47.69 LIG 0.04  C 
BRANCH 25 26
ATOM     26  CG  LEU D  11      18.195   4.035  67.572  1.00 48.05 LIG-0.02  C 
ATOM     27  CD1 LEU D  11      16.836   4.087  68.255  1.00 46.53 LIG 0.01  C 
ATOM     28  CD2 LEU D  11      18.199   3.018  66.456  1.00 50.43 LIG 0.01  C 
ENDBRANCH 25 26
ENDBRANCH 1 25
BRANCH 1 29
ATOM     29  N   LEU D  11      17.425   6.996  68.551  1.00 47.51 LIG-0.35  N 
ATOM     30  C   LEU D  10      16.482   7.392  67.695  1.00 47.80 LIG 0.24  C 
ATOM     31 O    LEU D  10      16.609   7.352  66.463  1.00 47.07 LIG-0.27  OA
ATOM     32 H    LEU D  11      17.310   6.976  69.403  1.00 47.51 LIG 0.16  HD
BRANCH 30 33
ATOM     33  CA  LEU D  10      15.201   7.922  68.328  1.00 47.63 LIG 0.18  C 
BRANCH 33 34
ATOM     34  CB  LEU D  10      15.436   9.269  69.003  1.00 47.29 LIG 0.04  C 
BRANCH 34 35
ATOM     35  CG  LEU D  10      14.239   9.774  69.817  1.00 46.92 LIG-0.02  C 
ATOM     36  CD1 LEU D  10      14.628  10.906  70.765  1.00 46.83 LIG 0.01  C 
ATOM     37  CD2 LEU D  10      13.133  10.233  68.926  1.00 45.50 LIG 0.01  C 
ENDBRANCH 34 35
ENDBRANCH 33 34
BRANCH 33 38
ATOM     38  N   LEU D  10      14.662   6.939  69.252  1.00 47.82 LIG-0.35  N 
ATOM     39 H    LEU D  10      15.056   6.905  70.016  1.00 47.82 LIG 0.16  HD
ATOM     40  C   ASP D   9      13.637   6.173  68.900  1.00 48.63 LIG 0.26  C 
ATOM     41 O    ASP D   9      13.099   6.230  67.796  1.00 48.10 LIG-0.27  OA
BRANCH 40 42
ATOM     42  CA  ASP D   9      13.156   5.195  69.939  1.00 49.27 LIG 0.41  C 
ATOM     43  N   ASP D   9      11.766   5.572  70.303  1.00 49.86 LIG 0.61  N 
BRANCH 42 44
ATOM     44  CB  ASP D   9      13.195   3.792  69.350  1.00 50.02 LIG 0.16  C 
BRANCH 44 45
ATOM     45  CG  ASP D   9      11.846   3.318  68.894  1.00 50.84 LIG 0.17  C 
ATOM     46 OD1  ASP D   9      11.738   2.861  67.744  1.00 53.44 LIG-0.65  OA
ATOM     47 OD2  ASP D   9      10.833   3.337  69.630  1.00 53.75 LIG-0.65  OA
ENDBRANCH 44 45
ENDBRANCH 42 44
ENDBRANCH 40 42
ENDBRANCH 33 38
ENDBRANCH 30 33
ENDBRANCH 1 29
TORSDOF 19
ENDMDL
MODEL 58
USER: ADFR SOLUTION from run 77
USER: SCORE 16.455872 LL:  -5.291 LR: -11.933 RR:   0.000 FEB:  -6.265
USER: RMSD 6.349969
USER: SEED 76
USER: STATUS no improvement in best in 28 clusters for 5 generations
USER: GENES 21
USER: genes 0 Translation |==|  0.58841 0.38096 0.38337
USER: genes 1 Rotation |==|  0.33314 0.42541 0.65319 0.93946
USER: genes 2 Torsion [N]-CA--C-[N] |==|  0.12072
USER: genes 3 Torsion [C]-N--CA-[C] |==|  0.70573
USER: genes 4 Torsion [N]-CA--C-[N] |==|  0.55505
USER: genes 5 Torsion [C]-N--CA-[CB] |==|  0.36527
USER: genes 6 Torsion [N]-CA--CB-[CG1] |==|  0.95718
USER: genes 7 Torsion [CA]-CB--CG1-[CD1] |==|  0.33654
USER: genes 8 Torsion [N]-CA--C-[OXT] |==|  0.34519
USER: genes 9 Torsion [N]-CA--CB-[CG] |==|  0.76744
USER: genes 10 Torsion [CA]-CB--CG-[CD2] |==|  0.62023
USER: genes 11 Torsion [C]-CA--CB-[CG] |==|  0.45573
USER: genes 12 Torsion [CA]-CB--CG-[CD1] |==|  0.83869
USER: genes 13 Torsion [C]-CA--N-[C] |==|  0.17222
USER: genes 14 Torsion [N]-C--CA-[N] |==|  0.12500
USER: genes 15 Torsion [C]-CA--CB-[CG] |==|  0.31837
USER: genes 16 Torsion [CA]-CB--CG-[CD2] |==|  0.01427
USER: genes 17 Torsion [C]-CA--N-[C] |==|  0.15356
USER: genes 18 Torsion [N]-C--CA-[N] |==|  0.96137
USER: genes 19 Torsion [C]-CA--CB-[CG] |==|  0.85063
USER: genes 20 Torsion [CA]-CB--CG-[OD1] |==|  0.89346
ROOT
ATOM      1  CA  LEU D  11      20.506   4.797  60.267  1.00 47.89 LIG 0.18  C 
ENDROOT
BRANCH 1 2
ATOM      2  C   LEU D  11      19.695   3.562  59.898  1.00 48.14 LIG 0.24  C 
ATOM      3 O    LEU D  11      20.240   2.479  59.727  1.00 47.13 LIG-0.27  OA
ATOM      4  N   HIS D  12      18.390   3.743  59.736  1.00 49.28 LIG-0.35  N 
ATOM      5 H    HIS D  12      17.984   4.491  59.860  1.00 49.28 LIG 0.16  HD
BRANCH 4 6
ATOM      6  CA  HIS D  12      17.529   2.639  59.324  1.00 50.49 LIG 0.18  C 
BRANCH 6 7
ATOM      7  C   HIS D  12      17.093   2.774  57.867  1.00 51.38 LIG 0.24  C 
ATOM      8  N   ILE D  13      16.018   2.071  57.548  1.00 53.16 LIG-0.34  N 
ATOM      9 H    ILE D  13      15.630   1.562  58.122  1.00 53.16 LIG 0.16  HD
ATOM     10 O    HIS D  12      17.703   3.488  57.085  1.00 51.57 LIG-0.27  OA
BRANCH 8 11
ATOM     11  CA  ILE D  13      15.344   2.041  56.239  1.00 55.12 LIG 0.19  C 
BRANCH 11 12
ATOM     12  CB  ILE D  13      15.040   0.591  55.716  1.00 55.01 LIG 0.01  C 
ATOM     13  CG2 ILE D  13      15.292   0.437  54.205  1.00 56.15 LIG 0.01  C 
BRANCH 12 14
ATOM     14  CG1 ILE D  13      15.856  -0.435  56.510  1.00 55.50 LIG 0.00  C 
ATOM     15  CD1 ILE D  13      15.000  -1.503  57.242  1.00 55.45 LIG 0.01  C 
ENDBRANCH 12 14
ENDBRANCH 11 12
BRANCH 11 16
ATOM     16  C   ILE D  13      14.190   3.015  55.981  1.00 55.63 LIG 0.20  C 
ATOM     17 O    ILE D  13      13.196   3.036  56.711  1.00 56.94 LIG-0.65  OA
ATOM     18 OXT  ILE D  13      14.276   3.763  54.997  1.00 55.86 LIG-0.65  OA
ENDBRANCH 11 16
ENDBRANCH 8 11
ENDBRANCH 6 7
BRANCH 6 19
ATOM     19  CB  HIS D  12      16.304   2.522  60.232  1.00 50.55 LIG 0.10  C 
BRANCH 19 20
ATOM     20  CG  HIS D  12      16.555   1.751  61.489  1.00 49.61 LIG 0.06  A 
ATOM     21  CD2 HIS D  12      15.819   0.808  62.122  1.00 48.49 LIG 0.14  A 
ATOM     22 NE2  HIS D  12      16.521   0.426  63.237  1.00 48.62 LIG-0.25  NA
ATOM     23  CE1 HIS D  12      17.660   1.092  63.276  1.00 49.12 LIG 0.23  A 
ATOM     24 ND1  HIS D  12      17.704   1.903  62.235  1.00 49.92 LIG-0.24  NA
ENDBRANCH 19 20
ENDBRANCH 6 19
ENDBRANCH 4 6
ENDBRANCH 1 2
BRANCH 1 25
ATOM     25  CB  LEU D  11      21.866   4.328  60.770  1.00 47.69 LIG 0.04  C 
BRANCH 25 26
ATOM     26  CG  LEU D  11      23.018   5.336  60.866  1.00 48.05 LIG-0.02  C 
ATOM     27  CD1 LEU D  11      23.284   5.958  59.503  1.00 46.53 LIG 0.01  C 
ATOM     28  CD2 LEU D  11      22.776   6.402  61.907  1.00 50.43 LIG 0.01  C 
ENDBRANCH 25 26
ENDBRANCH 1 25
BRANCH 1 29
ATOM     29  N   LEU D  11      19.871   5.624  61.283  1.00 47.51 LIG-0.35  N 
ATOM     30  C   LEU D  10      19.613   5.185  62.516  1.00 47.80 LIG 0.24  C 
ATOM     31 O    LEU D  10      19.954   4.070  62.935  1.00 47.07 LIG-0.27  OA
ATOM     32 H    LEU D  11      19.679   6.418  61.015  1.00 47.51 LIG 0.16  HD
BRANCH 30 33
ATOM     33  CA  LEU D  10      18.846   6.151  63.409  1.00 47.63 LIG 0.18  C 
BRANCH 33 34
ATOM     34  CB  LEU D  10      18.381   5.466  64.691  1.00 47.29 LIG 0.04  C 
BRANCH 34 35
ATOM     35  CG  LEU D  10      19.033   6.019  65.963  1.00 46.92 LIG-0.02  C 
ATOM     36  CD1 LEU D  10      19.861   4.959  66.688  1.00 46.83 LIG 0.01  C 
ATOM     37  CD2 LEU D  10      19.895   7.199  65.661  1.00 45.50 LIG 0.01  C 
ENDBRANCH 34 35
ENDBRANCH 33 34
BRANCH 33 38
ATOM     38  N   LEU D  10      17.738   6.733  62.673  1.00 47.82 LIG-0.35  N 
ATOM     39 H    LEU D  10      17.726   7.593  62.655  1.00 47.82 LIG 0.16  HD
ATOM     40  C   ASP D   9      16.835   5.957  62.087  1.00 48.63 LIG 0.26  C 
ATOM     41 O    ASP D   9      16.865   4.729  62.138  1.00 48.10 LIG-0.27  OA
BRANCH 40 42
ATOM     42  CA  ASP D   9      15.734   6.668  61.345  1.00 49.27 LIG 0.41  C 
ATOM     43  N   ASP D   9      15.768   8.097  61.752  1.00 49.86 LIG 0.61  N 
BRANCH 42 44
ATOM     44  CB  ASP D   9      15.981   6.531  59.849  1.00 50.02 LIG 0.16  C 
BRANCH 44 45
ATOM     45  CG  ASP D   9      17.352   6.987  59.444  1.00 50.84 LIG 0.17  C 
ATOM     46 OD1  ASP D   9      17.831   7.987  60.004  1.00 53.44 LIG-0.65  OA
ATOM     47 OD2  ASP D   9      18.043   6.390  58.588  1.00 53.75 LIG-0.65  OA
ENDBRANCH 44 45
ENDBRANCH 42 44
ENDBRANCH 40 42
ENDBRANCH 33 38
ENDBRANCH 30 33
ENDBRANCH 1 29
TORSDOF 19
ENDMDL
MODEL 59
USER: ADFR SOLUTION from run 138
USER: SCORE 15.848600 LL:  -4.764 LR: -11.920 RR:   0.000 FEB:  -6.252
USER: RMSD 6.079709
USER: SEED 137
USER: STATUS no improvement in best in 13 clusters for 5 generations
USER: GENES 21
USER: genes 0 Translation |==|  0.48077 0.28231 0.43587
USER: genes 1 Rotation |==|  0.23537 0.32422 0.23507 0.78086
USER: genes 2 Torsion [N]-CA--C-[N] |==|  0.55495
USER: genes 3 Torsion [C]-N--CA-[C] |==|  0.81457
USER: genes 4 Torsion [N]-CA--C-[N] |==|  0.36668
USER: genes 5 Torsion [C]-N--CA-[CB] |==|  0.30188
USER: genes 6 Torsion [N]-CA--CB-[CG1] |==|  0.02698
USER: genes 7 Torsion [CA]-CB--CG1-[CD1] |==|  0.67435
USER: genes 8 Torsion [N]-CA--C-[OXT] |==|  0.47956
USER: genes 9 Torsion [N]-CA--CB-[CG] |==|  0.52440
USER: genes 10 Torsion [CA]-CB--CG-[CD2] |==|  0.57553
USER: genes 11 Torsion [C]-CA--CB-[CG] |==|  0.27052
USER: genes 12 Torsion [CA]-CB--CG-[CD1] |==|  0.30478
USER: genes 13 Torsion [C]-CA--N-[C] |==|  0.53455
USER: genes 14 Torsion [N]-C--CA-[N] |==|  0.36411
USER: genes 15 Torsion [C]-CA--CB-[CG] |==|  0.23393
USER: genes 16 Torsion [CA]-CB--CG-[CD2] |==|  0.03092
USER: genes 17 Torsion [C]-CA--N-[C] |==|  0.65062
USER: genes 18 Torsion [N]-C--CA-[N] |==|  0.86347
USER: genes 19 Torsion [C]-CA--CB-[CG] |==|  0.81675
USER: genes 20 Torsion [CA]-CB--CG-[OD1] |==|  0.42468
ROOT
ATOM      1  CA  LEU D  11      18.407   2.947  61.448  1.00 47.89 LIG 0.18  C 
ENDROOT
BRANCH 1 2
ATOM      2  C   LEU D  11      17.931   2.794  60.009  1.00 48.14 LIG 0.24  C 
ATOM      3 O    LEU D  11      18.153   3.664  59.177  1.00 47.13 LIG-0.27  OA
ATOM      4  N   HIS D  12      17.239   1.695  59.734  1.00 49.28 LIG-0.35  N 
ATOM      5 H    HIS D  12      17.080   1.066  60.299  1.00 49.28 LIG 0.16  HD
BRANCH 4 6
ATOM      6  CA  HIS D  12      16.686   1.477  58.401  1.00 50.49 LIG 0.18  C 
BRANCH 6 7
ATOM      7  C   HIS D  12      15.585   2.484  58.073  1.00 51.38 LIG 0.24  C 
ATOM      8  N   ILE D  13      15.703   3.060  56.888  1.00 53.16 LIG-0.34  N 
ATOM      9 H    ILE D  13      16.369   2.890  56.373  1.00 53.16 LIG 0.16  HD
ATOM     10 O    HIS D  12      14.677   2.711  58.860  1.00 51.57 LIG-0.27  OA
BRANCH 8 11
ATOM     11  CA  ILE D  13      14.773   4.029  56.285  1.00 55.12 LIG 0.19  C 
BRANCH 11 12
ATOM     12  CB  ILE D  13      15.339   5.494  56.218  1.00 55.01 LIG 0.01  C 
ATOM     13  CG2 ILE D  13      14.554   6.478  57.106  1.00 56.15 LIG 0.01  C 
BRANCH 12 14
ATOM     14  CG1 ILE D  13      16.827   5.499  56.585  1.00 55.50 LIG 0.00  C 
ATOM     15  CD1 ILE D  13      17.167   6.314  57.863  1.00 55.45 LIG 0.01  C 
ENDBRANCH 12 14
ENDBRANCH 11 12
BRANCH 11 16
ATOM     16  C   ILE D  13      14.013   3.633  55.016  1.00 55.63 LIG 0.20  C 
ATOM     17 O    ILE D  13      14.282   2.594  54.409  1.00 56.94 LIG-0.65  OA
ATOM     18 OXT  ILE D  13      13.135   4.404  54.604  1.00 55.86 LIG-0.65  OA
ENDBRANCH 11 16
ENDBRANCH 8 11
ENDBRANCH 6 7
BRANCH 6 19
ATOM     19  CB  HIS D  12      16.157   0.050  58.246  1.00 50.55 LIG 0.10  C 
BRANCH 19 20
ATOM     20  CG  HIS D  12      15.767  -0.300  56.845  1.00 49.61 LIG 0.06  A 
ATOM     21  CD2 HIS D  12      14.865  -1.188  56.364  1.00 48.49 LIG 0.14  A 
ATOM     22 NE2  HIS D  12      14.905  -1.103  54.995  1.00 48.62 LIG-0.25  NA
ATOM     23  CE1 HIS D  12      15.782  -0.180  54.646  1.00 49.12 LIG 0.23  A 
ATOM     24 ND1  HIS D  12      16.321   0.317  55.744  1.00 49.92 LIG-0.24  NA
ENDBRANCH 19 20
ENDBRANCH 6 19
ENDBRANCH 4 6
ENDBRANCH 1 2
BRANCH 1 25
ATOM     25  CB  LEU D  11      17.297   2.440  62.361  1.00 47.69 LIG 0.04  C 
BRANCH 25 26
ATOM     26  CG  LEU D  11      17.370   1.007  62.905  1.00 48.05 LIG-0.02  C 
ATOM     27  CD1 LEU D  11      17.660   1.029  64.399  1.00 46.53 LIG 0.01  C 
ATOM     28  CD2 LEU D  11      16.125   0.206  62.610  1.00 50.43 LIG 0.01  C 
ENDBRANCH 25 26
ENDBRANCH 1 25
BRANCH 1 29
ATOM     29  N   LEU D  11      18.741   4.318  61.805  1.00 47.51 LIG-0.35  N 
ATOM     30  C   LEU D  10      19.398   4.636  62.921  1.00 47.80 LIG 0.24  C 
ATOM     31 O    LEU D  10      19.851   3.800  63.716  1.00 47.07 LIG-0.27  OA
ATOM     32 H    LEU D  11      18.476   4.901  61.231  1.00 47.51 LIG 0.16  HD
BRANCH 30 33
ATOM     33  CA  LEU D  10      19.563   6.127  63.184  1.00 47.63 LIG 0.18  C 
BRANCH 33 34
ATOM     34  CB  LEU D  10      20.986   6.587  62.881  1.00 47.29 LIG 0.04  C 
BRANCH 34 35
ATOM     35  CG  LEU D  10      21.232   6.914  61.404  1.00 46.92 LIG-0.02  C 
ATOM     36  CD1 LEU D  10      22.176   5.910  60.745  1.00 46.83 LIG 0.01  C 
ATOM     37  CD2 LEU D  10      19.952   6.965  60.639  1.00 45.50 LIG 0.01  C 
ENDBRANCH 34 35
ENDBRANCH 33 34
BRANCH 33 38
ATOM     38  N   LEU D  10      19.172   6.436  64.549  1.00 47.82 LIG-0.35  N 
ATOM     39 H    LEU D  10      19.573   5.974  65.154  1.00 47.82 LIG 0.16  HD
ATOM     40  C   ASP D   9      18.262   7.370  64.795  1.00 48.63 LIG 0.26  C 
ATOM     41 O    ASP D   9      17.692   8.007  63.912  1.00 48.10 LIG-0.27  OA
BRANCH 40 42
ATOM     42  CA  ASP D   9      17.940   7.611  66.247  1.00 49.27 LIG 0.41  C 
ATOM     43  N   ASP D   9      17.682   6.290  66.876  1.00 49.86 LIG 0.61  N 
BRANCH 42 44
ATOM     44  CB  ASP D   9      19.128   8.297  66.906  1.00 50.02 LIG 0.16  C 
BRANCH 44 45
ATOM     45  CG  ASP D   9      20.344   7.420  66.962  1.00 50.84 LIG 0.17  C 
ATOM     46 OD1  ASP D   9      21.463   7.962  66.983  1.00 53.44 LIG-0.65  OA
ATOM     47 OD2  ASP D   9      20.282   6.171  67.016  1.00 53.75 LIG-0.65  OA
ENDBRANCH 44 45
ENDBRANCH 42 44
ENDBRANCH 40 42
ENDBRANCH 33 38
ENDBRANCH 30 33
ENDBRANCH 1 29
TORSDOF 19
ENDMDL
MODEL 60
USER: ADFR SOLUTION from run 168
USER: SCORE 15.492461 LL:  -4.614 LR: -11.903 RR:   0.000 FEB:  -6.235
USER: RMSD 9.794976
USER: SEED 167
USER: STATUS no improvement in best in 10 clusters for 5 generations
USER: GENES 21
USER: genes 0 Translation |==|  0.40602 0.29683 0.41610
USER: genes 1 Rotation |==|  0.74437 0.24238 0.15465 0.56815
USER: genes 2 Torsion [N]-CA--C-[N] |==|  0.05950
USER: genes 3 Torsion [C]-N--CA-[C] |==|  0.16433
USER: genes 4 Torsion [N]-CA--C-[N] |==|  0.63987
USER: genes 5 Torsion [C]-N--CA-[CB] |==|  0.84470
USER: genes 6 Torsion [N]-CA--CB-[CG1] |==|  0.82729
USER: genes 7 Torsion [CA]-CB--CG1-[CD1] |==|  0.94546
USER: genes 8 Torsion [N]-CA--C-[OXT] |==|  0.39489
USER: genes 9 Torsion [N]-CA--CB-[CG] |==|  0.70756
USER: genes 10 Torsion [CA]-CB--CG-[CD2] |==|  0.81588
USER: genes 11 Torsion [C]-CA--CB-[CG] |==|  0.60084
USER: genes 12 Torsion [CA]-CB--CG-[CD1] |==|  0.33968
USER: genes 13 Torsion [C]-CA--N-[C] |==|  0.65191
USER: genes 14 Torsion [N]-C--CA-[N] |==|  0.24456
USER: genes 15 Torsion [C]-CA--CB-[CG] |==|  0.80295
USER: genes 16 Torsion [CA]-CB--CG-[CD2] |==|  0.71186
USER: genes 17 Torsion [C]-CA--N-[C] |==|  0.76667
USER: genes 18 Torsion [N]-C--CA-[N] |==|  0.33781
USER: genes 19 Torsion [C]-CA--CB-[CG] |==|  0.67012
USER: genes 20 Torsion [CA]-CB--CG-[OD1] |==|  0.66617
ROOT
ATOM      1  CA  LEU D  11      16.949   3.219  61.003  1.00 47.89 LIG 0.18  C 
ENDROOT
BRANCH 1 2
ATOM      2  C   LEU D  11      18.094   3.971  61.670  1.00 48.14 LIG 0.24  C 
ATOM      3 O    LEU D  11      19.259   3.668  61.451  1.00 47.13 LIG-0.27  OA
ATOM      4  N   HIS D  12      17.748   4.932  62.520  1.00 49.28 LIG-0.35  N 
ATOM      5 H    HIS D  12      16.938   5.169  62.683  1.00 49.28 LIG 0.16  HD
BRANCH 4 6
ATOM      6  CA  HIS D  12      18.765   5.674  63.258  1.00 50.49 LIG 0.18  C 
BRANCH 6 7
ATOM      7  C   HIS D  12      19.737   6.388  62.322  1.00 51.38 LIG 0.24  C 
ATOM      8  N   ILE D  13      21.015   6.174  62.591  1.00 53.16 LIG-0.34  N 
ATOM      9 H    ILE D  13      21.257   5.693  63.261  1.00 53.16 LIG 0.16  HD
ATOM     10 O    HIS D  12      19.337   7.087  61.402  1.00 51.57 LIG-0.27  OA
BRANCH 8 11
ATOM     11  CA  ILE D  13      22.171   6.688  61.836  1.00 55.12 LIG 0.19  C 
BRANCH 11 12
ATOM     12  CB  ILE D  13      22.150   6.309  60.311  1.00 55.01 LIG 0.01  C 
ATOM     13  CG2 ILE D  13      23.280   6.987  59.513  1.00 56.15 LIG 0.01  C 
BRANCH 12 14
ATOM     14  CG1 ILE D  13      22.206   4.787  60.146  1.00 55.50 LIG 0.00  C 
ATOM     15  CD1 ILE D  13      22.740   4.029  61.391  1.00 55.45 LIG 0.01  C 
ENDBRANCH 12 14
ENDBRANCH 11 12
BRANCH 11 16
ATOM     16  C   ILE D  13      22.631   8.128  62.081  1.00 55.63 LIG 0.20  C 
ATOM     17 O    ILE D  13      21.818   9.039  62.250  1.00 56.94 LIG-0.65  OA
ATOM     18 OXT  ILE D  13      23.850   8.352  62.076  1.00 55.86 LIG-0.65  OA
ENDBRANCH 11 16
ENDBRANCH 8 11
ENDBRANCH 6 7
BRANCH 6 19
ATOM     19  CB  HIS D  12      19.531   4.761  64.218  1.00 50.55 LIG 0.10  C 
BRANCH 19 20
ATOM     20  CG  HIS D  12      19.153   4.941  65.654  1.00 49.61 LIG 0.06  A 
ATOM     21  CD2 HIS D  12      19.317   5.988  66.496  1.00 48.49 LIG 0.14  A 
ATOM     22 NE2  HIS D  12      18.781   5.622  67.705  1.00 48.62 LIG-0.25  NA
ATOM     23  CE1 HIS D  12      18.283   4.404  67.604  1.00 49.12 LIG 0.23  A 
ATOM     24 ND1  HIS D  12      18.498   3.968  66.376  1.00 49.92 LIG-0.24  NA
ENDBRANCH 19 20
ENDBRANCH 6 19
ENDBRANCH 4 6
ENDBRANCH 1 2
BRANCH 1 25
ATOM     25  CB  LEU D  11      17.364   2.920  59.567  1.00 47.69 LIG 0.04  C 
BRANCH 25 26
ATOM     26  CG  LEU D  11      16.307   2.970  58.456  1.00 48.05 LIG-0.02  C 
ATOM     27  CD1 LEU D  11      16.718   3.972  57.388  1.00 46.53 LIG 0.01  C 
ATOM     28  CD2 LEU D  11      16.035   1.614  57.848  1.00 50.43 LIG 0.01  C 
ENDBRANCH 25 26
ENDBRANCH 1 25
BRANCH 1 29
ATOM     29  N   LEU D  11      15.694   3.957  61.003  1.00 47.51 LIG-0.35  N 
ATOM     30  C   LEU D  10      14.561   3.456  61.497  1.00 47.80 LIG 0.24  C 
ATOM     31 O    LEU D  10      14.483   2.359  62.068  1.00 47.07 LIG-0.27  OA
ATOM     32 H    LEU D  11      15.752   4.741  60.655  1.00 47.51 LIG 0.16  HD
BRANCH 30 33
ATOM     33  CA  LEU D  10      13.324   4.326  61.312  1.00 47.63 LIG 0.18  C 
BRANCH 33 34
ATOM     34  CB  LEU D  10      12.353   4.158  62.476  1.00 47.29 LIG 0.04  C 
BRANCH 34 35
ATOM     35  CG  LEU D  10      11.643   2.799  62.502  1.00 46.92 LIG-0.02  C 
ATOM     36  CD1 LEU D  10      11.657   2.174  63.895  1.00 46.83 LIG 0.01  C 
ATOM     37  CD2 LEU D  10      10.233   2.915  62.026  1.00 45.50 LIG 0.01  C 
ENDBRANCH 34 35
ENDBRANCH 33 34
BRANCH 33 38
ATOM     38  N   LEU D  10      12.697   4.029  60.035  1.00 47.82 LIG-0.35  N 
ATOM     39 H    LEU D  10      12.048   3.466  60.072  1.00 47.82 LIG 0.16  HD
ATOM     40  C   ASP D   9      13.126   4.609  58.921  1.00 48.63 LIG 0.26  C 
ATOM     41 O    ASP D   9      14.065   5.401  58.891  1.00 48.10 LIG-0.27  OA
BRANCH 40 42
ATOM     42  CA  ASP D   9      12.397   4.234  57.658  1.00 49.27 LIG 0.41  C 
ATOM     43  N   ASP D   9      11.849   5.482  57.067  1.00 49.86 LIG 0.61  N 
BRANCH 42 44
ATOM     44  CB  ASP D   9      13.380   3.573  56.701  1.00 50.02 LIG 0.16  C 
BRANCH 44 45
ATOM     45  CG  ASP D   9      13.532   4.329  55.414  1.00 50.84 LIG 0.17  C 
ATOM     46 OD1  ASP D   9      13.247   3.751  54.352  1.00 53.44 LIG-0.65  OA
ATOM     47 OD2  ASP D   9      13.906   5.523  55.366  1.00 53.75 LIG-0.65  OA
ENDBRANCH 44 45
ENDBRANCH 42 44
ENDBRANCH 40 42
ENDBRANCH 33 38
ENDBRANCH 30 33
ENDBRANCH 1 29
TORSDOF 19
ENDMDL
MODEL 61
USER: ADFR SOLUTION from run 137
USER: SCORE 16.376079 LL:  -5.177 LR: -11.897 RR:   0.000 FEB:  -6.230
USER: RMSD 5.209653
USER: SEED 136
USER: STATUS no improvement in best in 4 clusters for 5 generations
USER: GENES 21
USER: genes 0 Translation |==|  0.44252 0.28906 0.43483
USER: genes 1 Rotation |==|  0.22964 0.56530 0.28830 0.85753
USER: genes 2 Torsion [N]-CA--C-[N] |==|  0.12833
USER: genes 3 Torsion [C]-N--CA-[C] |==|  0.79210
USER: genes 4 Torsion [N]-CA--C-[N] |==|  0.88058
USER: genes 5 Torsion [C]-N--CA-[CB] |==|  0.77315
USER: genes 6 Torsion [N]-CA--CB-[CG1] |==|  0.92604
USER: genes 7 Torsion [CA]-CB--CG1-[CD1] |==|  0.57864
USER: genes 8 Torsion [N]-CA--C-[OXT] |==|  0.54101
USER: genes 9 Torsion [N]-CA--CB-[CG] |==|  0.24256
USER: genes 10 Torsion [CA]-CB--CG-[CD2] |==|  0.29817
USER: genes 11 Torsion [C]-CA--CB-[CG] |==|  0.31809
USER: genes 12 Torsion [CA]-CB--CG-[CD1] |==|  0.68232
USER: genes 13 Torsion [C]-CA--N-[C] |==|  0.78292
USER: genes 14 Torsion [N]-C--CA-[N] |==|  0.89996
USER: genes 15 Torsion [C]-CA--CB-[CG] |==|  0.21072
USER: genes 16 Torsion [CA]-CB--CG-[CD2] |==|  0.10810
USER: genes 17 Torsion [C]-CA--N-[C] |==|  0.82313
USER: genes 18 Torsion [N]-C--CA-[N] |==|  0.85902
USER: genes 19 Torsion [C]-CA--CB-[CG] |==|  0.64084
USER: genes 20 Torsion [CA]-CB--CG-[OD1] |==|  0.18075
ROOT
ATOM      1  CA  LEU D  11      17.661   3.074  61.425  1.00 47.89 LIG 0.18  C 
ENDROOT
BRANCH 1 2
ATOM      2  C   LEU D  11      16.410   3.802  60.952  1.00 48.14 LIG 0.24  C 
ATOM      3 O    LEU D  11      15.294   3.391  61.242  1.00 47.13 LIG-0.27  OA
ATOM      4  N   HIS D  12      16.606   4.869  60.186  1.00 49.28 LIG-0.35  N 
ATOM      5 H    HIS D  12      17.379   5.182  59.977  1.00 49.28 LIG 0.16  HD
BRANCH 4 6
ATOM      6  CA  HIS D  12      15.475   5.605  59.630  1.00 50.49 LIG 0.18  C 
BRANCH 6 7
ATOM      7  C   HIS D  12      14.825   4.854  58.470  1.00 51.38 LIG 0.24  C 
ATOM      8  N   ILE D  13      15.681   4.311  57.620  1.00 53.16 LIG-0.34  N 
ATOM      9 H    ILE D  13      16.530   4.410  57.714  1.00 53.16 LIG 0.16  HD
ATOM     10 O    HIS D  12      13.610   4.773  58.367  1.00 51.57 LIG-0.27  OA
BRANCH 8 11
ATOM     11  CA  ILE D  13      15.350   3.494  56.440  1.00 55.12 LIG 0.19  C 
BRANCH 11 12
ATOM     12  CB  ILE D  13      15.053   1.987  56.776  1.00 55.01 LIG 0.01  C 
ATOM     13  CG2 ILE D  13      15.408   1.037  55.618  1.00 56.15 LIG 0.01  C 
BRANCH 12 14
ATOM     14  CG1 ILE D  13      15.787   1.580  58.058  1.00 55.50 LIG 0.00  C 
ATOM     15  CD1 ILE D  13      16.157   0.074  58.131  1.00 55.45 LIG 0.01  C 
ENDBRANCH 12 14
ENDBRANCH 11 12
BRANCH 11 16
ATOM     16  C   ILE D  13      14.390   4.064  55.392  1.00 55.63 LIG 0.20  C 
ATOM     17 O    ILE D  13      14.088   5.260  55.386  1.00 56.94 LIG-0.65  OA
ATOM     18 OXT  ILE D  13      13.906   3.279  54.564  1.00 55.86 LIG-0.65  OA
ENDBRANCH 11 16
ENDBRANCH 8 11
ENDBRANCH 6 7
BRANCH 6 19
ATOM     19  CB  HIS D  12      15.892   7.008  59.183  1.00 50.55 LIG 0.10  C 
BRANCH 19 20
ATOM     20  CG  HIS D  12      16.412   7.064  57.781  1.00 49.61 LIG 0.06  A 
ATOM     21  CD2 HIS D  12      15.867   7.560  56.645  1.00 48.49 LIG 0.14  A 
ATOM     22 NE2  HIS D  12      16.777   7.356  55.638  1.00 48.62 LIG-0.25  NA
ATOM     23  CE1 HIS D  12      17.853   6.780  56.141  1.00 49.12 LIG 0.23  A 
ATOM     24 ND1  HIS D  12      17.657   6.588  57.432  1.00 49.92 LIG-0.24  NA
ENDBRANCH 19 20
ENDBRANCH 6 19
ENDBRANCH 4 6
ENDBRANCH 1 2
BRANCH 1 25
ATOM     25  CB  LEU D  11      17.246   2.096  62.518  1.00 47.69 LIG 0.04  C 
BRANCH 25 26
ATOM     26  CG  LEU D  11      17.385   0.589  62.268  1.00 48.05 LIG-0.02  C 
ATOM     27  CD1 LEU D  11      16.011  -0.064  62.235  1.00 46.53 LIG 0.01  C 
ATOM     28  CD2 LEU D  11      18.162   0.274  61.013  1.00 50.43 LIG 0.01  C 
ENDBRANCH 25 26
ENDBRANCH 1 25
BRANCH 1 29
ATOM     29  N   LEU D  11      18.692   3.965  61.936  1.00 47.51 LIG-0.35  N 
ATOM     30  C   LEU D  10      19.497   4.672  61.142  1.00 47.80 LIG 0.24  C 
ATOM     31 O    LEU D  10      19.396   4.698  59.907  1.00 47.07 LIG-0.27  OA
ATOM     32 H    LEU D  11      18.733   3.993  62.795  1.00 47.51 LIG 0.16  HD
BRANCH 30 33
ATOM     33  CA  LEU D  10      20.587   5.466  61.850  1.00 47.63 LIG 0.18  C 
BRANCH 33 34
ATOM     34  CB  LEU D  10      21.847   4.626  62.038  1.00 47.29 LIG 0.04  C 
BRANCH 34 35
ATOM     35  CG  LEU D  10      22.673   4.451  60.759  1.00 46.92 LIG-0.02  C 
ATOM     36  CD1 LEU D  10      22.151   3.306  59.893  1.00 46.83 LIG 0.01  C 
ATOM     37  CD2 LEU D  10      22.699   5.708  59.954  1.00 45.50 LIG 0.01  C 
ENDBRANCH 34 35
ENDBRANCH 33 34
BRANCH 33 38
ATOM     38  N   LEU D  10      20.085   5.979  63.113  1.00 47.82 LIG-0.35  N 
ATOM     39 H    LEU D  10      20.481   5.673  63.812  1.00 47.82 LIG 0.16  HD
ATOM     40  C   ASP D   9      19.087   6.855  63.137  1.00 48.63 LIG 0.26  C 
ATOM     41 O    ASP D   9      18.527   7.267  62.124  1.00 48.10 LIG-0.27  OA
BRANCH 40 42
ATOM     42  CA  ASP D   9      18.653   7.324  64.500  1.00 49.27 LIG 0.41  C 
ATOM     43  N   ASP D   9      18.425   6.120  65.339  1.00 49.86 LIG 0.61  N 
BRANCH 42 44
ATOM     44  CB  ASP D   9      19.754   8.191  65.095  1.00 50.02 LIG 0.16  C 
BRANCH 44 45
ATOM     45  CG  ASP D   9      20.135   7.771  66.484  1.00 50.84 LIG 0.17  C 
ATOM     46 OD1  ASP D   9      20.657   6.654  66.641  1.00 53.44 LIG-0.65  OA
ATOM     47 OD2  ASP D   9      19.975   8.504  67.486  1.00 53.75 LIG-0.65  OA
ENDBRANCH 44 45
ENDBRANCH 42 44
ENDBRANCH 40 42
ENDBRANCH 33 38
ENDBRANCH 30 33
ENDBRANCH 1 29
TORSDOF 19
ENDMDL
MODEL 62
USER: ADFR SOLUTION from run 30
USER: SCORE 15.675102 LL:  -4.461 LR: -11.868 RR:   0.000 FEB:  -6.200
USER: RMSD 5.694325
USER: SEED 29
USER: STATUS no improvement in best in 9 clusters for 5 generations
USER: GENES 21
USER: genes 0 Translation |==|  0.49373 0.50740 0.66815
USER: genes 1 Rotation |==|  0.25259 0.30760 0.23371 0.78436
USER: genes 2 Torsion [N]-CA--C-[N] |==|  0.33267
USER: genes 3 Torsion [C]-N--CA-[C] |==|  0.65162
USER: genes 4 Torsion [N]-CA--C-[N] |==|  0.48742
USER: genes 5 Torsion [C]-N--CA-[CB] |==|  0.24747
USER: genes 6 Torsion [N]-CA--CB-[CG1] |==|  0.77959
USER: genes 7 Torsion [CA]-CB--CG1-[CD1] |==|  0.57724
USER: genes 8 Torsion [N]-CA--C-[OXT] |==|  0.27337
USER: genes 9 Torsion [N]-CA--CB-[CG] |==|  0.27753
USER: genes 10 Torsion [CA]-CB--CG-[CD2] |==|  0.34210
USER: genes 11 Torsion [C]-CA--CB-[CG] |==|  0.23899
USER: genes 12 Torsion [CA]-CB--CG-[CD1] |==|  0.02202
USER: genes 13 Torsion [C]-CA--N-[C] |==|  0.69048
USER: genes 14 Torsion [N]-C--CA-[N] |==|  0.22703
USER: genes 15 Torsion [C]-CA--CB-[CG] |==|  0.79111
USER: genes 16 Torsion [CA]-CB--CG-[CD2] |==|  0.72402
USER: genes 17 Torsion [C]-CA--N-[C] |==|  0.75556
USER: genes 18 Torsion [N]-C--CA-[N] |==|  0.75583
USER: genes 19 Torsion [C]-CA--CB-[CG] |==|  0.70919
USER: genes 20 Torsion [CA]-CB--CG-[OD1] |==|  0.34383
ROOT
ATOM      1  CA  LEU D  11      18.660   7.168  66.674  1.00 47.89 LIG 0.18  C 
ENDROOT
BRANCH 1 2
ATOM      2  C   LEU D  11      18.299   7.007  65.204  1.00 48.14 LIG 0.24  C 
ATOM      3 O    LEU D  11      17.280   7.507  64.747  1.00 47.13 LIG-0.27  OA
ATOM      4  N   HIS D  12      19.126   6.267  64.474  1.00 49.28 LIG-0.35  N 
ATOM      5 H    HIS D  12      19.852   5.914  64.770  1.00 49.28 LIG 0.16  HD
BRANCH 4 6
ATOM      6  CA  HIS D  12      18.842   5.999  63.068  1.00 50.49 LIG 0.18  C 
BRANCH 6 7
ATOM      7  C   HIS D  12      18.837   4.503  62.765  1.00 51.38 LIG 0.24  C 
ATOM      8  N   ILE D  13      18.492   4.194  61.526  1.00 53.16 LIG-0.34  N 
ATOM      9 H    ILE D  13      18.264   4.800  60.961  1.00 53.16 LIG 0.16  HD
ATOM     10 O    HIS D  12      19.140   3.681  63.619  1.00 51.57 LIG-0.27  OA
BRANCH 8 11
ATOM     11  CA  ILE D  13      18.444   2.845  60.937  1.00 55.12 LIG 0.19  C 
BRANCH 11 12
ATOM     12  CB  ILE D  13      17.059   2.124  61.117  1.00 55.01 LIG 0.01  C 
ATOM     13  CG2 ILE D  13      16.813   1.033  60.059  1.00 56.15 LIG 0.01  C 
BRANCH 12 14
ATOM     14  CG1 ILE D  13      16.948   1.545  62.531  1.00 55.50 LIG 0.00  C 
ATOM     15  CD1 ILE D  13      16.028   0.299  62.640  1.00 55.45 LIG 0.01  C 
ENDBRANCH 12 14
ENDBRANCH 11 12
BRANCH 11 16
ATOM     16  C   ILE D  13      19.047   2.624  59.546  1.00 55.63 LIG 0.20  C 
ATOM     17 O    ILE D  13      18.407   2.881  58.524  1.00 56.94 LIG-0.65  OA
ATOM     18 OXT  ILE D  13      20.192   2.154  59.482  1.00 55.86 LIG-0.65  OA
ENDBRANCH 11 16
ENDBRANCH 8 11
ENDBRANCH 6 7
BRANCH 6 19
ATOM     19  CB  HIS D  12      19.838   6.718  62.154  1.00 50.55 LIG 0.10  C 
BRANCH 19 20
ATOM     20  CG  HIS D  12      20.935   5.836  61.646  1.00 49.61 LIG 0.06  A 
ATOM     21  CD2 HIS D  12      21.330   5.538  60.386  1.00 48.49 LIG 0.14  A 
ATOM     22 NE2  HIS D  12      22.394   4.678  60.489  1.00 48.62 LIG-0.25  NA
ATOM     23  CE1 HIS D  12      22.660   4.474  61.765  1.00 49.12 LIG 0.23  A 
ATOM     24 ND1  HIS D  12      21.791   5.158  62.486  1.00 49.92 LIG-0.24  NA
ENDBRANCH 19 20
ENDBRANCH 6 19
ENDBRANCH 4 6
ENDBRANCH 1 2
BRANCH 1 25
ATOM     25  CB  LEU D  11      17.522   6.577  67.500  1.00 47.69 LIG 0.04  C 
BRANCH 25 26
ATOM     26  CG  LEU D  11      17.523   5.075  67.810  1.00 48.05 LIG-0.02  C 
ATOM     27  CD1 LEU D  11      18.835   4.449  67.363  1.00 46.53 LIG 0.01  C 
ATOM     28  CD2 LEU D  11      17.253   4.779  69.266  1.00 50.43 LIG 0.01  C 
ENDBRANCH 25 26
ENDBRANCH 1 25
BRANCH 1 29
ATOM     29  N   LEU D  11      18.879   8.551  67.069  1.00 47.51 LIG-0.35  N 
ATOM     30  C   LEU D  10      20.078   9.026  67.409  1.00 47.80 LIG 0.24  C 
ATOM     31 O    LEU D  10      21.123   8.363  67.350  1.00 47.07 LIG-0.27  OA
ATOM     32 H    LEU D  11      18.166   9.032  67.062  1.00 47.51 LIG 0.16  HD
BRANCH 30 33
ATOM     33  CA  LEU D  10      20.098  10.468  67.899  1.00 47.63 LIG 0.18  C 
BRANCH 33 34
ATOM     34  CB  LEU D  10      21.458  11.115  67.652  1.00 47.29 LIG 0.04  C 
BRANCH 34 35
ATOM     35  CG  LEU D  10      22.551  10.654  68.623  1.00 46.92 LIG-0.02  C 
ATOM     36  CD1 LEU D  10      23.879  10.404  67.912  1.00 46.83 LIG 0.01  C 
ATOM     37  CD2 LEU D  10      22.756  11.647  69.719  1.00 45.50 LIG 0.01  C 
ENDBRANCH 34 35
ENDBRANCH 33 34
BRANCH 33 38
ATOM     38  N   LEU D  10      19.719  10.521  69.301  1.00 47.82 LIG-0.35  N 
ATOM     39 H    LEU D  10      20.376  10.482  69.856  1.00 47.82 LIG 0.16  HD
ATOM     40  C   ASP D   9      18.443  10.623  69.651  1.00 48.63 LIG 0.26  C 
ATOM     41 O    ASP D   9      17.521  10.664  68.840  1.00 48.10 LIG-0.27  OA
BRANCH 40 42
ATOM     42  CA  ASP D   9      18.168  10.677  71.131  1.00 49.27 LIG 0.41  C 
ATOM     43  N   ASP D   9      18.032   9.279  71.614  1.00 49.86 LIG 0.61  N 
BRANCH 42 44
ATOM     44  CB  ASP D   9      19.331  11.374  71.823  1.00 50.02 LIG 0.16  C 
BRANCH 44 45
ATOM     45  CG  ASP D   9      20.227  10.417  72.553  1.00 50.84 LIG 0.17  C 
ATOM     46 OD1  ASP D   9      21.436  10.404  72.267  1.00 53.44 LIG-0.65  OA
ATOM     47 OD2  ASP D   9      19.816   9.651  73.454  1.00 53.75 LIG-0.65  OA
ENDBRANCH 44 45
ENDBRANCH 42 44
ENDBRANCH 40 42
ENDBRANCH 33 38
ENDBRANCH 30 33
ENDBRANCH 1 29
TORSDOF 19
ENDMDL
MODEL 63
USER: ADFR SOLUTION from run 158
USER: SCORE 16.248425 LL:  -4.803 LR: -11.854 RR:   0.000 FEB:  -6.187
USER: RMSD 5.262571
USER: SEED 157
USER: STATUS no improvement in best in 3 clusters for 5 generations
USER: GENES 21
USER: genes 0 Translation |==|  0.53925 0.45568 0.67794
USER: genes 1 Rotation |==|  0.39482 0.29862 0.32656 0.91025
USER: genes 2 Torsion [N]-CA--C-[N] |==|  0.45000
USER: genes 3 Torsion [C]-N--CA-[C] |==|  0.70682
USER: genes 4 Torsion [N]-CA--C-[N] |==|  0.48329
USER: genes 5 Torsion [C]-N--CA-[CB] |==|  0.18001
USER: genes 6 Torsion [N]-CA--CB-[CG1] |==|  0.63774
USER: genes 7 Torsion [CA]-CB--CG1-[CD1] |==|  0.30513
USER: genes 8 Torsion [N]-CA--C-[OXT] |==|  0.38776
USER: genes 9 Torsion [N]-CA--CB-[CG] |==|  0.26983
USER: genes 10 Torsion [CA]-CB--CG-[CD2] |==|  0.78781
USER: genes 11 Torsion [C]-CA--CB-[CG] |==|  0.87091
USER: genes 12 Torsion [CA]-CB--CG-[CD1] |==|  0.35833
USER: genes 13 Torsion [C]-CA--N-[C] |==|  0.80339
USER: genes 14 Torsion [N]-C--CA-[N] |==|  0.42988
USER: genes 15 Torsion [C]-CA--CB-[CG] |==|  0.00176
USER: genes 16 Torsion [CA]-CB--CG-[CD2] |==|  0.65269
USER: genes 17 Torsion [C]-CA--N-[C] |==|  0.60430
USER: genes 18 Torsion [N]-C--CA-[N] |==|  0.44643
USER: genes 19 Torsion [C]-CA--CB-[CG] |==|  0.80396
USER: genes 20 Torsion [CA]-CB--CG-[OD1] |==|  0.40778
ROOT
ATOM      1  CA  LEU D  11      19.547   6.198  66.895  1.00 47.89 LIG 0.18  C 
ENDROOT
BRANCH 1 2
ATOM      2  C   LEU D  11      19.094   6.374  65.451  1.00 48.14 LIG 0.24  C 
ATOM      3 O    LEU D  11      18.040   6.936  65.187  1.00 47.13 LIG-0.27  OA
ATOM      4  N   HIS D  12      19.884   5.851  64.520  1.00 49.28 LIG-0.35  N 
ATOM      5 H    HIS D  12      20.633   5.460  64.681  1.00 49.28 LIG 0.16  HD
BRANCH 4 6
ATOM      6  CA  HIS D  12      19.513   5.911  63.110  1.00 50.49 LIG 0.18  C 
BRANCH 6 7
ATOM      7  C   HIS D  12      19.040   4.555  62.591  1.00 51.38 LIG 0.24  C 
ATOM      8  N   ILE D  13      18.572   4.573  61.353  1.00 53.16 LIG-0.34  N 
ATOM      9 H    ILE D  13      18.519   5.306  60.906  1.00 53.16 LIG 0.16  HD
ATOM     10 O    HIS D  12      19.108   3.550  63.283  1.00 51.57 LIG-0.27  OA
BRANCH 8 11
ATOM     11  CA  ILE D  13      18.092   3.418  60.577  1.00 55.12 LIG 0.19  C 
BRANCH 11 12
ATOM     12  CB  ILE D  13      16.804   2.744  61.174  1.00 55.01 LIG 0.01  C 
ATOM     13  CG2 ILE D  13      15.533   3.070  60.368  1.00 56.15 LIG 0.01  C 
BRANCH 12 14
ATOM     14  CG1 ILE D  13      17.005   1.230  61.282  1.00 55.50 LIG 0.00  C 
ATOM     15  CD1 ILE D  13      17.136   0.705  62.738  1.00 55.45 LIG 0.01  C 
ENDBRANCH 12 14
ENDBRANCH 11 12
BRANCH 11 16
ATOM     16  C   ILE D  13      18.050   3.521  59.049  1.00 55.63 LIG 0.20  C 
ATOM     17 O    ILE D  13      17.657   4.546  58.488  1.00 56.94 LIG-0.65  OA
ATOM     18 OXT  ILE D  13      18.400   2.529  58.394  1.00 55.86 LIG-0.65  OA
ENDBRANCH 11 16
ENDBRANCH 8 11
ENDBRANCH 6 7
BRANCH 6 19
ATOM     19  CB  HIS D  12      20.671   6.427  62.254  1.00 50.55 LIG 0.10  C 
BRANCH 19 20
ATOM     20  CG  HIS D  12      21.474   5.344  61.607  1.00 49.61 LIG 0.06  A 
ATOM     21  CD2 HIS D  12      22.408   4.502  62.109  1.00 48.49 LIG 0.14  A 
ATOM     22 NE2  HIS D  12      22.825   3.699  61.077  1.00 48.62 LIG-0.25  NA
ATOM     23  CE1 HIS D  12      22.155   4.017  59.986  1.00 49.12 LIG 0.23  A 
ATOM     24 ND1  HIS D  12      21.335   5.011  60.276  1.00 49.92 LIG-0.24  NA
ENDBRANCH 19 20
ENDBRANCH 6 19
ENDBRANCH 4 6
ENDBRANCH 1 2
BRANCH 1 25
ATOM     25  CB  LEU D  11      19.244   4.762  67.306  1.00 47.69 LIG 0.04  C 
BRANCH 25 26
ATOM     26  CG  LEU D  11      17.869   4.164  66.980  1.00 48.05 LIG-0.02  C 
ATOM     27  CD1 LEU D  11      18.035   2.823  66.278  1.00 46.53 LIG 0.01  C 
ATOM     28  CD2 LEU D  11      16.986   4.029  68.198  1.00 50.43 LIG 0.01  C 
ENDBRANCH 25 26
ENDBRANCH 1 25
BRANCH 1 29
ATOM     29  N   LEU D  11      18.901   7.116  67.821  1.00 47.51 LIG-0.35  N 
ATOM     30  C   LEU D  10      19.162   8.424  67.845  1.00 47.80 LIG 0.24  C 
ATOM     31 O    LEU D  10      19.914   8.991  67.039  1.00 47.07 LIG-0.27  OA
ATOM     32 H    LEU D  11      18.337   6.737  68.349  1.00 47.51 LIG 0.16  HD
BRANCH 30 33
ATOM     33  CA  LEU D  10      18.474   9.210  68.953  1.00 47.63 LIG 0.18  C 
BRANCH 33 34
ATOM     34  CB  LEU D  10      17.030   9.537  68.582  1.00 47.29 LIG 0.04  C 
BRANCH 34 35
ATOM     35  CG  LEU D  10      16.603   8.997  67.212  1.00 46.92 LIG-0.02  C 
ATOM     36  CD1 LEU D  10      15.558   7.890  67.334  1.00 46.83 LIG 0.01  C 
ATOM     37  CD2 LEU D  10      16.070  10.087  66.342  1.00 45.50 LIG 0.01  C 
ENDBRANCH 34 35
ENDBRANCH 33 34
BRANCH 33 38
ATOM     38  N   LEU D  10      19.239  10.407  69.260  1.00 47.82 LIG-0.35  N 
ATOM     39 H    LEU D  10      19.597  10.792  68.580  1.00 47.82 LIG 0.16  HD
ATOM     40  C   ASP D   9      19.348  10.835  70.511  1.00 48.63 LIG 0.26  C 
ATOM     41 O    ASP D   9      18.838  10.258  71.469  1.00 48.10 LIG-0.27  OA
BRANCH 40 42
ATOM     42  CA  ASP D   9      20.159  12.088  70.712  1.00 49.27 LIG 0.41  C 
ATOM     43  N   ASP D   9      19.786  12.658  72.033  1.00 49.86 LIG 0.61  N 
BRANCH 42 44
ATOM     44  CB  ASP D   9      21.637  11.728  70.680  1.00 50.02 LIG 0.16  C 
BRANCH 44 45
ATOM     45  CG  ASP D   9      22.071  10.956  71.891  1.00 50.84 LIG 0.17  C 
ATOM     46 OD1  ASP D   9      22.964  10.101  71.758  1.00 53.44 LIG-0.65  OA
ATOM     47 OD2  ASP D   9      21.593  11.152  73.031  1.00 53.75 LIG-0.65  OA
ENDBRANCH 44 45
ENDBRANCH 42 44
ENDBRANCH 40 42
ENDBRANCH 33 38
ENDBRANCH 30 33
ENDBRANCH 1 29
TORSDOF 19
ENDMDL
MODEL 64
USER: ADFR SOLUTION from run 115
USER: SCORE 16.677085 LL:  -5.144 LR: -11.843 RR:   0.000 FEB:  -6.175
USER: RMSD 6.325675
USER: SEED 114
USER: STATUS no improvement in best in 16 clusters for 5 generations
USER: GENES 21
USER: genes 0 Translation |==|  0.45713 0.23665 0.40666
USER: genes 1 Rotation |==|  0.21246 0.52305 0.36242 0.88453
USER: genes 2 Torsion [N]-CA--C-[N] |==|  0.91589
USER: genes 3 Torsion [C]-N--CA-[C] |==|  0.77222
USER: genes 4 Torsion [N]-CA--C-[N] |==|  0.24674
USER: genes 5 Torsion [C]-N--CA-[CB] |==|  0.22184
USER: genes 6 Torsion [N]-CA--CB-[CG1] |==|  0.08550
USER: genes 7 Torsion [CA]-CB--CG1-[CD1] |==|  0.12004
USER: genes 8 Torsion [N]-CA--C-[OXT] |==|  0.04248
USER: genes 9 Torsion [N]-CA--CB-[CG] |==|  0.65464
USER: genes 10 Torsion [CA]-CB--CG-[CD2] |==|  0.75341
USER: genes 11 Torsion [C]-CA--CB-[CG] |==|  0.87195
USER: genes 12 Torsion [CA]-CB--CG-[CD1] |==|  0.28028
USER: genes 13 Torsion [C]-CA--N-[C] |==|  0.82926
USER: genes 14 Torsion [N]-C--CA-[N] |==|  0.94512
USER: genes 15 Torsion [C]-CA--CB-[CG] |==|  0.79603
USER: genes 16 Torsion [CA]-CB--CG-[CD2] |==|  0.63225
USER: genes 17 Torsion [C]-CA--N-[C] |==|  0.77066
USER: genes 18 Torsion [N]-C--CA-[N] |==|  0.48772
USER: genes 19 Torsion [C]-CA--CB-[CG] |==|  0.52085
USER: genes 20 Torsion [CA]-CB--CG-[OD1] |==|  0.28383
ROOT
ATOM      1  CA  LEU D  11      17.946   2.091  60.791  1.00 47.89 LIG 0.18  C 
ENDROOT
BRANCH 1 2
ATOM      2  C   LEU D  11      16.497   2.317  60.382  1.00 48.14 LIG 0.24  C 
ATOM      3 O    LEU D  11      15.980   1.646  59.498  1.00 47.13 LIG-0.27  OA
ATOM      4  N   HIS D  12      15.857   3.299  61.007  1.00 49.28 LIG-0.35  N 
ATOM      5 H    HIS D  12      16.196   3.777  61.636  1.00 49.28 LIG 0.16  HD
BRANCH 4 6
ATOM      6  CA  HIS D  12      14.484   3.639  60.649  1.00 50.49 LIG 0.18  C 
BRANCH 6 7
ATOM      7  C   HIS D  12      14.425   4.545  59.421  1.00 51.38 LIG 0.24  C 
ATOM      8  N   ILE D  13      14.374   3.903  58.266  1.00 53.16 LIG-0.34  N 
ATOM      9 H    ILE D  13      14.404   3.044  58.230  1.00 53.16 LIG 0.16  HD
ATOM     10 O    HIS D  12      14.419   5.763  59.530  1.00 51.57 LIG-0.27  OA
BRANCH 8 11
ATOM     11  CA  ILE D  13      14.265   4.506  56.927  1.00 55.12 LIG 0.19  C 
BRANCH 11 12
ATOM     12  CB  ILE D  13      15.628   5.050  56.364  1.00 55.01 LIG 0.01  C 
ATOM     13  CG2 ILE D  13      15.846   6.543  56.669  1.00 56.15 LIG 0.01  C 
BRANCH 12 14
ATOM     14  CG1 ILE D  13      16.791   4.210  56.902  1.00 55.50 LIG 0.00  C 
ATOM     15  CD1 ILE D  13      16.532   2.679  56.891  1.00 55.45 LIG 0.01  C 
ENDBRANCH 12 14
ENDBRANCH 11 12
BRANCH 11 16
ATOM     16  C   ILE D  13      13.429   3.793  55.861  1.00 55.63 LIG 0.20  C 
ATOM     17 O    ILE D  13      13.506   4.108  54.672  1.00 56.94 LIG-0.65  OA
ATOM     18 OXT  ILE D  13      12.651   2.904  56.237  1.00 55.86 LIG-0.65  OA
ENDBRANCH 11 16
ENDBRANCH 8 11
ENDBRANCH 6 7
BRANCH 6 19
ATOM     19  CB  HIS D  12      13.751   4.294  61.822  1.00 50.55 LIG 0.10  C 
BRANCH 19 20
ATOM     20  CG  HIS D  12      12.482   3.600  62.204  1.00 49.61 LIG 0.06  A 
ATOM     21  CD2 HIS D  12      11.211   3.757  61.767  1.00 48.49 LIG 0.14  A 
ATOM     22 NE2  HIS D  12      10.433   2.857  62.451  1.00 48.62 LIG-0.25  NA
ATOM     23  CE1 HIS D  12      11.202   2.154  63.263  1.00 49.12 LIG 0.23  A 
ATOM     24 ND1  HIS D  12      12.443   2.586  63.137  1.00 49.92 LIG-0.24  NA
ENDBRANCH 19 20
ENDBRANCH 6 19
ENDBRANCH 4 6
ENDBRANCH 1 2
BRANCH 1 25
ATOM     25  CB  LEU D  11      17.957   1.066  61.920  1.00 47.69 LIG 0.04  C 
BRANCH 25 26
ATOM     26  CG  LEU D  11      16.965   1.219  63.079  1.00 48.05 LIG-0.02  C 
ATOM     27  CD1 LEU D  11      15.790   0.270  62.892  1.00 46.53 LIG 0.01  C 
ATOM     28  CD2 LEU D  11      17.609   1.019  64.430  1.00 50.43 LIG 0.01  C 
ENDBRANCH 25 26
ENDBRANCH 1 25
BRANCH 1 29
ATOM     29  N   LEU D  11      18.620   3.304  61.230  1.00 47.51 LIG-0.35  N 
ATOM     30  C   LEU D  10      18.796   4.362  60.437  1.00 47.80 LIG 0.24  C 
ATOM     31 O    LEU D  10      18.340   4.445  59.287  1.00 47.07 LIG-0.27  OA
ATOM     32 H    LEU D  11      18.893   3.275  62.045  1.00 47.51 LIG 0.16  HD
BRANCH 30 33
ATOM     33  CA  LEU D  10      19.618   5.499  61.031  1.00 47.63 LIG 0.18  C 
BRANCH 33 34
ATOM     34  CB  LEU D  10      21.023   5.531  60.437  1.00 47.29 LIG 0.04  C 
BRANCH 34 35
ATOM     35  CG  LEU D  10      21.937   4.408  60.940  1.00 46.92 LIG-0.02  C 
ATOM     36  CD1 LEU D  10      22.131   3.315  59.891  1.00 46.83 LIG 0.01  C 
ATOM     37  CD2 LEU D  10      23.269   4.938  61.355  1.00 45.50 LIG 0.01  C 
ENDBRANCH 34 35
ENDBRANCH 33 34
BRANCH 33 38
ATOM     38  N   LEU D  10      19.644   5.387  62.479  1.00 47.82 LIG-0.35  N 
ATOM     39 H    LEU D  10      20.345   5.005  62.801  1.00 47.82 LIG 0.16  HD
ATOM     40  C   ASP D   9      18.640   5.854  63.210  1.00 48.63 LIG 0.26  C 
ATOM     41 O    ASP D   9      17.642   6.383  62.726  1.00 48.10 LIG-0.27  OA
BRANCH 40 42
ATOM     42  CA  ASP D   9      18.777   5.691  64.701  1.00 49.27 LIG 0.41  C 
ATOM     43  N   ASP D   9      17.616   6.366  65.336  1.00 49.86 LIG 0.61  N 
BRANCH 42 44
ATOM     44  CB  ASP D   9      18.782   4.206  65.035  1.00 50.02 LIG 0.16  C 
BRANCH 44 45
ATOM     45  CG  ASP D   9      18.734   3.944  66.511  1.00 50.84 LIG 0.17  C 
ATOM     46 OD1  ASP D   9      17.651   3.602  67.016  1.00 53.44 LIG-0.65  OA
ATOM     47 OD2  ASP D   9      19.740   4.029  67.251  1.00 53.75 LIG-0.65  OA
ENDBRANCH 44 45
ENDBRANCH 42 44
ENDBRANCH 40 42
ENDBRANCH 33 38
ENDBRANCH 30 33
ENDBRANCH 1 29
TORSDOF 19
ENDMDL
MODEL 65
USER: ADFR SOLUTION from run 26
USER: SCORE 15.917633 LL:  -5.084 LR: -11.844 RR:   0.000 FEB:  -6.177
USER: RMSD 8.164849
USER: SEED 25
USER: STATUS no improvement in best in 5 clusters for 5 generations
USER: GENES 21
USER: genes 0 Translation |==|  0.40914 0.59788 0.75366
USER: genes 1 Rotation |==|  0.83933 0.76790 0.74784 0.54075
USER: genes 2 Torsion [N]-CA--C-[N] |==|  0.39705
USER: genes 3 Torsion [C]-N--CA-[C] |==|  0.62082
USER: genes 4 Torsion [N]-CA--C-[N] |==|  0.20207
USER: genes 5 Torsion [C]-N--CA-[CB] |==|  0.47438
USER: genes 6 Torsion [N]-CA--CB-[CG1] |==|  0.06753
USER: genes 7 Torsion [CA]-CB--CG1-[CD1] |==|  0.24714
USER: genes 8 Torsion [N]-CA--C-[OXT] |==|  0.41586
USER: genes 9 Torsion [N]-CA--CB-[CG] |==|  0.81876
USER: genes 10 Torsion [CA]-CB--CG-[CD2] |==|  0.38616
USER: genes 11 Torsion [C]-CA--CB-[CG] |==|  0.06977
USER: genes 12 Torsion [CA]-CB--CG-[CD1] |==|  0.23384
USER: genes 13 Torsion [C]-CA--N-[C] |==|  0.84997
USER: genes 14 Torsion [N]-C--CA-[N] |==|  0.28472
USER: genes 15 Torsion [C]-CA--CB-[CG] |==|  0.23224
USER: genes 16 Torsion [CA]-CB--CG-[CD2] |==|  0.07706
USER: genes 17 Torsion [C]-CA--N-[C] |==|  0.58699
USER: genes 18 Torsion [N]-C--CA-[N] |==|  0.80511
USER: genes 19 Torsion [C]-CA--CB-[CG] |==|  0.62182
USER: genes 20 Torsion [CA]-CB--CG-[OD1] |==|  0.89794
ROOT
ATOM      1  CA  LEU D  11      17.010   8.864  68.598  1.00 47.89 LIG 0.18  C 
ENDROOT
BRANCH 1 2
ATOM      2  C   LEU D  11      16.642   7.545  67.931  1.00 48.14 LIG 0.24  C 
ATOM      3 O    LEU D  11      16.700   7.417  66.716  1.00 47.13 LIG-0.27  OA
ATOM      4  N   HIS D  12      16.224   6.576  68.738  1.00 49.28 LIG-0.35  N 
ATOM      5 H    HIS D  12      16.184   6.641  69.594  1.00 49.28 LIG 0.16  HD
BRANCH 4 6
ATOM      6  CA  HIS D  12      15.789   5.293  68.197  1.00 50.49 LIG 0.18  C 
BRANCH 6 7
ATOM      7  C   HIS D  12      14.512   4.796  68.871  1.00 51.38 LIG 0.24  C 
ATOM      8  N   ILE D  13      13.418   5.456  68.528  1.00 53.16 LIG-0.34  N 
ATOM      9 H    ILE D  13      13.450   6.127  67.991  1.00 53.16 LIG 0.16  HD
ATOM     10 O    HIS D  12      14.531   3.857  69.653  1.00 51.57 LIG-0.27  OA
BRANCH 8 11
ATOM     11  CA  ILE D  13      12.044   5.174  68.977  1.00 55.12 LIG 0.19  C 
BRANCH 11 12
ATOM     12  CB  ILE D  13      11.005   6.280  68.569  1.00 55.01 LIG 0.01  C 
ATOM     13  CG2 ILE D  13      10.684   7.251  69.720  1.00 56.15 LIG 0.01  C 
BRANCH 12 14
ATOM     14  CG1 ILE D  13      11.506   7.043  67.338  1.00 55.50 LIG 0.00  C 
ATOM     15  CD1 ILE D  13      11.079   6.419  65.982  1.00 55.45 LIG 0.01  C 
ENDBRANCH 12 14
ENDBRANCH 11 12
BRANCH 11 16
ATOM     16  C   ILE D  13      11.490   3.755  68.815  1.00 55.63 LIG 0.20  C 
ATOM     17 O    ILE D  13      11.845   3.034  67.880  1.00 56.94 LIG-0.65  OA
ATOM     18 OXT  ILE D  13      10.653   3.365  69.641  1.00 55.86 LIG-0.65  OA
ENDBRANCH 11 16
ENDBRANCH 8 11
ENDBRANCH 6 7
BRANCH 6 19
ATOM     19  CB  HIS D  12      16.892   4.239  68.316  1.00 50.55 LIG 0.10  C 
BRANCH 19 20
ATOM     20  CG  HIS D  12      18.103   4.536  67.490  1.00 49.61 LIG 0.06  A 
ATOM     21  CD2 HIS D  12      19.423   4.404  67.759  1.00 48.49 LIG 0.14  A 
ATOM     22 NE2  HIS D  12      20.107   4.819  66.644  1.00 48.62 LIG-0.25  NA
ATOM     23  CE1 HIS D  12      19.239   5.170  65.713  1.00 49.12 LIG 0.23  A 
ATOM     24 ND1  HIS D  12      18.022   5.013  66.199  1.00 49.92 LIG-0.24  NA
ENDBRANCH 19 20
ENDBRANCH 6 19
ENDBRANCH 4 6
ENDBRANCH 1 2
BRANCH 1 25
ATOM     25  CB  LEU D  11      15.795   9.781  68.519  1.00 47.69 LIG 0.04  C 
BRANCH 25 26
ATOM     26  CG  LEU D  11      14.396   9.162  68.401  1.00 48.05 LIG-0.02  C 
ATOM     27  CD1 LEU D  11      13.868   8.796  69.780  1.00 46.53 LIG 0.01  C 
ATOM     28  CD2 LEU D  11      13.422  10.055  67.670  1.00 50.43 LIG 0.01  C 
ENDBRANCH 25 26
ENDBRANCH 1 25
BRANCH 1 29
ATOM     29  N   LEU D  11      18.156   9.522  67.988  1.00 47.51 LIG-0.35  N 
ATOM     30  C   LEU D  10      19.332   8.916  67.815  1.00 47.80 LIG 0.24  C 
ATOM     31 O    LEU D  10      19.538   7.724  68.084  1.00 47.07 LIG-0.27  OA
ATOM     32 H    LEU D  11      18.004  10.335  67.750  1.00 47.51 LIG 0.16  HD
BRANCH 30 33
ATOM     33  CA  LEU D  10      20.447   9.793  67.260  1.00 47.63 LIG 0.18  C 
BRANCH 33 34
ATOM     34  CB  LEU D  10      21.182   9.095  66.121  1.00 47.29 LIG 0.04  C 
BRANCH 34 35
ATOM     35  CG  LEU D  10      20.497   9.241  64.757  1.00 46.92 LIG-0.02  C 
ATOM     36  CD1 LEU D  10      19.593   8.051  64.442  1.00 46.83 LIG 0.01  C 
ATOM     37  CD2 LEU D  10      19.701  10.500  64.683  1.00 45.50 LIG 0.01  C 
ENDBRANCH 34 35
ENDBRANCH 33 34
BRANCH 33 38
ATOM     38  N   LEU D  10      21.349  10.183  68.330  1.00 47.82 LIG-0.35  N 
ATOM     39 H    LEU D  10      21.431   9.607  68.964  1.00 47.82 LIG 0.16  HD
ATOM     40  C   ASP D   9      21.979  11.350  68.290  1.00 48.63 LIG 0.26  C 
ATOM     41 O    ASP D   9      21.835  12.164  67.381  1.00 48.10 LIG-0.27  OA
BRANCH 40 42
ATOM     42  CA  ASP D   9      22.896  11.646  69.448  1.00 49.27 LIG 0.41  C 
ATOM     43  N   ASP D   9      22.047  11.878  70.645  1.00 49.86 LIG 0.61  N 
BRANCH 42 44
ATOM     44  CB  ASP D   9      23.815  10.452  69.665  1.00 50.02 LIG 0.16  C 
BRANCH 44 45
ATOM     45  CG  ASP D   9      23.961  10.090  71.114  1.00 50.84 LIG 0.17  C 
ATOM     46 OD1  ASP D   9      23.993  11.008  71.952  1.00 53.44 LIG-0.65  OA
ATOM     47 OD2  ASP D   9      24.025   8.907  71.518  1.00 53.75 LIG-0.65  OA
ENDBRANCH 44 45
ENDBRANCH 42 44
ENDBRANCH 40 42
ENDBRANCH 33 38
ENDBRANCH 30 33
ENDBRANCH 1 29
TORSDOF 19
ENDMDL
MODEL 66
USER: ADFR SOLUTION from run 199
USER: SCORE 15.695962 LL:  -4.569 LR: -11.813 RR:   0.000 FEB:  -6.145
USER: RMSD 10.837618
USER: SEED 198
USER: STATUS no improvement in best in 8 clusters for 5 generations
USER: GENES 21
USER: genes 0 Translation |==|  0.49020 0.48074 0.64660
USER: genes 1 Rotation |==|  0.69185 0.31493 0.08360 0.57453
USER: genes 2 Torsion [N]-CA--C-[N] |==|  0.86698
USER: genes 3 Torsion [C]-N--CA-[C] |==|  0.67301
USER: genes 4 Torsion [N]-CA--C-[N] |==|  0.45542
USER: genes 5 Torsion [C]-N--CA-[CB] |==|  0.93218
USER: genes 6 Torsion [N]-CA--CB-[CG1] |==|  0.81554
USER: genes 7 Torsion [CA]-CB--CG1-[CD1] |==|  0.93790
USER: genes 8 Torsion [N]-CA--C-[OXT] |==|  0.74523
USER: genes 9 Torsion [N]-CA--CB-[CG] |==|  0.54294
USER: genes 10 Torsion [CA]-CB--CG-[CD2] |==|  0.61656
USER: genes 11 Torsion [C]-CA--CB-[CG] |==|  0.24077
USER: genes 12 Torsion [CA]-CB--CG-[CD1] |==|  0.07097
USER: genes 13 Torsion [C]-CA--N-[C] |==|  0.72027
USER: genes 14 Torsion [N]-C--CA-[N] |==|  0.47057
USER: genes 15 Torsion [C]-CA--CB-[CG] |==|  0.26693
USER: genes 16 Torsion [CA]-CB--CG-[CD2] |==|  0.04235
USER: genes 17 Torsion [C]-CA--N-[C] |==|  0.69272
USER: genes 18 Torsion [N]-C--CA-[N] |==|  0.36411
USER: genes 19 Torsion [C]-CA--CB-[CG] |==|  0.71423
USER: genes 20 Torsion [CA]-CB--CG-[OD1] |==|  0.34281
ROOT
ATOM      1  CA  LEU D  11      18.591   6.668  66.190  1.00 47.89 LIG 0.18  C 
ENDROOT
BRANCH 1 2
ATOM      2  C   LEU D  11      19.920   7.260  66.640  1.00 48.14 LIG 0.24  C 
ATOM      3 O    LEU D  11      20.835   6.540  67.016  1.00 47.13 LIG-0.27  OA
ATOM      4  N   HIS D  12      20.003   8.586  66.636  1.00 49.28 LIG-0.35  N 
ATOM      5 H    HIS D  12      19.377   9.111  66.367  1.00 49.28 LIG 0.16  HD
BRANCH 4 6
ATOM      6  CA  HIS D  12      21.210   9.258  67.105  1.00 50.49 LIG 0.18  C 
BRANCH 6 7
ATOM      7  C   HIS D  12      20.932  10.137  68.323  1.00 51.38 LIG 0.24  C 
ATOM      8  N   ILE D  13      22.012  10.504  68.993  1.00 53.16 LIG-0.34  N 
ATOM      9 H    ILE D  13      22.795  10.232  68.763  1.00 53.16 LIG 0.16  HD
ATOM     10 O    HIS D  12      19.794  10.466  68.622  1.00 51.57 LIG-0.27  OA
BRANCH 8 11
ATOM     11  CA  ILE D  13      22.058  11.384  70.173  1.00 55.12 LIG 0.19  C 
BRANCH 11 12
ATOM     12  CB  ILE D  13      20.836  12.366  70.279  1.00 55.01 LIG 0.01  C 
ATOM     13  CG2 ILE D  13      20.766  13.086  71.639  1.00 56.15 LIG 0.01  C 
BRANCH 12 14
ATOM     14  CG1 ILE D  13      20.873  13.378  69.130  1.00 55.50 LIG 0.00  C 
ATOM     15  CD1 ILE D  13      22.279  13.578  68.501  1.00 55.45 LIG 0.01  C 
ENDBRANCH 12 14
ENDBRANCH 11 12
BRANCH 11 16
ATOM     16  C   ILE D  13      22.453  10.785  71.526  1.00 55.63 LIG 0.20  C 
ATOM     17 O    ILE D  13      23.636  10.698  71.866  1.00 56.94 LIG-0.65  OA
ATOM     18 OXT  ILE D  13      21.546  10.365  72.258  1.00 55.86 LIG-0.65  OA
ENDBRANCH 11 16
ENDBRANCH 8 11
ENDBRANCH 6 7
BRANCH 6 19
ATOM     19  CB  HIS D  12      21.852  10.087  65.991  1.00 50.55 LIG 0.10  C 
BRANCH 19 20
ATOM     20  CG  HIS D  12      23.260  10.500  66.281  1.00 49.61 LIG 0.06  A 
ATOM     21  CD2 HIS D  12      23.907  11.672  66.082  1.00 48.49 LIG 0.14  A 
ATOM     22 NE2  HIS D  12      25.192  11.507  66.534  1.00 48.62 LIG-0.25  NA
ATOM     23  CE1 HIS D  12      25.325  10.286  67.018  1.00 49.12 LIG 0.23  A 
ATOM     24 ND1  HIS D  12      24.174   9.655  66.873  1.00 49.92 LIG-0.24  NA
ENDBRANCH 19 20
ENDBRANCH 6 19
ENDBRANCH 4 6
ENDBRANCH 1 2
BRANCH 1 25
ATOM     25  CB  LEU D  11      18.497   6.833  64.677  1.00 47.69 LIG 0.04  C 
BRANCH 25 26
ATOM     26  CG  LEU D  11      19.106   5.760  63.766  1.00 48.05 LIG-0.02  C 
ATOM     27  CD1 LEU D  11      19.157   4.424  64.493  1.00 46.53 LIG 0.01  C 
ATOM     28  CD2 LEU D  11      18.380   5.630  62.449  1.00 50.43 LIG 0.01  C 
ENDBRANCH 25 26
ENDBRANCH 1 25
BRANCH 1 29
ATOM     29  N   LEU D  11      17.436   7.291  66.819  1.00 47.51 LIG-0.35  N 
ATOM     30  C   LEU D  10      16.785   6.739  67.845  1.00 47.80 LIG 0.24  C 
ATOM     31 O    LEU D  10      17.143   5.693  68.405  1.00 47.07 LIG-0.27  OA
ATOM     32 H    LEU D  11      17.213   8.044  66.469  1.00 47.51 LIG 0.16  HD
BRANCH 30 33
ATOM     33  CA  LEU D  10      15.535   7.479  68.303  1.00 47.63 LIG 0.18  C 
BRANCH 33 34
ATOM     34  CB  LEU D  10      15.886   8.842  68.892  1.00 47.29 LIG 0.04  C 
BRANCH 34 35
ATOM     35  CG  LEU D  10      15.762  10.000  67.894  1.00 46.92 LIG-0.02  C 
ATOM     36  CD1 LEU D  10      17.128  10.530  67.462  1.00 46.83 LIG 0.01  C 
ATOM     37  CD2 LEU D  10      14.985   9.594  66.687  1.00 45.50 LIG 0.01  C 
ENDBRANCH 34 35
ENDBRANCH 33 34
BRANCH 33 38
ATOM     38  N   LEU D  10      14.790   6.658  69.243  1.00 47.82 LIG-0.35  N 
ATOM     39 H    LEU D  10      15.169   6.548  70.007  1.00 47.82 LIG 0.16  HD
ATOM     40  C   ASP D   9      13.617   6.139  68.903  1.00 48.63 LIG 0.26  C 
ATOM     41 O    ASP D   9      13.103   6.299  67.798  1.00 48.10 LIG-0.27  OA
BRANCH 40 42
ATOM     42  CA  ASP D   9      12.931   5.312  69.958  1.00 49.27 LIG 0.41  C 
ATOM     43  N   ASP D   9      11.525   5.783  70.055  1.00 49.86 LIG 0.61  N 
BRANCH 42 44
ATOM     44  CB  ASP D   9      12.979   3.848  69.543  1.00 50.02 LIG 0.16  C 
BRANCH 44 45
ATOM     45  CG  ASP D   9      11.671   3.359  68.993  1.00 50.84 LIG 0.17  C 
ATOM     46 OD1  ASP D   9      11.657   2.868  67.851  1.00 53.44 LIG-0.65  OA
ATOM     47 OD2  ASP D   9      10.601   3.400  69.641  1.00 53.75 LIG-0.65  OA
ENDBRANCH 44 45
ENDBRANCH 42 44
ENDBRANCH 40 42
ENDBRANCH 33 38
ENDBRANCH 30 33
ENDBRANCH 1 29
TORSDOF 19
ENDMDL
MODEL 67
USER: ADFR SOLUTION from run 164
USER: SCORE 15.326914 LL:  -4.225 LR: -11.799 RR:   0.000 FEB:  -6.131
USER: RMSD 11.250530
USER: SEED 163
USER: STATUS no improvement in best in 7 clusters for 5 generations
USER: GENES 21
USER: genes 0 Translation |==|  0.53337 0.51013 0.60319
USER: genes 1 Rotation |==|  0.50435 0.94741 0.30282 0.60455
USER: genes 2 Torsion [N]-CA--C-[N] |==|  0.30857
USER: genes 3 Torsion [C]-N--CA-[C] |==|  0.73251
USER: genes 4 Torsion [N]-CA--C-[N] |==|  0.43348
USER: genes 5 Torsion [C]-N--CA-[CB] |==|  0.09705
USER: genes 6 Torsion [N]-CA--CB-[CG1] |==|  0.70819
USER: genes 7 Torsion [CA]-CB--CG1-[CD1] |==|  0.90720
USER: genes 8 Torsion [N]-CA--C-[OXT] |==|  0.92195
USER: genes 9 Torsion [N]-CA--CB-[CG] |==|  0.59573
USER: genes 10 Torsion [CA]-CB--CG-[CD2] |==|  0.36562
USER: genes 11 Torsion [C]-CA--CB-[CG] |==|  0.83593
USER: genes 12 Torsion [CA]-CB--CG-[CD1] |==|  0.44216
USER: genes 13 Torsion [C]-CA--N-[C] |==|  0.54446
USER: genes 14 Torsion [N]-C--CA-[N] |==|  0.41367
USER: genes 15 Torsion [C]-CA--CB-[CG] |==|  0.36572
USER: genes 16 Torsion [CA]-CB--CG-[CD2] |==|  0.61713
USER: genes 17 Torsion [C]-CA--N-[C] |==|  0.77108
USER: genes 18 Torsion [N]-C--CA-[N] |==|  0.84153
USER: genes 19 Torsion [C]-CA--CB-[CG] |==|  0.71219
USER: genes 20 Torsion [CA]-CB--CG-[OD1] |==|  0.81326
ROOT
ATOM      1  CA  LEU D  11      19.433   7.219  65.213  1.00 47.89 LIG 0.18  C 
ENDROOT
BRANCH 1 2
ATOM      2  C   LEU D  11      20.532   7.706  66.147  1.00 48.14 LIG 0.24  C 
ATOM      3 O    LEU D  11      20.990   6.976  67.016  1.00 47.13 LIG-0.27  OA
ATOM      4  N   HIS D  12      20.924   8.965  65.986  1.00 49.28 LIG-0.35  N 
ATOM      5 H    HIS D  12      20.624   9.493  65.378  1.00 49.28 LIG 0.16  HD
BRANCH 4 6
ATOM      6  CA  HIS D  12      21.929   9.551  66.867  1.00 50.49 LIG 0.18  C 
BRANCH 6 7
ATOM      7  C   HIS D  12      21.291  10.342  68.007  1.00 51.38 LIG 0.24  C 
ATOM      8  N   ILE D  13      22.054  10.471  69.080  1.00 53.16 LIG-0.34  N 
ATOM      9 H    ILE D  13      22.831  10.105  69.123  1.00 53.16 LIG 0.16  HD
ATOM     10 O    HIS D  12      20.168  10.813  67.903  1.00 51.57 LIG-0.27  OA
BRANCH 8 11
ATOM     11  CA  ILE D  13      21.727  11.216  70.308  1.00 55.12 LIG 0.19  C 
BRANCH 11 12
ATOM     12  CB  ILE D  13      20.206  11.159  70.697  1.00 55.01 LIG 0.01  C 
ATOM     13  CG2 ILE D  13      19.982  10.780  72.173  1.00 56.15 LIG 0.01  C 
BRANCH 12 14
ATOM     14  CG1 ILE D  13      19.529  12.494  70.371  1.00 55.50 LIG 0.00  C 
ATOM     15  CD1 ILE D  13      20.446  13.735  70.544  1.00 55.45 LIG 0.01  C 
ENDBRANCH 12 14
ENDBRANCH 11 12
BRANCH 11 16
ATOM     16  C   ILE D  13      22.652  11.084  71.521  1.00 55.63 LIG 0.20  C 
ATOM     17 O    ILE D  13      22.780  12.005  72.331  1.00 56.94 LIG-0.65  OA
ATOM     18 OXT  ILE D  13      23.289  10.028  71.649  1.00 55.86 LIG-0.65  OA
ENDBRANCH 11 16
ENDBRANCH 8 11
ENDBRANCH 6 7
BRANCH 6 19
ATOM     19  CB  HIS D  12      22.900  10.440  66.088  1.00 50.55 LIG 0.10  C 
BRANCH 19 20
ATOM     20  CG  HIS D  12      24.300  10.412  66.615  1.00 49.61 LIG 0.06  A 
ATOM     21  CD2 HIS D  12      25.488  10.248  65.986  1.00 48.49 LIG 0.14  A 
ATOM     22 NE2  HIS D  12      26.465  10.310  66.947  1.00 48.62 LIG-0.25  NA
ATOM     23  CE1 HIS D  12      25.902  10.529  68.121  1.00 49.12 LIG 0.23  A 
ATOM     24 ND1  HIS D  12      24.594  10.590  67.949  1.00 49.92 LIG-0.24  NA
ENDBRANCH 19 20
ENDBRANCH 6 19
ENDBRANCH 4 6
ENDBRANCH 1 2
BRANCH 1 25
ATOM     25  CB  LEU D  11      18.324   6.620  66.071  1.00 47.69 LIG 0.04  C 
BRANCH 25 26
ATOM     26  CG  LEU D  11      18.648   5.443  66.999  1.00 48.05 LIG-0.02  C 
ATOM     27  CD1 LEU D  11      17.600   5.340  68.099  1.00 46.53 LIG 0.01  C 
ATOM     28  CD2 LEU D  11      18.782   4.134  66.258  1.00 50.43 LIG 0.01  C 
ENDBRANCH 25 26
ENDBRANCH 1 25
BRANCH 1 29
ATOM     29  N   LEU D  11      19.889   6.229  64.249  1.00 47.51 LIG-0.35  N 
ATOM     30  C   LEU D  10      19.191   5.904  63.159  1.00 47.80 LIG 0.24  C 
ATOM     31 O    LEU D  10      18.137   6.463  62.825  1.00 47.07 LIG-0.27  OA
ATOM     32 H    LEU D  11      20.647   5.874  64.447  1.00 47.51 LIG 0.16  HD
BRANCH 30 33
ATOM     33  CA  LEU D  10      19.770   4.770  62.323  1.00 47.63 LIG 0.18  C 
BRANCH 33 34
ATOM     34  CB  LEU D  10      20.791   5.292  61.317  1.00 47.29 LIG 0.04  C 
BRANCH 34 35
ATOM     35  CG  LEU D  10      22.107   4.506  61.302  1.00 46.92 LIG-0.02  C 
ATOM     36  CD1 LEU D  10      22.157   3.497  60.157  1.00 46.83 LIG 0.01  C 
ATOM     37  CD2 LEU D  10      23.283   5.420  61.208  1.00 45.50 LIG 0.01  C 
ENDBRANCH 34 35
ENDBRANCH 33 34
BRANCH 33 38
ATOM     38  N   LEU D  10      18.697   4.034  61.675  1.00 47.82 LIG-0.35  N 
ATOM     39 H    LEU D  10      18.543   4.261  60.860  1.00 47.82 LIG 0.16  HD
ATOM     40  C   ASP D   9      18.032   3.092  62.333  1.00 48.63 LIG 0.26  C 
ATOM     41 O    ASP D   9      18.261   2.797  63.503  1.00 48.10 LIG-0.27  OA
BRANCH 40 42
ATOM     42  CA  ASP D   9      16.946   2.390  61.560  1.00 49.27 LIG 0.41  C 
ATOM     43  N   ASP D   9      15.994   3.426  61.081  1.00 49.86 LIG 0.61  N 
BRANCH 42 44
ATOM     44  CB  ASP D   9      17.575   1.655  60.386  1.00 50.02 LIG 0.16  C 
BRANCH 44 45
ATOM     45  CG  ASP D   9      17.360   2.360  59.079  1.00 50.84 LIG 0.17  C 
ATOM     46 OD1  ASP D   9      16.205   2.430  58.628  1.00 53.44 LIG-0.65  OA
ATOM     47 OD2  ASP D   9      18.288   2.904  58.438  1.00 53.75 LIG-0.65  OA
ENDBRANCH 44 45
ENDBRANCH 42 44
ENDBRANCH 40 42
ENDBRANCH 33 38
ENDBRANCH 30 33
ENDBRANCH 1 29
TORSDOF 19
ENDMDL
MODEL 68
USER: ADFR SOLUTION from run 54
USER: SCORE 15.388789 LL:  -4.624 LR: -11.781 RR:   0.000 FEB:  -6.113
USER: RMSD 7.050108
USER: SEED 53
USER: STATUS no improvement in best in 6 clusters for 5 generations
USER: GENES 21
USER: genes 0 Translation |==|  0.53309 0.33994 0.41686
USER: genes 1 Rotation |==|  0.15122 0.25690 0.24673 0.57148
USER: genes 2 Torsion [N]-CA--C-[N] |==|  0.68715
USER: genes 3 Torsion [C]-N--CA-[C] |==|  0.62543
USER: genes 4 Torsion [N]-CA--C-[N] |==|  0.48333
USER: genes 5 Torsion [C]-N--CA-[CB] |==|  0.54889
USER: genes 6 Torsion [N]-CA--CB-[CG1] |==|  0.94066
USER: genes 7 Torsion [CA]-CB--CG1-[CD1] |==|  0.24552
USER: genes 8 Torsion [N]-CA--C-[OXT] |==|  0.85669
USER: genes 9 Torsion [N]-CA--CB-[CG] |==|  0.96240
USER: genes 10 Torsion [CA]-CB--CG-[CD2] |==|  0.78931
USER: genes 11 Torsion [C]-CA--CB-[CG] |==|  0.40117
USER: genes 12 Torsion [CA]-CB--CG-[CD1] |==|  0.94938
USER: genes 13 Torsion [C]-CA--N-[C] |==|  0.68840
USER: genes 14 Torsion [N]-C--CA-[N] |==|  0.06702
USER: genes 15 Torsion [C]-CA--CB-[CG] |==|  0.49524
USER: genes 16 Torsion [CA]-CB--CG-[CD2] |==|  0.28868
USER: genes 17 Torsion [C]-CA--N-[C] |==|  0.17647
USER: genes 18 Torsion [N]-C--CA-[N] |==|  0.95073
USER: genes 19 Torsion [C]-CA--CB-[CG] |==|  0.76822
USER: genes 20 Torsion [CA]-CB--CG-[OD1] |==|  0.77878
ROOT
ATOM      1  CA  LEU D  11      19.427   4.028  61.020  1.00 47.89 LIG 0.18  C 
ENDROOT
BRANCH 1 2
ATOM      2  C   LEU D  11      19.021   2.974  59.998  1.00 48.14 LIG 0.24  C 
ATOM      3 O    LEU D  11      19.848   2.212  59.517  1.00 47.13 LIG-0.27  OA
ATOM      4  N   HIS D  12      17.741   2.966  59.642  1.00 49.28 LIG-0.35  N 
ATOM      5 H    HIS D  12      17.141   3.485  59.973  1.00 49.28 LIG 0.16  HD
BRANCH 4 6
ATOM      6  CA  HIS D  12      17.258   2.037  58.625  1.00 50.49 LIG 0.18  C 
BRANCH 6 7
ATOM      7  C   HIS D  12      16.341   2.727  57.617  1.00 51.38 LIG 0.24  C 
ATOM      8  N   ILE D  13      15.971   1.965  56.601  1.00 53.16 LIG-0.34  N 
ATOM      9 H    ILE D  13      16.259   1.160  56.517  1.00 53.16 LIG 0.16  HD
ATOM     10 O    HIS D  12      15.988   3.887  57.770  1.00 51.57 LIG-0.27  OA
BRANCH 8 11
ATOM     11  CA  ILE D  13      15.059   2.340  55.507  1.00 55.12 LIG 0.19  C 
BRANCH 11 12
ATOM     12  CB  ILE D  13      14.483   1.112  54.713  1.00 55.01 LIG 0.01  C 
ATOM     13  CG2 ILE D  13      14.282   1.411  53.216  1.00 56.15 LIG 0.01  C 
BRANCH 12 14
ATOM     14  CG1 ILE D  13      15.386  -0.110  54.907  1.00 55.50 LIG 0.00  C 
ATOM     15  CD1 ILE D  13      15.032  -0.976  56.146  1.00 55.45 LIG 0.01  C 
ENDBRANCH 12 14
ENDBRANCH 11 12
BRANCH 11 16
ATOM     16  C   ILE D  13      14.008   3.425  55.760  1.00 55.63 LIG 0.20  C 
ATOM     17 O    ILE D  13      13.907   4.403  55.016  1.00 56.94 LIG-0.65  OA
ATOM     18 OXT  ILE D  13      13.278   3.300  56.754  1.00 55.86 LIG-0.65  OA
ENDBRANCH 11 16
ENDBRANCH 8 11
ENDBRANCH 6 7
BRANCH 6 19
ATOM     19  CB  HIS D  12      16.539   0.845  59.260  1.00 50.55 LIG 0.10  C 
BRANCH 19 20
ATOM     20  CG  HIS D  12      16.764   0.720  60.734  1.00 49.61 LIG 0.06  A 
ATOM     21  CD2 HIS D  12      17.832   0.283  61.441  1.00 48.49 LIG 0.14  A 
ATOM     22 NE2  HIS D  12      17.506   0.383  62.770  1.00 48.62 LIG-0.25  NA
ATOM     23  CE1 HIS D  12      16.290   0.887  62.878  1.00 49.12 LIG 0.23  A 
ATOM     24 ND1  HIS D  12      15.818   1.095  61.663  1.00 49.92 LIG-0.24  NA
ENDBRANCH 19 20
ENDBRANCH 6 19
ENDBRANCH 4 6
ENDBRANCH 1 2
BRANCH 1 25
ATOM     25  CB  LEU D  11      18.155   4.686  61.541  1.00 47.69 LIG 0.04  C 
BRANCH 25 26
ATOM     26  CG  LEU D  11      18.082   5.117  63.012  1.00 48.05 LIG-0.02  C 
ATOM     27  CD1 LEU D  11      19.157   4.404  63.819  1.00 46.53 LIG 0.01  C 
ATOM     28  CD2 LEU D  11      18.179   6.614  63.187  1.00 50.43 LIG 0.01  C 
ENDBRANCH 25 26
ENDBRANCH 1 25
BRANCH 1 29
ATOM     29  N   LEU D  11      20.315   5.047  60.480  1.00 47.51 LIG-0.35  N 
ATOM     30  C   LEU D  10      21.590   5.169  60.854  1.00 47.80 LIG 0.24  C 
ATOM     31 O    LEU D  10      22.157   4.388  61.632  1.00 47.07 LIG-0.27  OA
ATOM     32 H    LEU D  11      19.943   5.560  59.900  1.00 47.51 LIG 0.16  HD
BRANCH 30 33
ATOM     33  CA  LEU D  10      22.336   6.359  60.266  1.00 47.63 LIG 0.18  C 
BRANCH 33 34
ATOM     34  CB  LEU D  10      23.398   6.876  61.231  1.00 47.29 LIG 0.04  C 
BRANCH 34 35
ATOM     35  CG  LEU D  10      24.217   8.051  60.683  1.00 46.92 LIG-0.02  C 
ATOM     36  CD1 LEU D  10      24.121   8.154  59.162  1.00 46.83 LIG 0.01  C 
ATOM     37  CD2 LEU D  10      23.788   9.342  61.295  1.00 45.50 LIG 0.01  C 
ENDBRANCH 34 35
ENDBRANCH 33 34
BRANCH 33 38
ATOM     38  N   LEU D  10      21.392   7.399  59.891  1.00 47.82 LIG-0.35  N 
ATOM     39 H    LEU D  10      21.364   7.577  59.050  1.00 47.82 LIG 0.16  HD
ATOM     40  C   ASP D   9      20.650   8.001  60.812  1.00 48.63 LIG 0.26  C 
ATOM     41 O    ASP D   9      20.719   7.739  62.011  1.00 48.10 LIG-0.27  OA
BRANCH 40 42
ATOM     42  CA  ASP D   9      19.702   9.057  60.309  1.00 49.27 LIG 0.41  C 
ATOM     43  N   ASP D   9      20.150   9.453  58.949  1.00 49.86 LIG 0.61  N 
BRANCH 42 44
ATOM     44  CB  ASP D   9      18.297   8.475  60.262  1.00 50.02 LIG 0.16  C 
BRANCH 44 45
ATOM     45  CG  ASP D   9      18.034   7.695  59.008  1.00 50.84 LIG 0.17  C 
ATOM     46 OD1  ASP D   9      17.759   8.321  57.970  1.00 53.44 LIG-0.65  OA
ATOM     47 OD2  ASP D   9      18.107   6.447  58.954  1.00 53.75 LIG-0.65  OA
ENDBRANCH 44 45
ENDBRANCH 42 44
ENDBRANCH 40 42
ENDBRANCH 33 38
ENDBRANCH 30 33
ENDBRANCH 1 29
TORSDOF 19
ENDMDL
MODEL 69
USER: ADFR SOLUTION from run 136
USER: SCORE 15.643483 LL:  -4.597 LR: -11.781 RR:   0.000 FEB:  -6.113
USER: RMSD 6.614418
USER: SEED 135
USER: STATUS no improvement in best in 7 clusters for 5 generations
USER: GENES 21
USER: genes 0 Translation |==|  0.46760 0.23347 0.41141
USER: genes 1 Rotation |==|  0.11764 0.44718 0.28203 0.73130
USER: genes 2 Torsion [N]-CA--C-[N] |==|  0.81237
USER: genes 3 Torsion [C]-N--CA-[C] |==|  0.83333
USER: genes 4 Torsion [N]-CA--C-[N] |==|  0.35783
USER: genes 5 Torsion [C]-N--CA-[CB] |==|  0.36593
USER: genes 6 Torsion [N]-CA--CB-[CG1] |==|  0.21926
USER: genes 7 Torsion [CA]-CB--CG1-[CD1] |==|  0.62222
USER: genes 8 Torsion [N]-CA--C-[OXT] |==|  0.59353
USER: genes 9 Torsion [N]-CA--CB-[CG] |==|  0.79581
USER: genes 10 Torsion [CA]-CB--CG-[CD2] |==|  0.52148
USER: genes 11 Torsion [C]-CA--CB-[CG] |==|  0.25502
USER: genes 12 Torsion [CA]-CB--CG-[CD1] |==|  0.41149
USER: genes 13 Torsion [C]-CA--N-[C] |==|  0.20712
USER: genes 14 Torsion [N]-C--CA-[N] |==|  0.43013
USER: genes 15 Torsion [C]-CA--CB-[CG] |==|  0.31391
USER: genes 16 Torsion [CA]-CB--CG-[CD2] |==|  0.20568
USER: genes 17 Torsion [C]-CA--N-[C] |==|  0.80384
USER: genes 18 Torsion [N]-C--CA-[N] |==|  0.85327
USER: genes 19 Torsion [C]-CA--CB-[CG] |==|  0.76878
USER: genes 20 Torsion [CA]-CB--CG-[OD1] |==|  0.79991
ROOT
ATOM      1  CA  LEU D  11      18.150   2.032  60.898  1.00 47.89 LIG 0.18  C 
ENDROOT
BRANCH 1 2
ATOM      2  C   LEU D  11      16.939   2.042  59.975  1.00 48.14 LIG 0.24  C 
ATOM      3 O    LEU D  11      16.796   1.184  59.114  1.00 47.13 LIG-0.27  OA
ATOM      4  N   HIS D  12      16.086   3.047  60.136  1.00 49.28 LIG-0.35  N 
ATOM      5 H    HIS D  12      16.161   3.656  60.740  1.00 49.28 LIG 0.16  HD
BRANCH 4 6
ATOM      6  CA  HIS D  12      14.924   3.186  59.265  1.00 50.49 LIG 0.18  C 
BRANCH 6 7
ATOM      7  C   HIS D  12      15.328   3.341  57.801  1.00 51.38 LIG 0.24  C 
ATOM      8  N   ILE D  13      14.716   2.512  56.971  1.00 53.16 LIG-0.34  N 
ATOM      9 H    ILE D  13      14.162   1.921  57.258  1.00 53.16 LIG 0.16  HD
ATOM     10 O    HIS D  12      16.147   4.179  57.454  1.00 51.57 LIG-0.27  OA
BRANCH 8 11
ATOM     11  CA  ILE D  13      14.867   2.462  55.507  1.00 55.12 LIG 0.19  C 
BRANCH 11 12
ATOM     12  CB  ILE D  13      15.111   1.015  54.945  1.00 55.01 LIG 0.01  C 
ATOM     13  CG2 ILE D  13      16.156   0.228  55.757  1.00 56.15 LIG 0.01  C 
BRANCH 12 14
ATOM     14  CG1 ILE D  13      13.787   0.247  54.876  1.00 55.50 LIG 0.00  C 
ATOM     15  CD1 ILE D  13      13.869  -1.215  55.390  1.00 55.45 LIG 0.01  C 
ENDBRANCH 12 14
ENDBRANCH 11 12
BRANCH 11 16
ATOM     16  C   ILE D  13      13.907   3.279  54.637  1.00 55.63 LIG 0.20  C 
ATOM     17 O    ILE D  13      13.448   4.354  55.029  1.00 56.94 LIG-0.65  OA
ATOM     18 OXT  ILE D  13      13.586   2.810  53.536  1.00 55.86 LIG-0.65  OA
ENDBRANCH 11 16
ENDBRANCH 8 11
ENDBRANCH 6 7
BRANCH 6 19
ATOM     19  CB  HIS D  12      14.044   4.361  59.697  1.00 50.55 LIG 0.10  C 
BRANCH 19 20
ATOM     20  CG  HIS D  12      13.259   4.102  60.943  1.00 49.61 LIG 0.06  A 
ATOM     21  CD2 HIS D  12      12.287   4.821  61.553  1.00 48.49 LIG 0.14  A 
ATOM     22 NE2  HIS D  12      11.905   4.119  62.668  1.00 48.62 LIG-0.25  NA
ATOM     23  CE1 HIS D  12      12.598   2.997  62.730  1.00 49.12 LIG 0.23  A 
ATOM     24 ND1  HIS D  12      13.427   2.964  61.703  1.00 49.92 LIG-0.24  NA
ENDBRANCH 19 20
ENDBRANCH 6 19
ENDBRANCH 4 6
ENDBRANCH 1 2
BRANCH 1 25
ATOM     25  CB  LEU D  11      17.643   2.113  62.333  1.00 47.69 LIG 0.04  C 
BRANCH 25 26
ATOM     26  CG  LEU D  11      17.378   0.817  63.109  1.00 48.05 LIG-0.02  C 
ATOM     27  CD1 LEU D  11      17.653   1.029  64.591  1.00 46.53 LIG 0.01  C 
ATOM     28  CD2 LEU D  11      15.984   0.279  62.891  1.00 50.43 LIG 0.01  C 
ENDBRANCH 25 26
ENDBRANCH 1 25
BRANCH 1 29
ATOM     29  N   LEU D  11      19.078   3.125  60.648  1.00 47.51 LIG-0.35  N 
ATOM     30  C   LEU D  10      18.829   4.383  61.013  1.00 47.80 LIG 0.24  C 
ATOM     31 O    LEU D  10      17.830   4.728  61.661  1.00 47.07 LIG-0.27  OA
ATOM     32 H    LEU D  11      19.798   2.884  60.244  1.00 47.51 LIG 0.16  HD
BRANCH 30 33
ATOM     33  CA  LEU D  10      19.863   5.412  60.571  1.00 47.63 LIG 0.18  C 
BRANCH 33 34
ATOM     34  CB  LEU D  10      21.072   5.412  61.502  1.00 47.29 LIG 0.04  C 
BRANCH 34 35
ATOM     35  CG  LEU D  10      22.364   4.919  60.842  1.00 46.92 LIG-0.02  C 
ATOM     36  CD1 LEU D  10      22.157   3.605  60.091  1.00 46.83 LIG 0.01  C 
ATOM     37  CD2 LEU D  10      22.919   5.941  59.907  1.00 45.50 LIG 0.01  C 
ENDBRANCH 34 35
ENDBRANCH 33 34
BRANCH 33 38
ATOM     38  N   LEU D  10      19.248   6.725  60.481  1.00 47.82 LIG-0.35  N 
ATOM     39 H    LEU D  10      19.493   7.283  61.087  1.00 47.82 LIG 0.16  HD
ATOM     40  C   ASP D   9      18.378   6.997  59.516  1.00 48.63 LIG 0.26  C 
ATOM     41 O    ASP D   9      18.032   6.178  58.667  1.00 48.10 LIG-0.27  OA
BRANCH 40 42
ATOM     42  CA  ASP D   9      17.810   8.392  59.514  1.00 49.27 LIG 0.41  C 
ATOM     43  N   ASP D   9      17.261   8.656  60.870  1.00 49.86 LIG 0.61  N 
BRANCH 42 44
ATOM     44  CB  ASP D   9      18.923   9.377  59.185  1.00 50.02 LIG 0.16  C 
BRANCH 44 45
ATOM     45  CG  ASP D   9      19.742   9.747  60.386  1.00 50.84 LIG 0.17  C 
ATOM     46 OD1  ASP D   9      19.230  10.485  61.246  1.00 53.44 LIG-0.65  OA
ATOM     47 OD2  ASP D   9      20.905   9.326  60.574  1.00 53.75 LIG-0.65  OA
ENDBRANCH 44 45
ENDBRANCH 42 44
ENDBRANCH 40 42
ENDBRANCH 33 38
ENDBRANCH 30 33
ENDBRANCH 1 29
TORSDOF 19
ENDMDL
MODEL 70
USER: ADFR SOLUTION from run 19
USER: SCORE 16.928653 LL:  -6.009 LR: -11.740 RR:   0.000 FEB:  -6.072
USER: RMSD 9.340810
USER: SEED 18
USER: STATUS searching
USER: GENES 21
USER: genes 0 Translation |==|  0.33187 0.27643 0.44667
USER: genes 1 Rotation |==|  0.55242 0.09777 0.36876 0.76123
USER: genes 2 Torsion [N]-CA--C-[N] |==|  0.93515
USER: genes 3 Torsion [C]-N--CA-[C] |==|  0.73889
USER: genes 4 Torsion [N]-CA--C-[N] |==|  0.78356
USER: genes 5 Torsion [C]-N--CA-[CB] |==|  0.19339
USER: genes 6 Torsion [N]-CA--CB-[CG1] |==|  0.07803
USER: genes 7 Torsion [CA]-CB--CG1-[CD1] |==|  0.56170
USER: genes 8 Torsion [N]-CA--C-[OXT] |==|  0.39696
USER: genes 9 Torsion [N]-CA--CB-[CG] |==|  0.88863
USER: genes 10 Torsion [CA]-CB--CG-[CD2] |==|  0.44990
USER: genes 11 Torsion [C]-CA--CB-[CG] |==|  0.18467
USER: genes 12 Torsion [CA]-CB--CG-[CD1] |==|  0.75397
USER: genes 13 Torsion [C]-CA--N-[C] |==|  0.77017
USER: genes 14 Torsion [N]-C--CA-[N] |==|  0.87112
USER: genes 15 Torsion [C]-CA--CB-[CG] |==|  0.80323
USER: genes 16 Torsion [CA]-CB--CG-[CD2] |==|  0.68422
USER: genes 17 Torsion [C]-CA--N-[C] |==|  0.82335
USER: genes 18 Torsion [N]-C--CA-[N] |==|  0.33354
USER: genes 19 Torsion [C]-CA--CB-[CG] |==|  0.66440
USER: genes 20 Torsion [CA]-CB--CG-[OD1] |==|  0.32562
ROOT
ATOM      1  CA  LEU D  11      15.504   2.837  61.691  1.00 47.89 LIG 0.18  C 
ENDROOT
BRANCH 1 2
ATOM      2  C   LEU D  11      16.561   3.211  60.661  1.00 48.14 LIG 0.24  C 
ATOM      3 O    LEU D  11      17.739   3.310  60.975  1.00 47.13 LIG-0.27  OA
ATOM      4  N   HIS D  12      16.121   3.458  59.432  1.00 49.28 LIG-0.35  N 
ATOM      5 H    HIS D  12      15.300   3.386  59.186  1.00 49.28 LIG 0.16  HD
BRANCH 4 6
ATOM      6  CA  HIS D  12      17.042   3.883  58.383  1.00 50.49 LIG 0.18  C 
BRANCH 6 7
ATOM      7  C   HIS D  12      17.102   5.404  58.262  1.00 51.38 LIG 0.24  C 
ATOM      8  N   ILE D  13      16.077   5.945  57.624  1.00 53.16 LIG-0.34  N 
ATOM      9 H    ILE D  13      15.454   5.459  57.285  1.00 53.16 LIG 0.16  HD
ATOM     10 O    HIS D  12      18.030   6.043  58.736  1.00 51.57 LIG-0.27  OA
BRANCH 8 11
ATOM     11  CA  ILE D  13      15.840   7.381  57.398  1.00 55.12 LIG 0.19  C 
BRANCH 11 12
ATOM     12  CB  ILE D  13      16.848   8.037  56.386  1.00 55.01 LIG 0.01  C 
ATOM     13  CG2 ILE D  13      18.030   8.732  57.087  1.00 56.15 LIG 0.01  C 
BRANCH 12 14
ATOM     14  CG1 ILE D  13      17.349   6.988  55.388  1.00 55.50 LIG 0.00  C 
ATOM     15  CD1 ILE D  13      18.702   7.343  54.713  1.00 55.45 LIG 0.01  C 
ENDBRANCH 12 14
ENDBRANCH 11 12
BRANCH 11 16
ATOM     16  C   ILE D  13      14.403   7.871  57.200  1.00 55.63 LIG 0.20  C 
ATOM     17 O    ILE D  13      13.585   7.208  56.556  1.00 56.94 LIG-0.65  OA
ATOM     18 OXT  ILE D  13      14.095   8.968  57.686  1.00 55.86 LIG-0.65  OA
ENDBRANCH 11 16
ENDBRANCH 8 11
ENDBRANCH 6 7
BRANCH 6 19
ATOM     19  CB  HIS D  12      16.672   3.262  57.034  1.00 50.55 LIG 0.10  C 
BRANCH 19 20
ATOM     20  CG  HIS D  12      16.236   1.834  57.127  1.00 49.61 LIG 0.06  A 
ATOM     21  CD2 HIS D  12      15.546   1.053  56.263  1.00 48.49 LIG 0.14  A 
ATOM     22 NE2  HIS D  12      15.423  -0.184  56.846  1.00 48.62 LIG-0.25  NA
ATOM     23  CE1 HIS D  12      16.037  -0.171  58.015  1.00 49.12 LIG 0.23  A 
ATOM     24 ND1  HIS D  12      16.532   1.037  58.211  1.00 49.92 LIG-0.24  NA
ENDBRANCH 19 20
ENDBRANCH 6 19
ENDBRANCH 4 6
ENDBRANCH 1 2
BRANCH 1 25
ATOM     25  CB  LEU D  11      15.488   1.317  61.811  1.00 47.69 LIG 0.04  C 
BRANCH 25 26
ATOM     26  CG  LEU D  11      16.712   0.599  62.392  1.00 48.05 LIG-0.02  C 
ATOM     27  CD1 LEU D  11      17.704   0.276  61.284  1.00 46.53 LIG 0.01  C 
ATOM     28  CD2 LEU D  11      17.376   1.380  63.500  1.00 50.43 LIG 0.01  C 
ENDBRANCH 25 26
ENDBRANCH 1 25
BRANCH 1 29
ATOM     29  N   LEU D  11      14.170   3.311  61.351  1.00 47.51 LIG-0.35  N 
ATOM     30  C   LEU D  10      13.756   4.553  61.610  1.00 47.80 LIG 0.24  C 
ATOM     31 O    LEU D  10      14.481   5.435  62.089  1.00 47.07 LIG-0.27  OA
ATOM     32 H    LEU D  11      13.677   2.719  60.970  1.00 47.51 LIG 0.16  HD
BRANCH 30 33
ATOM     33  CA  LEU D  10      12.295   4.838  61.284  1.00 47.63 LIG 0.18  C 
BRANCH 33 34
ATOM     34  CB  LEU D  10      11.370   4.276  62.359  1.00 47.29 LIG 0.04  C 
BRANCH 34 35
ATOM     35  CG  LEU D  10      11.283   2.745  62.365  1.00 46.92 LIG-0.02  C 
ATOM     36  CD1 LEU D  10      11.657   2.156  63.724  1.00 46.83 LIG 0.01  C 
ATOM     37  CD2 LEU D  10       9.918   2.279  61.983  1.00 45.50 LIG 0.01  C 
ENDBRANCH 34 35
ENDBRANCH 33 34
BRANCH 33 38
ATOM     38  N   LEU D  10      11.971   4.321  59.966  1.00 47.82 LIG-0.35  N 
ATOM     39 H    LEU D  10      11.381   3.695  59.956  1.00 47.82 LIG 0.16  HD
ATOM     40  C   ASP D   9      12.566   4.809  58.885  1.00 48.63 LIG 0.26  C 
ATOM     41 O    ASP D   9      13.418   5.695  58.924  1.00 48.10 LIG-0.27  OA
BRANCH 40 42
ATOM     42  CA  ASP D   9      12.148   4.204  57.570  1.00 49.27 LIG 0.41  C 
ATOM     43  N   ASP D   9      11.589   5.294  56.730  1.00 49.86 LIG 0.61  N 
BRANCH 42 44
ATOM     44  CB  ASP D   9      13.368   3.584  56.904  1.00 50.02 LIG 0.16  C 
BRANCH 44 45
ATOM     45  CG  ASP D   9      13.655   4.178  55.556  1.00 50.84 LIG 0.17  C 
ATOM     46 OD1  ASP D   9      14.730   4.779  55.391  1.00 53.44 LIG-0.65  OA
ATOM     47 OD2  ASP D   9      12.872   4.071  54.584  1.00 53.75 LIG-0.65  OA
ENDBRANCH 44 45
ENDBRANCH 42 44
ENDBRANCH 40 42
ENDBRANCH 33 38
ENDBRANCH 30 33
ENDBRANCH 1 29
TORSDOF 19
ENDMDL
MODEL 71
USER: ADFR SOLUTION from run 56
USER: SCORE 14.884511 LL:  -4.682 LR: -11.723 RR:   0.000 FEB:  -6.056
USER: RMSD 11.629606
USER: SEED 55
USER: STATUS searching
USER: GENES 21
USER: genes 0 Translation |==|  0.58640 0.60106 0.64531
USER: genes 1 Rotation |==|  0.39544 0.94258 0.30191 0.56282
USER: genes 2 Torsion [N]-CA--C-[N] |==|  0.92711
USER: genes 3 Torsion [C]-N--CA-[C] |==|  0.19703
USER: genes 4 Torsion [N]-CA--C-[N] |==|  0.32844
USER: genes 5 Torsion [C]-N--CA-[CB] |==|  0.76886
USER: genes 6 Torsion [N]-CA--CB-[CG1] |==|  0.52563
USER: genes 7 Torsion [CA]-CB--CG1-[CD1] |==|  0.64205
USER: genes 8 Torsion [N]-CA--C-[OXT] |==|  0.33145
USER: genes 9 Torsion [N]-CA--CB-[CG] |==|  0.48207
USER: genes 10 Torsion [CA]-CB--CG-[CD2] |==|  0.62214
USER: genes 11 Torsion [C]-CA--CB-[CG] |==|  0.52388
USER: genes 12 Torsion [CA]-CB--CG-[CD1] |==|  0.87225
USER: genes 13 Torsion [C]-CA--N-[C] |==|  0.68334
USER: genes 14 Torsion [N]-C--CA-[N] |==|  0.36877
USER: genes 15 Torsion [C]-CA--CB-[CG] |==|  0.46042
USER: genes 16 Torsion [CA]-CB--CG-[CD2] |==|  0.31640
USER: genes 17 Torsion [C]-CA--N-[C] |==|  0.74010
USER: genes 18 Torsion [N]-C--CA-[N] |==|  0.81800
USER: genes 19 Torsion [C]-CA--CB-[CG] |==|  0.73940
USER: genes 20 Torsion [CA]-CB--CG-[OD1] |==|  0.12838
ROOT
ATOM      1  CA  LEU D  11      20.467   8.924  66.160  1.00 47.89 LIG 0.18  C 
ENDROOT
BRANCH 1 2
ATOM      2  C   LEU D  11      21.566   9.851  66.664  1.00 48.14 LIG 0.24  C 
ATOM      3 O    LEU D  11      21.302  10.969  67.086  1.00 47.13 LIG-0.27  OA
ATOM      4  N   HIS D  12      22.808   9.389  66.577  1.00 49.28 LIG-0.35  N 
ATOM      5 H    HIS D  12      23.016   8.604  66.293  1.00 49.28 LIG 0.16  HD
BRANCH 4 6
ATOM      6  CA  HIS D  12      23.940  10.219  66.975  1.00 50.49 LIG 0.18  C 
BRANCH 6 7
ATOM      7  C   HIS D  12      24.000  10.408  68.490  1.00 51.38 LIG 0.24  C 
ATOM      8  N   ILE D  13      25.093   9.930  69.061  1.00 53.16 LIG-0.34  N 
ATOM      9 H    ILE D  13      25.695   9.522  68.602  1.00 53.16 LIG 0.16  HD
ATOM     10 O    HIS D  12      23.098  10.968  69.095  1.00 51.57 LIG-0.27  OA
BRANCH 8 11
ATOM     11  CA  ILE D  13      25.447  10.009  70.488  1.00 55.12 LIG 0.19  C 
BRANCH 11 12
ATOM     12  CB  ILE D  13      26.119  11.369  70.900  1.00 55.01 LIG 0.01  C 
ATOM     13  CG2 ILE D  13      25.170  12.572  70.749  1.00 56.15 LIG 0.01  C 
BRANCH 12 14
ATOM     14  CG1 ILE D  13      26.657  11.277  72.331  1.00 55.50 LIG 0.00  C 
ATOM     15  CD1 ILE D  13      26.205  12.437  73.259  1.00 55.45 LIG 0.01  C 
ENDBRANCH 12 14
ENDBRANCH 11 12
BRANCH 11 16
ATOM     16  C   ILE D  13      24.438   9.511  71.528  1.00 55.63 LIG 0.20  C 
ATOM     17 O    ILE D  13      23.329  10.037  71.645  1.00 56.94 LIG-0.65  OA
ATOM     18 OXT  ILE D  13      24.784   8.578  72.266  1.00 55.86 LIG-0.65  OA
ENDBRANCH 11 16
ENDBRANCH 8 11
ENDBRANCH 6 7
BRANCH 6 19
ATOM     19  CB  HIS D  12      23.905  11.579  66.276  1.00 50.55 LIG 0.10  C 
BRANCH 19 20
ATOM     20  CG  HIS D  12      24.953  12.532  66.756  1.00 49.61 LIG 0.06  A 
ATOM     21  CD2 HIS D  12      24.888  13.849  67.066  1.00 48.49 LIG 0.14  A 
ATOM     22 NE2  HIS D  12      26.146  14.233  67.460  1.00 48.62 LIG-0.25  NA
ATOM     23  CE1 HIS D  12      26.948  13.186  67.418  1.00 49.12 LIG 0.23  A 
ATOM     24 ND1  HIS D  12      26.254  12.147  66.992  1.00 49.92 LIG-0.24  NA
ENDBRANCH 19 20
ENDBRANCH 6 19
ENDBRANCH 4 6
ENDBRANCH 1 2
BRANCH 1 25
ATOM     25  CB  LEU D  11      19.920   8.157  67.359  1.00 47.69 LIG 0.04  C 
BRANCH 25 26
ATOM     26  CG  LEU D  11      18.936   7.003  67.125  1.00 48.05 LIG-0.02  C 
ATOM     27  CD1 LEU D  11      17.865   7.423  66.129  1.00 46.53 LIG 0.01  C 
ATOM     28  CD2 LEU D  11      19.620   5.733  66.679  1.00 50.43 LIG 0.01  C 
ENDBRANCH 25 26
ENDBRANCH 1 25
BRANCH 1 29
ATOM     29  N   LEU D  11      20.921   7.983  65.148  1.00 47.51 LIG-0.35  N 
ATOM     30  C   LEU D  10      20.494   8.015  63.885  1.00 47.80 LIG 0.24  C 
ATOM     31 O    LEU D  10      19.736   8.888  63.437  1.00 47.07 LIG-0.27  OA
ATOM     32 H    LEU D  11      21.489   7.406  65.439  1.00 47.51 LIG 0.16  HD
BRANCH 30 33
ATOM     33  CA  LEU D  10      20.993   6.886  62.993  1.00 47.63 LIG 0.18  C 
BRANCH 33 34
ATOM     34  CB  LEU D  10      22.115   7.363  62.075  1.00 47.29 LIG 0.04  C 
BRANCH 34 35
ATOM     35  CG  LEU D  10      22.895   6.227  61.405  1.00 46.92 LIG-0.02  C 
ATOM     36  CD1 LEU D  10      22.515   4.860  61.972  1.00 46.83 LIG 0.01  C 
ATOM     37  CD2 LEU D  10      22.686   6.224  59.927  1.00 45.50 LIG 0.01  C 
ENDBRANCH 34 35
ENDBRANCH 33 34
BRANCH 33 38
ATOM     38  N   LEU D  10      19.885   6.319  62.245  1.00 47.82 LIG-0.35  N 
ATOM     39 H    LEU D  10      19.705   6.718  61.504  1.00 47.82 LIG 0.16  HD
ATOM     40  C   ASP D   9      19.228   5.262  62.708  1.00 48.63 LIG 0.26  C 
ATOM     41 O    ASP D   9      19.495   4.717  63.777  1.00 48.10 LIG-0.27  OA
BRANCH 40 42
ATOM     42  CA  ASP D   9      18.103   4.754  61.846  1.00 49.27 LIG 0.41  C 
ATOM     43  N   ASP D   9      17.053   5.805  61.811  1.00 49.86 LIG 0.61  N 
BRANCH 42 44
ATOM     44  CB  ASP D   9      18.638   4.483  60.447  1.00 50.02 LIG 0.16  C 
BRANCH 44 45
ATOM     45  CG  ASP D   9      18.454   5.650  59.521  1.00 50.84 LIG 0.17  C 
ATOM     46 OD1  ASP D   9      18.759   6.783  59.930  1.00 53.44 LIG-0.65  OA
ATOM     47 OD2  ASP D   9      18.032   5.529  58.349  1.00 53.75 LIG-0.65  OA
ENDBRANCH 44 45
ENDBRANCH 42 44
ENDBRANCH 40 42
ENDBRANCH 33 38
ENDBRANCH 30 33
ENDBRANCH 1 29
TORSDOF 19
ENDMDL
MODEL 72
USER: ADFR SOLUTION from run 199
USER: SCORE 15.863094 LL:  -4.590 LR: -11.721 RR:   0.000 FEB:  -6.053
USER: RMSD 6.461574
USER: SEED 198
USER: STATUS no improvement in best in 8 clusters for 5 generations
USER: GENES 21
USER: genes 0 Translation |==|  0.51122 0.47939 0.71377
USER: genes 1 Rotation |==|  0.28563 0.16481 0.22730 0.63162
USER: genes 2 Torsion [N]-CA--C-[N] |==|  0.86160
USER: genes 3 Torsion [C]-N--CA-[C] |==|  0.67076
USER: genes 4 Torsion [N]-CA--C-[N] |==|  0.46731
USER: genes 5 Torsion [C]-N--CA-[CB] |==|  0.12346
USER: genes 6 Torsion [N]-CA--CB-[CG1] |==|  0.68663
USER: genes 7 Torsion [CA]-CB--CG1-[CD1] |==|  0.84003
USER: genes 8 Torsion [N]-CA--C-[OXT] |==|  0.48235
USER: genes 9 Torsion [N]-CA--CB-[CG] |==|  0.73896
USER: genes 10 Torsion [CA]-CB--CG-[CD2] |==|  0.61057
USER: genes 11 Torsion [C]-CA--CB-[CG] |==|  0.21312
USER: genes 12 Torsion [CA]-CB--CG-[CD1] |==|  0.44675
USER: genes 13 Torsion [C]-CA--N-[C] |==|  0.84929
USER: genes 14 Torsion [N]-C--CA-[N] |==|  0.40180
USER: genes 15 Torsion [C]-CA--CB-[CG] |==|  0.22800
USER: genes 16 Torsion [CA]-CB--CG-[CD2] |==|  0.07300
USER: genes 17 Torsion [C]-CA--N-[C] |==|  0.74651
USER: genes 18 Torsion [N]-C--CA-[N] |==|  0.41569
USER: genes 19 Torsion [C]-CA--CB-[CG] |==|  0.77406
USER: genes 20 Torsion [CA]-CB--CG-[OD1] |==|  0.50762
ROOT
ATOM      1  CA  LEU D  11      19.001   6.643  67.701  1.00 47.89 LIG 0.18  C 
ENDROOT
BRANCH 1 2
ATOM      2  C   LEU D  11      19.545   5.744  66.598  1.00 48.14 LIG 0.24  C 
ATOM      3 O    LEU D  11      20.311   4.825  66.856  1.00 47.13 LIG-0.27  OA
ATOM      4  N   HIS D  12      19.172   6.043  65.359  1.00 49.28 LIG-0.35  N 
ATOM      5 H    HIS D  12      18.628   6.677  65.155  1.00 49.28 LIG 0.16  HD
BRANCH 4 6
ATOM      6  CA  HIS D  12      19.683   5.283  64.223  1.00 50.49 LIG 0.18  C 
BRANCH 6 7
ATOM      7  C   HIS D  12      20.478   6.165  63.263  1.00 51.38 LIG 0.24  C 
ATOM      8  N   ILE D  13      21.169   5.500  62.351  1.00 53.16 LIG-0.34  N 
ATOM      9 H    ILE D  13      21.180   4.641  62.337  1.00 53.16 LIG 0.16  HD
ATOM     10 O    HIS D  12      20.451   7.384  63.350  1.00 51.57 LIG-0.27  OA
BRANCH 8 11
ATOM     11  CA  ILE D  13      21.985   6.079  61.271  1.00 55.12 LIG 0.19  C 
BRANCH 11 12
ATOM     12  CB  ILE D  13      22.895   7.273  61.736  1.00 55.01 LIG 0.01  C 
ATOM     13  CG2 ILE D  13      24.388   7.034  61.445  1.00 56.15 LIG 0.01  C 
BRANCH 12 14
ATOM     14  CG1 ILE D  13      22.419   8.579  61.091  1.00 55.50 LIG 0.00  C 
ATOM     15  CD1 ILE D  13      22.395   8.553  59.539  1.00 55.45 LIG 0.01  C 
ENDBRANCH 12 14
ENDBRANCH 11 12
BRANCH 11 16
ATOM     16  C   ILE D  13      22.700   5.137  60.299  1.00 55.63 LIG 0.20  C 
ATOM     17 O    ILE D  13      22.719   3.918  60.488  1.00 56.94 LIG-0.65  OA
ATOM     18 OXT  ILE D  13      23.282   5.641  59.328  1.00 55.86 LIG-0.65  OA
ENDBRANCH 11 16
ENDBRANCH 8 11
ENDBRANCH 6 7
BRANCH 6 19
ATOM     19  CB  HIS D  12      18.551   4.576  63.475  1.00 50.55 LIG 0.10  C 
BRANCH 19 20
ATOM     20  CG  HIS D  12      18.322   3.167  63.920  1.00 49.61 LIG 0.06  A 
ATOM     21  CD2 HIS D  12      18.032   2.045  63.220  1.00 48.49 LIG 0.14  A 
ATOM     22 NE2  HIS D  12      17.929   1.018  64.125  1.00 48.62 LIG-0.25  NA
ATOM     23  CE1 HIS D  12      18.171   1.487  65.336  1.00 49.12 LIG 0.23  A 
ATOM     24 ND1  HIS D  12      18.406   2.782  65.241  1.00 49.92 LIG-0.24  NA
ENDBRANCH 19 20
ENDBRANCH 6 19
ENDBRANCH 4 6
ENDBRANCH 1 2
BRANCH 1 25
ATOM     25  CB  LEU D  11      17.514   6.342  67.855  1.00 47.69 LIG 0.04  C 
BRANCH 25 26
ATOM     26  CG  LEU D  11      17.079   5.068  68.590  1.00 48.05 LIG-0.02  C 
ATOM     27  CD1 LEU D  11      15.631   5.193  69.041  1.00 46.53 LIG 0.01  C 
ATOM     28  CD2 LEU D  11      17.282   3.819  67.766  1.00 50.43 LIG 0.01  C 
ENDBRANCH 25 26
ENDBRANCH 1 25
BRANCH 1 29
ATOM     29  N   LEU D  11      19.185   8.062  67.435  1.00 47.51 LIG-0.35  N 
ATOM     30  C   LEU D  10      20.373   8.597  67.153  1.00 47.80 LIG 0.24  C 
ATOM     31 O    LEU D  10      21.412   7.935  67.016  1.00 47.07 LIG-0.27  OA
ATOM     32 H    LEU D  11      18.458   8.520  67.476  1.00 47.51 LIG 0.16  HD
BRANCH 30 33
ATOM     33  CA  LEU D  10      20.393  10.114  67.011  1.00 47.63 LIG 0.18  C 
BRANCH 33 34
ATOM     34  CB  LEU D  10      20.149  10.536  65.566  1.00 47.29 LIG 0.04  C 
BRANCH 34 35
ATOM     35  CG  LEU D  10      18.668  10.563  65.168  1.00 46.92 LIG-0.02  C 
ATOM     36  CD1 LEU D  10      18.241   9.275  64.466  1.00 46.83 LIG 0.01  C 
ATOM     37  CD2 LEU D  10      17.793  10.793  66.355  1.00 45.50 LIG 0.01  C 
ENDBRANCH 34 35
ENDBRANCH 33 34
BRANCH 33 38
ATOM     38  N   LEU D  10      21.644  10.643  67.527  1.00 47.82 LIG-0.35  N 
ATOM     39 H    LEU D  10      22.282  10.690  66.952  1.00 47.82 LIG 0.16  HD
ATOM     40  C   ASP D   9      21.748  11.015  68.796  1.00 48.63 LIG 0.26  C 
ATOM     41 O    ASP D   9      20.825  10.926  69.603  1.00 48.10 LIG-0.27  OA
BRANCH 40 42
ATOM     42  CA  ASP D   9      23.088  11.556  69.219  1.00 49.27 LIG 0.41  C 
ATOM     43  N   ASP D   9      22.853  12.545  70.302  1.00 49.86 LIG 0.61  N 
BRANCH 42 44
ATOM     44  CB  ASP D   9      23.947  10.404  69.721  1.00 50.02 LIG 0.16  C 
BRANCH 44 45
ATOM     45  CG  ASP D   9      23.640  10.029  71.141  1.00 50.84 LIG 0.17  C 
ATOM     46 OD1  ASP D   9      24.316   9.134  71.675  1.00 53.44 LIG-0.65  OA
ATOM     47 OD2  ASP D   9      22.752  10.595  71.818  1.00 53.75 LIG-0.65  OA
ENDBRANCH 44 45
ENDBRANCH 42 44
ENDBRANCH 40 42
ENDBRANCH 33 38
ENDBRANCH 30 33
ENDBRANCH 1 29
TORSDOF 19
ENDMDL
MODEL 73
USER: ADFR SOLUTION from run 39
USER: SCORE 15.769016 LL:  -4.517 LR: -11.710 RR:   0.000 FEB:  -6.042
USER: RMSD 5.912258
USER: SEED 38
USER: STATUS no improvement in best in 7 clusters for 5 generations
USER: GENES 21
USER: genes 0 Translation |==|  0.48675 0.46043 0.70207
USER: genes 1 Rotation |==|  0.27621 0.18395 0.19452 0.58193
USER: genes 2 Torsion [N]-CA--C-[N] |==|  0.88543
USER: genes 3 Torsion [C]-N--CA-[C] |==|  0.56339
USER: genes 4 Torsion [N]-CA--C-[N] |==|  0.41146
USER: genes 5 Torsion [C]-N--CA-[CB] |==|  0.18520
USER: genes 6 Torsion [N]-CA--CB-[CG1] |==|  0.61571
USER: genes 7 Torsion [CA]-CB--CG1-[CD1] |==|  0.17159
USER: genes 8 Torsion [N]-CA--C-[OXT] |==|  0.53376
USER: genes 9 Torsion [N]-CA--CB-[CG] |==|  0.34065
USER: genes 10 Torsion [CA]-CB--CG-[CD2] |==|  0.27142
USER: genes 11 Torsion [C]-CA--CB-[CG] |==|  0.22969
USER: genes 12 Torsion [CA]-CB--CG-[CD1] |==|  0.03096
USER: genes 13 Torsion [C]-CA--N-[C] |==|  0.86033
USER: genes 14 Torsion [N]-C--CA-[N] |==|  0.44452
USER: genes 15 Torsion [C]-CA--CB-[CG] |==|  0.82043
USER: genes 16 Torsion [CA]-CB--CG-[CD2] |==|  0.78489
USER: genes 17 Torsion [C]-CA--N-[C] |==|  0.65420
USER: genes 18 Torsion [N]-C--CA-[N] |==|  0.24571
USER: genes 19 Torsion [C]-CA--CB-[CG] |==|  0.29776
USER: genes 20 Torsion [CA]-CB--CG-[OD1] |==|  0.70394
ROOT
ATOM      1  CA  LEU D  11      18.524   6.287  67.437  1.00 47.89 LIG 0.18  C 
ENDROOT
BRANCH 1 2
ATOM      2  C   LEU D  11      19.040   5.318  66.382  1.00 48.14 LIG 0.24  C 
ATOM      3 O    LEU D  11      19.419   4.196  66.689  1.00 47.13 LIG-0.27  OA
ATOM      4  N   HIS D  12      19.089   5.778  65.137  1.00 49.28 LIG-0.35  N 
ATOM      5 H    HIS D  12      18.820   6.559  64.896  1.00 49.28 LIG 0.16  HD
BRANCH 4 6
ATOM      6  CA  HIS D  12      19.624   4.953  64.059  1.00 50.49 LIG 0.18  C 
BRANCH 6 7
ATOM      7  C   HIS D  12      20.106   5.800  62.883  1.00 51.38 LIG 0.24  C 
ATOM      8  N   ILE D  13      21.132   5.289  62.222  1.00 53.16 LIG-0.34  N 
ATOM      9 H    ILE D  13      21.502   4.553  62.470  1.00 53.16 LIG 0.16  HD
ATOM     10 O    HIS D  12      19.561   6.855  62.594  1.00 51.57 LIG-0.27  OA
BRANCH 8 11
ATOM     11  CA  ILE D  13      21.776   5.853  61.024  1.00 55.12 LIG 0.19  C 
BRANCH 11 12
ATOM     12  CB  ILE D  13      22.521   7.212  61.287  1.00 55.01 LIG 0.01  C 
ATOM     13  CG2 ILE D  13      24.033   7.030  61.513  1.00 56.15 LIG 0.01  C 
BRANCH 12 14
ATOM     14  CG1 ILE D  13      22.258   8.187  60.134  1.00 55.50 LIG 0.00  C 
ATOM     15  CD1 ILE D  13      20.764   8.568  59.948  1.00 55.45 LIG 0.01  C 
ENDBRANCH 12 14
ENDBRANCH 11 12
BRANCH 11 16
ATOM     16  C   ILE D  13      22.562   4.920  60.098  1.00 55.63 LIG 0.20  C 
ATOM     17 O    ILE D  13      22.500   3.694  60.225  1.00 56.94 LIG-0.65  OA
ATOM     18 OXT  ILE D  13      23.282   5.437  59.233  1.00 55.86 LIG-0.65  OA
ENDBRANCH 11 16
ENDBRANCH 8 11
ENDBRANCH 6 7
BRANCH 6 19
ATOM     19  CB  HIS D  12      18.593   3.927  63.582  1.00 50.55 LIG 0.10  C 
BRANCH 19 20
ATOM     20  CG  HIS D  12      18.276   4.024  62.123  1.00 49.61 LIG 0.06  A 
ATOM     21  CD2 HIS D  12      18.741   3.328  61.060  1.00 48.49 LIG 0.14  A 
ATOM     22 NE2  HIS D  12      18.110   3.822  59.946  1.00 48.62 LIG-0.25  NA
ATOM     23  CE1 HIS D  12      17.269   4.772  60.313  1.00 49.12 LIG 0.23  A 
ATOM     24 ND1  HIS D  12      17.353   4.917  61.622  1.00 49.92 LIG-0.24  NA
ENDBRANCH 19 20
ENDBRANCH 6 19
ENDBRANCH 4 6
ENDBRANCH 1 2
BRANCH 1 25
ATOM     25  CB  LEU D  11      17.001   6.290  67.361  1.00 47.69 LIG 0.04  C 
BRANCH 25 26
ATOM     26  CG  LEU D  11      16.212   5.189  68.081  1.00 48.05 LIG-0.02  C 
ATOM     27  CD1 LEU D  11      17.133   4.404  69.003  1.00 46.53 LIG 0.01  C 
ATOM     28  CD2 LEU D  11      15.020   5.725  68.837  1.00 50.43 LIG 0.01  C 
ENDBRANCH 25 26
ENDBRANCH 1 25
BRANCH 1 29
ATOM     29  N   LEU D  11      19.021   7.644  67.271  1.00 47.51 LIG-0.35  N 
ATOM     30  C   LEU D  10      20.315   7.927  67.113  1.00 47.80 LIG 0.24  C 
ATOM     31 O    LEU D  10      21.201   7.066  67.016  1.00 47.07 LIG-0.27  OA
ATOM     32 H    LEU D  11      18.406   8.245  67.284  1.00 47.51 LIG 0.16  HD
BRANCH 30 33
ATOM     33  CA  LEU D  10      20.663   9.409  67.063  1.00 47.63 LIG 0.18  C 
BRANCH 33 34
ATOM     34  CB  LEU D  10      20.278  10.021  65.720  1.00 47.29 LIG 0.04  C 
BRANCH 34 35
ATOM     35  CG  LEU D  10      21.063   9.453  64.531  1.00 46.92 LIG-0.02  C 
ATOM     36  CD1 LEU D  10      20.347   9.697  63.204  1.00 46.83 LIG 0.01  C 
ATOM     37  CD2 LEU D  10      22.438  10.029  64.465  1.00 45.50 LIG 0.01  C 
ENDBRANCH 34 35
ENDBRANCH 33 34
BRANCH 33 38
ATOM     38  N   LEU D  10      22.072   9.598  67.362  1.00 47.82 LIG-0.35  N 
ATOM     39 H    LEU D  10      22.612   9.156  66.859  1.00 47.82 LIG 0.16  HD
ATOM     40  C   ASP D   9      22.451  10.404  68.346  1.00 48.63 LIG 0.26  C 
ATOM     41 O    ASP D   9      21.660  11.015  69.061  1.00 48.10 LIG-0.27  OA
BRANCH 40 42
ATOM     42  CA  ASP D   9      23.936  10.530  68.561  1.00 49.27 LIG 0.41  C 
ATOM     43  N   ASP D   9      24.425  11.631  67.691  1.00 49.86 LIG 0.61  N 
BRANCH 42 44
ATOM     44  CB  ASP D   9      24.196  10.848  70.027  1.00 50.02 LIG 0.16  C 
BRANCH 44 45
ATOM     45  CG  ASP D   9      24.768   9.684  70.780  1.00 50.84 LIG 0.17  C 
ATOM     46 OD1  ASP D   9      24.032   9.077  71.578  1.00 53.44 LIG-0.65  OA
ATOM     47 OD2  ASP D   9      25.942   9.280  70.621  1.00 53.75 LIG-0.65  OA
ENDBRANCH 44 45
ENDBRANCH 42 44
ENDBRANCH 40 42
ENDBRANCH 33 38
ENDBRANCH 30 33
ENDBRANCH 1 29
TORSDOF 19
ENDMDL
MODEL 74
USER: ADFR SOLUTION from run 54
USER: SCORE 15.503900 LL:  -5.186 LR: -11.697 RR:   0.000 FEB:  -6.029
USER: RMSD 6.935063
USER: SEED 53
USER: STATUS no improvement in best in 6 clusters for 5 generations
USER: GENES 21
USER: genes 0 Translation |==|  0.54099 0.33419 0.41343
USER: genes 1 Rotation |==|  0.12740 0.31461 0.25700 0.63323
USER: genes 2 Torsion [N]-CA--C-[N] |==|  0.68943
USER: genes 3 Torsion [C]-N--CA-[C] |==|  0.61043
USER: genes 4 Torsion [N]-CA--C-[N] |==|  0.26149
USER: genes 5 Torsion [C]-N--CA-[CB] |==|  0.39531
USER: genes 6 Torsion [N]-CA--CB-[CG1] |==|  0.04381
USER: genes 7 Torsion [CA]-CB--CG1-[CD1] |==|  0.43584
USER: genes 8 Torsion [N]-CA--C-[OXT] |==|  0.95786
USER: genes 9 Torsion [N]-CA--CB-[CG] |==|  0.99561
USER: genes 10 Torsion [CA]-CB--CG-[CD2] |==|  0.77735
USER: genes 11 Torsion [C]-CA--CB-[CG] |==|  0.39014
USER: genes 12 Torsion [CA]-CB--CG-[CD1] |==|  0.76962
USER: genes 13 Torsion [C]-CA--N-[C] |==|  0.67520
USER: genes 14 Torsion [N]-C--CA-[N] |==|  0.03890
USER: genes 15 Torsion [C]-CA--CB-[CG] |==|  0.53514
USER: genes 16 Torsion [CA]-CB--CG-[CD2] |==|  0.87533
USER: genes 17 Torsion [C]-CA--N-[C] |==|  0.18878
USER: genes 18 Torsion [N]-C--CA-[N] |==|  0.93607
USER: genes 19 Torsion [C]-CA--CB-[CG] |==|  0.78012
USER: genes 20 Torsion [CA]-CB--CG-[OD1] |==|  0.80119
ROOT
ATOM      1  CA  LEU D  11      19.581   3.920  60.943  1.00 47.89 LIG 0.18  C 
ENDROOT
BRANCH 1 2
ATOM      2  C   LEU D  11      18.855   3.189  59.822  1.00 48.14 LIG 0.24  C 
ATOM      3 O    LEU D  11      19.473   2.529  58.997  1.00 47.13 LIG-0.27  OA
ATOM      4  N   HIS D  12      17.537   3.346  59.776  1.00 49.28 LIG-0.35  N 
ATOM      5 H    HIS D  12      17.081   3.796  60.349  1.00 49.28 LIG 0.16  HD
BRANCH 4 6
ATOM      6  CA  HIS D  12      16.751   2.738  58.707  1.00 50.49 LIG 0.18  C 
BRANCH 6 7
ATOM      7  C   HIS D  12      15.642   3.668  58.219  1.00 51.38 LIG 0.24  C 
ATOM      8  N   ILE D  13      15.967   4.407  57.172  1.00 53.16 LIG-0.34  N 
ATOM      9 H    ILE D  13      16.754   4.374  56.828  1.00 53.16 LIG 0.16  HD
ATOM     10 O    HIS D  12      14.551   3.697  58.768  1.00 51.57 LIG-0.27  OA
BRANCH 8 11
ATOM     11  CA  ILE D  13      15.094   5.354  56.458  1.00 55.12 LIG 0.19  C 
BRANCH 11 12
ATOM     12  CB  ILE D  13      15.831   6.655  55.975  1.00 55.01 LIG 0.01  C 
ATOM     13  CG2 ILE D  13      15.427   7.904  56.781  1.00 56.15 LIG 0.01  C 
BRANCH 12 14
ATOM     14  CG1 ILE D  13      17.348   6.447  56.020  1.00 55.50 LIG 0.00  C 
ATOM     15  CD1 ILE D  13      18.149   7.384  55.076  1.00 55.45 LIG 0.01  C 
ENDBRANCH 12 14
ENDBRANCH 11 12
BRANCH 11 16
ATOM     16  C   ILE D  13      14.110   4.812  55.417  1.00 55.63 LIG 0.20  C 
ATOM     17 O    ILE D  13      13.164   5.493  55.016  1.00 56.94 LIG-0.65  OA
ATOM     18 OXT  ILE D  13      14.282   3.654  55.009  1.00 55.86 LIG-0.65  OA
ENDBRANCH 11 16
ENDBRANCH 8 11
ENDBRANCH 6 7
BRANCH 6 19
ATOM     19  CB  HIS D  12      16.159   1.398  59.148  1.00 50.55 LIG 0.10  C 
BRANCH 19 20
ATOM     20  CG  HIS D  12      16.540   0.997  60.538  1.00 49.61 LIG 0.06  A 
ATOM     21  CD2 HIS D  12      17.668   0.429  61.026  1.00 48.49 LIG 0.14  A 
ATOM     22 NE2  HIS D  12      17.492   0.279  62.379  1.00 48.62 LIG-0.25  NA
ATOM     23  CE1 HIS D  12      16.310   0.760  62.715  1.00 49.12 LIG 0.23  A 
ATOM     24 ND1  HIS D  12      15.712   1.195  61.621  1.00 49.92 LIG-0.24  NA
ENDBRANCH 19 20
ENDBRANCH 6 19
ENDBRANCH 4 6
ENDBRANCH 1 2
BRANCH 1 25
ATOM     25  CB  LEU D  11      18.528   4.478  61.894  1.00 47.69 LIG 0.04  C 
BRANCH 25 26
ATOM     26  CG  LEU D  11      18.782   4.430  63.406  1.00 48.05 LIG-0.02  C 
ATOM     27  CD1 LEU D  11      18.407   3.061  63.956  1.00 46.53 LIG 0.01  C 
ATOM     28  CD2 LEU D  11      20.204   4.786  63.771  1.00 50.43 LIG 0.01  C 
ENDBRANCH 25 26
ENDBRANCH 1 25
BRANCH 1 29
ATOM     29  N   LEU D  11      20.433   5.003  60.473  1.00 47.51 LIG-0.35  N 
ATOM     30  C   LEU D  10      21.756   5.006  60.636  1.00 47.80 LIG 0.24  C 
ATOM     31 O    LEU D  10      22.392   4.064  61.130  1.00 47.07 LIG-0.27  OA
ATOM     32 H    LEU D  11      20.004   5.637  60.081  1.00 47.51 LIG 0.16  HD
BRANCH 30 33
ATOM     33  CA  LEU D  10      22.471   6.271  60.178  1.00 47.63 LIG 0.18  C 
BRANCH 33 34
ATOM     34  CB  LEU D  10      23.556   6.681  61.170  1.00 47.29 LIG 0.04  C 
BRANCH 34 35
ATOM     35  CG  LEU D  10      24.104   8.094  60.941  1.00 46.92 LIG-0.02  C 
ATOM     36  CD1 LEU D  10      25.377   8.350  61.746  1.00 46.83 LIG 0.01  C 
ATOM     37  CD2 LEU D  10      24.375   8.343  59.495  1.00 45.50 LIG 0.01  C 
ENDBRANCH 34 35
ENDBRANCH 33 34
BRANCH 33 38
ATOM     38  N   LEU D  10      21.505   7.334  59.960  1.00 47.82 LIG-0.35  N 
ATOM     39 H    LEU D  10      21.407   7.572  59.140  1.00 47.82 LIG 0.16  HD
ATOM     40  C   ASP D   9      20.847   7.868  60.982  1.00 48.63 LIG 0.26  C 
ATOM     41 O    ASP D   9      21.015   7.521  62.149  1.00 48.10 LIG-0.27  OA
BRANCH 40 42
ATOM     42  CA  ASP D   9      19.866   8.958  60.638  1.00 49.27 LIG 0.41  C 
ATOM     43  N   ASP D   9      20.278   9.538  59.334  1.00 49.86 LIG 0.61  N 
BRANCH 42 44
ATOM     44  CB  ASP D   9      18.473   8.352  60.540  1.00 50.02 LIG 0.16  C 
BRANCH 44 45
ATOM     45  CG  ASP D   9      18.239   7.647  59.236  1.00 50.84 LIG 0.17  C 
ATOM     46 OD1  ASP D   9      18.112   8.334  58.208  1.00 53.44 LIG-0.65  OA
ATOM     47 OD2  ASP D   9      18.192   6.401  59.134  1.00 53.75 LIG-0.65  OA
ENDBRANCH 44 45
ENDBRANCH 42 44
ENDBRANCH 40 42
ENDBRANCH 33 38
ENDBRANCH 30 33
ENDBRANCH 1 29
TORSDOF 19
ENDMDL
MODEL 75
USER: ADFR SOLUTION from run 197
USER: SCORE 15.589214 LL:  -4.703 LR: -11.698 RR:   0.000 FEB:  -6.031
USER: RMSD 9.682026
USER: SEED 196
USER: STATUS no improvement in best in 8 clusters for 5 generations
USER: GENES 21
USER: genes 0 Translation |==|  0.42753 0.27861 0.45719
USER: genes 1 Rotation |==|  0.76322 0.25098 0.15615 0.52178
USER: genes 2 Torsion [N]-CA--C-[N] |==|  0.81717
USER: genes 3 Torsion [C]-N--CA-[C] |==|  0.78661
USER: genes 4 Torsion [N]-CA--C-[N] |==|  0.97487
USER: genes 5 Torsion [C]-N--CA-[CB] |==|  0.89067
USER: genes 6 Torsion [N]-CA--CB-[CG1] |==|  0.84335
USER: genes 7 Torsion [CA]-CB--CG1-[CD1] |==|  0.32064
USER: genes 8 Torsion [N]-CA--C-[OXT] |==|  0.36324
USER: genes 9 Torsion [N]-CA--CB-[CG] |==|  0.83492
USER: genes 10 Torsion [CA]-CB--CG-[CD2] |==|  0.53391
USER: genes 11 Torsion [C]-CA--CB-[CG] |==|  0.53838
USER: genes 12 Torsion [CA]-CB--CG-[CD1] |==|  0.40950
USER: genes 13 Torsion [C]-CA--N-[C] |==|  0.59329
USER: genes 14 Torsion [N]-C--CA-[N] |==|  0.33056
USER: genes 15 Torsion [C]-CA--CB-[CG] |==|  0.79139
USER: genes 16 Torsion [CA]-CB--CG-[CD2] |==|  0.73224
USER: genes 17 Torsion [C]-CA--N-[C] |==|  0.78889
USER: genes 18 Torsion [N]-C--CA-[N] |==|  0.29343
USER: genes 19 Torsion [C]-CA--CB-[CG] |==|  0.64452
USER: genes 20 Torsion [CA]-CB--CG-[OD1] |==|  0.68335
ROOT
ATOM      1  CA  LEU D  11      17.369   2.878  61.928  1.00 47.89 LIG 0.18  C 
ENDROOT
BRANCH 1 2
ATOM      2  C   LEU D  11      18.445   3.454  62.839  1.00 48.14 LIG 0.24  C 
ATOM      3 O    LEU D  11      18.739   2.904  63.892  1.00 47.13 LIG-0.27  OA
ATOM      4  N   HIS D  12      19.004   4.591  62.441  1.00 49.28 LIG-0.35  N 
ATOM      5 H    HIS D  12      18.821   4.990  61.702  1.00 49.28 LIG 0.16  HD
BRANCH 4 6
ATOM      6  CA  HIS D  12      20.003   5.259  63.268  1.00 50.49 LIG 0.18  C 
BRANCH 6 7
ATOM      7  C   HIS D  12      19.365   5.997  64.444  1.00 51.38 LIG 0.24  C 
ATOM      8  N   ILE D  13      18.044   6.061  64.400  1.00 53.16 LIG-0.34  N 
ATOM      9 H    ILE D  13      17.602   5.735  63.739  1.00 53.16 LIG 0.16  HD
ATOM     10 O    HIS D  12      20.046   6.471  65.341  1.00 51.57 LIG-0.27  OA
BRANCH 8 11
ATOM     11  CA  ILE D  13      17.159   6.664  65.410  1.00 55.12 LIG 0.19  C 
BRANCH 11 12
ATOM     12  CB  ILE D  13      17.611   6.393  66.891  1.00 55.01 LIG 0.01  C 
ATOM     13  CG2 ILE D  13      16.679   7.046  67.928  1.00 56.15 LIG 0.01  C 
BRANCH 12 14
ATOM     14  CG1 ILE D  13      17.726   4.885  67.138  1.00 55.50 LIG 0.00  C 
ATOM     15  CD1 ILE D  13      19.167   4.397  67.447  1.00 55.45 LIG 0.01  C 
ENDBRANCH 12 14
ENDBRANCH 11 12
BRANCH 11 16
ATOM     16  C   ILE D  13      16.664   8.098  65.198  1.00 55.63 LIG 0.20  C 
ATOM     17 O    ILE D  13      17.448   9.012  64.934  1.00 56.94 LIG-0.65  OA
ATOM     18 OXT  ILE D  13      15.450   8.314  65.325  1.00 55.86 LIG-0.65  OA
ENDBRANCH 11 16
ENDBRANCH 8 11
ENDBRANCH 6 7
BRANCH 6 19
ATOM     19  CB  HIS D  12      20.854   6.224  62.440  1.00 50.55 LIG 0.10  C 
BRANCH 19 20
ATOM     20  CG  HIS D  12      21.594   5.566  61.319  1.00 49.61 LIG 0.06  A 
ATOM     21  CD2 HIS D  12      22.590   6.017  60.521  1.00 48.49 LIG 0.14  A 
ATOM     22 NE2  HIS D  12      22.907   4.999  59.656  1.00 48.62 LIG-0.25  NA
ATOM     23  CE1 HIS D  12      22.151   3.952  59.929  1.00 49.12 LIG 0.23  A 
ATOM     24 ND1  HIS D  12      21.346   4.269  60.926  1.00 49.92 LIG-0.24  NA
ENDBRANCH 19 20
ENDBRANCH 6 19
ENDBRANCH 4 6
ENDBRANCH 1 2
BRANCH 1 25
ATOM     25  CB  LEU D  11      17.974   2.714  60.538  1.00 47.69 LIG 0.04  C 
BRANCH 25 26
ATOM     26  CG  LEU D  11      17.048   2.459  59.343  1.00 48.05 LIG-0.02  C 
ATOM     27  CD1 LEU D  11      17.626   3.094  58.087  1.00 46.53 LIG 0.01  C 
ATOM     28  CD2 LEU D  11      16.767   0.991  59.124  1.00 50.43 LIG 0.01  C 
ENDBRANCH 25 26
ENDBRANCH 1 25
BRANCH 1 29
ATOM     29  N   LEU D  11      16.177   3.708  61.844  1.00 47.51 LIG-0.35  N 
ATOM     30  C   LEU D  10      14.951   3.203  61.698  1.00 47.80 LIG 0.24  C 
ATOM     31 O    LEU D  10      14.702   1.988  61.699  1.00 47.07 LIG-0.27  OA
ATOM     32 H    LEU D  11      16.336   4.552  61.896  1.00 47.51 LIG 0.16  HD
BRANCH 30 33
ATOM     33  CA  LEU D  10      13.836   4.225  61.518  1.00 47.63 LIG 0.18  C 
BRANCH 33 34
ATOM     34  CB  LEU D  10      12.842   4.165  62.674  1.00 47.29 LIG 0.04  C 
BRANCH 34 35
ATOM     35  CG  LEU D  10      11.897   2.959  62.619  1.00 46.92 LIG-0.02  C 
ATOM     36  CD1 LEU D  10      11.646   2.366  64.004  1.00 46.83 LIG 0.01  C 
ATOM     37  CD2 LEU D  10      10.592   3.320  61.992  1.00 45.50 LIG 0.01  C 
ENDBRANCH 34 35
ENDBRANCH 33 34
BRANCH 33 38
ATOM     38  N   LEU D  10      13.187   4.028  60.233  1.00 47.82 LIG-0.35  N 
ATOM     39 H    LEU D  10      12.417   3.645  60.271  1.00 47.82 LIG 0.16  HD
ATOM     40  C   ASP D   9      13.774   4.428  59.112  1.00 48.63 LIG 0.26  C 
ATOM     41 O    ASP D   9      14.882   4.960  59.083  1.00 48.10 LIG-0.27  OA
BRANCH 40 42
ATOM     42  CA  ASP D   9      13.007   4.180  57.840  1.00 49.27 LIG 0.41  C 
ATOM     43  N   ASP D   9      12.465   5.485  57.381  1.00 49.86 LIG 0.61  N 
BRANCH 42 44
ATOM     44  CB  ASP D   9      13.953   3.597  56.801  1.00 50.02 LIG 0.16  C 
BRANCH 44 45
ATOM     45  CG  ASP D   9      13.918   4.345  55.501  1.00 50.84 LIG 0.17  C 
ATOM     46 OD1  ASP D   9      13.479   3.762  54.495  1.00 53.44 LIG-0.65  OA
ATOM     47 OD2  ASP D   9      14.284   5.537  55.391  1.00 53.75 LIG-0.65  OA
ENDBRANCH 44 45
ENDBRANCH 42 44
ENDBRANCH 40 42
ENDBRANCH 33 38
ENDBRANCH 30 33
ENDBRANCH 1 29
TORSDOF 19
ENDMDL
MODEL 76
USER: ADFR SOLUTION from run 32
USER: SCORE 15.911855 LL:  -4.526 LR: -11.685 RR:   0.000 FEB:  -6.017
USER: RMSD 8.236763
USER: SEED 31
USER: STATUS no improvement in best in 17 clusters for 5 generations
USER: GENES 21
USER: genes 0 Translation |==|  0.52683 0.37878 0.36811
USER: genes 1 Rotation |==|  0.21510 0.34307 0.60071 0.86615
USER: genes 2 Torsion [N]-CA--C-[N] |==|  0.95289
USER: genes 3 Torsion [C]-N--CA-[C] |==|  0.70846
USER: genes 4 Torsion [N]-CA--C-[N] |==|  0.29091
USER: genes 5 Torsion [C]-N--CA-[CB] |==|  0.66523
USER: genes 6 Torsion [N]-CA--CB-[CG1] |==|  0.01603
USER: genes 7 Torsion [CA]-CB--CG1-[CD1] |==|  0.40807
USER: genes 8 Torsion [N]-CA--C-[OXT] |==|  0.28236
USER: genes 9 Torsion [N]-CA--CB-[CG] |==|  0.83702
USER: genes 10 Torsion [CA]-CB--CG-[CD2] |==|  0.64435
USER: genes 11 Torsion [C]-CA--CB-[CG] |==|  0.29846
USER: genes 12 Torsion [CA]-CB--CG-[CD1] |==|  0.86531
USER: genes 13 Torsion [C]-CA--N-[C] |==|  0.80767
USER: genes 14 Torsion [N]-C--CA-[N] |==|  0.45127
USER: genes 15 Torsion [C]-CA--CB-[CG] |==|  0.90583
USER: genes 16 Torsion [CA]-CB--CG-[CD2] |==|  0.78279
USER: genes 17 Torsion [C]-CA--N-[C] |==|  0.80950
USER: genes 18 Torsion [N]-C--CA-[N] |==|  0.61655
USER: genes 19 Torsion [C]-CA--CB-[CG] |==|  0.73811
USER: genes 20 Torsion [CA]-CB--CG-[OD1] |==|  0.11275
ROOT
ATOM      1  CA  LEU D  11      19.305   4.756  59.923  1.00 47.89 LIG 0.18  C 
ENDROOT
BRANCH 1 2
ATOM      2  C   LEU D  11      18.611   3.432  59.634  1.00 48.14 LIG 0.24  C 
ATOM      3 O    LEU D  11      19.223   2.496  59.135  1.00 47.13 LIG-0.27  OA
ATOM      4  N   HIS D  12      17.315   3.375  59.915  1.00 49.28 LIG-0.35  N 
ATOM      5 H    HIS D  12      16.867   4.015  60.274  1.00 49.28 LIG 0.16  HD
BRANCH 4 6
ATOM      6  CA  HIS D  12      16.541   2.173  59.621  1.00 50.49 LIG 0.18  C 
BRANCH 6 7
ATOM      7  C   HIS D  12      15.648   2.360  58.396  1.00 51.38 LIG 0.24  C 
ATOM      8  N   ILE D  13      16.082   1.755  57.303  1.00 53.16 LIG-0.34  N 
ATOM      9 H    ILE D  13      16.825   1.323  57.296  1.00 53.16 LIG 0.16  HD
ATOM     10 O    HIS D  12      14.616   3.013  58.456  1.00 51.57 LIG-0.27  OA
BRANCH 8 11
ATOM     11  CA  ILE D  13      15.412   1.719  55.992  1.00 55.12 LIG 0.19  C 
BRANCH 11 12
ATOM     12  CB  ILE D  13      15.073   0.268  55.494  1.00 55.01 LIG 0.01  C 
ATOM     13  CG2 ILE D  13      15.782  -0.091  54.175  1.00 56.15 LIG 0.01  C 
BRANCH 12 14
ATOM     14  CG1 ILE D  13      15.407  -0.754  56.585  1.00 55.50 LIG 0.00  C 
ATOM     15  CD1 ILE D  13      14.465  -1.988  56.616  1.00 55.45 LIG 0.01  C 
ENDBRANCH 12 14
ENDBRANCH 11 12
BRANCH 11 16
ATOM     16  C   ILE D  13      14.285   2.717  55.711  1.00 55.63 LIG 0.20  C 
ATOM     17 O    ILE D  13      13.143   2.529  56.139  1.00 56.94 LIG-0.65  OA
ATOM     18 OXT  ILE D  13      14.551   3.708  55.017  1.00 55.86 LIG-0.65  OA
ENDBRANCH 11 16
ENDBRANCH 8 11
ENDBRANCH 6 7
BRANCH 6 19
ATOM     19  CB  HIS D  12      15.700   1.746  60.826  1.00 50.55 LIG 0.10  C 
BRANCH 19 20
ATOM     20  CG  HIS D  12      16.505   1.466  62.055  1.00 49.61 LIG 0.06  A 
ATOM     21  CD2 HIS D  12      16.532   0.393  62.880  1.00 48.49 LIG 0.14  A 
ATOM     22 NE2  HIS D  12      17.460   0.657  63.856  1.00 48.62 LIG-0.25  NA
ATOM     23  CE1 HIS D  12      18.001   1.839  63.627  1.00 49.12 LIG 0.23  A 
ATOM     24 ND1  HIS D  12      17.439   2.351  62.548  1.00 49.92 LIG-0.24  NA
ENDBRANCH 19 20
ENDBRANCH 6 19
ENDBRANCH 4 6
ENDBRANCH 1 2
BRANCH 1 25
ATOM     25  CB  LEU D  11      20.132   4.581  61.192  1.00 47.69 LIG 0.04  C 
BRANCH 25 26
ATOM     26  CG  LEU D  11      21.660   4.505  61.087  1.00 48.05 LIG-0.02  C 
ATOM     27  CD1 LEU D  11      22.061   3.516  60.002  1.00 46.53 LIG 0.01  C 
ATOM     28  CD2 LEU D  11      22.296   5.854  60.848  1.00 50.43 LIG 0.01  C 
ENDBRANCH 25 26
ENDBRANCH 1 25
BRANCH 1 29
ATOM     29  N   LEU D  11      18.382   5.868  60.095  1.00 47.51 LIG-0.35  N 
ATOM     30  C   LEU D  10      17.665   6.376  59.091  1.00 47.80 LIG 0.24  C 
ATOM     31 O    LEU D  10      17.657   5.906  57.944  1.00 47.07 LIG-0.27  OA
ATOM     32 H    LEU D  11      18.343   6.166  60.901  1.00 47.51 LIG 0.16  HD
BRANCH 30 33
ATOM     33  CA  LEU D  10      16.836   7.607  59.433  1.00 47.63 LIG 0.18  C 
BRANCH 33 34
ATOM     34  CB  LEU D  10      15.629   7.238  60.290  1.00 47.29 LIG 0.04  C 
BRANCH 34 35
ATOM     35  CG  LEU D  10      15.034   5.863  59.965  1.00 46.92 LIG-0.02  C 
ATOM     36  CD1 LEU D  10      14.202   5.312  61.122  1.00 46.83 LIG 0.01  C 
ATOM     37  CD2 LEU D  10      14.194   5.913  58.732  1.00 45.50 LIG 0.01  C 
ENDBRANCH 34 35
ENDBRANCH 33 34
BRANCH 33 38
ATOM     38  N   LEU D  10      16.446   8.296  58.215  1.00 47.82 LIG-0.35  N 
ATOM     39 H    LEU D  10      15.606   8.265  58.034  1.00 47.82 LIG 0.16  HD
ATOM     40  C   ASP D   9      17.353   8.913  57.469  1.00 48.63 LIG 0.26  C 
ATOM     41 O    ASP D   9      18.552   8.932  57.741  1.00 48.10 LIG-0.27  OA
BRANCH 40 42
ATOM     42  CA  ASP D   9      16.835   9.600  56.233  1.00 49.27 LIG 0.41  C 
ATOM     43  N   ASP D   9      17.791   9.322  55.129  1.00 49.86 LIG 0.61  N 
BRANCH 42 44
ATOM     44  CB  ASP D   9      15.457   9.044  55.902  1.00 50.02 LIG 0.16  C 
BRANCH 44 45
ATOM     45  CG  ASP D   9      15.509   7.921  54.909  1.00 50.84 LIG 0.17  C 
ATOM     46 OD1  ASP D   9      16.418   7.079  55.016  1.00 53.44 LIG-0.65  OA
ATOM     47 OD2  ASP D   9      14.665   7.779  53.996  1.00 53.75 LIG-0.65  OA
ENDBRANCH 44 45
ENDBRANCH 42 44
ENDBRANCH 40 42
ENDBRANCH 33 38
ENDBRANCH 30 33
ENDBRANCH 1 29
TORSDOF 19
ENDMDL
MODEL 77
USER: ADFR SOLUTION from run 172
USER: SCORE 16.986525 LL:  -5.770 LR: -11.677 RR:   0.000 FEB:  -6.010
USER: RMSD 7.084588
USER: SEED 171
USER: STATUS searching
USER: GENES 21
USER: genes 0 Translation |==|  0.44237 0.22066 0.42495
USER: genes 1 Rotation |==|  0.15405 0.41664 0.29192 0.78297
USER: genes 2 Torsion [N]-CA--C-[N] |==|  0.93718
USER: genes 3 Torsion [C]-N--CA-[C] |==|  0.79533
USER: genes 4 Torsion [N]-CA--C-[N] |==|  0.43775
USER: genes 5 Torsion [C]-N--CA-[CB] |==|  0.25566
USER: genes 6 Torsion [N]-CA--CB-[CG1] |==|  0.89008
USER: genes 7 Torsion [CA]-CB--CG1-[CD1] |==|  0.25905
USER: genes 8 Torsion [N]-CA--C-[OXT] |==|  0.64700
USER: genes 9 Torsion [N]-CA--CB-[CG] |==|  0.32370
USER: genes 10 Torsion [CA]-CB--CG-[CD2] |==|  0.29339
USER: genes 11 Torsion [C]-CA--CB-[CG] |==|  0.49295
USER: genes 12 Torsion [CA]-CB--CG-[CD1] |==|  0.21138
USER: genes 13 Torsion [C]-CA--N-[C] |==|  0.81873
USER: genes 14 Torsion [N]-C--CA-[N] |==|  0.83643
USER: genes 15 Torsion [C]-CA--CB-[CG] |==|  0.25509
USER: genes 16 Torsion [CA]-CB--CG-[CD2] |==|  0.20246
USER: genes 17 Torsion [C]-CA--N-[C] |==|  0.79132
USER: genes 18 Torsion [N]-C--CA-[N] |==|  0.54775
USER: genes 19 Torsion [C]-CA--CB-[CG] |==|  0.77669
USER: genes 20 Torsion [CA]-CB--CG-[OD1] |==|  0.80369
ROOT
ATOM      1  CA  LEU D  11      17.658   1.791  61.202  1.00 47.89 LIG 0.18  C 
ENDROOT
BRANCH 1 2
ATOM      2  C   LEU D  11      16.521   1.708  60.193  1.00 48.14 LIG 0.24  C 
ATOM      3 O    LEU D  11      16.157   0.630  59.742  1.00 47.13 LIG-0.27  OA
ATOM      4  N   HIS D  12      15.989   2.864  59.811  1.00 49.28 LIG-0.35  N 
ATOM      5 H    HIS D  12      16.222   3.631  60.120  1.00 49.28 LIG 0.16  HD
BRANCH 4 6
ATOM      6  CA  HIS D  12      14.935   2.901  58.803  1.00 50.49 LIG 0.18  C 
BRANCH 6 7
ATOM      7  C   HIS D  12      15.479   2.628  57.403  1.00 51.38 LIG 0.24  C 
ATOM      8  N   ILE D  13      14.577   2.191  56.538  1.00 53.16 LIG-0.34  N 
ATOM      9 H    ILE D  13      13.763   2.050  56.775  1.00 53.16 LIG 0.16  HD
ATOM     10 O    HIS D  12      16.656   2.816  57.131  1.00 51.57 LIG-0.27  OA
BRANCH 8 11
ATOM     11  CA  ILE D  13      14.797   1.891  55.114  1.00 55.12 LIG 0.19  C 
BRANCH 11 12
ATOM     12  CB  ILE D  13      15.176   0.391  54.834  1.00 55.01 LIG 0.01  C 
ATOM     13  CG2 ILE D  13      15.781   0.181  53.434  1.00 56.15 LIG 0.01  C 
BRANCH 12 14
ATOM     14  CG1 ILE D  13      16.128  -0.122  55.920  1.00 55.50 LIG 0.00  C 
ATOM     15  CD1 ILE D  13      15.421  -0.831  57.106  1.00 55.45 LIG 0.01  C 
ENDBRANCH 12 14
ENDBRANCH 11 12
BRANCH 11 16
ATOM     16  C   ILE D  13      13.818   2.455  54.080  1.00 55.63 LIG 0.20  C 
ATOM     17 O    ILE D  13      13.532   3.654  54.059  1.00 56.94 LIG-0.65  OA
ATOM     18 OXT  ILE D  13      13.301   1.660  53.282  1.00 55.86 LIG-0.65  OA
ENDBRANCH 11 16
ENDBRANCH 8 11
ENDBRANCH 6 7
BRANCH 6 19
ATOM     19  CB  HIS D  12      14.191   4.239  58.828  1.00 50.55 LIG 0.10  C 
BRANCH 19 20
ATOM     20  CG  HIS D  12      14.334   5.031  57.567  1.00 49.61 LIG 0.06  A 
ATOM     21  CD2 HIS D  12      13.464   5.265  56.556  1.00 48.49 LIG 0.14  A 
ATOM     22 NE2  HIS D  12      14.108   6.065  55.646  1.00 48.62 LIG-0.25  NA
ATOM     23  CE1 HIS D  12      15.322   6.333  56.091  1.00 49.12 LIG 0.23  A 
ATOM     24 ND1  HIS D  12      15.485   5.717  57.247  1.00 49.92 LIG-0.24  NA
ENDBRANCH 19 20
ENDBRANCH 6 19
ENDBRANCH 4 6
ENDBRANCH 1 2
BRANCH 1 25
ATOM     25  CB  LEU D  11      17.075   1.514  62.584  1.00 47.69 LIG 0.04  C 
BRANCH 25 26
ATOM     26  CG  LEU D  11      18.012   1.475  63.798  1.00 48.05 LIG-0.02  C 
ATOM     27  CD1 LEU D  11      18.407   2.889  64.200  1.00 46.53 LIG 0.01  C 
ATOM     28  CD2 LEU D  11      17.419   0.728  64.969  1.00 50.43 LIG 0.01  C 
ENDBRANCH 25 26
ENDBRANCH 1 25
BRANCH 1 29
ATOM     29  N   LEU D  11      18.333   3.081  61.210  1.00 47.51 LIG-0.35  N 
ATOM     30  C   LEU D  10      19.032   3.538  60.170  1.00 47.80 LIG 0.24  C 
ATOM     31 O    LEU D  10      19.110   2.951  59.081  1.00 47.07 LIG-0.27  OA
ATOM     32 H    LEU D  11      18.239   3.519  61.944  1.00 47.51 LIG 0.16  HD
BRANCH 30 33
ATOM     33  CA  LEU D  10      19.760   4.857  60.397  1.00 47.63 LIG 0.18  C 
BRANCH 33 34
ATOM     34  CB  LEU D  10      20.859   4.707  61.445  1.00 47.29 LIG 0.04  C 
BRANCH 34 35
ATOM     35  CG  LEU D  10      22.232   4.357  60.860  1.00 46.92 LIG-0.02  C 
ATOM     36  CD1 LEU D  10      22.157   3.178  59.892  1.00 46.83 LIG 0.01  C 
ATOM     37  CD2 LEU D  10      22.840   5.529  60.166  1.00 45.50 LIG 0.01  C 
ENDBRANCH 34 35
ENDBRANCH 33 34
BRANCH 33 38
ATOM     38  N   LEU D  10      18.807   5.893  60.754  1.00 47.82 LIG-0.35  N 
ATOM     39 H    LEU D  10      18.805   6.112  61.586  1.00 47.82 LIG 0.16  HD
ATOM     40  C   ASP D   9      18.020   6.434  59.832  1.00 48.63 LIG 0.26  C 
ATOM     41 O    ASP D   9      18.032   6.094  58.651  1.00 48.10 LIG-0.27  OA
BRANCH 40 42
ATOM     42  CA  ASP D   9      17.077   7.504  60.315  1.00 49.27 LIG 0.41  C 
ATOM     43  N   ASP D   9      16.025   7.677  59.279  1.00 49.86 LIG 0.61  N 
BRANCH 42 44
ATOM     44  CB  ASP D   9      16.463   7.060  61.635  1.00 50.02 LIG 0.16  C 
BRANCH 44 45
ATOM     45  CG  ASP D   9      15.327   6.098  61.450  1.00 50.84 LIG 0.17  C 
ATOM     46 OD1  ASP D   9      14.261   6.527  60.976  1.00 53.44 LIG-0.65  OA
ATOM     47 OD2  ASP D   9      15.413   4.880  61.726  1.00 53.75 LIG-0.65  OA
ENDBRANCH 44 45
ENDBRANCH 42 44
ENDBRANCH 40 42
ENDBRANCH 33 38
ENDBRANCH 30 33
ENDBRANCH 1 29
TORSDOF 19
ENDMDL
MODEL 78
USER: ADFR SOLUTION from run 105
USER: SCORE 15.442305 LL:  -4.650 LR: -11.669 RR:   0.000 FEB:  -6.001
USER: RMSD 6.823276
USER: SEED 104
USER: STATUS no improvement in best in 7 clusters for 5 generations
USER: GENES 21
USER: genes 0 Translation |==|  0.44222 0.27340 0.38166
USER: genes 1 Rotation |==|  0.27481 0.25382 0.28779 0.80602
USER: genes 2 Torsion [N]-CA--C-[N] |==|  0.66535
USER: genes 3 Torsion [C]-N--CA-[C] |==|  0.78035
USER: genes 4 Torsion [N]-CA--C-[N] |==|  0.94920
USER: genes 5 Torsion [C]-N--CA-[CB] |==|  0.55839
USER: genes 6 Torsion [N]-CA--CB-[CG1] |==|  0.84563
USER: genes 7 Torsion [CA]-CB--CG1-[CD1] |==|  0.27430
USER: genes 8 Torsion [N]-CA--C-[OXT] |==|  0.75061
USER: genes 9 Torsion [N]-CA--CB-[CG] |==|  0.46864
USER: genes 10 Torsion [CA]-CB--CG-[CD2] |==|  0.14136
USER: genes 11 Torsion [C]-CA--CB-[CG] |==|  0.29159
USER: genes 12 Torsion [CA]-CB--CG-[CD1] |==|  0.53147
USER: genes 13 Torsion [C]-CA--N-[C] |==|  0.64585
USER: genes 14 Torsion [N]-C--CA-[N] |==|  0.40650
USER: genes 15 Torsion [C]-CA--CB-[CG] |==|  0.24330
USER: genes 16 Torsion [CA]-CB--CG-[CD2] |==|  0.09359
USER: genes 17 Torsion [C]-CA--N-[C] |==|  0.69449
USER: genes 18 Torsion [N]-C--CA-[N] |==|  0.36846
USER: genes 19 Torsion [C]-CA--CB-[CG] |==|  0.38340
USER: genes 20 Torsion [CA]-CB--CG-[OD1] |==|  0.56932
ROOT
ATOM      1  CA  LEU D  11      17.655   2.780  60.228  1.00 47.89 LIG 0.18  C 
ENDROOT
BRANCH 1 2
ATOM      2  C   LEU D  11      17.427   2.372  58.779  1.00 48.14 LIG 0.24  C 
ATOM      3 O    LEU D  11      18.050   2.904  57.870  1.00 47.13 LIG-0.27  OA
ATOM      4  N   HIS D  12      16.497   1.448  58.569  1.00 49.28 LIG-0.35  N 
ATOM      5 H    HIS D  12      16.054   1.054  59.192  1.00 49.28 LIG 0.16  HD
BRANCH 4 6
ATOM      6  CA  HIS D  12      16.157   1.027  57.214  1.00 50.49 LIG 0.18  C 
BRANCH 6 7
ATOM      7  C   HIS D  12      15.233   2.029  56.524  1.00 51.38 LIG 0.24  C 
ATOM      8  N   ILE D  13      14.611   2.858  57.346  1.00 53.16 LIG-0.34  N 
ATOM      9 H    ILE D  13      14.709   2.800  58.199  1.00 53.16 LIG 0.16  HD
ATOM     10 O    HIS D  12      15.107   2.045  55.309  1.00 51.57 LIG-0.27  OA
BRANCH 8 11
ATOM     11  CA  ILE D  13      13.701   3.953  56.969  1.00 55.12 LIG 0.19  C 
BRANCH 11 12
ATOM     12  CB  ILE D  13      13.540   5.054  58.080  1.00 55.01 LIG 0.01  C 
ATOM     13  CG2 ILE D  13      12.582   6.185  57.664  1.00 56.15 LIG 0.01  C 
BRANCH 12 14
ATOM     14  CG1 ILE D  13      13.085   4.412  59.394  1.00 55.50 LIG 0.00  C 
ATOM     15  CD1 ILE D  13      14.230   4.155  60.410  1.00 55.45 LIG 0.01  C 
ENDBRANCH 12 14
ENDBRANCH 11 12
BRANCH 11 16
ATOM     16  C   ILE D  13      13.803   4.547  55.561  1.00 55.63 LIG 0.20  C 
ATOM     17 O    ILE D  13      13.158   4.076  54.621  1.00 56.94 LIG-0.65  OA
ATOM     18 OXT  ILE D  13      14.577   5.500  55.391  1.00 55.86 LIG-0.65  OA
ENDBRANCH 11 16
ENDBRANCH 8 11
ENDBRANCH 6 7
BRANCH 6 19
ATOM     19  CB  HIS D  12      15.522  -0.365  57.207  1.00 50.55 LIG 0.10  C 
BRANCH 19 20
ATOM     20  CG  HIS D  12      14.910  -0.743  55.896  1.00 49.61 LIG 0.06  A 
ATOM     21  CD2 HIS D  12      15.407  -0.714  54.637  1.00 48.49 LIG 0.14  A 
ATOM     22 NE2  HIS D  12      14.420  -1.176  53.802  1.00 48.62 LIG-0.25  NA
ATOM     23  CE1 HIS D  12      13.363  -1.500  54.524  1.00 49.12 LIG 0.23  A 
ATOM     24 ND1  HIS D  12      13.631  -1.244  55.791  1.00 49.92 LIG-0.24  NA
ENDBRANCH 19 20
ENDBRANCH 6 19
ENDBRANCH 4 6
ENDBRANCH 1 2
BRANCH 1 25
ATOM     25  CB  LEU D  11      16.715   1.953  61.098  1.00 47.69 LIG 0.04  C 
BRANCH 25 26
ATOM     26  CG  LEU D  11      17.284   0.792  61.922  1.00 48.05 LIG-0.02  C 
ATOM     27  CD1 LEU D  11      16.152  -0.056  62.483  1.00 46.53 LIG 0.01  C 
ATOM     28  CD2 LEU D  11      18.257  -0.058  61.140  1.00 50.43 LIG 0.01  C 
ENDBRANCH 25 26
ENDBRANCH 1 25
BRANCH 1 29
ATOM     29  N   LEU D  11      17.425   4.196  60.474  1.00 47.51 LIG-0.35  N 
ATOM     30  C   LEU D  10      18.322   4.982  61.072  1.00 47.80 LIG 0.24  C 
ATOM     31 O    LEU D  10      19.456   4.606  61.402  1.00 47.07 LIG-0.27  OA
ATOM     32 H    LEU D  11      16.660   4.477  60.200  1.00 47.51 LIG 0.16  HD
BRANCH 30 33
ATOM     33  CA  LEU D  10      17.866   6.410  61.344  1.00 47.63 LIG 0.18  C 
BRANCH 33 34
ATOM     34  CB  LEU D  10      18.178   7.323  60.163  1.00 47.29 LIG 0.04  C 
BRANCH 34 35
ATOM     35  CG  LEU D  10      17.078   7.356  59.095  1.00 46.92 LIG-0.02  C 
ATOM     36  CD1 LEU D  10      17.275   6.272  58.038  1.00 46.83 LIG 0.01  C 
ATOM     37  CD2 LEU D  10      15.725   7.210  59.707  1.00 45.50 LIG 0.01  C 
ENDBRANCH 34 35
ENDBRANCH 33 34
BRANCH 33 38
ATOM     38  N   LEU D  10      18.463   6.894  62.577  1.00 47.82 LIG-0.35  N 
ATOM     39 H    LEU D  10      19.310   7.038  62.537  1.00 47.82 LIG 0.16  HD
ATOM     40  C   ASP D   9      17.718   7.087  63.658  1.00 48.63 LIG 0.26  C 
ATOM     41 O    ASP D   9      16.510   6.861  63.694  1.00 48.10 LIG-0.27  OA
BRANCH 40 42
ATOM     42  CA  ASP D   9      18.441   7.598  64.876  1.00 49.27 LIG 0.41  C 
ATOM     43  N   ASP D   9      17.649   8.727  65.429  1.00 49.86 LIG 0.61  N 
BRANCH 42 44
ATOM     44  CB  ASP D   9      18.550   6.471  65.893  1.00 50.02 LIG 0.16  C 
BRANCH 44 45
ATOM     45  CG  ASP D   9      19.897   6.414  66.552  1.00 50.84 LIG 0.17  C 
ATOM     46 OD1  ASP D   9      20.282   5.327  67.016  1.00 53.44 LIG-0.65  OA
ATOM     47 OD2  ASP D   9      20.658   7.404  66.632  1.00 53.75 LIG-0.65  OA
ENDBRANCH 44 45
ENDBRANCH 42 44
ENDBRANCH 40 42
ENDBRANCH 33 38
ENDBRANCH 30 33
ENDBRANCH 1 29
TORSDOF 19
ENDMDL
MODEL 79
USER: ADFR SOLUTION from run 43
USER: SCORE 16.128757 LL:  -4.563 LR: -11.675 RR:   0.000 FEB:  -6.007
USER: RMSD 10.251426
USER: SEED 42
USER: STATUS no improvement in best in 4 clusters for 5 generations
USER: GENES 21
USER: genes 0 Translation |==|  0.45826 0.40669 0.33893
USER: genes 1 Rotation |==|  0.83019 0.72746 0.20225 0.52410
USER: genes 2 Torsion [N]-CA--C-[N] |==|  0.39249
USER: genes 3 Torsion [C]-N--CA-[C] |==|  0.82906
USER: genes 4 Torsion [N]-CA--C-[N] |==|  0.38794
USER: genes 5 Torsion [C]-N--CA-[CB] |==|  0.49696
USER: genes 6 Torsion [N]-CA--CB-[CG1] |==|  0.53242
USER: genes 7 Torsion [CA]-CB--CG1-[CD1] |==|  0.37695
USER: genes 8 Torsion [N]-CA--C-[OXT] |==|  0.79174
USER: genes 9 Torsion [N]-CA--CB-[CG] |==|  0.10984
USER: genes 10 Torsion [CA]-CB--CG-[CD2] |==|  0.23993
USER: genes 11 Torsion [C]-CA--CB-[CG] |==|  0.08720
USER: genes 12 Torsion [CA]-CB--CG-[CD1] |==|  0.19075
USER: genes 13 Torsion [C]-CA--N-[C] |==|  0.80739
USER: genes 14 Torsion [N]-C--CA-[N] |==|  0.03333
USER: genes 15 Torsion [C]-CA--CB-[CG] |==|  0.33211
USER: genes 16 Torsion [CA]-CB--CG-[CD2] |==|  0.30707
USER: genes 17 Torsion [C]-CA--N-[C] |==|  0.76060
USER: genes 18 Torsion [N]-C--CA-[N] |==|  0.80876
USER: genes 19 Torsion [C]-CA--CB-[CG] |==|  0.76039
USER: genes 20 Torsion [CA]-CB--CG-[OD1] |==|  0.80641
ROOT
ATOM      1  CA  LEU D  11      17.968   5.279  59.267  1.00 47.89 LIG 0.18  C 
ENDROOT
BRANCH 1 2
ATOM      2  C   LEU D  11      18.438   4.877  60.659  1.00 48.14 LIG 0.24  C 
ATOM      3 O    LEU D  11      17.642   4.503  61.509  1.00 47.13 LIG-0.27  OA
ATOM      4  N   HIS D  12      19.740   4.996  60.896  1.00 49.28 LIG-0.35  N 
ATOM      5 H    HIS D  12      20.319   5.248  60.312  1.00 49.28 LIG 0.16  HD
BRANCH 4 6
ATOM      6  CA  HIS D  12      20.288   4.695  62.214  1.00 50.49 LIG 0.18  C 
BRANCH 6 7
ATOM      7  C   HIS D  12      19.710   5.611  63.291  1.00 51.38 LIG 0.24  C 
ATOM      8  N   ILE D  13      19.435   5.008  64.436  1.00 53.16 LIG-0.34  N 
ATOM      9 H    ILE D  13      19.551   4.162  64.534  1.00 53.16 LIG 0.16  HD
ATOM     10 O    HIS D  12      19.536   6.803  63.084  1.00 51.57 LIG-0.27  OA
BRANCH 8 11
ATOM     11  CA  ILE D  13      18.917   5.640  65.661  1.00 55.12 LIG 0.19  C 
BRANCH 11 12
ATOM     12  CB  ILE D  13      18.672   4.630  66.839  1.00 55.01 LIG 0.01  C 
ATOM     13  CG2 ILE D  13      19.979   4.029  67.391  1.00 56.15 LIG 0.01  C 
BRANCH 12 14
ATOM     14  CG1 ILE D  13      17.873   5.309  67.956  1.00 55.50 LIG 0.00  C 
ATOM     15  CD1 ILE D  13      16.722   4.443  68.536  1.00 55.45 LIG 0.01  C 
ENDBRANCH 12 14
ENDBRANCH 11 12
BRANCH 11 16
ATOM     16  C   ILE D  13      19.539   6.958  66.132  1.00 55.63 LIG 0.20  C 
ATOM     17 O    ILE D  13      18.960   8.034  65.965  1.00 56.94 LIG-0.65  OA
ATOM     18 OXT  ILE D  13      20.657   6.910  66.665  1.00 55.86 LIG-0.65  OA
ENDBRANCH 11 16
ENDBRANCH 8 11
ENDBRANCH 6 7
BRANCH 6 19
ATOM     19  CB  HIS D  12      21.815   4.782  62.213  1.00 50.55 LIG 0.10  C 
BRANCH 19 20
ATOM     20  CG  HIS D  12      22.355   5.916  61.402  1.00 49.61 LIG 0.06  A 
ATOM     21  CD2 HIS D  12      22.584   7.212  61.719  1.00 48.49 LIG 0.14  A 
ATOM     22 NE2  HIS D  12      23.092   7.820  60.598  1.00 48.62 LIG-0.25  NA
ATOM     23  CE1 HIS D  12      23.195   6.925  59.633  1.00 49.12 LIG 0.23  A 
ATOM     24 ND1  HIS D  12      22.752   5.768  60.090  1.00 49.92 LIG-0.24  NA
ENDBRANCH 19 20
ENDBRANCH 6 19
ENDBRANCH 4 6
ENDBRANCH 1 2
BRANCH 1 25
ATOM     25  CB  LEU D  11      17.444   6.709  59.348  1.00 47.69 LIG 0.04  C 
BRANCH 25 26
ATOM     26  CG  LEU D  11      18.068   7.680  60.358  1.00 48.05 LIG-0.02  C 
ATOM     27  CD1 LEU D  11      19.495   8.015  59.948  1.00 46.53 LIG 0.01  C 
ATOM     28  CD2 LEU D  11      17.250   8.936  60.543  1.00 50.43 LIG 0.01  C 
ENDBRANCH 25 26
ENDBRANCH 1 25
BRANCH 1 29
ATOM     29  N   LEU D  11      16.930   4.410  58.733  1.00 47.51 LIG-0.35  N 
ATOM     30  C   LEU D  10      17.158   3.147  58.372  1.00 47.80 LIG 0.24  C 
ATOM     31 O    LEU D  10      18.245   2.572  58.527  1.00 47.07 LIG-0.27  OA
ATOM     32 H    LEU D  11      16.159   4.787  58.672  1.00 47.51 LIG 0.16  HD
BRANCH 30 33
ATOM     33  CA  LEU D  10      15.980   2.424  57.733  1.00 47.63 LIG 0.18  C 
BRANCH 33 34
ATOM     34  CB  LEU D  10      16.423   1.617  56.515  1.00 47.29 LIG 0.04  C 
BRANCH 34 35
ATOM     35  CG  LEU D  10      16.157   0.113  56.637  1.00 46.92 LIG-0.02  C 
ATOM     36  CD1 LEU D  10      15.782  -0.289  58.062  1.00 46.83 LIG 0.01  C 
ATOM     37  CD2 LEU D  10      15.081  -0.325  55.700  1.00 45.50 LIG 0.01  C 
ENDBRANCH 34 35
ENDBRANCH 33 34
BRANCH 33 38
ATOM     38  N   LEU D  10      14.934   3.377  57.401  1.00 47.82 LIG-0.35  N 
ATOM     39 H    LEU D  10      14.962   3.679  56.596  1.00 47.82 LIG 0.16  HD
ATOM     40  C   ASP D   9      14.026   3.723  58.304  1.00 48.63 LIG 0.26  C 
ATOM     41 O    ASP D   9      14.016   3.288  59.453  1.00 48.10 LIG-0.27  OA
BRANCH 40 42
ATOM     42  CA  ASP D   9      12.986   4.712  57.848  1.00 49.27 LIG 0.41  C 
ATOM     43  N   ASP D   9      13.665   6.018  57.645  1.00 49.86 LIG 0.61  N 
BRANCH 42 44
ATOM     44  CB  ASP D   9      12.374   4.217  56.545  1.00 50.02 LIG 0.16  C 
BRANCH 44 45
ATOM     45  CG  ASP D   9      13.159   4.641  55.339  1.00 50.84 LIG 0.17  C 
ATOM     46 OD1  ASP D   9      13.157   5.844  55.026  1.00 53.44 LIG-0.65  OA
ATOM     47 OD2  ASP D   9      13.836   3.844  54.652  1.00 53.75 LIG-0.65  OA
ENDBRANCH 44 45
ENDBRANCH 42 44
ENDBRANCH 40 42
ENDBRANCH 33 38
ENDBRANCH 30 33
ENDBRANCH 1 29
TORSDOF 19
ENDMDL
MODEL 80
USER: ADFR SOLUTION from run 5
USER: SCORE 14.663994 LL:  -4.587 LR: -11.670 RR:   0.000 FEB:  -6.003
USER: RMSD 4.286008
USER: SEED 709208
USER: STATUS no improvement in best in 14 clusters for 5 generations
USER: GENES 21
USER: genes 0 Translation |==|  0.57858 0.43374 0.46178
USER: genes 1 Rotation |==|  0.43253 0.45745 0.52207 0.99310
USER: genes 2 Torsion [N]-CA--C-[N] |==|  0.62948
USER: genes 3 Torsion [C]-N--CA-[C] |==|  0.18318
USER: genes 4 Torsion [N]-CA--C-[N] |==|  0.52408
USER: genes 5 Torsion [C]-N--CA-[CB] |==|  0.95778
USER: genes 6 Torsion [N]-CA--CB-[CG1] |==|  0.62215
USER: genes 7 Torsion [CA]-CB--CG1-[CD1] |==|  0.70711
USER: genes 8 Torsion [N]-CA--C-[OXT] |==|  0.47141
USER: genes 9 Torsion [N]-CA--CB-[CG] |==|  0.78241
USER: genes 10 Torsion [CA]-CB--CG-[CD2] |==|  0.71197
USER: genes 11 Torsion [C]-CA--CB-[CG] |==|  0.29043
USER: genes 12 Torsion [CA]-CB--CG-[CD1] |==|  0.70362
USER: genes 13 Torsion [C]-CA--N-[C] |==|  0.16545
USER: genes 14 Torsion [N]-C--CA-[N] |==|  0.02659
USER: genes 15 Torsion [C]-CA--CB-[CG] |==|  0.24431
USER: genes 16 Torsion [CA]-CB--CG-[CD2] |==|  0.36922
USER: genes 17 Torsion [C]-CA--N-[C] |==|  0.67222
USER: genes 18 Torsion [N]-C--CA-[N] |==|  0.58697
USER: genes 19 Torsion [C]-CA--CB-[CG] |==|  0.77883
USER: genes 20 Torsion [CA]-CB--CG-[OD1] |==|  0.80973
ROOT
ATOM      1  CA  LEU D  11      20.314   5.787  62.031  1.00 47.89 LIG 0.18  C 
ENDROOT
BRANCH 1 2
ATOM      2  C   LEU D  11      19.007   5.382  61.363  1.00 48.14 LIG 0.24  C 
ATOM      3 O    LEU D  11      18.005   6.076  61.468  1.00 47.13 LIG-0.27  OA
ATOM      4  N   HIS D  12      19.017   4.227  60.706  1.00 49.28 LIG-0.35  N 
ATOM      5 H    HIS D  12      19.710   3.728  60.611  1.00 49.28 LIG 0.16  HD
BRANCH 4 6
ATOM      6  CA  HIS D  12      17.802   3.716  60.080  1.00 50.49 LIG 0.18  C 
BRANCH 6 7
ATOM      7  C   HIS D  12      17.340   4.607  58.928  1.00 51.38 LIG 0.24  C 
ATOM      8  N   ILE D  13      16.150   4.298  58.439  1.00 53.16 LIG-0.34  N 
ATOM      9 H    ILE D  13      15.703   3.628  58.739  1.00 53.16 LIG 0.16  HD
ATOM     10 O    HIS D  12      18.032   5.528  58.521  1.00 51.57 LIG-0.27  OA
BRANCH 8 11
ATOM     11  CA  ILE D  13      15.431   5.004  57.365  1.00 55.12 LIG 0.19  C 
BRANCH 11 12
ATOM     12  CB  ILE D  13      16.009   6.430  57.046  1.00 55.01 LIG 0.01  C 
ATOM     13  CG2 ILE D  13      16.925   6.439  55.808  1.00 56.15 LIG 0.01  C 
BRANCH 12 14
ATOM     14  CG1 ILE D  13      14.866   7.437  56.884  1.00 55.50 LIG 0.00  C 
ATOM     15  CD1 ILE D  13      14.586   7.854  55.415  1.00 55.45 LIG 0.01  C 
ENDBRANCH 12 14
ENDBRANCH 11 12
BRANCH 11 16
ATOM     16  C   ILE D  13      15.043   4.229  56.102  1.00 55.63 LIG 0.20  C 
ATOM     17 O    ILE D  13      15.499   3.106  55.877  1.00 56.94 LIG-0.65  OA
ATOM     18 OXT  ILE D  13      14.274   4.779  55.301  1.00 55.86 LIG-0.65  OA
ENDBRANCH 11 16
ENDBRANCH 8 11
ENDBRANCH 6 7
BRANCH 6 19
ATOM     19  CB  HIS D  12      16.676   3.554  61.104  1.00 50.55 LIG 0.10  C 
BRANCH 19 20
ATOM     20  CG  HIS D  12      16.803   2.327  61.950  1.00 49.61 LIG 0.06  A 
ATOM     21  CD2 HIS D  12      16.149   1.142  61.910  1.00 48.49 LIG 0.14  A 
ATOM     22 NE2  HIS D  12      16.662   0.363  62.917  1.00 48.62 LIG-0.25  NA
ATOM     23  CE1 HIS D  12      17.614   1.034  63.538  1.00 49.12 LIG 0.23  A 
ATOM     24 ND1  HIS D  12      17.717   2.224  62.977  1.00 49.92 LIG-0.24  NA
ENDBRANCH 19 20
ENDBRANCH 6 19
ENDBRANCH 4 6
ENDBRANCH 1 2
BRANCH 1 25
ATOM     25  CB  LEU D  11      21.242   4.577  62.011  1.00 47.69 LIG 0.04  C 
BRANCH 25 26
ATOM     26  CG  LEU D  11      22.404   4.540  61.010  1.00 48.05 LIG-0.02  C 
ATOM     27  CD1 LEU D  11      22.101   3.553  59.892  1.00 46.53 LIG 0.01  C 
ATOM     28  CD2 LEU D  11      22.737   5.903  60.451  1.00 50.43 LIG 0.01  C 
ENDBRANCH 25 26
ENDBRANCH 1 25
BRANCH 1 29
ATOM     29  N   LEU D  11      20.146   6.246  63.402  1.00 47.51 LIG-0.35  N 
ATOM     30  C   LEU D  10      19.620   5.484  64.362  1.00 47.80 LIG 0.24  C 
ATOM     31 O    LEU D  10      19.300   4.298  64.201  1.00 47.07 LIG-0.27  OA
ATOM     32 H    LEU D  11      20.416   7.052  63.534  1.00 47.51 LIG 0.16  HD
BRANCH 30 33
ATOM     33  CA  LEU D  10      19.420   6.168  65.708  1.00 47.63 LIG 0.18  C 
BRANCH 33 34
ATOM     34  CB  LEU D  10      18.039   5.864  66.281  1.00 47.29 LIG 0.04  C 
BRANCH 34 35
ATOM     35  CG  LEU D  10      17.985   4.585  67.124  1.00 46.92 LIG-0.02  C 
ATOM     36  CD1 LEU D  10      19.378   4.029  67.410  1.00 46.83 LIG 0.01  C 
ATOM     37  CD2 LEU D  10      17.270   4.816  68.414  1.00 45.50 LIG 0.01  C 
ENDBRANCH 34 35
ENDBRANCH 33 34
BRANCH 33 38
ATOM     38  N   LEU D  10      19.650   7.597  65.577  1.00 47.82 LIG-0.35  N 
ATOM     39 H    LEU D  10      19.113   8.003  65.041  1.00 47.82 LIG 0.16  HD
ATOM     40  C   ASP D   9      20.627   8.188  66.253  1.00 48.63 LIG 0.26  C 
ATOM     41 O    ASP D   9      21.392   7.584  67.001  1.00 48.10 LIG-0.27  OA
BRANCH 40 42
ATOM     42  CA  ASP D   9      20.769   9.673  66.045  1.00 49.27 LIG 0.41  C 
ATOM     43  N   ASP D   9      22.208  10.012  66.190  1.00 49.86 LIG 0.61  N 
BRANCH 42 44
ATOM     44  CB  ASP D   9      20.273  10.024  64.650  1.00 50.02 LIG 0.16  C 
BRANCH 44 45
ATOM     45  CG  ASP D   9      21.286   9.729  63.584  1.00 50.84 LIG 0.17  C 
ATOM     46 OD1  ASP D   9      22.320  10.418  63.544  1.00 53.44 LIG-0.65  OA
ATOM     47 OD2  ASP D   9      21.149   8.805  62.751  1.00 53.75 LIG-0.65  OA
ENDBRANCH 44 45
ENDBRANCH 42 44
ENDBRANCH 40 42
ENDBRANCH 33 38
ENDBRANCH 30 33
ENDBRANCH 1 29
TORSDOF 19
ENDMDL
MODEL 81
USER: ADFR SOLUTION from run 56
USER: SCORE 15.704083 LL:  -5.180 LR: -11.657 RR:   0.000 FEB:  -5.989
USER: RMSD 11.149468
USER: SEED 55
USER: STATUS searching
USER: GENES 21
USER: genes 0 Translation |==|  0.65666 0.68709 0.66271
USER: genes 1 Rotation |==|  0.49427 0.04346 0.70210 0.52630
USER: genes 2 Torsion [N]-CA--C-[N] |==|  0.90077
USER: genes 3 Torsion [C]-N--CA-[C] |==|  0.15363
USER: genes 4 Torsion [N]-CA--C-[N] |==|  0.11798
USER: genes 5 Torsion [C]-N--CA-[CB] |==|  0.23052
USER: genes 6 Torsion [N]-CA--CB-[CG1] |==|  0.15075
USER: genes 7 Torsion [CA]-CB--CG1-[CD1] |==|  0.60133
USER: genes 8 Torsion [N]-CA--C-[OXT] |==|  0.37074
USER: genes 9 Torsion [N]-CA--CB-[CG] |==|  0.69573
USER: genes 10 Torsion [CA]-CB--CG-[CD2] |==|  0.58723
USER: genes 11 Torsion [C]-CA--CB-[CG] |==|  0.31561
USER: genes 12 Torsion [CA]-CB--CG-[CD1] |==|  0.07353
USER: genes 13 Torsion [C]-CA--N-[C] |==|  0.58393
USER: genes 14 Torsion [N]-C--CA-[N] |==|  0.89161
USER: genes 15 Torsion [C]-CA--CB-[CG] |==|  0.95598
USER: genes 16 Torsion [CA]-CB--CG-[CD2] |==|  0.61594
USER: genes 17 Torsion [C]-CA--N-[C] |==|  0.70823
USER: genes 18 Torsion [N]-C--CA-[N] |==|  0.37079
USER: genes 19 Torsion [C]-CA--CB-[CG] |==|  0.57450
USER: genes 20 Torsion [CA]-CB--CG-[OD1] |==|  0.18719
ROOT
ATOM      1  CA  LEU D  11      21.837  10.537  66.552  1.00 47.89 LIG 0.18  C 
ENDROOT
BRANCH 1 2
ATOM      2  C   LEU D  11      23.316  10.735  66.855  1.00 48.14 LIG 0.24  C 
ATOM      3 O    LEU D  11      23.768  11.849  67.085  1.00 47.13 LIG-0.27  OA
ATOM      4  N   HIS D  12      24.075   9.646  66.812  1.00 49.28 LIG-0.35  N 
ATOM      5 H    HIS D  12      23.779   8.853  66.662  1.00 49.28 LIG 0.16  HD
BRANCH 4 6
ATOM      6  CA  HIS D  12      25.516   9.734  67.027  1.00 50.49 LIG 0.18  C 
BRANCH 6 7
ATOM      7  C   HIS D  12      25.851  10.409  68.355  1.00 51.38 LIG 0.24  C 
ATOM      8  N   ILE D  13      25.094  10.029  69.372  1.00 53.16 LIG-0.34  N 
ATOM      9 H    ILE D  13      24.451   9.468  69.265  1.00 53.16 LIG 0.16  HD
ATOM     10 O    HIS D  12      26.757  11.225  68.442  1.00 51.57 LIG-0.27  OA
BRANCH 8 11
ATOM     11  CA  ILE D  13      25.214  10.470  70.771  1.00 55.12 LIG 0.19  C 
BRANCH 11 12
ATOM     12  CB  ILE D  13      24.505  11.841  71.066  1.00 55.01 LIG 0.01  C 
ATOM     13  CG2 ILE D  13      25.224  13.036  70.413  1.00 56.15 LIG 0.01  C 
BRANCH 12 14
ATOM     14  CG1 ILE D  13      23.040  11.781  70.624  1.00 55.50 LIG 0.00  C 
ATOM     15  CD1 ILE D  13      22.499  13.107  70.024  1.00 55.45 LIG 0.01  C 
ENDBRANCH 12 14
ENDBRANCH 11 12
BRANCH 11 16
ATOM     16  C   ILE D  13      25.003   9.445  71.890  1.00 55.63 LIG 0.20  C 
ATOM     17 O    ILE D  13      24.032   8.685  71.885  1.00 56.94 LIG-0.65  OA
ATOM     18 OXT  ILE D  13      25.828   9.422  72.814  1.00 55.86 LIG-0.65  OA
ENDBRANCH 11 16
ENDBRANCH 8 11
ENDBRANCH 6 7
BRANCH 6 19
ATOM     19  CB  HIS D  12      26.205  10.467  65.875  1.00 50.55 LIG 0.10  C 
BRANCH 19 20
ATOM     20  CG  HIS D  12      27.042   9.579  65.009  1.00 49.61 LIG 0.06  A 
ATOM     21  CD2 HIS D  12      28.175   9.823  64.310  1.00 48.49 LIG 0.14  A 
ATOM     22 NE2  HIS D  12      28.528   8.651  63.690  1.00 48.62 LIG-0.25  NA
ATOM     23  CE1 HIS D  12      27.659   7.713  64.016  1.00 49.12 LIG 0.23  A 
ATOM     24 ND1  HIS D  12      26.748   8.248  64.808  1.00 49.92 LIG-0.24  NA
ENDBRANCH 19 20
ENDBRANCH 6 19
ENDBRANCH 4 6
ENDBRANCH 1 2
BRANCH 1 25
ATOM     25  CB  LEU D  11      21.146  10.136  67.851  1.00 47.69 LIG 0.04  C 
BRANCH 25 26
ATOM     26  CG  LEU D  11      20.127  11.092  68.484  1.00 48.05 LIG-0.02  C 
ATOM     27  CD1 LEU D  11      19.502  11.974  67.412  1.00 46.53 LIG 0.01  C 
ATOM     28  CD2 LEU D  11      19.064  10.372  69.277  1.00 50.43 LIG 0.01  C 
ENDBRANCH 25 26
ENDBRANCH 1 25
BRANCH 1 29
ATOM     29  N   LEU D  11      21.584   9.527  65.536  1.00 47.51 LIG-0.35  N 
ATOM     30  C   LEU D  10      20.535   9.574  64.713  1.00 47.80 LIG 0.24  C 
ATOM     31 O    LEU D  10      19.726  10.512  64.683  1.00 47.07 LIG-0.27  OA
ATOM     32 H    LEU D  11      22.172   8.899  65.515  1.00 47.51 LIG 0.16  HD
BRANCH 30 33
ATOM     33  CA  LEU D  10      20.372   8.374  63.788  1.00 47.63 LIG 0.18  C 
BRANCH 33 34
ATOM     34  CB  LEU D  10      19.608   7.247  64.477  1.00 47.29 LIG 0.04  C 
BRANCH 34 35
ATOM     35  CG  LEU D  10      19.521   7.396  66.000  1.00 46.92 LIG-0.02  C 
ATOM     36  CD1 LEU D  10      18.182   7.985  66.441  1.00 46.83 LIG 0.01  C 
ATOM     37  CD2 LEU D  10      19.735   6.088  66.685  1.00 45.50 LIG 0.01  C 
ENDBRANCH 34 35
ENDBRANCH 33 34
BRANCH 33 38
ATOM     38  N   LEU D  10      21.672   7.936  63.311  1.00 47.82 LIG-0.35  N 
ATOM     39 H    LEU D  10      22.145   7.510  63.889  1.00 47.82 LIG 0.16  HD
ATOM     40  C   ASP D   9      22.057   8.196  62.068  1.00 48.63 LIG 0.26  C 
ATOM     41 O    ASP D   9      21.368   8.820  61.264  1.00 48.10 LIG-0.27  OA
BRANCH 40 42
ATOM     42  CA  ASP D   9      23.421   7.688  61.679  1.00 49.27 LIG 0.41  C 
ATOM     43  N   ASP D   9      23.293   7.025  60.356  1.00 49.86 LIG 0.61  N 
BRANCH 42 44
ATOM     44  CB  ASP D   9      24.381   8.866  61.599  1.00 50.02 LIG 0.16  C 
BRANCH 44 45
ATOM     45  CG  ASP D   9      25.518   8.623  60.651  1.00 50.84 LIG 0.17  C 
ATOM     46 OD1  ASP D   9      25.267   8.538  59.437  1.00 53.44 LIG-0.65  OA
ATOM     47 OD2  ASP D   9      26.709   8.529  61.025  1.00 53.75 LIG-0.65  OA
ENDBRANCH 44 45
ENDBRANCH 42 44
ENDBRANCH 40 42
ENDBRANCH 33 38
ENDBRANCH 30 33
ENDBRANCH 1 29
TORSDOF 19
ENDMDL
MODEL 82
USER: ADFR SOLUTION from run 59
USER: SCORE 15.306609 LL:  -5.066 LR: -11.658 RR:   0.000 FEB:  -5.991
USER: RMSD 9.909004
USER: SEED 58
USER: STATUS no improvement in best in 8 clusters for 5 generations
USER: GENES 21
USER: genes 0 Translation |==|  0.36712 0.21742 0.46547
USER: genes 1 Rotation |==|  0.32369 0.88094 0.77121 0.51573
USER: genes 2 Torsion [N]-CA--C-[N] |==|  0.00986
USER: genes 3 Torsion [C]-N--CA-[C] |==|  0.73333
USER: genes 4 Torsion [N]-CA--C-[N] |==|  0.74457
USER: genes 5 Torsion [C]-N--CA-[CB] |==|  0.90444
USER: genes 6 Torsion [N]-CA--CB-[CG1] |==|  0.62352
USER: genes 7 Torsion [CA]-CB--CG1-[CD1] |==|  0.49617
USER: genes 8 Torsion [N]-CA--C-[OXT] |==|  0.45971
USER: genes 9 Torsion [N]-CA--CB-[CG] |==|  0.99330
USER: genes 10 Torsion [CA]-CB--CG-[CD2] |==|  0.65016
USER: genes 11 Torsion [C]-CA--CB-[CG] |==|  0.76516
USER: genes 12 Torsion [CA]-CB--CG-[CD1] |==|  0.78091
USER: genes 13 Torsion [C]-CA--N-[C] |==|  0.62690
USER: genes 14 Torsion [N]-C--CA-[N] |==|  0.29511
USER: genes 15 Torsion [C]-CA--CB-[CG] |==|  0.34427
USER: genes 16 Torsion [CA]-CB--CG-[CD2] |==|  0.19107
USER: genes 17 Torsion [C]-CA--N-[C] |==|  0.67342
USER: genes 18 Torsion [N]-C--CA-[N] |==|  0.30578
USER: genes 19 Torsion [C]-CA--CB-[CG] |==|  0.69673
USER: genes 20 Torsion [CA]-CB--CG-[OD1] |==|  0.63271
ROOT
ATOM      1  CA  LEU D  11      16.191   1.731  62.114  1.00 47.89 LIG 0.18  C 
ENDROOT
BRANCH 1 2
ATOM      2  C   LEU D  11      17.502   2.004  62.839  1.00 48.14 LIG 0.24  C 
ATOM      3 O    LEU D  11      18.141   1.093  63.348  1.00 47.13 LIG-0.27  OA
ATOM      4  N   HIS D  12      17.877   3.275  62.915  1.00 49.28 LIG-0.35  N 
ATOM      5 H    HIS D  12      17.450   3.930  62.557  1.00 49.28 LIG 0.16  HD
BRANCH 4 6
ATOM      6  CA  HIS D  12      19.087   3.653  63.639  1.00 50.49 LIG 0.18  C 
BRANCH 6 7
ATOM      7  C   HIS D  12      18.777   4.095  65.067  1.00 51.38 LIG 0.24  C 
ATOM      8  N   ILE D  13      18.578   5.395  65.210  1.00 53.16 LIG-0.34  N 
ATOM      9 H    ILE D  13      18.651   5.934  64.544  1.00 53.16 LIG 0.16  HD
ATOM     10 O    HIS D  12      18.717   3.287  65.983  1.00 51.57 LIG-0.27  OA
BRANCH 8 11
ATOM     11  CA  ILE D  13      18.218   6.099  66.452  1.00 55.12 LIG 0.19  C 
BRANCH 11 12
ATOM     12  CB  ILE D  13      17.282   5.268  67.403  1.00 55.01 LIG 0.01  C 
ATOM     13  CG2 ILE D  13      18.049   4.602  68.560  1.00 56.15 LIG 0.01  C 
BRANCH 12 14
ATOM     14  CG1 ILE D  13      16.154   6.156  67.938  1.00 55.50 LIG 0.00  C 
ATOM     15  CD1 ILE D  13      15.148   5.422  68.865  1.00 55.45 LIG 0.01  C 
ENDBRANCH 12 14
ENDBRANCH 11 12
BRANCH 11 16
ATOM     16  C   ILE D  13      19.309   6.858  67.214  1.00 55.63 LIG 0.20  C 
ATOM     17 O    ILE D  13      20.504   6.659  66.984  1.00 56.94 LIG-0.65  OA
ATOM     18 OXT  ILE D  13      18.950   7.660  68.087  1.00 55.86 LIG-0.65  OA
ENDBRANCH 11 16
ENDBRANCH 8 11
ENDBRANCH 6 7
BRANCH 6 19
ATOM     19  CB  HIS D  12      19.853   4.754  62.902  1.00 50.55 LIG 0.10  C 
BRANCH 19 20
ATOM     20  CG  HIS D  12      19.236   5.150  61.598  1.00 49.61 LIG 0.06  A 
ATOM     21  CD2 HIS D  12      19.752   5.214  60.348  1.00 48.49 LIG 0.14  A 
ATOM     22 NE2  HIS D  12      18.745   5.637  59.516  1.00 48.62 LIG-0.25  NA
ATOM     23  CE1 HIS D  12      17.643   5.802  60.224  1.00 49.12 LIG 0.23  A 
ATOM     24 ND1  HIS D  12      17.913   5.520  61.485  1.00 49.92 LIG-0.24  NA
ENDBRANCH 19 20
ENDBRANCH 6 19
ENDBRANCH 4 6
ENDBRANCH 1 2
BRANCH 1 25
ATOM     25  CB  LEU D  11      16.472   0.720  61.008  1.00 47.69 LIG 0.04  C 
BRANCH 25 26
ATOM     26  CG  LEU D  11      16.993   1.217  59.654  1.00 48.05 LIG-0.02  C 
ATOM     27  CD1 LEU D  11      15.845   1.780  58.827  1.00 46.53 LIG 0.01  C 
ATOM     28  CD2 LEU D  11      18.105   2.228  59.791  1.00 50.43 LIG 0.01  C 
ENDBRANCH 25 26
ENDBRANCH 1 25
BRANCH 1 29
ATOM     29  N   LEU D  11      15.588   2.924  61.540  1.00 47.51 LIG-0.35  N 
ATOM     30  C   LEU D  10      14.291   3.211  61.664  1.00 47.80 LIG 0.24  C 
ATOM     31 O    LEU D  10      13.498   2.538  62.338  1.00 47.07 LIG-0.27  OA
ATOM     32 H    LEU D  11      16.143   3.424  61.114  1.00 47.51 LIG 0.16  HD
BRANCH 30 33
ATOM     33  CA  LEU D  10      13.816   4.443  60.904  1.00 47.63 LIG 0.18  C 
BRANCH 33 34
ATOM     34  CB  LEU D  10      13.031   5.383  61.815  1.00 47.29 LIG 0.04  C 
BRANCH 34 35
ATOM     35  CG  LEU D  10      13.589   6.809  61.866  1.00 46.92 LIG-0.02  C 
ATOM     36  CD1 LEU D  10      15.071   6.830  62.235  1.00 46.83 LIG 0.01  C 
ATOM     37  CD2 LEU D  10      13.394   7.515  60.566  1.00 45.50 LIG 0.01  C 
ENDBRANCH 34 35
ENDBRANCH 33 34
BRANCH 33 38
ATOM     38  N   LEU D  10      13.041   4.041  59.743  1.00 47.82 LIG-0.35  N 
ATOM     39 H    LEU D  10      12.321   3.606  59.920  1.00 47.82 LIG 0.16  HD
ATOM     40  C   ASP D   9      13.454   4.345  58.518  1.00 48.63 LIG 0.26  C 
ATOM     41 O    ASP D   9      14.496   4.956  58.289  1.00 48.10 LIG-0.27  OA
BRANCH 40 42
ATOM     42  CA  ASP D   9      12.569   3.885  57.390  1.00 49.27 LIG 0.41  C 
ATOM     43  N   ASP D   9      11.941   5.091  56.790  1.00 49.86 LIG 0.61  N 
BRANCH 42 44
ATOM     44  CB  ASP D   9      13.423   3.157  56.361  1.00 50.02 LIG 0.16  C 
BRANCH 44 45
ATOM     45  CG  ASP D   9      13.588   3.936  55.090  1.00 50.84 LIG 0.17  C 
ATOM     46 OD1  ASP D   9      13.402   3.351  54.010  1.00 53.44 LIG-0.65  OA
ATOM     47 OD2  ASP D   9      13.878   5.154  55.070  1.00 53.75 LIG-0.65  OA
ENDBRANCH 44 45
ENDBRANCH 42 44
ENDBRANCH 40 42
ENDBRANCH 33 38
ENDBRANCH 30 33
ENDBRANCH 1 29
TORSDOF 19
ENDMDL
MODEL 83
USER: ADFR SOLUTION from run 144
USER: SCORE 16.115639 LL:  -4.741 LR: -11.658 RR:   0.000 FEB:  -5.990
USER: RMSD 7.657116
USER: SEED 143
USER: STATUS no improvement in best in 4 clusters for 5 generations
USER: GENES 21
USER: genes 0 Translation |==|  0.46083 0.29632 0.37182
USER: genes 1 Rotation |==|  0.17214 0.31507 0.19970 0.63465
USER: genes 2 Torsion [N]-CA--C-[N] |==|  0.47778
USER: genes 3 Torsion [C]-N--CA-[C] |==|  0.82974
USER: genes 4 Torsion [N]-CA--C-[N] |==|  0.90610
USER: genes 5 Torsion [C]-N--CA-[CB] |==|  0.72161
USER: genes 6 Torsion [N]-CA--CB-[CG1] |==|  0.53051
USER: genes 7 Torsion [CA]-CB--CG1-[CD1] |==|  0.15735
USER: genes 8 Torsion [N]-CA--C-[OXT] |==|  0.70455
USER: genes 9 Torsion [N]-CA--CB-[CG] |==|  0.47272
USER: genes 10 Torsion [CA]-CB--CG-[CD2] |==|  0.09018
USER: genes 11 Torsion [C]-CA--CB-[CG] |==|  0.15382
USER: genes 12 Torsion [CA]-CB--CG-[CD1] |==|  0.19550
USER: genes 13 Torsion [C]-CA--N-[C] |==|  0.56555
USER: genes 14 Torsion [N]-C--CA-[N] |==|  0.13862
USER: genes 15 Torsion [C]-CA--CB-[CG] |==|  0.31125
USER: genes 16 Torsion [CA]-CB--CG-[CD2] |==|  0.17823
USER: genes 17 Torsion [C]-CA--N-[C] |==|  0.15377
USER: genes 18 Torsion [N]-C--CA-[N] |==|  0.90956
USER: genes 19 Torsion [C]-CA--CB-[CG] |==|  0.80384
USER: genes 20 Torsion [CA]-CB--CG-[OD1] |==|  0.73035
ROOT
ATOM      1  CA  LEU D  11      18.018   3.210  60.007  1.00 47.89 LIG 0.18  C 
ENDROOT
BRANCH 1 2
ATOM      2  C   LEU D  11      17.616   2.648  58.650  1.00 48.14 LIG 0.24  C 
ATOM      3 O    LEU D  11      17.899   3.236  57.615  1.00 47.13 LIG-0.27  OA
ATOM      4  N   HIS D  12      16.915   1.519  58.666  1.00 49.28 LIG-0.35  N 
ATOM      5 H    HIS D  12      16.713   1.084  59.380  1.00 49.28 LIG 0.16  HD
BRANCH 4 6
ATOM      6  CA  HIS D  12      16.428   0.927  57.425  1.00 50.49 LIG 0.18  C 
BRANCH 6 7
ATOM      7  C   HIS D  12      15.469   1.860  56.690  1.00 51.38 LIG 0.24  C 
ATOM      8  N   ILE D  13      14.716   2.608  57.480  1.00 53.16 LIG-0.34  N 
ATOM      9 H    ILE D  13      14.758   2.537  58.336  1.00 53.16 LIG 0.16  HD
ATOM     10 O    HIS D  12      15.430   1.897  55.468  1.00 51.57 LIG-0.27  OA
BRANCH 8 11
ATOM     11  CA  ILE D  13      13.741   3.627  57.058  1.00 55.12 LIG 0.19  C 
BRANCH 11 12
ATOM     12  CB  ILE D  13      14.281   5.100  57.155  1.00 55.01 LIG 0.01  C 
ATOM     13  CG2 ILE D  13      15.420   5.384  56.158  1.00 56.15 LIG 0.01  C 
BRANCH 12 14
ATOM     14  CG1 ILE D  13      13.132   6.095  56.965  1.00 55.50 LIG 0.00  C 
ATOM     15  CD1 ILE D  13      11.958   5.914  57.965  1.00 55.45 LIG 0.01  C 
ENDBRANCH 12 14
ENDBRANCH 11 12
BRANCH 11 16
ATOM     16  C   ILE D  13      12.918   3.383  55.790  1.00 55.63 LIG 0.20  C 
ATOM     17 O    ILE D  13      12.013   2.545  55.766  1.00 56.94 LIG-0.65  OA
ATOM     18 OXT  ILE D  13      13.209   4.037  54.778  1.00 55.86 LIG-0.65  OA
ENDBRANCH 11 16
ENDBRANCH 8 11
ENDBRANCH 6 7
BRANCH 6 19
ATOM     19  CB  HIS D  12      15.756  -0.424  57.681  1.00 50.55 LIG 0.10  C 
BRANCH 19 20
ATOM     20  CG  HIS D  12      15.033  -0.973  56.493  1.00 49.61 LIG 0.06  A 
ATOM     21  CD2 HIS D  12      15.286  -0.869  55.167  1.00 48.49 LIG 0.14  A 
ATOM     22 NE2  HIS D  12      14.305  -1.572  54.512  1.00 48.62 LIG-0.25  NA
ATOM     23  CE1 HIS D  12      13.493  -2.109  55.403  1.00 49.12 LIG 0.23  A 
ATOM     24 ND1  HIS D  12      13.907  -1.759  56.607  1.00 49.92 LIG-0.24  NA
ENDBRANCH 19 20
ENDBRANCH 6 19
ENDBRANCH 4 6
ENDBRANCH 1 2
BRANCH 1 25
ATOM     25  CB  LEU D  11      16.746   3.643  60.727  1.00 47.69 LIG 0.04  C 
BRANCH 25 26
ATOM     26  CG  LEU D  11      15.615   2.627  60.927  1.00 48.05 LIG-0.02  C 
ATOM     27  CD1 LEU D  11      16.030   1.577  61.948  1.00 46.53 LIG 0.01  C 
ATOM     28  CD2 LEU D  11      14.310   3.275  61.321  1.00 50.43 LIG 0.01  C 
ENDBRANCH 25 26
ENDBRANCH 1 25
BRANCH 1 29
ATOM     29  N   LEU D  11      18.934   4.338  59.918  1.00 47.51 LIG-0.35  N 
ATOM     30  C   LEU D  10      19.754   4.685  60.912  1.00 47.80 LIG 0.24  C 
ATOM     31 O    LEU D  10      19.869   4.042  61.965  1.00 47.07 LIG-0.27  OA
ATOM     32 H    LEU D  11      18.897   4.757  59.168  1.00 47.51 LIG 0.16  HD
BRANCH 30 33
ATOM     33  CA  LEU D  10      20.561   5.956  60.683  1.00 47.63 LIG 0.18  C 
BRANCH 33 34
ATOM     34  CB  LEU D  10      21.357   6.335  61.928  1.00 47.29 LIG 0.04  C 
BRANCH 34 35
ATOM     35  CG  LEU D  10      22.875   6.198  61.761  1.00 46.92 LIG-0.02  C 
ATOM     36  CD1 LEU D  10      23.283   4.773  61.391  1.00 46.83 LIG 0.01  C 
ATOM     37  CD2 LEU D  10      23.394   7.144  60.731  1.00 45.50 LIG 0.01  C 
ENDBRANCH 34 35
ENDBRANCH 33 34
BRANCH 33 38
ATOM     38  N   LEU D  10      19.682   7.030  60.253  1.00 47.82 LIG-0.35  N 
ATOM     39 H    LEU D  10      19.903   7.404  59.511  1.00 47.82 LIG 0.16  HD
ATOM     40  C   ASP D   9      18.630   7.374  60.985  1.00 48.63 LIG 0.26  C 
ATOM     41 O    ASP D   9      18.343   6.835  62.051  1.00 48.10 LIG-0.27  OA
BRANCH 40 42
ATOM     42  CA  ASP D   9      17.785   8.496  60.439  1.00 49.27 LIG 0.41  C 
ATOM     43  N   ASP D   9      18.687   9.425  59.712  1.00 49.86 LIG 0.61  N 
BRANCH 42 44
ATOM     44  CB  ASP D   9      16.742   7.912  59.497  1.00 50.02 LIG 0.16  C 
BRANCH 44 45
ATOM     45  CG  ASP D   9      17.338   7.406  58.216  1.00 50.84 LIG 0.17  C 
ATOM     46 OD1  ASP D   9      17.311   8.146  57.219  1.00 53.44 LIG-0.65  OA
ATOM     47 OD2  ASP D   9      17.883   6.284  58.116  1.00 53.75 LIG-0.65  OA
ENDBRANCH 44 45
ENDBRANCH 42 44
ENDBRANCH 40 42
ENDBRANCH 33 38
ENDBRANCH 30 33
ENDBRANCH 1 29
TORSDOF 19
ENDMDL
MODEL 84
USER: ADFR SOLUTION from run 64
USER: SCORE 15.779173 LL:  -4.961 LR: -11.653 RR:   0.000 FEB:  -5.985
USER: RMSD 10.737105
USER: SEED 63
USER: STATUS no improvement in best in 11 clusters for 5 generations
USER: GENES 21
USER: genes 0 Translation |==|  0.50680 0.46790 0.71786
USER: genes 1 Rotation |==|  0.61264 0.22112 0.20314 0.76723
USER: genes 2 Torsion [N]-CA--C-[N] |==|  0.13660
USER: genes 3 Torsion [C]-N--CA-[C] |==|  0.60981
USER: genes 4 Torsion [N]-CA--C-[N] |==|  0.32651
USER: genes 5 Torsion [C]-N--CA-[CB] |==|  0.15758
USER: genes 6 Torsion [N]-CA--CB-[CG1] |==|  0.68357
USER: genes 7 Torsion [CA]-CB--CG1-[CD1] |==|  0.33682
USER: genes 8 Torsion [N]-CA--C-[OXT] |==|  0.96619
USER: genes 9 Torsion [N]-CA--CB-[CG] |==|  0.48629
USER: genes 10 Torsion [CA]-CB--CG-[CD2] |==|  0.63413
USER: genes 11 Torsion [C]-CA--CB-[CG] |==|  0.44390
USER: genes 12 Torsion [CA]-CB--CG-[CD1] |==|  0.16873
USER: genes 13 Torsion [C]-CA--N-[C] |==|  0.16111
USER: genes 14 Torsion [N]-C--CA-[N] |==|  0.83909
USER: genes 15 Torsion [C]-CA--CB-[CG] |==|  0.05012
USER: genes 16 Torsion [CA]-CB--CG-[CD2] |==|  0.63946
USER: genes 17 Torsion [C]-CA--N-[C] |==|  0.70935
USER: genes 18 Torsion [N]-C--CA-[N] |==|  0.36344
USER: genes 19 Torsion [C]-CA--CB-[CG] |==|  0.65392
USER: genes 20 Torsion [CA]-CB--CG-[OD1] |==|  0.38235
ROOT
ATOM      1  CA  LEU D  11      18.915   6.427  67.793  1.00 47.89 LIG 0.18  C 
ENDROOT
BRANCH 1 2
ATOM      2  C   LEU D  11      19.772   7.460  67.073  1.00 48.14 LIG 0.24  C 
ATOM      3 O    LEU D  11      20.278   7.210  65.987  1.00 47.13 LIG-0.27  OA
ATOM      4  N   HIS D  12      19.962   8.610  67.708  1.00 49.28 LIG-0.35  N 
ATOM      5 H    HIS D  12      19.609   8.811  68.466  1.00 49.28 LIG 0.16  HD
BRANCH 4 6
ATOM      6  CA  HIS D  12      20.815   9.646  67.134  1.00 50.49 LIG 0.18  C 
BRANCH 6 7
ATOM      7  C   HIS D  12      21.663  10.336  68.200  1.00 51.38 LIG 0.24  C 
ATOM      8  N   ILE D  13      22.969  10.189  68.044  1.00 53.16 LIG-0.34  N 
ATOM      9 H    ILE D  13      23.292   9.714  67.405  1.00 53.16 LIG 0.16  HD
ATOM     10 O    HIS D  12      21.148  10.974  69.107  1.00 51.57 LIG-0.27  OA
BRANCH 8 11
ATOM     11  CA  ILE D  13      24.026  10.777  68.883  1.00 55.12 LIG 0.19  C 
BRANCH 11 12
ATOM     12  CB  ILE D  13      23.908  10.404  70.405  1.00 55.01 LIG 0.01  C 
ATOM     13  CG2 ILE D  13      25.164   9.694  70.944  1.00 56.15 LIG 0.01  C 
BRANCH 12 14
ATOM     14  CG1 ILE D  13      23.596  11.656  71.231  1.00 55.50 LIG 0.00  C 
ATOM     15  CD1 ILE D  13      22.277  11.571  72.046  1.00 55.45 LIG 0.01  C 
ENDBRANCH 12 14
ENDBRANCH 11 12
BRANCH 11 16
ATOM     16  C   ILE D  13      25.472  10.746  68.379  1.00 55.63 LIG 0.20  C 
ATOM     17 O    ILE D  13      26.349  11.431  68.911  1.00 56.94 LIG-0.65  OA
ATOM     18 OXT  ILE D  13      25.727  10.030  67.400  1.00 55.86 LIG-0.65  OA
ENDBRANCH 11 16
ENDBRANCH 8 11
ENDBRANCH 6 7
BRANCH 6 19
ATOM     19  CB  HIS D  12      19.992  10.680  66.364  1.00 50.55 LIG 0.10  C 
BRANCH 19 20
ATOM     20  CG  HIS D  12      20.797  11.831  65.851  1.00 49.61 LIG 0.06  A 
ATOM     21  CD2 HIS D  12      20.591  13.168  65.920  1.00 48.49 LIG 0.14  A 
ATOM     22 NE2  HIS D  12      21.647  13.773  65.286  1.00 48.62 LIG-0.25  NA
ATOM     23  CE1 HIS D  12      22.485  12.845  64.865  1.00 49.12 LIG 0.23  A 
ATOM     24 ND1  HIS D  12      21.994  11.663  65.188  1.00 49.92 LIG-0.24  NA
ENDBRANCH 19 20
ENDBRANCH 6 19
ENDBRANCH 4 6
ENDBRANCH 1 2
BRANCH 1 25
ATOM     25  CB  LEU D  11      18.627   5.296  66.812  1.00 47.69 LIG 0.04  C 
BRANCH 25 26
ATOM     26  CG  LEU D  11      18.201   3.925  67.353  1.00 48.05 LIG-0.02  C 
ATOM     27  CD1 LEU D  11      16.903   4.053  68.137  1.00 46.53 LIG 0.01  C 
ATOM     28  CD2 LEU D  11      18.075   2.882  66.269  1.00 50.43 LIG 0.01  C 
ENDBRANCH 25 26
ENDBRANCH 1 25
BRANCH 1 29
ATOM     29  N   LEU D  11      17.659   6.965  68.296  1.00 47.51 LIG-0.35  N 
ATOM     30  C   LEU D  10      16.753   7.546  67.507  1.00 47.80 LIG 0.24  C 
ATOM     31 O    LEU D  10      16.856   7.614  66.274  1.00 47.07 LIG-0.27  OA
ATOM     32 H    LEU D  11      17.557   6.875  69.145  1.00 47.51 LIG 0.16  HD
BRANCH 30 33
ATOM     33  CA  LEU D  10      15.551   8.149  68.222  1.00 47.63 LIG 0.18  C 
BRANCH 33 34
ATOM     34  CB  LEU D  10      15.962   9.337  69.087  1.00 47.29 LIG 0.04  C 
BRANCH 34 35
ATOM     35  CG  LEU D  10      17.331   9.924  68.725  1.00 46.92 LIG-0.02  C 
ATOM     36  CD1 LEU D  10      17.205  11.275  68.023  1.00 46.83 LIG 0.01  C 
ATOM     37  CD2 LEU D  10      18.193  10.073  69.934  1.00 45.50 LIG 0.01  C 
ENDBRANCH 34 35
ENDBRANCH 33 34
BRANCH 33 38
ATOM     38  N   LEU D  10      14.870   7.124  68.996  1.00 47.82 LIG-0.35  N 
ATOM     39 H    LEU D  10      15.267   6.897  69.725  1.00 47.82 LIG 0.16  HD
ATOM     40  C   ASP D   9      13.724   6.608  68.571  1.00 48.63 LIG 0.26  C 
ATOM     41 O    ASP D   9      13.183   6.940  67.519  1.00 48.10 LIG-0.27  OA
BRANCH 40 42
ATOM     42  CA  ASP D   9      13.104   5.560  69.457  1.00 49.27 LIG 0.41  C 
ATOM     43  N   ASP D   9      11.676   5.923  69.652  1.00 49.86 LIG 0.61  N 
BRANCH 42 44
ATOM     44  CB  ASP D   9      13.224   4.205  68.773  1.00 50.02 LIG 0.16  C 
BRANCH 44 45
ATOM     45  CG  ASP D   9      11.900   3.517  68.615  1.00 50.84 LIG 0.17  C 
ATOM     46 OD1  ASP D   9      11.657   2.945  67.538  1.00 53.44 LIG-0.65  OA
ATOM     47 OD2  ASP D   9      11.042   3.471  69.525  1.00 53.75 LIG-0.65  OA
ENDBRANCH 44 45
ENDBRANCH 42 44
ENDBRANCH 40 42
ENDBRANCH 33 38
ENDBRANCH 30 33
ENDBRANCH 1 29
TORSDOF 19
ENDMDL
