MODEL 1
USER: ADFR SOLUTION from run 96
USER: SCORE 17.057693 LL:  -2.632 LR: -14.455 RR:   0.000 FEB:  -8.787
USER: RMSD 5.238556
USER: SEED 95
USER: STATUS no improvement in best in 15 clusters for 5 generations
USER: GENES 21
USER: genes 0 Translation |==|  0.42834 0.48431 0.55899
USER: genes 1 Rotation |==|  0.46055 0.54993 0.57087 0.99084
USER: genes 2 Torsion [C]-CA--N-[C] |==|  0.81667
USER: genes 3 Torsion [N]-C--CA-[N] |==|  0.41243
USER: genes 4 Torsion [N]-C--CA-[N] |==|  0.38279
USER: genes 5 Torsion [C]-CA--CB-[CG] |==|  0.10355
USER: genes 6 Torsion [CA]-CB--CG-[OD1] |==|  0.75382
USER: genes 7 Torsion [C]-CA--N-[C] |==|  0.83144
USER: genes 8 Torsion [N]-C--CA-[N] |==|  0.38579
USER: genes 9 Torsion [C]-CA--CB-[OG] |==|  0.35689
USER: genes 10 Torsion [CA]-CB--OG-[HG] |==|  0.60063
USER: genes 11 Torsion [N]-CA--C-[N] |==|  0.43302
USER: genes 12 Torsion [C]-N--CA-[C] |==|  0.70592
USER: genes 13 Torsion [N]-CA--C-[O] |==|  0.47290
USER: genes 14 Torsion [N]-CA--CB-[CG] |==|  0.52277
USER: genes 15 Torsion [CA]-CB--CG-[CD] |==|  0.51763
USER: genes 16 Torsion [CB]-CG--CD-[CE] |==|  0.32558
USER: genes 17 Torsion [CG]-CD--CE-[NZ] |==|  0.51060
USER: genes 18 Torsion [CD]-CE--NZ-[HZ2] |==|  0.61335
USER: genes 19 Torsion [N]-CA--CB-[CG] |==|  0.81724
USER: genes 20 Torsion [CA]-CB--CG-[CD2] |==|  0.70529
ROOT
ATOM      1  CA  TRP P 344      24.574   8.155 -15.309  1.00 32.15 LIG 0.18  C 
ENDROOT
BRANCH 1 2
ATOM      2  N   TRP P 344      25.142   9.392 -15.805  1.00 31.29 LIG-0.35  N 
ATOM      3 H    TRP P 344      24.570   9.961 -16.101  1.00 31.29 LIG 0.16  HD
ATOM      4  C   PRO P 343      26.456   9.588 -15.785  1.00 32.37 LIG 0.24  C 
ATOM      5 O    PRO P 343      27.256   8.729 -15.411  1.00 31.41 LIG-0.27  OA
BRANCH 4 6
ATOM      6  CA  PRO P 343      26.946  10.945 -16.271  1.00 33.03 LIG 0.18  C 
ATOM      7  N   PRO P 343      28.169  11.396 -15.600  1.00 34.38 LIG-0.34  N 
ATOM      8  C   ASP P 342      28.216  11.625 -14.280  1.00 36.67 LIG 0.24  C 
ATOM      9  CD  PRO P 343      29.327  11.282 -16.505  1.00 33.21 LIG 0.13  C 
ATOM     10 O    ASP P 342      27.238  11.454 -13.553  1.00 37.60 LIG-0.27  OA
ATOM     11  CG  PRO P 343      28.784  10.409 -17.623  1.00 33.09 LIG 0.02  C 
ATOM     12  CB  PRO P 343      27.365  10.897 -17.729  1.00 32.10 LIG 0.04  C 
BRANCH 8 13
ATOM     13  CA  ASP P 342      29.547  12.098 -13.701  1.00 38.79 LIG 0.19  C 
BRANCH 13 14
ATOM     14  CB  ASP P 342      30.261  10.935 -13.011  1.00 38.78 LIG 0.15  C 
BRANCH 14 15
ATOM     15  CG  ASP P 342      30.074   9.623 -13.744  1.00 39.37 LIG 0.17  C 
ATOM     16 OD2  ASP P 342      30.917   9.293 -14.602  1.00 39.72 LIG-0.65  OA
ATOM     17 OD1  ASP P 342      29.085   8.918 -13.459  1.00 40.57 LIG-0.65  OA
ENDBRANCH 14 15
ENDBRANCH 13 14
BRANCH 13 18
ATOM     18  N   ASP P 342      29.260  13.153 -12.742  1.00 40.71 LIG-0.34  N 
ATOM     19 H    ASP P 342      29.514  12.983 -11.938  1.00 40.71 LIG 0.16  HD
ATOM     20  C   SER P 341      28.655  14.275 -13.111  1.00 42.75 LIG 0.26  C 
ATOM     21 O    SER P 341      28.325  14.503 -14.276  1.00 44.14 LIG-0.27  OA
BRANCH 20 22
ATOM     22  CA  SER P 341      28.395  15.301 -12.004  1.00 43.56 LIG 0.42  C 
ATOM     23  N   SER P 341      28.671  16.694 -12.477  1.00 43.48 LIG 0.62  N 
BRANCH 22 24
ATOM     24  CB  SER P 341      26.942  15.185 -11.529  1.00 43.44 LIG 0.21  C 
BRANCH 24 25
ATOM     25 OG   SER P 341      26.881  15.059 -10.116  1.00 45.13 LIG-0.40  OA
ATOM     26 HG   SER P 341      26.255  14.537  -9.908  1.00 45.13 LIG 0.21  HD
ENDBRANCH 24 25
ENDBRANCH 22 24
ENDBRANCH 20 22
ENDBRANCH 13 18
ENDBRANCH 8 13
ENDBRANCH 4 6
ENDBRANCH 1 2
BRANCH 1 27
ATOM     27  C   TRP P 344      24.907   6.901 -16.089  1.00 32.97 LIG 0.24  C 
ATOM     28 O    TRP P 344      25.224   6.982 -17.271  1.00 31.81 LIG-0.27  OA
ATOM     29  N   LYS P 345      24.842   5.743 -15.443  1.00 34.20 LIG-0.34  N 
ATOM     30 H    LYS P 345      24.644   5.653 -14.611  1.00 34.20 LIG 0.16  HD
BRANCH 29 31
ATOM     31  CA  LYS P 345      25.121   4.502 -16.155  1.00 35.76 LIG 0.18  C 
BRANCH 31 32
ATOM     32  C   LYS P 345      23.859   3.697 -16.443  1.00 35.89 LIG 0.20  C 
ATOM     33 O    LYS P 345      23.970   2.715 -17.209  1.00 35.39 LIG-0.65  OA
ATOM     34 OXT  LYS P 345      22.792   4.042 -15.882  1.00 36.91 LIG-0.65  OA
ENDBRANCH 31 32
BRANCH 31 35
ATOM     35  CB  LYS P 345      26.129   3.650 -15.380  1.00 34.89 LIG 0.04  C 
BRANCH 35 36
ATOM     36  CG  LYS P 345      26.620   2.426 -16.161  1.00 33.69 LIG 0.00  C 
BRANCH 36 37
ATOM     37  CD  LYS P 345      27.500   1.505 -15.329  1.00 29.41 LIG 0.03  C 
BRANCH 37 38
ATOM     38  CE  LYS P 345      26.867   0.125 -15.166  1.00 29.69 LIG 0.23  C 
BRANCH 38 39
ATOM     39  NZ  LYS P 345      27.634  -0.806 -14.285  1.00 27.83 LIG-0.08  N 
ATOM     40 HZ3  LYS P 345      28.473  -0.518 -14.209  1.00 27.83 LIG 0.27  HD
ATOM     41 HZ1  LYS P 345      27.255  -0.832 -13.480  1.00 27.83 LIG 0.27  HD
ATOM     42 HZ2  LYS P 345      27.631  -1.622 -14.640  1.00 27.83 LIG 0.27  HD
ENDBRANCH 38 39
ENDBRANCH 37 38
ENDBRANCH 36 37
ENDBRANCH 35 36
ENDBRANCH 31 35
ENDBRANCH 29 31
ENDBRANCH 1 27
BRANCH 1 43
ATOM     43  CB  TRP P 344      23.057   8.294 -15.158  1.00 30.74 LIG 0.07  C 
BRANCH 43 44
ATOM     44  CG  TRP P 344      22.683   9.286 -14.102  1.00 29.17 LIG-0.03  A 
ATOM     45  CD2 TRP P 344      22.161   8.993 -12.798  1.00 26.66 LIG-0.00  A 
ATOM     46  CE3 TRP P 344      21.827   7.809 -12.129  1.00 26.53 LIG 0.01  A 
ATOM     47  CE2 TRP P 344      21.983  10.225 -12.134  1.00 26.53 LIG 0.04  A 
ATOM     48  CZ3 TRP P 344      21.329   7.890 -10.827  1.00 24.28 LIG 0.00  A 
ATOM     49  CH2 TRP P 344      21.164   9.136 -10.197  1.00 25.87 LIG 0.00  A 
ATOM     50  CZ2 TRP P 344      21.485  10.310 -10.834  1.00 24.89 LIG 0.03  A 
ATOM     51  NE1 TRP P 344      22.380  11.215 -12.994  1.00 27.39 LIG-0.36  N 
ATOM     52  CD1 TRP P 344      22.796  10.642 -14.173  1.00 29.08 LIG 0.10  A 
ATOM     53 HE1  TRP P 344      22.371  12.057 -12.824  1.00 27.39 LIG 0.17  HD
ENDBRANCH 43 44
ENDBRANCH 1 43
TORSDOF 19
ENDMDL
MODEL 2
USER: ADFR SOLUTION from run 116
USER: SCORE 16.110564 LL:  -2.190 LR: -14.322 RR:   0.000 FEB:  -8.655
USER: RMSD 4.761586
USER: SEED 115
USER: STATUS no improvement in best in 12 clusters for 5 generations
USER: GENES 21
USER: genes 0 Translation |==|  0.41601 0.47007 0.55230
USER: genes 1 Rotation |==|  0.44296 0.55811 0.56526 0.98899
USER: genes 2 Torsion [C]-CA--N-[C] |==|  0.78421
USER: genes 3 Torsion [N]-C--CA-[N] |==|  0.43147
USER: genes 4 Torsion [N]-C--CA-[N] |==|  0.38129
USER: genes 5 Torsion [C]-CA--CB-[CG] |==|  0.11842
USER: genes 6 Torsion [CA]-CB--CG-[OD1] |==|  0.75898
USER: genes 7 Torsion [C]-CA--N-[C] |==|  0.84321
USER: genes 8 Torsion [N]-C--CA-[N] |==|  0.42871
USER: genes 9 Torsion [C]-CA--CB-[OG] |==|  0.31440
USER: genes 10 Torsion [CA]-CB--OG-[HG] |==|  0.57725
USER: genes 11 Torsion [N]-CA--C-[N] |==|  0.52194
USER: genes 12 Torsion [C]-N--CA-[C] |==|  0.19501
USER: genes 13 Torsion [N]-CA--C-[O] |==|  0.80894
USER: genes 14 Torsion [N]-CA--CB-[CG] |==|  0.59974
USER: genes 15 Torsion [CA]-CB--CG-[CD] |==|  0.17636
USER: genes 16 Torsion [CB]-CG--CD-[CE] |==|  0.50937
USER: genes 17 Torsion [CG]-CD--CE-[NZ] |==|  0.41066
USER: genes 18 Torsion [CD]-CE--NZ-[HZ2] |==|  0.36057
USER: genes 19 Torsion [N]-CA--CB-[CG] |==|  0.81976
USER: genes 20 Torsion [CA]-CB--CG-[CD2] |==|  0.71215
ROOT
ATOM      1  CA  TRP P 344      24.370   7.802 -15.439  1.00 32.15 LIG 0.18  C 
ENDROOT
BRANCH 1 2
ATOM      2  N   TRP P 344      24.947   8.988 -16.041  1.00 31.29 LIG-0.35  N 
ATOM      3 H    TRP P 344      24.400   9.463 -16.503  1.00 31.29 LIG 0.16  HD
ATOM      4  C   PRO P 343      26.231   9.279 -15.864  1.00 32.37 LIG 0.24  C 
ATOM      5 O    PRO P 343      27.005   8.547 -15.246  1.00 31.41 LIG-0.27  OA
BRANCH 4 6
ATOM      6  CA  PRO P 343      26.724  10.579 -16.485  1.00 33.03 LIG 0.18  C 
ATOM      7  N   PRO P 343      27.908  11.130 -15.820  1.00 34.38 LIG-0.34  N 
ATOM      8  C   ASP P 342      27.891  11.514 -14.535  1.00 36.67 LIG 0.24  C 
ATOM      9  CD  PRO P 343      29.108  10.934 -16.653  1.00 33.21 LIG 0.13  C 
ATOM     10 O    ASP P 342      26.883  11.410 -13.837  1.00 37.60 LIG-0.27  OA
ATOM     11  CG  PRO P 343      28.629   9.924 -17.682  1.00 33.09 LIG 0.02  C 
ATOM     12  CB  PRO P 343      27.209  10.368 -17.907  1.00 32.10 LIG 0.04  C 
BRANCH 8 13
ATOM     13  CA  ASP P 342      29.187  12.079 -13.959  1.00 38.79 LIG 0.19  C 
BRANCH 13 14
ATOM     14  CB  ASP P 342      29.878  11.024 -13.094  1.00 38.78 LIG 0.15  C 
BRANCH 14 15
ATOM     15  CG  ASP P 342      29.853   9.648 -13.727  1.00 39.37 LIG 0.17  C 
ATOM     16 OD2  ASP P 342      30.826   9.293 -14.424  1.00 39.72 LIG-0.65  OA
ATOM     17 OD1  ASP P 342      28.862   8.918 -13.524  1.00 40.57 LIG-0.65  OA
ENDBRANCH 14 15
ENDBRANCH 13 14
BRANCH 13 18
ATOM     18  N   ASP P 342      28.842  13.241 -13.156  1.00 40.71 LIG-0.34  N 
ATOM     19 H    ASP P 342      29.108  13.202 -12.339  1.00 40.71 LIG 0.16  HD
ATOM     20  C   SER P 341      28.170  14.262 -13.672  1.00 42.75 LIG 0.26  C 
ATOM     21 O    SER P 341      27.822  14.302 -14.854  1.00 44.14 LIG-0.27  OA
BRANCH 20 22
ATOM     22  CA  SER P 341      27.855  15.419 -12.720  1.00 43.56 LIG 0.42  C 
ATOM     23  N   SER P 341      27.680  16.706 -13.463  1.00 43.48 LIG 0.62  N 
BRANCH 22 24
ATOM     24  CB  SER P 341      26.585  15.094 -11.924  1.00 43.44 LIG 0.21  C 
BRANCH 24 25
ATOM     25 OG   SER P 341      26.882  14.917 -10.547  1.00 45.13 LIG-0.40  OA
ATOM     26 HG   SER P 341      26.320  14.396 -10.204  1.00 45.13 LIG 0.21  HD
ENDBRANCH 24 25
ENDBRANCH 22 24
ENDBRANCH 20 22
ENDBRANCH 13 18
ENDBRANCH 8 13
ENDBRANCH 4 6
ENDBRANCH 1 2
BRANCH 1 27
ATOM     27  C   TRP P 344      24.667   6.487 -16.128  1.00 32.97 LIG 0.24  C 
ATOM     28 O    TRP P 344      25.478   6.447 -17.047  1.00 31.81 LIG-0.27  OA
ATOM     29  N   LYS P 345      24.022   5.411 -15.694  1.00 34.20 LIG-0.34  N 
ATOM     30 H    LYS P 345      23.464   5.400 -15.040  1.00 34.20 LIG 0.16  HD
BRANCH 29 31
ATOM     31  CA  LYS P 345      24.246   4.125 -16.344  1.00 35.76 LIG 0.18  C 
BRANCH 31 32
ATOM     32  C   LYS P 345      25.633   3.561 -16.063  1.00 35.89 LIG 0.20  C 
ATOM     33 O    LYS P 345      26.607   4.159 -16.570  1.00 35.39 LIG-0.65  OA
ATOM     34 OXT  LYS P 345      25.727   2.551 -15.324  1.00 36.91 LIG-0.65  OA
ENDBRANCH 31 32
BRANCH 31 35
ATOM     35  CB  LYS P 345      24.014   4.235 -17.853  1.00 34.89 LIG 0.04  C 
BRANCH 35 36
ATOM     36  CG  LYS P 345      23.378   2.983 -18.465  1.00 33.69 LIG 0.00  C 
BRANCH 36 37
ATOM     37  CD  LYS P 345      21.982   2.702 -17.928  1.00 29.41 LIG 0.03  C 
BRANCH 37 38
ATOM     38  CE  LYS P 345      21.415   1.404 -18.497  1.00 29.69 LIG 0.23  C 
BRANCH 38 39
ATOM     39  NZ  LYS P 345      20.506   0.668 -17.568  1.00 27.83 LIG-0.08  N 
ATOM     40 HZ3  LYS P 345      20.904  -0.080 -17.294  1.00 27.83 LIG 0.27  HD
ATOM     41 HZ1  LYS P 345      20.322   1.181 -16.865  1.00 27.83 LIG 0.27  HD
ATOM     42 HZ2  LYS P 345      19.750   0.464 -17.991  1.00 27.83 LIG 0.27  HD
ENDBRANCH 38 39
ENDBRANCH 37 38
ENDBRANCH 36 37
ENDBRANCH 35 36
ENDBRANCH 31 35
ENDBRANCH 29 31
ENDBRANCH 1 27
BRANCH 1 43
ATOM     43  CB  TRP P 344      22.859   7.979 -15.269  1.00 30.74 LIG 0.07  C 
BRANCH 43 44
ATOM     44  CG  TRP P 344      22.524   9.070 -14.300  1.00 29.17 LIG-0.03  A 
ATOM     45  CD2 TRP P 344      22.076   8.906 -12.948  1.00 26.66 LIG-0.00  A 
ATOM     46  CE3 TRP P 344      21.797   7.793 -12.145  1.00 26.53 LIG 0.01  A 
ATOM     47  CE2 TRP P 344      21.912  10.197 -12.404  1.00 26.53 LIG 0.04  A 
ATOM     48  CZ3 TRP P 344      21.366   8.002 -10.833  1.00 24.28 LIG 0.00  A 
ATOM     49  CH2 TRP P 344      21.212   9.303 -10.325  1.00 25.87 LIG 0.00  A 
ATOM     50  CZ2 TRP P 344      21.480  10.410 -11.095  1.00 24.89 LIG 0.03  A 
ATOM     51  NE1 TRP P 344      22.247  11.098 -13.380  1.00 27.39 LIG-0.36  N 
ATOM     52  CD1 TRP P 344      22.610  10.413 -14.515  1.00 29.08 LIG 0.10  A 
ATOM     53 HE1  TRP P 344      22.232  11.954 -13.297  1.00 27.39 LIG 0.17  HD
ENDBRANCH 43 44
ENDBRANCH 1 43
TORSDOF 19
ENDMDL
MODEL 3
USER: ADFR SOLUTION from run 92
USER: SCORE 16.058739 LL:  -2.483 LR: -14.032 RR:   0.000 FEB:  -8.364
USER: RMSD 9.241192
USER: SEED 91
USER: STATUS no improvement in best in 10 clusters for 5 generations
USER: GENES 21
USER: genes 0 Translation |==|  0.36494 0.48765 0.50462
USER: genes 1 Rotation |==|  0.95579 0.31040 0.42247 0.51721
USER: genes 2 Torsion [C]-CA--N-[C] |==|  0.77437
USER: genes 3 Torsion [N]-C--CA-[N] |==|  0.16722
USER: genes 4 Torsion [N]-C--CA-[N] |==|  0.11399
USER: genes 5 Torsion [C]-CA--CB-[CG] |==|  0.25933
USER: genes 6 Torsion [CA]-CB--CG-[OD1] |==|  0.22670
USER: genes 7 Torsion [C]-CA--N-[C] |==|  0.62823
USER: genes 8 Torsion [N]-C--CA-[N] |==|  0.55270
USER: genes 9 Torsion [C]-CA--CB-[OG] |==|  0.31594
USER: genes 10 Torsion [CA]-CB--OG-[HG] |==|  0.04519
USER: genes 11 Torsion [N]-CA--C-[N] |==|  0.37997
USER: genes 12 Torsion [C]-N--CA-[C] |==|  0.16864
USER: genes 13 Torsion [N]-CA--C-[O] |==|  0.20067
USER: genes 14 Torsion [N]-CA--CB-[CG] |==|  0.63383
USER: genes 15 Torsion [CA]-CB--CG-[CD] |==|  0.68639
USER: genes 16 Torsion [CB]-CG--CD-[CE] |==|  0.60211
USER: genes 17 Torsion [CG]-CD--CE-[NZ] |==|  0.19527
USER: genes 18 Torsion [CD]-CE--NZ-[HZ2] |==|  0.65942
USER: genes 19 Torsion [N]-CA--CB-[CG] |==|  0.17907
USER: genes 20 Torsion [CA]-CB--CG-[CD2] |==|  0.30710
ROOT
ATOM      1  CA  TRP P 344      23.527   8.237 -16.369  1.00 32.15 LIG 0.18  C 
ENDROOT
BRANCH 1 2
ATOM      2  N   TRP P 344      23.491   6.791 -16.278  1.00 31.29 LIG-0.35  N 
ATOM      3 H    TRP P 344      23.000   6.480 -15.645  1.00 31.29 LIG 0.16  HD
ATOM      4  C   PRO P 343      24.183   6.043 -17.130  1.00 32.37 LIG 0.24  C 
ATOM      5 O    PRO P 343      24.927   6.518 -17.989  1.00 31.41 LIG-0.27  OA
BRANCH 4 6
ATOM      6  CA  PRO P 343      24.028   4.535 -16.988  1.00 33.03 LIG 0.18  C 
ATOM      7  N   PRO P 343      22.649   4.072 -17.171  1.00 34.38 LIG-0.34  N 
ATOM      8  C   ASP P 342      21.654   4.454 -16.358  1.00 36.67 LIG 0.24  C 
ATOM      9  CD  PRO P 343      22.498   3.399 -18.473  1.00 33.21 LIG 0.13  C 
ATOM     10 O    ASP P 342      21.839   5.230 -15.420  1.00 37.60 LIG-0.27  OA
ATOM     11  CG  PRO P 343      23.770   3.802 -19.199  1.00 33.09 LIG 0.02  C 
ATOM     12  CB  PRO P 343      24.776   3.792 -18.080  1.00 32.10 LIG 0.04  C 
BRANCH 8 13
ATOM     13  CA  ASP P 342      20.262   3.897 -16.649  1.00 38.79 LIG 0.19  C 
BRANCH 13 14
ATOM     14  CB  ASP P 342      19.374   4.036 -15.412  1.00 38.78 LIG 0.15  C 
BRANCH 14 15
ATOM     15  CG  ASP P 342      18.562   5.314 -15.421  1.00 39.37 LIG 0.17  C 
ATOM     16 OD2  ASP P 342      18.981   6.293 -14.770  1.00 39.72 LIG-0.65  OA
ATOM     17 OD1  ASP P 342      17.506   5.343 -16.084  1.00 40.57 LIG-0.65  OA
ENDBRANCH 14 15
ENDBRANCH 13 14
BRANCH 13 18
ATOM     18  N   ASP P 342      20.415   2.496 -17.005  1.00 40.71 LIG-0.34  N 
ATOM     19 H    ASP P 342      20.933   2.049 -16.483  1.00 40.71 LIG 0.16  HD
ATOM     20  C   SER P 341      19.791   1.979 -18.056  1.00 42.75 LIG 0.26  C 
ATOM     21 O    SER P 341      19.035   2.637 -18.772  1.00 44.14 LIG-0.27  OA
BRANCH 20 22
ATOM     22  CA  SER P 341      20.046   0.494 -18.334  1.00 43.56 LIG 0.42  C 
ATOM     23  N   SER P 341      19.690   0.134 -19.742  1.00 43.48 LIG 0.62  N 
BRANCH 22 24
ATOM     24  CB  SER P 341      21.519   0.169 -18.064  1.00 43.44 LIG 0.21  C 
BRANCH 24 25
ATOM     25 OG   SER P 341      21.648  -0.710 -16.956  1.00 45.13 LIG-0.40  OA
ATOM     26 HG   SER P 341      20.904  -1.064 -16.792  1.00 45.13 LIG 0.21  HD
ENDBRANCH 24 25
ENDBRANCH 22 24
ENDBRANCH 20 22
ENDBRANCH 13 18
ENDBRANCH 8 13
ENDBRANCH 4 6
ENDBRANCH 1 2
BRANCH 1 27
ATOM     27  C   TRP P 344      24.725   8.920 -15.743  1.00 32.97 LIG 0.24  C 
ATOM     28 O    TRP P 344      25.134   8.555 -14.646  1.00 31.81 LIG-0.27  OA
ATOM     29  N   LYS P 345      25.293   9.907 -16.426  1.00 34.20 LIG-0.34  N 
ATOM     30 H    LYS P 345      25.044  10.174 -17.206  1.00 34.20 LIG 0.16  HD
BRANCH 29 31
ATOM     31  CA  LYS P 345      26.428  10.621 -15.855  1.00 35.76 LIG 0.18  C 
BRANCH 31 32
ATOM     32  C   LYS P 345      27.618   9.707 -15.584  1.00 35.89 LIG 0.20  C 
ATOM     33 O    LYS P 345      28.257   9.293 -16.576  1.00 35.39 LIG-0.65  OA
ATOM     34 OXT  LYS P 345      27.906   9.442 -14.393  1.00 36.91 LIG-0.65  OA
ENDBRANCH 31 32
BRANCH 31 35
ATOM     35  CB  LYS P 345      26.017  11.350 -14.573  1.00 34.89 LIG 0.04  C 
BRANCH 35 36
ATOM     36  CG  LYS P 345      26.478  12.810 -14.528  1.00 33.69 LIG 0.00  C 
BRANCH 36 37
ATOM     37  CD  LYS P 345      27.529  13.069 -13.458  1.00 29.41 LIG 0.03  C 
BRANCH 37 38
ATOM     38  CE  LYS P 345      27.338  14.437 -12.808  1.00 29.69 LIG 0.23  C 
BRANCH 38 39
ATOM     39  NZ  LYS P 345      26.131  14.542 -11.935  1.00 27.83 LIG-0.08  N 
ATOM     40 HZ3  LYS P 345      25.679  13.775 -11.961  1.00 27.83 LIG 0.27  HD
ATOM     41 HZ1  LYS P 345      26.383  14.709 -11.098  1.00 27.83 LIG 0.27  HD
ATOM     42 HZ2  LYS P 345      25.611  15.203 -12.224  1.00 27.83 LIG 0.27  HD
ENDBRANCH 38 39
ENDBRANCH 37 38
ENDBRANCH 36 37
ENDBRANCH 35 36
ENDBRANCH 31 35
ENDBRANCH 29 31
ENDBRANCH 1 27
BRANCH 1 43
ATOM     43  CB  TRP P 344      22.231   8.834 -15.816  1.00 30.74 LIG 0.07  C 
BRANCH 43 44
ATOM     44  CG  TRP P 344      22.063   8.563 -14.353  1.00 29.17 LIG-0.03  A 
ATOM     45  CD2 TRP P 344      22.135   9.525 -13.292  1.00 26.66 LIG-0.00  A 
ATOM     46  CE3 TRP P 344      22.386  10.902 -13.244  1.00 26.53 LIG 0.01  A 
ATOM     47  CE2 TRP P 344      21.888   8.835 -12.087  1.00 26.53 LIG 0.04  A 
ATOM     48  CZ3 TRP P 344      22.381  11.543 -12.003  1.00 24.28 LIG 0.00  A 
ATOM     49  CH2 TRP P 344      22.132  10.822 -10.822  1.00 25.87 LIG 0.00  A 
ATOM     50  CZ2 TRP P 344      21.884   9.471 -10.845  1.00 24.89 LIG 0.03  A 
ATOM     51  NE1 TRP P 344      21.674   7.519 -12.405  1.00 27.39 LIG-0.36  N 
ATOM     52  CD1 TRP P 344      21.784   7.366 -13.767  1.00 29.08 LIG 0.10  A 
ATOM     53 HE1  TRP P 344      21.500   6.892 -11.844  1.00 27.39 LIG 0.17  HD
ENDBRANCH 43 44
ENDBRANCH 1 43
TORSDOF 19
ENDMDL
MODEL 4
USER: ADFR SOLUTION from run 3
USER: SCORE 16.659914 LL:  -3.410 LR: -13.992 RR:   0.000 FEB:  -8.324
USER: RMSD 8.935962
USER: SEED 91877
USER: STATUS no improvement in best in 4 clusters for 5 generations
USER: GENES 21
USER: genes 0 Translation |==|  0.29735 0.50607 0.49287
USER: genes 1 Rotation |==|  0.20286 0.60100 0.88030 0.58294
USER: genes 2 Torsion [C]-CA--N-[C] |==|  0.71183
USER: genes 3 Torsion [N]-C--CA-[N] |==|  0.18587
USER: genes 4 Torsion [N]-C--CA-[N] |==|  0.34455
USER: genes 5 Torsion [C]-CA--CB-[CG] |==|  0.11954
USER: genes 6 Torsion [CA]-CB--CG-[OD1] |==|  0.70785
USER: genes 7 Torsion [C]-CA--N-[C] |==|  0.78405
USER: genes 8 Torsion [N]-C--CA-[N] |==|  0.40238
USER: genes 9 Torsion [C]-CA--CB-[OG] |==|  0.36214
USER: genes 10 Torsion [CA]-CB--OG-[HG] |==|  0.01530
USER: genes 11 Torsion [N]-CA--C-[N] |==|  0.56948
USER: genes 12 Torsion [C]-N--CA-[C] |==|  0.68049
USER: genes 13 Torsion [N]-CA--C-[O] |==|  0.46908
USER: genes 14 Torsion [N]-CA--CB-[CG] |==|  0.97328
USER: genes 15 Torsion [CA]-CB--CG-[CD] |==|  0.81118
USER: genes 16 Torsion [CB]-CG--CD-[CE] |==|  0.58354
USER: genes 17 Torsion [CG]-CD--CE-[NZ] |==|  0.77069
USER: genes 18 Torsion [CD]-CE--NZ-[HZ2] |==|  0.48463
USER: genes 19 Torsion [N]-CA--CB-[CG] |==|  0.61165
USER: genes 20 Torsion [CA]-CB--CG-[CD2] |==|  0.43988
ROOT
ATOM      1  CA  TRP P 344      22.412   8.693 -16.598  1.00 32.15 LIG 0.18  C 
ENDROOT
BRANCH 1 2
ATOM      2  N   TRP P 344      21.785   7.705 -17.453  1.00 31.29 LIG-0.35  N 
ATOM      3 H    TRP P 344      22.135   6.920 -17.418  1.00 31.29 LIG 0.16  HD
ATOM      4  C   PRO P 343      20.750   8.032 -18.217  1.00 32.37 LIG 0.24  C 
ATOM      5 O    PRO P 343      20.308   9.180 -18.292  1.00 31.41 LIG-0.27  OA
BRANCH 4 6
ATOM      6  CA  PRO P 343      20.124   6.907 -19.030  1.00 33.03 LIG 0.18  C 
ATOM      7  N   PRO P 343      19.467   5.889 -18.206  1.00 34.38 LIG-0.34  N 
ATOM      8  C   ASP P 342      20.142   5.145 -17.317  1.00 36.67 LIG 0.24  C 
ATOM      9  CD  PRO P 343      18.002   6.013 -18.301  1.00 33.21 LIG 0.13  C 
ATOM     10 O    ASP P 342      21.351   5.287 -17.132  1.00 37.60 LIG-0.27  OA
ATOM     11  CG  PRO P 343      17.831   7.379 -18.943  1.00 33.09 LIG 0.02  C 
ATOM     12  CB  PRO P 343      18.990   7.413 -19.902  1.00 32.10 LIG 0.04  C 
BRANCH 8 13
ATOM     13  CA  ASP P 342      19.345   4.113 -16.524  1.00 38.79 LIG 0.19  C 
BRANCH 13 14
ATOM     14  CB  ASP P 342      19.362   4.469 -15.036  1.00 38.78 LIG 0.15  C 
BRANCH 14 15
ATOM     15  CG  ASP P 342      19.149   5.949 -14.793  1.00 39.37 LIG 0.17  C 
ATOM     16 OD2  ASP P 342      18.000   6.417 -14.925  1.00 39.72 LIG-0.65  OA
ATOM     17 OD1  ASP P 342      20.131   6.645 -14.464  1.00 40.57 LIG-0.65  OA
ENDBRANCH 14 15
ENDBRANCH 13 14
BRANCH 13 18
ATOM     18  N   ASP P 342      19.968   2.816 -16.737  1.00 40.71 LIG-0.34  N 
ATOM     19 H    ASP P 342      20.460   2.544 -16.086  1.00 40.71 LIG 0.16  HD
ATOM     20  C   SER P 341      19.774   2.134 -17.858  1.00 42.75 LIG 0.26  C 
ATOM     21 O    SER P 341      19.045   2.536 -18.766  1.00 44.14 LIG-0.27  OA
BRANCH 20 22
ATOM     22  CA  SER P 341      20.498   0.789 -17.968  1.00 43.56 LIG 0.42  C 
ATOM     23  N   SER P 341      19.673  -0.216 -18.709  1.00 43.48 LIG 0.62  N 
BRANCH 22 24
ATOM     24  CB  SER P 341      21.844   0.989 -18.676  1.00 43.44 LIG 0.21  C 
BRANCH 24 25
ATOM     25 OG   SER P 341      22.896   0.381 -17.942  1.00 45.13 LIG-0.40  OA
ATOM     26 HG   SER P 341      22.575  -0.043 -17.290  1.00 45.13 LIG 0.21  HD
ENDBRANCH 24 25
ENDBRANCH 22 24
ENDBRANCH 20 22
ENDBRANCH 13 18
ENDBRANCH 8 13
ENDBRANCH 4 6
ENDBRANCH 1 2
BRANCH 1 27
ATOM     27  C   TRP P 344      23.736   9.252 -17.076  1.00 32.97 LIG 0.24  C 
ATOM     28 O    TRP P 344      24.005   9.251 -18.272  1.00 31.81 LIG-0.27  OA
ATOM     29  N   LYS P 345      24.564   9.733 -16.156  1.00 34.20 LIG-0.34  N 
ATOM     30 H    LYS P 345      24.398   9.767 -15.313  1.00 34.20 LIG 0.16  HD
BRANCH 29 31
ATOM     31  CA  LYS P 345      25.866  10.252 -16.558  1.00 35.76 LIG 0.18  C 
BRANCH 31 32
ATOM     32  C   LYS P 345      27.021   9.427 -16.003  1.00 35.89 LIG 0.20  C 
ATOM     33 O    LYS P 345      28.161   9.661 -16.461  1.00 35.39 LIG-0.65  OA
ATOM     34 OXT  LYS P 345      26.774   8.584 -15.108  1.00 36.91 LIG-0.65  OA
ENDBRANCH 31 32
BRANCH 31 35
ATOM     35  CB  LYS P 345      26.013  11.718 -16.142  1.00 34.89 LIG 0.04  C 
BRANCH 35 36
ATOM     36  CG  LYS P 345      24.709  12.341 -15.633  1.00 33.69 LIG 0.00  C 
BRANCH 36 37
ATOM     37  CD  LYS P 345      23.660  12.498 -16.725  1.00 29.41 LIG 0.03  C 
BRANCH 37 38
ATOM     38  CE  LYS P 345      22.750  13.695 -16.456  1.00 29.69 LIG 0.23  C 
BRANCH 38 39
ATOM     39  NZ  LYS P 345      21.631  13.416 -15.506  1.00 27.83 LIG-0.08  N 
ATOM     40 HZ3  LYS P 345      21.073  12.825 -15.870  1.00 27.83 LIG 0.27  HD
ATOM     41 HZ1  LYS P 345      21.960  13.086 -14.748  1.00 27.83 LIG 0.27  HD
ATOM     42 HZ2  LYS P 345      21.193  14.171 -15.334  1.00 27.83 LIG 0.27  HD
ENDBRANCH 38 39
ENDBRANCH 37 38
ENDBRANCH 36 37
ENDBRANCH 35 36
ENDBRANCH 31 35
ENDBRANCH 29 31
ENDBRANCH 1 27
BRANCH 1 43
ATOM     43  CB  TRP P 344      22.553   8.147 -15.175  1.00 30.74 LIG 0.07  C 
BRANCH 43 44
ATOM     44  CG  TRP P 344      22.253   9.184 -14.139  1.00 29.17 LIG-0.03  A 
ATOM     45  CD2 TRP P 344      21.866   8.948 -12.778  1.00 26.66 LIG-0.00  A 
ATOM     46  CE3 TRP P 344      21.632   7.793 -12.022  1.00 26.53 LIG 0.01  A 
ATOM     47  CE2 TRP P 344      21.717  10.208 -12.163  1.00 26.53 LIG 0.04  A 
ATOM     48  CZ3 TRP P 344      21.258   7.931 -10.683  1.00 24.28 LIG 0.00  A 
ATOM     49  CH2 TRP P 344      21.117   9.204 -10.104  1.00 25.87 LIG 0.00  A 
ATOM     50  CZ2 TRP P 344      21.342  10.351 -10.827  1.00 24.89 LIG 0.03  A 
ATOM     51  NE1 TRP P 344      22.001  11.161 -13.106  1.00 27.39 LIG-0.36  N 
ATOM     52  CD1 TRP P 344      22.320  10.537 -14.289  1.00 29.08 LIG 0.10  A 
ATOM     53 HE1  TRP P 344      21.984  12.010 -12.978  1.00 27.39 LIG 0.17  HD
ENDBRANCH 43 44
ENDBRANCH 1 43
TORSDOF 19
ENDMDL
MODEL 5
USER: ADFR SOLUTION from run 169
USER: SCORE 16.172261 LL:  -2.522 LR: -13.832 RR:   0.000 FEB:  -8.164
USER: RMSD 5.897842
USER: SEED 168
USER: STATUS searching
USER: GENES 21
USER: genes 0 Translation |==|  0.42523 0.48434 0.56802
USER: genes 1 Rotation |==|  0.47108 0.53251 0.57125 0.99298
USER: genes 2 Torsion [C]-CA--N-[C] |==|  0.81402
USER: genes 3 Torsion [N]-C--CA-[N] |==|  0.50649
USER: genes 4 Torsion [N]-C--CA-[N] |==|  0.48265
USER: genes 5 Torsion [C]-CA--CB-[CG] |==|  0.71655
USER: genes 6 Torsion [CA]-CB--CG-[OD1] |==|  0.20852
USER: genes 7 Torsion [C]-CA--N-[C] |==|  0.78671
USER: genes 8 Torsion [N]-C--CA-[N] |==|  0.55026
USER: genes 9 Torsion [C]-CA--CB-[OG] |==|  0.34296
USER: genes 10 Torsion [CA]-CB--OG-[HG] |==|  0.41296
USER: genes 11 Torsion [N]-CA--C-[N] |==|  0.44078
USER: genes 12 Torsion [C]-N--CA-[C] |==|  0.68448
USER: genes 13 Torsion [N]-CA--C-[O] |==|  0.98260
USER: genes 14 Torsion [N]-CA--CB-[CG] |==|  0.48624
USER: genes 15 Torsion [CA]-CB--CG-[CD] |==|  0.51515
USER: genes 16 Torsion [CB]-CG--CD-[CE] |==|  0.36373
USER: genes 17 Torsion [CG]-CD--CE-[NZ] |==|  0.51731
USER: genes 18 Torsion [CD]-CE--NZ-[HZ2] |==|  0.27502
USER: genes 19 Torsion [N]-CA--CB-[CG] |==|  0.82669
USER: genes 20 Torsion [CA]-CB--CG-[CD2] |==|  0.71727
ROOT
ATOM      1  CA  TRP P 344      24.522   8.155 -15.133  1.00 32.15 LIG 0.18  C 
ENDROOT
BRANCH 1 2
ATOM      2  N   TRP P 344      25.117   9.417 -15.527  1.00 31.29 LIG-0.35  N 
ATOM      3 H    TRP P 344      24.565   9.996 -15.841  1.00 31.29 LIG 0.16  HD
ATOM      4  C   PRO P 343      26.423   9.618 -15.397  1.00 32.37 LIG 0.24  C 
ATOM      5 O    PRO P 343      27.200   8.747 -15.000  1.00 31.41 LIG-0.27  OA
BRANCH 4 6
ATOM      6  CA  PRO P 343      26.939  10.998 -15.781  1.00 33.03 LIG 0.18  C 
ATOM      7  N   PRO P 343      28.394  11.130 -15.663  1.00 34.38 LIG-0.34  N 
ATOM      8  C   ASP P 342      29.030  10.997 -14.491  1.00 36.67 LIG 0.24  C 
ATOM      9  CD  PRO P 343      29.022  11.142 -16.996  1.00 33.21 LIG 0.13  C 
ATOM     10 O    ASP P 342      28.428  10.740 -13.448  1.00 37.60 LIG-0.27  OA
ATOM     11  CG  PRO P 343      27.896  10.655 -17.892  1.00 33.09 LIG 0.02  C 
ATOM     12  CB  PRO P 343      26.696  11.295 -17.250  1.00 32.10 LIG 0.04  C 
BRANCH 8 13
ATOM     13  CA  ASP P 342      30.547  11.163 -14.497  1.00 38.79 LIG 0.19  C 
BRANCH 13 14
ATOM     14  CB  ASP P 342      31.195  10.031 -15.296  1.00 38.78 LIG 0.15  C 
BRANCH 14 15
ATOM     15  CG  ASP P 342      31.791   8.961 -14.405  1.00 39.37 LIG 0.17  C 
ATOM     16 OD2  ASP P 342      33.031   8.919 -14.269  1.00 39.72 LIG-0.65  OA
ATOM     17 OD1  ASP P 342      31.020   8.164 -13.834  1.00 40.57 LIG-0.65  OA
ENDBRANCH 14 15
ENDBRANCH 13 14
BRANCH 13 18
ATOM     18  N   ASP P 342      31.000  11.128 -13.116  1.00 40.71 LIG-0.34  N 
ATOM     19 H    ASP P 342      31.363  10.385 -12.878  1.00 40.71 LIG 0.16  HD
ATOM     20  C   SER P 341      30.851  12.174 -12.314  1.00 42.75 LIG 0.26  C 
ATOM     21 O    SER P 341      30.350  13.236 -12.689  1.00 44.14 LIG-0.27  OA
BRANCH 20 22
ATOM     22  CA  SER P 341      31.355  12.006 -10.877  1.00 43.56 LIG 0.42  C 
ATOM     23  N   SER P 341      30.763  13.036  -9.967  1.00 43.48 LIG 0.62  N 
BRANCH 22 24
ATOM     24  CB  SER P 341      31.009  10.599 -10.375  1.00 43.44 LIG 0.21  C 
BRANCH 24 25
ATOM     25 OG   SER P 341      32.177   9.913  -9.951  1.00 45.13 LIG-0.40  OA
ATOM     26 HG   SER P 341      31.981   9.386  -9.326  1.00 45.13 LIG 0.21  HD
ENDBRANCH 24 25
ENDBRANCH 22 24
ENDBRANCH 20 22
ENDBRANCH 13 18
ENDBRANCH 8 13
ENDBRANCH 4 6
ENDBRANCH 1 2
BRANCH 1 27
ATOM     27  C   TRP P 344      24.908   6.944 -15.955  1.00 32.97 LIG 0.24  C 
ATOM     28 O    TRP P 344      25.348   7.089 -17.091  1.00 31.81 LIG-0.27  OA
ATOM     29  N   LYS P 345      24.753   5.750 -15.395  1.00 34.20 LIG-0.34  N 
ATOM     30 H    LYS P 345      24.467   5.614 -14.594  1.00 34.20 LIG 0.16  HD
BRANCH 29 31
ATOM     31  CA  LYS P 345      25.078   4.549 -16.154  1.00 35.76 LIG 0.18  C 
BRANCH 31 32
ATOM     32  C   LYS P 345      23.849   3.700 -16.458  1.00 35.89 LIG 0.20  C 
ATOM     33 O    LYS P 345      22.768   4.051 -15.938  1.00 35.39 LIG-0.65  OA
ATOM     34 OXT  LYS P 345      23.980   2.718 -17.228  1.00 36.91 LIG-0.65  OA
ENDBRANCH 31 32
BRANCH 31 35
ATOM     35  CB  LYS P 345      26.130   3.714 -15.419  1.00 34.89 LIG 0.04  C 
BRANCH 35 36
ATOM     36  CG  LYS P 345      26.432   2.376 -16.102  1.00 33.69 LIG 0.00  C 
BRANCH 36 37
ATOM     37  CD  LYS P 345      27.379   1.499 -15.296  1.00 29.41 LIG 0.03  C 
BRANCH 37 38
ATOM     38  CE  LYS P 345      26.840   0.076 -15.158  1.00 29.69 LIG 0.23  C 
BRANCH 38 39
ATOM     39  NZ  LYS P 345      27.644  -0.803 -14.257  1.00 27.83 LIG-0.08  N 
ATOM     40 HZ3  LYS P 345      27.688  -1.622 -14.602  1.00 27.83 LIG 0.27  HD
ATOM     41 HZ1  LYS P 345      28.466  -0.471 -14.174  1.00 27.83 LIG 0.27  HD
ATOM     42 HZ2  LYS P 345      27.258  -0.839 -13.456  1.00 27.83 LIG 0.27  HD
ENDBRANCH 38 39
ENDBRANCH 37 38
ENDBRANCH 36 37
ENDBRANCH 35 36
ENDBRANCH 31 35
ENDBRANCH 29 31
ENDBRANCH 1 27
BRANCH 1 43
ATOM     43  CB  TRP P 344      22.998   8.287 -15.071  1.00 30.74 LIG 0.07  C 
BRANCH 43 44
ATOM     44  CG  TRP P 344      22.559   9.284 -14.045  1.00 29.17 LIG-0.03  A 
ATOM     45  CD2 TRP P 344      22.044   8.997 -12.738  1.00 26.66 LIG-0.00  A 
ATOM     46  CE3 TRP P 344      21.773   7.814 -12.039  1.00 26.53 LIG 0.01  A 
ATOM     47  CE2 TRP P 344      21.789  10.234 -12.109  1.00 26.53 LIG 0.04  A 
ATOM     48  CZ3 TRP P 344      21.260   7.902 -10.743  1.00 24.28 LIG 0.00  A 
ATOM     49  CH2 TRP P 344      21.017   9.152 -10.149  1.00 25.87 LIG 0.00  A 
ATOM     50  CZ2 TRP P 344      21.275  10.325 -10.816  1.00 24.89 LIG 0.03  A 
ATOM     51  NE1 TRP P 344      22.135  11.221 -12.993  1.00 27.39 LIG-0.36  N 
ATOM     52  CD1 TRP P 344      22.594  10.642 -14.153  1.00 29.08 LIG 0.10  A 
ATOM     53 HE1  TRP P 344      22.076  12.066 -12.847  1.00 27.39 LIG 0.17  HD
ENDBRANCH 43 44
ENDBRANCH 1 43
TORSDOF 19
ENDMDL
MODEL 6
USER: ADFR SOLUTION from run 4
USER: SCORE 16.512224 LL:  -3.122 LR: -13.662 RR:   0.000 FEB:  -7.995
USER: RMSD 5.426522
USER: SEED 778524
USER: STATUS no improvement in best in 6 clusters for 5 generations
USER: GENES 21
USER: genes 0 Translation |==|  0.40600 0.45822 0.54379
USER: genes 1 Rotation |==|  0.65010 0.81858 0.45007 0.85140
USER: genes 2 Torsion [C]-CA--N-[C] |==|  0.53821
USER: genes 3 Torsion [N]-C--CA-[N] |==|  0.44126
USER: genes 4 Torsion [N]-C--CA-[N] |==|  0.38623
USER: genes 5 Torsion [C]-CA--CB-[CG] |==|  0.27244
USER: genes 6 Torsion [CA]-CB--CG-[OD1] |==|  0.10775
USER: genes 7 Torsion [C]-CA--N-[C] |==|  0.81488
USER: genes 8 Torsion [N]-C--CA-[N] |==|  0.41401
USER: genes 9 Torsion [C]-CA--CB-[OG] |==|  0.35258
USER: genes 10 Torsion [CA]-CB--OG-[HG] |==|  0.43171
USER: genes 11 Torsion [N]-CA--C-[N] |==|  0.48333
USER: genes 12 Torsion [C]-N--CA-[C] |==|  0.78269
USER: genes 13 Torsion [N]-CA--C-[O] |==|  0.95552
USER: genes 14 Torsion [N]-CA--CB-[CG] |==|  0.49464
USER: genes 15 Torsion [CA]-CB--CG-[CD] |==|  0.20276
USER: genes 16 Torsion [CB]-CG--CD-[CE] |==|  0.22543
USER: genes 17 Torsion [CG]-CD--CE-[NZ] |==|  0.08377
USER: genes 18 Torsion [CD]-CE--NZ-[HZ2] |==|  0.18039
USER: genes 19 Torsion [N]-CA--CB-[CG] |==|  0.18608
USER: genes 20 Torsion [CA]-CB--CG-[CD2] |==|  0.39537
ROOT
ATOM      1  CA  TRP P 344      24.205   7.509 -15.605  1.00 32.15 LIG 0.18  C 
ENDROOT
BRANCH 1 2
ATOM      2  N   TRP P 344      24.797   8.683 -16.216  1.00 31.29 LIG-0.35  N 
ATOM      3 H    TRP P 344      24.254   9.162 -16.681  1.00 31.29 LIG 0.16  HD
ATOM      4  C   PRO P 343      26.085   8.957 -16.045  1.00 32.37 LIG 0.24  C 
ATOM      5 O    PRO P 343      26.851   8.219 -15.424  1.00 31.41 LIG-0.27  OA
BRANCH 4 6
ATOM      6  CA  PRO P 343      26.593  10.246 -16.677  1.00 33.03 LIG 0.18  C 
ATOM      7  N   PRO P 343      27.833  10.741 -16.071  1.00 34.38 LIG-0.34  N 
ATOM      8  C   ASP P 342      27.901  11.107 -14.783  1.00 36.67 LIG 0.24  C 
ATOM      9  CD  PRO P 343      28.976  10.511 -16.972  1.00 33.21 LIG 0.13  C 
ATOM     10 O    ASP P 342      26.930  11.032 -14.031  1.00 37.60 LIG-0.27  OA
ATOM     11  CG  PRO P 343      28.402   9.535 -17.985  1.00 33.09 LIG 0.02  C 
ATOM     12  CB  PRO P 343      26.991  10.037 -18.126  1.00 32.10 LIG 0.04  C 
BRANCH 8 13
ATOM     13  CA  ASP P 342      29.248  11.613 -14.273  1.00 38.79 LIG 0.19  C 
BRANCH 13 14
ATOM     14  CB  ASP P 342      29.963  10.506 -13.498  1.00 38.78 LIG 0.15  C 
BRANCH 14 15
ATOM     15  CG  ASP P 342      30.990   9.779 -14.340  1.00 39.37 LIG 0.17  C 
ATOM     16 OD2  ASP P 342      31.104   8.543 -14.209  1.00 39.72 LIG-0.65  OA
ATOM     17 OD1  ASP P 342      31.681  10.442 -15.139  1.00 40.57 LIG-0.65  OA
ENDBRANCH 14 15
ENDBRANCH 13 14
BRANCH 13 18
ATOM     18  N   ASP P 342      28.990  12.750 -13.404  1.00 40.71 LIG-0.34  N 
ATOM     19 H    ASP P 342      29.184  12.618 -12.576  1.00 40.71 LIG 0.16  HD
ATOM     20  C   SER P 341      28.496  13.885 -13.881  1.00 42.75 LIG 0.26  C 
ATOM     21 O    SER P 341      28.251  14.056 -15.076  1.00 44.14 LIG-0.27  OA
BRANCH 20 22
ATOM     22  CA  SER P 341      28.256  15.003 -12.861  1.00 43.56 LIG 0.42  C 
ATOM     23  N   SER P 341      28.431  16.354 -13.480  1.00 43.48 LIG 0.62  N 
BRANCH 22 24
ATOM     24  CB  SER P 341      26.843  14.870 -12.281  1.00 43.44 LIG 0.21  C 
BRANCH 24 25
ATOM     25 OG   SER P 341      26.880  14.843 -10.862  1.00 45.13 LIG-0.40  OA
ATOM     26 HG   SER P 341      26.141  15.105 -10.557  1.00 45.13 LIG 0.21  HD
ENDBRANCH 24 25
ENDBRANCH 22 24
ENDBRANCH 20 22
ENDBRANCH 13 18
ENDBRANCH 8 13
ENDBRANCH 4 6
ENDBRANCH 1 2
BRANCH 1 27
ATOM     27  C   TRP P 344      22.836   7.106 -16.110  1.00 32.97 LIG 0.24  C 
ATOM     28 O    TRP P 344      22.243   7.822 -16.911  1.00 31.81 LIG-0.27  OA
ATOM     29  N   LYS P 345      22.326   5.968 -15.655  1.00 34.20 LIG-0.34  N 
ATOM     30 H    LYS P 345      22.723   5.433 -15.109  1.00 34.20 LIG 0.16  HD
BRANCH 29 31
ATOM     31  CA  LYS P 345      20.997   5.549 -16.083  1.00 35.76 LIG 0.18  C 
BRANCH 31 32
ATOM     32  C   LYS P 345      19.886   6.293 -15.350  1.00 35.89 LIG 0.20  C 
ATOM     33 O    LYS P 345      20.200   6.903 -14.306  1.00 35.39 LIG-0.65  OA
ATOM     34 OXT  LYS P 345      18.732   6.273 -15.842  1.00 36.91 LIG-0.65  OA
ENDBRANCH 31 32
BRANCH 31 35
ATOM     35  CB  LYS P 345      20.826   4.038 -15.911  1.00 34.89 LIG 0.04  C 
BRANCH 35 36
ATOM     36  CG  LYS P 345      19.432   3.534 -16.299  1.00 33.69 LIG 0.00  C 
BRANCH 36 37
ATOM     37  CD  LYS P 345      19.199   3.532 -17.803  1.00 29.41 LIG 0.03  C 
BRANCH 37 38
ATOM     38  CE  LYS P 345      19.810   2.297 -18.461  1.00 29.69 LIG 0.23  C 
BRANCH 38 39
ATOM     39  NZ  LYS P 345      19.848   1.088 -17.584  1.00 27.83 LIG-0.08  N 
ATOM     40 HZ3  LYS P 345      20.279   0.431 -18.003  1.00 27.83 LIG 0.27  HD
ATOM     41 HZ1  LYS P 345      20.271   1.284 -16.826  1.00 27.83 LIG 0.27  HD
ATOM     42 HZ2  LYS P 345      19.017   0.828 -17.400  1.00 27.83 LIG 0.27  HD
ENDBRANCH 38 39
ENDBRANCH 37 38
ENDBRANCH 36 37
ENDBRANCH 35 36
ENDBRANCH 31 35
ENDBRANCH 29 31
ENDBRANCH 1 27
BRANCH 1 43
ATOM     43  CB  TRP P 344      24.181   7.662 -14.082  1.00 30.74 LIG 0.07  C 
BRANCH 43 44
ATOM     44  CG  TRP P 344      23.253   8.749 -13.638  1.00 29.17 LIG-0.03  A 
ATOM     45  CD2 TRP P 344      22.411   8.734 -12.477  1.00 26.66 LIG-0.00  A 
ATOM     46  CE3 TRP P 344      22.163   7.794 -11.469  1.00 26.53 LIG 0.01  A 
ATOM     47  CE2 TRP P 344      21.736   9.972 -12.436  1.00 26.53 LIG 0.04  A 
ATOM     48  CZ3 TRP P 344      21.254   8.116 -10.458  1.00 24.28 LIG 0.00  A 
ATOM     49  CH2 TRP P 344      20.599   9.359 -10.451  1.00 25.87 LIG 0.00  A 
ATOM     50  CZ2 TRP P 344      20.827  10.297 -11.429  1.00 24.89 LIG 0.03  A 
ATOM     51  NE1 TRP P 344      22.151  10.701 -13.519  1.00 27.39 LIG-0.36  N 
ATOM     52  CD1 TRP P 344      23.060   9.958 -14.236  1.00 29.08 LIG 0.10  A 
ATOM     53 HE1  TRP P 344      21.887  11.494 -13.718  1.00 27.39 LIG 0.17  HD
ENDBRANCH 43 44
ENDBRANCH 1 43
TORSDOF 19
ENDMDL
MODEL 7
USER: ADFR SOLUTION from run 67
USER: SCORE 15.197971 LL:  -3.039 LR: -13.434 RR:   0.000 FEB:  -7.766
USER: RMSD 9.014505
USER: SEED 66
USER: STATUS no improvement in best in 11 clusters for 5 generations
USER: GENES 21
USER: genes 0 Translation |==|  0.36547 0.45546 0.52974
USER: genes 1 Rotation |==|  0.84367 0.40160 0.15321 0.54413
USER: genes 2 Torsion [C]-CA--N-[C] |==|  0.18777
USER: genes 3 Torsion [N]-C--CA-[N] |==|  0.98052
USER: genes 4 Torsion [N]-C--CA-[N] |==|  0.23333
USER: genes 5 Torsion [C]-CA--CB-[CG] |==|  0.44745
USER: genes 6 Torsion [CA]-CB--CG-[OD1] |==|  0.09269
USER: genes 7 Torsion [C]-CA--N-[C] |==|  0.68786
USER: genes 8 Torsion [N]-C--CA-[N] |==|  0.26596
USER: genes 9 Torsion [C]-CA--CB-[OG] |==|  0.13188
USER: genes 10 Torsion [CA]-CB--OG-[HG] |==|  0.81664
USER: genes 11 Torsion [N]-CA--C-[N] |==|  0.57624
USER: genes 12 Torsion [C]-N--CA-[C] |==|  0.75153
USER: genes 13 Torsion [N]-CA--C-[O] |==|  0.86645
USER: genes 14 Torsion [N]-CA--CB-[CG] |==|  0.95243
USER: genes 15 Torsion [CA]-CB--CG-[CD] |==|  0.69724
USER: genes 16 Torsion [CB]-CG--CD-[CE] |==|  0.41950
USER: genes 17 Torsion [CG]-CD--CE-[NZ] |==|  0.34084
USER: genes 18 Torsion [CD]-CE--NZ-[HZ2] |==|  0.22928
USER: genes 19 Torsion [N]-CA--CB-[CG] |==|  0.60610
USER: genes 20 Torsion [CA]-CB--CG-[CD2] |==|  0.41584
ROOT
ATOM      1  CA  TRP P 344      23.536   7.441 -15.879  1.00 32.15 LIG 0.18  C 
ENDROOT
BRANCH 1 2
ATOM      2  N   TRP P 344      23.493   6.068 -16.344  1.00 31.29 LIG-0.35  N 
ATOM      3 H    TRP P 344      22.803   5.866 -16.816  1.00 31.29 LIG 0.16  HD
ATOM      4  C   PRO P 343      24.469   5.221 -16.039  1.00 32.37 LIG 0.24  C 
ATOM      5 O    PRO P 343      25.415   5.522 -15.310  1.00 31.41 LIG-0.27  OA
BRANCH 4 6
ATOM      6  CA  PRO P 343      24.359   3.821 -16.627  1.00 33.03 LIG 0.18  C 
ATOM      7  N   PRO P 343      23.090   3.578 -17.320  1.00 34.38 LIG-0.34  N 
ATOM      8  C   ASP P 342      21.911   3.622 -16.685  1.00 36.67 LIG 0.24  C 
ATOM      9  CD  PRO P 343      23.292   3.567 -18.780  1.00 33.21 LIG 0.13  C 
ATOM     10 O    ASP P 342      21.825   3.885 -15.485  1.00 37.60 LIG-0.27  OA
ATOM     11  CG  PRO P 343      24.680   4.168 -18.923  1.00 33.09 LIG 0.02  C 
ATOM     12  CB  PRO P 343      25.385   3.595 -17.723  1.00 32.10 LIG 0.04  C 
BRANCH 8 13
ATOM     13  CA  ASP P 342      20.660   3.345 -17.516  1.00 38.79 LIG 0.19  C 
BRANCH 13 14
ATOM     14  CB  ASP P 342      19.441   3.993 -16.858  1.00 38.78 LIG 0.15  C 
BRANCH 14 15
ATOM     15  CG  ASP P 342      18.283   4.158 -17.821  1.00 39.37 LIG 0.17  C 
ATOM     16 OD2  ASP P 342      17.536   5.149 -17.692  1.00 39.72 LIG-0.65  OA
ATOM     17 OD1  ASP P 342      18.122   3.298 -18.710  1.00 40.57 LIG-0.65  OA
ENDBRANCH 14 15
ENDBRANCH 13 14
BRANCH 13 18
ATOM     18  N   ASP P 342      20.488   1.902 -17.583  1.00 40.71 LIG-0.34  N 
ATOM     19 H    ASP P 342      20.287   1.531 -16.833  1.00 40.71 LIG 0.16  HD
ATOM     20  C   SER P 341      20.635   1.242 -18.724  1.00 42.75 LIG 0.26  C 
ATOM     21 O    SER P 341      20.899   1.803 -19.790  1.00 44.14 LIG-0.27  OA
BRANCH 20 22
ATOM     22  CA  SER P 341      20.442  -0.276 -18.661  1.00 43.56 LIG 0.42  C 
ATOM     23  N   SER P 341      19.048  -0.665 -19.043  1.00 43.48 LIG 0.62  N 
BRANCH 22 24
ATOM     24  CB  SER P 341      21.452  -0.959 -19.590  1.00 43.44 LIG 0.21  C 
BRANCH 24 25
ATOM     25 OG   SER P 341      22.757  -0.433 -19.392  1.00 45.13 LIG-0.40  OA
ATOM     26 HG   SER P 341      22.774   0.372 -19.633  1.00 45.13 LIG 0.21  HD
ENDBRANCH 24 25
ENDBRANCH 22 24
ENDBRANCH 20 22
ENDBRANCH 13 18
ENDBRANCH 8 13
ENDBRANCH 4 6
ENDBRANCH 1 2
BRANCH 1 27
ATOM     27  C   TRP P 344      24.622   8.316 -16.469  1.00 32.97 LIG 0.24  C 
ATOM     28 O    TRP P 344      25.060   8.076 -17.589  1.00 31.81 LIG-0.27  OA
ATOM     29  N   LYS P 345      25.060   9.328 -15.730  1.00 34.20 LIG-0.34  N 
ATOM     30 H    LYS P 345      24.760   9.536 -14.950  1.00 34.20 LIG 0.16  HD
BRANCH 29 31
ATOM     31  CA  LYS P 345      26.128  10.182 -16.236  1.00 35.76 LIG 0.18  C 
BRANCH 31 32
ATOM     32  C   LYS P 345      27.513   9.672 -15.858  1.00 35.89 LIG 0.20  C 
ATOM     33 O    LYS P 345      27.698   9.351 -14.664  1.00 35.39 LIG-0.65  OA
ATOM     34 OXT  LYS P 345      28.379   9.577 -16.760  1.00 36.91 LIG-0.65  OA
ENDBRANCH 31 32
BRANCH 31 35
ATOM     35  CB  LYS P 345      25.942  11.622 -15.751  1.00 34.89 LIG 0.04  C 
BRANCH 35 36
ATOM     36  CG  LYS P 345      24.529  11.914 -15.235  1.00 33.69 LIG 0.00  C 
BRANCH 36 37
ATOM     37  CD  LYS P 345      23.734  12.821 -16.164  1.00 29.41 LIG 0.03  C 
BRANCH 37 38
ATOM     38  CE  LYS P 345      22.236  12.544 -16.065  1.00 29.69 LIG 0.23  C 
BRANCH 38 39
ATOM     39  NZ  LYS P 345      21.413  13.733 -15.690  1.00 27.83 LIG-0.08  N 
ATOM     40 HZ3  LYS P 345      20.642  13.462 -15.338  1.00 27.83 LIG 0.27  HD
ATOM     41 HZ1  LYS P 345      21.855  14.224 -15.095  1.00 27.83 LIG 0.27  HD
ATOM     42 HZ2  LYS P 345      21.251  14.223 -16.416  1.00 27.83 LIG 0.27  HD
ENDBRANCH 38 39
ENDBRANCH 37 38
ENDBRANCH 36 37
ENDBRANCH 35 36
ENDBRANCH 31 35
ENDBRANCH 29 31
ENDBRANCH 1 27
BRANCH 1 43
ATOM     43  CB  TRP P 344      23.601   7.478 -14.350  1.00 30.74 LIG 0.07  C 
BRANCH 43 44
ATOM     44  CG  TRP P 344      22.786   8.596 -13.778  1.00 29.17 LIG-0.03  A 
ATOM     45  CD2 TRP P 344      22.124   8.608 -12.506  1.00 26.66 LIG-0.00  A 
ATOM     46  CE3 TRP P 344      21.994   7.675 -11.469  1.00 26.53 LIG 0.01  A 
ATOM     47  CE2 TRP P 344      21.506   9.869 -12.370  1.00 26.53 LIG 0.04  A 
ATOM     48  CZ3 TRP P 344      21.256   8.027 -10.337  1.00 24.28 LIG 0.00  A 
ATOM     49  CH2 TRP P 344      20.652   9.292 -10.237  1.00 25.87 LIG 0.00  A 
ATOM     50  CZ2 TRP P 344      20.766  10.223 -11.241  1.00 24.89 LIG 0.03  A 
ATOM     51  NE1 TRP P 344      21.783  10.585 -13.504  1.00 27.39 LIG-0.36  N 
ATOM     52  CD1 TRP P 344      22.549   9.812 -14.344  1.00 29.08 LIG 0.10  A 
ATOM     53 HE1  TRP P 344      21.519  11.387 -13.665  1.00 27.39 LIG 0.17  HD
ENDBRANCH 43 44
ENDBRANCH 1 43
TORSDOF 19
ENDMDL
MODEL 8
USER: ADFR SOLUTION from run 144
USER: SCORE 16.087827 LL:  -2.718 LR: -13.423 RR:   0.000 FEB:  -7.756
USER: RMSD 5.336443
USER: SEED 143
USER: STATUS no improvement in best in 12 clusters for 5 generations
USER: GENES 21
USER: genes 0 Translation |==|  0.45375 0.50965 0.57771
USER: genes 1 Rotation |==|  0.39829 0.48832 0.52361 0.98884
USER: genes 2 Torsion [C]-CA--N-[C] |==|  0.83020
USER: genes 3 Torsion [N]-C--CA-[N] |==|  0.46599
USER: genes 4 Torsion [N]-C--CA-[N] |==|  0.38301
USER: genes 5 Torsion [C]-CA--CB-[CG] |==|  0.13267
USER: genes 6 Torsion [CA]-CB--CG-[OD1] |==|  0.20759
USER: genes 7 Torsion [C]-CA--N-[C] |==|  0.83404
USER: genes 8 Torsion [N]-C--CA-[N] |==|  0.48901
USER: genes 9 Torsion [C]-CA--CB-[OG] |==|  0.27364
USER: genes 10 Torsion [CA]-CB--OG-[HG] |==|  0.51309
USER: genes 11 Torsion [N]-CA--C-[N] |==|  0.88333
USER: genes 12 Torsion [C]-N--CA-[C] |==|  0.60450
USER: genes 13 Torsion [N]-CA--C-[O] |==|  0.68392
USER: genes 14 Torsion [N]-CA--CB-[CG] |==|  0.75866
USER: genes 15 Torsion [CA]-CB--CG-[CD] |==|  0.44542
USER: genes 16 Torsion [CB]-CG--CD-[CE] |==|  0.57367
USER: genes 17 Torsion [CG]-CD--CE-[NZ] |==|  0.60862
USER: genes 18 Torsion [CD]-CE--NZ-[HZ2] |==|  0.13514
USER: genes 19 Torsion [N]-CA--CB-[CG] |==|  0.73536
USER: genes 20 Torsion [CA]-CB--CG-[CD2] |==|  0.78342
ROOT
ATOM      1  CA  TRP P 344      24.993   8.782 -14.944  1.00 32.15 LIG 0.18  C 
ENDROOT
BRANCH 1 2
ATOM      2  N   TRP P 344      25.877   9.794 -15.487  1.00 31.29 LIG-0.35  N 
ATOM      3 H    TRP P 344      25.497  10.370 -16.001  1.00 31.29 LIG 0.16  HD
ATOM      4  C   PRO P 343      27.171   9.792 -15.187  1.00 32.37 LIG 0.24  C 
ATOM      5 O    PRO P 343      27.698   8.919 -14.497  1.00 31.41 LIG-0.27  OA
BRANCH 4 6
ATOM      6  CA  PRO P 343      28.000  10.934 -15.759  1.00 33.03 LIG 0.18  C 
ATOM      7  N   PRO P 343      29.338  11.035 -15.167  1.00 34.38 LIG-0.34  N 
ATOM      8  C   ASP P 342      29.525  11.283 -13.863  1.00 36.67 LIG 0.24  C 
ATOM      9  CD  PRO P 343      30.361  10.563 -16.118  1.00 33.21 LIG 0.13  C 
ATOM     10 O    ASP P 342      28.582  11.424 -13.084  1.00 37.60 LIG-0.27  OA
ATOM     11  CG  PRO P 343      29.526   9.848 -17.167  1.00 33.09 LIG 0.02  C 
ATOM     12  CB  PRO P 343      28.303  10.721 -17.230  1.00 32.10 LIG 0.04  C 
BRANCH 8 13
ATOM     13  CA  ASP P 342      30.966  11.371 -13.369  1.00 38.79 LIG 0.19  C 
BRANCH 13 14
ATOM     14  CB  ASP P 342      31.357  10.073 -12.660  1.00 38.78 LIG 0.15  C 
BRANCH 14 15
ATOM     15  CG  ASP P 342      30.978   8.841 -13.455  1.00 39.37 LIG 0.17  C 
ATOM     16 OD2  ASP P 342      29.994   8.169 -13.084  1.00 39.72 LIG-0.65  OA
ATOM     17 OD1  ASP P 342      31.662   8.546 -14.456  1.00 40.57 LIG-0.65  OA
ENDBRANCH 14 15
ENDBRANCH 13 14
BRANCH 13 18
ATOM     18  N   ASP P 342      31.049  12.492 -12.447  1.00 40.71 LIG-0.34  N 
ATOM     19 H    ASP P 342      31.301  12.283 -11.652  1.00 40.71 LIG 0.16  HD
ATOM     20  C   SER P 341      30.751  13.726 -12.834  1.00 42.75 LIG 0.26  C 
ATOM     21 O    SER P 341      30.416  14.001 -13.987  1.00 44.14 LIG-0.27  OA
BRANCH 20 22
ATOM     22  CA  SER P 341      30.862  14.818 -11.765  1.00 43.56 LIG 0.42  C 
ATOM     23  N   SER P 341      30.596  16.174 -12.340  1.00 43.48 LIG 0.62  N 
BRANCH 22 24
ATOM     24  CB  SER P 341      29.874  14.524 -10.630  1.00 43.44 LIG 0.21  C 
BRANCH 24 25
ATOM     25 OG   SER P 341      30.529  13.889  -9.542  1.00 45.13 LIG-0.40  OA
ATOM     26 HG   SER P 341      29.962  13.678  -8.958  1.00 45.13 LIG 0.21  HD
ENDBRANCH 24 25
ENDBRANCH 22 24
ENDBRANCH 20 22
ENDBRANCH 13 18
ENDBRANCH 8 13
ENDBRANCH 4 6
ENDBRANCH 1 2
BRANCH 1 27
ATOM     27  C   TRP P 344      25.305   7.348 -15.314  1.00 32.97 LIG 0.24  C 
ATOM     28 O    TRP P 344      25.229   6.465 -14.465  1.00 31.81 LIG-0.27  OA
ATOM     29  N   LYS P 345      25.654   7.103 -16.572  1.00 34.20 LIG-0.34  N 
ATOM     30 H    LYS P 345      25.698   7.694 -17.195  1.00 34.20 LIG 0.16  HD
BRANCH 29 31
ATOM     31  CA  LYS P 345      25.999   5.745 -16.974  1.00 35.76 LIG 0.18  C 
BRANCH 31 32
ATOM     32  C   LYS P 345      27.146   5.705 -17.976  1.00 35.89 LIG 0.20  C 
ATOM     33 O    LYS P 345      26.884   5.301 -19.130  1.00 35.39 LIG-0.65  OA
ATOM     34 OXT  LYS P 345      28.277   6.100 -17.603  1.00 36.91 LIG-0.65  OA
ENDBRANCH 31 32
BRANCH 31 35
ATOM     35  CB  LYS P 345      24.773   5.024 -17.542  1.00 34.89 LIG 0.04  C 
BRANCH 35 36
ATOM     36  CG  LYS P 345      23.921   4.336 -16.471  1.00 33.69 LIG 0.00  C 
BRANCH 36 37
ATOM     37  CD  LYS P 345      22.503   4.042 -16.939  1.00 29.41 LIG 0.03  C 
BRANCH 37 38
ATOM     38  CE  LYS P 345      21.528   3.986 -15.765  1.00 29.69 LIG 0.23  C 
BRANCH 38 39
ATOM     39  NZ  LYS P 345      20.489   2.918 -15.877  1.00 27.83 LIG-0.08  N 
ATOM     40 HZ3  LYS P 345      20.065   2.834 -15.099  1.00 27.83 LIG 0.27  HD
ATOM     41 HZ1  LYS P 345      19.905   3.137 -16.511  1.00 27.83 LIG 0.27  HD
ATOM     42 HZ2  LYS P 345      20.879   2.146 -16.088  1.00 27.83 LIG 0.27  HD
ENDBRANCH 38 39
ENDBRANCH 37 38
ENDBRANCH 36 37
ENDBRANCH 35 36
ENDBRANCH 31 35
ENDBRANCH 29 31
ENDBRANCH 1 27
BRANCH 1 43
ATOM     43  CB  TRP P 344      23.538   9.111 -15.289  1.00 30.74 LIG 0.07  C 
BRANCH 43 44
ATOM     44  CG  TRP P 344      22.850   9.854 -14.187  1.00 29.17 LIG-0.03  A 
ATOM     45  CD2 TRP P 344      22.329   9.295 -12.973  1.00 26.66 LIG-0.00  A 
ATOM     46  CE3 TRP P 344      22.261   7.996 -12.453  1.00 26.53 LIG 0.01  A 
ATOM     47  CE2 TRP P 344      21.797  10.361 -12.218  1.00 26.53 LIG 0.04  A 
ATOM     48  CZ3 TRP P 344      21.667   7.804 -11.203  1.00 24.28 LIG 0.00  A 
ATOM     49  CH2 TRP P 344      21.146   8.890 -10.480  1.00 25.87 LIG 0.00  A 
ATOM     50  CZ2 TRP P 344      21.202  10.173 -10.971  1.00 24.89 LIG 0.03  A 
ATOM     51  NE1 TRP P 344      21.989  11.509 -12.940  1.00 27.39 LIG-0.36  N 
ATOM     52  CD1 TRP P 344      22.619  11.195 -14.121  1.00 29.08 LIG 0.10  A 
ATOM     53 HE1  TRP P 344      21.753  12.299 -12.695  1.00 27.39 LIG 0.17  HD
ENDBRANCH 43 44
ENDBRANCH 1 43
TORSDOF 19
ENDMDL
MODEL 9
USER: ADFR SOLUTION from run 105
USER: SCORE 16.408529 LL:  -3.242 LR: -13.375 RR:   0.000 FEB:  -7.707
USER: RMSD 4.894901
USER: SEED 104
USER: STATUS no improvement in best in 12 clusters for 5 generations
USER: GENES 21
USER: genes 0 Translation |==|  0.42920 0.48008 0.56722
USER: genes 1 Rotation |==|  0.49009 0.53327 0.56936 0.99395
USER: genes 2 Torsion [C]-CA--N-[C] |==|  0.77610
USER: genes 3 Torsion [N]-C--CA-[N] |==|  0.69418
USER: genes 4 Torsion [N]-C--CA-[N] |==|  0.47778
USER: genes 5 Torsion [C]-CA--CB-[CG] |==|  0.84459
USER: genes 6 Torsion [CA]-CB--CG-[OD1] |==|  0.27415
USER: genes 7 Torsion [C]-CA--N-[C] |==|  0.80319
USER: genes 8 Torsion [N]-C--CA-[N] |==|  0.56451
USER: genes 9 Torsion [C]-CA--CB-[OG] |==|  0.86190
USER: genes 10 Torsion [CA]-CB--OG-[HG] |==|  0.20391
USER: genes 11 Torsion [N]-CA--C-[N] |==|  0.42269
USER: genes 12 Torsion [C]-N--CA-[C] |==|  0.66088
USER: genes 13 Torsion [N]-CA--C-[O] |==|  0.99451
USER: genes 14 Torsion [N]-CA--CB-[CG] |==|  0.28338
USER: genes 15 Torsion [CA]-CB--CG-[CD] |==|  0.39622
USER: genes 16 Torsion [CB]-CG--CD-[CE] |==|  0.56861
USER: genes 17 Torsion [CG]-CD--CE-[NZ] |==|  0.63858
USER: genes 18 Torsion [CD]-CE--NZ-[HZ2] |==|  0.29723
USER: genes 19 Torsion [N]-CA--CB-[CG] |==|  0.84289
USER: genes 20 Torsion [CA]-CB--CG-[CD2] |==|  0.70904
ROOT
ATOM      1  CA  TRP P 344      24.588   8.050 -15.148  1.00 32.15 LIG 0.18  C 
ENDROOT
BRANCH 1 2
ATOM      2  N   TRP P 344      25.195   9.330 -15.456  1.00 31.29 LIG-0.35  N 
ATOM      3 H    TRP P 344      24.690   9.876 -15.888  1.00 31.29 LIG 0.16  HD
ATOM      4  C   PRO P 343      26.441   9.594 -15.081  1.00 32.37 LIG 0.24  C 
ATOM      5 O    PRO P 343      27.161   8.769 -14.516  1.00 31.41 LIG-0.27  OA
BRANCH 4 6
ATOM      6  CA  PRO P 343      26.963  10.989 -15.398  1.00 33.03 LIG 0.18  C 
ATOM      7  N   PRO P 343      27.992  11.002 -16.442  1.00 34.38 LIG-0.34  N 
ATOM      8  C   ASP P 342      29.168  10.376 -16.292  1.00 36.67 LIG 0.24  C 
ATOM      9  CD  PRO P 343      27.443  11.533 -17.702  1.00 33.21 LIG 0.13  C 
ATOM     10 O    ASP P 342      29.444   9.740 -15.275  1.00 37.60 LIG-0.27  OA
ATOM     11  CG  PRO P 343      25.946  11.500 -17.446  1.00 33.09 LIG 0.02  C 
ATOM     12  CB  PRO P 343      25.878  11.869 -15.990  1.00 32.10 LIG 0.04  C 
BRANCH 8 13
ATOM     13  CA  ASP P 342      30.160  10.469 -17.449  1.00 38.79 LIG 0.19  C 
BRANCH 13 14
ATOM     14  CB  ASP P 342      29.626   9.699 -18.659  1.00 38.78 LIG 0.15  C 
BRANCH 14 15
ATOM     15  CG  ASP P 342      29.314   8.254 -18.333  1.00 39.37 LIG 0.17  C 
ATOM     16 OD2  ASP P 342      30.251   7.429 -18.312  1.00 39.72 LIG-0.65  OA
ATOM     17 OD1  ASP P 342      28.130   7.940 -18.094  1.00 40.57 LIG-0.65  OA
ENDBRANCH 14 15
ENDBRANCH 13 14
BRANCH 13 18
ATOM     18  N   ASP P 342      31.416   9.892 -16.999  1.00 40.71 LIG-0.34  N 
ATOM     19 H    ASP P 342      31.611   9.135 -17.359  1.00 40.71 LIG 0.16  HD
ATOM     20  C   SER P 341      32.178  10.508 -16.105  1.00 42.75 LIG 0.26  C 
ATOM     21 O    SER P 341      31.887  11.605 -15.624  1.00 44.14 LIG-0.27  OA
BRANCH 20 22
ATOM     22  CA  SER P 341      33.469   9.790 -15.702  1.00 43.56 LIG 0.42  C 
ATOM     23  N   SER P 341      33.947  10.240 -14.357  1.00 43.48 LIG 0.62  N 
BRANCH 22 24
ATOM     24  CB  SER P 341      33.231   8.276 -15.697  1.00 43.44 LIG 0.21  C 
BRANCH 24 25
ATOM     25 OG   SER P 341      32.061   7.951 -14.961  1.00 45.13 LIG-0.40  OA
ATOM     26 HG   SER P 341      31.382   8.169 -15.405  1.00 45.13 LIG 0.21  HD
ENDBRANCH 24 25
ENDBRANCH 22 24
ENDBRANCH 20 22
ENDBRANCH 13 18
ENDBRANCH 8 13
ENDBRANCH 4 6
ENDBRANCH 1 2
BRANCH 1 27
ATOM     27  C   TRP P 344      24.947   6.898 -16.063  1.00 32.97 LIG 0.24  C 
ATOM     28 O    TRP P 344      25.259   7.117 -17.229  1.00 31.81 LIG-0.27  OA
ATOM     29  N   LYS P 345      24.910   5.675 -15.549  1.00 34.20 LIG-0.34  N 
ATOM     30 H    LYS P 345      24.715   5.489 -14.732  1.00 34.20 LIG 0.16  HD
BRANCH 29 31
ATOM     31  CA  LYS P 345      25.214   4.527 -16.395  1.00 35.76 LIG 0.18  C 
BRANCH 31 32
ATOM     32  C   LYS P 345      24.070   3.520 -16.448  1.00 35.89 LIG 0.20  C 
ATOM     33 O    LYS P 345      23.059   3.768 -15.756  1.00 35.39 LIG-0.65  OA
ATOM     34 OXT  LYS P 345      24.192   2.520 -17.195  1.00 36.91 LIG-0.65  OA
ENDBRANCH 31 32
BRANCH 31 35
ATOM     35  CB  LYS P 345      26.502   3.842 -15.931  1.00 34.89 LIG 0.04  C 
BRANCH 35 36
ATOM     36  CG  LYS P 345      26.255   2.562 -15.125  1.00 33.69 LIG 0.00  C 
BRANCH 36 37
ATOM     37  CD  LYS P 345      27.275   1.471 -15.417  1.00 29.41 LIG 0.03  C 
BRANCH 37 38
ATOM     38  CE  LYS P 345      26.709   0.084 -15.117  1.00 29.69 LIG 0.23  C 
BRANCH 38 39
ATOM     39  NZ  LYS P 345      27.592  -0.770 -14.267  1.00 27.83 LIG-0.08  N 
ATOM     40 HZ3  LYS P 345      27.654  -1.582 -14.627  1.00 27.83 LIG 0.27  HD
ATOM     41 HZ1  LYS P 345      28.402  -0.405 -14.219  1.00 27.83 LIG 0.27  HD
ATOM     42 HZ2  LYS P 345      27.247  -0.833 -13.450  1.00 27.83 LIG 0.27  HD
ENDBRANCH 38 39
ENDBRANCH 37 38
ENDBRANCH 36 37
ENDBRANCH 35 36
ENDBRANCH 31 35
ENDBRANCH 29 31
ENDBRANCH 1 27
BRANCH 1 43
ATOM     43  CB  TRP P 344      23.067   8.196 -15.056  1.00 30.74 LIG 0.07  C 
BRANCH 43 44
ATOM     44  CG  TRP P 344      22.658   9.224 -14.048  1.00 29.17 LIG-0.03  A 
ATOM     45  CD2 TRP P 344      22.115   8.975 -12.744  1.00 26.66 LIG-0.00  A 
ATOM     46  CE3 TRP P 344      21.784   7.814 -12.035  1.00 26.53 LIG 0.01  A 
ATOM     47  CE2 TRP P 344      21.906  10.230 -12.134  1.00 26.53 LIG 0.04  A 
ATOM     48  CZ3 TRP P 344      21.260   7.940 -10.746  1.00 24.28 LIG 0.00  A 
ATOM     49  CH2 TRP P 344      21.064   9.207 -10.171  1.00 25.87 LIG 0.00  A 
ATOM     50  CZ2 TRP P 344      21.380  10.360 -10.848  1.00 24.89 LIG 0.03  A 
ATOM     51  NE1 TRP P 344      22.306  11.190 -13.025  1.00 27.39 LIG-0.36  N 
ATOM     52  CD1 TRP P 344      22.753  10.578 -14.172  1.00 29.08 LIG 0.10  A 
ATOM     53 HE1  TRP P 344      22.281  12.039 -12.889  1.00 27.39 LIG 0.17  HD
ENDBRANCH 43 44
ENDBRANCH 1 43
TORSDOF 19
ENDMDL
MODEL 10
USER: ADFR SOLUTION from run 79
USER: SCORE 15.622159 LL:  -3.156 LR: -13.084 RR:   0.000 FEB:  -7.417
USER: RMSD 4.121128
USER: SEED 78
USER: STATUS no improvement in best in 20 clusters for 5 generations
USER: GENES 21
USER: genes 0 Translation |==|  0.34993 0.42923 0.53075
USER: genes 1 Rotation |==|  0.37222 0.64294 0.53049 0.96077
USER: genes 2 Torsion [C]-CA--N-[C] |==|  0.78889
USER: genes 3 Torsion [N]-C--CA-[N] |==|  0.28884
USER: genes 4 Torsion [N]-C--CA-[N] |==|  0.42899
USER: genes 5 Torsion [C]-CA--CB-[CG] |==|  0.01865
USER: genes 6 Torsion [CA]-CB--CG-[OD1] |==|  0.78743
USER: genes 7 Torsion [C]-CA--N-[C] |==|  0.79846
USER: genes 8 Torsion [N]-C--CA-[N] |==|  0.45750
USER: genes 9 Torsion [C]-CA--CB-[OG] |==|  0.45054
USER: genes 10 Torsion [CA]-CB--OG-[HG] |==|  0.63424
USER: genes 11 Torsion [N]-CA--C-[N] |==|  0.12309
USER: genes 12 Torsion [C]-N--CA-[C] |==|  0.69459
USER: genes 13 Torsion [N]-CA--C-[O] |==|  0.50124
USER: genes 14 Torsion [N]-CA--CB-[CG] |==|  0.73430
USER: genes 15 Torsion [CA]-CB--CG-[CD] |==|  0.95830
USER: genes 16 Torsion [CB]-CG--CD-[CE] |==|  0.64447
USER: genes 17 Torsion [CG]-CD--CE-[NZ] |==|  0.44751
USER: genes 18 Torsion [CD]-CE--NZ-[HZ2] |==|  0.70767
USER: genes 19 Torsion [N]-CA--CB-[CG] |==|  0.79109
USER: genes 20 Torsion [CA]-CB--CG-[CD2] |==|  0.70663
ROOT
ATOM      1  CA  TRP P 344      23.280   6.791 -15.859  1.00 32.15 LIG 0.18  C 
ENDROOT
BRANCH 1 2
ATOM      2  N   TRP P 344      23.730   7.601 -16.975  1.00 31.29 LIG-0.35  N 
ATOM      3 H    TRP P 344      23.105   8.008 -17.403  1.00 31.29 LIG 0.16  HD
ATOM      4  C   PRO P 343      25.020   7.677 -17.277  1.00 32.37 LIG 0.24  C 
ATOM      5 O    PRO P 343      25.887   7.034 -16.683  1.00 31.41 LIG-0.27  OA
BRANCH 4 6
ATOM      6  CA  PRO P 343      25.394   8.603 -18.426  1.00 33.03 LIG 0.18  C 
ATOM      7  N   PRO P 343      25.988   9.869 -17.985  1.00 34.38 LIG-0.34  N 
ATOM      8  C   ASP P 342      25.316  10.748 -17.228  1.00 36.67 LIG 0.24  C 
ATOM      9  CD  PRO P 343      27.438   9.879 -18.248  1.00 33.21 LIG 0.13  C 
ATOM     10 O    ASP P 342      24.165  10.534 -16.847  1.00 37.60 LIG-0.27  OA
ATOM     11  CG  PRO P 343      27.727   8.416 -18.542  1.00 33.09 LIG 0.02  C 
ATOM     12  CB  PRO P 343      26.488   8.005 -19.291  1.00 32.10 LIG 0.04  C 
BRANCH 8 13
ATOM     13  CA  ASP P 342      26.042  12.033 -16.839  1.00 38.79 LIG 0.19  C 
BRANCH 13 14
ATOM     14  CB  ASP P 342      26.880  11.800 -15.581  1.00 38.78 LIG 0.15  C 
BRANCH 14 15
ATOM     15  CG  ASP P 342      26.898  10.346 -15.158  1.00 39.37 LIG 0.17  C 
ATOM     16 OD2  ASP P 342      27.919   9.668 -15.393  1.00 39.72 LIG-0.65  OA
ATOM     17 OD1  ASP P 342      25.893   9.881 -14.585  1.00 40.57 LIG-0.65  OA
ENDBRANCH 14 15
ENDBRANCH 13 14
BRANCH 13 18
ATOM     18  N   ASP P 342      25.034  13.051 -16.591  1.00 40.71 LIG-0.34  N 
ATOM     19 H    ASP P 342      24.928  13.254 -15.762  1.00 40.71 LIG 0.16  HD
ATOM     20  C   SER P 341      24.350  13.602 -17.586  1.00 42.75 LIG 0.26  C 
ATOM     21 O    SER P 341      24.540  13.310 -18.768  1.00 44.14 LIG-0.27  OA
BRANCH 20 22
ATOM     22  CA  SER P 341      23.306  14.651 -17.192  1.00 43.56 LIG 0.42  C 
ATOM     23  N   SER P 341      22.868  15.456 -18.376  1.00 43.48 LIG 0.62  N 
BRANCH 22 24
ATOM     24  CB  SER P 341      22.098  13.955 -16.554  1.00 43.44 LIG 0.21  C 
BRANCH 24 25
ATOM     25 OG   SER P 341      21.311  14.881 -15.820  1.00 45.13 LIG-0.40  OA
ATOM     26 HG   SER P 341      21.143  14.565 -15.060  1.00 45.13 LIG 0.21  HD
ENDBRANCH 24 25
ENDBRANCH 22 24
ENDBRANCH 20 22
ENDBRANCH 13 18
ENDBRANCH 8 13
ENDBRANCH 4 6
ENDBRANCH 1 2
BRANCH 1 27
ATOM     27  C   TRP P 344      23.256   5.294 -16.083  1.00 32.97 LIG 0.24  C 
ATOM     28 O    TRP P 344      22.289   4.635 -15.713  1.00 31.81 LIG-0.27  OA
ATOM     29  N   LYS P 345      24.306   4.749 -16.685  1.00 34.20 LIG-0.34  N 
ATOM     30 H    LYS P 345      24.990   5.184 -16.974  1.00 34.20 LIG 0.16  HD
BRANCH 29 31
ATOM     31  CA  LYS P 345      24.349   3.306 -16.894  1.00 35.76 LIG 0.18  C 
BRANCH 31 32
ATOM     32  C   LYS P 345      25.389   2.619 -16.017  1.00 35.89 LIG 0.20  C 
ATOM     33 O    LYS P 345      25.506   1.380 -16.133  1.00 35.39 LIG-0.65  OA
ATOM     34 OXT  LYS P 345      26.083   3.329 -15.250  1.00 36.91 LIG-0.65  OA
ENDBRANCH 31 32
BRANCH 31 35
ATOM     35  CB  LYS P 345      24.603   2.983 -18.369  1.00 34.89 LIG 0.04  C 
BRANCH 35 36
ATOM     36  CG  LYS P 345      23.320   2.712 -19.162  1.00 33.69 LIG 0.00  C 
BRANCH 36 37
ATOM     37  CD  LYS P 345      22.113   2.461 -18.270  1.00 29.41 LIG 0.03  C 
BRANCH 37 38
ATOM     38  CE  LYS P 345      21.399   1.166 -18.649  1.00 29.69 LIG 0.23  C 
BRANCH 38 39
ATOM     39  NZ  LYS P 345      20.504   0.621 -17.584  1.00 27.83 LIG-0.08  N 
ATOM     40 HZ3  LYS P 345      20.359   1.248 -16.969  1.00 27.83 LIG 0.27  HD
ATOM     41 HZ1  LYS P 345      19.729   0.374 -17.945  1.00 27.83 LIG 0.27  HD
ATOM     42 HZ2  LYS P 345      20.890  -0.084 -17.204  1.00 27.83 LIG 0.27  HD
ENDBRANCH 38 39
ENDBRANCH 37 38
ENDBRANCH 36 37
ENDBRANCH 35 36
ENDBRANCH 31 35
ENDBRANCH 29 31
ENDBRANCH 1 27
BRANCH 1 43
ATOM     43  CB  TRP P 344      21.911   7.275 -15.375  1.00 30.74 LIG 0.07  C 
BRANCH 43 44
ATOM     44  CG  TRP P 344      22.005   8.547 -14.592  1.00 29.17 LIG-0.03  A 
ATOM     45  CD2 TRP P 344      21.877   8.688 -13.170  1.00 26.66 LIG-0.00  A 
ATOM     46  CE3 TRP P 344      21.620   7.793 -12.124  1.00 26.53 LIG 0.01  A 
ATOM     47  CE2 TRP P 344      22.066  10.053 -12.869  1.00 26.53 LIG 0.04  A 
ATOM     48  CZ3 TRP P 344      21.559   8.285 -10.818  1.00 24.28 LIG 0.00  A 
ATOM     49  CH2 TRP P 344      21.751   9.652 -10.556  1.00 25.87 LIG 0.00  A 
ATOM     50  CZ2 TRP P 344      22.005  10.549 -11.566  1.00 24.89 LIG 0.03  A 
ATOM     51  NE1 TRP P 344      22.299  10.705 -14.051  1.00 27.39 LIG-0.36  N 
ATOM     52  CD1 TRP P 344      22.259   9.793 -15.079  1.00 29.08 LIG 0.10  A 
ATOM     53 HE1  TRP P 344      22.447  11.547 -14.136  1.00 27.39 LIG 0.17  HD
ENDBRANCH 43 44
ENDBRANCH 1 43
TORSDOF 19
ENDMDL
MODEL 11
USER: ADFR SOLUTION from run 155
USER: SCORE 16.873996 LL:  -4.860 LR: -13.045 RR:   0.000 FEB:  -7.377
USER: RMSD 8.759916
USER: SEED 154
USER: STATUS no improvement in best in 6 clusters for 5 generations
USER: GENES 21
USER: genes 0 Translation |==|  0.34869 0.49475 0.51544
USER: genes 1 Rotation |==|  0.16435 0.57503 0.86239 0.51954
USER: genes 2 Torsion [C]-CA--N-[C] |==|  0.15921
USER: genes 3 Torsion [N]-C--CA-[N] |==|  0.90083
USER: genes 4 Torsion [N]-C--CA-[N] |==|  0.24514
USER: genes 5 Torsion [C]-CA--CB-[CG] |==|  0.28925
USER: genes 6 Torsion [CA]-CB--CG-[OD1] |==|  0.72431
USER: genes 7 Torsion [C]-CA--N-[C] |==|  0.68811
USER: genes 8 Torsion [N]-C--CA-[N] |==|  0.50200
USER: genes 9 Torsion [C]-CA--CB-[OG] |==|  0.22017
USER: genes 10 Torsion [CA]-CB--OG-[HG] |==|  0.10033
USER: genes 11 Torsion [N]-CA--C-[N] |==|  0.62277
USER: genes 12 Torsion [C]-N--CA-[C] |==|  0.71332
USER: genes 13 Torsion [N]-CA--C-[O] |==|  0.33117
USER: genes 14 Torsion [N]-CA--CB-[CG] |==|  0.65485
USER: genes 15 Torsion [CA]-CB--CG-[CD] |==|  0.89013
USER: genes 16 Torsion [CB]-CG--CD-[CE] |==|  0.24574
USER: genes 17 Torsion [CG]-CD--CE-[NZ] |==|  0.70688
USER: genes 18 Torsion [CD]-CE--NZ-[HZ2] |==|  0.97908
USER: genes 19 Torsion [N]-CA--CB-[CG] |==|  0.60129
USER: genes 20 Torsion [CA]-CB--CG-[CD2] |==|  0.42219
ROOT
ATOM      1  CA  TRP P 344      23.259   8.413 -16.158  1.00 32.15 LIG 0.18  C 
ENDROOT
BRANCH 1 2
ATOM      2  N   TRP P 344      23.040   7.214 -16.943  1.00 31.29 LIG-0.35  N 
ATOM      3 H    TRP P 344      22.266   7.160 -17.313  1.00 31.29 LIG 0.16  HD
ATOM      4  C   PRO P 343      23.993   6.296 -17.054  1.00 32.37 LIG 0.24  C 
ATOM      5 O    PRO P 343      25.071   6.373 -16.463  1.00 31.41 LIG-0.27  OA
BRANCH 4 6
ATOM      6  CA  PRO P 343      23.685   5.105 -17.952  1.00 33.03 LIG 0.18  C 
ATOM      7  N   PRO P 343      22.282   4.684 -17.899  1.00 34.38 LIG-0.34  N 
ATOM      8  C   ASP P 342      21.713   4.237 -16.770  1.00 36.67 LIG 0.24  C 
ATOM      9  CD  PRO P 343      21.577   5.078 -19.131  1.00 33.21 LIG 0.13  C 
ATOM     10 O    ASP P 342      22.333   4.172 -15.709  1.00 37.60 LIG-0.27  OA
ATOM     11  CG  PRO P 343      22.545   6.065 -19.760  1.00 33.09 LIG 0.02  C 
ATOM     12  CB  PRO P 343      23.874   5.449 -19.418  1.00 32.10 LIG 0.04  C 
BRANCH 8 13
ATOM     13  CA  ASP P 342      20.246   3.821 -16.846  1.00 38.79 LIG 0.19  C 
BRANCH 13 14
ATOM     14  CB  ASP P 342      19.575   4.020 -15.486  1.00 38.78 LIG 0.15  C 
BRANCH 14 15
ATOM     15  CG  ASP P 342      18.686   5.245 -15.452  1.00 39.37 LIG 0.17  C 
ATOM     16 OD2  ASP P 342      17.535   5.162 -15.929  1.00 39.72 LIG-0.65  OA
ATOM     17 OD1  ASP P 342      19.135   6.293 -14.945  1.00 40.57 LIG-0.65  OA
ENDBRANCH 14 15
ENDBRANCH 13 14
BRANCH 13 18
ATOM     18  N   ASP P 342      20.205   2.419 -17.227  1.00 40.71 LIG-0.34  N 
ATOM     19 H    ASP P 342      20.510   1.877 -16.631  1.00 40.71 LIG 0.16  HD
ATOM     20  C   SER P 341      19.731   2.037 -18.405  1.00 42.75 LIG 0.26  C 
ATOM     21 O    SER P 341      19.277   2.832 -19.230  1.00 44.14 LIG-0.27  OA
BRANCH 20 22
ATOM     22  CA  SER P 341      19.756   0.533 -18.693  1.00 43.56 LIG 0.42  C 
ATOM     23  N   SER P 341      19.213   0.228 -20.054  1.00 43.48 LIG 0.62  N 
BRANCH 22 24
ATOM     24  CB  SER P 341      21.193   0.013 -18.571  1.00 43.44 LIG 0.21  C 
BRANCH 24 25
ATOM     25 OG   SER P 341      21.549  -0.175 -17.210  1.00 45.13 LIG-0.40  OA
ATOM     26 HG   SER P 341      20.881  -0.452 -16.781  1.00 45.13 LIG 0.21  HD
ENDBRANCH 24 25
ENDBRANCH 22 24
ENDBRANCH 20 22
ENDBRANCH 13 18
ENDBRANCH 8 13
ENDBRANCH 4 6
ENDBRANCH 1 2
BRANCH 1 27
ATOM     27  C   TRP P 344      24.442   9.270 -16.556  1.00 32.97 LIG 0.24  C 
ATOM     28 O    TRP P 344      24.652   9.512 -17.740  1.00 31.81 LIG-0.27  OA
ATOM     29  N   LYS P 345      25.216   9.735 -15.582  1.00 34.20 LIG-0.34  N 
ATOM     30 H    LYS P 345      25.086   9.601 -14.742  1.00 34.20 LIG 0.16  HD
BRANCH 29 31
ATOM     31  CA  LYS P 345      26.388  10.537 -15.912  1.00 35.76 LIG 0.18  C 
BRANCH 31 32
ATOM     32  C   LYS P 345      27.688   9.750 -15.794  1.00 35.89 LIG 0.20  C 
ATOM     33 O    LYS P 345      28.377   9.627 -16.830  1.00 35.39 LIG-0.65  OA
ATOM     34 OXT  LYS P 345      28.007   9.293 -14.671  1.00 36.91 LIG-0.65  OA
ENDBRANCH 31 32
BRANCH 31 35
ATOM     35  CB  LYS P 345      26.446  11.792 -15.037  1.00 34.89 LIG 0.04  C 
BRANCH 35 36
ATOM     36  CG  LYS P 345      26.516  13.093 -15.841  1.00 33.69 LIG 0.00  C 
BRANCH 36 37
ATOM     37  CD  LYS P 345      27.412  12.985 -17.068  1.00 29.41 LIG 0.03  C 
BRANCH 37 38
ATOM     38  CE  LYS P 345      26.633  12.490 -18.285  1.00 29.69 LIG 0.23  C 
BRANCH 38 39
ATOM     39  NZ  LYS P 345      26.911  11.070 -18.657  1.00 27.83 LIG-0.08  N 
ATOM     40 HZ3  LYS P 345      26.184  10.577 -18.512  1.00 27.83 LIG 0.27  HD
ATOM     41 HZ1  LYS P 345      27.132  11.027 -19.518  1.00 27.83 LIG 0.27  HD
ATOM     42 HZ2  LYS P 345      27.583  10.759 -18.164  1.00 27.83 LIG 0.27  HD
ENDBRANCH 38 39
ENDBRANCH 37 38
ENDBRANCH 36 37
ENDBRANCH 35 36
ENDBRANCH 31 35
ENDBRANCH 29 31
ENDBRANCH 1 27
BRANCH 1 43
ATOM     43  CB  TRP P 344      23.340   8.062 -14.670  1.00 30.74 LIG 0.07  C 
BRANCH 43 44
ATOM     44  CG  TRP P 344      22.713   9.112 -13.807  1.00 29.17 LIG-0.03  A 
ATOM     45  CD2 TRP P 344      22.110   8.915 -12.521  1.00 26.66 LIG-0.00  A 
ATOM     46  CE3 TRP P 344      21.892   7.793 -11.712  1.00 26.53 LIG 0.01  A 
ATOM     47  CE2 TRP P 344      21.681  10.179 -12.064  1.00 26.53 LIG 0.04  A 
ATOM     48  CZ3 TRP P 344      21.256   7.966 -10.480  1.00 24.28 LIG 0.00  A 
ATOM     49  CH2 TRP P 344      20.840   9.240 -10.059  1.00 25.87 LIG 0.00  A 
ATOM     50  CZ2 TRP P 344      21.043  10.355 -10.836  1.00 24.89 LIG 0.03  A 
ATOM     51  NE1 TRP P 344      22.010  11.096 -13.027  1.00 27.39 LIG-0.36  N 
ATOM     52  CD1 TRP P 344      22.627  10.446 -14.070  1.00 29.08 LIG 0.10  A 
ATOM     53 HE1  TRP P 344      21.856  11.940 -12.986  1.00 27.39 LIG 0.17  HD
ENDBRANCH 43 44
ENDBRANCH 1 43
TORSDOF 19
ENDMDL
MODEL 12
USER: ADFR SOLUTION from run 51
USER: SCORE 15.848646 LL:  -2.981 LR: -13.002 RR:   0.000 FEB:  -7.334
USER: RMSD 6.676878
USER: SEED 50
USER: STATUS no improvement in best in 7 clusters for 5 generations
USER: GENES 21
USER: genes 0 Translation |==|  0.45406 0.51112 0.54394
USER: genes 1 Rotation |==|  0.77425 0.63245 0.60978 0.88104
USER: genes 2 Torsion [C]-CA--N-[C] |==|  0.76728
USER: genes 3 Torsion [N]-C--CA-[N] |==|  0.47700
USER: genes 4 Torsion [N]-C--CA-[N] |==|  0.14210
USER: genes 5 Torsion [C]-CA--CB-[CG] |==|  0.18528
USER: genes 6 Torsion [CA]-CB--CG-[OD1] |==|  0.64427
USER: genes 7 Torsion [C]-CA--N-[C] |==|  0.15553
USER: genes 8 Torsion [N]-C--CA-[N] |==|  0.08181
USER: genes 9 Torsion [C]-CA--CB-[OG] |==|  0.37668
USER: genes 10 Torsion [CA]-CB--OG-[HG] |==|  0.58868
USER: genes 11 Torsion [N]-CA--C-[N] |==|  0.96158
USER: genes 12 Torsion [C]-N--CA-[C] |==|  0.58114
USER: genes 13 Torsion [N]-CA--C-[O] |==|  0.44770
USER: genes 14 Torsion [N]-CA--CB-[CG] |==|  0.06915
USER: genes 15 Torsion [CA]-CB--CG-[CD] |==|  0.18477
USER: genes 16 Torsion [CB]-CG--CD-[CE] |==|  0.28907
USER: genes 17 Torsion [CG]-CD--CE-[NZ] |==|  0.37907
USER: genes 18 Torsion [CD]-CE--NZ-[HZ2] |==|  0.47887
USER: genes 19 Torsion [N]-CA--CB-[CG] |==|  0.10731
USER: genes 20 Torsion [CA]-CB--CG-[CD2] |==|  0.59795
ROOT
ATOM      1  CA  TRP P 344      24.998   8.818 -15.602  1.00 32.15 LIG 0.18  C 
ENDROOT
BRANCH 1 2
ATOM      2  N   TRP P 344      25.590   9.857 -14.783  1.00 31.29 LIG-0.35  N 
ATOM      3 H    TRP P 344      25.045  10.250 -14.245  1.00 31.29 LIG 0.16  HD
ATOM      4  C   PRO P 343      26.881  10.148 -14.889  1.00 32.37 LIG 0.24  C 
ATOM      5 O    PRO P 343      27.624   9.610 -15.711  1.00 31.41 LIG-0.27  OA
BRANCH 4 6
ATOM      6  CA  PRO P 343      27.417  11.211 -13.940  1.00 33.03 LIG 0.18  C 
ATOM      7  N   PRO P 343      28.877  11.343 -13.978  1.00 34.38 LIG-0.34  N 
ATOM      8  C   ASP P 342      29.694  10.337 -13.636  1.00 36.67 LIG 0.24  C 
ATOM      9  CD  PRO P 343      29.266  12.578 -14.682  1.00 33.21 LIG 0.13  C 
ATOM     10 O    ASP P 342      29.264   9.238 -13.285  1.00 37.60 LIG-0.27  OA
ATOM     11  CG  PRO P 343      27.972  12.986 -15.365  1.00 33.09 LIG 0.02  C 
ATOM     12  CB  PRO P 343      26.947  12.599 -14.334  1.00 32.10 LIG 0.04  C 
BRANCH 8 13
ATOM     13  CA  ASP P 342      31.195  10.601 -13.711  1.00 38.79 LIG 0.19  C 
BRANCH 13 14
ATOM     14  CB  ASP P 342      31.964   9.435 -13.087  1.00 38.78 LIG 0.15  C 
BRANCH 14 15
ATOM     15  CG  ASP P 342      31.822   8.155 -13.883  1.00 39.37 LIG 0.17  C 
ATOM     16 OD2  ASP P 342      32.074   8.181 -15.105  1.00 39.72 LIG-0.65  OA
ATOM     17 OD1  ASP P 342      31.463   7.120 -13.287  1.00 40.57 LIG-0.65  OA
ENDBRANCH 14 15
ENDBRANCH 13 14
BRANCH 13 18
ATOM     18  N   ASP P 342      31.463  11.829 -12.980  1.00 40.71 LIG-0.34  N 
ATOM     19 H    ASP P 342      31.868  12.436 -13.437  1.00 40.71 LIG 0.16  HD
ATOM     20  C   SER P 341      31.100  11.971 -11.712  1.00 42.75 LIG 0.26  C 
ATOM     21 O    SER P 341      30.499  11.095 -11.089  1.00 44.14 LIG-0.27  OA
BRANCH 20 22
ATOM     22  CA  SER P 341      31.453  13.306 -11.050  1.00 43.56 LIG 0.42  C 
ATOM     23  N   SER P 341      31.486  14.420 -12.050  1.00 43.48 LIG 0.62  N 
BRANCH 22 24
ATOM     24  CB  SER P 341      30.432  13.617  -9.950  1.00 43.44 LIG 0.21  C 
BRANCH 24 25
ATOM     25 OG   SER P 341      31.080  14.082  -8.775  1.00 45.13 LIG-0.40  OA
ATOM     26 HG   SER P 341      30.641  13.842  -8.099  1.00 45.13 LIG 0.21  HD
ENDBRANCH 24 25
ENDBRANCH 22 24
ENDBRANCH 20 22
ENDBRANCH 13 18
ENDBRANCH 8 13
ENDBRANCH 4 6
ENDBRANCH 1 2
BRANCH 1 27
ATOM     27  C   TRP P 344      24.571   9.224 -16.997  1.00 32.97 LIG 0.24  C 
ATOM     28 O    TRP P 344      24.300   8.364 -17.829  1.00 31.81 LIG-0.27  OA
ATOM     29  N   LYS P 345      24.505  10.523 -17.262  1.00 34.20 LIG-0.34  N 
ATOM     30 H    LYS P 345      24.668  11.151 -16.697  1.00 34.20 LIG 0.16  HD
BRANCH 29 31
ATOM     31  CA  LYS P 345      24.132  10.969 -18.600  1.00 35.76 LIG 0.18  C 
BRANCH 31 32
ATOM     32  C   LYS P 345      24.752  12.313 -18.962  1.00 35.89 LIG 0.20  C 
ATOM     33 O    LYS P 345      24.801  12.611 -20.175  1.00 35.39 LIG-0.65  OA
ATOM     34 OXT  LYS P 345      25.154  13.053 -18.033  1.00 36.91 LIG-0.65  OA
ENDBRANCH 31 32
BRANCH 31 35
ATOM     35  CB  LYS P 345      22.609  11.032 -18.742  1.00 34.89 LIG 0.04  C 
BRANCH 35 36
ATOM     36  CG  LYS P 345      21.880  11.222 -17.408  1.00 33.69 LIG 0.00  C 
BRANCH 36 37
ATOM     37  CD  LYS P 345      22.155  12.576 -16.769  1.00 29.41 LIG 0.03  C 
BRANCH 37 38
ATOM     38  CE  LYS P 345      20.968  13.523 -16.937  1.00 29.69 LIG 0.23  C 
BRANCH 38 39
ATOM     39  NZ  LYS P 345      20.621  14.299 -15.709  1.00 27.83 LIG-0.08  N 
ATOM     40 HZ3  LYS P 345      20.308  13.746 -15.086  1.00 27.83 LIG 0.27  HD
ATOM     41 HZ1  LYS P 345      21.347  14.711 -15.403  1.00 27.83 LIG 0.27  HD
ATOM     42 HZ2  LYS P 345      19.999  14.905 -15.906  1.00 27.83 LIG 0.27  HD
ENDBRANCH 38 39
ENDBRANCH 37 38
ENDBRANCH 36 37
ENDBRANCH 35 36
ENDBRANCH 31 35
ENDBRANCH 29 31
ENDBRANCH 1 27
BRANCH 1 43
ATOM     43  CB  TRP P 344      23.829   8.164 -14.862  1.00 30.74 LIG 0.07  C 
BRANCH 43 44
ATOM     44  CG  TRP P 344      23.022   9.159 -14.088  1.00 29.17 LIG-0.03  A 
ATOM     45  CD2 TRP P 344      22.381   8.944 -12.824  1.00 26.66 LIG-0.00  A 
ATOM     46  CE3 TRP P 344      22.270   7.842 -11.966  1.00 26.53 LIG 0.01  A 
ATOM     47  CE2 TRP P 344      21.763  10.158 -12.457  1.00 26.53 LIG 0.04  A 
ATOM     48  CZ3 TRP P 344      21.550   7.985 -10.778  1.00 24.28 LIG 0.00  A 
ATOM     49  CH2 TRP P 344      20.946   9.210 -10.447  1.00 25.87 LIG 0.00  A 
ATOM     50  CZ2 TRP P 344      21.042  10.304 -11.272  1.00 24.89 LIG 0.03  A 
ATOM     51  NE1 TRP P 344      22.020  11.064 -13.452  1.00 27.39 LIG-0.36  N 
ATOM     52  CD1 TRP P 344      22.774  10.456 -14.427  1.00 29.08 LIG 0.10  A 
ATOM     53 HE1  TRP P 344      21.753  11.881 -13.464  1.00 27.39 LIG 0.17  HD
ENDBRANCH 43 44
ENDBRANCH 1 43
TORSDOF 19
ENDMDL
MODEL 13
USER: ADFR SOLUTION from run 61
USER: SCORE 15.109589 LL:  -3.013 LR: -12.812 RR:   0.000 FEB:  -7.145
USER: RMSD 8.919815
USER: SEED 60
USER: STATUS no improvement in best in 4 clusters for 5 generations
USER: GENES 21
USER: genes 0 Translation |==|  0.32424 0.48782 0.51706
USER: genes 1 Rotation |==|  0.21341 0.63237 0.88700 0.52397
USER: genes 2 Torsion [C]-CA--N-[C] |==|  0.73125
USER: genes 3 Torsion [N]-C--CA-[N] |==|  0.99324
USER: genes 4 Torsion [N]-C--CA-[N] |==|  0.26735
USER: genes 5 Torsion [C]-CA--CB-[CG] |==|  0.49132
USER: genes 6 Torsion [CA]-CB--CG-[OD1] |==|  0.13800
USER: genes 7 Torsion [C]-CA--N-[C] |==|  0.75017
USER: genes 8 Torsion [N]-C--CA-[N] |==|  0.05299
USER: genes 9 Torsion [C]-CA--CB-[OG] |==|  0.96716
USER: genes 10 Torsion [CA]-CB--OG-[HG] |==|  0.25254
USER: genes 11 Torsion [N]-CA--C-[N] |==|  0.54430
USER: genes 12 Torsion [C]-N--CA-[C] |==|  0.71985
USER: genes 13 Torsion [N]-CA--C-[O] |==|  0.89128
USER: genes 14 Torsion [N]-CA--CB-[CG] |==|  0.99764
USER: genes 15 Torsion [CA]-CB--CG-[CD] |==|  0.80456
USER: genes 16 Torsion [CB]-CG--CD-[CE] |==|  0.60961
USER: genes 17 Torsion [CG]-CD--CE-[NZ] |==|  0.70975
USER: genes 18 Torsion [CD]-CE--NZ-[HZ2] |==|  0.80933
USER: genes 19 Torsion [N]-CA--CB-[CG] |==|  0.64880
USER: genes 20 Torsion [CA]-CB--CG-[CD2] |==|  0.37953
ROOT
ATOM      1  CA  TRP P 344      22.856   8.242 -16.126  1.00 32.15 LIG 0.18  C 
ENDROOT
BRANCH 1 2
ATOM      2  N   TRP P 344      22.259   7.034 -16.662  1.00 31.29 LIG-0.35  N 
ATOM      3 H    TRP P 344      22.644   6.303 -16.425  1.00 31.29 LIG 0.16  HD
ATOM      4  C   PRO P 343      21.197   7.101 -17.456  1.00 32.37 LIG 0.24  C 
ATOM      5 O    PRO P 343      20.703   8.167 -17.828  1.00 31.41 LIG-0.27  OA
BRANCH 4 6
ATOM      6  CA  PRO P 343      20.608   5.774 -17.915  1.00 33.03 LIG 0.18  C 
ATOM      7  N   PRO P 343      21.360   4.609 -17.439  1.00 34.38 LIG-0.34  N 
ATOM      8  C   ASP P 342      22.637   4.393 -17.784  1.00 36.67 LIG 0.24  C 
ATOM      9  CD  PRO P 343      20.622   3.921 -16.364  1.00 33.21 LIG 0.13  C 
ATOM     10 O    ASP P 342      23.257   5.171 -18.509  1.00 37.60 LIG-0.27  OA
ATOM     11  CG  PRO P 343      19.564   4.945 -15.987  1.00 33.09 LIG 0.02  C 
ATOM     12  CB  PRO P 343      19.228   5.543 -17.327  1.00 32.10 LIG 0.04  C 
BRANCH 8 13
ATOM     13  CA  ASP P 342      23.308   3.140 -17.229  1.00 38.79 LIG 0.19  C 
BRANCH 13 14
ATOM     14  CB  ASP P 342      24.775   3.430 -16.908  1.00 38.78 LIG 0.15  C 
BRANCH 14 15
ATOM     15  CG  ASP P 342      25.477   2.244 -16.281  1.00 39.37 LIG 0.17  C 
ATOM     16 OD2  ASP P 342      26.130   2.421 -15.233  1.00 39.72 LIG-0.65  OA
ATOM     17 OD1  ASP P 342      25.372   1.130 -16.834  1.00 40.57 LIG-0.65  OA
ENDBRANCH 14 15
ENDBRANCH 13 14
BRANCH 13 18
ATOM     18  N   ASP P 342      23.211   2.102 -18.242  1.00 40.71 LIG-0.34  N 
ATOM     19 H    ASP P 342      23.870   2.078 -18.794  1.00 40.71 LIG 0.16  HD
ATOM     20  C   SER P 341      22.174   1.275 -18.286  1.00 42.75 LIG 0.26  C 
ATOM     21 O    SER P 341      21.254   1.315 -17.467  1.00 44.14 LIG-0.27  OA
BRANCH 20 22
ATOM     22  CA  SER P 341      22.182   0.235 -19.411  1.00 43.56 LIG 0.42  C 
ATOM     23  N   SER P 341      23.557   0.047 -19.971  1.00 43.48 LIG 0.62  N 
BRANCH 22 24
ATOM     24  CB  SER P 341      21.644  -1.098 -18.878  1.00 43.44 LIG 0.21  C 
BRANCH 24 25
ATOM     25 OG   SER P 341      21.551  -1.076 -17.461  1.00 45.13 LIG-0.40  OA
ATOM     26 HG   SER P 341      20.788  -0.806 -17.234  1.00 45.13 LIG 0.21  HD
ENDBRANCH 24 25
ENDBRANCH 22 24
ENDBRANCH 20 22
ENDBRANCH 13 18
ENDBRANCH 8 13
ENDBRANCH 4 6
ENDBRANCH 1 2
BRANCH 1 27
ATOM     27  C   TRP P 344      24.051   8.790 -16.877  1.00 32.97 LIG 0.24  C 
ATOM     28 O    TRP P 344      24.284   8.409 -18.019  1.00 31.81 LIG-0.27  OA
ATOM     29  N   LYS P 345      24.809   9.682 -16.251  1.00 34.20 LIG-0.34  N 
ATOM     30 H    LYS P 345      24.662   9.986 -15.459  1.00 34.20 LIG 0.16  HD
BRANCH 29 31
ATOM     31  CA  LYS P 345      25.991  10.218 -16.915  1.00 35.76 LIG 0.18  C 
BRANCH 31 32
ATOM     32  C   LYS P 345      27.280   9.560 -16.436  1.00 35.89 LIG 0.20  C 
ATOM     33 O    LYS P 345      27.370   9.302 -15.216  1.00 35.39 LIG-0.65  OA
ATOM     34 OXT  LYS P 345      28.163   9.292 -17.285  1.00 36.91 LIG-0.65  OA
ENDBRANCH 31 32
BRANCH 31 35
ATOM     35  CB  LYS P 345      26.071  11.736 -16.733  1.00 34.89 LIG 0.04  C 
BRANCH 35 36
ATOM     36  CG  LYS P 345      24.901  12.315 -15.930  1.00 33.69 LIG 0.00  C 
BRANCH 36 37
ATOM     37  CD  LYS P 345      23.583  12.278 -16.691  1.00 29.41 LIG 0.03  C 
BRANCH 37 38
ATOM     38  CE  LYS P 345      22.766  13.546 -16.453  1.00 29.69 LIG 0.23  C 
BRANCH 38 39
ATOM     39  NZ  LYS P 345      21.609  13.367 -15.524  1.00 27.83 LIG-0.08  N 
ATOM     40 HZ3  LYS P 345      21.888  12.979 -14.774  1.00 27.83 LIG 0.27  HD
ATOM     41 HZ1  LYS P 345      21.256  14.162 -15.334  1.00 27.83 LIG 0.27  HD
ATOM     42 HZ2  LYS P 345      20.993  12.855 -15.912  1.00 27.83 LIG 0.27  HD
ENDBRANCH 38 39
ENDBRANCH 37 38
ENDBRANCH 36 37
ENDBRANCH 35 36
ENDBRANCH 31 35
ENDBRANCH 29 31
ENDBRANCH 1 27
BRANCH 1 43
ATOM     43  CB  TRP P 344      23.205   8.047 -14.649  1.00 30.74 LIG 0.07  C 
BRANCH 43 44
ATOM     44  CG  TRP P 344      22.615   9.116 -13.783  1.00 29.17 LIG-0.03  A 
ATOM     45  CD2 TRP P 344      21.967   8.931 -12.517  1.00 26.66 LIG-0.00  A 
ATOM     46  CE3 TRP P 344      21.664   7.810 -11.735  1.00 26.53 LIG 0.01  A 
ATOM     47  CE2 TRP P 344      21.597  10.209 -12.048  1.00 26.53 LIG 0.04  A 
ATOM     48  CZ3 TRP P 344      21.005   7.997 -10.518  1.00 24.28 LIG 0.00  A 
ATOM     49  CH2 TRP P 344      20.650   9.285 -10.084  1.00 25.87 LIG 0.00  A 
ATOM     50  CZ2 TRP P 344      20.938  10.400 -10.834  1.00 24.89 LIG 0.03  A 
ATOM     51  NE1 TRP P 344      22.004  11.123 -12.985  1.00 27.39 LIG-0.36  N 
ATOM     52  CD1 TRP P 344      22.612  10.457 -14.023  1.00 29.08 LIG 0.10  A 
ATOM     53 HE1  TRP P 344      21.897  11.974 -12.932  1.00 27.39 LIG 0.17  HD
ENDBRANCH 43 44
ENDBRANCH 1 43
TORSDOF 19
ENDMDL
MODEL 14
USER: ADFR SOLUTION from run 14
USER: SCORE 15.959445 LL:  -3.735 LR: -12.747 RR:   0.000 FEB:  -7.079
USER: RMSD 6.778037
USER: SEED 8451
USER: STATUS no improvement in best in 11 clusters for 5 generations
USER: GENES 21
USER: genes 0 Translation |==|  0.31637 0.48023 0.54095
USER: genes 1 Rotation |==|  0.45277 0.55774 0.27958 0.94255
USER: genes 2 Torsion [C]-CA--N-[C] |==|  0.57936
USER: genes 3 Torsion [N]-C--CA-[N] |==|  0.90053
USER: genes 4 Torsion [N]-C--CA-[N] |==|  0.34444
USER: genes 5 Torsion [C]-CA--CB-[CG] |==|  0.83807
USER: genes 6 Torsion [CA]-CB--CG-[OD1] |==|  0.78088
USER: genes 7 Torsion [C]-CA--N-[C] |==|  0.82537
USER: genes 8 Torsion [N]-C--CA-[N] |==|  0.10841
USER: genes 9 Torsion [C]-CA--CB-[OG] |==|  0.26527
USER: genes 10 Torsion [CA]-CB--OG-[HG] |==|  0.44761
USER: genes 11 Torsion [N]-CA--C-[N] |==|  0.28407
USER: genes 12 Torsion [C]-N--CA-[C] |==|  0.72387
USER: genes 13 Torsion [N]-CA--C-[O] |==|  0.00752
USER: genes 14 Torsion [N]-CA--CB-[CG] |==|  0.57737
USER: genes 15 Torsion [CA]-CB--CG-[CD] |==|  0.23123
USER: genes 16 Torsion [CB]-CG--CD-[CE] |==|  0.29491
USER: genes 17 Torsion [CG]-CD--CE-[NZ] |==|  0.07435
USER: genes 18 Torsion [CD]-CE--NZ-[HZ2] |==|  0.83860
USER: genes 19 Torsion [N]-CA--CB-[CG] |==|  0.69492
USER: genes 20 Torsion [CA]-CB--CG-[CD2] |==|  0.91715
ROOT
ATOM      1  CA  TRP P 344      22.726   8.054 -15.661  1.00 32.15 LIG 0.18  C 
ENDROOT
BRANCH 1 2
ATOM      2  N   TRP P 344      24.058   7.901 -16.213  1.00 31.29 LIG-0.35  N 
ATOM      3 H    TRP P 344      24.083   7.638 -17.032  1.00 31.29 LIG 0.16  HD
ATOM      4  C   PRO P 343      25.130   8.158 -15.473  1.00 32.37 LIG 0.24  C 
ATOM      5 O    PRO P 343      25.064   8.475 -14.284  1.00 31.41 LIG-0.27  OA
BRANCH 4 6
ATOM      6  CA  PRO P 343      26.479   8.028 -16.166  1.00 33.03 LIG 0.18  C 
ATOM      7  N   PRO P 343      26.527   6.937 -17.145  1.00 34.38 LIG-0.34  N 
ATOM      8  C   ASP P 342      26.355   5.655 -16.795  1.00 36.67 LIG 0.24  C 
ATOM      9  CD  PRO P 343      26.507   7.474 -18.518  1.00 33.21 LIG 0.13  C 
ATOM     10 O    ASP P 342      26.131   5.321 -15.631  1.00 37.60 LIG-0.27  OA
ATOM     11  CG  PRO P 343      26.086   8.917 -18.298  1.00 33.09 LIG 0.02  C 
ATOM     12  CB  PRO P 343      26.792   9.248 -17.012  1.00 32.10 LIG 0.04  C 
BRANCH 8 13
ATOM     13  CA  ASP P 342      26.435   4.611 -17.906  1.00 38.79 LIG 0.19  C 
BRANCH 13 14
ATOM     14  CB  ASP P 342      25.083   3.915 -18.068  1.00 38.78 LIG 0.15  C 
BRANCH 14 15
ATOM     15  CG  ASP P 342      24.621   3.243 -16.792  1.00 39.37 LIG 0.17  C 
ATOM     16 OD2  ASP P 342      23.759   3.814 -16.094  1.00 39.72 LIG-0.65  OA
ATOM     17 OD1  ASP P 342      25.116   2.139 -16.489  1.00 40.57 LIG-0.65  OA
ENDBRANCH 14 15
ENDBRANCH 13 14
BRANCH 13 18
ATOM     18  N   ASP P 342      27.456   3.646 -17.531  1.00 40.71 LIG-0.34  N 
ATOM     19 H    ASP P 342      27.165   2.845 -17.415  1.00 40.71 LIG 0.16  HD
ATOM     20  C   SER P 341      28.725   4.005 -17.387  1.00 42.75 LIG 0.26  C 
ATOM     21 O    SER P 341      29.119   5.155 -17.584  1.00 44.14 LIG-0.27  OA
BRANCH 20 22
ATOM     22  CA  SER P 341      29.701   2.898 -16.975  1.00 43.56 LIG 0.42  C 
ATOM     23  N   SER P 341      29.382   1.606 -17.660  1.00 43.48 LIG 0.62  N 
BRANCH 22 24
ATOM     24  CB  SER P 341      31.134   3.330 -17.308  1.00 43.44 LIG 0.21  C 
BRANCH 24 25
ATOM     25 OG   SER P 341      31.763   3.909 -16.174  1.00 45.13 LIG-0.40  OA
ATOM     26 HG   SER P 341      32.596   3.902 -16.282  1.00 45.13 LIG 0.21  HD
ENDBRANCH 24 25
ENDBRANCH 22 24
ENDBRANCH 20 22
ENDBRANCH 13 18
ENDBRANCH 8 13
ENDBRANCH 4 6
ENDBRANCH 1 2
BRANCH 1 27
ATOM     27  C   TRP P 344      21.650   7.164 -16.246  1.00 32.97 LIG 0.24  C 
ATOM     28 O    TRP P 344      21.155   7.437 -17.335  1.00 31.81 LIG-0.27  OA
ATOM     29  N   LYS P 345      21.282   6.103 -15.538  1.00 34.20 LIG-0.34  N 
ATOM     30 H    LYS P 345      21.622   5.872 -14.782  1.00 34.20 LIG 0.16  HD
BRANCH 29 31
ATOM     31  CA  LYS P 345      20.226   5.231 -16.039  1.00 35.76 LIG 0.18  C 
BRANCH 31 32
ATOM     32  C   LYS P 345      18.876   5.518 -15.393  1.00 35.89 LIG 0.20  C 
ATOM     33 O    LYS P 345      18.821   6.466 -14.580  1.00 35.39 LIG-0.65  OA
ATOM     34 OXT  LYS P 345      17.894   4.811 -15.726  1.00 36.91 LIG-0.65  OA
ENDBRANCH 31 32
BRANCH 31 35
ATOM     35  CB  LYS P 345      20.604   3.760 -15.847  1.00 34.89 LIG 0.04  C 
BRANCH 35 36
ATOM     36  CG  LYS P 345      19.961   2.827 -16.878  1.00 33.69 LIG 0.00  C 
BRANCH 36 37
ATOM     37  CD  LYS P 345      20.734   2.767 -18.188  1.00 29.41 LIG 0.03  C 
BRANCH 37 38
ATOM     38  CE  LYS P 345      21.490   1.448 -18.330  1.00 29.69 LIG 0.23  C 
BRANCH 38 39
ATOM     39  NZ  LYS P 345      20.881   0.306 -17.584  1.00 27.83 LIG-0.08  N 
ATOM     40 HZ3  LYS P 345      20.064   0.147 -17.900  1.00 27.83 LIG 0.27  HD
ATOM     41 HZ1  LYS P 345      21.386  -0.420 -17.688  1.00 27.83 LIG 0.27  HD
ATOM     42 HZ2  LYS P 345      20.830   0.509 -16.719  1.00 27.83 LIG 0.27  HD
ENDBRANCH 38 39
ENDBRANCH 37 38
ENDBRANCH 36 37
ENDBRANCH 35 36
ENDBRANCH 31 35
ENDBRANCH 29 31
ENDBRANCH 1 27
BRANCH 1 43
ATOM     43  CB  TRP P 344      22.292   9.520 -15.727  1.00 30.74 LIG 0.07  C 
BRANCH 43 44
ATOM     44  CG  TRP P 344      22.235  10.154 -14.372  1.00 29.17 LIG-0.03  A 
ATOM     45  CD2 TRP P 344      21.944   9.496 -13.131  1.00 26.66 LIG-0.00  A 
ATOM     46  CE3 TRP P 344      21.621   8.179 -12.782  1.00 26.53 LIG 0.01  A 
ATOM     47  CE2 TRP P 344      22.028  10.469 -12.113  1.00 26.53 LIG 0.04  A 
ATOM     48  CZ3 TRP P 344      21.393   7.876 -11.438  1.00 24.28 LIG 0.00  A 
ATOM     49  CH2 TRP P 344      21.484   8.873 -10.451  1.00 25.87 LIG 0.00  A 
ATOM     50  CZ2 TRP P 344      21.800  10.172 -10.770  1.00 24.89 LIG 0.03  A 
ATOM     51  NE1 TRP P 344      22.356  11.658 -12.711  1.00 27.39 LIG-0.36  N 
ATOM     52  CD1 TRP P 344      22.475  11.460 -14.066  1.00 29.08 LIG 0.10  A 
ATOM     53 HE1  TRP P 344      22.468  12.407 -12.304  1.00 27.39 LIG 0.17  HD
ENDBRANCH 43 44
ENDBRANCH 1 43
TORSDOF 19
ENDMDL
MODEL 15
USER: ADFR SOLUTION from run 141
USER: SCORE 15.292535 LL:  -3.099 LR: -12.719 RR:   0.000 FEB:  -7.051
USER: RMSD 5.329725
USER: SEED 140
USER: STATUS no improvement in best in 14 clusters for 5 generations
USER: GENES 21
USER: genes 0 Translation |==|  0.38922 0.41832 0.52724
USER: genes 1 Rotation |==|  0.58053 0.85217 0.42148 0.83664
USER: genes 2 Torsion [C]-CA--N-[C] |==|  0.63600
USER: genes 3 Torsion [N]-C--CA-[N] |==|  0.48199
USER: genes 4 Torsion [N]-C--CA-[N] |==|  0.45000
USER: genes 5 Torsion [C]-CA--CB-[CG] |==|  0.82383
USER: genes 6 Torsion [CA]-CB--CG-[OD1] |==|  0.78122
USER: genes 7 Torsion [C]-CA--N-[C] |==|  0.81957
USER: genes 8 Torsion [N]-C--CA-[N] |==|  0.44852
USER: genes 9 Torsion [C]-CA--CB-[OG] |==|  0.20004
USER: genes 10 Torsion [CA]-CB--OG-[HG] |==|  0.10802
USER: genes 11 Torsion [N]-CA--C-[N] |==|  0.91426
USER: genes 12 Torsion [C]-N--CA-[C] |==|  0.21484
USER: genes 13 Torsion [N]-CA--C-[O] |==|  0.07507
USER: genes 14 Torsion [N]-CA--CB-[CG] |==|  0.64660
USER: genes 15 Torsion [CA]-CB--CG-[CD] |==|  0.56766
USER: genes 16 Torsion [CB]-CG--CD-[CE] |==|  0.91519
USER: genes 17 Torsion [CG]-CD--CE-[NZ] |==|  0.27768
USER: genes 18 Torsion [CD]-CE--NZ-[HZ2] |==|  0.91917
USER: genes 19 Torsion [N]-CA--CB-[CG] |==|  0.15619
USER: genes 20 Torsion [CA]-CB--CG-[CD2] |==|  0.38377
ROOT
ATOM      1  CA  TRP P 344      23.928   6.521 -15.928  1.00 32.15 LIG 0.18  C 
ENDROOT
BRANCH 1 2
ATOM      2  N   TRP P 344      24.217   7.564 -16.893  1.00 31.29 LIG-0.35  N 
ATOM      3 H    TRP P 344      23.603   8.160 -16.977  1.00 31.29 LIG 0.16  HD
ATOM      4  C   PRO P 343      25.358   7.558 -17.572  1.00 32.37 LIG 0.24  C 
ATOM      5 O    PRO P 343      26.192   6.658 -17.474  1.00 31.41 LIG-0.27  OA
BRANCH 4 6
ATOM      6  CA  PRO P 343      25.591   8.731 -18.515  1.00 33.03 LIG 0.18  C 
ATOM      7  N   PRO P 343      26.929   8.738 -19.116  1.00 34.38 LIG-0.34  N 
ATOM      8  C   ASP P 342      28.042   8.847 -18.378  1.00 36.67 LIG 0.24  C 
ATOM      9  CD  PRO P 343      26.860   8.340 -20.533  1.00 33.21 LIG 0.13  C 
ATOM     10 O    ASP P 342      28.006   8.932 -17.150  1.00 37.60 LIG-0.27  OA
ATOM     11  CG  PRO P 343      25.462   7.757 -20.642  1.00 33.09 LIG 0.02  C 
ATOM     12  CB  PRO P 343      24.682   8.662 -19.727  1.00 32.10 LIG 0.04  C 
BRANCH 8 13
ATOM     13  CA  ASP P 342      29.375   8.848 -19.122  1.00 38.79 LIG 0.19  C 
BRANCH 13 14
ATOM     14  CB  ASP P 342      29.749   7.422 -19.529  1.00 38.78 LIG 0.15  C 
BRANCH 14 15
ATOM     15  CG  ASP P 342      29.970   6.518 -18.334  1.00 39.37 LIG 0.17  C 
ATOM     16 OD2  ASP P 342      29.063   5.726 -18.008  1.00 39.72 LIG-0.65  OA
ATOM     17 OD1  ASP P 342      31.055   6.595 -17.722  1.00 40.57 LIG-0.65  OA
ENDBRANCH 14 15
ENDBRANCH 13 14
BRANCH 13 18
ATOM     18  N   ASP P 342      30.380   9.395 -18.225  1.00 40.71 LIG-0.34  N 
ATOM     19 H    ASP P 342      30.995   8.839 -17.995  1.00 40.71 LIG 0.16  HD
ATOM     20  C   SER P 341      30.325  10.655 -17.812  1.00 42.75 LIG 0.26  C 
ATOM     21 O    SER P 341      29.446  11.438 -18.178  1.00 44.14 LIG-0.27  OA
BRANCH 20 22
ATOM     22  CA  SER P 341      31.434  11.106 -16.857  1.00 43.56 LIG 0.42  C 
ATOM     23  N   SER P 341      31.542  12.599 -16.812  1.00 43.48 LIG 0.62  N 
BRANCH 22 24
ATOM     24  CB  SER P 341      31.154  10.557 -15.454  1.00 43.44 LIG 0.21  C 
BRANCH 24 25
ATOM     25 OG   SER P 341      31.381   9.156 -15.405  1.00 45.13 LIG-0.40  OA
ATOM     26 HG   SER P 341      32.058   8.966 -15.865  1.00 45.13 LIG 0.21  HD
ENDBRANCH 24 25
ENDBRANCH 22 24
ENDBRANCH 20 22
ENDBRANCH 13 18
ENDBRANCH 8 13
ENDBRANCH 4 6
ENDBRANCH 1 2
BRANCH 1 27
ATOM     27  C   TRP P 344      22.569   5.863 -16.037  1.00 32.97 LIG 0.24  C 
ATOM     28 O    TRP P 344      22.429   4.689 -15.709  1.00 31.81 LIG-0.27  OA
ATOM     29  N   LYS P 345      21.565   6.604 -16.491  1.00 34.20 LIG-0.34  N 
ATOM     30 H    LYS P 345      21.625   7.434 -16.710  1.00 34.20 LIG 0.16  HD
BRANCH 29 31
ATOM     31  CA  LYS P 345      20.243   6.011 -16.647  1.00 35.76 LIG 0.18  C 
BRANCH 31 32
ATOM     32  C   LYS P 345      19.507   5.865 -15.321  1.00 35.89 LIG 0.20  C 
ATOM     33 O    LYS P 345      19.805   6.668 -14.410  1.00 35.39 LIG-0.65  OA
ATOM     34 OXT  LYS P 345      18.631   4.973 -15.221  1.00 36.91 LIG-0.65  OA
ENDBRANCH 31 32
BRANCH 31 35
ATOM     35  CB  LYS P 345      20.340   4.655 -17.352  1.00 34.89 LIG 0.04  C 
BRANCH 35 36
ATOM     36  CG  LYS P 345      19.424   4.537 -18.574  1.00 33.69 LIG 0.00  C 
BRANCH 36 37
ATOM     37  CD  LYS P 345      19.065   3.096 -18.910  1.00 29.41 LIG 0.03  C 
BRANCH 37 38
ATOM     38  CE  LYS P 345      20.186   2.136 -18.516  1.00 29.69 LIG 0.23  C 
BRANCH 38 39
ATOM     39  NZ  LYS P 345      19.959   1.422 -17.224  1.00 27.83 LIG-0.08  N 
ATOM     40 HZ3  LYS P 345      19.539   0.653 -17.379  1.00 27.83 LIG 0.27  HD
ATOM     41 HZ1  LYS P 345      20.742   1.258 -16.834  1.00 27.83 LIG 0.27  HD
ATOM     42 HZ2  LYS P 345      19.462   1.929 -16.688  1.00 27.83 LIG 0.27  HD
ENDBRANCH 38 39
ENDBRANCH 37 38
ENDBRANCH 36 37
ENDBRANCH 35 36
ENDBRANCH 31 35
ENDBRANCH 29 31
ENDBRANCH 1 27
BRANCH 1 43
ATOM     43  CB  TRP P 344      24.150   7.042 -14.506  1.00 30.74 LIG 0.07  C 
BRANCH 43 44
ATOM     44  CG  TRP P 344      23.338   8.266 -14.219  1.00 29.17 LIG-0.03  A 
ATOM     45  CD2 TRP P 344      22.621   8.555 -13.011  1.00 26.66 LIG-0.00  A 
ATOM     46  CE3 TRP P 344      22.423   7.862 -11.810  1.00 26.53 LIG 0.01  A 
ATOM     47  CE2 TRP P 344      22.027   9.824 -13.171  1.00 26.53 LIG 0.04  A 
ATOM     48  CZ3 TRP P 344      21.644   8.454 -10.813  1.00 24.28 LIG 0.00  A 
ATOM     49  CH2 TRP P 344      21.067   9.720 -11.009  1.00 25.87 LIG 0.00  A 
ATOM     50  CZ2 TRP P 344      21.247  10.418 -12.179  1.00 24.89 LIG 0.03  A 
ATOM     51  NE1 TRP P 344      22.371  10.283 -14.416  1.00 27.39 LIG-0.36  N 
ATOM     52  CD1 TRP P 344      23.155   9.340 -15.038  1.00 29.08 LIG 0.10  A 
ATOM     53 HE1  TRP P 344      22.135  11.037 -14.753  1.00 27.39 LIG 0.17  HD
ENDBRANCH 43 44
ENDBRANCH 1 43
TORSDOF 19
ENDMDL
MODEL 16
USER: ADFR SOLUTION from run 200
USER: SCORE 15.359728 LL:  -3.166 LR: -12.695 RR:   0.000 FEB:  -7.027
USER: RMSD 3.727506
USER: SEED 199
USER: STATUS no improvement in best in 11 clusters for 5 generations
USER: GENES 21
USER: genes 0 Translation |==|  0.42115 0.47119 0.55788
USER: genes 1 Rotation |==|  0.48261 0.59217 0.60447 0.97988
USER: genes 2 Torsion [C]-CA--N-[C] |==|  0.80789
USER: genes 3 Torsion [N]-C--CA-[N] |==|  0.99605
USER: genes 4 Torsion [N]-C--CA-[N] |==|  0.17527
USER: genes 5 Torsion [C]-CA--CB-[CG] |==|  0.30420
USER: genes 6 Torsion [CA]-CB--CG-[OD1] |==|  0.23109
USER: genes 7 Torsion [C]-CA--N-[C] |==|  0.63502
USER: genes 8 Torsion [N]-C--CA-[N] |==|  0.44791
USER: genes 9 Torsion [C]-CA--CB-[OG] |==|  0.16836
USER: genes 10 Torsion [CA]-CB--OG-[HG] |==|  0.71643
USER: genes 11 Torsion [N]-CA--C-[N] |==|  0.40638
USER: genes 12 Torsion [C]-N--CA-[C] |==|  0.71762
USER: genes 13 Torsion [N]-CA--C-[O] |==|  0.51883
USER: genes 14 Torsion [N]-CA--CB-[CG] |==|  0.26716
USER: genes 15 Torsion [CA]-CB--CG-[CD] |==|  0.37282
USER: genes 16 Torsion [CB]-CG--CD-[CE] |==|  0.56398
USER: genes 17 Torsion [CG]-CD--CE-[NZ] |==|  0.65259
USER: genes 18 Torsion [CD]-CE--NZ-[HZ2] |==|  0.99789
USER: genes 19 Torsion [N]-CA--CB-[CG] |==|  0.86624
USER: genes 20 Torsion [CA]-CB--CG-[CD2] |==|  0.66760
ROOT
ATOM      1  CA  TRP P 344      24.455   7.830 -15.330  1.00 32.15 LIG 0.18  C 
ENDROOT
BRANCH 1 2
ATOM      2  N   TRP P 344      24.778   9.156 -15.820  1.00 31.29 LIG-0.35  N 
ATOM      3 H    TRP P 344      24.099   9.653 -15.995  1.00 31.29 LIG 0.16  HD
ATOM      4  C   PRO P 343      26.043   9.530 -15.971  1.00 32.37 LIG 0.24  C 
ATOM      5 O    PRO P 343      26.995   8.774 -15.769  1.00 31.41 LIG-0.27  OA
BRANCH 4 6
ATOM      6  CA  PRO P 343      26.276  10.963 -16.432  1.00 33.03 LIG 0.18  C 
ATOM      7  N   PRO P 343      25.035  11.706 -16.670  1.00 34.38 LIG-0.34  N 
ATOM      8  C   ASP P 342      24.149  11.335 -17.606  1.00 36.67 LIG 0.24  C 
ATOM      9  CD  PRO P 343      24.803  12.685 -15.594  1.00 33.21 LIG 0.13  C 
ATOM     10 O    ASP P 342      24.320  10.338 -18.307  1.00 37.60 LIG-0.27  OA
ATOM     11  CG  PRO P 343      25.785  12.235 -14.526  1.00 33.09 LIG 0.02  C 
ATOM     12  CB  PRO P 343      26.957  11.790 -15.358  1.00 32.10 LIG 0.04  C 
BRANCH 8 13
ATOM     13  CA  ASP P 342      22.898  12.195 -17.762  1.00 38.79 LIG 0.19  C 
BRANCH 13 14
ATOM     14  CB  ASP P 342      21.969  11.582 -18.811  1.00 38.78 LIG 0.15  C 
BRANCH 14 15
ATOM     15  CG  ASP P 342      20.712  10.997 -18.201  1.00 39.37 LIG 0.17  C 
ATOM     16 OD2  ASP P 342      20.680   9.773 -17.959  1.00 39.72 LIG-0.65  OA
ATOM     17 OD1  ASP P 342      19.757  11.761 -17.959  1.00 40.57 LIG-0.65  OA
ENDBRANCH 14 15
ENDBRANCH 13 14
BRANCH 13 18
ATOM     18  N   ASP P 342      23.325  13.520 -18.182  1.00 40.71 LIG-0.34  N 
ATOM     19 H    ASP P 342      23.881  13.526 -18.838  1.00 40.71 LIG 0.16  HD
ATOM     20  C   SER P 341      22.875  14.613 -17.579  1.00 42.75 LIG 0.26  C 
ATOM     21 O    SER P 341      22.059  14.578 -16.656  1.00 44.14 LIG-0.27  OA
BRANCH 20 22
ATOM     22  CA  SER P 341      23.412  15.948 -18.103  1.00 43.56 LIG 0.42  C 
ATOM     23  N   SER P 341      22.536  17.089 -17.690  1.00 43.48 LIG 0.62  N 
BRANCH 22 24
ATOM     24  CB  SER P 341      24.838  16.165 -17.584  1.00 43.44 LIG 0.21  C 
BRANCH 24 25
ATOM     25 OG   SER P 341      25.701  15.130 -18.032  1.00 45.13 LIG-0.40  OA
ATOM     26 HG   SER P 341      25.831  14.583 -17.407  1.00 45.13 LIG 0.21  HD
ENDBRANCH 24 25
ENDBRANCH 22 24
ENDBRANCH 20 22
ENDBRANCH 13 18
ENDBRANCH 8 13
ENDBRANCH 4 6
ENDBRANCH 1 2
BRANCH 1 27
ATOM     27  C   TRP P 344      24.763   6.676 -16.261  1.00 32.97 LIG 0.24  C 
ATOM     28 O    TRP P 344      24.659   6.824 -17.475  1.00 31.81 LIG-0.27  OA
ATOM     29  N   LYS P 345      25.143   5.530 -15.710  1.00 34.20 LIG-0.34  N 
ATOM     30 H    LYS P 345      25.245   5.399 -14.865  1.00 34.20 LIG 0.16  HD
BRANCH 29 31
ATOM     31  CA  LYS P 345      25.419   4.377 -16.558  1.00 35.76 LIG 0.18  C 
BRANCH 31 32
ATOM     32  C   LYS P 345      24.274   3.371 -16.568  1.00 35.89 LIG 0.20  C 
ATOM     33 O    LYS P 345      24.470   2.289 -17.162  1.00 35.39 LIG-0.65  OA
ATOM     34 OXT  LYS P 345      23.215   3.668 -15.965  1.00 36.91 LIG-0.65  OA
ENDBRANCH 31 32
BRANCH 31 35
ATOM     35  CB  LYS P 345      26.721   3.694 -16.133  1.00 34.89 LIG 0.04  C 
BRANCH 35 36
ATOM     36  CG  LYS P 345      26.506   2.502 -15.195  1.00 33.69 LIG 0.00  C 
BRANCH 36 37
ATOM     37  CD  LYS P 345      27.326   1.281 -15.588  1.00 29.41 LIG 0.03  C 
BRANCH 37 38
ATOM     38  CE  LYS P 345      26.709  -0.004 -15.040  1.00 29.69 LIG 0.23  C 
BRANCH 38 39
ATOM     39  NZ  LYS P 345      27.641  -0.832 -14.217  1.00 27.83 LIG-0.08  N 
ATOM     40 HZ3  LYS P 345      27.316  -0.914 -13.392  1.00 27.83 LIG 0.27  HD
ATOM     41 HZ1  LYS P 345      27.726  -1.638 -14.584  1.00 27.83 LIG 0.27  HD
ATOM     42 HZ2  LYS P 345      28.438  -0.437 -14.183  1.00 27.83 LIG 0.27  HD
ENDBRANCH 38 39
ENDBRANCH 37 38
ENDBRANCH 36 37
ENDBRANCH 35 36
ENDBRANCH 31 35
ENDBRANCH 29 31
ENDBRANCH 1 27
BRANCH 1 43
ATOM     43  CB  TRP P 344      22.991   7.773 -14.886  1.00 30.74 LIG 0.07  C 
BRANCH 43 44
ATOM     44  CG  TRP P 344      22.624   8.925 -14.004  1.00 29.17 LIG-0.03  A 
ATOM     45  CD2 TRP P 344      22.147   8.850 -12.653  1.00 26.66 LIG-0.00  A 
ATOM     46  CE3 TRP P 344      21.861   7.792 -11.781  1.00 26.53 LIG 0.01  A 
ATOM     47  CE2 TRP P 344      21.958  10.174 -12.204  1.00 26.53 LIG 0.04  A 
ATOM     48  CZ3 TRP P 344      21.398   8.087 -10.496  1.00 24.28 LIG 0.00  A 
ATOM     49  CH2 TRP P 344      21.221   9.418 -10.084  1.00 25.87 LIG 0.00  A 
ATOM     50  CZ2 TRP P 344      21.495  10.472 -10.922  1.00 24.89 LIG 0.03  A 
ATOM     51  NE1 TRP P 344      22.306  11.009 -13.233  1.00 27.39 LIG-0.36  N 
ATOM     52  CD1 TRP P 344      22.702  10.251 -14.309  1.00 29.08 LIG 0.10  A 
ATOM     53 HE1  TRP P 344      22.282  11.868 -13.209  1.00 27.39 LIG 0.17  HD
ENDBRANCH 43 44
ENDBRANCH 1 43
TORSDOF 19
ENDMDL
MODEL 17
USER: ADFR SOLUTION from run 2
USER: SCORE 16.400936 LL:  -4.066 LR: -12.634 RR:   0.000 FEB:  -6.966
USER: RMSD 4.616259
USER: SEED 338065
USER: STATUS no improvement in best in 13 clusters for 5 generations
USER: GENES 21
USER: genes 0 Translation |==|  0.34851 0.43420 0.57138
USER: genes 1 Rotation |==|  0.44766 0.51186 0.43796 0.99323
USER: genes 2 Torsion [C]-CA--N-[C] |==|  0.68693
USER: genes 3 Torsion [N]-C--CA-[N] |==|  0.95695
USER: genes 4 Torsion [N]-C--CA-[N] |==|  0.85556
USER: genes 5 Torsion [C]-CA--CB-[CG] |==|  0.08179
USER: genes 6 Torsion [CA]-CB--CG-[OD1] |==|  0.18065
USER: genes 7 Torsion [C]-CA--N-[C] |==|  0.83645
USER: genes 8 Torsion [N]-C--CA-[N] |==|  0.33401
USER: genes 9 Torsion [C]-CA--CB-[OG] |==|  0.64959
USER: genes 10 Torsion [CA]-CB--OG-[HG] |==|  0.85486
USER: genes 11 Torsion [N]-CA--C-[N] |==|  0.04563
USER: genes 12 Torsion [C]-N--CA-[C] |==|  0.65303
USER: genes 13 Torsion [N]-CA--C-[O] |==|  0.50793
USER: genes 14 Torsion [N]-CA--CB-[CG] |==|  0.67088
USER: genes 15 Torsion [CA]-CB--CG-[CD] |==|  0.99037
USER: genes 16 Torsion [CB]-CG--CD-[CE] |==|  0.67658
USER: genes 17 Torsion [CG]-CD--CE-[NZ] |==|  0.49022
USER: genes 18 Torsion [CD]-CE--NZ-[HZ2] |==|  0.29583
USER: genes 19 Torsion [N]-CA--CB-[CG] |==|  0.82402
USER: genes 20 Torsion [CA]-CB--CG-[CD2] |==|  0.80275
ROOT
ATOM      1  CA  TRP P 344      23.256   6.914 -15.067  1.00 32.15 LIG 0.18  C 
ENDROOT
BRANCH 1 2
ATOM      2  N   TRP P 344      24.438   7.653 -15.465  1.00 31.29 LIG-0.35  N 
ATOM      3 H    TRP P 344      24.437   7.928 -16.280  1.00 31.29 LIG 0.16  HD
ATOM      4  C   PRO P 343      25.425   7.865 -14.602  1.00 32.37 LIG 0.24  C 
ATOM      5 O    PRO P 343      25.426   7.408 -13.459  1.00 31.41 LIG-0.27  OA
BRANCH 4 6
ATOM      6  CA  PRO P 343      26.593   8.706 -15.101  1.00 33.03 LIG 0.18  C 
ATOM      7  N   PRO P 343      26.623   8.853 -16.559  1.00 34.38 LIG-0.34  N 
ATOM      8  C   ASP P 342      26.765   7.803 -17.380  1.00 36.67 LIG 0.24  C 
ATOM      9  CD  PRO P 343      26.209  10.212 -16.950  1.00 33.21 LIG 0.13  C 
ATOM     10 O    ASP P 342      26.862   6.651 -16.956  1.00 37.60 LIG-0.27  OA
ATOM     11  CG  PRO P 343      25.593  10.747 -15.668  1.00 33.09 LIG 0.02  C 
ATOM     12  CB  PRO P 343      26.490  10.142 -14.623  1.00 32.10 LIG 0.04  C 
BRANCH 8 13
ATOM     13  CA  ASP P 342      26.788   8.088 -18.880  1.00 38.79 LIG 0.19  C 
BRANCH 13 14
ATOM     14  CB  ASP P 342      28.062   8.850 -19.248  1.00 38.78 LIG 0.15  C 
BRANCH 14 15
ATOM     15  CG  ASP P 342      29.219   8.522 -18.329  1.00 39.37 LIG 0.17  C 
ATOM     16 OD2  ASP P 342      29.674   9.423 -17.596  1.00 39.72 LIG-0.65  OA
ATOM     17 OD1  ASP P 342      29.673   7.360 -18.335  1.00 40.57 LIG-0.65  OA
ENDBRANCH 14 15
ENDBRANCH 13 14
BRANCH 13 18
ATOM     18  N   ASP P 342      25.614   8.887 -19.194  1.00 40.71 LIG-0.34  N 
ATOM     19 H    ASP P 342      25.787   9.652 -19.549  1.00 40.71 LIG 0.16  HD
ATOM     20  C   SER P 341      24.390   8.444 -18.942  1.00 42.75 LIG 0.26  C 
ATOM     21 O    SER P 341      24.169   7.333 -18.456  1.00 44.14 LIG-0.27  OA
BRANCH 20 22
ATOM     22  CA  SER P 341      23.238   9.386 -19.305  1.00 43.56 LIG 0.42  C 
ATOM     23  N   SER P 341      22.315   8.760 -20.304  1.00 43.48 LIG 0.62  N 
BRANCH 22 24
ATOM     24  CB  SER P 341      22.464   9.760 -18.036  1.00 43.44 LIG 0.21  C 
BRANCH 24 25
ATOM     25 OG   SER P 341      21.080   9.483 -18.188  1.00 45.13 LIG-0.40  OA
ATOM     26 HG   SER P 341      20.798   9.843 -18.894  1.00 45.13 LIG 0.21  HD
ENDBRANCH 24 25
ENDBRANCH 22 24
ENDBRANCH 20 22
ENDBRANCH 13 18
ENDBRANCH 8 13
ENDBRANCH 4 6
ENDBRANCH 1 2
BRANCH 1 27
ATOM     27  C   TRP P 344      23.054   5.565 -15.724  1.00 32.97 LIG 0.24  C 
ATOM     28 O    TRP P 344      21.956   5.021 -15.680  1.00 31.81 LIG-0.27  OA
ATOM     29  N   LYS P 345      24.100   5.019 -16.334  1.00 34.20 LIG-0.34  N 
ATOM     30 H    LYS P 345      24.877   5.382 -16.400  1.00 34.20 LIG 0.16  HD
BRANCH 29 31
ATOM     31  CA  LYS P 345      23.970   3.706 -16.953  1.00 35.76 LIG 0.18  C 
BRANCH 31 32
ATOM     32  C   LYS P 345      25.006   2.713 -16.442  1.00 35.89 LIG 0.20  C 
ATOM     33 O    LYS P 345      25.008   1.573 -16.956  1.00 35.39 LIG-0.65  OA
ATOM     34 OXT  LYS P 345      25.810   3.094 -15.558  1.00 36.91 LIG-0.65  OA
ENDBRANCH 31 32
BRANCH 31 35
ATOM     35  CB  LYS P 345      24.051   3.819 -18.478  1.00 34.89 LIG 0.04  C 
BRANCH 35 36
ATOM     36  CG  LYS P 345      22.780   3.347 -19.192  1.00 33.69 LIG 0.00  C 
BRANCH 36 37
ATOM     37  CD  LYS P 345      21.736   2.787 -18.236  1.00 29.41 LIG 0.03  C 
BRANCH 37 38
ATOM     38  CE  LYS P 345      21.471   1.306 -18.505  1.00 29.69 LIG 0.23  C 
BRANCH 38 39
ATOM     39  NZ  LYS P 345      20.516   0.668 -17.550  1.00 27.83 LIG-0.08  N 
ATOM     40 HZ3  LYS P 345      20.848  -0.110 -17.274  1.00 27.83 LIG 0.27  HD
ATOM     41 HZ1  LYS P 345      20.394   1.203 -16.850  1.00 27.83 LIG 0.27  HD
ATOM     42 HZ2  LYS P 345      19.737   0.531 -17.957  1.00 27.83 LIG 0.27  HD
ENDBRANCH 38 39
ENDBRANCH 37 38
ENDBRANCH 36 37
ENDBRANCH 35 36
ENDBRANCH 31 35
ENDBRANCH 29 31
ENDBRANCH 1 27
BRANCH 1 43
ATOM     43  CB  TRP P 344      22.007   7.781 -15.246  1.00 30.74 LIG 0.07  C 
BRANCH 43 44
ATOM     44  CG  TRP P 344      22.026   8.989 -14.363  1.00 29.17 LIG-0.03  A 
ATOM     45  CD2 TRP P 344      21.866   9.010 -12.938  1.00 26.66 LIG-0.00  A 
ATOM     46  CE3 TRP P 344      21.634   8.023 -11.972  1.00 26.53 LIG 0.01  A 
ATOM     47  CE2 TRP P 344      21.983  10.354 -12.525  1.00 26.53 LIG 0.04  A 
ATOM     48  CZ3 TRP P 344      21.527   8.406 -10.633  1.00 24.28 LIG 0.00  A 
ATOM     49  CH2 TRP P 344      21.647   9.755 -10.259  1.00 25.87 LIG 0.00  A 
ATOM     50  CZ2 TRP P 344      21.875  10.740 -11.189  1.00 24.89 LIG 0.03  A 
ATOM     51  NE1 TRP P 344      22.206  11.108 -13.647  1.00 27.39 LIG-0.36  N 
ATOM     52  CD1 TRP P 344      22.228  10.281 -14.745  1.00 29.08 LIG 0.10  A 
ATOM     53 HE1  TRP P 344      22.315  11.961 -13.662  1.00 27.39 LIG 0.17  HD
ENDBRANCH 43 44
ENDBRANCH 1 43
TORSDOF 19
ENDMDL
MODEL 18
USER: ADFR SOLUTION from run 2
USER: SCORE 15.301637 LL:  -3.277 LR: -12.614 RR:   0.000 FEB:  -6.946
USER: RMSD 4.481674
USER: SEED 338065
USER: STATUS no improvement in best in 13 clusters for 5 generations
USER: GENES 21
USER: genes 0 Translation |==|  0.34456 0.43685 0.54788
USER: genes 1 Rotation |==|  0.40118 0.65479 0.54053 0.96329
USER: genes 2 Torsion [C]-CA--N-[C] |==|  0.67604
USER: genes 3 Torsion [N]-C--CA-[N] |==|  0.71182
USER: genes 4 Torsion [N]-C--CA-[N] |==|  0.44547
USER: genes 5 Torsion [C]-CA--CB-[CG] |==|  0.81363
USER: genes 6 Torsion [CA]-CB--CG-[OD1] |==|  0.29884
USER: genes 7 Torsion [C]-CA--N-[C] |==|  0.78124
USER: genes 8 Torsion [N]-C--CA-[N] |==|  0.40877
USER: genes 9 Torsion [C]-CA--CB-[OG] |==|  0.11720
USER: genes 10 Torsion [CA]-CB--OG-[HG] |==|  0.80070
USER: genes 11 Torsion [N]-CA--C-[N] |==|  0.14809
USER: genes 12 Torsion [C]-N--CA-[C] |==|  0.67285
USER: genes 13 Torsion [N]-CA--C-[O] |==|  0.50030
USER: genes 14 Torsion [N]-CA--CB-[CG] |==|  0.71162
USER: genes 15 Torsion [CA]-CB--CG-[CD] |==|  0.96274
USER: genes 16 Torsion [CB]-CG--CD-[CE] |==|  0.65271
USER: genes 17 Torsion [CG]-CD--CE-[NZ] |==|  0.47838
USER: genes 18 Torsion [CD]-CE--NZ-[HZ2] |==|  0.30228
USER: genes 19 Torsion [N]-CA--CB-[CG] |==|  0.80461
USER: genes 20 Torsion [CA]-CB--CG-[CD2] |==|  0.67723
ROOT
ATOM      1  CA  TRP P 344      23.191   6.980 -15.525  1.00 32.15 LIG 0.18  C 
ENDROOT
BRANCH 1 2
ATOM      2  N   TRP P 344      23.586   7.913 -16.562  1.00 31.29 LIG-0.35  N 
ATOM      3 H    TRP P 344      23.050   7.957 -17.234  1.00 31.29 LIG 0.16  HD
ATOM      4  C   PRO P 343      24.700   8.625 -16.442  1.00 32.37 LIG 0.24  C 
ATOM      5 O    PRO P 343      25.480   8.496 -15.497  1.00 31.41 LIG-0.27  OA
BRANCH 4 6
ATOM      6  CA  PRO P 343      24.992   9.621 -17.556  1.00 33.03 LIG 0.18  C 
ATOM      7  N   PRO P 343      26.032   9.168 -18.485  1.00 34.38 LIG-0.34  N 
ATOM      8  C   ASP P 342      27.291   8.934 -18.088  1.00 36.67 LIG 0.24  C 
ATOM      9  CD  PRO P 343      25.436   8.762 -19.770  1.00 33.21 LIG 0.13  C 
ATOM     10 O    ASP P 342      27.642   9.072 -16.916  1.00 37.60 LIG-0.27  OA
ATOM     11  CG  PRO P 343      23.959   8.664 -19.428  1.00 33.09 LIG 0.02  C 
ATOM     12  CB  PRO P 343      23.792   9.808 -18.465  1.00 32.10 LIG 0.04  C 
BRANCH 8 13
ATOM     13  CA  ASP P 342      28.283   8.472 -19.152  1.00 38.79 LIG 0.19  C 
BRANCH 13 14
ATOM     14  CB  ASP P 342      28.099   6.979 -19.426  1.00 38.78 LIG 0.15  C 
BRANCH 14 15
ATOM     15  CG  ASP P 342      28.488   6.120 -18.240  1.00 39.37 LIG 0.17  C 
ATOM     16 OD2  ASP P 342      29.698   6.003 -17.959  1.00 39.72 LIG-0.65  OA
ATOM     17 OD1  ASP P 342      27.583   5.565 -17.585  1.00 40.57 LIG-0.65  OA
ENDBRANCH 14 15
ENDBRANCH 13 14
BRANCH 13 18
ATOM     18  N   ASP P 342      29.622   8.730 -18.647  1.00 40.71 LIG-0.34  N 
ATOM     19 H    ASP P 342      30.026   8.037 -18.334  1.00 40.71 LIG 0.16  HD
ATOM     20  C   SER P 341      30.150   9.946 -18.681  1.00 42.75 LIG 0.26  C 
ATOM     21 O    SER P 341      29.560  10.917 -19.158  1.00 44.14 LIG-0.27  OA
BRANCH 20 22
ATOM     22  CA  SER P 341      31.562  10.090 -18.104  1.00 43.56 LIG 0.42  C 
ATOM     23  N   SER P 341      32.344  11.139 -18.831  1.00 43.48 LIG 0.62  N 
BRANCH 22 24
ATOM     24  CB  SER P 341      31.472  10.439 -16.614  1.00 43.44 LIG 0.21  C 
BRANCH 24 25
ATOM     25 OG   SER P 341      30.467   9.668 -15.974  1.00 45.13 LIG-0.40  OA
ATOM     26 HG   SER P 341      29.709   9.937 -16.219  1.00 45.13 LIG 0.21  HD
ENDBRANCH 24 25
ENDBRANCH 22 24
ENDBRANCH 20 22
ENDBRANCH 13 18
ENDBRANCH 8 13
ENDBRANCH 4 6
ENDBRANCH 1 2
BRANCH 1 27
ATOM     27  C   TRP P 344      23.136   5.520 -15.921  1.00 32.97 LIG 0.24  C 
ATOM     28 O    TRP P 344      22.115   4.869 -15.721  1.00 31.81 LIG-0.27  OA
ATOM     29  N   LYS P 345      24.220   4.997 -16.482  1.00 34.20 LIG-0.34  N 
ATOM     30 H    LYS P 345      24.944   5.429 -16.654  1.00 34.20 LIG 0.16  HD
BRANCH 29 31
ATOM     31  CA  LYS P 345      24.233   3.586 -16.851  1.00 35.76 LIG 0.18  C 
BRANCH 31 32
ATOM     32  C   LYS P 345      25.293   2.794 -16.097  1.00 35.89 LIG 0.20  C 
ATOM     33 O    LYS P 345      25.382   1.573 -16.349  1.00 35.39 LIG-0.65  OA
ATOM     34 OXT  LYS P 345      26.031   3.407 -15.288  1.00 36.91 LIG-0.65  OA
ENDBRANCH 31 32
BRANCH 31 35
ATOM     35  CB  LYS P 345      24.425   3.426 -18.362  1.00 34.89 LIG 0.04  C 
BRANCH 35 36
ATOM     36  CG  LYS P 345      23.136   3.063 -19.105  1.00 33.69 LIG 0.00  C 
BRANCH 36 37
ATOM     37  CD  LYS P 345      22.017   2.621 -18.172  1.00 29.41 LIG 0.03  C 
BRANCH 37 38
ATOM     38  CE  LYS P 345      21.477   1.246 -18.560  1.00 29.69 LIG 0.23  C 
BRANCH 38 39
ATOM     39  NZ  LYS P 345      20.506   0.668 -17.584  1.00 27.83 LIG-0.08  N 
ATOM     40 HZ3  LYS P 345      20.737  -0.171 -17.396  1.00 27.83 LIG 0.27  HD
ATOM     41 HZ1  LYS P 345      20.512   1.152 -16.837  1.00 27.83 LIG 0.27  HD
ATOM     42 HZ2  LYS P 345      19.689   0.678 -17.936  1.00 27.83 LIG 0.27  HD
ENDBRANCH 38 39
ENDBRANCH 37 38
ENDBRANCH 36 37
ENDBRANCH 35 36
ENDBRANCH 31 35
ENDBRANCH 29 31
ENDBRANCH 1 27
BRANCH 1 43
ATOM     43  CB  TRP P 344      21.858   7.410 -14.908  1.00 30.74 LIG 0.07  C 
BRANCH 43 44
ATOM     44  CG  TRP P 344      21.993   8.650 -14.081  1.00 29.17 LIG-0.03  A 
ATOM     45  CD2 TRP P 344      21.773   8.765 -12.668  1.00 26.66 LIG-0.00  A 
ATOM     46  CE3 TRP P 344      21.373   7.866 -11.671  1.00 26.53 LIG 0.01  A 
ATOM     47  CE2 TRP P 344      22.043  10.102 -12.311  1.00 26.53 LIG 0.04  A 
ATOM     48  CZ3 TRP P 344      21.256   8.327 -10.358  1.00 24.28 LIG 0.00  A 
ATOM     49  CH2 TRP P 344      21.532   9.668 -10.040  1.00 25.87 LIG 0.00  A 
ATOM     50  CZ2 TRP P 344      21.926  10.567 -11.001  1.00 24.89 LIG 0.03  A 
ATOM     51  NE1 TRP P 344      22.411  10.764 -13.453  1.00 27.39 LIG-0.36  N 
ATOM     52  CD1 TRP P 344      22.376   9.885 -14.510  1.00 29.08 LIG 0.10  A 
ATOM     53 HE1  TRP P 344      22.629  11.594 -13.501  1.00 27.39 LIG 0.17  HD
ENDBRANCH 43 44
ENDBRANCH 1 43
TORSDOF 19
ENDMDL
MODEL 19
USER: ADFR SOLUTION from run 34
USER: SCORE 16.088895 LL:  -4.225 LR: -12.603 RR:   0.000 FEB:  -6.935
USER: RMSD 5.852664
USER: SEED 33
USER: STATUS no improvement in best in 30 clusters for 5 generations
USER: GENES 21
USER: genes 0 Translation |==|  0.32038 0.48234 0.55018
USER: genes 1 Rotation |==|  0.46978 0.55456 0.31804 0.96152
USER: genes 2 Torsion [C]-CA--N-[C] |==|  0.64445
USER: genes 3 Torsion [N]-C--CA-[N] |==|  0.89571
USER: genes 4 Torsion [N]-C--CA-[N] |==|  0.82391
USER: genes 5 Torsion [C]-CA--CB-[CG] |==|  0.11638
USER: genes 6 Torsion [CA]-CB--CG-[OD1] |==|  0.60262
USER: genes 7 Torsion [C]-CA--N-[C] |==|  0.82202
USER: genes 8 Torsion [N]-C--CA-[N] |==|  0.77209
USER: genes 9 Torsion [C]-CA--CB-[OG] |==|  0.17166
USER: genes 10 Torsion [CA]-CB--OG-[HG] |==|  0.30902
USER: genes 11 Torsion [N]-CA--C-[N] |==|  0.37421
USER: genes 12 Torsion [C]-N--CA-[C] |==|  0.62967
USER: genes 13 Torsion [N]-CA--C-[O] |==|  0.03065
USER: genes 14 Torsion [N]-CA--CB-[CG] |==|  0.82109
USER: genes 15 Torsion [CA]-CB--CG-[CD] |==|  0.67372
USER: genes 16 Torsion [CB]-CG--CD-[CE] |==|  0.03351
USER: genes 17 Torsion [CG]-CD--CE-[NZ] |==|  0.78280
USER: genes 18 Torsion [CD]-CE--NZ-[HZ2] |==|  0.94163
USER: genes 19 Torsion [N]-CA--CB-[CG] |==|  0.72199
USER: genes 20 Torsion [CA]-CB--CG-[CD2] |==|  0.87969
ROOT
ATOM      1  CA  TRP P 344      22.792   8.106 -15.480  1.00 32.15 LIG 0.18  C 
ENDROOT
BRANCH 1 2
ATOM      2  N   TRP P 344      24.146   8.215 -15.987  1.00 31.29 LIG-0.35  N 
ATOM      3 H    TRP P 344      24.207   8.343 -16.835  1.00 31.29 LIG 0.16  HD
ATOM      4  C   PRO P 343      25.185   8.118 -15.165  1.00 32.37 LIG 0.24  C 
ATOM      5 O    PRO P 343      25.068   7.875 -13.963  1.00 31.41 LIG-0.27  OA
BRANCH 4 6
ATOM      6  CA  PRO P 343      26.561   8.309 -15.787  1.00 33.03 LIG 0.18  C 
ATOM      7  N   PRO P 343      26.679   7.731 -17.129  1.00 34.38 LIG-0.34  N 
ATOM      8  C   ASP P 342      26.536   6.418 -17.355  1.00 36.67 LIG 0.24  C 
ATOM      9  CD  PRO P 343      26.690   8.794 -18.151  1.00 33.21 LIG 0.13  C 
ATOM     10 O    ASP P 342      26.282   5.624 -16.450  1.00 37.60 LIG-0.27  OA
ATOM     11  CG  PRO P 343      26.216  10.005 -17.366  1.00 33.09 LIG 0.02  C 
ATOM     12  CB  PRO P 343      26.865   9.776 -16.029  1.00 32.10 LIG 0.04  C 
BRANCH 8 13
ATOM     13  CA  ASP P 342      26.689   5.938 -18.796  1.00 38.79 LIG 0.19  C 
BRANCH 13 14
ATOM     14  CB  ASP P 342      28.054   6.355 -19.345  1.00 38.78 LIG 0.15  C 
BRANCH 14 15
ATOM     15  CG  ASP P 342      29.167   6.163 -18.337  1.00 39.37 LIG 0.17  C 
ATOM     16 OD2  ASP P 342      29.127   5.169 -17.584  1.00 39.72 LIG-0.65  OA
ATOM     17 OD1  ASP P 342      30.087   7.005 -18.299  1.00 40.57 LIG-0.65  OA
ENDBRANCH 14 15
ENDBRANCH 13 14
BRANCH 13 18
ATOM     18  N   ASP P 342      25.625   6.546 -19.578  1.00 40.71 LIG-0.34  N 
ATOM     19 H    ASP P 342      25.895   7.088 -20.190  1.00 40.71 LIG 0.16  HD
ATOM     20  C   SER P 341      24.349   6.268 -19.342  1.00 42.75 LIG 0.26  C 
ATOM     21 O    SER P 341      23.990   5.469 -18.475  1.00 44.14 LIG-0.27  OA
BRANCH 20 22
ATOM     22  CA  SER P 341      23.323   6.986 -20.224  1.00 43.56 LIG 0.42  C 
ATOM     23  N   SER P 341      23.043   8.368 -19.722  1.00 43.48 LIG 0.62  N 
BRANCH 22 24
ATOM     24  CB  SER P 341      23.841   7.045 -21.666  1.00 43.44 LIG 0.21  C 
BRANCH 24 25
ATOM     25 OG   SER P 341      24.014   5.738 -22.195  1.00 45.13 LIG-0.40  OA
ATOM     26 HG   SER P 341      23.443   5.602 -22.797  1.00 45.13 LIG 0.21  HD
ENDBRANCH 24 25
ENDBRANCH 22 24
ENDBRANCH 20 22
ENDBRANCH 13 18
ENDBRANCH 8 13
ENDBRANCH 4 6
ENDBRANCH 1 2
BRANCH 1 27
ATOM     27  C   TRP P 344      21.893   7.106 -16.176  1.00 32.97 LIG 0.24  C 
ATOM     28 O    TRP P 344      21.867   7.055 -17.401  1.00 31.81 LIG-0.27  OA
ATOM     29  N   LYS P 345      21.158   6.309 -15.411  1.00 34.20 LIG-0.34  N 
ATOM     30 H    LYS P 345      21.168   6.304 -14.550  1.00 34.20 LIG 0.16  HD
BRANCH 29 31
ATOM     31  CA  LYS P 345      20.250   5.350 -16.029  1.00 35.76 LIG 0.18  C 
BRANCH 31 32
ATOM     32  C   LYS P 345      18.866   5.360 -15.391  1.00 35.89 LIG 0.20  C 
ATOM     33 O    LYS P 345      18.609   6.293 -14.599  1.00 35.39 LIG-0.65  OA
ATOM     34 OXT  LYS P 345      18.057   4.456 -15.709  1.00 36.91 LIG-0.65  OA
ENDBRANCH 31 32
BRANCH 31 35
ATOM     35  CB  LYS P 345      20.843   3.940 -15.986  1.00 34.89 LIG 0.04  C 
BRANCH 35 36
ATOM     36  CG  LYS P 345      22.126   3.794 -16.810  1.00 33.69 LIG 0.00  C 
BRANCH 36 37
ATOM     37  CD  LYS P 345      21.987   2.800 -17.955  1.00 29.41 LIG 0.03  C 
BRANCH 37 38
ATOM     38  CE  LYS P 345      20.526   2.415 -18.185  1.00 29.69 LIG 0.23  C 
BRANCH 38 39
ATOM     39  NZ  LYS P 345      19.992   1.418 -17.209  1.00 27.83 LIG-0.08  N 
ATOM     40 HZ3  LYS P 345      19.528   1.841 -16.577  1.00 27.83 LIG 0.27  HD
ATOM     41 HZ1  LYS P 345      19.461   0.844 -17.633  1.00 27.83 LIG 0.27  HD
ATOM     42 HZ2  LYS P 345      20.668   0.977 -16.835  1.00 27.83 LIG 0.27  HD
ENDBRANCH 38 39
ENDBRANCH 37 38
ENDBRANCH 36 37
ENDBRANCH 35 36
ENDBRANCH 31 35
ENDBRANCH 29 31
ENDBRANCH 1 27
BRANCH 1 43
ATOM     43  CB  TRP P 344      22.126   9.484 -15.452  1.00 30.74 LIG 0.07  C 
BRANCH 43 44
ATOM     44  CG  TRP P 344      22.137  10.089 -14.083  1.00 29.17 LIG-0.03  A 
ATOM     45  CD2 TRP P 344      21.844   9.419 -12.850  1.00 26.66 LIG-0.00  A 
ATOM     46  CE3 TRP P 344      21.459   8.113 -12.521  1.00 26.53 LIG 0.01  A 
ATOM     47  CE2 TRP P 344      22.005  10.364 -11.814  1.00 26.53 LIG 0.04  A 
ATOM     48  CZ3 TRP P 344      21.250   7.793 -11.177  1.00 24.28 LIG 0.00  A 
ATOM     49  CH2 TRP P 344      21.419   8.761 -10.173  1.00 25.87 LIG 0.00  A 
ATOM     50  CZ2 TRP P 344      21.795  10.048 -10.472  1.00 24.89 LIG 0.03  A 
ATOM     51  NE1 TRP P 344      22.381  11.547 -12.394  1.00 27.39 LIG-0.36  N 
ATOM     52  CD1 TRP P 344      22.455  11.373 -13.756  1.00 29.08 LIG 0.10  A 
ATOM     53 HE1  TRP P 344      22.544  12.279 -11.975  1.00 27.39 LIG 0.17  HD
ENDBRANCH 43 44
ENDBRANCH 1 43
TORSDOF 19
ENDMDL
MODEL 20
USER: ADFR SOLUTION from run 51
USER: SCORE 16.133342 LL:  -3.801 LR: -12.465 RR:   0.000 FEB:  -6.798
USER: RMSD 7.000533
USER: SEED 50
USER: STATUS no improvement in best in 7 clusters for 5 generations
USER: GENES 21
USER: genes 0 Translation |==|  0.45016 0.52544 0.53614
USER: genes 1 Rotation |==|  0.79653 0.63835 0.61006 0.86168
USER: genes 2 Torsion [C]-CA--N-[C] |==|  0.73537
USER: genes 3 Torsion [N]-C--CA-[N] |==|  0.50460
USER: genes 4 Torsion [N]-C--CA-[N] |==|  0.44216
USER: genes 5 Torsion [C]-CA--CB-[CG] |==|  0.83583
USER: genes 6 Torsion [CA]-CB--CG-[OD1] |==|  0.86045
USER: genes 7 Torsion [C]-CA--N-[C] |==|  0.81178
USER: genes 8 Torsion [N]-C--CA-[N] |==|  0.43756
USER: genes 9 Torsion [C]-CA--CB-[OG] |==|  0.08441
USER: genes 10 Torsion [CA]-CB--OG-[HG] |==|  0.88417
USER: genes 11 Torsion [N]-CA--C-[N] |==|  0.96217
USER: genes 12 Torsion [C]-N--CA-[C] |==|  0.56945
USER: genes 13 Torsion [N]-CA--C-[O] |==|  0.44022
USER: genes 14 Torsion [N]-CA--CB-[CG] |==|  0.07546
USER: genes 15 Torsion [CA]-CB--CG-[CD] |==|  0.18542
USER: genes 16 Torsion [CB]-CG--CD-[CE] |==|  0.25504
USER: genes 17 Torsion [CG]-CD--CE-[NZ] |==|  0.44075
USER: genes 18 Torsion [CD]-CE--NZ-[HZ2] |==|  0.34457
USER: genes 19 Torsion [N]-CA--CB-[CG] |==|  0.11274
USER: genes 20 Torsion [CA]-CB--CG-[CD2] |==|  0.59320
ROOT
ATOM      1  CA  TRP P 344      24.934   9.173 -15.754  1.00 32.15 LIG 0.18  C 
ENDROOT
BRANCH 1 2
ATOM      2  N   TRP P 344      25.568  10.126 -14.865  1.00 31.29 LIG-0.35  N 
ATOM      3 H    TRP P 344      25.028  10.568 -14.363  1.00 31.29 LIG 0.16  HD
ATOM      4  C   PRO P 343      26.887  10.272 -14.861  1.00 32.37 LIG 0.24  C 
ATOM      5 O    PRO P 343      27.631   9.668 -15.636  1.00 31.41 LIG-0.27  OA
BRANCH 4 6
ATOM      6  CA  PRO P 343      27.458  11.253 -13.846  1.00 33.03 LIG 0.18  C 
ATOM      7  N   PRO P 343      28.915  11.391 -13.926  1.00 34.38 LIG-0.34  N 
ATOM      8  C   ASP P 342      29.743  10.362 -13.699  1.00 36.67 LIG 0.24  C 
ATOM      9  CD  PRO P 343      29.279  12.682 -14.538  1.00 33.21 LIG 0.13  C 
ATOM     10 O    ASP P 342      29.326   9.237 -13.426  1.00 37.60 LIG-0.27  OA
ATOM     11  CG  PRO P 343      27.962  13.143 -15.138  1.00 33.09 LIG 0.02  C 
ATOM     12  CB  PRO P 343      26.975  12.668 -14.106  1.00 32.10 LIG 0.04  C 
BRANCH 8 13
ATOM     13  CA  ASP P 342      31.241  10.636 -13.806  1.00 38.79 LIG 0.19  C 
BRANCH 13 14
ATOM     14  CB  ASP P 342      31.673  10.617 -15.273  1.00 38.78 LIG 0.15  C 
BRANCH 14 15
ATOM     15  CG  ASP P 342      31.381   9.293 -15.947  1.00 39.37 LIG 0.17  C 
ATOM     16 OD2  ASP P 342      30.780   9.299 -17.040  1.00 39.72 LIG-0.65  OA
ATOM     17 OD1  ASP P 342      31.756   8.244 -15.385  1.00 40.57 LIG-0.65  OA
ENDBRANCH 14 15
ENDBRANCH 13 14
BRANCH 13 18
ATOM     18  N   ASP P 342      31.933   9.593 -13.065  1.00 40.71 LIG-0.34  N 
ATOM     19 H    ASP P 342      32.395   9.054 -13.552  1.00 40.71 LIG 0.16  HD
ATOM     20  C   SER P 341      31.840   9.507 -11.744  1.00 42.75 LIG 0.26  C 
ATOM     21 O    SER P 341      31.191  10.308 -11.068  1.00 44.14 LIG-0.27  OA
BRANCH 20 22
ATOM     22  CA  SER P 341      32.603   8.356 -11.083  1.00 43.56 LIG 0.42  C 
ATOM     23  N   SER P 341      32.884   8.644  -9.641  1.00 43.48 LIG 0.62  N 
BRANCH 22 24
ATOM     24  CB  SER P 341      31.789   7.063 -11.211  1.00 43.44 LIG 0.21  C 
BRANCH 24 25
ATOM     25 OG   SER P 341      31.005   7.075 -12.395  1.00 45.13 LIG-0.40  OA
ATOM     26 HG   SER P 341      30.665   7.836 -12.498  1.00 45.13 LIG 0.21  HD
ENDBRANCH 24 25
ENDBRANCH 22 24
ENDBRANCH 20 22
ENDBRANCH 13 18
ENDBRANCH 8 13
ENDBRANCH 4 6
ENDBRANCH 1 2
BRANCH 1 27
ATOM     27  C   TRP P 344      24.425   9.718 -17.072  1.00 32.97 LIG 0.24  C 
ATOM     28 O    TRP P 344      24.107   8.948 -17.972  1.00 31.81 LIG-0.27  OA
ATOM     29  N   LYS P 345      24.343  11.038 -17.196  1.00 34.20 LIG-0.34  N 
ATOM     30 H    LYS P 345      24.538  11.604 -16.579  1.00 34.20 LIG 0.16  HD
BRANCH 29 31
ATOM     31  CA  LYS P 345      23.891  11.617 -18.455  1.00 35.76 LIG 0.18  C 
BRANCH 31 32
ATOM     32  C   LYS P 345      24.406  13.037 -18.663  1.00 35.89 LIG 0.20  C 
ATOM     33 O    LYS P 345      24.439  13.467 -19.837  1.00 35.39 LIG-0.65  OA
ATOM     34 OXT  LYS P 345      24.743  13.701 -17.654  1.00 36.91 LIG-0.65  OA
ENDBRANCH 31 32
BRANCH 31 35
ATOM     35  CB  LYS P 345      22.363  11.589 -18.545  1.00 34.89 LIG 0.04  C 
BRANCH 35 36
ATOM     36  CG  LYS P 345      21.672  11.616 -17.178  1.00 33.69 LIG 0.00  C 
BRANCH 36 37
ATOM     37  CD  LYS P 345      21.876  12.929 -16.436  1.00 29.41 LIG 0.03  C 
BRANCH 37 38
ATOM     38  CE  LYS P 345      20.752  13.919 -16.734  1.00 29.69 LIG 0.23  C 
BRANCH 38 39
ATOM     39  NZ  LYS P 345      20.589  14.993 -15.709  1.00 27.83 LIG-0.08  N 
ATOM     40 HZ3  LYS P 345      19.794  14.912 -15.318  1.00 27.83 LIG 0.27  HD
ATOM     41 HZ1  LYS P 345      21.230  14.919 -15.097  1.00 27.83 LIG 0.27  HD
ATOM     42 HZ2  LYS P 345      20.647  15.790 -16.102  1.00 27.83 LIG 0.27  HD
ENDBRANCH 38 39
ENDBRANCH 37 38
ENDBRANCH 36 37
ENDBRANCH 35 36
ENDBRANCH 31 35
ENDBRANCH 29 31
ENDBRANCH 1 27
BRANCH 1 43
ATOM     43  CB  TRP P 344      23.812   8.432 -15.022  1.00 30.74 LIG 0.07  C 
BRANCH 43 44
ATOM     44  CG  TRP P 344      23.017   9.342 -14.138  1.00 29.17 LIG-0.03  A 
ATOM     45  CD2 TRP P 344      22.408   9.002 -12.886  1.00 26.66 LIG-0.00  A 
ATOM     46  CE3 TRP P 344      22.323   7.822 -12.136  1.00 26.53 LIG 0.01  A 
ATOM     47  CE2 TRP P 344      21.791  10.170 -12.391  1.00 26.53 LIG 0.04  A 
ATOM     48  CZ3 TRP P 344      21.630   7.845 -10.923  1.00 24.28 LIG 0.00  A 
ATOM     49  CH2 TRP P 344      21.026   9.027 -10.463  1.00 25.87 LIG 0.00  A 
ATOM     50  CZ2 TRP P 344      21.096  10.196 -11.181  1.00 24.89 LIG 0.03  A 
ATOM     51  NE1 TRP P 344      22.019  11.169 -13.300  1.00 27.39 LIG-0.36  N 
ATOM     52  CD1 TRP P 344      22.754  10.663 -14.346  1.00 29.08 LIG 0.10  A 
ATOM     53 HE1  TRP P 344      21.747  11.981 -13.227  1.00 27.39 LIG 0.17  HD
ENDBRANCH 43 44
ENDBRANCH 1 43
TORSDOF 19
ENDMDL
MODEL 21
USER: ADFR SOLUTION from run 53
USER: SCORE 16.143318 LL:  -4.687 LR: -12.462 RR:   0.000 FEB:  -6.795
USER: RMSD 7.818072
USER: SEED 52
USER: STATUS no improvement in best in 12 clusters for 5 generations
USER: GENES 21
USER: genes 0 Translation |==|  0.32004 0.44771 0.54802
USER: genes 1 Rotation |==|  0.38860 0.56159 0.29006 0.93557
USER: genes 2 Torsion [C]-CA--N-[C] |==|  0.60010
USER: genes 3 Torsion [N]-C--CA-[N] |==|  0.89136
USER: genes 4 Torsion [N]-C--CA-[N] |==|  0.46192
USER: genes 5 Torsion [C]-CA--CB-[CG] |==|  0.73532
USER: genes 6 Torsion [CA]-CB--CG-[OD1] |==|  0.83168
USER: genes 7 Torsion [C]-CA--N-[C] |==|  0.64371
USER: genes 8 Torsion [N]-C--CA-[N] |==|  0.71810
USER: genes 9 Torsion [C]-CA--CB-[OG] |==|  0.64617
USER: genes 10 Torsion [CA]-CB--OG-[HG] |==|  0.70310
USER: genes 11 Torsion [N]-CA--C-[N] |==|  0.70867
USER: genes 12 Torsion [C]-N--CA-[C] |==|  0.21719
USER: genes 13 Torsion [N]-CA--C-[O] |==|  0.53981
USER: genes 14 Torsion [N]-CA--CB-[CG] |==|  0.70790
USER: genes 15 Torsion [CA]-CB--CG-[CD] |==|  0.68148
USER: genes 16 Torsion [CB]-CG--CD-[CE] |==|  0.79058
USER: genes 17 Torsion [CG]-CD--CE-[NZ] |==|  0.12299
USER: genes 18 Torsion [CD]-CE--NZ-[HZ2] |==|  0.12214
USER: genes 19 Torsion [N]-CA--CB-[CG] |==|  0.67857
USER: genes 20 Torsion [CA]-CB--CG-[CD2] |==|  0.91035
ROOT
ATOM      1  CA  TRP P 344      22.787   7.249 -15.523  1.00 32.15 LIG 0.18  C 
ENDROOT
BRANCH 1 2
ATOM      2  N   TRP P 344      24.044   7.029 -16.209  1.00 31.29 LIG-0.35  N 
ATOM      3 H    TRP P 344      23.974   6.684 -16.994  1.00 31.29 LIG 0.16  HD
ATOM      4  C   PRO P 343      25.195   7.351 -15.630  1.00 32.37 LIG 0.24  C 
ATOM      5 O    PRO P 343      25.269   7.787 -14.481  1.00 31.41 LIG-0.27  OA
BRANCH 4 6
ATOM      6  CA  PRO P 343      26.454   7.138 -16.460  1.00 33.03 LIG 0.18  C 
ATOM      7  N   PRO P 343      26.421   5.912 -17.263  1.00 34.38 LIG-0.34  N 
ATOM      8  C   ASP P 342      26.339   4.696 -16.707  1.00 36.67 LIG 0.24  C 
ATOM      9  CD  PRO P 343      26.215   6.233 -18.687  1.00 33.21 LIG 0.13  C 
ATOM     10 O    ASP P 342      26.270   4.539 -15.488  1.00 37.60 LIG-0.27  OA
ATOM     11  CG  PRO P 343      25.774   7.686 -18.634  1.00 33.09 LIG 0.02  C 
ATOM     12  CB  PRO P 343      26.619   8.221 -17.510  1.00 32.10 LIG 0.04  C 
BRANCH 8 13
ATOM     13  CA  ASP P 342      26.320   3.496 -17.651  1.00 38.79 LIG 0.19  C 
BRANCH 13 14
ATOM     14  CB  ASP P 342      24.963   3.403 -18.351  1.00 38.78 LIG 0.15  C 
BRANCH 14 15
ATOM     15  CG  ASP P 342      24.012   2.458 -17.647  1.00 39.37 LIG 0.17  C 
ATOM     16 OD2  ASP P 342      22.934   2.910 -17.211  1.00 39.72 LIG-0.65  OA
ATOM     17 OD1  ASP P 342      24.340   1.260 -17.534  1.00 40.57 LIG-0.65  OA
ENDBRANCH 14 15
ENDBRANCH 13 14
BRANCH 13 18
ATOM     18  N   ASP P 342      26.557   2.304 -16.853  1.00 40.71 LIG-0.34  N 
ATOM     19 H    ASP P 342      26.043   2.224 -16.169  1.00 40.71 LIG 0.16  HD
ATOM     20  C   SER P 341      27.500   1.430 -17.182  1.00 42.75 LIG 0.26  C 
ATOM     21 O    SER P 341      28.208   1.558 -18.183  1.00 44.14 LIG-0.27  OA
BRANCH 20 22
ATOM     22  CA  SER P 341      27.662   0.224 -16.253  1.00 43.56 LIG 0.42  C 
ATOM     23  N   SER P 341      28.831   0.395 -15.334  1.00 43.48 LIG 0.62  N 
BRANCH 22 24
ATOM     24  CB  SER P 341      26.377   0.030 -15.439  1.00 43.44 LIG 0.21  C 
BRANCH 24 25
ATOM     25 OG   SER P 341      26.665  -0.039 -14.050  1.00 45.13 LIG-0.40  OA
ATOM     26 HG   SER P 341      26.577  -0.832 -13.785  1.00 45.13 LIG 0.21  HD
ENDBRANCH 24 25
ENDBRANCH 22 24
ENDBRANCH 20 22
ENDBRANCH 13 18
ENDBRANCH 8 13
ENDBRANCH 4 6
ENDBRANCH 1 2
BRANCH 1 27
ATOM     27  C   TRP P 344      21.707   6.212 -15.750  1.00 32.97 LIG 0.24  C 
ATOM     28 O    TRP P 344      21.782   5.119 -15.200  1.00 31.81 LIG-0.27  OA
ATOM     29  N   LYS P 345      20.702   6.543 -16.552  1.00 34.20 LIG-0.34  N 
ATOM     30 H    LYS P 345      20.608   7.307 -16.937  1.00 34.20 LIG 0.16  HD
BRANCH 29 31
ATOM     31  CA  LYS P 345      19.652   5.570 -16.832  1.00 35.76 LIG 0.18  C 
BRANCH 31 32
ATOM     32  C   LYS P 345      18.649   5.447 -15.691  1.00 35.89 LIG 0.20  C 
ATOM     33 O    LYS P 345      17.881   4.461 -15.709  1.00 35.39 LIG-0.65  OA
ATOM     34 OXT  LYS P 345      18.663   6.319 -14.790  1.00 36.91 LIG-0.65  OA
ENDBRANCH 31 32
BRANCH 31 35
ATOM     35  CB  LYS P 345      20.257   4.202 -17.157  1.00 34.89 LIG 0.04  C 
BRANCH 35 36
ATOM     36  CG  LYS P 345      20.204   3.851 -18.647  1.00 33.69 LIG 0.00  C 
BRANCH 36 37
ATOM     37  CD  LYS P 345      19.305   2.660 -18.945  1.00 29.41 LIG 0.03  C 
BRANCH 37 38
ATOM     38  CE  LYS P 345      19.970   1.345 -18.543  1.00 29.69 LIG 0.23  C 
BRANCH 38 39
ATOM     39  NZ  LYS P 345      20.640   1.377 -17.209  1.00 27.83 LIG-0.08  N 
ATOM     40 HZ3  LYS P 345      20.798   0.544 -16.937  1.00 27.83 LIG 0.27  HD
ATOM     41 HZ1  LYS P 345      21.410   1.819 -17.274  1.00 27.83 LIG 0.27  HD
ATOM     42 HZ2  LYS P 345      20.113   1.786 -16.621  1.00 27.83 LIG 0.27  HD
ENDBRANCH 38 39
ENDBRANCH 37 38
ENDBRANCH 36 37
ENDBRANCH 35 36
ENDBRANCH 31 35
ENDBRANCH 29 31
ENDBRANCH 1 27
BRANCH 1 43
ATOM     43  CB  TRP P 344      22.251   8.647 -15.838  1.00 30.74 LIG 0.07  C 
BRANCH 43 44
ATOM     44  CG  TRP P 344      22.192   9.518 -14.622  1.00 29.17 LIG-0.03  A 
ATOM     45  CD2 TRP P 344      21.938   9.092 -13.276  1.00 26.66 LIG-0.00  A 
ATOM     46  CE3 TRP P 344      21.660   7.852 -12.686  1.00 26.53 LIG 0.01  A 
ATOM     47  CE2 TRP P 344      22.005  10.238 -12.457  1.00 26.53 LIG 0.04  A 
ATOM     48  CZ3 TRP P 344      21.459   7.796 -11.305  1.00 24.28 LIG 0.00  A 
ATOM     49  CH2 TRP P 344      21.532   8.959 -10.520  1.00 25.87 LIG 0.00  A 
ATOM     50  CZ2 TRP P 344      21.804  10.186 -11.077  1.00 24.89 LIG 0.03  A 
ATOM     51  NE1 TRP P 344      22.289  11.305 -13.268  1.00 27.39 LIG-0.36  N 
ATOM     52  CD1 TRP P 344      22.396  10.864 -14.566  1.00 29.08 LIG 0.10  A 
ATOM     53 HE1  TRP P 344      22.384  12.118 -13.008  1.00 27.39 LIG 0.17  HD
ENDBRANCH 43 44
ENDBRANCH 1 43
TORSDOF 19
ENDMDL
