MODEL 1
USER: ADFR SOLUTION from run 196
USER: SCORE 16.384214 LL:  -2.908 LR: -14.224 RR:   0.000 FEB:  -8.556
USER: RMSD 8.731225
USER: SEED 195
USER: STATUS no improvement in best in 2 clusters for 5 generations
USER: GENES 21
USER: genes 0 Translation |==|  0.40306 0.35673 0.49694
USER: genes 1 Rotation |==|  0.17424 0.76378 0.34143 0.72172
USER: genes 2 Torsion [C]-N--CA-[C] |==|  0.16614
USER: genes 3 Torsion [N]-CA--C-[N] |==|  0.19150
USER: genes 4 Torsion [C]-N--CA-[CB] |==|  0.76280
USER: genes 5 Torsion [N]-CA--C-[O] |==|  0.63772
USER: genes 6 Torsion [N]-CA--CB-[CG] |==|  0.85979
USER: genes 7 Torsion [CA]-CB--CG-[CD] |==|  0.33575
USER: genes 8 Torsion [CB]-CG--CD-[CE] |==|  0.27138
USER: genes 9 Torsion [CG]-CD--CE-[NZ] |==|  0.43688
USER: genes 10 Torsion [CD]-CE--NZ-[HZ2] |==|  0.48840
USER: genes 11 Torsion [N]-CA--CB-[CG] |==|  0.67685
USER: genes 12 Torsion [CA]-CB--CG-[CD1] |==|  0.91459
USER: genes 13 Torsion [O]-C--CA-[CB] |==|  0.67059
USER: genes 14 Torsion [N]-C--CA-[N] |==|  0.30043
USER: genes 15 Torsion [C]-CA--CB-[CG] |==|  0.18620
USER: genes 16 Torsion [CA]-CB--CG-[OD1] |==|  0.81625
USER: genes 17 Torsion [C]-CA--N-[C] |==|  0.75581
USER: genes 18 Torsion [N]-C--CA-[N] |==|  0.40820
USER: genes 19 Torsion [C]-CA--CB-[OG] |==|  0.25215
USER: genes 20 Torsion [CA]-CB--OG-[HG] |==|  0.04052
ROOT
ATOM      1  C   PRO P 630      23.439   6.878 -16.405  1.00 36.04 LIG 0.24  C 
ATOM      2 O    PRO P 630      24.380   6.328 -15.795  1.00 33.55 LIG-0.27  OA
ATOM      3  N   PHE P 631      22.903   8.039 -16.038  1.00 24.81 LIG-0.35  N 
ATOM      4 H    PHE P 631      22.256   8.414 -16.462  1.00 24.81 LIG 0.16  HD
ENDROOT
BRANCH 3 5
ATOM      5  CA  PHE P 631      23.354   8.786 -14.891  1.00 30.16 LIG 0.18  C 
BRANCH 5 6
ATOM      6  C   PHE P 631      24.853   9.135 -15.096  1.00 46.65 LIG 0.24  C 
ATOM      7  N   LYS P 632      25.113  10.010 -16.052  1.00 37.40 LIG-0.34  N 
ATOM      8 H    LYS P 632      24.504  10.353 -16.552  1.00 37.40 LIG 0.16  HD
ATOM      9 O    PHE P 631      25.645   8.514 -14.375  1.00 54.45 LIG-0.27  OA
BRANCH 7 10
ATOM     10  CA  LYS P 632      26.483  10.496 -16.367  1.00 44.88 LIG 0.18  C 
BRANCH 10 11
ATOM     11  C   LYS P 632      27.482   9.346 -16.323  1.00 45.53 LIG 0.20  C 
ATOM     12 O    LYS P 632      28.548   9.434 -15.682  1.00 61.11 LIG-0.65  OA
ATOM     13 OXT  LYS P 632      27.189   8.301 -16.952  1.00 57.29 LIG-0.65  OA
ENDBRANCH 10 11
BRANCH 10 14
ATOM     14  CB  LYS P 632      26.852  11.662 -15.472  1.00 47.81 LIG 0.04  C 
BRANCH 14 15
ATOM     15  CG  LYS P 632      25.975  12.882 -15.266  1.00 54.84 LIG 0.00  C 
BRANCH 15 16
ATOM     16  CD  LYS P 632      25.657  12.978 -13.760  1.00 63.82 LIG 0.03  C 
BRANCH 16 17
ATOM     17  CE  LYS P 632      26.619  13.975 -13.114  1.00 66.19 LIG 0.23  C 
BRANCH 17 18
ATOM     18  NZ  LYS P 632      26.091  14.544 -11.846  1.00 52.45 LIG-0.08  N 
ATOM     19 HZ2  LYS P 632      26.707  15.070 -11.476  1.00 52.45 LIG 0.27  HD
ATOM     20 HZ1  LYS P 632      25.891  13.883 -11.285  1.00 52.45 LIG 0.27  HD
ATOM     21 HZ3  LYS P 632      25.358  15.020 -12.016  1.00 52.45 LIG 0.27  HD
ENDBRANCH 17 18
ENDBRANCH 16 17
ENDBRANCH 15 16
ENDBRANCH 14 15
ENDBRANCH 10 14
ENDBRANCH 7 10
ENDBRANCH 5 6
BRANCH 5 22
ATOM     22  CB  PHE P 631      23.260   8.103 -13.535  1.00 25.51 LIG 0.07  C 
BRANCH 22 23
ATOM     23  CG  PHE P 631      22.333   8.706 -12.474  1.00 27.58 LIG-0.06  A 
ATOM     24  CD1 PHE P 631      22.037  10.062 -12.353  1.00 30.72 LIG 0.01  A 
ATOM     25  CE1 PHE P 631      21.189  10.511 -11.351  1.00 26.28 LIG 0.00  A 
ATOM     26  CZ  PHE P 631      20.627   9.613 -10.467  1.00 23.54 LIG 0.00  A 
ATOM     27  CE2 PHE P 631      20.913   8.260 -10.571  1.00 23.94 LIG 0.00  A 
ATOM     28  CD2 PHE P 631      21.761   7.853 -11.554  1.00 24.70 LIG 0.01  A 
ENDBRANCH 22 23
ENDBRANCH 5 22
ENDBRANCH 3 5
BRANCH 1 29
ATOM     29  CA  PRO P 630      22.893   6.170 -17.628  1.00 22.29 LIG 0.18  C 
ATOM     30  CB  PRO P 630      23.044   6.985 -18.902  1.00 25.21 LIG 0.04  C 
ATOM     31  CG  PRO P 630      21.721   7.664 -19.087  1.00 30.73 LIG 0.02  C 
ATOM     32  CD  PRO P 630      20.682   6.769 -18.460  1.00 29.29 LIG 0.13  C 
ATOM     33  N   PRO P 630      21.443   5.951 -17.523  1.00 28.31 LIG-0.34  N 
ATOM     34  C   ASP P 629      21.014   5.058 -16.622  1.00 28.38 LIG 0.24  C 
ATOM     35 O    ASP P 629      21.788   4.540 -15.803  1.00 35.14 LIG-0.27  OA
BRANCH 34 36
ATOM     36  CA  ASP P 629      19.544   4.709 -16.623  1.00 31.37 LIG 0.19  C 
BRANCH 36 37
ATOM     37  CB  ASP P 629      18.921   4.746 -15.213  1.00 29.57 LIG 0.15  C 
BRANCH 37 38
ATOM     38  CG  ASP P 629      18.899   6.167 -14.681  1.00 37.10 LIG 0.17  C 
ATOM     39 OD2  ASP P 629      17.800   6.727 -14.467  1.00 43.68 LIG-0.65  OA
ATOM     40 OD1  ASP P 629      19.986   6.733 -14.442  1.00 36.00 LIG-0.65  OA
ENDBRANCH 37 38
ENDBRANCH 36 37
BRANCH 36 41
ATOM     41  N   ASP P 629      19.356   3.371 -17.141  1.00 43.53 LIG-0.34  N 
ATOM     42 H    ASP P 629      19.357   2.788 -16.509  1.00 43.53 LIG 0.16  HD
ATOM     43  C   SER P 628      19.198   2.997 -18.394  1.00 52.75 LIG 0.26  C 
ATOM     44 O    SER P 628      19.153   3.752 -19.363  1.00 74.95 LIG-0.27  OA
BRANCH 43 45
ATOM     45  CA  SER P 628      19.057   1.476 -18.536  1.00 53.54 LIG 0.42  C 
ATOM     46  N   SER P 628      18.173   1.086 -19.633  1.00 68.72 LIG 0.62  N 
BRANCH 45 47
ATOM     47  CB  SER P 628      20.460   0.903 -18.756  1.00 49.52 LIG 0.21  C 
BRANCH 47 48
ATOM     48 OG   SER P 628      21.079   0.557 -17.526  1.00 73.20 LIG-0.40  OA
ATOM     49 HG   SER P 628      20.502   0.539 -16.916  1.00 73.20 LIG 0.21  HD
ENDBRANCH 47 48
ENDBRANCH 45 47
ENDBRANCH 43 45
ENDBRANCH 36 41
ENDBRANCH 34 36
ENDBRANCH 1 29
TORSDOF 19
ENDMDL
MODEL 2
USER: ADFR SOLUTION from run 88
USER: SCORE 16.603448 LL:  -3.128 LR: -13.713 RR:   0.000 FEB:  -8.046
USER: RMSD 8.312710
USER: SEED 87
USER: STATUS no improvement in best in 1 clusters for 5 generations
USER: GENES 21
USER: genes 0 Translation |==|  0.44617 0.45873 0.53514
USER: genes 1 Rotation |==|  0.92917 0.40825 0.26382 0.54018
USER: genes 2 Torsion [C]-N--CA-[C] |==|  0.78333
USER: genes 3 Torsion [N]-CA--C-[N] |==|  0.00480
USER: genes 4 Torsion [C]-N--CA-[CB] |==|  0.16010
USER: genes 5 Torsion [N]-CA--C-[O] |==|  0.16182
USER: genes 6 Torsion [N]-CA--CB-[CG] |==|  0.73925
USER: genes 7 Torsion [CA]-CB--CG-[CD] |==|  0.51981
USER: genes 8 Torsion [CB]-CG--CD-[CE] |==|  0.60734
USER: genes 9 Torsion [CG]-CD--CE-[NZ] |==|  0.30651
USER: genes 10 Torsion [CD]-CE--NZ-[HZ2] |==|  0.88589
USER: genes 11 Torsion [N]-CA--CB-[CG] |==|  0.99035
USER: genes 12 Torsion [CA]-CB--CG-[CD1] |==|  0.39885
USER: genes 13 Torsion [O]-C--CA-[CB] |==|  0.19662
USER: genes 14 Torsion [N]-C--CA-[N] |==|  0.35681
USER: genes 15 Torsion [C]-CA--CB-[CG] |==|  0.81589
USER: genes 16 Torsion [CA]-CB--CG-[OD1] |==|  0.30868
USER: genes 17 Torsion [C]-CA--N-[C] |==|  0.87125
USER: genes 18 Torsion [N]-C--CA-[N] |==|  0.85863
USER: genes 19 Torsion [C]-CA--CB-[OG] |==|  0.13232
USER: genes 20 Torsion [CA]-CB--OG-[HG] |==|  0.24427
ROOT
ATOM      1  C   PRO P 630      24.118   9.173 -15.718  1.00 36.04 LIG 0.24  C 
ATOM      2 O    PRO P 630      24.314   9.743 -16.812  1.00 33.55 LIG-0.27  OA
ATOM      3  N   PHE P 631      23.825   9.820 -14.593  1.00 24.81 LIG-0.35  N 
ATOM      4 H    PHE P 631      23.691   9.423 -13.842  1.00 24.81 LIG 0.16  HD
ENDROOT
BRANCH 3 5
ATOM      5  CA  PHE P 631      23.703  11.255 -14.521  1.00 30.16 LIG 0.18  C 
BRANCH 5 6
ATOM      6  C   PHE P 631      25.132  11.864 -14.489  1.00 46.65 LIG 0.24  C 
ATOM      7  N   LYS P 632      26.127  10.999 -14.568  1.00 37.40 LIG-0.34  N 
ATOM      8 H    LYS P 632      26.007  10.149 -14.610  1.00 37.40 LIG 0.16  HD
ATOM      9 O    PHE P 631      25.180  13.093 -14.339  1.00 54.45 LIG-0.27  OA
BRANCH 7 10
ATOM     10  CA  LYS P 632      27.559  11.398 -14.593  1.00 44.88 LIG 0.18  C 
BRANCH 10 11
ATOM     11  C   LYS P 632      28.451  10.181 -14.802  1.00 45.53 LIG 0.20  C 
ATOM     12 O    LYS P 632      28.331   9.450 -15.806  1.00 61.11 LIG-0.65  OA
ATOM     13 OXT  LYS P 632      29.321   9.943 -13.929  1.00 57.29 LIG-0.65  OA
ENDBRANCH 10 11
BRANCH 10 14
ATOM     14  CB  LYS P 632      27.907  12.207 -13.359  1.00 47.81 LIG 0.04  C 
BRANCH 14 15
ATOM     15  CG  LYS P 632      27.876  13.722 -13.303  1.00 54.84 LIG 0.00  C 
BRANCH 15 16
ATOM     16  CD  LYS P 632      28.464  14.150 -11.944  1.00 63.82 LIG 0.03  C 
BRANCH 16 17
ATOM     17  CE  LYS P 632      27.667  15.342 -11.413  1.00 66.19 LIG 0.23  C 
BRANCH 17 18
ATOM     18  NZ  LYS P 632      26.841  14.998 -10.225  1.00 52.45 LIG-0.08  N 
ATOM     19 HZ2  LYS P 632      26.466  14.200 -10.344  1.00 52.45 LIG 0.27  HD
ATOM     20 HZ1  LYS P 632      26.205  15.611 -10.118  1.00 52.45 LIG 0.27  HD
ATOM     21 HZ3  LYS P 632      27.358  14.977  -9.500  1.00 52.45 LIG 0.27  HD
ENDBRANCH 17 18
ENDBRANCH 16 17
ENDBRANCH 15 16
ENDBRANCH 14 15
ENDBRANCH 10 14
ENDBRANCH 7 10
ENDBRANCH 5 6
BRANCH 5 22
ATOM     22  CB  PHE P 631      22.970  11.831 -13.320  1.00 25.51 LIG 0.07  C 
BRANCH 22 23
ATOM     23  CG  PHE P 631      22.341  10.864 -12.312  1.00 27.58 LIG-0.06  A 
ATOM     24  CD1 PHE P 631      22.293  11.068 -10.934  1.00 30.72 LIG 0.01  A 
ATOM     25  CE1 PHE P 631      21.707  10.126 -10.102  1.00 26.28 LIG 0.00  A 
ATOM     26  CZ  PHE P 631      21.161   8.977 -10.635  1.00 23.54 LIG 0.00  A 
ATOM     27  CE2 PHE P 631      21.201   8.756 -12.004  1.00 23.94 LIG 0.00  A 
ATOM     28  CD2 PHE P 631      21.798   9.691 -12.792  1.00 24.70 LIG 0.01  A 
ENDBRANCH 22 23
ENDBRANCH 5 22
ENDBRANCH 3 5
BRANCH 1 29
ATOM     29  CA  PRO P 630      24.225   7.662 -15.690  1.00 22.29 LIG 0.18  C 
ATOM     30  CB  PRO P 630      25.654   7.166 -15.849  1.00 25.21 LIG 0.04  C 
ATOM     31  CG  PRO P 630      25.790   6.840 -17.306  1.00 30.73 LIG 0.02  C 
ATOM     32  CD  PRO P 630      24.417   6.445 -17.793  1.00 29.29 LIG 0.13  C 
ATOM     33  N   PRO P 630      23.514   7.049 -16.821  1.00 28.31 LIG-0.34  N 
ATOM     34  C   ASP P 629      22.176   7.110 -16.818  1.00 28.38 LIG 0.24  C 
ATOM     35 O    ASP P 629      21.559   7.781 -15.978  1.00 35.14 LIG-0.27  OA
BRANCH 34 36
ATOM     36  CA  ASP P 629      21.436   6.342 -17.889  1.00 31.37 LIG 0.19  C 
BRANCH 36 37
ATOM     37  CB  ASP P 629      20.727   7.264 -18.901  1.00 29.57 LIG 0.15  C 
BRANCH 37 38
ATOM     38  CG  ASP P 629      19.609   8.034 -18.225  1.00 37.10 LIG 0.17  C 
ATOM     39 OD2  ASP P 629      18.601   7.417 -17.810  1.00 43.68 LIG-0.65  OA
ATOM     40 OD1  ASP P 629      19.737   9.266 -18.075  1.00 36.00 LIG-0.65  OA
ENDBRANCH 37 38
ENDBRANCH 36 37
BRANCH 36 41
ATOM     41  N   ASP P 629      20.420   5.508 -17.282  1.00 43.53 LIG-0.34  N 
ATOM     42 H    ASP P 629      19.670   5.578 -17.697  1.00 43.53 LIG 0.16  HD
ATOM     43  C   SER P 628      20.534   4.717 -16.235  1.00 52.75 LIG 0.26  C 
ATOM     44 O    SER P 628      21.564   4.527 -15.595  1.00 74.95 LIG-0.27  OA
BRANCH 43 45
ATOM     45  CA  SER P 628      19.213   4.019 -15.885  1.00 53.54 LIG 0.42  C 
ATOM     46  N   SER P 628      18.089   4.948 -15.776  1.00 68.72 LIG 0.62  N 
BRANCH 45 47
ATOM     47  CB  SER P 628      18.940   2.980 -16.976  1.00 49.52 LIG 0.21  C 
BRANCH 47 48
ATOM     48 OG   SER P 628      20.091   2.192 -17.244  1.00 73.20 LIG-0.40  OA
ATOM     49 HG   SER P 628      20.106   1.531 -16.726  1.00 73.20 LIG 0.21  HD
ENDBRANCH 47 48
ENDBRANCH 45 47
ENDBRANCH 43 45
ENDBRANCH 36 41
ENDBRANCH 34 36
ENDBRANCH 1 29
TORSDOF 19
ENDMDL
MODEL 3
USER: ADFR SOLUTION from run 131
USER: SCORE 16.123091 LL:  -2.920 LR: -13.519 RR:   0.000 FEB:  -7.851
USER: RMSD 4.895635
USER: SEED 130
USER: STATUS no improvement in best in 18 clusters for 5 generations
USER: GENES 21
USER: genes 0 Translation |==|  0.44503 0.47710 0.53707
USER: genes 1 Rotation |==|  0.46125 0.63554 0.54064 0.97799
USER: genes 2 Torsion [C]-N--CA-[C] |==|  0.73333
USER: genes 3 Torsion [N]-CA--C-[N] |==|  0.88077
USER: genes 4 Torsion [C]-N--CA-[CB] |==|  0.14547
USER: genes 5 Torsion [N]-CA--C-[O] |==|  0.48543
USER: genes 6 Torsion [N]-CA--CB-[CG] |==|  0.15923
USER: genes 7 Torsion [CA]-CB--CG-[CD] |==|  0.51988
USER: genes 8 Torsion [CB]-CG--CD-[CE] |==|  0.85128
USER: genes 9 Torsion [CG]-CD--CE-[NZ] |==|  0.36192
USER: genes 10 Torsion [CD]-CE--NZ-[HZ2] |==|  0.98630
USER: genes 11 Torsion [N]-CA--CB-[CG] |==|  0.87145
USER: genes 12 Torsion [CA]-CB--CG-[CD1] |==|  0.61924
USER: genes 13 Torsion [O]-C--CA-[CB] |==|  0.28101
USER: genes 14 Torsion [N]-C--CA-[N] |==|  0.41228
USER: genes 15 Torsion [C]-CA--CB-[CG] |==|  0.04502
USER: genes 16 Torsion [CA]-CB--CG-[OD1] |==|  0.74147
USER: genes 17 Torsion [C]-CA--N-[C] |==|  0.77801
USER: genes 18 Torsion [N]-C--CA-[N] |==|  0.33799
USER: genes 19 Torsion [C]-CA--CB-[OG] |==|  0.39681
USER: genes 20 Torsion [CA]-CB--OG-[HG] |==|  0.61243
ROOT
ATOM      1  C   PRO P 630      24.100   9.587 -15.683  1.00 36.04 LIG 0.24  C 
ATOM      2 O    PRO P 630      25.118   8.868 -15.598  1.00 33.55 LIG-0.27  OA
ATOM      3  N   PHE P 631      22.893   9.207 -15.273  1.00 24.81 LIG-0.35  N 
ATOM      4 H    PHE P 631      22.196   9.706 -15.333  1.00 24.81 LIG 0.16  HD
ENDROOT
BRANCH 3 5
ATOM      5  CA  PHE P 631      22.633   7.916 -14.686  1.00 30.16 LIG 0.18  C 
BRANCH 5 6
ATOM      6  C   PHE P 631      22.118   6.968 -15.803  1.00 46.65 LIG 0.24  C 
ATOM      7  N   LYS P 632      21.235   7.490 -16.637  1.00 37.40 LIG-0.34  N 
ATOM      8 H    LYS P 632      20.939   8.293 -16.564  1.00 37.40 LIG 0.16  HD
ATOM      9 O    PHE P 631      22.552   5.809 -15.755  1.00 54.45 LIG-0.27  OA
BRANCH 7 10
ATOM     10  CA  LYS P 632      20.661   6.747 -17.791  1.00 44.88 LIG 0.18  C 
BRANCH 10 11
ATOM     11  C   LYS P 632      19.665   7.619 -18.546  1.00 45.53 LIG 0.20  C 
ATOM     12 O    LYS P 632      19.134   7.232 -19.606  1.00 61.11 LIG-0.65  OA
ATOM     13 OXT  LYS P 632      19.390   8.741 -18.056  1.00 57.29 LIG-0.65  OA
ENDBRANCH 10 11
BRANCH 10 14
ATOM     14  CB  LYS P 632      20.092   5.418 -17.337  1.00 47.81 LIG 0.04  C 
BRANCH 14 15
ATOM     15  CG  LYS P 632      19.020   5.275 -16.274  1.00 54.84 LIG 0.00  C 
BRANCH 15 16
ATOM     16  CD  LYS P 632      18.853   3.771 -15.980  1.00 63.82 LIG 0.03  C 
BRANCH 16 17
ATOM     17  CE  LYS P 632      18.595   3.036 -17.296  1.00 66.19 LIG 0.23  C 
BRANCH 17 18
ATOM     18  NZ  LYS P 632      19.477   1.852 -17.475  1.00 52.45 LIG-0.08  N 
ATOM     19 HZ2  LYS P 632      20.063   1.814 -16.807  1.00 52.45 LIG 0.27  HD
ATOM     20 HZ1  LYS P 632      19.913   1.921 -18.248  1.00 52.45 LIG 0.27  HD
ATOM     21 HZ3  LYS P 632      18.983   1.111 -17.479  1.00 52.45 LIG 0.27  HD
ENDBRANCH 17 18
ENDBRANCH 16 17
ENDBRANCH 15 16
ENDBRANCH 14 15
ENDBRANCH 10 14
ENDBRANCH 7 10
ENDBRANCH 5 6
BRANCH 5 22
ATOM     22  CB  PHE P 631      21.603   7.855 -13.570  1.00 25.51 LIG 0.07  C 
BRANCH 22 23
ATOM     23  CG  PHE P 631      21.672   8.899 -12.450  1.00 27.58 LIG-0.06  A 
ATOM     24  CD1 PHE P 631      21.511   8.625 -11.094  1.00 30.72 LIG 0.01  A 
ATOM     25  CE1 PHE P 631      21.584   9.643 -10.155  1.00 26.28 LIG 0.00  A 
ATOM     26  CZ  PHE P 631      21.821  10.941 -10.560  1.00 23.54 LIG 0.00  A 
ATOM     27  CE2 PHE P 631      21.982  11.233 -11.906  1.00 23.94 LIG 0.00  A 
ATOM     28  CD2 PHE P 631      21.889  10.214 -12.804  1.00 24.70 LIG 0.01  A 
ENDBRANCH 22 23
ENDBRANCH 5 22
ENDBRANCH 3 5
BRANCH 1 29
ATOM     29  CA  PRO P 630      24.271  10.965 -16.288  1.00 22.29 LIG 0.18  C 
ATOM     30  CB  PRO P 630      23.813  11.037 -17.737  1.00 25.21 LIG 0.04  C 
ATOM     31  CG  PRO P 630      25.062  10.866 -18.547  1.00 30.73 LIG 0.02  C 
ATOM     32  CD  PRO P 630      26.197  11.407 -17.714  1.00 29.29 LIG 0.13  C 
ATOM     33  N   PRO P 630      25.686  11.357 -16.350  1.00 28.31 LIG-0.34  N 
ATOM     34  C   ASP P 629      26.307  11.619 -15.192  1.00 28.38 LIG 0.24  C 
ATOM     35 O    ASP P 629      25.763  11.400 -14.100  1.00 35.14 LIG-0.27  OA
BRANCH 34 36
ATOM     36  CA  ASP P 629      27.709  12.180 -15.258  1.00 31.37 LIG 0.19  C 
BRANCH 36 37
ATOM     37  CB  ASP P 629      28.792  11.083 -15.222  1.00 29.57 LIG 0.15  C 
BRANCH 37 38
ATOM     38  CG  ASP P 629      28.183   9.727 -15.526  1.00 37.10 LIG 0.17  C 
ATOM     39 OD2  ASP P 629      28.101   9.343 -16.714  1.00 43.68 LIG-0.65  OA
ATOM     40 OD1  ASP P 629      27.805   9.014 -14.574  1.00 36.00 LIG-0.65  OA
ENDBRANCH 37 38
ENDBRANCH 36 37
BRANCH 36 41
ATOM     41  N   ASP P 629      27.943  13.054 -14.129  1.00 43.53 LIG-0.34  N 
ATOM     42 H    ASP P 629      28.389  12.654 -13.511  1.00 43.53 LIG 0.16  HD
ATOM     43  C   SER P 628      27.564  14.306 -13.976  1.00 52.75 LIG 0.26  C 
ATOM     44 O    SER P 628      26.953  14.972 -14.807  1.00 74.95 LIG-0.27  OA
BRANCH 43 45
ATOM     45  CA  SER P 628      27.985  14.881 -12.616  1.00 53.54 LIG 0.42  C 
ATOM     46  N   SER P 628      28.830  16.067 -12.736  1.00 68.72 LIG 0.62  N 
BRANCH 45 47
ATOM     47  CB  SER P 628      26.705  15.216 -11.844  1.00 49.52 LIG 0.21  C 
BRANCH 47 48
ATOM     48 OG   SER P 628      26.845  14.937 -10.459  1.00 73.20 LIG-0.40  OA
ATOM     49 HG   SER P 628      26.136  14.592 -10.168  1.00 73.20 LIG 0.21  HD
ENDBRANCH 47 48
ENDBRANCH 45 47
ENDBRANCH 43 45
ENDBRANCH 36 41
ENDBRANCH 34 36
ENDBRANCH 1 29
TORSDOF 19
ENDMDL
MODEL 4
USER: ADFR SOLUTION from run 126
USER: SCORE 15.124203 LL:  -2.777 LR: -13.365 RR:   0.000 FEB:  -7.697
USER: RMSD 8.351438
USER: SEED 125
USER: STATUS no improvement in best in 3 clusters for 5 generations
USER: GENES 21
USER: genes 0 Translation |==|  0.35295 0.55484 0.63501
USER: genes 1 Rotation |==|  0.72403 0.47743 0.92827 0.62605
USER: genes 2 Torsion [C]-N--CA-[C] |==|  0.21423
USER: genes 3 Torsion [N]-CA--C-[N] |==|  0.42426
USER: genes 4 Torsion [C]-N--CA-[CB] |==|  0.86224
USER: genes 5 Torsion [N]-CA--C-[O] |==|  0.15170
USER: genes 6 Torsion [N]-CA--CB-[CG] |==|  0.84637
USER: genes 7 Torsion [CA]-CB--CG-[CD] |==|  0.33577
USER: genes 8 Torsion [CB]-CG--CD-[CE] |==|  0.37196
USER: genes 9 Torsion [CG]-CD--CE-[NZ] |==|  0.51881
USER: genes 10 Torsion [CD]-CE--NZ-[HZ2] |==|  0.41662
USER: genes 11 Torsion [N]-CA--CB-[CG] |==|  0.85059
USER: genes 12 Torsion [CA]-CB--CG-[CD1] |==|  0.11252
USER: genes 13 Torsion [O]-C--CA-[CB] |==|  0.95877
USER: genes 14 Torsion [N]-C--CA-[N] |==|  0.34016
USER: genes 15 Torsion [C]-CA--CB-[CG] |==|  0.58912
USER: genes 16 Torsion [CA]-CB--CG-[OD1] |==|  0.74554
USER: genes 17 Torsion [C]-CA--N-[C] |==|  0.81521
USER: genes 18 Torsion [N]-C--CA-[N] |==|  0.85228
USER: genes 19 Torsion [C]-CA--CB-[OG] |==|  0.06849
USER: genes 20 Torsion [CA]-CB--OG-[HG] |==|  0.51791
ROOT
ATOM      1  C   PRO P 630      22.650  11.336 -13.920  1.00 36.04 LIG 0.24  C 
ATOM      2 O    PRO P 630      23.071  12.276 -13.213  1.00 33.55 LIG-0.27  OA
ATOM      3  N   PHE P 631      23.081  11.092 -15.154  1.00 24.81 LIG-0.35  N 
ATOM      4 H    PHE P 631      22.788  10.442 -15.636  1.00 24.81 LIG 0.16  HD
ENDROOT
BRANCH 3 5
ATOM      5  CA  PHE P 631      24.084  11.894 -15.810  1.00 30.16 LIG 0.18  C 
BRANCH 5 6
ATOM      6  C   PHE P 631      25.472  11.501 -15.237  1.00 46.65 LIG 0.24  C 
ATOM      7  N   LYS P 632      26.500  11.683 -16.047  1.00 37.40 LIG-0.34  N 
ATOM      8 H    LYS P 632      26.417  11.976 -16.851  1.00 37.40 LIG 0.16  HD
ATOM      9 O    PHE P 631      25.456  11.010 -14.100  1.00 54.45 LIG-0.27  OA
BRANCH 7 10
ATOM     10  CA  LYS P 632      27.909  11.402 -15.660  1.00 44.88 LIG 0.18  C 
BRANCH 10 11
ATOM     11  C   LYS P 632      28.186   9.904 -15.700  1.00 45.53 LIG 0.20  C 
ATOM     12 O    LYS P 632      27.966   9.229 -16.725  1.00 61.11 LIG-0.65  OA
ATOM     13 OXT  LYS P 632      28.654   9.374 -14.663  1.00 57.29 LIG-0.65  OA
ENDBRANCH 10 11
BRANCH 10 14
ATOM     14  CB  LYS P 632      28.232  12.049 -14.328  1.00 47.81 LIG 0.04  C 
BRANCH 14 15
ATOM     15  CG  LYS P 632      28.053  13.527 -14.039  1.00 54.84 LIG 0.00  C 
BRANCH 15 16
ATOM     16  CD  LYS P 632      27.074  13.655 -12.855  1.00 63.82 LIG 0.03  C 
BRANCH 16 17
ATOM     17  CE  LYS P 632      27.638  14.662 -11.853  1.00 66.19 LIG 0.23  C 
BRANCH 17 18
ATOM     18  NZ  LYS P 632      26.841  14.733 -10.599  1.00 52.45 LIG-0.08  N 
ATOM     19 HZ2  LYS P 632      27.374  14.950  -9.920  1.00 52.45 LIG 0.27  HD
ATOM     20 HZ1  LYS P 632      26.466  13.942 -10.440  1.00 52.45 LIG 0.27  HD
ATOM     21 HZ3  LYS P 632      26.205  15.350 -10.686  1.00 52.45 LIG 0.27  HD
ENDBRANCH 17 18
ENDBRANCH 16 17
ENDBRANCH 15 16
ENDBRANCH 14 15
ENDBRANCH 10 14
ENDBRANCH 7 10
ENDBRANCH 5 6
BRANCH 5 22
ATOM     22  CB  PHE P 631      23.975  13.403 -15.660  1.00 25.51 LIG 0.07  C 
BRANCH 22 23
ATOM     23  CG  PHE P 631      22.653  14.083 -16.032  1.00 27.58 LIG-0.06  A 
ATOM     24  CD1 PHE P 631      21.388  13.578 -15.741  1.00 30.72 LIG 0.01  A 
ATOM     25  CE1 PHE P 631      20.248  14.266 -16.129  1.00 26.28 LIG 0.00  A 
ATOM     26  CZ  PHE P 631      20.359  15.464 -16.804  1.00 23.54 LIG 0.00  A 
ATOM     27  CE2 PHE P 631      21.611  15.981 -17.104  1.00 23.94 LIG 0.00  A 
ATOM     28  CD2 PHE P 631      22.710  15.274 -16.725  1.00 24.70 LIG 0.01  A 
ENDBRANCH 22 23
ENDBRANCH 5 22
ENDBRANCH 3 5
BRANCH 1 29
ATOM     29  CA  PRO P 630      21.591  10.434 -13.319  1.00 22.29 LIG 0.18  C 
ATOM     30  CB  PRO P 630      21.458  10.599 -11.813  1.00 25.21 LIG 0.04  C 
ATOM     31  CG  PRO P 630      22.287   9.496 -11.228  1.00 30.73 LIG 0.02  C 
ATOM     32  CD  PRO P 630      22.272   8.365 -12.226  1.00 29.29 LIG 0.13  C 
ATOM     33  N   PRO P 630      21.932   9.014 -13.486  1.00 28.31 LIG-0.34  N 
ATOM     34  C   ASP P 629      21.883   8.507 -14.725  1.00 28.38 LIG 0.24  C 
ATOM     35 O    ASP P 629      21.702   9.230 -15.715  1.00 35.14 LIG-0.27  OA
BRANCH 34 36
ATOM     36  CA  ASP P 629      22.071   7.015 -14.881  1.00 31.37 LIG 0.19  C 
BRANCH 36 37
ATOM     37  CB  ASP P 629      23.313   6.656 -15.720  1.00 29.57 LIG 0.15  C 
BRANCH 37 38
ATOM     38  CG  ASP P 629      23.075   5.374 -16.496  1.00 37.10 LIG 0.17  C 
ATOM     39 OD2  ASP P 629      22.581   5.432 -17.644  1.00 43.68 LIG-0.65  OA
ATOM     40 OD1  ASP P 629      23.408   4.290 -15.975  1.00 36.00 LIG-0.65  OA
ENDBRANCH 37 38
ENDBRANCH 36 37
BRANCH 36 41
ATOM     41  N   ASP P 629      20.921   6.441 -15.547  1.00 43.53 LIG-0.34  N 
ATOM     42 H    ASP P 629      21.129   6.138 -16.324  1.00 43.53 LIG 0.16  HD
ATOM     43  C   SER P 628      19.684   6.352 -15.103  1.00 52.75 LIG 0.26  C 
ATOM     44 O    SER P 628      19.293   6.727 -14.001  1.00 74.95 LIG-0.27  OA
BRANCH 43 45
ATOM     45  CA  SER P 628      18.744   5.699 -16.125  1.00 53.54 LIG 0.42  C 
ATOM     46  N   SER P 628      18.791   6.343 -17.436  1.00 68.72 LIG 0.62  N 
BRANCH 45 47
ATOM     47  CB  SER P 628      19.146   4.225 -16.243  1.00 49.52 LIG 0.21  C 
BRANCH 47 48
ATOM     48 OG   SER P 628      19.802   3.770 -15.068  1.00 73.20 LIG-0.40  OA
ATOM     49 HG   SER P 628      20.090   2.990 -15.191  1.00 73.20 LIG 0.21  HD
ENDBRANCH 47 48
ENDBRANCH 45 47
ENDBRANCH 43 45
ENDBRANCH 36 41
ENDBRANCH 34 36
ENDBRANCH 1 29
TORSDOF 19
ENDMDL
MODEL 5
USER: ADFR SOLUTION from run 17
USER: SCORE 16.400694 LL:  -3.424 LR: -13.296 RR:   0.000 FEB:  -7.628
USER: RMSD 5.247882
USER: SEED 16
USER: STATUS no improvement in best in 4 clusters for 5 generations
USER: GENES 21
USER: genes 0 Translation |==|  0.51885 0.47019 0.54036
USER: genes 1 Rotation |==|  0.40110 0.58065 0.41510 0.97593
USER: genes 2 Torsion [C]-N--CA-[C] |==|  0.74444
USER: genes 3 Torsion [N]-CA--C-[N] |==|  0.47760
USER: genes 4 Torsion [C]-N--CA-[CB] |==|  0.82754
USER: genes 5 Torsion [N]-CA--C-[O] |==|  0.02494
USER: genes 6 Torsion [N]-CA--CB-[CG] |==|  0.64508
USER: genes 7 Torsion [CA]-CB--CG-[CD] |==|  0.91739
USER: genes 8 Torsion [CB]-CG--CD-[CE] |==|  0.74262
USER: genes 9 Torsion [CG]-CD--CE-[NZ] |==|  0.36431
USER: genes 10 Torsion [CD]-CE--NZ-[HZ2] |==|  0.01996
USER: genes 11 Torsion [N]-CA--CB-[CG] |==|  0.64381
USER: genes 12 Torsion [CA]-CB--CG-[CD1] |==|  0.81613
USER: genes 13 Torsion [O]-C--CA-[CB] |==|  0.21987
USER: genes 14 Torsion [N]-C--CA-[N] |==|  0.41601
USER: genes 15 Torsion [C]-CA--CB-[CG] |==|  0.16200
USER: genes 16 Torsion [CA]-CB--CG-[OD1] |==|  0.76295
USER: genes 17 Torsion [C]-CA--N-[C] |==|  0.84956
USER: genes 18 Torsion [N]-C--CA-[N] |==|  0.52008
USER: genes 19 Torsion [C]-CA--CB-[OG] |==|  0.69946
USER: genes 20 Torsion [CA]-CB--OG-[HG] |==|  0.45045
ROOT
ATOM      1  C   PRO P 630      25.263   9.431 -15.624  1.00 36.04 LIG 0.24  C 
ATOM      2 O    PRO P 630      25.842   8.507 -15.016  1.00 33.55 LIG-0.27  OA
ATOM      3  N   PHE P 631      23.956   9.664 -15.537  1.00 24.81 LIG-0.35  N 
ATOM      4 H    PHE P 631      23.563  10.303 -15.957  1.00 24.81 LIG 0.16  HD
ENDROOT
BRANCH 3 5
ATOM      5  CA  PHE P 631      23.067   8.867 -14.729  1.00 30.16 LIG 0.18  C 
BRANCH 5 6
ATOM      6  C   PHE P 631      22.492   7.729 -15.615  1.00 46.65 LIG 0.24  C 
ATOM      7  N   LYS P 632      21.786   6.809 -14.981  1.00 37.40 LIG-0.34  N 
ATOM      8 H    LYS P 632      21.665   6.815 -14.130  1.00 37.40 LIG 0.16  HD
ATOM      9 O    PHE P 631      22.804   7.782 -16.812  1.00 54.45 LIG-0.27  OA
BRANCH 7 10
ATOM     10  CA  LYS P 632      21.124   5.668 -15.668  1.00 44.88 LIG 0.18  C 
BRANCH 10 11
ATOM     11  C   LYS P 632      22.163   4.744 -16.292  1.00 45.53 LIG 0.20  C 
ATOM     12 O    LYS P 632      23.380   4.883 -16.062  1.00 61.11 LIG-0.65  OA
ATOM     13 OXT  LYS P 632      21.746   3.828 -17.043  1.00 57.29 LIG-0.65  OA
ENDBRANCH 10 11
BRANCH 10 14
ATOM     14  CB  LYS P 632      20.083   6.169 -16.648  1.00 47.81 LIG 0.04  C 
BRANCH 14 15
ATOM     15  CG  LYS P 632      18.644   5.691 -16.673  1.00 54.84 LIG 0.00  C 
BRANCH 15 16
ATOM     16  CD  LYS P 632      18.628   4.235 -16.167  1.00 63.82 LIG 0.03  C 
BRANCH 16 17
ATOM     17  CE  LYS P 632      18.737   3.292 -17.366  1.00 66.19 LIG 0.23  C 
BRANCH 17 18
ATOM     18  NZ  LYS P 632      19.776   2.244 -17.180  1.00 52.45 LIG-0.08  N 
ATOM     19 HZ2  LYS P 632      20.091   2.282 -16.349  1.00 52.45 LIG 0.27  HD
ATOM     20 HZ1  LYS P 632      20.441   2.380 -17.756  1.00 52.45 LIG 0.27  HD
ATOM     21 HZ3  LYS P 632      19.418   1.442 -17.326  1.00 52.45 LIG 0.27  HD
ENDBRANCH 17 18
ENDBRANCH 16 17
ENDBRANCH 15 16
ENDBRANCH 14 15
ENDBRANCH 10 14
ENDBRANCH 7 10
ENDBRANCH 5 6
BRANCH 5 22
ATOM     22  CB  PHE P 631      21.869   9.571 -14.112  1.00 25.51 LIG 0.07  C 
BRANCH 22 23
ATOM     23  CG  PHE P 631      21.627   9.422 -12.606  1.00 27.58 LIG-0.06  A 
ATOM     24  CD1 PHE P 631      21.287   8.230 -11.968  1.00 30.72 LIG 0.01  A 
ATOM     25  CE1 PHE P 631      21.081   8.200 -10.597  1.00 26.28 LIG 0.00  A 
ATOM     26  CZ  PHE P 631      21.216   9.352  -9.851  1.00 23.54 LIG 0.00  A 
ATOM     27  CE2 PHE P 631      21.552  10.547 -10.469  1.00 23.94 LIG 0.00  A 
ATOM     28  CD2 PHE P 631      21.731  10.549 -11.819  1.00 24.70 LIG 0.01  A 
ENDBRANCH 22 23
ENDBRANCH 5 22
ENDBRANCH 3 5
BRANCH 1 29
ATOM     29  CA  PRO P 630      26.113  10.326 -16.502  1.00 22.29 LIG 0.18  C 
ATOM     30  CB  PRO P 630      26.440   9.698 -17.848  1.00 25.21 LIG 0.04  C 
ATOM     31  CG  PRO P 630      27.802   9.097 -17.674  1.00 30.73 LIG 0.02  C 
ATOM     32  CD  PRO P 630      28.513   9.928 -16.636  1.00 29.29 LIG 0.13  C 
ATOM     33  N   PRO P 630      27.432  10.576 -15.904  1.00 28.31 LIG-0.34  N 
ATOM     34  C   ASP P 629      27.479  11.345 -14.808  1.00 28.38 LIG 0.24  C 
ATOM     35 O    ASP P 629      26.447  11.714 -14.229  1.00 35.14 LIG-0.27  OA
BRANCH 34 36
ATOM     36  CA  ASP P 629      28.842  11.740 -14.286  1.00 31.37 LIG 0.19  C 
BRANCH 36 37
ATOM     37  CB  ASP P 629      29.397  10.739 -13.253  1.00 29.57 LIG 0.15  C 
BRANCH 37 38
ATOM     38  CG  ASP P 629      29.495   9.351 -13.859  1.00 37.10 LIG 0.17  C 
ATOM     39 OD2  ASP P 629      30.585   8.964 -14.336  1.00 43.68 LIG-0.65  OA
ATOM     40 OD1  ASP P 629      28.485   8.618 -13.840  1.00 36.00 LIG-0.65  OA
ENDBRANCH 37 38
ENDBRANCH 36 37
BRANCH 36 41
ATOM     41  N   ASP P 629      28.764  13.031 -13.635  1.00 43.53 LIG-0.34  N 
ATOM     42 H    ASP P 629      29.074  12.995 -12.834  1.00 43.53 LIG 0.16  HD
ATOM     43  C   SER P 628      28.298  14.161 -14.123  1.00 52.75 LIG 0.26  C 
ATOM     44 O    SER P 628      27.863  14.321 -15.261  1.00 74.95 LIG-0.27  OA
BRANCH 43 45
ATOM     45  CA  SER P 628      28.363  15.307 -13.104  1.00 53.54 LIG 0.42  C 
ATOM     46  N   SER P 628      27.698  16.522 -13.571  1.00 68.72 LIG 0.62  N 
BRANCH 45 47
ATOM     47  CB  SER P 628      27.712  14.809 -11.811  1.00 49.52 LIG 0.21  C 
BRANCH 47 48
ATOM     48 OG   SER P 628      26.450  15.423 -11.593  1.00 73.20 LIG-0.40  OA
ATOM     49 HG   SER P 628      26.011  14.974 -11.035  1.00 73.20 LIG 0.21  HD
ENDBRANCH 47 48
ENDBRANCH 45 47
ENDBRANCH 43 45
ENDBRANCH 36 41
ENDBRANCH 34 36
ENDBRANCH 1 29
TORSDOF 19
ENDMDL
MODEL 6
USER: ADFR SOLUTION from run 161
USER: SCORE 15.564910 LL:  -2.797 LR: -13.065 RR:   0.000 FEB:  -7.397
USER: RMSD 8.852637
USER: SEED 160
USER: STATUS no improvement in best in 9 clusters for 5 generations
USER: GENES 21
USER: genes 0 Translation |==|  0.26793 0.39946 0.48716
USER: genes 1 Rotation |==|  0.22358 0.57039 0.89544 0.61075
USER: genes 2 Torsion [C]-N--CA-[C] |==|  0.77591
USER: genes 3 Torsion [N]-CA--C-[N] |==|  0.46233
USER: genes 4 Torsion [C]-N--CA-[CB] |==|  0.47865
USER: genes 5 Torsion [N]-CA--C-[O] |==|  0.89634
USER: genes 6 Torsion [N]-CA--CB-[CG] |==|  0.20110
USER: genes 7 Torsion [CA]-CB--CG-[CD] |==|  0.63133
USER: genes 8 Torsion [CB]-CG--CD-[CE] |==|  0.59676
USER: genes 9 Torsion [CG]-CD--CE-[NZ] |==|  0.59751
USER: genes 10 Torsion [CD]-CE--NZ-[HZ2] |==|  0.91027
USER: genes 11 Torsion [N]-CA--CB-[CG] |==|  0.73936
USER: genes 12 Torsion [CA]-CB--CG-[CD1] |==|  0.82598
USER: genes 13 Torsion [O]-C--CA-[CB] |==|  0.76125
USER: genes 14 Torsion [N]-C--CA-[N] |==|  0.22847
USER: genes 15 Torsion [C]-CA--CB-[CG] |==|  0.46496
USER: genes 16 Torsion [CA]-CB--CG-[OD1] |==|  0.17225
USER: genes 17 Torsion [C]-CA--N-[C] |==|  0.75270
USER: genes 18 Torsion [N]-C--CA-[N] |==|  0.42784
USER: genes 19 Torsion [C]-CA--CB-[OG] |==|  0.21062
USER: genes 20 Torsion [CA]-CB--OG-[HG] |==|  0.69352
ROOT
ATOM      1  C   PRO P 630      21.311   7.840 -16.581  1.00 36.04 LIG 0.24  C 
ATOM      2 O    PRO P 630      21.197   8.977 -17.086  1.00 33.55 LIG-0.27  OA
ATOM      3  N   PHE P 631      22.045   7.584 -15.502  1.00 24.81 LIG-0.35  N 
ATOM      4 H    PHE P 631      22.120   6.800 -15.158  1.00 24.81 LIG 0.16  HD
ENDROOT
BRANCH 3 5
ATOM      5  CA  PHE P 631      22.791   8.599 -14.800  1.00 30.16 LIG 0.18  C 
BRANCH 5 6
ATOM      6  C   PHE P 631      24.120   8.844 -15.565  1.00 46.65 LIG 0.24  C 
ATOM      7  N   LYS P 632      24.790   9.929 -15.220  1.00 37.40 LIG-0.34  N 
ATOM      8 H    LYS P 632      24.508  10.486 -14.628  1.00 37.40 LIG 0.16  HD
ATOM      9 O    PHE P 631      24.378   8.021 -16.454  1.00 54.45 LIG-0.27  OA
BRANCH 7 10
ATOM     10  CA  LYS P 632      26.100  10.306 -15.814  1.00 44.88 LIG 0.18  C 
BRANCH 10 11
ATOM     11  C   LYS P 632      27.141   9.227 -15.543  1.00 45.53 LIG 0.20  C 
ATOM     12 O    LYS P 632      27.171   8.608 -14.461  1.00 61.11 LIG-0.65  OA
ATOM     13 OXT  LYS P 632      27.966   8.977 -16.455  1.00 57.29 LIG-0.65  OA
ENDBRANCH 10 11
BRANCH 10 14
ATOM     14  CB  LYS P 632      26.516  11.688 -15.350  1.00 47.81 LIG 0.04  C 
BRANCH 14 15
ATOM     15  CG  LYS P 632      26.995  12.002 -13.946  1.00 54.84 LIG 0.00  C 
BRANCH 15 16
ATOM     16  CD  LYS P 632      26.243  13.260 -13.467  1.00 63.82 LIG 0.03  C 
BRANCH 16 17
ATOM     17  CE  LYS P 632      27.178  14.090 -12.588  1.00 66.19 LIG 0.23  C 
BRANCH 17 18
ATOM     18  NZ  LYS P 632      26.466  14.770 -11.473  1.00 52.45 LIG-0.08  N 
ATOM     19 HZ2  LYS P 632      25.640  14.980 -11.731  1.00 52.45 LIG 0.27  HD
ATOM     20 HZ1  LYS P 632      26.904  15.510 -11.248  1.00 52.45 LIG 0.27  HD
ATOM     21 HZ3  LYS P 632      26.426  14.225 -10.770  1.00 52.45 LIG 0.27  HD
ENDBRANCH 17 18
ENDBRANCH 16 17
ENDBRANCH 15 16
ENDBRANCH 14 15
ENDBRANCH 10 14
ENDBRANCH 7 10
ENDBRANCH 5 6
BRANCH 5 22
ATOM     22  CB  PHE P 631      23.180   8.305 -13.360  1.00 25.51 LIG 0.07  C 
BRANCH 22 23
ATOM     23  CG  PHE P 631      22.259   8.796 -12.238  1.00 27.58 LIG-0.06  A 
ATOM     24  CD1 PHE P 631      21.969  10.133 -11.972  1.00 30.72 LIG 0.01  A 
ATOM     25  CE1 PHE P 631      21.127  10.477 -10.925  1.00 26.28 LIG 0.00  A 
ATOM     26  CZ  PHE P 631      20.563   9.493 -10.139  1.00 23.54 LIG 0.00  A 
ATOM     27  CE2 PHE P 631      20.842   8.157 -10.388  1.00 23.94 LIG 0.00  A 
ATOM     28  CD2 PHE P 631      21.685   7.853 -11.411  1.00 24.70 LIG 0.01  A 
ENDBRANCH 22 23
ENDBRANCH 5 22
ENDBRANCH 3 5
BRANCH 1 29
ATOM     29  CA  PRO P 630      20.564   6.703 -17.249  1.00 22.29 LIG 0.18  C 
ATOM     30  CB  PRO P 630      19.129   6.572 -16.763  1.00 25.21 LIG 0.04  C 
ATOM     31  CG  PRO P 630      19.173   5.510 -15.706  1.00 30.73 LIG 0.02  C 
ATOM     32  CD  PRO P 630      20.312   4.589 -16.063  1.00 29.29 LIG 0.13  C 
ATOM     33  N   PRO P 630      21.162   5.400 -16.926  1.00 28.31 LIG-0.34  N 
ATOM     34  C   ASP P 629      22.364   5.123 -17.448  1.00 28.38 LIG 0.24  C 
ATOM     35 O    ASP P 629      23.019   5.981 -18.059  1.00 35.14 LIG-0.27  OA
BRANCH 34 36
ATOM     36  CA  ASP P 629      22.909   3.727 -17.256  1.00 31.37 LIG 0.19  C 
BRANCH 36 37
ATOM     37  CB  ASP P 629      24.443   3.661 -17.399  1.00 29.57 LIG 0.15  C 
BRANCH 37 38
ATOM     38  CG  ASP P 629      24.964   2.327 -16.898  1.00 37.10 LIG 0.17  C 
ATOM     39 OD2  ASP P 629      25.729   2.298 -15.908  1.00 43.68 LIG-0.65  OA
ATOM     40 OD1  ASP P 629      24.592   1.285 -17.475  1.00 36.00 LIG-0.65  OA
ENDBRANCH 37 38
ENDBRANCH 36 37
BRANCH 36 41
ATOM     41  N   ASP P 629      22.346   2.838 -18.250  1.00 43.53 LIG-0.34  N 
ATOM     42 H    ASP P 629      22.838   2.805 -18.954  1.00 43.53 LIG 0.16  HD
ATOM     43  C   SER P 628      21.236   2.133 -18.177  1.00 52.75 LIG 0.26  C 
ATOM     44 O    SER P 628      20.482   2.089 -17.208  1.00 74.95 LIG-0.27  OA
BRANCH 43 45
ATOM     45  CA  SER P 628      20.967   1.332 -19.458  1.00 53.54 LIG 0.42  C 
ATOM     46  N   SER P 628      20.155   0.140 -19.224  1.00 68.72 LIG 0.62  N 
BRANCH 45 47
ATOM     47  CB  SER P 628      20.265   2.268 -20.446  1.00 49.52 LIG 0.21  C 
BRANCH 47 48
ATOM     48 OG   SER P 628      21.177   3.188 -21.029  1.00 73.20 LIG-0.40  OA
ATOM     49 HG   SER P 628      21.019   3.961 -20.740  1.00 73.20 LIG 0.21  HD
ENDBRANCH 47 48
ENDBRANCH 45 47
ENDBRANCH 43 45
ENDBRANCH 36 41
ENDBRANCH 34 36
ENDBRANCH 1 29
TORSDOF 19
ENDMDL
MODEL 7
USER: ADFR SOLUTION from run 167
USER: SCORE 15.171839 LL:  -3.017 LR: -12.988 RR:   0.000 FEB:  -7.321
USER: RMSD 4.695426
USER: SEED 166
USER: STATUS no improvement in best in 2 clusters for 5 generations
USER: GENES 21
USER: genes 0 Translation |==|  0.37231 0.52594 0.58010
USER: genes 1 Rotation |==|  0.28820 0.04885 0.53749 0.51409
USER: genes 2 Torsion [C]-N--CA-[C] |==|  0.20588
USER: genes 3 Torsion [N]-CA--C-[N] |==|  0.80314
USER: genes 4 Torsion [C]-N--CA-[CB] |==|  0.17878
USER: genes 5 Torsion [N]-CA--C-[O] |==|  0.91140
USER: genes 6 Torsion [N]-CA--CB-[CG] |==|  0.13913
USER: genes 7 Torsion [CA]-CB--CG-[CD] |==|  0.57648
USER: genes 8 Torsion [CB]-CG--CD-[CE] |==|  0.67401
USER: genes 9 Torsion [CG]-CD--CE-[NZ] |==|  0.56624
USER: genes 10 Torsion [CD]-CE--NZ-[HZ2] |==|  0.26468
USER: genes 11 Torsion [N]-CA--CB-[CG] |==|  0.85692
USER: genes 12 Torsion [CA]-CB--CG-[CD1] |==|  0.13312
USER: genes 13 Torsion [O]-C--CA-[CB] |==|  0.98237
USER: genes 14 Torsion [N]-C--CA-[N] |==|  0.44037
USER: genes 15 Torsion [C]-CA--CB-[CG] |==|  0.74318
USER: genes 16 Torsion [CA]-CB--CG-[OD1] |==|  0.20938
USER: genes 17 Torsion [C]-CA--N-[C] |==|  0.82776
USER: genes 18 Torsion [N]-C--CA-[N] |==|  0.50768
USER: genes 19 Torsion [C]-CA--CB-[OG] |==|  0.37618
USER: genes 20 Torsion [CA]-CB--OG-[HG] |==|  0.78084
ROOT
ATOM      1  C   PRO P 630      22.955  10.686 -14.908  1.00 36.04 LIG 0.24  C 
ATOM      2 O    PRO P 630      21.746  10.621 -15.215  1.00 33.55 LIG-0.27  OA
ATOM      3  N   PHE P 631      23.675   9.634 -14.530  1.00 24.81 LIG-0.35  N 
ATOM      4 H    PHE P 631      24.508   9.683 -14.321  1.00 24.81 LIG 0.16  HD
ENDROOT
BRANCH 3 5
ATOM      5  CA  PHE P 631      23.131   8.302 -14.432  1.00 30.16 LIG 0.18  C 
BRANCH 5 6
ATOM      6  C   PHE P 631      22.942   7.747 -15.870  1.00 46.65 LIG 0.24  C 
ATOM      7  N   LYS P 632      21.970   8.298 -16.575  1.00 37.40 LIG-0.34  N 
ATOM      8 H    LYS P 632      21.452   8.909 -16.262  1.00 37.40 LIG 0.16  HD
ATOM      9 O    PHE P 631      23.691   6.810 -16.178  1.00 54.45 LIG-0.27  OA
BRANCH 7 10
ATOM     10  CA  LYS P 632      21.665   7.924 -17.982  1.00 44.88 LIG 0.18  C 
BRANCH 10 11
ATOM     11  C   LYS P 632      20.689   8.917 -18.601  1.00 45.53 LIG 0.20  C 
ATOM     12 O    LYS P 632      19.821   9.491 -17.913  1.00 61.11 LIG-0.65  OA
ATOM     13 OXT  LYS P 632      20.796   9.145 -19.830  1.00 57.29 LIG-0.65  OA
ENDBRANCH 10 11
BRANCH 10 14
ATOM     14  CB  LYS P 632      21.205   6.483 -18.061  1.00 47.81 LIG 0.04  C 
BRANCH 14 15
ATOM     15  CG  LYS P 632      20.118   5.892 -17.183  1.00 54.84 LIG 0.00  C 
BRANCH 15 16
ATOM     16  CD  LYS P 632      20.402   4.384 -17.042  1.00 63.82 LIG 0.03  C 
BRANCH 16 17
ATOM     17  CE  LYS P 632      19.240   3.601 -17.654  1.00 66.19 LIG 0.23  C 
BRANCH 17 18
ATOM     18  NZ  LYS P 632      19.116   2.227 -17.100  1.00 52.45 LIG-0.08  N 
ATOM     19 HZ2  LYS P 632      18.523   2.226 -16.437  1.00 52.45 LIG 0.27  HD
ATOM     20 HZ1  LYS P 632      19.907   1.960 -16.791  1.00 52.45 LIG 0.27  HD
ATOM     21 HZ3  LYS P 632      18.846   1.671 -17.741  1.00 52.45 LIG 0.27  HD
ENDBRANCH 17 18
ENDBRANCH 16 17
ENDBRANCH 15 16
ENDBRANCH 14 15
ENDBRANCH 10 14
ENDBRANCH 7 10
ENDBRANCH 5 6
BRANCH 5 22
ATOM     22  CB  PHE P 631      21.787   8.149 -13.738  1.00 25.51 LIG 0.07  C 
BRANCH 22 23
ATOM     23  CG  PHE P 631      21.605   8.769 -12.348  1.00 27.58 LIG-0.06  A 
ATOM     24  CD1 PHE P 631      21.966  10.070 -12.003  1.00 30.72 LIG 0.01  A 
ATOM     25  CE1 PHE P 631      21.767  10.537 -10.712  1.00 26.28 LIG 0.00  A 
ATOM     26  CZ  PHE P 631      21.205   9.715  -9.758  1.00 23.54 LIG 0.00  A 
ATOM     27  CE2 PHE P 631      20.841   8.416 -10.083  1.00 23.94 LIG 0.00  A 
ATOM     28  CD2 PHE P 631      21.064   7.982 -11.354  1.00 24.70 LIG 0.01  A 
ENDBRANCH 22 23
ENDBRANCH 5 22
ENDBRANCH 3 5
BRANCH 1 29
ATOM     29  CA  PRO P 630      23.620  12.045 -14.979  1.00 22.29 LIG 0.18  C 
ATOM     30  CB  PRO P 630      22.717  13.116 -15.572  1.00 25.21 LIG 0.04  C 
ATOM     31  CG  PRO P 630      23.107  13.195 -17.017  1.00 30.73 LIG 0.02  C 
ATOM     32  CD  PRO P 630      24.561  12.800 -17.096  1.00 29.29 LIG 0.13  C 
ATOM     33  N   PRO P 630      24.783  12.033 -15.877  1.00 28.31 LIG-0.34  N 
ATOM     34  C   ASP P 629      25.865  11.351 -15.479  1.00 28.38 LIG 0.24  C 
ATOM     35 O    ASP P 629      25.846  10.637 -14.467  1.00 35.14 LIG-0.27  OA
BRANCH 34 36
ATOM     36  CA  ASP P 629      27.117  11.470 -16.318  1.00 31.37 LIG 0.19  C 
BRANCH 36 37
ATOM     37  CB  ASP P 629      27.103  10.537 -17.545  1.00 29.57 LIG 0.15  C 
BRANCH 37 38
ATOM     38  CG  ASP P 629      27.766   9.214 -17.212  1.00 37.10 LIG 0.17  C 
ATOM     39 OD2  ASP P 629      28.930   8.990 -17.617  1.00 43.68 LIG-0.65  OA
ATOM     40 OD1  ASP P 629      27.140   8.390 -16.515  1.00 36.00 LIG-0.65  OA
ENDBRANCH 37 38
ENDBRANCH 36 37
BRANCH 36 41
ATOM     41  N   ASP P 629      28.276  11.120 -15.524  1.00 43.53 LIG-0.34  N 
ATOM     42 H    ASP P 629      28.680  10.432 -15.847  1.00 43.53 LIG 0.16  HD
ATOM     43  C   SER P 628      28.729  11.713 -14.439  1.00 52.75 LIG 0.26  C 
ATOM     44 O    SER P 628      28.244  12.714 -13.918  1.00 74.95 LIG-0.27  OA
BRANCH 43 45
ATOM     45  CA  SER P 628      29.975  11.018 -13.872  1.00 53.54 LIG 0.42  C 
ATOM     46  N   SER P 628      30.451  11.627 -12.631  1.00 68.72 LIG 0.62  N 
BRANCH 45 47
ATOM     47  CB  SER P 628      29.614   9.548 -13.638  1.00 49.52 LIG 0.21  C 
BRANCH 47 48
ATOM     48 OG   SER P 628      30.640   8.681 -14.100  1.00 73.20 LIG-0.40  OA
ATOM     49 HG   SER P 628      30.586   8.602 -14.935  1.00 73.20 LIG 0.21  HD
ENDBRANCH 47 48
ENDBRANCH 45 47
ENDBRANCH 43 45
ENDBRANCH 36 41
ENDBRANCH 34 36
ENDBRANCH 1 29
TORSDOF 19
ENDMDL
MODEL 8
USER: ADFR SOLUTION from run 17
USER: SCORE 15.305773 LL:  -2.602 LR: -12.976 RR:   0.000 FEB:  -7.308
USER: RMSD 4.866506
USER: SEED 16
USER: STATUS no improvement in best in 4 clusters for 5 generations
USER: GENES 21
USER: genes 0 Translation |==|  0.55125 0.44870 0.55295
USER: genes 1 Rotation |==|  0.40235 0.54742 0.49153 0.98800
USER: genes 2 Torsion [C]-N--CA-[C] |==|  0.76268
USER: genes 3 Torsion [N]-CA--C-[N] |==|  0.17242
USER: genes 4 Torsion [C]-N--CA-[CB] |==|  0.95124
USER: genes 5 Torsion [N]-CA--C-[O] |==|  0.98335
USER: genes 6 Torsion [N]-CA--CB-[CG] |==|  0.30656
USER: genes 7 Torsion [CA]-CB--CG-[CD] |==|  0.59725
USER: genes 8 Torsion [CB]-CG--CD-[CE] |==|  0.63584
USER: genes 9 Torsion [CG]-CD--CE-[NZ] |==|  0.43526
USER: genes 10 Torsion [CD]-CE--NZ-[HZ2] |==|  0.88370
USER: genes 11 Torsion [N]-CA--CB-[CG] |==|  0.78585
USER: genes 12 Torsion [CA]-CB--CG-[CD1] |==|  0.21077
USER: genes 13 Torsion [O]-C--CA-[CB] |==|  0.27159
USER: genes 14 Torsion [N]-C--CA-[N] |==|  0.38326
USER: genes 15 Torsion [C]-CA--CB-[CG] |==|  0.19067
USER: genes 16 Torsion [CA]-CB--CG-[OD1] |==|  0.14053
USER: genes 17 Torsion [C]-CA--N-[C] |==|  0.83848
USER: genes 18 Torsion [N]-C--CA-[N] |==|  0.50478
USER: genes 19 Torsion [C]-CA--CB-[OG] |==|  0.71092
USER: genes 20 Torsion [CA]-CB--OG-[HG] |==|  0.45203
ROOT
ATOM      1  C   PRO P 630      25.773   8.948 -15.397  1.00 36.04 LIG 0.24  C 
ATOM      2 O    PRO P 630      26.577   8.225 -14.771  1.00 33.55 LIG-0.27  OA
ATOM      3  N   PHE P 631      24.459   8.747 -15.409  1.00 24.81 LIG-0.35  N 
ATOM      4 H    PHE P 631      23.909   9.249 -15.841  1.00 24.81 LIG 0.16  HD
ENDROOT
BRANCH 3 5
ATOM      5  CA  PHE P 631      23.821   7.667 -14.698  1.00 30.16 LIG 0.18  C 
BRANCH 5 6
ATOM      6  C   PHE P 631      23.853   6.404 -15.600  1.00 46.65 LIG 0.24  C 
ATOM      7  N   LYS P 632      25.055   5.953 -15.915  1.00 37.40 LIG-0.34  N 
ATOM      8 H    LYS P 632      25.781   6.339 -15.664  1.00 37.40 LIG 0.16  HD
ATOM      9 O    PHE P 631      22.746   5.989 -15.969  1.00 54.45 LIG-0.27  OA
BRANCH 7 10
ATOM     10  CA  LYS P 632      25.283   4.734 -16.735  1.00 44.88 LIG 0.18  C 
BRANCH 10 11
ATOM     11  C   LYS P 632      25.822   5.107 -18.111  1.00 45.53 LIG 0.20  C 
ATOM     12 O    LYS P 632      25.915   6.297 -18.473  1.00 61.11 LIG-0.65  OA
ATOM     13 OXT  LYS P 632      26.178   4.171 -18.867  1.00 57.29 LIG-0.65  OA
ENDBRANCH 10 11
BRANCH 10 14
ATOM     14  CB  LYS P 632      24.031   3.881 -16.779  1.00 47.81 LIG 0.04  C 
BRANCH 14 15
ATOM     15  CG  LYS P 632      23.177   3.693 -18.018  1.00 54.84 LIG 0.00  C 
BRANCH 15 16
ATOM     16  CD  LYS P 632      21.709   3.589 -17.560  1.00 63.82 LIG 0.03  C 
BRANCH 16 17
ATOM     17  CE  LYS P 632      21.068   2.371 -18.226  1.00 66.19 LIG 0.23  C 
BRANCH 17 18
ATOM     18  NZ  LYS P 632      19.892   1.857 -17.475  1.00 52.45 LIG-0.08  N 
ATOM     19 HZ2  LYS P 632      20.069   1.865 -16.603  1.00 52.45 LIG 0.27  HD
ATOM     20 HZ1  LYS P 632      19.716   1.024 -17.734  1.00 52.45 LIG 0.27  HD
ATOM     21 HZ3  LYS P 632      19.186   2.374 -17.639  1.00 52.45 LIG 0.27  HD
ENDBRANCH 17 18
ENDBRANCH 16 17
ENDBRANCH 15 16
ENDBRANCH 14 15
ENDBRANCH 10 14
ENDBRANCH 7 10
ENDBRANCH 5 6
BRANCH 5 22
ATOM     22  CB  PHE P 631      22.368   7.862 -14.293  1.00 25.51 LIG 0.07  C 
BRANCH 22 23
ATOM     23  CG  PHE P 631      22.058   8.751 -13.084  1.00 27.58 LIG-0.06  A 
ATOM     24  CD1 PHE P 631      22.102  10.144 -13.088  1.00 30.72 LIG 0.01  A 
ATOM     25  CE1 PHE P 631      21.810  10.861 -11.937  1.00 26.28 LIG 0.00  A 
ATOM     26  CZ  PHE P 631      21.469  10.198 -10.777  1.00 23.54 LIG 0.00  A 
ATOM     27  CE2 PHE P 631      21.421   8.812 -10.754  1.00 23.94 LIG 0.00  A 
ATOM     28  CD2 PHE P 631      21.729   8.136 -11.895  1.00 24.70 LIG 0.01  A 
ENDBRANCH 22 23
ENDBRANCH 5 22
ENDBRANCH 3 5
BRANCH 1 29
ATOM     29  CA  PRO P 630      26.347  10.112 -16.179  1.00 22.29 LIG 0.18  C 
ATOM     30  CB  PRO P 630      26.532   9.800 -17.656  1.00 25.21 LIG 0.04  C 
ATOM     31  CG  PRO P 630      27.971   9.402 -17.790  1.00 30.73 LIG 0.02  C 
ATOM     32  CD  PRO P 630      28.726  10.132 -16.707  1.00 29.29 LIG 0.13  C 
ATOM     33  N   PRO P 630      27.701  10.455 -15.722  1.00 28.31 LIG-0.34  N 
ATOM     34  C   ASP P 629      27.824  11.008 -14.508  1.00 28.38 LIG 0.24  C 
ATOM     35 O    ASP P 629      26.859  11.096 -13.734  1.00 35.14 LIG-0.27  OA
BRANCH 34 36
ATOM     36  CA  ASP P 629      29.189  11.512 -14.101  1.00 31.37 LIG 0.19  C 
BRANCH 36 37
ATOM     37  CB  ASP P 629      29.914  10.556 -13.134  1.00 29.57 LIG 0.15  C 
BRANCH 37 38
ATOM     38  CG  ASP P 629      30.299   9.273 -13.847  1.00 37.10 LIG 0.17  C 
ATOM     39 OD2  ASP P 629      29.972   8.171 -13.350  1.00 43.68 LIG-0.65  OA
ATOM     40 OD1  ASP P 629      30.909   9.352 -14.932  1.00 36.00 LIG-0.65  OA
ENDBRANCH 37 38
ENDBRANCH 36 37
BRANCH 36 41
ATOM     41  N   ASP P 629      29.062  12.788 -13.429  1.00 43.53 LIG-0.34  N 
ATOM     42 H    ASP P 629      29.394  12.758 -12.636  1.00 43.53 LIG 0.16  HD
ATOM     43  C   SER P 628      28.525  13.900 -13.888  1.00 52.75 LIG 0.26  C 
ATOM     44 O    SER P 628      28.053  14.053 -15.011  1.00 74.95 LIG-0.27  OA
BRANCH 43 45
ATOM     45  CA  SER P 628      28.558  15.034 -12.853  1.00 53.54 LIG 0.42  C 
ATOM     46  N   SER P 628      27.929  16.262 -13.335  1.00 68.72 LIG 0.62  N 
BRANCH 45 47
ATOM     47  CB  SER P 628      27.843  14.528 -11.596  1.00 49.52 LIG 0.21  C 
BRANCH 47 48
ATOM     48 OG   SER P 628      26.541  15.085 -11.480  1.00 73.20 LIG-0.40  OA
ATOM     49 HG   SER P 628      26.089  14.630 -10.937  1.00 73.20 LIG 0.21  HD
ENDBRANCH 47 48
ENDBRANCH 45 47
ENDBRANCH 43 45
ENDBRANCH 36 41
ENDBRANCH 34 36
ENDBRANCH 1 29
TORSDOF 19
ENDMDL
MODEL 9
USER: ADFR SOLUTION from run 111
USER: SCORE 15.142642 LL:  -3.012 LR: -12.898 RR:   0.000 FEB:  -7.230
USER: RMSD 8.722833
USER: SEED 110
USER: STATUS no improvement in best in 13 clusters for 5 generations
USER: GENES 21
USER: genes 0 Translation |==|  0.26772 0.49140 0.45295
USER: genes 1 Rotation |==|  0.24535 0.39918 0.89367 0.64145
USER: genes 2 Torsion [C]-N--CA-[C] |==|  0.74650
USER: genes 3 Torsion [N]-CA--C-[N] |==|  0.81761
USER: genes 4 Torsion [C]-N--CA-[CB] |==|  0.15213
USER: genes 5 Torsion [N]-CA--C-[O] |==|  0.99600
USER: genes 6 Torsion [N]-CA--CB-[CG] |==|  0.62847
USER: genes 7 Torsion [CA]-CB--CG-[CD] |==|  0.46133
USER: genes 8 Torsion [CB]-CG--CD-[CE] |==|  0.77285
USER: genes 9 Torsion [CG]-CD--CE-[NZ] |==|  0.52323
USER: genes 10 Torsion [CD]-CE--NZ-[HZ2] |==|  0.45768
USER: genes 11 Torsion [N]-CA--CB-[CG] |==|  0.63647
USER: genes 12 Torsion [CA]-CB--CG-[CD1] |==|  0.88913
USER: genes 13 Torsion [O]-C--CA-[CB] |==|  0.06745
USER: genes 14 Torsion [N]-C--CA-[N] |==|  0.38083
USER: genes 15 Torsion [C]-CA--CB-[CG] |==|  0.81131
USER: genes 16 Torsion [CA]-CB--CG-[OD1] |==|  0.29769
USER: genes 17 Torsion [C]-CA--N-[C] |==|  0.59453
USER: genes 18 Torsion [N]-C--CA-[N] |==|  0.17972
USER: genes 19 Torsion [C]-CA--CB-[OG] |==|  0.68779
USER: genes 20 Torsion [CA]-CB--OG-[HG] |==|  0.82500
ROOT
ATOM      1  C   PRO P 630      21.308   9.909 -17.197  1.00 36.04 LIG 0.24  C 
ATOM      2 O    PRO P 630      20.882  11.060 -16.967  1.00 33.55 LIG-0.27  OA
ATOM      3  N   PHE P 631      22.069   9.222 -16.350  1.00 24.81 LIG-0.35  N 
ATOM      4 H    PHE P 631      22.359   8.429 -16.513  1.00 24.81 LIG 0.16  HD
ENDROOT
BRANCH 3 5
ATOM      5  CA  PHE P 631      22.487   9.740 -15.071  1.00 30.16 LIG 0.18  C 
BRANCH 5 6
ATOM      6  C   PHE P 631      23.852  10.457 -15.258  1.00 46.65 LIG 0.24  C 
ATOM      7  N   LYS P 632      24.866   9.681 -15.597  1.00 37.40 LIG-0.34  N 
ATOM      8 H    LYS P 632      24.795   8.829 -15.687  1.00 37.40 LIG 0.16  HD
ATOM      9 O    PHE P 631      23.849  11.672 -15.016  1.00 54.45 LIG-0.27  OA
BRANCH 7 10
ATOM     10  CA  LYS P 632      26.238  10.194 -15.858  1.00 44.88 LIG 0.18  C 
BRANCH 10 11
ATOM     11  C   LYS P 632      27.166   9.057 -16.266  1.00 45.53 LIG 0.20  C 
ATOM     12 O    LYS P 632      26.765   7.877 -16.323  1.00 61.11 LIG-0.65  OA
ATOM     13 OXT  LYS P 632      28.351   9.352 -16.553  1.00 57.29 LIG-0.65  OA
ENDBRANCH 10 11
BRANCH 10 14
ATOM     14  CB  LYS P 632      26.738  10.998 -14.674  1.00 47.81 LIG 0.04  C 
BRANCH 14 15
ATOM     15  CG  LYS P 632      27.415  12.349 -14.794  1.00 54.84 LIG 0.00  C 
BRANCH 15 16
ATOM     16  CD  LYS P 632      27.448  12.980 -13.388  1.00 63.82 LIG 0.03  C 
BRANCH 16 17
ATOM     17  CE  LYS P 632      26.093  13.630 -13.106  1.00 66.19 LIG 0.23  C 
BRANCH 17 18
ATOM     18  NZ  LYS P 632      26.091  14.435 -11.856  1.00 52.45 LIG-0.08  N 
ATOM     19 HZ2  LYS P 632      25.375  14.964 -11.843  1.00 52.45 LIG 0.27  HD
ATOM     20 HZ1  LYS P 632      26.828  14.933 -11.822  1.00 52.45 LIG 0.27  HD
ATOM     21 HZ3  LYS P 632      26.069  13.891 -11.151  1.00 52.45 LIG 0.27  HD
ENDBRANCH 17 18
ENDBRANCH 16 17
ENDBRANCH 15 16
ENDBRANCH 14 15
ENDBRANCH 10 14
ENDBRANCH 7 10
ENDBRANCH 5 6
BRANCH 5 22
ATOM     22  CB  PHE P 631      22.686   8.737 -13.945  1.00 25.51 LIG 0.07  C 
BRANCH 22 23
ATOM     23  CG  PHE P 631      22.035   9.021 -12.588  1.00 27.58 LIG-0.06  A 
ATOM     24  CD1 PHE P 631      21.966  10.275 -11.984  1.00 30.72 LIG 0.01  A 
ATOM     25  CE1 PHE P 631      21.361  10.429 -10.745  1.00 26.28 LIG 0.00  A 
ATOM     26  CZ  PHE P 631      20.816   9.337 -10.101  1.00 23.54 LIG 0.00  A 
ATOM     27  CE2 PHE P 631      20.877   8.081 -10.686  1.00 23.94 LIG 0.00  A 
ATOM     28  CD2 PHE P 631      21.492   7.960 -11.894  1.00 24.70 LIG 0.01  A 
ENDBRANCH 22 23
ENDBRANCH 5 22
ENDBRANCH 3 5
BRANCH 1 29
ATOM     29  CA  PRO P 630      20.923   9.276 -18.519  1.00 22.29 LIG 0.18  C 
ATOM     30  CB  PRO P 630      20.588  10.301 -19.591  1.00 25.21 LIG 0.04  C 
ATOM     31  CG  PRO P 630      19.093  10.414 -19.565  1.00 30.73 LIG 0.02  C 
ATOM     32  CD  PRO P 630      18.565   9.079 -19.102  1.00 29.29 LIG 0.13  C 
ATOM     33  N   PRO P 630      19.693   8.480 -18.400  1.00 28.31 LIG-0.34  N 
ATOM     34  C   ASP P 629      19.758   7.342 -17.696  1.00 28.38 LIG 0.24  C 
ATOM     35 O    ASP P 629      20.768   7.037 -17.046  1.00 35.14 LIG-0.27  OA
BRANCH 34 36
ATOM     36  CA  ASP P 629      18.545   6.439 -17.708  1.00 31.37 LIG 0.19  C 
BRANCH 36 37
ATOM     37  CB  ASP P 629      17.723   6.530 -16.408  1.00 29.57 LIG 0.15  C 
BRANCH 37 38
ATOM     38  CG  ASP P 629      18.504   5.948 -15.245  1.00 37.10 LIG 0.17  C 
ATOM     39 OD2  ASP P 629      18.679   4.710 -15.180  1.00 43.68 LIG-0.65  OA
ATOM     40 OD1  ASP P 629      18.977   6.727 -14.393  1.00 36.00 LIG-0.65  OA
ENDBRANCH 37 38
ENDBRANCH 36 37
BRANCH 36 41
ATOM     41  N   ASP P 629      18.960   5.060 -17.860  1.00 43.53 LIG-0.34  N 
ATOM     42 H    ASP P 629      19.711   4.915 -17.466  1.00 43.53 LIG 0.16  HD
ATOM     43  C   SER P 628      18.338   4.089 -18.495  1.00 52.75 LIG 0.26  C 
ATOM     44 O    SER P 628      17.252   4.187 -19.060  1.00 74.95 LIG-0.27  OA
BRANCH 43 45
ATOM     45  CA  SER P 628      19.121   2.769 -18.452  1.00 53.54 LIG 0.42  C 
ATOM     46  N   SER P 628      19.251   2.229 -17.100  1.00 68.72 LIG 0.62  N 
BRANCH 45 47
ATOM     47  CB  SER P 628      18.388   1.772 -19.354  1.00 49.52 LIG 0.21  C 
BRANCH 47 48
ATOM     48 OG   SER P 628      17.812   0.715 -18.600  1.00 73.20 LIG-0.40  OA
ATOM     49 HG   SER P 628      18.419   0.278 -18.218  1.00 73.20 LIG 0.21  HD
ENDBRANCH 47 48
ENDBRANCH 45 47
ENDBRANCH 43 45
ENDBRANCH 36 41
ENDBRANCH 34 36
ENDBRANCH 1 29
TORSDOF 19
ENDMDL
MODEL 10
USER: ADFR SOLUTION from run 147
USER: SCORE 16.099987 LL:  -3.660 LR: -12.840 RR:   0.000 FEB:  -7.172
USER: RMSD 8.460191
USER: SEED 146
USER: STATUS no improvement in best in 5 clusters for 5 generations
USER: GENES 21
USER: genes 0 Translation |==|  0.34758 0.54557 0.66631
USER: genes 1 Rotation |==|  0.57820 0.55829 0.98347 0.58210
USER: genes 2 Torsion [C]-N--CA-[C] |==|  0.83768
USER: genes 3 Torsion [N]-CA--C-[N] |==|  0.94294
USER: genes 4 Torsion [C]-N--CA-[CB] |==|  0.12394
USER: genes 5 Torsion [N]-CA--C-[O] |==|  0.90384
USER: genes 6 Torsion [N]-CA--CB-[CG] |==|  0.66034
USER: genes 7 Torsion [CA]-CB--CG-[CD] |==|  0.88398
USER: genes 8 Torsion [CB]-CG--CD-[CE] |==|  0.24288
USER: genes 9 Torsion [CG]-CD--CE-[NZ] |==|  0.71107
USER: genes 10 Torsion [CD]-CE--NZ-[HZ2] |==|  0.29304
USER: genes 11 Torsion [N]-CA--CB-[CG] |==|  0.71391
USER: genes 12 Torsion [CA]-CB--CG-[CD1] |==|  0.84262
USER: genes 13 Torsion [O]-C--CA-[CB] |==|  0.82635
USER: genes 14 Torsion [N]-C--CA-[N] |==|  0.31667
USER: genes 15 Torsion [C]-CA--CB-[CG] |==|  0.38576
USER: genes 16 Torsion [CA]-CB--CG-[OD1] |==|  0.16525
USER: genes 17 Torsion [C]-CA--N-[C] |==|  0.59486
USER: genes 18 Torsion [N]-C--CA-[N] |==|  0.54478
USER: genes 19 Torsion [C]-CA--CB-[OG] |==|  0.84126
USER: genes 20 Torsion [CA]-CB--OG-[HG] |==|  0.73854
ROOT
ATOM      1  C   PRO P 630      22.565  11.127 -13.356  1.00 36.04 LIG 0.24  C 
ATOM      2 O    PRO P 630      22.321  12.300 -13.002  1.00 33.55 LIG-0.27  OA
ATOM      3  N   PHE P 631      23.642  10.778 -14.055  1.00 24.81 LIG-0.35  N 
ATOM      4 H    PHE P 631      23.806   9.969 -14.295  1.00 24.81 LIG 0.16  HD
ENDROOT
BRANCH 3 5
ATOM      5  CA  PHE P 631      24.645  11.723 -14.479  1.00 30.16 LIG 0.18  C 
BRANCH 5 6
ATOM      6  C   PHE P 631      23.955  12.804 -15.356  1.00 46.65 LIG 0.24  C 
ATOM      7  N   LYS P 632      22.793  12.459 -15.884  1.00 37.40 LIG-0.34  N 
ATOM      8 H    LYS P 632      22.441  11.682 -15.776  1.00 37.40 LIG 0.16  HD
ATOM      9 O    PHE P 631      24.597  13.852 -15.508  1.00 54.45 LIG-0.27  OA
BRANCH 7 10
ATOM     10  CA  LYS P 632      21.969  13.375 -16.717  1.00 44.88 LIG 0.18  C 
BRANCH 10 11
ATOM     11  C   LYS P 632      20.800  12.623 -17.342  1.00 45.53 LIG 0.20  C 
ATOM     12 O    LYS P 632      20.907  11.434 -17.701  1.00 61.11 LIG-0.65  OA
ATOM     13 OXT  LYS P 632      19.717  13.244 -17.475  1.00 57.29 LIG-0.65  OA
ENDBRANCH 10 11
BRANCH 10 14
ATOM     14  CB  LYS P 632      22.837  14.102 -17.724  1.00 47.81 LIG 0.04  C 
BRANCH 14 15
ATOM     15  CG  LYS P 632      22.939  15.612 -17.819  1.00 54.84 LIG 0.00  C 
BRANCH 15 16
ATOM     16  CD  LYS P 632      21.518  16.187 -17.651  1.00 63.82 LIG 0.03  C 
BRANCH 16 17
ATOM     17  CE  LYS P 632      21.238  16.388 -16.162  1.00 66.19 LIG 0.23  C 
BRANCH 17 18
ATOM     18  NZ  LYS P 632      20.340  15.344 -15.600  1.00 52.45 LIG-0.08  N 
ATOM     19 HZ2  LYS P 632      20.815  14.778 -15.104  1.00 52.45 LIG 0.27  HD
ATOM     20 HZ1  LYS P 632      19.949  14.900 -16.265  1.00 52.45 LIG 0.27  HD
ATOM     21 HZ3  LYS P 632      19.716  15.730 -15.094  1.00 52.45 LIG 0.27  HD
ENDBRANCH 17 18
ENDBRANCH 16 17
ENDBRANCH 15 16
ENDBRANCH 14 15
ENDBRANCH 10 14
ENDBRANCH 7 10
ENDBRANCH 5 6
BRANCH 5 22
ATOM     22  CB  PHE P 631      25.804  11.185 -15.303  1.00 25.51 LIG 0.07  C 
BRANCH 22 23
ATOM     23  CG  PHE P 631      27.158  10.980 -14.616  1.00 27.58 LIG-0.06  A 
ATOM     24  CD1 PHE P 631      27.870  11.973 -13.946  1.00 30.72 LIG 0.01  A 
ATOM     25  CE1 PHE P 631      29.095  11.688 -13.362  1.00 26.28 LIG 0.00  A 
ATOM     26  CZ  PHE P 631      29.617  10.414 -13.435  1.00 23.54 LIG 0.00  A 
ATOM     27  CE2 PHE P 631      28.923   9.413 -14.099  1.00 23.94 LIG 0.00  A 
ATOM     28  CD2 PHE P 631      27.732   9.727 -14.677  1.00 24.70 LIG 0.01  A 
ENDBRANCH 22 23
ENDBRANCH 5 22
ENDBRANCH 3 5
BRANCH 1 29
ATOM     29  CA  PRO P 630      21.568  10.058 -12.958  1.00 22.29 LIG 0.18  C 
ATOM     30  CB  PRO P 630      21.441   9.898 -11.451  1.00 25.21 LIG 0.04  C 
ATOM     31  CG  PRO P 630      22.341   8.750 -11.106  1.00 30.73 LIG 0.02  C 
ATOM     32  CD  PRO P 630      22.383   7.852 -12.317  1.00 29.29 LIG 0.13  C 
ATOM     33  N   PRO P 630      21.992   8.727 -13.416  1.00 28.31 LIG-0.34  N 
ATOM     34  C   ASP P 629      21.960   8.486 -14.733  1.00 28.38 LIG 0.24  C 
ATOM     35 O    ASP P 629      21.726   9.386 -15.552  1.00 35.14 LIG-0.27  OA
BRANCH 34 36
ATOM     36  CA  ASP P 629      22.235   7.073 -15.195  1.00 31.37 LIG 0.19  C 
BRANCH 36 37
ATOM     37  CB  ASP P 629      23.357   6.999 -16.250  1.00 29.57 LIG 0.15  C 
BRANCH 37 38
ATOM     38  CG  ASP P 629      24.261   5.810 -15.979  1.00 37.10 LIG 0.17  C 
ATOM     39 OD2  ASP P 629      25.474   6.002 -15.740  1.00 43.68 LIG-0.65  OA
ATOM     40 OD1  ASP P 629      23.760   4.667 -15.975  1.00 36.00 LIG-0.65  OA
ENDBRANCH 37 38
ENDBRANCH 36 37
BRANCH 36 41
ATOM     41  N   ASP P 629      21.043   6.510 -15.794  1.00 43.53 LIG-0.34  N 
ATOM     42 H    ASP P 629      20.589   7.112 -16.209  1.00 43.53 LIG 0.16  HD
ATOM     43  C   SER P 628      20.628   5.261 -15.762  1.00 52.75 LIG 0.26  C 
ATOM     44 O    SER P 628      21.218   4.327 -15.225  1.00 74.95 LIG-0.27  OA
BRANCH 43 45
ATOM     45  CA  SER P 628      19.295   5.071 -16.498  1.00 53.54 LIG 0.42  C 
ATOM     46  N   SER P 628      18.636   3.809 -16.165  1.00 68.72 LIG 0.62  N 
BRANCH 45 47
ATOM     47  CB  SER P 628      18.394   6.254 -16.130  1.00 49.52 LIG 0.21  C 
BRANCH 47 48
ATOM     48 OG   SER P 628      18.213   6.351 -14.724  1.00 73.20 LIG-0.40  OA
ATOM     49 HG   SER P 628      17.509   5.949 -14.503  1.00 73.20 LIG 0.21  HD
ENDBRANCH 47 48
ENDBRANCH 45 47
ENDBRANCH 43 45
ENDBRANCH 36 41
ENDBRANCH 34 36
ENDBRANCH 1 29
TORSDOF 19
ENDMDL
MODEL 11
USER: ADFR SOLUTION from run 94
USER: SCORE 15.469497 LL:  -3.054 LR: -12.800 RR:   0.000 FEB:  -7.132
USER: RMSD 7.656111
USER: SEED 93
USER: STATUS 1 or 2 clusters left
USER: GENES 21
USER: genes 0 Translation |==|  0.46469 0.34375 0.51913
USER: genes 1 Rotation |==|  0.55338 0.67391 0.22088 0.87282
USER: genes 2 Torsion [C]-N--CA-[C] |==|  0.83832
USER: genes 3 Torsion [N]-CA--C-[N] |==|  0.94420
USER: genes 4 Torsion [C]-N--CA-[CB] |==|  0.87772
USER: genes 5 Torsion [N]-CA--C-[O] |==|  0.58238
USER: genes 6 Torsion [N]-CA--CB-[CG] |==|  0.25195
USER: genes 7 Torsion [CA]-CB--CG-[CD] |==|  0.50320
USER: genes 8 Torsion [CB]-CG--CD-[CE] |==|  0.88848
USER: genes 9 Torsion [CG]-CD--CE-[NZ] |==|  0.37423
USER: genes 10 Torsion [CD]-CE--NZ-[HZ2] |==|  0.31983
USER: genes 11 Torsion [N]-CA--CB-[CG] |==|  0.61044
USER: genes 12 Torsion [CA]-CB--CG-[CD1] |==|  0.95601
USER: genes 13 Torsion [O]-C--CA-[CB] |==|  0.35055
USER: genes 14 Torsion [N]-C--CA-[N] |==|  0.85007
USER: genes 15 Torsion [C]-CA--CB-[CG] |==|  0.12771
USER: genes 16 Torsion [CA]-CB--CG-[OD1] |==|  0.70007
USER: genes 17 Torsion [C]-CA--N-[C] |==|  0.75757
USER: genes 18 Torsion [N]-C--CA-[N] |==|  0.34020
USER: genes 19 Torsion [C]-CA--CB-[OG] |==|  0.96984
USER: genes 20 Torsion [CA]-CB--OG-[HG] |==|  0.26364
ROOT
ATOM      1  C   PRO P 630      24.410   6.586 -16.006  1.00 36.04 LIG 0.24  C 
ATOM      2 O    PRO P 630      23.861   5.467 -15.932  1.00 33.55 LIG-0.27  OA
ATOM      3  N   PHE P 631      23.944   7.676 -15.402  1.00 24.81 LIG-0.35  N 
ATOM      4 H    PHE P 631      24.327   8.444 -15.455  1.00 24.81 LIG 0.16  HD
ENDROOT
BRANCH 3 5
ATOM      5  CA  PHE P 631      22.749   7.678 -14.596  1.00 30.16 LIG 0.18  C 
BRANCH 5 6
ATOM      6  C   PHE P 631      21.566   7.190 -15.477  1.00 46.65 LIG 0.24  C 
ATOM      7  N   LYS P 632      21.749   7.277 -16.783  1.00 37.40 LIG-0.34  N 
ATOM      8 H    LYS P 632      22.462   7.604 -17.136  1.00 37.40 LIG 0.16  HD
ATOM      9 O    PHE P 631      20.561   6.821 -14.855  1.00 54.45 LIG-0.27  OA
BRANCH 7 10
ATOM     10  CA  LYS P 632      20.746   6.822 -17.782  1.00 44.88 LIG 0.18  C 
BRANCH 10 11
ATOM     11  C   LYS P 632      19.689   7.896 -18.008  1.00 45.53 LIG 0.20  C 
ATOM     12 O    LYS P 632      18.521   7.602 -18.330  1.00 61.11 LIG-0.65  OA
ATOM     13 OXT  LYS P 632      20.036   9.091 -17.850  1.00 57.29 LIG-0.65  OA
ENDBRANCH 10 11
BRANCH 10 14
ATOM     14  CB  LYS P 632      20.175   5.475 -17.385  1.00 47.81 LIG 0.04  C 
BRANCH 14 15
ATOM     15  CG  LYS P 632      18.938   5.299 -16.526  1.00 54.84 LIG 0.00  C 
BRANCH 15 16
ATOM     16  CD  LYS P 632      18.715   3.786 -16.335  1.00 63.82 LIG 0.03  C 
BRANCH 16 17
ATOM     17  CE  LYS P 632      19.009   3.072 -17.654  1.00 66.19 LIG 0.23  C 
BRANCH 17 18
ATOM     18  NZ  LYS P 632      19.840   1.852 -17.475  1.00 52.45 LIG-0.08  N 
ATOM     19 HZ2  LYS P 632      19.368   1.133 -17.705  1.00 52.45 LIG 0.27  HD
ATOM     20 HZ1  LYS P 632      20.087   1.784 -16.623  1.00 52.45 LIG 0.27  HD
ATOM     21 HZ3  LYS P 632      20.565   1.908 -17.990  1.00 52.45 LIG 0.27  HD
ENDBRANCH 17 18
ENDBRANCH 16 17
ENDBRANCH 15 16
ENDBRANCH 14 15
ENDBRANCH 10 14
ENDBRANCH 7 10
ENDBRANCH 5 6
BRANCH 5 22
ATOM     22  CB  PHE P 631      22.313   9.008 -14.001  1.00 25.51 LIG 0.07  C 
BRANCH 22 23
ATOM     23  CG  PHE P 631      21.764   9.026 -12.571  1.00 27.58 LIG-0.06  A 
ATOM     24  CD1 PHE P 631      21.334   7.901 -11.868  1.00 30.72 LIG 0.01  A 
ATOM     25  CE1 PHE P 631      20.844   8.022 -10.577  1.00 26.28 LIG 0.00  A 
ATOM     26  CZ  PHE P 631      20.782   9.261  -9.973  1.00 23.54 LIG 0.00  A 
ATOM     27  CE2 PHE P 631      21.204  10.392 -10.658  1.00 23.94 LIG 0.00  A 
ATOM     28  CD2 PHE P 631      21.664  10.243 -11.930  1.00 24.70 LIG 0.01  A 
ENDBRANCH 22 23
ENDBRANCH 5 22
ENDBRANCH 3 5
BRANCH 1 29
ATOM     29  CA  PRO P 630      25.675   6.688 -16.833  1.00 22.29 LIG 0.18  C 
ATOM     30  CB  PRO P 630      25.605   7.776 -17.893  1.00 25.21 LIG 0.04  C 
ATOM     31  CG  PRO P 630      25.209   7.065 -19.152  1.00 30.73 LIG 0.02  C 
ATOM     32  CD  PRO P 630      25.739   5.658 -19.040  1.00 29.29 LIG 0.13  C 
ATOM     33  N   PRO P 630      25.915   5.461 -17.607  1.00 28.31 LIG-0.34  N 
ATOM     34  C   ASP P 629      26.261   4.359 -16.929  1.00 28.38 LIG 0.24  C 
ATOM     35 O    ASP P 629      26.239   4.325 -15.690  1.00 35.14 LIG-0.27  OA
BRANCH 34 36
ATOM     36  CA  ASP P 629      26.668   3.142 -17.728  1.00 31.37 LIG 0.19  C 
BRANCH 36 37
ATOM     37  CB  ASP P 629      27.973   3.359 -18.520  1.00 29.57 LIG 0.15  C 
BRANCH 37 38
ATOM     38  CG  ASP P 629      29.024   4.012 -17.642  1.00 37.10 LIG 0.17  C 
ATOM     39 OD2  ASP P 629      29.588   3.336 -16.753  1.00 43.68 LIG-0.65  OA
ATOM     40 OD1  ASP P 629      29.319   5.206 -17.851  1.00 36.00 LIG-0.65  OA
ENDBRANCH 37 38
ENDBRANCH 36 37
BRANCH 36 41
ATOM     41  N   ASP P 629      25.633   2.814 -18.685  1.00 43.53 LIG-0.34  N 
ATOM     42 H    ASP P 629      25.781   3.187 -19.446  1.00 43.53 LIG 0.16  HD
ATOM     43  C   SER P 628      24.571   2.055 -18.507  1.00 52.75 LIG 0.26  C 
ATOM     44 O    SER P 628      24.288   1.456 -17.473  1.00 74.95 LIG-0.27  OA
BRANCH 43 45
ATOM     45  CA  SER P 628      23.694   1.975 -19.764  1.00 53.54 LIG 0.42  C 
ATOM     46  N   SER P 628      23.496   0.605 -20.234  1.00 68.72 LIG 0.62  N 
BRANCH 45 47
ATOM     47  CB  SER P 628      22.347   2.621 -19.426  1.00 49.52 LIG 0.21  C 
BRANCH 47 48
ATOM     48 OG   SER P 628      22.222   2.861 -18.031  1.00 73.20 LIG-0.40  OA
ATOM     49 HG   SER P 628      22.454   3.651 -17.860  1.00 73.20 LIG 0.21  HD
ENDBRANCH 47 48
ENDBRANCH 45 47
ENDBRANCH 43 45
ENDBRANCH 36 41
ENDBRANCH 34 36
ENDBRANCH 1 29
TORSDOF 19
ENDMDL
MODEL 12
USER: ADFR SOLUTION from run 138
USER: SCORE 15.311744 LL:  -3.892 LR: -12.772 RR:   0.000 FEB:  -7.104
USER: RMSD 7.323246
USER: SEED 137
USER: STATUS searching
USER: GENES 21
USER: genes 0 Translation |==|  0.29930 0.37615 0.52398
USER: genes 1 Rotation |==|  0.45497 0.72501 0.07789 0.63845
USER: genes 2 Torsion [C]-N--CA-[C] |==|  0.48186
USER: genes 3 Torsion [N]-CA--C-[N] |==|  0.84896
USER: genes 4 Torsion [C]-N--CA-[CB] |==|  0.17227
USER: genes 5 Torsion [N]-CA--C-[O] |==|  0.04041
USER: genes 6 Torsion [N]-CA--CB-[CG] |==|  0.73475
USER: genes 7 Torsion [CA]-CB--CG-[CD] |==|  0.59119
USER: genes 8 Torsion [CB]-CG--CD-[CE] |==|  0.53631
USER: genes 9 Torsion [CG]-CD--CE-[NZ] |==|  0.18831
USER: genes 10 Torsion [CD]-CE--NZ-[HZ2] |==|  0.92770
USER: genes 11 Torsion [N]-CA--CB-[CG] |==|  0.64076
USER: genes 12 Torsion [CA]-CB--CG-[CD1] |==|  0.87460
USER: genes 13 Torsion [O]-C--CA-[CB] |==|  0.04750
USER: genes 14 Torsion [N]-C--CA-[N] |==|  0.43021
USER: genes 15 Torsion [C]-CA--CB-[CG] |==|  0.32562
USER: genes 16 Torsion [CA]-CB--CG-[OD1] |==|  0.45937
USER: genes 17 Torsion [C]-CA--N-[C] |==|  0.81776
USER: genes 18 Torsion [N]-C--CA-[N] |==|  0.46583
USER: genes 19 Torsion [C]-CA--CB-[OG] |==|  0.32258
USER: genes 20 Torsion [CA]-CB--OG-[HG] |==|  0.61029
ROOT
ATOM      1  C   PRO P 630      21.805   7.315 -15.918  1.00 36.04 LIG 0.24  C 
ATOM      2 O    PRO P 630      21.028   7.000 -14.992  1.00 33.55 LIG-0.27  OA
ATOM      3  N   PHE P 631      22.659   8.332 -15.849  1.00 24.81 LIG-0.35  N 
ATOM      4 H    PHE P 631      23.193   8.544 -16.489  1.00 24.81 LIG 0.16  HD
ENDROOT
BRANCH 3 5
ATOM      5  CA  PHE P 631      22.777   9.183 -14.691  1.00 30.16 LIG 0.18  C 
BRANCH 5 6
ATOM      6  C   PHE P 631      23.979  10.142 -14.911  1.00 46.65 LIG 0.24  C 
ATOM      7  N   LYS P 632      25.131   9.562 -15.198  1.00 37.40 LIG-0.34  N 
ATOM      8 H    LYS P 632      25.229   8.709 -15.239  1.00 37.40 LIG 0.16  HD
ATOM      9 O    PHE P 631      23.734  11.344 -14.741  1.00 54.45 LIG-0.27  OA
BRANCH 7 10
ATOM     10  CA  LYS P 632      26.380  10.318 -15.480  1.00 44.88 LIG 0.18  C 
BRANCH 10 11
ATOM     11  C   LYS P 632      27.470   9.382 -15.989  1.00 45.53 LIG 0.20  C 
ATOM     12 O    LYS P 632      27.206   8.227 -16.377  1.00 61.11 LIG-0.65  OA
ATOM     13 OXT  LYS P 632      28.645   9.821 -16.011  1.00 57.29 LIG-0.65  OA
ENDBRANCH 10 11
BRANCH 10 14
ATOM     14  CB  LYS P 632      26.790  11.136 -14.272  1.00 47.81 LIG 0.04  C 
BRANCH 14 15
ATOM     15  CG  LYS P 632      26.436  12.598 -14.079  1.00 54.84 LIG 0.00  C 
BRANCH 15 16
ATOM     16  CD  LYS P 632      27.596  13.261 -13.311  1.00 63.82 LIG 0.03  C 
BRANCH 16 17
ATOM     17  CE  LYS P 632      27.141  14.634 -12.815  1.00 66.19 LIG 0.23  C 
BRANCH 17 18
ATOM     18  NZ  LYS P 632      26.091  14.547 -11.766  1.00 52.45 LIG-0.08  N 
ATOM     19 HZ2  LYS P 632      25.641  13.785 -11.858  1.00 52.45 LIG 0.27  HD
ATOM     20 HZ1  LYS P 632      25.531  15.234 -11.849  1.00 52.45 LIG 0.27  HD
ATOM     21 HZ3  LYS P 632      26.472  14.571 -10.962  1.00 52.45 LIG 0.27  HD
ENDBRANCH 17 18
ENDBRANCH 16 17
ENDBRANCH 15 16
ENDBRANCH 14 15
ENDBRANCH 10 14
ENDBRANCH 7 10
ENDBRANCH 5 6
BRANCH 5 22
ATOM     22  CB  PHE P 631      23.017   8.505 -13.351  1.00 25.51 LIG 0.07  C 
BRANCH 22 23
ATOM     23  CG  PHE P 631      22.113   8.876 -12.170  1.00 27.58 LIG-0.06  A 
ATOM     24  CD1 PHE P 631      21.754  10.176 -11.820  1.00 30.72 LIG 0.01  A 
ATOM     25  CE1 PHE P 631      20.936  10.410 -10.725  1.00 26.28 LIG 0.00  A 
ATOM     26  CZ  PHE P 631      20.464   9.352  -9.975  1.00 23.54 LIG 0.00  A 
ATOM     27  CE2 PHE P 631      20.813   8.052 -10.308  1.00 23.94 LIG 0.00  A 
ATOM     28  CD2 PHE P 631      21.631   7.855 -11.378  1.00 24.70 LIG 0.01  A 
ENDBRANCH 22 23
ENDBRANCH 5 22
ENDBRANCH 3 5
BRANCH 1 29
ATOM     29  CA  PRO P 630      21.757   6.481 -17.182  1.00 22.29 LIG 0.18  C 
ATOM     30  CB  PRO P 630      20.491   5.644 -17.291  1.00 25.21 LIG 0.04  C 
ATOM     31  CG  PRO P 630      20.878   4.289 -16.781  1.00 30.73 LIG 0.02  C 
ATOM     32  CD  PRO P 630      22.348   4.119 -17.070  1.00 29.29 LIG 0.13  C 
ATOM     33  N   PRO P 630      22.837   5.485 -17.214  1.00 28.31 LIG-0.34  N 
ATOM     34  C   ASP P 629      24.089   5.934 -17.373  1.00 28.38 LIG 0.24  C 
ATOM     35 O    ASP P 629      24.352   7.145 -17.348  1.00 35.14 LIG-0.27  OA
BRANCH 34 36
ATOM     36  CA  ASP P 629      25.183   4.910 -17.571  1.00 31.37 LIG 0.19  C 
BRANCH 36 37
ATOM     37  CB  ASP P 629      25.738   4.366 -16.240  1.00 29.57 LIG 0.15  C 
BRANCH 37 38
ATOM     38  CG  ASP P 629      25.476   2.876 -16.126  1.00 37.10 LIG 0.17  C 
ATOM     39 OD2  ASP P 629      24.676   2.330 -16.919  1.00 43.68 LIG-0.65  OA
ATOM     40 OD1  ASP P 629      26.090   2.226 -15.256  1.00 36.00 LIG-0.65  OA
ENDBRANCH 37 38
ENDBRANCH 36 37
BRANCH 36 41
ATOM     41  N   ASP P 629      26.291   5.506 -18.288  1.00 43.53 LIG-0.34  N 
ATOM     42 H    ASP P 629      26.995   5.547 -17.796  1.00 43.53 LIG 0.16  HD
ATOM     43  C   SER P 628      26.312   5.954 -19.526  1.00 52.75 LIG 0.26  C 
ATOM     44 O    SER P 628      25.372   5.913 -20.316  1.00 74.95 LIG-0.27  OA
BRANCH 43 45
ATOM     45  CA  SER P 628      27.677   6.542 -19.910  1.00 53.54 LIG 0.42  C 
ATOM     46  N   SER P 628      27.811   6.779 -21.346  1.00 68.72 LIG 0.62  N 
BRANCH 45 47
ATOM     47  CB  SER P 628      27.845   7.854 -19.138  1.00 49.52 LIG 0.21  C 
BRANCH 47 48
ATOM     48 OG   SER P 628      28.931   7.784 -18.225  1.00 73.20 LIG-0.40  OA
ATOM     49 HG   SER P 628      28.722   8.171 -17.509  1.00 73.20 LIG 0.21  HD
ENDBRANCH 47 48
ENDBRANCH 45 47
ENDBRANCH 43 45
ENDBRANCH 36 41
ENDBRANCH 34 36
ENDBRANCH 1 29
TORSDOF 19
ENDMDL
MODEL 13
USER: ADFR SOLUTION from run 94
USER: SCORE 17.003537 LL:  -4.358 LR: -12.737 RR:   0.000 FEB:  -7.069
USER: RMSD 7.765500
USER: SEED 93
USER: STATUS 1 or 2 clusters left
USER: GENES 21
USER: genes 0 Translation |==|  0.46562 0.34399 0.51820
USER: genes 1 Rotation |==|  0.55144 0.67373 0.22101 0.87327
USER: genes 2 Torsion [C]-N--CA-[C] |==|  0.83704
USER: genes 3 Torsion [N]-CA--C-[N] |==|  0.94380
USER: genes 4 Torsion [C]-N--CA-[CB] |==|  0.87775
USER: genes 5 Torsion [N]-CA--C-[O] |==|  0.58166
USER: genes 6 Torsion [N]-CA--CB-[CG] |==|  0.25230
USER: genes 7 Torsion [CA]-CB--CG-[CD] |==|  0.50415
USER: genes 8 Torsion [CB]-CG--CD-[CE] |==|  0.88831
USER: genes 9 Torsion [CG]-CD--CE-[NZ] |==|  0.37597
USER: genes 10 Torsion [CD]-CE--NZ-[HZ2] |==|  0.31988
USER: genes 11 Torsion [N]-CA--CB-[CG] |==|  0.61133
USER: genes 12 Torsion [CA]-CB--CG-[CD1] |==|  0.95627
USER: genes 13 Torsion [O]-C--CA-[CB] |==|  0.38011
USER: genes 14 Torsion [N]-C--CA-[N] |==|  0.44726
USER: genes 15 Torsion [C]-CA--CB-[CG] |==|  0.83654
USER: genes 16 Torsion [CA]-CB--CG-[OD1] |==|  0.91705
USER: genes 17 Torsion [C]-CA--N-[C] |==|  0.80455
USER: genes 18 Torsion [N]-C--CA-[N] |==|  0.55333
USER: genes 19 Torsion [C]-CA--CB-[OG] |==|  0.86119
USER: genes 20 Torsion [CA]-CB--OG-[HG] |==|  0.21813
ROOT
ATOM      1  C   PRO P 630      24.425   6.592 -16.022  1.00 36.04 LIG 0.24  C 
ATOM      2 O    PRO P 630      23.880   5.470 -15.940  1.00 33.55 LIG-0.27  OA
ATOM      3  N   PHE P 631      23.956   7.683 -15.424  1.00 24.81 LIG-0.35  N 
ATOM      4 H    PHE P 631      24.336   8.453 -15.483  1.00 24.81 LIG 0.16  HD
ENDROOT
BRANCH 3 5
ATOM      5  CA  PHE P 631      22.763   7.686 -14.614  1.00 30.16 LIG 0.18  C 
BRANCH 5 6
ATOM      6  C   PHE P 631      21.578   7.198 -15.492  1.00 46.65 LIG 0.24  C 
ATOM      7  N   LYS P 632      21.756   7.289 -16.798  1.00 37.40 LIG-0.34  N 
ATOM      8 H    LYS P 632      22.466   7.617 -17.153  1.00 37.40 LIG 0.16  HD
ATOM      9 O    PHE P 631      20.575   6.827 -14.867  1.00 54.45 LIG-0.27  OA
BRANCH 7 10
ATOM     10  CA  LYS P 632      20.749   6.835 -17.795  1.00 44.88 LIG 0.18  C 
BRANCH 10 11
ATOM     11  C   LYS P 632      19.691   7.908 -18.014  1.00 45.53 LIG 0.20  C 
ATOM     12 O    LYS P 632      18.522   7.615 -18.337  1.00 61.11 LIG-0.65  OA
ATOM     13 OXT  LYS P 632      20.036   9.104 -17.850  1.00 57.29 LIG-0.65  OA
ENDBRANCH 10 11
BRANCH 10 14
ATOM     14  CB  LYS P 632      20.181   5.487 -17.399  1.00 47.81 LIG 0.04  C 
BRANCH 14 15
ATOM     15  CG  LYS P 632      18.945   5.308 -16.538  1.00 54.84 LIG 0.00  C 
BRANCH 15 16
ATOM     16  CD  LYS P 632      18.730   3.795 -16.341  1.00 63.82 LIG 0.03  C 
BRANCH 16 17
ATOM     17  CE  LYS P 632      19.024   3.077 -17.658  1.00 66.19 LIG 0.23  C 
BRANCH 17 18
ATOM     18  NZ  LYS P 632      19.849   1.854 -17.475  1.00 52.45 LIG-0.08  N 
ATOM     19 HZ2  LYS P 632      19.375   1.137 -17.706  1.00 52.45 LIG 0.27  HD
ATOM     20 HZ1  LYS P 632      20.093   1.785 -16.622  1.00 52.45 LIG 0.27  HD
ATOM     21 HZ3  LYS P 632      20.576   1.906 -17.987  1.00 52.45 LIG 0.27  HD
ENDBRANCH 17 18
ENDBRANCH 16 17
ENDBRANCH 15 16
ENDBRANCH 14 15
ENDBRANCH 10 14
ENDBRANCH 7 10
ENDBRANCH 5 6
BRANCH 5 22
ATOM     22  CB  PHE P 631      22.330   9.015 -14.018  1.00 25.51 LIG 0.07  C 
BRANCH 22 23
ATOM     23  CG  PHE P 631      21.792   9.034 -12.583  1.00 27.58 LIG-0.06  A 
ATOM     24  CD1 PHE P 631      21.372   7.909 -11.875  1.00 30.72 LIG 0.01  A 
ATOM     25  CE1 PHE P 631      20.891   8.031 -10.580  1.00 26.28 LIG 0.00  A 
ATOM     26  CZ  PHE P 631      20.831   9.271  -9.978  1.00 23.54 LIG 0.00  A 
ATOM     27  CE2 PHE P 631      21.243  10.401 -10.668  1.00 23.94 LIG 0.00  A 
ATOM     28  CD2 PHE P 631      21.694  10.252 -11.944  1.00 24.70 LIG 0.01  A 
ENDBRANCH 22 23
ENDBRANCH 5 22
ENDBRANCH 3 5
BRANCH 1 29
ATOM     29  CA  PRO P 630      25.687   6.693 -16.854  1.00 22.29 LIG 0.18  C 
ATOM     30  CB  PRO P 630      25.715   7.929 -17.740  1.00 25.21 LIG 0.04  C 
ATOM     31  CG  PRO P 630      25.241   7.455 -19.081  1.00 30.73 LIG 0.02  C 
ATOM     32  CD  PRO P 630      25.631   6.001 -19.190  1.00 29.29 LIG 0.13  C 
ATOM     33  N   PRO P 630      25.799   5.578 -17.805  1.00 28.31 LIG-0.34  N 
ATOM     34  C   ASP P 629      26.040   4.359 -17.305  1.00 28.38 LIG 0.24  C 
ATOM     35 O    ASP P 629      26.025   4.144 -16.084  1.00 35.14 LIG-0.27  OA
BRANCH 34 36
ATOM     36  CA  ASP P 629      26.319   3.242 -18.284  1.00 31.37 LIG 0.19  C 
BRANCH 36 37
ATOM     37  CB  ASP P 629      25.036   2.676 -18.924  1.00 29.57 LIG 0.15  C 
BRANCH 37 38
ATOM     38  CG  ASP P 629      24.100   2.146 -17.854  1.00 37.10 LIG 0.17  C 
ATOM     39 OD2  ASP P 629      22.865   2.146 -18.062  1.00 43.68 LIG-0.65  OA
ATOM     40 OD1  ASP P 629      24.591   1.695 -16.800  1.00 36.00 LIG-0.65  OA
ENDBRANCH 37 38
ENDBRANCH 36 37
BRANCH 36 41
ATOM     41  N   ASP P 629      26.980   2.147 -17.605  1.00 43.53 LIG-0.34  N 
ATOM     42 H    ASP P 629      26.460   1.466 -17.530  1.00 43.53 LIG 0.16  HD
ATOM     43  C   SER P 628      28.208   2.106 -17.130  1.00 52.75 LIG 0.26  C 
ATOM     44 O    SER P 628      29.035   3.011 -17.213  1.00 74.95 LIG-0.27  OA
BRANCH 43 45
ATOM     45  CA  SER P 628      28.526   0.768 -16.450  1.00 53.54 LIG 0.42  C 
ATOM     46  N   SER P 628      29.673   0.846 -15.547  1.00 68.72 LIG 0.62  N 
BRANCH 45 47
ATOM     47  CB  SER P 628      27.274   0.335 -15.681  1.00 49.52 LIG 0.21  C 
BRANCH 47 48
ATOM     48 OG   SER P 628      26.777   1.384 -14.863  1.00 73.20 LIG-0.40  OA
ATOM     49 HG   SER P 628      26.351   1.932 -15.336  1.00 73.20 LIG 0.21  HD
ENDBRANCH 47 48
ENDBRANCH 45 47
ENDBRANCH 43 45
ENDBRANCH 36 41
ENDBRANCH 34 36
ENDBRANCH 1 29
TORSDOF 19
ENDMDL
MODEL 14
USER: ADFR SOLUTION from run 171
USER: SCORE 14.780660 LL:  -3.210 LR: -12.675 RR:   0.000 FEB:  -7.007
USER: RMSD 4.731631
USER: SEED 170
USER: STATUS no improvement in best in 8 clusters for 5 generations
USER: GENES 21
USER: genes 0 Translation |==|  0.36438 0.49521 0.53683
USER: genes 1 Rotation |==|  0.27455 0.07987 0.64883 0.52262
USER: genes 2 Torsion [C]-N--CA-[C] |==|  0.22203
USER: genes 3 Torsion [N]-CA--C-[N] |==|  0.25337
USER: genes 4 Torsion [C]-N--CA-[CB] |==|  0.15760
USER: genes 5 Torsion [N]-CA--C-[O] |==|  0.46443
USER: genes 6 Torsion [N]-CA--CB-[CG] |==|  0.64538
USER: genes 7 Torsion [CA]-CB--CG-[CD] |==|  0.08889
USER: genes 8 Torsion [CB]-CG--CD-[CE] |==|  0.59264
USER: genes 9 Torsion [CG]-CD--CE-[NZ] |==|  0.36902
USER: genes 10 Torsion [CD]-CE--NZ-[HZ2] |==|  0.18948
USER: genes 11 Torsion [N]-CA--CB-[CG] |==|  0.84095
USER: genes 12 Torsion [CA]-CB--CG-[CD1] |==|  0.15363
USER: genes 13 Torsion [O]-C--CA-[CB] |==|  0.81189
USER: genes 14 Torsion [N]-C--CA-[N] |==|  0.42109
USER: genes 15 Torsion [C]-CA--CB-[CG] |==|  0.16068
USER: genes 16 Torsion [CA]-CB--CG-[OD1] |==|  0.72339
USER: genes 17 Torsion [C]-CA--N-[C] |==|  0.82066
USER: genes 18 Torsion [N]-C--CA-[N] |==|  0.25164
USER: genes 19 Torsion [C]-CA--CB-[OG] |==|  0.44401
USER: genes 20 Torsion [CA]-CB--OG-[HG] |==|  0.76170
ROOT
ATOM      1  C   PRO P 630      22.830   9.994 -15.687  1.00 36.04 LIG 0.24  C 
ATOM      2 O    PRO P 630      21.581   9.980 -15.701  1.00 33.55 LIG-0.27  OA
ATOM      3  N   PHE P 631      23.570   9.077 -15.070  1.00 24.81 LIG-0.35  N 
ATOM      4 H    PHE P 631      24.429   9.091 -15.064  1.00 24.81 LIG 0.16  HD
ENDROOT
BRANCH 3 5
ATOM      5  CA  PHE P 631      23.003   7.966 -14.347  1.00 30.16 LIG 0.18  C 
BRANCH 5 6
ATOM      6  C   PHE P 631      22.595   6.874 -15.373  1.00 46.65 LIG 0.24  C 
ATOM      7  N   LYS P 632      23.517   5.965 -15.641  1.00 37.40 LIG-0.34  N 
ATOM      8 H    LYS P 632      24.303   5.979 -15.295  1.00 37.40 LIG 0.16  HD
ATOM      9 O    PHE P 631      21.468   7.008 -15.868  1.00 54.45 LIG-0.27  OA
BRANCH 7 10
ATOM     10  CA  LYS P 632      23.294   4.823 -16.567  1.00 44.88 LIG 0.18  C 
BRANCH 10 11
ATOM     11  C   LYS P 632      24.513   3.908 -16.591  1.00 45.53 LIG 0.20  C 
ATOM     12 O    LYS P 632      24.466   2.774 -17.107  1.00 61.11 LIG-0.65  OA
ATOM     13 OXT  LYS P 632      25.573   4.343 -16.078  1.00 57.29 LIG-0.65  OA
ENDBRANCH 10 11
BRANCH 10 14
ATOM     14  CB  LYS P 632      22.876   5.321 -17.935  1.00 47.81 LIG 0.04  C 
BRANCH 14 15
ATOM     15  CG  LYS P 632      21.643   4.835 -18.673  1.00 54.84 LIG 0.00  C 
BRANCH 15 16
ATOM     16  CD  LYS P 632      20.576   4.485 -17.617  1.00 63.82 LIG 0.03  C 
BRANCH 16 17
ATOM     17  CE  LYS P 632      19.743   3.308 -18.125  1.00 66.19 LIG 0.23  C 
BRANCH 17 18
ATOM     18  NZ  LYS P 632      19.562   2.246 -17.100  1.00 52.45 LIG-0.08  N 
ATOM     19 HZ2  LYS P 632      19.045   2.552 -16.443  1.00 52.45 LIG 0.27  HD
ATOM     20 HZ1  LYS P 632      20.356   2.015 -16.770  1.00 52.45 LIG 0.27  HD
ATOM     21 HZ3  LYS P 632      19.178   1.535 -17.473  1.00 52.45 LIG 0.27  HD
ENDBRANCH 17 18
ENDBRANCH 16 17
ENDBRANCH 15 16
ENDBRANCH 14 15
ENDBRANCH 10 14
ENDBRANCH 7 10
ENDBRANCH 5 6
BRANCH 5 22
ATOM     22  CB  PHE P 631      21.765   8.241 -13.507  1.00 25.51 LIG 0.07  C 
BRANCH 22 23
ATOM     23  CG  PHE P 631      21.844   9.315 -12.417  1.00 27.58 LIG-0.06  A 
ATOM     24  CD1 PHE P 631      22.229  10.638 -12.628  1.00 30.72 LIG 0.01  A 
ATOM     25  CE1 PHE P 631      22.275  11.535 -11.571  1.00 26.28 LIG 0.00  A 
ATOM     26  CZ  PHE P 631      21.935  11.124 -10.299  1.00 23.54 LIG 0.00  A 
ATOM     27  CE2 PHE P 631      21.551   9.811 -10.070  1.00 23.94 LIG 0.00  A 
ATOM     28  CD2 PHE P 631      21.531   8.950 -11.124  1.00 24.70 LIG 0.01  A 
ENDBRANCH 22 23
ENDBRANCH 5 22
ENDBRANCH 3 5
BRANCH 1 29
ATOM     29  CA  PRO P 630      23.522  11.125 -16.420  1.00 22.29 LIG 0.18  C 
ATOM     30  CB  PRO P 630      23.340  11.053 -17.928  1.00 25.21 LIG 0.04  C 
ATOM     31  CG  PRO P 630      24.579  10.380 -18.436  1.00 30.73 LIG 0.02  C 
ATOM     32  CD  PRO P 630      25.685  10.717 -17.466  1.00 29.29 LIG 0.13  C 
ATOM     33  N   PRO P 630      24.980  11.073 -16.241  1.00 28.31 LIG-0.34  N 
ATOM     34  C   ASP P 629      25.465  11.357 -15.025  1.00 28.38 LIG 0.24  C 
ATOM     35 O    ASP P 629      24.718  11.513 -14.049  1.00 35.14 LIG-0.27  OA
BRANCH 34 36
ATOM     36  CA  ASP P 629      26.966  11.466 -14.876  1.00 31.37 LIG 0.19  C 
BRANCH 36 37
ATOM     37  CB  ASP P 629      27.632  10.115 -14.552  1.00 29.57 LIG 0.15  C 
BRANCH 37 38
ATOM     38  CG  ASP P 629      27.317   9.096 -15.631  1.00 37.10 LIG 0.17  C 
ATOM     39 OD2  ASP P 629      27.988   9.091 -16.688  1.00 43.68 LIG-0.65  OA
ATOM     40 OD1  ASP P 629      26.409   8.265 -15.422  1.00 36.00 LIG-0.65  OA
ENDBRANCH 37 38
ENDBRANCH 36 37
BRANCH 36 41
ATOM     41  N   ASP P 629      27.288  12.375 -13.797  1.00 43.53 LIG-0.34  N 
ATOM     42 H    ASP P 629      27.686  11.967 -13.153  1.00 43.53 LIG 0.16  HD
ATOM     43  C   SER P 628      27.043  13.667 -13.720  1.00 52.75 LIG 0.26  C 
ATOM     44 O    SER P 628      26.509  14.345 -14.594  1.00 74.95 LIG-0.27  OA
BRANCH 43 45
ATOM     45  CA  SER P 628      27.518  14.273 -12.392  1.00 53.54 LIG 0.42  C 
ATOM     46  N   SER P 628      28.891  14.770 -12.451  1.00 68.72 LIG 0.62  N 
BRANCH 45 47
ATOM     47  CB  SER P 628      26.556  15.410 -12.036  1.00 49.52 LIG 0.21  C 
BRANCH 47 48
ATOM     48 OG   SER P 628      26.613  15.726 -10.653  1.00 73.20 LIG-0.40  OA
ATOM     49 HG   SER P 628      26.095  15.221 -10.227  1.00 73.20 LIG 0.21  HD
ENDBRANCH 47 48
ENDBRANCH 45 47
ENDBRANCH 43 45
ENDBRANCH 36 41
ENDBRANCH 34 36
ENDBRANCH 1 29
TORSDOF 19
ENDMDL
MODEL 15
USER: ADFR SOLUTION from run 131
USER: SCORE 14.905817 LL:  -3.360 LR: -12.575 RR:   0.000 FEB:  -6.907
USER: RMSD 4.311635
USER: SEED 130
USER: STATUS no improvement in best in 18 clusters for 5 generations
USER: GENES 21
USER: genes 0 Translation |==|  0.48408 0.43169 0.59224
USER: genes 1 Rotation |==|  0.45075 0.52934 0.46043 0.99512
USER: genes 2 Torsion [C]-N--CA-[C] |==|  0.68250
USER: genes 3 Torsion [N]-CA--C-[N] |==|  0.80594
USER: genes 4 Torsion [C]-N--CA-[CB] |==|  0.21045
USER: genes 5 Torsion [N]-CA--C-[O] |==|  0.95649
USER: genes 6 Torsion [N]-CA--CB-[CG] |==|  0.03306
USER: genes 7 Torsion [CA]-CB--CG-[CD] |==|  0.63671
USER: genes 8 Torsion [CB]-CG--CD-[CE] |==|  0.90976
USER: genes 9 Torsion [CG]-CD--CE-[NZ] |==|  0.39751
USER: genes 10 Torsion [CD]-CE--NZ-[HZ2] |==|  0.29342
USER: genes 11 Torsion [N]-CA--CB-[CG] |==|  0.89703
USER: genes 12 Torsion [CA]-CB--CG-[CD1] |==|  0.67589
USER: genes 13 Torsion [O]-C--CA-[CB] |==|  0.62131
USER: genes 14 Torsion [N]-C--CA-[N] |==|  0.18218
USER: genes 15 Torsion [C]-CA--CB-[CG] |==|  0.83955
USER: genes 16 Torsion [CA]-CB--CG-[OD1] |==|  0.92159
USER: genes 17 Torsion [C]-CA--N-[C] |==|  0.63016
USER: genes 18 Torsion [N]-C--CA-[N] |==|  0.77713
USER: genes 19 Torsion [C]-CA--CB-[OG] |==|  0.15096
USER: genes 20 Torsion [CA]-CB--OG-[HG] |==|  0.67660
ROOT
ATOM      1  C   PRO P 630      24.715   8.565 -14.690  1.00 36.04 LIG 0.24  C 
ATOM      2 O    PRO P 630      25.356   7.644 -14.141  1.00 33.55 LIG-0.27  OA
ATOM      3  N   PHE P 631      23.396   8.547 -14.856  1.00 24.81 LIG-0.35  N 
ATOM      4 H    PHE P 631      22.960   9.185 -15.234  1.00 24.81 LIG 0.16  HD
ENDROOT
BRANCH 3 5
ATOM      5  CA  PHE P 631      22.563   7.455 -14.418  1.00 30.16 LIG 0.18  C 
BRANCH 5 6
ATOM      6  C   PHE P 631      21.950   6.776 -15.673  1.00 46.65 LIG 0.24  C 
ATOM      7  N   LYS P 632      21.042   7.483 -16.322  1.00 37.40 LIG-0.34  N 
ATOM      8 H    LYS P 632      20.781   8.260 -16.064  1.00 37.40 LIG 0.16  HD
ATOM      9 O    PHE P 631      22.343   5.623 -15.895  1.00 54.45 LIG-0.27  OA
BRANCH 7 10
ATOM     10  CA  LYS P 632      20.376   7.015 -17.567  1.00 44.88 LIG 0.18  C 
BRANCH 10 11
ATOM     11  C   LYS P 632      19.840   8.197 -18.365  1.00 45.53 LIG 0.20  C 
ATOM     12 O    LYS P 632      19.716   9.327 -17.851  1.00 61.11 LIG-0.65  OA
ATOM     13 OXT  LYS P 632      19.534   7.994 -19.565  1.00 57.29 LIG-0.65  OA
ENDBRANCH 10 11
BRANCH 10 14
ATOM     14  CB  LYS P 632      19.329   5.967 -17.247  1.00 47.81 LIG 0.04  C 
BRANCH 14 15
ATOM     15  CG  LYS P 632      18.836   5.664 -15.845  1.00 54.84 LIG 0.00  C 
BRANCH 15 16
ATOM     16  CD  LYS P 632      18.895   4.135 -15.651  1.00 63.82 LIG 0.03  C 
BRANCH 16 17
ATOM     17  CE  LYS P 632      18.619   3.455 -16.992  1.00 66.19 LIG 0.23  C 
BRANCH 17 18
ATOM     18  NZ  LYS P 632      19.434   2.227 -17.192  1.00 52.45 LIG-0.08  N 
ATOM     19 HZ2  LYS P 632      18.918   1.509 -17.091  1.00 52.45 LIG 0.27  HD
ATOM     20 HZ1  LYS P 632      20.092   2.207 -16.594  1.00 52.45 LIG 0.27  HD
ATOM     21 HZ3  LYS P 632      19.779   2.230 -18.013  1.00 52.45 LIG 0.27  HD
ENDBRANCH 17 18
ENDBRANCH 16 17
ENDBRANCH 15 16
ENDBRANCH 14 15
ENDBRANCH 10 14
ENDBRANCH 7 10
ENDBRANCH 5 6
BRANCH 5 22
ATOM     22  CB  PHE P 631      21.395   7.793 -13.506  1.00 25.51 LIG 0.07  C 
BRANCH 22 23
ATOM     23  CG  PHE P 631      21.581   8.891 -12.453  1.00 27.58 LIG-0.06  A 
ATOM     24  CD1 PHE P 631      21.516   8.693 -11.075  1.00 30.72 LIG 0.01  A 
ATOM     25  CE1 PHE P 631      21.691   9.756 -10.202  1.00 26.28 LIG 0.00  A 
ATOM     26  CZ  PHE P 631      21.936  11.022 -10.693  1.00 23.54 LIG 0.00  A 
ATOM     27  CE2 PHE P 631      22.001  11.238 -12.061  1.00 23.94 LIG 0.00  A 
ATOM     28  CD2 PHE P 631      21.809  10.178 -12.893  1.00 24.70 LIG 0.01  A 
ENDBRANCH 22 23
ENDBRANCH 5 22
ENDBRANCH 3 5
BRANCH 1 29
ATOM     29  CA  PRO P 630      25.503   9.760 -15.187  1.00 22.29 LIG 0.18  C 
ATOM     30  CB  PRO P 630      24.839  11.087 -14.853  1.00 25.21 LIG 0.04  C 
ATOM     31  CG  PRO P 630      24.081  11.464 -16.090  1.00 30.73 LIG 0.02  C 
ATOM     32  CD  PRO P 630      24.822  10.856 -17.255  1.00 29.29 LIG 0.13  C 
ATOM     33  N   PRO P 630      25.595   9.775 -16.654  1.00 28.31 LIG-0.34  N 
ATOM     34  C   ASP P 629      26.353   8.837 -17.236  1.00 28.38 LIG 0.24  C 
ATOM     35 O    ASP P 629      26.842   7.902 -16.586  1.00 35.14 LIG-0.27  OA
BRANCH 34 36
ATOM     36  CA  ASP P 629      26.583   8.947 -18.726  1.00 31.37 LIG 0.19  C 
BRANCH 36 37
ATOM     37  CB  ASP P 629      27.361   7.745 -19.298  1.00 29.57 LIG 0.15  C 
BRANCH 37 38
ATOM     38  CG  ASP P 629      28.700   7.599 -18.600  1.00 37.10 LIG 0.17  C 
ATOM     39 OD2  ASP P 629      29.240   6.472 -18.535  1.00 43.68 LIG-0.65  OA
ATOM     40 OD1  ASP P 629      29.243   8.619 -18.131  1.00 36.00 LIG-0.65  OA
ENDBRANCH 37 38
ENDBRANCH 36 37
BRANCH 36 41
ATOM     41  N   ASP P 629      27.354  10.137 -19.019  1.00 43.53 LIG-0.34  N 
ATOM     42 H    ASP P 629      28.031  10.207 -18.493  1.00 43.53 LIG 0.16  HD
ATOM     43  C   SER P 628      27.127  11.047 -19.943  1.00 52.75 LIG 0.26  C 
ATOM     44 O    SER P 628      26.209  11.021 -20.758  1.00 74.95 LIG-0.27  OA
BRANCH 43 45
ATOM     45  CA  SER P 628      28.164  12.178 -19.915  1.00 53.54 LIG 0.42  C 
ATOM     46  N   SER P 628      27.894  13.172 -18.878  1.00 68.72 LIG 0.62  N 
BRANCH 45 47
ATOM     47  CB  SER P 628      29.537  11.536 -19.692  1.00 49.52 LIG 0.21  C 
BRANCH 47 48
ATOM     48 OG   SER P 628      29.803  10.530 -20.658  1.00 73.20 LIG-0.40  OA
ATOM     49 HG   SER P 628      29.874   9.785 -20.276  1.00 73.20 LIG 0.21  HD
ENDBRANCH 47 48
ENDBRANCH 45 47
ENDBRANCH 43 45
ENDBRANCH 36 41
ENDBRANCH 34 36
ENDBRANCH 1 29
TORSDOF 19
ENDMDL
MODEL 16
USER: ADFR SOLUTION from run 98
USER: SCORE 14.394969 LL:  -3.038 LR: -12.491 RR:   0.000 FEB:  -6.823
USER: RMSD 4.930300
USER: SEED 97
USER: STATUS no improvement in best in 12 clusters for 5 generations
USER: GENES 21
USER: genes 0 Translation |==|  0.40916 0.49941 0.52217
USER: genes 1 Rotation |==|  0.69524 0.94369 0.37756 0.50572
USER: genes 2 Torsion [C]-N--CA-[C] |==|  0.24323
USER: genes 3 Torsion [N]-CA--C-[N] |==|  0.31639
USER: genes 4 Torsion [C]-N--CA-[CB] |==|  0.47801
USER: genes 5 Torsion [N]-CA--C-[O] |==|  0.99857
USER: genes 6 Torsion [N]-CA--CB-[CG] |==|  0.35792
USER: genes 7 Torsion [CA]-CB--CG-[CD] |==|  0.43268
USER: genes 8 Torsion [CB]-CG--CD-[CE] |==|  0.48045
USER: genes 9 Torsion [CG]-CD--CE-[NZ] |==|  0.56375
USER: genes 10 Torsion [CD]-CE--NZ-[HZ2] |==|  0.44448
USER: genes 11 Torsion [N]-CA--CB-[CG] |==|  0.82162
USER: genes 12 Torsion [CA]-CB--CG-[CD1] |==|  0.15943
USER: genes 13 Torsion [O]-C--CA-[CB] |==|  0.83082
USER: genes 14 Torsion [N]-C--CA-[N] |==|  0.38081
USER: genes 15 Torsion [C]-CA--CB-[CG] |==|  0.13449
USER: genes 16 Torsion [CA]-CB--CG-[OD1] |==|  0.70271
USER: genes 17 Torsion [C]-CA--N-[C] |==|  0.80451
USER: genes 18 Torsion [N]-C--CA-[N] |==|  0.43076
USER: genes 19 Torsion [C]-CA--CB-[OG] |==|  0.38814
USER: genes 20 Torsion [CA]-CB--OG-[HG] |==|  0.52128
ROOT
ATOM      1  C   PRO P 630      23.535  10.089 -15.951  1.00 36.04 LIG 0.24  C 
ATOM      2 O    PRO P 630      22.316   9.867 -16.111  1.00 33.55 LIG-0.27  OA
ATOM      3  N   PHE P 631      24.356   9.263 -15.309  1.00 24.81 LIG-0.35  N 
ATOM      4 H    PHE P 631      25.195   9.420 -15.202  1.00 24.81 LIG 0.16  HD
ENDROOT
BRANCH 3 5
ATOM      5  CA  PHE P 631      23.921   8.018 -14.726  1.00 30.16 LIG 0.18  C 
BRANCH 5 6
ATOM      6  C   PHE P 631      24.008   6.914 -15.815  1.00 46.65 LIG 0.24  C 
ATOM      7  N   LYS P 632      24.901   5.964 -15.600  1.00 37.40 LIG-0.34  N 
ATOM      8 H    LYS P 632      25.424   5.958 -14.918  1.00 37.40 LIG 0.16  HD
ATOM      9 O    PHE P 631      23.265   7.076 -16.793  1.00 54.45 LIG-0.27  OA
BRANCH 7 10
ATOM     10  CA  LYS P 632      25.099   4.805 -16.511  1.00 44.88 LIG 0.18  C 
BRANCH 10 11
ATOM     11  C   LYS P 632      23.823   3.978 -16.610  1.00 45.53 LIG 0.20  C 
ATOM     12 O    LYS P 632      22.795   4.287 -15.975  1.00 61.11 LIG-0.65  OA
ATOM     13 OXT  LYS P 632      23.841   2.974 -17.363  1.00 57.29 LIG-0.65  OA
ENDBRANCH 10 11
BRANCH 10 14
ATOM     14  CB  LYS P 632      26.317   4.005 -16.096  1.00 47.81 LIG 0.04  C 
BRANCH 14 15
ATOM     15  CG  LYS P 632      26.310   2.504 -15.879  1.00 54.84 LIG 0.00  C 
BRANCH 15 16
ATOM     16  CD  LYS P 632      27.753   1.998 -16.079  1.00 63.82 LIG 0.03  C 
BRANCH 16 17
ATOM     17  CE  LYS P 632      27.816   0.519 -15.696  1.00 66.19 LIG 0.23  C 
BRANCH 17 18
ATOM     18  NZ  LYS P 632      29.188   0.078 -15.329  1.00 52.45 LIG-0.08  N 
ATOM     19 HZ2  LYS P 632      29.142  -0.670 -14.850  1.00 52.45 LIG 0.27  HD
ATOM     20 HZ1  LYS P 632      29.586   0.714 -14.850  1.00 52.45 LIG 0.27  HD
ATOM     21 HZ3  LYS P 632      29.660  -0.072 -16.069  1.00 52.45 LIG 0.27  HD
ENDBRANCH 17 18
ENDBRANCH 16 17
ENDBRANCH 15 16
ENDBRANCH 14 15
ENDBRANCH 10 14
ENDBRANCH 7 10
ENDBRANCH 5 6
BRANCH 5 22
ATOM     22  CB  PHE P 631      22.504   7.963 -14.179  1.00 25.51 LIG 0.07  C 
BRANCH 22 23
ATOM     23  CG  PHE P 631      22.142   8.860 -12.991  1.00 27.58 LIG-0.06  A 
ATOM     24  CD1 PHE P 631      22.267  10.248 -12.973  1.00 30.72 LIG 0.01  A 
ATOM     25  CE1 PHE P 631      21.919  10.972 -11.843  1.00 26.28 LIG 0.00  A 
ATOM     26  CZ  PHE P 631      21.440  10.321 -10.724  1.00 23.54 LIG 0.00  A 
ATOM     27  CE2 PHE P 631      21.311   8.941 -10.723  1.00 23.94 LIG 0.00  A 
ATOM     28  CD2 PHE P 631      21.676   8.256 -11.842  1.00 24.70 LIG 0.01  A 
ENDBRANCH 22 23
ENDBRANCH 5 22
ENDBRANCH 3 5
BRANCH 1 29
ATOM     29  CA  PRO P 630      24.090  11.375 -16.528  1.00 22.29 LIG 0.18  C 
ATOM     30  CB  PRO P 630      23.931  11.465 -18.038  1.00 25.21 LIG 0.04  C 
ATOM     31  CG  PRO P 630      25.248  11.012 -18.593  1.00 30.73 LIG 0.02  C 
ATOM     32  CD  PRO P 630      26.295  11.360 -17.565  1.00 29.29 LIG 0.13  C 
ATOM     33  N   PRO P 630      25.542  11.478 -16.323  1.00 28.31 LIG-0.34  N 
ATOM     34  C   ASP P 629      25.979  11.668 -15.071  1.00 28.38 LIG 0.24  C 
ATOM     35 O    ASP P 629      25.210  11.614 -14.100  1.00 35.14 LIG-0.27  OA
BRANCH 34 36
ATOM     36  CA  ASP P 629      27.453  11.939 -14.875  1.00 31.37 LIG 0.19  C 
BRANCH 36 37
ATOM     37  CB  ASP P 629      28.219  10.709 -14.349  1.00 29.57 LIG 0.15  C 
BRANCH 37 38
ATOM     38  CG  ASP P 629      27.871   9.478 -15.166  1.00 37.10 LIG 0.17  C 
ATOM     39 OD2  ASP P 629      28.342   9.352 -16.319  1.00 43.68 LIG-0.65  OA
ATOM     40 OD1  ASP P 629      27.142   8.606 -14.651  1.00 36.00 LIG-0.65  OA
ENDBRANCH 37 38
ENDBRANCH 36 37
BRANCH 36 41
ATOM     41  N   ASP P 629      27.634  13.003 -13.911  1.00 43.53 LIG-0.34  N 
ATOM     42 H    ASP P 629      27.959  12.704 -13.173  1.00 43.53 LIG 0.16  HD
ATOM     43  C   SER P 628      27.366  14.285 -14.053  1.00 52.75 LIG 0.26  C 
ATOM     44 O    SER P 628      26.931  14.813 -15.073  1.00 74.95 LIG-0.27  OA
BRANCH 43 45
ATOM     45  CA  SER P 628      27.673  15.089 -12.783  1.00 53.54 LIG 0.42  C 
ATOM     46  N   SER P 628      27.947  16.499 -13.054  1.00 68.72 LIG 0.62  N 
BRANCH 45 47
ATOM     47  CB  SER P 628      26.466  14.953 -11.850  1.00 49.52 LIG 0.21  C 
BRANCH 47 48
ATOM     48 OG   SER P 628      26.869  14.796 -10.497  1.00 73.20 LIG-0.40  OA
ATOM     49 HG   SER P 628      26.199  14.619 -10.023  1.00 73.20 LIG 0.21  HD
ENDBRANCH 47 48
ENDBRANCH 45 47
ENDBRANCH 43 45
ENDBRANCH 36 41
ENDBRANCH 34 36
ENDBRANCH 1 29
TORSDOF 19
ENDMDL
MODEL 17
USER: ADFR SOLUTION from run 42
USER: SCORE 15.348012 LL:  -3.602 LR: -12.421 RR:   0.000 FEB:  -6.754
USER: RMSD 7.725950
USER: SEED 41
USER: STATUS 1 or 2 clusters left
USER: GENES 21
USER: genes 0 Translation |==|  0.34033 0.49249 0.49617
USER: genes 1 Rotation |==|  0.17392 0.54249 0.87662 0.50458
USER: genes 2 Torsion [C]-N--CA-[C] |==|  0.68425
USER: genes 3 Torsion [N]-CA--C-[N] |==|  0.00032
USER: genes 4 Torsion [C]-N--CA-[CB] |==|  0.11953
USER: genes 5 Torsion [N]-CA--C-[O] |==|  0.35575
USER: genes 6 Torsion [N]-CA--CB-[CG] |==|  0.70200
USER: genes 7 Torsion [CA]-CB--CG-[CD] |==|  0.47428
USER: genes 8 Torsion [CB]-CG--CD-[CE] |==|  0.66066
USER: genes 9 Torsion [CG]-CD--CE-[NZ] |==|  0.42220
USER: genes 10 Torsion [CD]-CE--NZ-[HZ2] |==|  0.19151
USER: genes 11 Torsion [N]-CA--CB-[CG] |==|  0.03145
USER: genes 12 Torsion [CA]-CB--CG-[CD1] |==|  0.02348
USER: genes 13 Torsion [O]-C--CA-[CB] |==|  0.70657
USER: genes 14 Torsion [N]-C--CA-[N] |==|  0.16367
USER: genes 15 Torsion [C]-CA--CB-[CG] |==|  0.62212
USER: genes 16 Torsion [CA]-CB--CG-[OD1] |==|  0.69531
USER: genes 17 Torsion [C]-CA--N-[C] |==|  0.66148
USER: genes 18 Torsion [N]-C--CA-[N] |==|  0.06091
USER: genes 19 Torsion [C]-CA--CB-[OG] |==|  0.14713
USER: genes 20 Torsion [CA]-CB--OG-[HG] |==|  0.60614
ROOT
ATOM      1  C   PRO P 630      22.451   9.933 -16.419  1.00 36.04 LIG 0.24  C 
ATOM      2 O    PRO P 630      22.017  10.823 -17.181  1.00 33.55 LIG-0.27  OA
ATOM      3  N   PHE P 631      22.996  10.182 -15.231  1.00 24.81 LIG-0.35  N 
ATOM      4 H    PHE P 631      23.292   9.565 -14.710  1.00 24.81 LIG 0.16  HD
ENDROOT
BRANCH 3 5
ATOM      5  CA  PHE P 631      23.143  11.513 -14.697  1.00 30.16 LIG 0.18  C 
BRANCH 5 6
ATOM      6  C   PHE P 631      24.659  11.836 -14.607  1.00 46.65 LIG 0.24  C 
ATOM      7  N   LYS P 632      25.475  10.881 -15.017  1.00 37.40 LIG-0.34  N 
ATOM      8 H    LYS P 632      25.199  10.116 -15.296  1.00 37.40 LIG 0.16  HD
ATOM      9 O    PHE P 631      24.937  12.936 -14.109  1.00 54.45 LIG-0.27  OA
BRANCH 7 10
ATOM     10  CA  LYS P 632      26.956  11.025 -15.043  1.00 44.88 LIG 0.18  C 
BRANCH 10 11
ATOM     11  C   LYS P 632      27.619   9.683 -15.327  1.00 45.53 LIG 0.20  C 
ATOM     12 O    LYS P 632      28.463   9.553 -16.237  1.00 61.11 LIG-0.65  OA
ATOM     13 OXT  LYS P 632      27.290   8.710 -14.606  1.00 57.29 LIG-0.65  OA
ENDBRANCH 10 11
BRANCH 10 14
ATOM     14  CB  LYS P 632      27.446  11.693 -13.774  1.00 47.81 LIG 0.04  C 
BRANCH 14 15
ATOM     15  CG  LYS P 632      27.959  13.119 -13.712  1.00 54.84 LIG 0.00  C 
BRANCH 15 16
ATOM     16  CD  LYS P 632      28.133  13.487 -12.225  1.00 63.82 LIG 0.03  C 
BRANCH 16 17
ATOM     17  CE  LYS P 632      27.283  14.719 -11.918  1.00 66.19 LIG 0.23  C 
BRANCH 17 18
ATOM     18  NZ  LYS P 632      26.841  14.774 -10.499  1.00 52.45 LIG-0.08  N 
ATOM     19 HZ2  LYS P 632      27.544  14.926  -9.974  1.00 52.45 LIG 0.27  HD
ATOM     20 HZ1  LYS P 632      26.466  13.998 -10.275  1.00 52.45 LIG 0.27  HD
ATOM     21 HZ3  LYS P 632      26.248  15.430 -10.397  1.00 52.45 LIG 0.27  HD
ENDBRANCH 17 18
ENDBRANCH 16 17
ENDBRANCH 15 16
ENDBRANCH 14 15
ENDBRANCH 10 14
ENDBRANCH 7 10
ENDBRANCH 5 6
BRANCH 5 22
ATOM     22  CB  PHE P 631      22.571  11.774 -13.313  1.00 25.51 LIG 0.07  C 
BRANCH 22 23
ATOM     23  CG  PHE P 631      22.119  10.577 -12.469  1.00 27.58 LIG-0.06  A 
ATOM     24  CD1 PHE P 631      22.341   9.242 -12.798  1.00 30.72 LIG 0.01  A 
ATOM     25  CE1 PHE P 631      21.884   8.227 -11.970  1.00 26.28 LIG 0.00  A 
ATOM     26  CZ  PHE P 631      21.208   8.534 -10.808  1.00 23.54 LIG 0.00  A 
ATOM     27  CE2 PHE P 631      20.976   9.858 -10.465  1.00 23.94 LIG 0.00  A 
ATOM     28  CD2 PHE P 631      21.422  10.831 -11.307  1.00 24.70 LIG 0.01  A 
ENDBRANCH 22 23
ENDBRANCH 5 22
ENDBRANCH 3 5
BRANCH 1 29
ATOM     29  CA  PRO P 630      22.342   8.498 -16.892  1.00 22.29 LIG 0.18  C 
ATOM     30  CB  PRO P 630      21.247   7.720 -16.179  1.00 25.21 LIG 0.04  C 
ATOM     31  CG  PRO P 630      21.949   6.980 -15.081  1.00 30.73 LIG 0.02  C 
ATOM     32  CD  PRO P 630      23.357   6.727 -15.560  1.00 29.29 LIG 0.13  C 
ATOM     33  N   PRO P 630      23.563   7.736 -16.592  1.00 28.31 LIG-0.34  N 
ATOM     34  C   ASP P 629      24.670   8.042 -17.281  1.00 28.38 LIG 0.24  C 
ATOM     35 O    ASP P 629      24.712   9.024 -18.037  1.00 35.14 LIG-0.27  OA
BRANCH 34 36
ATOM     36  CA  ASP P 629      25.880   7.156 -17.097  1.00 31.37 LIG 0.19  C 
BRANCH 36 37
ATOM     37  CB  ASP P 629      27.075   7.591 -17.968  1.00 29.57 LIG 0.15  C 
BRANCH 37 38
ATOM     38  CG  ASP P 629      27.724   6.383 -18.617  1.00 37.10 LIG 0.17  C 
ATOM     39 OD2  ASP P 629      27.130   5.789 -19.545  1.00 43.68 LIG-0.65  OA
ATOM     40 OD1  ASP P 629      28.855   6.029 -18.225  1.00 36.00 LIG-0.65  OA
ENDBRANCH 37 38
ENDBRANCH 36 37
BRANCH 36 41
ATOM     41  N   ASP P 629      25.553   5.794 -17.462  1.00 43.53 LIG-0.34  N 
ATOM     42 H    ASP P 629      25.278   5.747 -18.276  1.00 43.53 LIG 0.16  HD
ATOM     43  C   SER P 628      25.634   4.710 -16.719  1.00 52.75 LIG 0.26  C 
ATOM     44 O    SER P 628      26.041   4.669 -15.561  1.00 74.95 LIG-0.27  OA
BRANCH 43 45
ATOM     45  CA  SER P 628      25.166   3.454 -17.466  1.00 53.54 LIG 0.42  C 
ATOM     46  N   SER P 628      25.223   3.602 -18.919  1.00 68.72 LIG 0.62  N 
BRANCH 45 47
ATOM     47  CB  SER P 628      26.057   2.293 -17.015  1.00 49.52 LIG 0.21  C 
BRANCH 47 48
ATOM     48 OG   SER P 628      26.085   2.178 -15.600  1.00 73.20 LIG-0.40  OA
ATOM     49 HG   SER P 628      26.859   1.971 -15.350  1.00 73.20 LIG 0.21  HD
ENDBRANCH 47 48
ENDBRANCH 45 47
ENDBRANCH 43 45
ENDBRANCH 36 41
ENDBRANCH 34 36
ENDBRANCH 1 29
TORSDOF 19
ENDMDL
MODEL 18
USER: ADFR SOLUTION from run 70
USER: SCORE 15.861889 LL:  -3.549 LR: -12.382 RR:   0.000 FEB:  -6.714
USER: RMSD 6.025677
USER: SEED 69
USER: STATUS no improvement in best in 10 clusters for 5 generations
USER: GENES 21
USER: genes 0 Translation |==|  0.37635 0.27936 0.49997
USER: genes 1 Rotation |==|  0.53400 0.65663 0.12604 0.79063
USER: genes 2 Torsion [C]-N--CA-[C] |==|  0.84319
USER: genes 3 Torsion [N]-CA--C-[N] |==|  0.87848
USER: genes 4 Torsion [C]-N--CA-[CB] |==|  0.96420
USER: genes 5 Torsion [N]-CA--C-[O] |==|  0.99503
USER: genes 6 Torsion [N]-CA--CB-[CG] |==|  0.69425
USER: genes 7 Torsion [CA]-CB--CG-[CD] |==|  0.22424
USER: genes 8 Torsion [CB]-CG--CD-[CE] |==|  0.67476
USER: genes 9 Torsion [CG]-CD--CE-[NZ] |==|  0.58713
USER: genes 10 Torsion [CD]-CE--NZ-[HZ2] |==|  0.55743
USER: genes 11 Torsion [N]-CA--CB-[CG] |==|  0.58618
USER: genes 12 Torsion [CA]-CB--CG-[CD1] |==|  0.54560
USER: genes 13 Torsion [O]-C--CA-[CB] |==|  0.81592
USER: genes 14 Torsion [N]-C--CA-[N] |==|  0.39810
USER: genes 15 Torsion [C]-CA--CB-[CG] |==|  0.23031
USER: genes 16 Torsion [CA]-CB--CG-[OD1] |==|  0.27061
USER: genes 17 Torsion [C]-CA--N-[C] |==|  0.82434
USER: genes 18 Torsion [N]-C--CA-[N] |==|  0.49070
USER: genes 19 Torsion [C]-CA--CB-[OG] |==|  0.90611
USER: genes 20 Torsion [CA]-CB--OG-[HG] |==|  0.17396
ROOT
ATOM      1  C   PRO P 630      23.019   5.138 -16.351  1.00 36.04 LIG 0.24  C 
ATOM      2 O    PRO P 630      22.076   4.407 -15.979  1.00 33.55 LIG-0.27  OA
ATOM      3  N   PHE P 631      23.171   6.399 -15.958  1.00 24.81 LIG-0.35  N 
ATOM      4 H    PHE P 631      23.823   6.897 -16.216  1.00 24.81 LIG 0.16  HD
ENDROOT
BRANCH 3 5
ATOM      5  CA  PHE P 631      22.258   7.059 -15.058  1.00 30.16 LIG 0.18  C 
BRANCH 5 6
ATOM      6  C   PHE P 631      20.832   6.981 -15.668  1.00 46.65 LIG 0.24  C 
ATOM      7  N   LYS P 632      20.746   7.236 -16.962  1.00 37.40 LIG-0.34  N 
ATOM      8 H    LYS P 632      21.424   7.456 -17.443  1.00 37.40 LIG 0.16  HD
ATOM      9 O    PHE P 631      19.924   6.740 -14.862  1.00 54.45 LIG-0.27  OA
BRANCH 7 10
ATOM     10  CA  LYS P 632      19.472   7.171 -17.727  1.00 44.88 LIG 0.18  C 
BRANCH 10 11
ATOM     11  C   LYS P 632      19.075   8.555 -18.225  1.00 45.53 LIG 0.20  C 
ATOM     12 O    LYS P 632      19.757   9.564 -17.956  1.00 61.11 LIG-0.65  OA
ATOM     13 OXT  LYS P 632      18.037   8.642 -18.925  1.00 57.29 LIG-0.65  OA
ENDBRANCH 10 11
BRANCH 10 14
ATOM     14  CB  LYS P 632      18.397   6.482 -16.910  1.00 47.81 LIG 0.04  C 
BRANCH 14 15
ATOM     15  CG  LYS P 632      17.841   5.108 -17.230  1.00 54.84 LIG 0.00  C 
BRANCH 15 16
ATOM     16  CD  LYS P 632      18.836   4.064 -16.683  1.00 63.82 LIG 0.03  C 
BRANCH 16 17
ATOM     17  CE  LYS P 632      19.394   3.252 -17.852  1.00 66.19 LIG 0.23  C 
BRANCH 17 18
ATOM     18  NZ  LYS P 632      19.723   1.852 -17.475  1.00 52.45 LIG-0.08  N 
ATOM     19 HZ2  LYS P 632      20.301   1.514 -18.061  1.00 52.45 LIG 0.27  HD
ATOM     20 HZ1  LYS P 632      18.980   1.362 -17.475  1.00 52.45 LIG 0.27  HD
ATOM     21 HZ3  LYS P 632      20.085   1.841 -16.662  1.00 52.45 LIG 0.27  HD
ENDBRANCH 17 18
ENDBRANCH 16 17
ENDBRANCH 15 16
ENDBRANCH 14 15
ENDBRANCH 10 14
ENDBRANCH 7 10
ENDBRANCH 5 6
BRANCH 5 22
ATOM     22  CB  PHE P 631      22.512   8.528 -14.762  1.00 25.51 LIG 0.07  C 
BRANCH 22 23
ATOM     23  CG  PHE P 631      22.115   9.078 -13.388  1.00 27.58 LIG-0.06  A 
ATOM     24  CD1 PHE P 631      21.979  10.430 -13.081  1.00 30.72 LIG 0.01  A 
ATOM     25  CE1 PHE P 631      21.622  10.830 -11.801  1.00 26.28 LIG 0.00  A 
ATOM     26  CZ  PHE P 631      21.393   9.886 -10.821  1.00 23.54 LIG 0.00  A 
ATOM     27  CE2 PHE P 631      21.525   8.536 -11.109  1.00 23.94 LIG 0.00  A 
ATOM     28  CD2 PHE P 631      21.893   8.176 -12.369  1.00 24.70 LIG 0.01  A 
ENDBRANCH 22 23
ENDBRANCH 5 22
ENDBRANCH 3 5
BRANCH 1 29
ATOM     29  CA  PRO P 630      24.034   4.535 -17.300  1.00 22.29 LIG 0.18  C 
ATOM     30  CB  PRO P 630      24.847   3.417 -16.667  1.00 25.21 LIG 0.04  C 
ATOM     31  CG  PRO P 630      26.118   4.071 -16.215  1.00 30.73 LIG 0.02  C 
ATOM     32  CD  PRO P 630      26.364   5.231 -17.147  1.00 29.29 LIG 0.13  C 
ATOM     33  N   PRO P 630      25.048   5.519 -17.703  1.00 28.31 LIG-0.34  N 
ATOM     34  C   ASP P 629      24.657   6.517 -18.507  1.00 28.38 LIG 0.24  C 
ATOM     35 O    ASP P 629      23.463   6.696 -18.786  1.00 35.14 LIG-0.27  OA
BRANCH 34 36
ATOM     36  CA  ASP P 629      25.725   7.435 -19.056  1.00 31.37 LIG 0.19  C 
BRANCH 36 37
ATOM     37  CB  ASP P 629      25.875   8.733 -18.237  1.00 29.57 LIG 0.15  C 
BRANCH 37 38
ATOM     38  CG  ASP P 629      26.760   8.497 -17.028  1.00 37.10 LIG 0.17  C 
ATOM     39 OD2  ASP P 629      26.272   7.972 -16.002  1.00 43.68 LIG-0.65  OA
ATOM     40 OD1  ASP P 629      27.966   8.809 -17.100  1.00 36.00 LIG-0.65  OA
ENDBRANCH 37 38
ENDBRANCH 36 37
BRANCH 36 41
ATOM     41  N   ASP P 629      25.395   7.818 -20.413  1.00 43.53 LIG-0.34  N 
ATOM     42 H    ASP P 629      25.264   8.666 -20.475  1.00 43.53 LIG 0.16  HD
ATOM     43  C   SER P 628      25.285   7.045 -21.473  1.00 52.75 LIG 0.26  C 
ATOM     44 O    SER P 628      25.480   5.832 -21.495  1.00 74.95 LIG-0.27  OA
BRANCH 43 45
ATOM     45  CA  SER P 628      24.889   7.831 -22.730  1.00 53.54 LIG 0.42  C 
ATOM     46  N   SER P 628      24.839   6.999 -23.930  1.00 68.72 LIG 0.62  N 
BRANCH 45 47
ATOM     47  CB  SER P 628      23.518   8.462 -22.464  1.00 49.52 LIG 0.21  C 
BRANCH 47 48
ATOM     48 OG   SER P 628      22.713   7.629 -21.642  1.00 73.20 LIG-0.40  OA
ATOM     49 HG   SER P 628      23.080   7.535 -20.892  1.00 73.20 LIG 0.21  HD
ENDBRANCH 47 48
ENDBRANCH 45 47
ENDBRANCH 43 45
ENDBRANCH 36 41
ENDBRANCH 34 36
ENDBRANCH 1 29
TORSDOF 19
ENDMDL
MODEL 19
USER: ADFR SOLUTION from run 32
USER: SCORE 14.800382 LL:  -2.559 LR: -12.369 RR:   0.000 FEB:  -6.701
USER: RMSD 5.795982
USER: SEED 31
USER: STATUS no improvement in best in 10 clusters for 5 generations
USER: GENES 21
USER: genes 0 Translation |==|  0.52371 0.56411 0.58233
USER: genes 1 Rotation |==|  0.47479 0.56751 0.54554 0.99268
USER: genes 2 Torsion [C]-N--CA-[C] |==|  0.79492
USER: genes 3 Torsion [N]-CA--C-[N] |==|  0.39073
USER: genes 4 Torsion [C]-N--CA-[CB] |==|  0.82038
USER: genes 5 Torsion [N]-CA--C-[O] |==|  0.09417
USER: genes 6 Torsion [N]-CA--CB-[CG] |==|  0.72034
USER: genes 7 Torsion [CA]-CB--CG-[CD] |==|  0.30639
USER: genes 8 Torsion [CB]-CG--CD-[CE] |==|  0.34353
USER: genes 9 Torsion [CG]-CD--CE-[NZ] |==|  0.29837
USER: genes 10 Torsion [CD]-CE--NZ-[HZ2] |==|  0.38754
USER: genes 11 Torsion [N]-CA--CB-[CG] |==|  0.71078
USER: genes 12 Torsion [CA]-CB--CG-[CD1] |==|  0.68381
USER: genes 13 Torsion [O]-C--CA-[CB] |==|  0.21158
USER: genes 14 Torsion [N]-C--CA-[N] |==|  0.42432
USER: genes 15 Torsion [C]-CA--CB-[CG] |==|  0.29308
USER: genes 16 Torsion [CA]-CB--CG-[OD1] |==|  0.06347
USER: genes 17 Torsion [C]-CA--N-[C] |==|  0.61373
USER: genes 18 Torsion [N]-C--CA-[N] |==|  0.38731
USER: genes 19 Torsion [C]-CA--CB-[OG] |==|  0.43830
USER: genes 20 Torsion [CA]-CB--OG-[HG] |==|  0.58543
ROOT
ATOM      1  C   PRO P 630      25.339  11.544 -14.868  1.00 36.04 LIG 0.24  C 
ATOM      2 O    PRO P 630      26.320  10.829 -14.571  1.00 33.55 LIG-0.27  OA
ATOM      3  N   PHE P 631      24.080  11.120 -14.829  1.00 24.81 LIG-0.35  N 
ATOM      4 H    PHE P 631      23.408  11.617 -15.034  1.00 24.81 LIG 0.16  HD
ENDROOT
BRANCH 3 5
ATOM      5  CA  PHE P 631      23.713   9.781 -14.439  1.00 30.16 LIG 0.18  C 
BRANCH 5 6
ATOM      6  C   PHE P 631      24.085   8.817 -15.598  1.00 46.65 LIG 0.24  C 
ATOM      7  N   LYS P 632      24.587   7.649 -15.234  1.00 37.40 LIG-0.34  N 
ATOM      8 H    LYS P 632      24.727   7.434 -14.414  1.00 37.40 LIG 0.16  HD
ATOM      9 O    PHE P 631      23.919   9.271 -16.738  1.00 54.45 LIG-0.27  OA
BRANCH 7 10
ATOM     10  CA  LYS P 632      24.964   6.584 -16.201  1.00 44.88 LIG 0.18  C 
BRANCH 10 11
ATOM     11  C   LYS P 632      26.076   7.068 -17.124  1.00 45.53 LIG 0.20  C 
ATOM     12 O    LYS P 632      26.959   7.852 -16.725  1.00 61.11 LIG-0.65  OA
ATOM     13 OXT  LYS P 632      26.075   6.640 -18.304  1.00 57.29 LIG-0.65  OA
ENDBRANCH 10 11
BRANCH 10 14
ATOM     14  CB  LYS P 632      23.740   6.073 -16.932  1.00 47.81 LIG 0.04  C 
BRANCH 14 15
ATOM     15  CG  LYS P 632      23.022   4.783 -16.583  1.00 54.84 LIG 0.00  C 
BRANCH 15 16
ATOM     16  CD  LYS P 632      21.656   5.160 -15.975  1.00 63.82 LIG 0.03  C 
BRANCH 16 17
ATOM     17  CE  LYS P 632      20.550   4.482 -16.784  1.00 66.19 LIG 0.23  C 
BRANCH 17 18
ATOM     18  NZ  LYS P 632      19.915   3.352 -16.055  1.00 52.45 LIG-0.08  N 
ATOM     19 HZ2  LYS P 632      19.036   3.365 -16.193  1.00 52.45 LIG 0.27  HD
ATOM     20 HZ1  LYS P 632      20.079   3.431 -15.184  1.00 52.45 LIG 0.27  HD
ATOM     21 HZ3  LYS P 632      20.250   2.582 -16.350  1.00 52.45 LIG 0.27  HD
ENDBRANCH 17 18
ENDBRANCH 16 17
ENDBRANCH 15 16
ENDBRANCH 14 15
ENDBRANCH 10 14
ENDBRANCH 7 10
ENDBRANCH 5 6
BRANCH 5 22
ATOM     22  CB  PHE P 631      22.247   9.524 -14.128  1.00 25.51 LIG 0.07  C 
BRANCH 22 23
ATOM     23  CG  PHE P 631      21.821   9.393 -12.662  1.00 27.58 LIG-0.06  A 
ATOM     24  CD1 PHE P 631      21.334   8.226 -12.076  1.00 30.72 LIG 0.01  A 
ATOM     25  CE1 PHE P 631      20.966   8.211 -10.738  1.00 26.28 LIG 0.00  A 
ATOM     26  CZ  PHE P 631      21.084   9.354  -9.975  1.00 23.54 LIG 0.00  A 
ATOM     27  CE2 PHE P 631      21.565  10.524 -10.543  1.00 23.94 LIG 0.00  A 
ATOM     28  CD2 PHE P 631      21.902  10.512 -11.861  1.00 24.70 LIG 0.01  A 
ENDBRANCH 22 23
ENDBRANCH 5 22
ENDBRANCH 3 5
BRANCH 1 29
ATOM     29  CA  PRO P 630      25.622  12.971 -15.293  1.00 22.29 LIG 0.18  C 
ATOM     30  CB  PRO P 630      26.157  13.071 -16.713  1.00 25.21 LIG 0.04  C 
ATOM     31  CG  PRO P 630      27.646  13.150 -16.561  1.00 30.73 LIG 0.02  C 
ATOM     32  CD  PRO P 630      27.912  13.800 -15.226  1.00 29.29 LIG 0.13  C 
ATOM     33  N   PRO P 630      26.682  13.579 -14.476  1.00 28.31 LIG-0.34  N 
ATOM     34  C   ASP P 629      26.398  13.852 -13.196  1.00 28.38 LIG 0.24  C 
ATOM     35 O    ASP P 629      25.339  13.477 -12.672  1.00 35.14 LIG-0.27  OA
BRANCH 34 36
ATOM     36  CA  ASP P 629      27.424  14.624 -12.398  1.00 31.37 LIG 0.19  C 
BRANCH 36 37
ATOM     37  CB  ASP P 629      28.474  13.711 -11.736  1.00 29.57 LIG 0.15  C 
BRANCH 37 38
ATOM     38  CG  ASP P 629      29.797  13.802 -12.473  1.00 37.10 LIG 0.17  C 
ATOM     39 OD2  ASP P 629      30.606  12.850 -12.404  1.00 43.68 LIG-0.65  OA
ATOM     40 OD1  ASP P 629      30.031  14.820 -13.156  1.00 36.00 LIG-0.65  OA
ENDBRANCH 37 38
ENDBRANCH 36 37
BRANCH 36 41
ATOM     41  N   ASP P 629      26.769  15.365 -11.341  1.00 43.53 LIG-0.34  N 
ATOM     42 H    ASP P 629      26.149  14.898 -10.970  1.00 43.53 LIG 0.16  HD
ATOM     43  C   SER P 628      27.018  16.592 -10.932  1.00 52.75 LIG 0.26  C 
ATOM     44 O    SER P 628      27.897  17.326 -11.374  1.00 74.95 LIG-0.27  OA
BRANCH 43 45
ATOM     45  CA  SER P 628      26.081  17.030  -9.798  1.00 53.54 LIG 0.42  C 
ATOM     46  N   SER P 628      26.766  17.790  -8.754  1.00 68.72 LIG 0.62  N 
BRANCH 45 47
ATOM     47  CB  SER P 628      24.966  17.873 -10.424  1.00 49.52 LIG 0.21  C 
BRANCH 47 48
ATOM     48 OG   SER P 628      23.810  17.901  -9.599  1.00 73.20 LIG-0.40  OA
ATOM     49 HG   SER P 628      23.124  17.976 -10.079  1.00 73.20 LIG 0.21  HD
ENDBRANCH 47 48
ENDBRANCH 45 47
ENDBRANCH 43 45
ENDBRANCH 36 41
ENDBRANCH 34 36
ENDBRANCH 1 29
TORSDOF 19
ENDMDL
MODEL 20
USER: ADFR SOLUTION from run 150
USER: SCORE 15.443208 LL:  -3.760 LR: -12.307 RR:   0.000 FEB:  -6.639
USER: RMSD 8.224456
USER: SEED 149
USER: STATUS no improvement in best in 13 clusters for 5 generations
USER: GENES 21
USER: genes 0 Translation |==|  0.40403 0.46827 0.49738
USER: genes 1 Rotation |==|  0.77420 0.64099 0.16692 0.70974
USER: genes 2 Torsion [C]-N--CA-[C] |==|  0.78728
USER: genes 3 Torsion [N]-CA--C-[N] |==|  0.21985
USER: genes 4 Torsion [C]-N--CA-[CB] |==|  0.18506
USER: genes 5 Torsion [N]-CA--C-[O] |==|  0.62772
USER: genes 6 Torsion [N]-CA--CB-[CG] |==|  0.59403
USER: genes 7 Torsion [CA]-CB--CG-[CD] |==|  0.21076
USER: genes 8 Torsion [CB]-CG--CD-[CE] |==|  0.75315
USER: genes 9 Torsion [CG]-CD--CE-[NZ] |==|  0.31091
USER: genes 10 Torsion [CD]-CE--NZ-[HZ2] |==|  0.61402
USER: genes 11 Torsion [N]-CA--CB-[CG] |==|  0.74040
USER: genes 12 Torsion [CA]-CB--CG-[CD1] |==|  0.54661
USER: genes 13 Torsion [O]-C--CA-[CB] |==|  0.15501
USER: genes 14 Torsion [N]-C--CA-[N] |==|  0.85618
USER: genes 15 Torsion [C]-CA--CB-[CG] |==|  0.47565
USER: genes 16 Torsion [CA]-CB--CG-[OD1] |==|  0.68274
USER: genes 17 Torsion [C]-CA--N-[C] |==|  0.76748
USER: genes 18 Torsion [N]-C--CA-[N] |==|  0.07648
USER: genes 19 Torsion [C]-CA--CB-[OG] |==|  0.75024
USER: genes 20 Torsion [CA]-CB--OG-[HG] |==|  0.39215
ROOT
ATOM      1  C   PRO P 630      23.454   9.388 -16.397  1.00 36.04 LIG 0.24  C 
ATOM      2 O    PRO P 630      22.408   9.277 -17.071  1.00 33.55 LIG-0.27  OA
ATOM      3  N   PHE P 631      23.529  10.075 -15.261  1.00 24.81 LIG-0.35  N 
ATOM      4 H    PHE P 631      24.252  10.147 -14.800  1.00 24.81 LIG 0.16  HD
ENDROOT
BRANCH 3 5
ATOM      5  CA  PHE P 631      22.404  10.769 -14.686  1.00 30.16 LIG 0.18  C 
BRANCH 5 6
ATOM      6  C   PHE P 631      22.178  12.079 -15.488  1.00 46.65 LIG 0.24  C 
ATOM      7  N   LYS P 632      21.547  11.944 -16.642  1.00 37.40 LIG-0.34  N 
ATOM      8 H    LYS P 632      21.295  11.184 -16.952  1.00 37.40 LIG 0.16  HD
ATOM      9 O    PHE P 631      22.662  13.100 -14.981  1.00 54.45 LIG-0.27  OA
BRANCH 7 10
ATOM     10  CA  LYS P 632      21.207  13.090 -17.527  1.00 44.88 LIG 0.18  C 
BRANCH 10 11
ATOM     11  C   LYS P 632      20.207  12.663 -18.595  1.00 45.53 LIG 0.20  C 
ATOM     12 O    LYS P 632      20.359  12.979 -19.792  1.00 61.11 LIG-0.65  OA
ATOM     13 OXT  LYS P 632      19.227  11.973 -18.227  1.00 57.29 LIG-0.65  OA
ENDBRANCH 10 11
BRANCH 10 14
ATOM     14  CB  LYS P 632      22.466  13.723 -18.085  1.00 47.81 LIG 0.04  C 
BRANCH 14 15
ATOM     15  CG  LYS P 632      22.616  15.205 -18.367  1.00 54.84 LIG 0.00  C 
BRANCH 15 16
ATOM     16  CD  LYS P 632      22.811  15.919 -17.014  1.00 63.82 LIG 0.03  C 
BRANCH 16 17
ATOM     17  CE  LYS P 632      21.441  16.290 -16.447  1.00 66.19 LIG 0.23  C 
BRANCH 17 18
ATOM     18  NZ  LYS P 632      21.095  15.516 -15.225  1.00 52.45 LIG-0.08  N 
ATOM     19 HZ2  LYS P 632      20.239  15.277 -15.256  1.00 52.45 LIG 0.27  HD
ATOM     20 HZ1  LYS P 632      21.236  16.020 -14.505  1.00 52.45 LIG 0.27  HD
ATOM     21 HZ3  LYS P 632      21.605  14.787 -15.181  1.00 52.45 LIG 0.27  HD
ENDBRANCH 17 18
ENDBRANCH 16 17
ENDBRANCH 15 16
ENDBRANCH 14 15
ENDBRANCH 10 14
ENDBRANCH 7 10
ENDBRANCH 5 6
BRANCH 5 22
ATOM     22  CB  PHE P 631      22.511  11.179 -13.226  1.00 25.51 LIG 0.07  C 
BRANCH 22 23
ATOM     23  CG  PHE P 631      21.954  10.234 -12.156  1.00 27.58 LIG-0.06  A 
ATOM     24  CD1 PHE P 631      21.675  10.597 -10.840  1.00 30.72 LIG 0.01  A 
ATOM     25  CE1 PHE P 631      21.178   9.664  -9.942  1.00 26.28 LIG 0.00  A 
ATOM     26  CZ  PHE P 631      20.951   8.365 -10.349  1.00 23.54 LIG 0.00  A 
ATOM     27  CE2 PHE P 631      21.223   7.986 -11.655  1.00 23.94 LIG 0.00  A 
ATOM     28  CD2 PHE P 631      21.726   8.920 -12.507  1.00 24.70 LIG 0.01  A 
ENDBRANCH 22 23
ENDBRANCH 5 22
ENDBRANCH 3 5
BRANCH 1 29
ATOM     29  CA  PRO P 630      24.696   8.694 -16.920  1.00 22.29 LIG 0.18  C 
ATOM     30  CB  PRO P 630      25.055   9.110 -18.338  1.00 25.21 LIG 0.04  C 
ATOM     31  CG  PRO P 630      24.467   8.046 -19.215  1.00 30.73 LIG 0.02  C 
ATOM     32  CD  PRO P 630      24.449   6.775 -18.402  1.00 29.29 LIG 0.13  C 
ATOM     33  N   PRO P 630      24.500   7.240 -17.022  1.00 28.31 LIG-0.34  N 
ATOM     34  C   ASP P 629      24.403   6.547 -15.880  1.00 28.38 LIG 0.24  C 
ATOM     35 O    ASP P 629      24.333   7.114 -14.780  1.00 35.14 LIG-0.27  OA
BRANCH 34 36
ATOM     36  CA  ASP P 629      24.367   5.039 -15.975  1.00 31.37 LIG 0.19  C 
BRANCH 36 37
ATOM     37  CB  ASP P 629      25.703   4.441 -16.458  1.00 29.57 LIG 0.15  C 
BRANCH 37 38
ATOM     38  CG  ASP P 629      25.684   2.929 -16.331  1.00 37.10 LIG 0.17  C 
ATOM     39 OD2  ASP P 629      24.915   2.260 -17.057  1.00 43.68 LIG-0.65  OA
ATOM     40 OD1  ASP P 629      26.462   2.387 -15.519  1.00 36.00 LIG-0.65  OA
ENDBRANCH 37 38
ENDBRANCH 36 37
BRANCH 36 41
ATOM     41  N   ASP P 629      23.347   4.630 -16.917  1.00 43.53 LIG-0.34  N 
ATOM     42 H    ASP P 629      23.681   4.482 -17.695  1.00 43.53 LIG 0.16  HD
ATOM     43  C   SER P 628      22.056   4.477 -16.703  1.00 52.75 LIG 0.26  C 
ATOM     44 O    SER P 628      21.489   4.632 -15.625  1.00 74.95 LIG-0.27  OA
BRANCH 43 45
ATOM     45  CA  SER P 628      21.301   4.056 -17.972  1.00 53.54 LIG 0.42  C 
ATOM     46  N   SER P 628      22.139   3.317 -18.915  1.00 68.72 LIG 0.62  N 
BRANCH 45 47
ATOM     47  CB  SER P 628      20.111   3.198 -17.533  1.00 49.52 LIG 0.21  C 
BRANCH 47 48
ATOM     48 OG   SER P 628      20.457   1.822 -17.470  1.00 73.20 LIG-0.40  OA
ATOM     49 HG   SER P 628      20.086   1.469 -16.804  1.00 73.20 LIG 0.21  HD
ENDBRANCH 47 48
ENDBRANCH 45 47
ENDBRANCH 43 45
ENDBRANCH 36 41
ENDBRANCH 34 36
ENDBRANCH 1 29
TORSDOF 19
ENDMDL
MODEL 21
USER: ADFR SOLUTION from run 32
USER: SCORE 16.471694 LL:  -5.219 LR: -12.285 RR:   0.000 FEB:  -6.617
USER: RMSD 5.091684
USER: SEED 31
USER: STATUS no improvement in best in 10 clusters for 5 generations
USER: GENES 21
USER: genes 0 Translation |==|  0.51471 0.39938 0.59516
USER: genes 1 Rotation |==|  0.34479 0.47197 0.35608 0.95212
USER: genes 2 Torsion [C]-N--CA-[C] |==|  0.66769
USER: genes 3 Torsion [N]-CA--C-[N] |==|  0.72222
USER: genes 4 Torsion [C]-N--CA-[CB] |==|  0.24254
USER: genes 5 Torsion [N]-CA--C-[O] |==|  0.43932
USER: genes 6 Torsion [N]-CA--CB-[CG] |==|  0.93396
USER: genes 7 Torsion [CA]-CB--CG-[CD] |==|  0.71268
USER: genes 8 Torsion [CB]-CG--CD-[CE] |==|  0.91504
USER: genes 9 Torsion [CG]-CD--CE-[NZ] |==|  0.41182
USER: genes 10 Torsion [CD]-CE--NZ-[HZ2] |==|  0.33114
USER: genes 11 Torsion [N]-CA--CB-[CG] |==|  0.70516
USER: genes 12 Torsion [CA]-CB--CG-[CD1] |==|  0.33664
USER: genes 13 Torsion [O]-C--CA-[CB] |==|  0.74045
USER: genes 14 Torsion [N]-C--CA-[N] |==|  0.84575
USER: genes 15 Torsion [C]-CA--CB-[CG] |==|  0.06685
USER: genes 16 Torsion [CA]-CB--CG-[OD1] |==|  0.72363
USER: genes 17 Torsion [C]-CA--N-[C] |==|  0.84404
USER: genes 18 Torsion [N]-C--CA-[N] |==|  0.37075
USER: genes 19 Torsion [C]-CA--CB-[OG] |==|  0.91619
USER: genes 20 Torsion [CA]-CB--OG-[HG] |==|  0.83590
ROOT
ATOM      1  C   PRO P 630      25.198   7.838 -14.637  1.00 36.04 LIG 0.24  C 
ATOM      2 O    PRO P 630      25.329   7.166 -13.592  1.00 33.55 LIG-0.27  OA
ATOM      3  N   PHE P 631      24.019   8.143 -15.173  1.00 24.81 LIG-0.35  N 
ATOM      4 H    PHE P 631      23.935   8.607 -15.892  1.00 24.81 LIG 0.16  HD
ENDROOT
BRANCH 3 5
ATOM      5  CA  PHE P 631      22.763   7.726 -14.600  1.00 30.16 LIG 0.18  C 
BRANCH 5 6
ATOM      6  C   PHE P 631      22.021   6.848 -15.643  1.00 46.65 LIG 0.24  C 
ATOM      7  N   LYS P 632      21.072   7.455 -16.334  1.00 37.40 LIG-0.34  N 
ATOM      8 H    LYS P 632      20.853   8.277 -16.208  1.00 37.40 LIG 0.16  HD
ATOM      9 O    PHE P 631      22.365   5.659 -15.675  1.00 54.45 LIG-0.27  OA
BRANCH 7 10
ATOM     10  CA  LYS P 632      20.282   6.787 -17.403  1.00 44.88 LIG 0.18  C 
BRANCH 10 11
ATOM     11  C   LYS P 632      19.940   7.774 -18.513  1.00 45.53 LIG 0.20  C 
ATOM     12 O    LYS P 632      19.652   7.386 -19.662  1.00 61.11 LIG-0.65  OA
ATOM     13 OXT  LYS P 632      19.951   8.995 -18.225  1.00 57.29 LIG-0.65  OA
ENDBRANCH 10 11
BRANCH 10 14
ATOM     14  CB  LYS P 632      19.074   6.088 -16.812  1.00 47.81 LIG 0.04  C 
BRANCH 14 15
ATOM     15  CG  LYS P 632      18.983   5.629 -15.369  1.00 54.84 LIG 0.00  C 
BRANCH 15 16
ATOM     16  CD  LYS P 632      19.193   4.102 -15.352  1.00 63.82 LIG 0.03  C 
BRANCH 16 17
ATOM     17  CE  LYS P 632      18.668   3.516 -16.663  1.00 66.19 LIG 0.23  C 
BRANCH 17 18
ATOM     18  NZ  LYS P 632      19.426   2.313 -17.100  1.00 52.45 LIG-0.08  N 
ATOM     19 HZ2  LYS P 632      18.877   1.614 -17.142  1.00 52.45 LIG 0.27  HD
ATOM     20 HZ1  LYS P 632      20.077   2.145 -16.517  1.00 52.45 LIG 0.27  HD
ATOM     21 HZ3  LYS P 632      19.779   2.461 -17.904  1.00 52.45 LIG 0.27  HD
ENDBRANCH 17 18
ENDBRANCH 16 17
ENDBRANCH 15 16
ENDBRANCH 14 15
ENDBRANCH 10 14
ENDBRANCH 7 10
ENDBRANCH 5 6
BRANCH 5 22
ATOM     22  CB  PHE P 631      21.787   8.819 -14.194  1.00 25.51 LIG 0.07  C 
BRANCH 22 23
ATOM     23  CG  PHE P 631      21.601   9.118 -12.703  1.00 27.58 LIG-0.06  A 
ATOM     24  CD1 PHE P 631      21.831  10.355 -12.104  1.00 30.72 LIG 0.01  A 
ATOM     25  CE1 PHE P 631      21.641  10.523 -10.740  1.00 26.28 LIG 0.00  A 
ATOM     26  CZ  PHE P 631      21.216   9.464  -9.965  1.00 23.54 LIG 0.00  A 
ATOM     27  CE2 PHE P 631      20.983   8.226 -10.544  1.00 23.94 LIG 0.00  A 
ATOM     28  CD2 PHE P 631      21.195   8.087 -11.881  1.00 24.70 LIG 0.01  A 
ENDBRANCH 22 23
ENDBRANCH 5 22
ENDBRANCH 3 5
BRANCH 1 29
ATOM     29  CA  PRO P 630      26.462   8.324 -15.316  1.00 22.29 LIG 0.18  C 
ATOM     30  CB  PRO P 630      26.868   9.723 -14.882  1.00 25.21 LIG 0.04  C 
ATOM     31  CG  PRO P 630      26.321  10.632 -15.940  1.00 30.73 LIG 0.02  C 
ATOM     32  CD  PRO P 630      26.284   9.834 -17.220  1.00 29.29 LIG 0.13  C 
ATOM     33  N   PRO P 630      26.282   8.448 -16.770  1.00 28.31 LIG-0.34  N 
ATOM     34  C   ASP P 629      26.150   7.318 -17.476  1.00 28.38 LIG 0.24  C 
ATOM     35 O    ASP P 629      26.036   6.215 -16.922  1.00 35.14 LIG-0.27  OA
BRANCH 34 36
ATOM     36  CA  ASP P 629      26.130   7.431 -18.984  1.00 31.37 LIG 0.19  C 
BRANCH 36 37
ATOM     37  CB  ASP P 629      27.458   7.960 -19.559  1.00 29.57 LIG 0.15  C 
BRANCH 37 38
ATOM     38  CG  ASP P 629      28.600   7.681 -18.600  1.00 37.10 LIG 0.17  C 
ATOM     39 OD2  ASP P 629      29.138   6.551 -18.596  1.00 43.68 LIG-0.65  OA
ATOM     40 OD1  ASP P 629      28.994   8.602 -17.856  1.00 36.00 LIG-0.65  OA
ENDBRANCH 37 38
ENDBRANCH 36 37
BRANCH 36 41
ATOM     41  N   ASP P 629      25.087   8.347 -19.394  1.00 43.53 LIG-0.34  N 
ATOM     42 H    ASP P 629      25.403   8.983 -19.878  1.00 43.53 LIG 0.16  HD
ATOM     43  C   SER P 628      23.801   8.295 -19.114  1.00 52.75 LIG 0.26  C 
ATOM     44 O    SER P 628      23.249   7.414 -18.460  1.00 74.95 LIG-0.27  OA
BRANCH 43 45
ATOM     45  CA  SER P 628      23.025   9.474 -19.716  1.00 53.54 LIG 0.42  C 
ATOM     46  N   SER P 628      21.795   9.062 -20.390  1.00 68.72 LIG 0.62  N 
BRANCH 45 47
ATOM     47  CB  SER P 628      22.705  10.443 -18.573  1.00 49.52 LIG 0.21  C 
BRANCH 47 48
ATOM     48 OG   SER P 628      22.555   9.758 -17.337  1.00 73.20 LIG-0.40  OA
ATOM     49 HG   SER P 628      21.936   9.194 -17.402  1.00 73.20 LIG 0.21  HD
ENDBRANCH 47 48
ENDBRANCH 45 47
ENDBRANCH 43 45
ENDBRANCH 36 41
ENDBRANCH 34 36
ENDBRANCH 1 29
TORSDOF 19
ENDMDL
MODEL 22
USER: ADFR SOLUTION from run 184
USER: SCORE 14.594113 LL:  -2.904 LR: -12.235 RR:   0.000 FEB:  -6.567
USER: RMSD 8.694544
USER: SEED 183
USER: STATUS no improvement in best in 5 clusters for 5 generations
USER: GENES 21
USER: genes 0 Translation |==|  0.34135 0.38195 0.48247
USER: genes 1 Rotation |==|  0.19000 0.49082 0.88306 0.58416
USER: genes 2 Torsion [C]-N--CA-[C] |==|  0.73342
USER: genes 3 Torsion [N]-CA--C-[N] |==|  0.26111
USER: genes 4 Torsion [C]-N--CA-[CB] |==|  0.79271
USER: genes 5 Torsion [N]-CA--C-[O] |==|  0.55611
USER: genes 6 Torsion [N]-CA--CB-[CG] |==|  0.63750
USER: genes 7 Torsion [CA]-CB--CG-[CD] |==|  0.47234
USER: genes 8 Torsion [CB]-CG--CD-[CE] |==|  0.70620
USER: genes 9 Torsion [CG]-CD--CE-[NZ] |==|  0.48614
USER: genes 10 Torsion [CD]-CE--NZ-[HZ2] |==|  0.11572
USER: genes 11 Torsion [N]-CA--CB-[CG] |==|  0.65952
USER: genes 12 Torsion [CA]-CB--CG-[CD1] |==|  0.41859
USER: genes 13 Torsion [O]-C--CA-[CB] |==|  0.81453
USER: genes 14 Torsion [N]-C--CA-[N] |==|  0.29157
USER: genes 15 Torsion [C]-CA--CB-[CG] |==|  0.56956
USER: genes 16 Torsion [CA]-CB--CG-[OD1] |==|  0.78164
USER: genes 17 Torsion [C]-CA--N-[C] |==|  0.66247
USER: genes 18 Torsion [N]-C--CA-[N] |==|  0.21263
USER: genes 19 Torsion [C]-CA--CB-[OG] |==|  0.39540
USER: genes 20 Torsion [CA]-CB--OG-[HG] |==|  0.54486
ROOT
ATOM      1  C   PRO P 630      22.467   7.446 -16.665  1.00 36.04 LIG 0.24  C 
ATOM      2 O    PRO P 630      22.126   8.590 -17.034  1.00 33.55 LIG-0.27  OA
ATOM      3  N   PHE P 631      23.055   7.192 -15.500  1.00 24.81 LIG-0.35  N 
ATOM      4 H    PHE P 631      23.287   6.402 -15.251  1.00 24.81 LIG 0.16  HD
ENDROOT
BRANCH 3 5
ATOM      5  CA  PHE P 631      23.362   8.218 -14.534  1.00 30.16 LIG 0.18  C 
BRANCH 5 6
ATOM      6  C   PHE P 631      24.840   8.649 -14.736  1.00 46.65 LIG 0.24  C 
ATOM      7  N   LYS P 632      25.031   9.695 -15.521  1.00 37.40 LIG-0.34  N 
ATOM      8 H    LYS P 632      24.390  10.105 -15.921  1.00 37.40 LIG 0.16  HD
ATOM      9 O    PHE P 631      25.682   7.931 -14.179  1.00 54.45 LIG-0.27  OA
BRANCH 7 10
ATOM     10  CA  LYS P 632      26.372  10.276 -15.799  1.00 44.88 LIG 0.18  C 
BRANCH 10 11
ATOM     11  C   LYS P 632      27.336   9.196 -16.275  1.00 45.53 LIG 0.20  C 
ATOM     12 O    LYS P 632      28.571   9.353 -16.212  1.00 61.11 LIG-0.65  OA
ATOM     13 OXT  LYS P 632      26.840   8.135 -16.725  1.00 57.29 LIG-0.65  OA
ENDBRANCH 10 11
BRANCH 10 14
ATOM     14  CB  LYS P 632      26.871  11.058 -14.600  1.00 47.81 LIG 0.04  C 
BRANCH 14 15
ATOM     15  CG  LYS P 632      27.421  12.469 -14.679  1.00 54.84 LIG 0.00  C 
BRANCH 15 16
ATOM     16  CD  LYS P 632      27.578  12.988 -13.236  1.00 63.82 LIG 0.03  C 
BRANCH 16 17
ATOM     17  CE  LYS P 632      26.468  14.000 -12.951  1.00 66.19 LIG 0.23  C 
BRANCH 17 18
ATOM     18  NZ  LYS P 632      26.466  14.470 -11.540  1.00 52.45 LIG-0.08  N 
ATOM     19 HZ2  LYS P 632      27.303  14.614 -11.273  1.00 52.45 LIG 0.27  HD
ATOM     20 HZ1  LYS P 632      26.091  13.852 -11.022  1.00 52.45 LIG 0.27  HD
ATOM     21 HZ3  LYS P 632      26.002  15.228 -11.480  1.00 52.45 LIG 0.27  HD
ENDBRANCH 17 18
ENDBRANCH 16 17
ENDBRANCH 15 16
ENDBRANCH 14 15
ENDBRANCH 10 14
ENDBRANCH 7 10
ENDBRANCH 5 6
BRANCH 5 22
ATOM     22  CB  PHE P 631      23.224   7.854 -13.065  1.00 25.51 LIG 0.07  C 
BRANCH 22 23
ATOM     23  CG  PHE P 631      22.283   8.688 -12.189  1.00 27.58 LIG-0.06  A 
ATOM     24  CD1 PHE P 631      21.602   8.210 -11.071  1.00 30.72 LIG 0.01  A 
ATOM     25  CE1 PHE P 631      20.764   9.044 -10.346  1.00 26.28 LIG 0.00  A 
ATOM     26  CZ  PHE P 631      20.602  10.361 -10.725  1.00 23.54 LIG 0.00  A 
ATOM     27  CE2 PHE P 631      21.271  10.854 -11.835  1.00 23.94 LIG 0.00  A 
ATOM     28  CD2 PHE P 631      22.073  10.006 -12.536  1.00 24.70 LIG 0.01  A 
ENDBRANCH 22 23
ENDBRANCH 5 22
ENDBRANCH 3 5
BRANCH 1 29
ATOM     29  CA  PRO P 630      22.187   6.297 -17.613  1.00 22.29 LIG 0.18  C 
ATOM     30  CB  PRO P 630      20.701   6.033 -17.800  1.00 25.21 LIG 0.04  C 
ATOM     31  CG  PRO P 630      20.383   4.918 -16.850  1.00 30.73 LIG 0.02  C 
ATOM     32  CD  PRO P 630      21.645   4.105 -16.697  1.00 29.29 LIG 0.13  C 
ATOM     33  N   PRO P 630      22.705   5.025 -17.089  1.00 28.31 LIG-0.34  N 
ATOM     34  C   ASP P 629      24.035   4.869 -17.045  1.00 28.38 LIG 0.24  C 
ATOM     35 O    ASP P 629      24.807   5.806 -17.295  1.00 35.14 LIG-0.27  OA
BRANCH 34 36
ATOM     36  CA  ASP P 629      24.569   3.508 -16.664  1.00 31.37 LIG 0.19  C 
BRANCH 36 37
ATOM     37  CB  ASP P 629      25.727   3.585 -15.649  1.00 29.57 LIG 0.15  C 
BRANCH 37 38
ATOM     38  CG  ASP P 629      26.609   2.355 -15.756  1.00 37.10 LIG 0.17  C 
ATOM     39 OD2  ASP P 629      27.710   2.437 -16.346  1.00 43.68 LIG-0.65  OA
ATOM     40 OD1  ASP P 629      26.222   1.295 -15.225  1.00 36.00 LIG-0.65  OA
ENDBRANCH 37 38
ENDBRANCH 36 37
BRANCH 36 41
ATOM     41  N   ASP P 629      25.073   2.830 -17.840  1.00 43.53 LIG-0.34  N 
ATOM     42 H    ASP P 629      25.693   3.287 -18.222  1.00 43.53 LIG 0.16  HD
ATOM     43  C   SER P 628      24.694   1.670 -18.336  1.00 52.75 LIG 0.26  C 
ATOM     44 O    SER P 628      23.841   0.931 -17.850  1.00 74.95 LIG-0.27  OA
BRANCH 43 45
ATOM     45  CA  SER P 628      25.454   1.308 -19.619  1.00 53.54 LIG 0.42  C 
ATOM     46  N   SER P 628      26.814   0.836 -19.360  1.00 68.72 LIG 0.62  N 
BRANCH 45 47
ATOM     47  CB  SER P 628      24.646   0.226 -20.342  1.00 49.52 LIG 0.21  C 
BRANCH 47 48
ATOM     48 OG   SER P 628      24.683   0.404 -21.750  1.00 73.20 LIG-0.40  OA
ATOM     49 HG   SER P 628      24.072  -0.049 -22.107  1.00 73.20 LIG 0.21  HD
ENDBRANCH 47 48
ENDBRANCH 45 47
ENDBRANCH 43 45
ENDBRANCH 36 41
ENDBRANCH 34 36
ENDBRANCH 1 29
TORSDOF 19
ENDMDL
