MODEL 1
USER: ADFR SOLUTION from run 80
USER: SCORE 29.111738 LL:  -5.376 LR: -26.067 RR:   0.000 FEB: -18.013
USER: RMSD 2.346208
USER: SEED 79
USER: STATUS searching
USER: GENES 29
USER: genes 0 Translation |==|  0.39912 0.58813 0.55995
USER: genes 1 Rotation |==|  0.49445 0.46700 0.51913 0.99851
USER: genes 2 Torsion [CB]-CA--N-[C] |==|  0.29444
USER: genes 3 Torsion [N]-C--CA-[N] |==|  0.40317
USER: genes 4 Torsion [C]-CA--CB-[CG] |==|  0.38197
USER: genes 5 Torsion [CA]-CB--CG-[CD2] |==|  0.46348
USER: genes 6 Torsion [C]-CA--N-[C] |==|  0.75704
USER: genes 7 Torsion [N]-C--CA-[N] |==|  0.39794
USER: genes 8 Torsion [C]-CA--CB-[CG] |==|  0.36189
USER: genes 9 Torsion [CA]-CB--CG-[OD1] |==|  0.36844
USER: genes 10 Torsion [C]-CA--N-[C] |==|  0.85536
USER: genes 11 Torsion [N]-C--CA-[N] |==|  0.98194
USER: genes 12 Torsion [C]-CA--N-[C] |==|  0.81539
USER: genes 13 Torsion [C]-CA--CB-[CG] |==|  0.31815
USER: genes 14 Torsion [CA]-CB--CG-[CD] |==|  0.99719
USER: genes 15 Torsion [CB]-CG--CD-[OE1] |==|  0.75035
USER: genes 16 Torsion [N]-CA--C-[N] |==|  0.35309
USER: genes 17 Torsion [C]-N--CA-[CB] |==|  0.49634
USER: genes 18 Torsion [N]-CA--C-[N] |==|  0.36144
USER: genes 19 Torsion [C]-N--CA-[CB] |==|  0.39768
USER: genes 20 Torsion [N]-CA--CB-[CG] |==|  0.56715
USER: genes 21 Torsion [CA]-CB--CG-[CD] |==|  0.56632
USER: genes 22 Torsion [CB]-CG--CD-[NE2] |==|  0.56781
USER: genes 23 Torsion [N]-CA--C-[O] |==|  0.67944
USER: genes 24 Torsion [N]-CA--CB-[CG] |==|  0.80377
USER: genes 25 Torsion [CA]-CB--CG-[CD1] |==|  0.34721
USER: genes 26 Torsion [N]-CA--CB-[CG] |==|  0.25949
USER: genes 27 Torsion [CA]-CB--CG-[CD2] |==|  0.76386
USER: genes 28 Torsion [CE2]-CZ--OH-[HH] |==|  0.49341
ROOT
ATOM      1  CA  TYR C 305       4.750  92.274  10.511  1.00 17.70 LIG 0.18  C 
ENDROOT
BRANCH 1 2
ATOM      2  N   TYR C 305       5.664  91.969   9.426  1.00 18.26 LIG-0.35  N 
ATOM      3  C   LEU C 304       6.000  92.935   8.602  1.00 22.06 LIG 0.24  C 
ATOM      4 O    LEU C 304       5.516  94.041   8.684  1.00 19.49 LIG-0.27  OA
ATOM      5 H    TYR C 305       5.940  91.155   9.383  1.00 18.26 LIG 0.16  HD
BRANCH 3 6
ATOM      6  CA  LEU C 304       7.003  92.580   7.491  1.00 20.64 LIG 0.18  C 
BRANCH 6 7
ATOM      7  CB  LEU C 304       8.424  92.931   7.961  1.00 15.74 LIG 0.04  C 
BRANCH 7 8
ATOM      8  CG  LEU C 304       9.586  91.927   7.666  1.00 18.57 LIG-0.02  C 
ATOM      9  CD2 LEU C 304      10.903  92.582   7.910  1.00 21.94 LIG 0.01  C 
ATOM     10  CD1 LEU C 304       9.427  91.417   6.207  1.00 20.21 LIG 0.01  C 
ENDBRANCH 7 8
ENDBRANCH 6 7
BRANCH 6 11
ATOM     11  N   LEU C 304       6.686  93.323   6.289  1.00 19.38 LIG-0.35  N 
ATOM     12 H    LEU C 304       7.089  94.075   6.191  1.00 19.38 LIG 0.16  HD
ATOM     13  C   ASN C 303       5.814  92.796   5.446  1.00 24.27 LIG 0.24  C 
ATOM     14 O    ASN C 303       5.234  91.742   5.683  1.00 22.60 LIG-0.27  OA
BRANCH 13 15
ATOM     15  CA  ASN C 303       5.504  93.596   4.181  1.00 31.24 LIG 0.18  C 
BRANCH 15 16
ATOM     16  CB  ASN C 303       4.238  94.414   4.407  1.00 21.65 LIG 0.14  C 
BRANCH 16 17
ATOM     17  CG  ASN C 303       4.436  95.902   4.006  1.00 16.90 LIG 0.22  C 
ATOM     18 OD1  ASN C 303       3.598  96.496   3.299  1.00 28.96 LIG-0.27  OA
ATOM     19  ND2 ASN C 303       5.547  96.480   4.459  1.00 28.67 LIG-0.37  N 
ATOM     20 22HD ASN C 303       6.098  96.032   4.944  1.00 28.67 LIG 0.16  HD
ATOM     21 21HD ASN C 303       5.714  97.301   4.266  1.00 28.67 LIG 0.16  HD
ENDBRANCH 16 17
ENDBRANCH 15 16
BRANCH 15 22
ATOM     22  N   ASN C 303       5.316  92.671   3.065  1.00 31.60 LIG-0.35  N 
ATOM     23  C   GLU C 302       6.237  91.750   2.799  1.00 42.93 LIG 0.24  C 
ATOM     24 O    GLU C 302       7.314  91.674   3.441  1.00 23.80 LIG-0.27  OA
ATOM     25 H    ASN C 303       4.588  92.778   2.621  1.00 31.60 LIG 0.16  HD
BRANCH 23 26
ATOM     26  CA  GLU C 302       5.904  90.810   1.619  1.00 34.08 LIG 0.18  C 
BRANCH 26 27
ATOM     27  N   GLU C 302       4.577  91.021   1.120  1.00 23.23 LIG-0.35  N 
ATOM     28  C   ACE C 301       3.545  90.726   1.881  1.00 22.46 LIG 0.21  C 
ATOM     29 O    ACE C 301       3.678  90.275   3.007  1.00 29.32 LIG-0.27  OA
ATOM     30  CH3 ACE C 301       2.161  90.978   1.311  1.00 21.44 LIG 0.12  C 
ATOM     31 H    GLU C 302       4.529  91.338   0.322  1.00 23.23 LIG 0.16  HD
ENDBRANCH 26 27
BRANCH 26 32
ATOM     32  CB  GLU C 302       6.901  90.987   0.474  1.00 20.79 LIG 0.04  C 
BRANCH 32 33
ATOM     33  CG  GLU C 302       7.782  89.713   0.214  1.00 23.79 LIG 0.12  C 
BRANCH 33 34
ATOM     34  CD  GLU C 302       7.520  88.541   1.146  1.00 40.63 LIG 0.17  C 
ATOM     35 OE1  GLU C 302       8.141  88.415   2.216  1.00 32.87 LIG-0.65  OA
ATOM     36 OE2  GLU C 302       6.701  87.686   0.777  1.00 33.51 LIG-0.65  OA
ENDBRANCH 33 34
ENDBRANCH 32 33
ENDBRANCH 26 32
ENDBRANCH 23 26
ENDBRANCH 15 22
ENDBRANCH 13 15
ENDBRANCH 6 11
ENDBRANCH 3 6
ENDBRANCH 1 2
BRANCH 1 37
ATOM     37  C   TYR C 305       5.348  91.662  11.767  1.00 20.52 LIG 0.24  C 
ATOM     38 O    TYR C 305       5.685  90.476  11.776  1.00 23.93 LIG-0.27  OA
ATOM     39  N   PHE C 306       5.494  92.468  12.802  1.00 17.96 LIG-0.35  N 
ATOM     40 H    PHE C 306       5.292  93.304  12.816  1.00 17.96 LIG 0.16  HD
BRANCH 39 41
ATOM     41  CA  PHE C 306       6.057  91.908  14.076  1.00 18.04 LIG 0.18  C 
BRANCH 41 42
ATOM     42  C   PHE C 306       5.121  90.820  14.528  1.00 31.34 LIG 0.24  C 
ATOM     43  N   GLN C 307       5.676  89.652  14.838  1.00 26.23 LIG-0.35  N 
ATOM     44 H    GLN C 307       6.523  89.504  14.854  1.00 26.23 LIG 0.16  HD
ATOM     45 O    PHE C 306       3.914  91.021  14.594  1.00 30.18 LIG-0.27  OA
BRANCH 43 46
ATOM     46  CA  GLN C 307       4.842  88.499  15.185  1.00 27.99 LIG 0.16  C 
BRANCH 46 47
ATOM     47  CB  GLN C 307       5.512  87.259  14.606  1.00 36.24 LIG 0.04  C 
BRANCH 47 48
ATOM     48  CG  GLN C 307       4.585  86.115  14.355  1.00 42.27 LIG 0.10  C 
BRANCH 48 49
ATOM     49  CD  GLN C 307       5.342  84.799  14.353  1.00 30.08 LIG 0.21  C 
ATOM     50  NE2 GLN C 307       4.764  83.799  13.660  1.00 33.32 LIG-0.37  N 
ATOM     51 21HE GLN C 307       4.012  83.929  13.264  1.00 33.32 LIG 0.16  HD
ATOM     52 22HE GLN C 307       5.148  83.030  13.613  1.00 33.32 LIG 0.16  HD
ATOM     53 OE1  GLN C 307       6.436  84.679  14.955  1.00 31.63 LIG-0.27  OA
ENDBRANCH 48 49
ENDBRANCH 47 48
ENDBRANCH 46 47
BRANCH 46 54
ATOM     54  C   GLN C 307       4.481  88.286  16.648  1.00 39.25 LIG 0.22  C 
ATOM     55 O    GLN C 307       4.915  87.264  17.208  1.00 55.00 LIG-0.29  OA
ENDBRANCH 46 54
ENDBRANCH 43 46
ENDBRANCH 41 42
BRANCH 41 56
ATOM     56  CB  PHE C 306       6.181  92.990  15.140  1.00 20.53 LIG 0.07  C 
BRANCH 56 57
ATOM     57  CG  PHE C 306       7.237  93.968  14.859  1.00 20.37 LIG-0.06  A 
ATOM     58  CD2 PHE C 306       8.516  93.563  14.591  1.00 17.20 LIG 0.01  A 
ATOM     59  CE2 PHE C 306       9.507  94.481  14.276  1.00 19.90 LIG 0.00  A 
ATOM     60  CZ  PHE C 306       9.216  95.853  14.227  1.00 23.32 LIG 0.00  A 
ATOM     61  CE1 PHE C 306       7.911  96.269  14.504  1.00 27.54 LIG 0.00  A 
ATOM     62  CD1 PHE C 306       6.935  95.346  14.815  1.00 19.02 LIG 0.01  A 
ENDBRANCH 56 57
ENDBRANCH 41 56
ENDBRANCH 39 41
ENDBRANCH 1 37
BRANCH 1 63
ATOM     63  CB  TYR C 305       3.365  91.699  10.236  1.00 23.59 LIG 0.07  C 
BRANCH 63 64
ATOM     64  CG  TYR C 305       3.111  90.344  10.809  1.00 90.40 LIG-0.06  A 
ATOM     65  CD2 TYR C 305       3.496  89.210  10.114  1.00 31.11 LIG 0.01  A 
ATOM     66  CE2 TYR C 305       3.266  87.923  10.635  1.00 55.34 LIG 0.04  A 
ATOM     67  CZ  TYR C 305       2.644  87.792  11.871  1.00 93.94 LIG 0.07  A 
ATOM     68  CE1 TYR C 305       2.248  88.920  12.590  1.00 56.99 LIG 0.04  A 
ATOM     69  CD1 TYR C 305       2.482  90.188  12.057  1.00 51.39 LIG 0.01  A 
BRANCH 67 70
ATOM     70 OH   TYR C 305       2.415  86.540  12.389  1.00 93.94 LIG-0.36  OA
ATOM     71 HH   TYR C 305       2.065  86.611  13.150  1.00 93.94 LIG 0.22  HD
ENDBRANCH 67 70
ENDBRANCH 63 64
ENDBRANCH 1 63
TORSDOF 27
ENDMDL
MODEL 2
USER: ADFR SOLUTION from run 80
USER: SCORE 29.171052 LL:  -5.553 LR: -25.861 RR:   0.000 FEB: -17.807
USER: RMSD 3.618846
USER: SEED 79
USER: STATUS searching
USER: GENES 29
USER: genes 0 Translation |==|  0.39627 0.59278 0.55683
USER: genes 1 Rotation |==|  0.50154 0.48426 0.51703 0.99946
USER: genes 2 Torsion [CB]-CA--N-[C] |==|  0.27608
USER: genes 3 Torsion [N]-C--CA-[N] |==|  0.38164
USER: genes 4 Torsion [C]-CA--CB-[CG] |==|  0.39756
USER: genes 5 Torsion [CA]-CB--CG-[CD2] |==|  0.02056
USER: genes 6 Torsion [C]-CA--N-[C] |==|  0.77247
USER: genes 7 Torsion [N]-C--CA-[N] |==|  0.01469
USER: genes 8 Torsion [C]-CA--CB-[CG] |==|  0.31309
USER: genes 9 Torsion [CA]-CB--CG-[OD1] |==|  0.69391
USER: genes 10 Torsion [C]-CA--N-[C] |==|  0.76667
USER: genes 11 Torsion [N]-C--CA-[N] |==|  0.03683
USER: genes 12 Torsion [C]-CA--N-[C] |==|  0.75843
USER: genes 13 Torsion [C]-CA--CB-[CG] |==|  0.94697
USER: genes 14 Torsion [CA]-CB--CG-[CD] |==|  0.46947
USER: genes 15 Torsion [CB]-CG--CD-[OE1] |==|  0.90951
USER: genes 16 Torsion [N]-CA--C-[N] |==|  0.35507
USER: genes 17 Torsion [C]-N--CA-[CB] |==|  0.49001
USER: genes 18 Torsion [N]-CA--C-[N] |==|  0.36780
USER: genes 19 Torsion [C]-N--CA-[CB] |==|  0.39767
USER: genes 20 Torsion [N]-CA--CB-[CG] |==|  0.57151
USER: genes 21 Torsion [CA]-CB--CG-[CD] |==|  0.57066
USER: genes 22 Torsion [CB]-CG--CD-[NE2] |==|  0.57173
USER: genes 23 Torsion [N]-CA--C-[O] |==|  0.67317
USER: genes 24 Torsion [N]-CA--CB-[CG] |==|  0.79771
USER: genes 25 Torsion [CA]-CB--CG-[CD1] |==|  0.34903
USER: genes 26 Torsion [N]-CA--CB-[CG] |==|  0.26112
USER: genes 27 Torsion [CA]-CB--CG-[CD2] |==|  0.76328
USER: genes 28 Torsion [CE2]-CZ--OH-[HH] |==|  0.49341
ROOT
ATOM      1  CA  TYR C 305       4.696  92.379  10.434  1.00 17.70 LIG 0.18  C 
ENDROOT
BRANCH 1 2
ATOM      2  N   TYR C 305       5.530  92.096   9.280  1.00 18.26 LIG-0.35  N 
ATOM      3  C   LEU C 304       5.707  93.046   8.390  1.00 22.06 LIG 0.24  C 
ATOM      4 O    LEU C 304       5.142  94.113   8.474  1.00 19.49 LIG-0.27  OA
ATOM      5 H    TYR C 305       5.867  91.306   9.243  1.00 18.26 LIG 0.16  HD
BRANCH 3 6
ATOM      6  CA  LEU C 304       6.631  92.720   7.204  1.00 20.64 LIG 0.18  C 
BRANCH 6 7
ATOM      7  CB  LEU C 304       8.004  93.373   7.437  1.00 15.74 LIG 0.04  C 
BRANCH 7 8
ATOM      8  CG  LEU C 304       9.290  92.607   6.985  1.00 18.57 LIG-0.02  C 
ATOM      9  CD2 LEU C 304       8.914  91.388   6.214  1.00 21.94 LIG 0.01  C 
ATOM     10  CD1 LEU C 304      10.131  92.285   8.251  1.00 20.21 LIG 0.01  C 
ENDBRANCH 7 8
ENDBRANCH 6 7
BRANCH 6 11
ATOM     11  N   LEU C 304       6.049  93.224   5.977  1.00 19.38 LIG-0.35  N 
ATOM     12 H    LEU C 304       6.345  93.982   5.700  1.00 19.38 LIG 0.16  HD
ATOM     13  C   ASN C 303       5.122  92.492   5.384  1.00 24.27 LIG 0.24  C 
ATOM     14 O    ASN C 303       4.708  91.444   5.871  1.00 22.60 LIG-0.27  OA
BRANCH 13 15
ATOM     15  CA  ASN C 303       4.530  93.041   4.086  1.00 31.24 LIG 0.18  C 
BRANCH 15 16
ATOM     16  CB  ASN C 303       4.667  91.989   2.992  1.00 21.65 LIG 0.14  C 
BRANCH 16 17
ATOM     17  CG  ASN C 303       3.284  91.439   2.548  1.00 16.90 LIG 0.22  C 
ATOM     18 OD1  ASN C 303       2.939  90.271   2.817  1.00 28.96 LIG-0.27  OA
ATOM     19  ND2 ASN C 303       2.516  92.286   1.866  1.00 28.67 LIG-0.37  N 
ATOM     20 22HD ASN C 303       2.794  93.083   1.703  1.00 28.67 LIG 0.16  HD
ATOM     21 21HD ASN C 303       1.741  92.037   1.590  1.00 28.67 LIG 0.16  HD
ENDBRANCH 16 17
ENDBRANCH 15 16
BRANCH 15 22
ATOM     22  N   ASN C 303       5.247  94.258   3.712  1.00 31.60 LIG-0.35  N 
ATOM     23  C   GLU C 302       4.900  95.427   4.241  1.00 42.93 LIG 0.24  C 
ATOM     24 O    GLU C 302       3.923  95.547   5.021  1.00 23.80 LIG-0.27  OA
ATOM     25 H    ASN C 303       5.883  94.147   3.144  1.00 31.60 LIG 0.16  HD
BRANCH 23 26
ATOM     26  CA  GLU C 302       5.758  96.631   3.793  1.00 34.08 LIG 0.18  C 
BRANCH 26 27
ATOM     27  N   GLU C 302       6.578  96.318   2.659  1.00 23.23 LIG-0.35  N 
ATOM     28  C   ACE C 301       7.764  95.782   2.847  1.00 22.46 LIG 0.21  C 
ATOM     29 O    ACE C 301       8.198  95.541   3.962  1.00 29.32 LIG-0.27  OA
ATOM     30  CH3 ACE C 301       8.589  95.458   1.614  1.00 21.44 LIG 0.12  C 
ATOM     31 H    GLU C 302       6.235  96.504   1.893  1.00 23.23 LIG 0.16  HD
ENDBRANCH 26 27
BRANCH 26 32
ATOM     32  CB  GLU C 302       4.884  97.839   3.456  1.00 20.79 LIG 0.04  C 
BRANCH 32 33
ATOM     33  CG  GLU C 302       3.384  97.462   3.179  1.00 23.79 LIG 0.12  C 
BRANCH 33 34
ATOM     34  CD  GLU C 302       2.424  98.637   3.097  1.00 40.63 LIG 0.17  C 
ATOM     35 OE1  GLU C 302       2.598  99.663   3.777  1.00 32.87 LIG-0.65  OA
ATOM     36 OE2  GLU C 302       1.429  98.516   2.365  1.00 33.51 LIG-0.65  OA
ENDBRANCH 33 34
ENDBRANCH 32 33
ENDBRANCH 26 32
ENDBRANCH 23 26
ENDBRANCH 15 22
ENDBRANCH 13 15
ENDBRANCH 6 11
ENDBRANCH 3 6
ENDBRANCH 1 2
BRANCH 1 37
ATOM     37  C   TYR C 305       5.376  91.730  11.628  1.00 20.52 LIG 0.24  C 
ATOM     38 O    TYR C 305       5.714  90.545  11.578  1.00 23.93 LIG-0.27  OA
ATOM     39  N   PHE C 306       5.588  92.503  12.677  1.00 17.96 LIG-0.35  N 
ATOM     40 H    PHE C 306       5.386  93.338  12.730  1.00 17.96 LIG 0.16  HD
BRANCH 39 41
ATOM     41  CA  PHE C 306       6.233  91.906  13.893  1.00 18.04 LIG 0.18  C 
BRANCH 41 42
ATOM     42  C   PHE C 306       5.303  90.839  14.404  1.00 31.34 LIG 0.24  C 
ATOM     43  N   GLN C 307       5.853  89.664  14.696  1.00 26.23 LIG-0.35  N 
ATOM     44 H    GLN C 307       6.696  89.501  14.670  1.00 26.23 LIG 0.16  HD
ATOM     45 O    PHE C 306       4.104  91.062  14.530  1.00 30.18 LIG-0.27  OA
BRANCH 43 46
ATOM     46  CA  GLN C 307       5.018  88.529  15.097  1.00 27.99 LIG 0.16  C 
BRANCH 46 47
ATOM     47  CB  GLN C 307       5.636  87.273  14.497  1.00 36.24 LIG 0.04  C 
BRANCH 47 48
ATOM     48  CG  GLN C 307       4.670  86.156  14.271  1.00 42.27 LIG 0.10  C 
BRANCH 48 49
ATOM     49  CD  GLN C 307       5.383  84.815  14.282  1.00 30.08 LIG 0.21  C 
ATOM     50  NE2 GLN C 307       4.782  83.832  13.584  1.00 33.32 LIG-0.37  N 
ATOM     51 21HE GLN C 307       4.040  83.986  13.178  1.00 33.32 LIG 0.16  HD
ATOM     52 22HE GLN C 307       5.141  83.052  13.545  1.00 33.32 LIG 0.16  HD
ATOM     53 OE1  GLN C 307       6.465  84.662  14.898  1.00 31.63 LIG-0.27  OA
ENDBRANCH 48 49
ENDBRANCH 47 48
ENDBRANCH 46 47
BRANCH 46 54
ATOM     54  C   GLN C 307       4.729  88.335  16.579  1.00 39.25 LIG 0.22  C 
ATOM     55 O    GLN C 307       5.137  87.291  17.116  1.00 55.00 LIG-0.29  OA
ENDBRANCH 46 54
ENDBRANCH 43 46
ENDBRANCH 41 42
BRANCH 41 56
ATOM     56  CB  PHE C 306       6.474  92.966  14.959  1.00 20.53 LIG 0.07  C 
BRANCH 56 57
ATOM     57  CG  PHE C 306       7.568  93.886  14.631  1.00 20.37 LIG-0.06  A 
ATOM     58  CD2 PHE C 306       8.803  93.412  14.278  1.00 17.20 LIG 0.01  A 
ATOM     59  CE2 PHE C 306       9.827  94.277  13.919  1.00 19.90 LIG 0.00  A 
ATOM     60  CZ  PHE C 306       9.616  95.664  13.912  1.00 23.32 LIG 0.00  A 
ATOM     61  CE1 PHE C 306       8.357  96.151  14.276  1.00 27.54 LIG 0.00  A 
ATOM     62  CD1 PHE C 306       7.348  95.279  14.630  1.00 19.02 LIG 0.01  A 
ENDBRANCH 56 57
ENDBRANCH 41 56
ENDBRANCH 39 41
ENDBRANCH 1 37
BRANCH 1 63
ATOM     63  CB  TYR C 305       3.291  91.820  10.241  1.00 23.59 LIG 0.07  C 
BRANCH 63 64
ATOM     64  CG  TYR C 305       3.063  90.458  10.808  1.00 90.40 LIG-0.06  A 
ATOM     65  CD2 TYR C 305       3.386  89.333  10.069  1.00 31.11 LIG 0.01  A 
ATOM     66  CE2 TYR C 305       3.179  88.038  10.582  1.00 55.34 LIG 0.04  A 
ATOM     67  CZ  TYR C 305       2.642  87.892  11.857  1.00 93.94 LIG 0.07  A 
ATOM     68  CE1 TYR C 305       2.310  89.011  12.620  1.00 56.99 LIG 0.04  A 
ATOM     69  CD1 TYR C 305       2.520  90.286  12.093  1.00 51.39 LIG 0.01  A 
BRANCH 67 70
ATOM     70 OH   TYR C 305       2.436  86.633  12.368  1.00 93.94 LIG-0.36  OA
ATOM     71 HH   TYR C 305       2.141  86.694  13.152  1.00 93.94 LIG 0.22  HD
ENDBRANCH 67 70
ENDBRANCH 63 64
ENDBRANCH 1 63
TORSDOF 27
ENDMDL
MODEL 3
USER: ADFR SOLUTION from run 80
USER: SCORE 29.092916 LL:  -5.463 LR: -25.810 RR:   0.000 FEB: -17.756
USER: RMSD 0.730925
USER: SEED 79
USER: STATUS searching
USER: GENES 29
USER: genes 0 Translation |==|  0.39184 0.58996 0.56011
USER: genes 1 Rotation |==|  0.49687 0.48495 0.51642 0.99949
USER: genes 2 Torsion [CB]-CA--N-[C] |==|  0.28304
USER: genes 3 Torsion [N]-C--CA-[N] |==|  0.45556
USER: genes 4 Torsion [C]-CA--CB-[CG] |==|  0.37676
USER: genes 5 Torsion [CA]-CB--CG-[CD2] |==|  0.44612
USER: genes 6 Torsion [C]-CA--N-[C] |==|  0.65978
USER: genes 7 Torsion [N]-C--CA-[N] |==|  0.39094
USER: genes 8 Torsion [C]-CA--CB-[CG] |==|  0.33726
USER: genes 9 Torsion [CA]-CB--CG-[OD1] |==|  0.45335
USER: genes 10 Torsion [C]-CA--N-[C] |==|  0.83453
USER: genes 11 Torsion [N]-C--CA-[N] |==|  0.44417
USER: genes 12 Torsion [C]-CA--N-[C] |==|  0.81446
USER: genes 13 Torsion [C]-CA--CB-[CG] |==|  0.85213
USER: genes 14 Torsion [CA]-CB--CG-[CD] |==|  0.53055
USER: genes 15 Torsion [CB]-CG--CD-[OE1] |==|  0.91917
USER: genes 16 Torsion [N]-CA--C-[N] |==|  0.35403
USER: genes 17 Torsion [C]-N--CA-[CB] |==|  0.49452
USER: genes 18 Torsion [N]-CA--C-[N] |==|  0.36458
USER: genes 19 Torsion [C]-N--CA-[CB] |==|  0.39832
USER: genes 20 Torsion [N]-CA--CB-[CG] |==|  0.57270
USER: genes 21 Torsion [CA]-CB--CG-[CD] |==|  0.56846
USER: genes 22 Torsion [CB]-CG--CD-[NE2] |==|  0.57134
USER: genes 23 Torsion [N]-CA--C-[O] |==|  0.67673
USER: genes 24 Torsion [N]-CA--CB-[CG] |==|  0.80518
USER: genes 25 Torsion [CA]-CB--CG-[CD1] |==|  0.34716
USER: genes 26 Torsion [N]-CA--CB-[CG] |==|  0.25417
USER: genes 27 Torsion [CA]-CB--CG-[CD2] |==|  0.76496
USER: genes 28 Torsion [CE2]-CZ--OH-[HH] |==|  0.49399
ROOT
ATOM      1  CA  TYR C 305       4.613  92.315  10.515  1.00 17.70 LIG 0.18  C 
ENDROOT
BRANCH 1 2
ATOM      2  N   TYR C 305       5.443  92.009   9.365  1.00 18.26 LIG-0.35  N 
ATOM      3  C   LEU C 304       5.663  92.957   8.483  1.00 22.06 LIG 0.24  C 
ATOM      4 O    LEU C 304       5.138  94.044   8.569  1.00 19.49 LIG-0.27  OA
ATOM      5 H    TYR C 305       5.751  91.207   9.325  1.00 18.26 LIG 0.16  HD
BRANCH 3 6
ATOM      6  CA  LEU C 304       6.582  92.604   7.300  1.00 20.64 LIG 0.18  C 
BRANCH 6 7
ATOM      7  CB  LEU C 304       8.042  92.581   7.783  1.00 15.74 LIG 0.04  C 
BRANCH 7 8
ATOM      8  CG  LEU C 304       8.968  91.407   7.327  1.00 18.57 LIG-0.02  C 
ATOM      9  CD2 LEU C 304      10.399  91.792   7.489  1.00 21.94 LIG 0.01  C 
ATOM     10  CD1 LEU C 304       8.604  91.044   5.861  1.00 20.21 LIG 0.01  C 
ENDBRANCH 7 8
ENDBRANCH 6 7
BRANCH 6 11
ATOM     11  N   LEU C 304       6.427  93.587   6.249  1.00 19.38 LIG-0.35  N 
ATOM     12 H    LEU C 304       6.584  94.403   6.467  1.00 19.38 LIG 0.16  HD
ATOM     13  C   ASN C 303       6.062  93.163   5.051  1.00 24.27 LIG 0.24  C 
ATOM     14 O    ASN C 303       5.798  91.985   4.829  1.00 22.60 LIG-0.27  OA
BRANCH 13 15
ATOM     15  CA  ASN C 303       5.914  94.220   3.957  1.00 31.24 LIG 0.18  C 
BRANCH 15 16
ATOM     16  CB  ASN C 303       4.441  94.584   3.812  1.00 21.65 LIG 0.14  C 
BRANCH 16 17
ATOM     17  CG  ASN C 303       4.198  96.100   4.052  1.00 16.90 LIG 0.22  C 
ATOM     18 OD1  ASN C 303       3.141  96.650   3.684  1.00 28.96 LIG-0.27  OA
ATOM     19  ND2 ASN C 303       5.184  96.754   4.662  1.00 28.67 LIG-0.37  N 
ATOM     20 22HD ASN C 303       5.897  96.335   4.900  1.00 28.67 LIG 0.16  HD
ATOM     21 21HD ASN C 303       5.109  97.596   4.819  1.00 28.67 LIG 0.16  HD
ENDBRANCH 16 17
ENDBRANCH 15 16
BRANCH 15 22
ATOM     22  N   ASN C 303       6.428  93.681   2.699  1.00 31.60 LIG-0.35  N 
ATOM     23  C   GLU C 302       7.694  93.286   2.610  1.00 42.93 LIG 0.24  C 
ATOM     24 O    GLU C 302       8.505  93.413   3.561  1.00 23.80 LIG-0.27  OA
ATOM     25 H    ASN C 303       5.858  93.647   2.057  1.00 31.60 LIG 0.16  HD
BRANCH 23 26
ATOM     26  CA  GLU C 302       8.105  92.702   1.241  1.00 34.08 LIG 0.18  C 
BRANCH 26 27
ATOM     27  N   GLU C 302       9.525  92.727   1.048  1.00 23.23 LIG-0.35  N 
ATOM     28  C   ACE C 301      10.143  93.883   0.936  1.00 22.46 LIG 0.21  C 
ATOM     29 O    ACE C 301       9.544  94.945   0.991  1.00 29.32 LIG-0.27  OA
ATOM     30  CH3 ACE C 301      11.649  93.857   0.745  1.00 21.44 LIG 0.12  C 
ATOM     31 H    GLU C 302       9.907  91.957   1.014  1.00 23.23 LIG 0.16  HD
ENDBRANCH 26 27
BRANCH 26 32
ATOM     32  CB  GLU C 302       7.607  91.266   1.081  1.00 20.79 LIG 0.04  C 
BRANCH 32 33
ATOM     33  CG  GLU C 302       8.032  90.325   2.264  1.00 23.79 LIG 0.12  C 
BRANCH 33 34
ATOM     34  CD  GLU C 302       7.791  88.842   2.034  1.00 40.63 LIG 0.17  C 
ATOM     35 OE1  GLU C 302       6.870  88.443   1.301  1.00 32.87 LIG-0.65  OA
ATOM     36 OE2  GLU C 302       8.516  88.041   2.645  1.00 33.51 LIG-0.65  OA
ENDBRANCH 33 34
ENDBRANCH 32 33
ENDBRANCH 26 32
ENDBRANCH 23 26
ENDBRANCH 15 22
ENDBRANCH 13 15
ENDBRANCH 6 11
ENDBRANCH 3 6
ENDBRANCH 1 2
BRANCH 1 37
ATOM     37  C   TYR C 305       5.293  91.686  11.720  1.00 20.52 LIG 0.24  C 
ATOM     38 O    TYR C 305       5.622  90.498  11.694  1.00 23.93 LIG-0.27  OA
ATOM     39  N   PHE C 306       5.517  92.481  12.750  1.00 17.96 LIG-0.35  N 
ATOM     40 H    PHE C 306       5.322  93.318  12.787  1.00 17.96 LIG 0.16  HD
BRANCH 39 41
ATOM     41  CA  PHE C 306       6.163  91.905  13.977  1.00 18.04 LIG 0.18  C 
BRANCH 41 42
ATOM     42  C   PHE C 306       5.246  90.829  14.491  1.00 31.34 LIG 0.24  C 
ATOM     43  N   GLN C 307       5.807  89.657  14.776  1.00 26.23 LIG-0.35  N 
ATOM     44 H    GLN C 307       6.652  89.501  14.742  1.00 26.23 LIG 0.16  HD
ATOM     45 O    PHE C 306       4.047  91.041  14.628  1.00 30.18 LIG-0.27  OA
BRANCH 43 46
ATOM     46  CA  GLN C 307       4.985  88.514  15.180  1.00 27.99 LIG 0.16  C 
BRANCH 46 47
ATOM     47  CB  GLN C 307       5.611  87.264  14.575  1.00 36.24 LIG 0.04  C 
BRANCH 47 48
ATOM     48  CG  GLN C 307       4.652  86.142  14.344  1.00 42.27 LIG 0.10  C 
BRANCH 48 49
ATOM     49  CD  GLN C 307       5.377  84.808  14.332  1.00 30.08 LIG 0.21  C 
ATOM     50  NE2 GLN C 307       4.776  83.827  13.629  1.00 33.32 LIG-0.37  N 
ATOM     51 21HE GLN C 307       4.028  83.979  13.233  1.00 33.32 LIG 0.16  HD
ATOM     52 22HE GLN C 307       5.141  83.051  13.577  1.00 33.32 LIG 0.16  HD
ATOM     53 OE1  GLN C 307       6.467  84.656  14.934  1.00 31.63 LIG-0.27  OA
ENDBRANCH 48 49
ENDBRANCH 47 48
ENDBRANCH 46 47
BRANCH 46 54
ATOM     54  C   GLN C 307       4.706  88.317  16.663  1.00 39.25 LIG 0.22  C 
ATOM     55 O    GLN C 307       5.146  87.287  17.203  1.00 55.00 LIG-0.29  OA
ENDBRANCH 46 54
ENDBRANCH 43 46
ENDBRANCH 41 42
BRANCH 41 56
ATOM     56  CB  PHE C 306       6.382  92.978  15.034  1.00 20.53 LIG 0.07  C 
BRANCH 56 57
ATOM     57  CG  PHE C 306       7.422  93.947  14.675  1.00 20.37 LIG-0.06  A 
ATOM     58  CD2 PHE C 306       8.672  93.533  14.303  1.00 17.20 LIG 0.01  A 
ATOM     59  CE2 PHE C 306       9.644  94.443  13.916  1.00 19.90 LIG 0.00  A 
ATOM     60  CZ  PHE C 306       9.363  95.819  13.898  1.00 23.32 LIG 0.00  A 
ATOM     61  CE1 PHE C 306       8.088  96.245  14.281  1.00 27.54 LIG 0.00  A 
ATOM     62  CD1 PHE C 306       7.131  95.328  14.664  1.00 19.02 LIG 0.01  A 
ENDBRANCH 56 57
ENDBRANCH 41 56
ENDBRANCH 39 41
ENDBRANCH 1 37
BRANCH 1 63
ATOM     63  CB  TYR C 305       3.206  91.757  10.336  1.00 23.59 LIG 0.07  C 
BRANCH 63 64
ATOM     64  CG  TYR C 305       2.991  90.382  10.877  1.00 90.40 LIG-0.06  A 
ATOM     65  CD2 TYR C 305       3.314  89.275  10.113  1.00 31.11 LIG 0.01  A 
ATOM     66  CE2 TYR C 305       3.120  87.969  10.602  1.00 55.34 LIG 0.04  A 
ATOM     67  CZ  TYR C 305       2.595  87.794  11.877  1.00 93.94 LIG 0.07  A 
ATOM     68  CE1 TYR C 305       2.262  88.895  12.666  1.00 56.99 LIG 0.04  A 
ATOM     69  CD1 TYR C 305       2.460  90.182  12.163  1.00 51.39 LIG 0.01  A 
BRANCH 67 70
ATOM     70 OH   TYR C 305       2.401  86.524  12.365  1.00 93.94 LIG-0.36  OA
ATOM     71 HH   TYR C 305       2.109  86.567  13.151  1.00 93.94 LIG 0.22  HD
ENDBRANCH 67 70
ENDBRANCH 63 64
ENDBRANCH 1 63
TORSDOF 27
ENDMDL
MODEL 4
USER: ADFR SOLUTION from run 192
USER: SCORE 28.980075 LL:  -6.706 LR: -24.912 RR:   0.000 FEB: -16.858
USER: RMSD 3.182303
USER: SEED 191
USER: STATUS no improvement in best in 4 clusters for 5 generations
USER: GENES 29
USER: genes 0 Translation |==|  0.36212 0.57994 0.55506
USER: genes 1 Rotation |==|  0.58457 0.47899 0.59994 0.98210
USER: genes 2 Torsion [CB]-CA--N-[C] |==|  0.27222
USER: genes 3 Torsion [N]-C--CA-[N] |==|  0.04880
USER: genes 4 Torsion [C]-CA--CB-[CG] |==|  0.59503
USER: genes 5 Torsion [CA]-CB--CG-[CD2] |==|  0.59790
USER: genes 6 Torsion [C]-CA--N-[C] |==|  0.71278
USER: genes 7 Torsion [N]-C--CA-[N] |==|  0.21963
USER: genes 8 Torsion [C]-CA--CB-[CG] |==|  0.78571
USER: genes 9 Torsion [CA]-CB--CG-[OD1] |==|  0.74864
USER: genes 10 Torsion [C]-CA--N-[C] |==|  0.77106
USER: genes 11 Torsion [N]-C--CA-[N] |==|  0.85006
USER: genes 12 Torsion [C]-CA--N-[C] |==|  0.74608
USER: genes 13 Torsion [C]-CA--CB-[CG] |==|  0.31179
USER: genes 14 Torsion [CA]-CB--CG-[CD] |==|  0.74460
USER: genes 15 Torsion [CB]-CG--CD-[OE1] |==|  0.38777
USER: genes 16 Torsion [N]-CA--C-[N] |==|  0.31511
USER: genes 17 Torsion [C]-N--CA-[CB] |==|  0.48372
USER: genes 18 Torsion [N]-CA--C-[N] |==|  0.38981
USER: genes 19 Torsion [C]-N--CA-[CB] |==|  0.39339
USER: genes 20 Torsion [N]-CA--CB-[CG] |==|  0.71544
USER: genes 21 Torsion [CA]-CB--CG-[CD] |==|  0.66355
USER: genes 22 Torsion [CB]-CG--CD-[NE2] |==|  0.09689
USER: genes 23 Torsion [N]-CA--C-[O] |==|  0.56008
USER: genes 24 Torsion [N]-CA--CB-[CG] |==|  0.80494
USER: genes 25 Torsion [CA]-CB--CG-[CD1] |==|  0.79113
USER: genes 26 Torsion [N]-CA--CB-[CG] |==|  0.34815
USER: genes 27 Torsion [CA]-CB--CG-[CD2] |==|  0.72350
USER: genes 28 Torsion [CE2]-CZ--OH-[HH] |==|  0.51042
ROOT
ATOM      1  CA  TYR C 305       4.056  92.090  10.390  1.00 17.70 LIG 0.18  C 
ENDROOT
BRANCH 1 2
ATOM      2  N   TYR C 305       4.885  92.480   9.265  1.00 18.26 LIG-0.35  N 
ATOM      3  C   LEU C 304       4.676  93.652   8.712  1.00 22.06 LIG 0.24  C 
ATOM      4 O    LEU C 304       3.773  94.375   9.068  1.00 19.49 LIG-0.27  OA
ATOM      5 H    TYR C 305       5.480  91.908   9.019  1.00 18.26 LIG 0.16  HD
BRANCH 3 6
ATOM      6  CA  LEU C 304       5.604  94.045   7.549  1.00 20.64 LIG 0.18  C 
BRANCH 6 7
ATOM      7  CB  LEU C 304       4.772  94.707   6.439  1.00 15.74 LIG 0.04  C 
BRANCH 7 8
ATOM      8  CG  LEU C 304       5.186  94.480   4.948  1.00 18.57 LIG-0.02  C 
ATOM      9  CD2 LEU C 304       4.924  95.712   4.151  1.00 21.94 LIG 0.01  C 
ATOM     10  CD1 LEU C 304       4.413  93.241   4.415  1.00 20.21 LIG 0.01  C 
ENDBRANCH 7 8
ENDBRANCH 6 7
BRANCH 6 11
ATOM     11  N   LEU C 304       6.266  92.865   7.030  1.00 19.38 LIG-0.35  N 
ATOM     12 H    LEU C 304       5.790  92.353   6.530  1.00 19.38 LIG 0.16  HD
ATOM     13  C   ASN C 303       7.530  92.668   7.358  1.00 24.27 LIG 0.24  C 
ATOM     14 O    ASN C 303       8.129  93.415   8.126  1.00 22.60 LIG-0.27  OA
BRANCH 13 15
ATOM     15  CA  ASN C 303       8.207  91.421   6.790  1.00 31.24 LIG 0.18  C 
BRANCH 15 16
ATOM     16  CB  ASN C 303       9.440  91.098   7.626  1.00 21.65 LIG 0.14  C 
BRANCH 16 17
ATOM     17  CG  ASN C 303      10.628  92.040   7.286  1.00 16.90 LIG 0.22  C 
ATOM     18 OD1  ASN C 303      11.455  91.740   6.402  1.00 28.96 LIG-0.27  OA
ATOM     19  ND2 ASN C 303      10.698  93.162   7.999  1.00 28.67 LIG-0.37  N 
ATOM     20 22HD ASN C 303      10.106  93.328   8.600  1.00 28.67 LIG 0.16  HD
ATOM     21 21HD ASN C 303      11.337  93.721   7.859  1.00 28.67 LIG 0.16  HD
ENDBRANCH 16 17
ENDBRANCH 15 16
BRANCH 15 22
ATOM     22  N   ASN C 303       8.590  91.674   5.402  1.00 31.60 LIG-0.35  N 
ATOM     23  C   GLU C 302       7.696  91.541   4.428  1.00 42.93 LIG 0.24  C 
ATOM     24 O    GLU C 302       6.525  91.139   4.642  1.00 23.80 LIG-0.27  OA
ATOM     25 H    ASN C 303       9.409  91.907   5.286  1.00 31.60 LIG 0.16  HD
BRANCH 23 26
ATOM     26  CA  GLU C 302       8.213  91.874   3.011  1.00 34.08 LIG 0.18  C 
BRANCH 26 27
ATOM     27  N   GLU C 302       8.800  93.180   2.944  1.00 23.23 LIG-0.35  N 
ATOM     28  C   ACE C 301       8.050  94.210   2.619  1.00 22.46 LIG 0.21  C 
ATOM     29 O    ACE C 301       6.862  94.094   2.368  1.00 29.32 LIG-0.27  OA
ATOM     30  CH3 ACE C 301       8.716  95.574   2.573  1.00 21.44 LIG 0.12  C 
ATOM     31 H    GLU C 302       9.640  93.217   3.128  1.00 23.23 LIG 0.16  HD
ENDBRANCH 26 27
BRANCH 26 32
ATOM     32  CB  GLU C 302       9.239  90.843   2.540  1.00 20.79 LIG 0.04  C 
BRANCH 32 33
ATOM     33  CG  GLU C 302       8.729  89.959   1.346  1.00 23.79 LIG 0.12  C 
BRANCH 33 34
ATOM     34  CD  GLU C 302       8.050  88.658   1.744  1.00 40.63 LIG 0.17  C 
ATOM     35 OE1  GLU C 302       7.035  88.253   1.153  1.00 32.87 LIG-0.65  OA
ATOM     36 OE2  GLU C 302       8.517  88.041   2.713  1.00 33.51 LIG-0.65  OA
ENDBRANCH 33 34
ENDBRANCH 32 33
ENDBRANCH 26 32
ENDBRANCH 23 26
ENDBRANCH 15 22
ENDBRANCH 13 15
ENDBRANCH 6 11
ENDBRANCH 3 6
ENDBRANCH 1 2
BRANCH 1 37
ATOM     37  C   TYR C 305       4.965  91.362  11.367  1.00 20.52 LIG 0.24  C 
ATOM     38 O    TYR C 305       5.474  90.284  11.051  1.00 23.93 LIG-0.27  OA
ATOM     39  N   PHE C 306       5.177  91.955  12.527  1.00 17.96 LIG-0.35  N 
ATOM     40 H    PHE C 306       4.856  92.717  12.764  1.00 17.96 LIG 0.16  HD
BRANCH 39 41
ATOM     41  CA  PHE C 306       6.047  91.267  13.538  1.00 18.04 LIG 0.18  C 
BRANCH 41 42
ATOM     42  C   PHE C 306       5.334  90.006  13.945  1.00 31.34 LIG 0.24  C 
ATOM     43  N   GLN C 307       6.091  88.926  14.117  1.00 26.23 LIG-0.35  N 
ATOM     44 H    GLN C 307       6.949  88.921  14.071  1.00 26.23 LIG 0.16  HD
ATOM     45 O    PHE C 306       4.118  89.997  14.097  1.00 30.18 LIG-0.27  OA
BRANCH 43 46
ATOM     46  CA  GLN C 307       5.480  87.626  14.407  1.00 27.99 LIG 0.16  C 
BRANCH 46 47
ATOM     47  CB  GLN C 307       6.276  86.570  13.651  1.00 36.24 LIG 0.04  C 
BRANCH 47 48
ATOM     48  CG  GLN C 307       5.619  86.075  12.404  1.00 42.27 LIG 0.10  C 
BRANCH 48 49
ATOM     49  CD  GLN C 307       5.395  84.575  12.471  1.00 30.08 LIG 0.21  C 
ATOM     50  NE2 GLN C 307       5.099  84.086  13.691  1.00 33.32 LIG-0.37  N 
ATOM     51 21HE GLN C 307       5.056  84.615  14.367  1.00 33.32 LIG 0.16  HD
ATOM     52 22HE GLN C 307       4.952  83.245  13.793  1.00 33.32 LIG 0.16  HD
ATOM     53 OE1  GLN C 307       5.474  83.862  11.442  1.00 31.63 LIG-0.27  OA
ENDBRANCH 48 49
ENDBRANCH 47 48
ENDBRANCH 46 47
BRANCH 46 54
ATOM     54  C   GLN C 307       5.297  87.226  15.864  1.00 39.25 LIG 0.22  C 
ATOM     55 O    GLN C 307       5.177  86.016  16.121  1.00 55.00 LIG-0.29  OA
ENDBRANCH 46 54
ENDBRANCH 43 46
ENDBRANCH 41 42
BRANCH 41 56
ATOM     56  CB  PHE C 306       6.292  92.161  14.746  1.00 20.53 LIG 0.07  C 
BRANCH 56 57
ATOM     57  CG  PHE C 306       7.160  93.307  14.458  1.00 20.37 LIG-0.06  A 
ATOM     58  CD2 PHE C 306       6.649  94.573  14.374  1.00 17.20 LIG 0.01  A 
ATOM     59  CE2 PHE C 306       7.473  95.666  14.150  1.00 19.90 LIG 0.00  A 
ATOM     60  CZ  PHE C 306       8.859  95.493  14.003  1.00 23.32 LIG 0.00  A 
ATOM     61  CE1 PHE C 306       9.383  94.200  14.085  1.00 27.54 LIG 0.00  A 
ATOM     62  CD1 PHE C 306       8.551  93.123  14.308  1.00 19.02 LIG 0.01  A 
ENDBRANCH 56 57
ENDBRANCH 41 56
ENDBRANCH 39 41
ENDBRANCH 1 37
BRANCH 1 63
ATOM     63  CB  TYR C 305       2.914  91.187   9.938  1.00 23.59 LIG 0.07  C 
BRANCH 63 64
ATOM     64  CG  TYR C 305       2.817  89.877  10.648  1.00 90.40 LIG-0.06  A 
ATOM     65  CD2 TYR C 305       3.320  88.728  10.062  1.00 31.11 LIG 0.01  A 
ATOM     66  CE2 TYR C 305       3.240  87.482  10.712  1.00 55.34 LIG 0.04  A 
ATOM     67  CZ  TYR C 305       2.646  87.409  11.967  1.00 93.94 LIG 0.07  A 
ATOM     68  CE1 TYR C 305       2.132  88.553  12.577  1.00 56.99 LIG 0.04  A 
ATOM     69  CD1 TYR C 305       2.219  89.779  11.917  1.00 51.39 LIG 0.01  A 
BRANCH 67 70
ATOM     70 OH   TYR C 305       2.562  86.198  12.610  1.00 93.94 LIG-0.36  OA
ATOM     71 HH   TYR C 305       2.137  86.291  13.329  1.00 93.94 LIG 0.22  HD
ENDBRANCH 67 70
ENDBRANCH 63 64
ENDBRANCH 1 63
TORSDOF 27
ENDMDL
MODEL 5
USER: ADFR SOLUTION from run 106
USER: SCORE 28.260873 LL:  -6.050 LR: -24.748 RR:   0.000 FEB: -16.694
USER: RMSD 2.828146
USER: SEED 105
USER: STATUS searching
USER: GENES 29
USER: genes 0 Translation |==|  0.38460 0.58805 0.56223
USER: genes 1 Rotation |==|  0.50490 0.47773 0.51990 0.99908
USER: genes 2 Torsion [CB]-CA--N-[C] |==|  0.29085
USER: genes 3 Torsion [N]-C--CA-[N] |==|  0.42223
USER: genes 4 Torsion [C]-CA--CB-[CG] |==|  0.34878
USER: genes 5 Torsion [CA]-CB--CG-[CD2] |==|  0.51761
USER: genes 6 Torsion [C]-CA--N-[C] |==|  0.63714
USER: genes 7 Torsion [N]-C--CA-[N] |==|  0.34546
USER: genes 8 Torsion [C]-CA--CB-[CG] |==|  0.84439
USER: genes 9 Torsion [CA]-CB--CG-[OD1] |==|  0.26471
USER: genes 10 Torsion [C]-CA--N-[C] |==|  0.82761
USER: genes 11 Torsion [N]-C--CA-[N] |==|  0.89277
USER: genes 12 Torsion [C]-CA--N-[C] |==|  0.82590
USER: genes 13 Torsion [C]-CA--CB-[CG] |==|  0.21221
USER: genes 14 Torsion [CA]-CB--CG-[CD] |==|  0.72561
USER: genes 15 Torsion [CB]-CG--CD-[OE1] |==|  0.58147
USER: genes 16 Torsion [N]-CA--C-[N] |==|  0.37360
USER: genes 17 Torsion [C]-N--CA-[CB] |==|  0.45000
USER: genes 18 Torsion [N]-CA--C-[N] |==|  0.41568
USER: genes 19 Torsion [C]-N--CA-[CB] |==|  0.30698
USER: genes 20 Torsion [N]-CA--CB-[CG] |==|  0.14031
USER: genes 21 Torsion [CA]-CB--CG-[CD] |==|  0.34693
USER: genes 22 Torsion [CB]-CG--CD-[NE2] |==|  0.80413
USER: genes 23 Torsion [N]-CA--C-[O] |==|  0.74425
USER: genes 24 Torsion [N]-CA--CB-[CG] |==|  0.81268
USER: genes 25 Torsion [CA]-CB--CG-[CD1] |==|  0.84403
USER: genes 26 Torsion [N]-CA--CB-[CG] |==|  0.25948
USER: genes 27 Torsion [CA]-CB--CG-[CD2] |==|  0.27417
USER: genes 28 Torsion [CE2]-CZ--OH-[HH] |==|  0.97860
ROOT
ATOM      1  CA  TYR C 305       4.477  92.272  10.567  1.00 17.70 LIG 0.18  C 
ENDROOT
BRANCH 1 2
ATOM      2  N   TYR C 305       5.343  92.016   9.432  1.00 18.26 LIG-0.35  N 
ATOM      3  C   LEU C 304       5.617  93.010   8.618  1.00 22.06 LIG 0.24  C 
ATOM      4 O    LEU C 304       5.114  94.102   8.753  1.00 19.49 LIG-0.27  OA
ATOM      5 H    TYR C 305       5.634  91.210   9.354  1.00 18.26 LIG 0.16  HD
BRANCH 3 6
ATOM      6  CA  LEU C 304       6.572  92.707   7.451  1.00 20.64 LIG 0.18  C 
BRANCH 6 7
ATOM      7  CB  LEU C 304       8.023  92.915   7.916  1.00 15.74 LIG 0.04  C 
BRANCH 7 8
ATOM      8  CG  LEU C 304       9.047  91.746   7.738  1.00 18.57 LIG-0.02  C 
ATOM      9  CD2 LEU C 304      10.341  92.097   8.388  1.00 21.94 LIG 0.01  C 
ATOM     10  CD1 LEU C 304       9.194  91.458   6.218  1.00 20.21 LIG 0.01  C 
ENDBRANCH 7 8
ENDBRANCH 6 7
BRANCH 6 11
ATOM     11  N   LEU C 304       6.282  93.588   6.339  1.00 19.38 LIG-0.35  N 
ATOM     12 H    LEU C 304       6.220  94.425   6.525  1.00 19.38 LIG 0.16  HD
ATOM     13  C   ASN C 303       6.136  93.049   5.141  1.00 24.27 LIG 0.24  C 
ATOM     14 O    ASN C 303       6.182  91.836   4.962  1.00 22.60 LIG-0.27  OA
BRANCH 13 15
ATOM     15  CA  ASN C 303       5.839  94.002   3.983  1.00 31.24 LIG 0.18  C 
BRANCH 15 16
ATOM     16  CB  ASN C 303       4.449  93.703   3.436  1.00 21.65 LIG 0.14  C 
BRANCH 16 17
ATOM     17  CG  ASN C 303       4.307  92.216   3.007  1.00 16.90 LIG 0.22  C 
ATOM     18 OD1  ASN C 303       3.824  91.365   3.781  1.00 28.96 LIG-0.27  OA
ATOM     19  ND2 ASN C 303       4.737  91.924   1.782  1.00 28.67 LIG-0.37  N 
ATOM     20 22HD ASN C 303       5.064  92.543   1.281  1.00 28.67 LIG 0.16  HD
ATOM     21 21HD ASN C 303       4.688  91.117   1.490  1.00 28.67 LIG 0.16  HD
ENDBRANCH 16 17
ENDBRANCH 15 16
BRANCH 15 22
ATOM     22  N   ASN C 303       6.845  93.814   2.940  1.00 31.60 LIG-0.35  N 
ATOM     23  C   GLU C 302       8.126  94.058   3.195  1.00 42.93 LIG 0.24  C 
ATOM     24 O    GLU C 302       8.516  94.511   4.301  1.00 23.80 LIG-0.27  OA
ATOM     25 H    ASN C 303       6.540  93.543   2.183  1.00 31.60 LIG 0.16  HD
BRANCH 23 26
ATOM     26  CA  GLU C 302       9.094  93.786   2.022  1.00 34.08 LIG 0.18  C 
BRANCH 26 27
ATOM     27  N   GLU C 302       8.728  92.613   1.282  1.00 23.23 LIG-0.35  N 
ATOM     28  C   ACE C 301       8.735  91.442   1.882  1.00 22.46 LIG 0.21  C 
ATOM     29 O    ACE C 301       9.046  91.316   3.055  1.00 29.32 LIG-0.27  OA
ATOM     30  CH3 ACE C 301       8.329  90.233   1.058  1.00 21.44 LIG 0.12  C 
ATOM     31 H    GLU C 302       8.517  92.747   0.459  1.00 23.23 LIG 0.16  HD
ENDBRANCH 26 27
BRANCH 26 32
ATOM     32  CB  GLU C 302       9.154  94.978   1.067  1.00 20.79 LIG 0.04  C 
BRANCH 32 33
ATOM     33  CG  GLU C 302      10.012  96.172   1.618  1.00 23.79 LIG 0.12  C 
BRANCH 33 34
ATOM     34  CD  GLU C 302       9.220  97.301   2.257  1.00 40.63 LIG 0.17  C 
ATOM     35 OE1  GLU C 302       9.638  98.472   2.241  1.00 32.87 LIG-0.65  OA
ATOM     36 OE2  GLU C 302       8.166  97.005   2.839  1.00 33.51 LIG-0.65  OA
ENDBRANCH 33 34
ENDBRANCH 32 33
ENDBRANCH 26 32
ENDBRANCH 23 26
ENDBRANCH 15 22
ENDBRANCH 13 15
ENDBRANCH 6 11
ENDBRANCH 3 6
ENDBRANCH 1 2
BRANCH 1 37
ATOM     37  C   TYR C 305       5.134  91.614  11.770  1.00 20.52 LIG 0.24  C 
ATOM     38 O    TYR C 305       5.599  90.476  11.675  1.00 23.93 LIG-0.27  OA
ATOM     39  N   PHE C 306       5.186  92.331  12.877  1.00 17.96 LIG-0.35  N 
ATOM     40 H    PHE C 306       4.894  93.135  12.965  1.00 17.96 LIG 0.16  HD
BRANCH 39 41
ATOM     41  CA  PHE C 306       5.802  91.720  14.102  1.00 18.04 LIG 0.18  C 
BRANCH 41 42
ATOM     42  C   PHE C 306       4.784  90.773  14.678  1.00 31.34 LIG 0.24  C 
ATOM     43  N   GLN C 307       5.260  89.713  15.326  1.00 26.23 LIG-0.35  N 
ATOM     44 H    GLN C 307       6.093  89.574  15.485  1.00 26.23 LIG 0.16  HD
ATOM     45 O    PHE C 306       3.585  90.984  14.540  1.00 30.18 LIG-0.27  OA
BRANCH 43 46
ATOM     46  CA  GLN C 307       4.354  88.679  15.830  1.00 27.99 LIG 0.16  C 
BRANCH 46 47
ATOM     47  CB  GLN C 307       4.581  87.426  14.992  1.00 36.24 LIG 0.04  C 
BRANCH 47 48
ATOM     48  CG  GLN C 307       6.012  87.018  14.867  1.00 42.27 LIG 0.10  C 
BRANCH 48 49
ATOM     49  CD  GLN C 307       6.204  85.580  15.317  1.00 30.08 LIG 0.21  C 
ATOM     50  NE2 GLN C 307       6.079  85.365  16.641  1.00 33.32 LIG-0.37  N 
ATOM     51 21HE GLN C 307       5.910  86.023  17.169  1.00 33.32 LIG 0.16  HD
ATOM     52 22HE GLN C 307       6.167  84.571  16.958  1.00 33.32 LIG 0.16  HD
ATOM     53 OE1  GLN C 307       6.450  84.669  14.491  1.00 31.63 LIG-0.27  OA
ENDBRANCH 48 49
ENDBRANCH 47 48
ENDBRANCH 46 47
BRANCH 46 54
ATOM     54  C   GLN C 307       4.390  88.350  17.315  1.00 39.25 LIG 0.22  C 
ATOM     55 O    GLN C 307       5.143  87.434  17.688  1.00 55.00 LIG-0.29  OA
ENDBRANCH 46 54
ENDBRANCH 43 46
ENDBRANCH 41 42
BRANCH 41 56
ATOM     56  CB  PHE C 306       6.177  92.791  15.117  1.00 20.53 LIG 0.07  C 
BRANCH 56 57
ATOM     57  CG  PHE C 306       7.268  93.662  14.670  1.00 20.37 LIG-0.06  A 
ATOM     58  CD2 PHE C 306       7.122  95.023  14.659  1.00 17.20 LIG 0.01  A 
ATOM     59  CE2 PHE C 306       8.168  95.854  14.283  1.00 19.90 LIG 0.00  A 
ATOM     60  CZ  PHE C 306       9.405  95.311  13.903  1.00 23.32 LIG 0.00  A 
ATOM     61  CE1 PHE C 306       9.556  93.922  13.910  1.00 27.54 LIG 0.00  A 
ATOM     62  CD1 PHE C 306       8.508  93.107  14.286  1.00 19.02 LIG 0.01  A 
ENDBRANCH 56 57
ENDBRANCH 41 56
ENDBRANCH 39 41
ENDBRANCH 1 37
BRANCH 1 63
ATOM     63  CB  TYR C 305       3.084  91.700  10.331  1.00 23.59 LIG 0.07  C 
BRANCH 63 64
ATOM     64  CG  TYR C 305       2.862  90.322  10.861  1.00 90.40 LIG-0.06  A 
ATOM     65  CD2 TYR C 305       2.227  90.136  12.077  1.00 31.11 LIG 0.01  A 
ATOM     66  CE2 TYR C 305       2.007  88.846  12.596  1.00 55.34 LIG 0.04  A 
ATOM     67  CZ  TYR C 305       2.435  87.741  11.869  1.00 93.94 LIG 0.07  A 
ATOM     68  CE1 TYR C 305       3.077  87.903  10.642  1.00 56.99 LIG 0.04  A 
ATOM     69  CD1 TYR C 305       3.288  89.190  10.144  1.00 51.39 LIG 0.01  A 
BRANCH 67 70
ATOM     70 OH   TYR C 305       2.226  86.477  12.366  1.00 93.94 LIG-0.36  OA
ATOM     71 HH   TYR C 305       1.931  86.530  13.151  1.00 93.94 LIG 0.22  HD
ENDBRANCH 67 70
ENDBRANCH 63 64
ENDBRANCH 1 63
TORSDOF 27
ENDMDL
MODEL 6
USER: ADFR SOLUTION from run 192
USER: SCORE 27.670435 LL:  -5.634 LR: -24.638 RR:   0.000 FEB: -16.584
USER: RMSD 3.635644
USER: SEED 191
USER: STATUS no improvement in best in 4 clusters for 5 generations
USER: GENES 29
USER: genes 0 Translation |==|  0.36477 0.58488 0.56209
USER: genes 1 Rotation |==|  0.57520 0.48435 0.60371 0.98306
USER: genes 2 Torsion [CB]-CA--N-[C] |==|  0.26455
USER: genes 3 Torsion [N]-C--CA-[N] |==|  0.05847
USER: genes 4 Torsion [C]-CA--CB-[CG] |==|  0.59309
USER: genes 5 Torsion [CA]-CB--CG-[CD2] |==|  0.59671
USER: genes 6 Torsion [C]-CA--N-[C] |==|  0.71130
USER: genes 7 Torsion [N]-C--CA-[N] |==|  0.22420
USER: genes 8 Torsion [C]-CA--CB-[CG] |==|  0.78586
USER: genes 9 Torsion [CA]-CB--CG-[OD1] |==|  0.74916
USER: genes 10 Torsion [C]-CA--N-[C] |==|  0.76950
USER: genes 11 Torsion [N]-C--CA-[N] |==|  0.84724
USER: genes 12 Torsion [C]-CA--N-[C] |==|  0.74676
USER: genes 13 Torsion [C]-CA--CB-[CG] |==|  0.31777
USER: genes 14 Torsion [CA]-CB--CG-[CD] |==|  0.74277
USER: genes 15 Torsion [CB]-CG--CD-[OE1] |==|  0.41143
USER: genes 16 Torsion [N]-CA--C-[N] |==|  0.31153
USER: genes 17 Torsion [C]-N--CA-[CB] |==|  0.47779
USER: genes 18 Torsion [N]-CA--C-[N] |==|  0.45796
USER: genes 19 Torsion [C]-N--CA-[CB] |==|  0.82148
USER: genes 20 Torsion [N]-CA--CB-[CG] |==|  0.83542
USER: genes 21 Torsion [CA]-CB--CG-[CD] |==|  0.74596
USER: genes 22 Torsion [CB]-CG--CD-[NE2] |==|  0.59821
USER: genes 23 Torsion [N]-CA--C-[O] |==|  0.16909
USER: genes 24 Torsion [N]-CA--CB-[CG] |==|  0.77635
USER: genes 25 Torsion [CA]-CB--CG-[CD1] |==|  0.82684
USER: genes 26 Torsion [N]-CA--CB-[CG] |==|  0.33441
USER: genes 27 Torsion [CA]-CB--CG-[CD2] |==|  0.74609
USER: genes 28 Torsion [CE2]-CZ--OH-[HH] |==|  0.50699
ROOT
ATOM      1  CA  TYR C 305       4.105  92.201  10.564  1.00 17.70 LIG 0.18  C 
ENDROOT
BRANCH 1 2
ATOM      2  N   TYR C 305       4.917  92.556   9.415  1.00 18.26 LIG-0.35  N 
ATOM      3  C   LEU C 304       4.647  93.675   8.782  1.00 22.06 LIG 0.24  C 
ATOM      4 O    LEU C 304       3.706  94.371   9.088  1.00 19.49 LIG-0.27  OA
ATOM      5 H    TYR C 305       5.542  92.002   9.209  1.00 18.26 LIG 0.16  HD
BRANCH 3 6
ATOM      6  CA  LEU C 304       5.557  94.036   7.594  1.00 20.64 LIG 0.18  C 
BRANCH 6 7
ATOM      7  CB  LEU C 304       4.705  94.656   6.475  1.00 15.74 LIG 0.04  C 
BRANCH 7 8
ATOM      8  CG  LEU C 304       5.111  94.396   4.987  1.00 18.57 LIG-0.02  C 
ATOM      9  CD2 LEU C 304       4.813  95.599   4.158  1.00 21.94 LIG 0.01  C 
ATOM     10  CD1 LEU C 304       4.362  93.125   4.496  1.00 20.21 LIG 0.01  C 
ENDBRANCH 7 8
ENDBRANCH 6 7
BRANCH 6 11
ATOM     11  N   LEU C 304       6.220  92.845   7.105  1.00 19.38 LIG-0.35  N 
ATOM     12 H    LEU C 304       5.739  92.310   6.635  1.00 19.38 LIG 0.16  HD
ATOM     13  C   ASN C 303       7.494  92.672   7.414  1.00 24.27 LIG 0.24  C 
ATOM     14 O    ASN C 303       8.100  93.453   8.141  1.00 22.60 LIG-0.27  OA
BRANCH 13 15
ATOM     15  CA  ASN C 303       8.172  91.412   6.878  1.00 31.24 LIG 0.18  C 
BRANCH 15 16
ATOM     16  CB  ASN C 303       9.402  91.109   7.725  1.00 21.65 LIG 0.14  C 
BRANCH 16 17
ATOM     17  CG  ASN C 303      10.591  92.043   7.367  1.00 16.90 LIG 0.22  C 
ATOM     18 OD1  ASN C 303      11.419  91.726   6.490  1.00 28.96 LIG-0.27  OA
ATOM     19  ND2 ASN C 303      10.661  93.180   8.056  1.00 28.67 LIG-0.37  N 
ATOM     20 22HD ASN C 303      10.067  93.359   8.653  1.00 28.67 LIG 0.16  HD
ATOM     21 21HD ASN C 303      11.299  93.736   7.905  1.00 28.67 LIG 0.16  HD
ENDBRANCH 16 17
ENDBRANCH 15 16
BRANCH 15 22
ATOM     22  N   ASN C 303       8.558  91.632   5.486  1.00 31.60 LIG-0.35  N 
ATOM     23  C   GLU C 302       7.670  91.464   4.512  1.00 42.93 LIG 0.24  C 
ATOM     24 O    GLU C 302       6.502  91.057   4.732  1.00 23.80 LIG-0.27  OA
ATOM     25 H    ASN C 303       9.376  91.869   5.367  1.00 31.60 LIG 0.16  HD
BRANCH 23 26
ATOM     26  CA  GLU C 302       8.190  91.764   3.089  1.00 34.08 LIG 0.18  C 
BRANCH 26 27
ATOM     27  N   GLU C 302       8.744  93.081   2.983  1.00 23.23 LIG-0.35  N 
ATOM     28  C   ACE C 301       7.970  94.082   2.623  1.00 22.46 LIG 0.21  C 
ATOM     29 O    ACE C 301       6.786  93.927   2.372  1.00 29.32 LIG-0.27  OA
ATOM     30  CH3 ACE C 301       8.601  95.460   2.537  1.00 21.44 LIG 0.12  C 
ATOM     31 H    GLU C 302       9.582  93.146   3.168  1.00 23.23 LIG 0.16  HD
ENDBRANCH 26 27
BRANCH 26 32
ATOM     32  CB  GLU C 302       9.246  90.744   2.660  1.00 20.79 LIG 0.04  C 
BRANCH 32 33
ATOM     33  CG  GLU C 302       8.788  89.845   1.456  1.00 23.79 LIG 0.12  C 
BRANCH 33 34
ATOM     34  CD  GLU C 302       8.130  88.530   1.840  1.00 40.63 LIG 0.17  C 
ATOM     35 OE1  GLU C 302       7.243  88.021   1.134  1.00 32.87 LIG-0.65  OA
ATOM     36 OE2  GLU C 302       8.473  88.008   2.912  1.00 33.51 LIG-0.65  OA
ENDBRANCH 33 34
ENDBRANCH 32 33
ENDBRANCH 26 32
ENDBRANCH 23 26
ENDBRANCH 15 22
ENDBRANCH 13 15
ENDBRANCH 6 11
ENDBRANCH 3 6
ENDBRANCH 1 2
BRANCH 1 37
ATOM     37  C   TYR C 305       5.036  91.529  11.560  1.00 20.52 LIG 0.24  C 
ATOM     38 O    TYR C 305       5.541  90.436  11.294  1.00 23.93 LIG-0.27  OA
ATOM     39  N   PHE C 306       5.272  92.185  12.681  1.00 17.96 LIG-0.35  N 
ATOM     40 H    PHE C 306       4.954  92.959  12.882  1.00 17.96 LIG 0.16  HD
BRANCH 39 41
ATOM     41  CA  PHE C 306       6.164  91.555  13.710  1.00 18.04 LIG 0.18  C 
BRANCH 41 42
ATOM     42  C   PHE C 306       5.439  90.348  14.239  1.00 31.34 LIG 0.24  C 
ATOM     43  N   GLN C 307       6.166  89.473  14.928  1.00 26.23 LIG-0.35  N 
ATOM     44 H    GLN C 307       6.993  89.584  15.136  1.00 26.23 LIG 0.16  HD
ATOM     45 O    PHE C 306       4.241  90.196  14.029  1.00 30.18 LIG-0.27  OA
BRANCH 43 46
ATOM     46  CA  GLN C 307       5.578  88.214  15.392  1.00 27.99 LIG 0.16  C 
BRANCH 46 47
ATOM     47  CB  GLN C 307       4.484  88.564  16.392  1.00 36.24 LIG 0.04  C 
BRANCH 47 48
ATOM     48  CG  GLN C 307       4.956  89.338  17.580  1.00 42.27 LIG 0.10  C 
BRANCH 48 49
ATOM     49  CD  GLN C 307       5.338  88.404  18.715  1.00 30.08 LIG 0.21  C 
ATOM     50  NE2 GLN C 307       5.066  88.855  19.954  1.00 33.32 LIG-0.37  N 
ATOM     51 21HE GLN C 307       4.707  89.629  20.061  1.00 33.32 LIG 0.16  HD
ATOM     52 22HE GLN C 307       5.250  88.369  20.639  1.00 33.32 LIG 0.16  HD
ATOM     53 OE1  GLN C 307       5.861  87.287  18.486  1.00 31.63 LIG-0.27  OA
ENDBRANCH 48 49
ENDBRANCH 47 48
ENDBRANCH 46 47
BRANCH 46 54
ATOM     54  C   GLN C 307       5.064  87.232  14.349  1.00 39.25 LIG 0.22  C 
ATOM     55 O    GLN C 307       5.881  86.777  13.530  1.00 55.00 LIG-0.29  OA
ENDBRANCH 46 54
ENDBRANCH 43 46
ENDBRANCH 41 42
BRANCH 41 56
ATOM     56  CB  PHE C 306       6.475  92.533  14.835  1.00 20.53 LIG 0.07  C 
BRANCH 56 57
ATOM     57  CG  PHE C 306       7.537  93.487  14.502  1.00 20.37 LIG-0.06  A 
ATOM     58  CD2 PHE C 306       7.297  94.834  14.502  1.00 17.20 LIG 0.01  A 
ATOM     59  CE2 PHE C 306       8.311  95.743  14.236  1.00 19.90 LIG 0.00  A 
ATOM     60  CZ  PHE C 306       9.612  95.296  13.958  1.00 23.32 LIG 0.00  A 
ATOM     61  CE1 PHE C 306       9.859  93.920  13.953  1.00 27.54 LIG 0.00  A 
ATOM     62  CD1 PHE C 306       8.841  93.028  14.220  1.00 19.02 LIG 0.01  A 
ENDBRANCH 56 57
ENDBRANCH 41 56
ENDBRANCH 39 41
ENDBRANCH 1 37
BRANCH 1 63
ATOM     63  CB  TYR C 305       2.973  91.263  10.163  1.00 23.59 LIG 0.07  C 
BRANCH 63 64
ATOM     64  CG  TYR C 305       2.973  89.935  10.846  1.00 90.40 LIG-0.06  A 
ATOM     65  CD2 TYR C 305       3.630  88.858  10.276  1.00 31.11 LIG 0.01  A 
ATOM     66  CE2 TYR C 305       3.643  87.597  10.901  1.00 55.34 LIG 0.04  A 
ATOM     67  CZ  TYR C 305       2.984  87.435  12.115  1.00 93.94 LIG 0.07  A 
ATOM     68  CE1 TYR C 305       2.316  88.505  12.708  1.00 56.99 LIG 0.04  A 
ATOM     69  CD1 TYR C 305       2.312  89.747  12.073  1.00 51.39 LIG 0.01  A 
BRANCH 67 70
ATOM     70 OH   TYR C 305       2.990  86.208  12.734  1.00 93.94 LIG-0.36  OA
ATOM     71 HH   TYR C 305       2.529  86.245  13.435  1.00 93.94 LIG 0.22  HD
ENDBRANCH 67 70
ENDBRANCH 63 64
ENDBRANCH 1 63
TORSDOF 27
ENDMDL
MODEL 7
USER: ADFR SOLUTION from run 192
USER: SCORE 27.610246 LL:  -5.366 LR: -24.575 RR:   0.000 FEB: -16.521
USER: RMSD 4.120236
USER: SEED 191
USER: STATUS no improvement in best in 4 clusters for 5 generations
USER: GENES 29
USER: genes 0 Translation |==|  0.37125 0.58831 0.56578
USER: genes 1 Rotation |==|  0.55661 0.50226 0.55441 0.99379
USER: genes 2 Torsion [CB]-CA--N-[C] |==|  0.26057
USER: genes 3 Torsion [N]-C--CA-[N] |==|  0.00870
USER: genes 4 Torsion [C]-CA--CB-[CG] |==|  0.46483
USER: genes 5 Torsion [CA]-CB--CG-[CD2] |==|  0.70119
USER: genes 6 Torsion [C]-CA--N-[C] |==|  0.59523
USER: genes 7 Torsion [N]-C--CA-[N] |==|  0.36932
USER: genes 8 Torsion [C]-CA--CB-[CG] |==|  0.81703
USER: genes 9 Torsion [CA]-CB--CG-[OD1] |==|  0.71482
USER: genes 10 Torsion [C]-CA--N-[C] |==|  0.82264
USER: genes 11 Torsion [N]-C--CA-[N] |==|  0.42191
USER: genes 12 Torsion [C]-CA--N-[C] |==|  0.80231
USER: genes 13 Torsion [C]-CA--CB-[CG] |==|  0.94980
USER: genes 14 Torsion [CA]-CB--CG-[CD] |==|  0.48702
USER: genes 15 Torsion [CB]-CG--CD-[OE1] |==|  0.51972
USER: genes 16 Torsion [N]-CA--C-[N] |==|  0.33150
USER: genes 17 Torsion [C]-N--CA-[CB] |==|  0.48898
USER: genes 18 Torsion [N]-CA--C-[N] |==|  0.46111
USER: genes 19 Torsion [C]-N--CA-[CB] |==|  0.81360
USER: genes 20 Torsion [N]-CA--CB-[CG] |==|  0.85069
USER: genes 21 Torsion [CA]-CB--CG-[CD] |==|  0.73960
USER: genes 22 Torsion [CB]-CG--CD-[NE2] |==|  0.61118
USER: genes 23 Torsion [N]-CA--C-[O] |==|  0.10618
USER: genes 24 Torsion [N]-CA--CB-[CG] |==|  0.80202
USER: genes 25 Torsion [CA]-CB--CG-[CD1] |==|  0.81495
USER: genes 26 Torsion [N]-CA--CB-[CG] |==|  0.29810
USER: genes 27 Torsion [CA]-CB--CG-[CD2] |==|  0.76731
USER: genes 28 Torsion [CE2]-CZ--OH-[HH] |==|  0.54327
ROOT
ATOM      1  CA  TYR C 305       4.227  92.278  10.655  1.00 17.70 LIG 0.18  C 
ENDROOT
BRANCH 1 2
ATOM      2  N   TYR C 305       4.980  92.379   9.419  1.00 18.26 LIG-0.35  N 
ATOM      3  C   LEU C 304       4.844  93.463   8.691  1.00 22.06 LIG 0.24  C 
ATOM      4 O    LEU C 304       4.062  94.337   8.988  1.00 19.49 LIG-0.27  OA
ATOM      5 H    TYR C 305       5.484  91.708   9.230  1.00 18.26 LIG 0.16  HD
BRANCH 3 6
ATOM      6  CA  LEU C 304       5.692  93.549   7.410  1.00 20.64 LIG 0.18  C 
BRANCH 6 7
ATOM      7  CB  LEU C 304       4.764  93.767   6.203  1.00 15.74 LIG 0.04  C 
BRANCH 7 8
ATOM      8  CG  LEU C 304       5.394  94.184   4.834  1.00 18.57 LIG-0.02  C 
ATOM      9  CD2 LEU C 304       5.086  95.613   4.544  1.00 21.94 LIG 0.01  C 
ATOM     10  CD1 LEU C 304       4.858  93.218   3.741  1.00 20.21 LIG 0.01  C 
ENDBRANCH 7 8
ENDBRANCH 6 7
BRANCH 6 11
ATOM     11  N   LEU C 304       6.443  92.322   7.237  1.00 19.38 LIG-0.35  N 
ATOM     12 H    LEU C 304       6.056  91.601   7.499  1.00 19.38 LIG 0.16  HD
ATOM     13  C   ASN C 303       7.646  92.403   6.696  1.00 24.27 LIG 0.24  C 
ATOM     14 O    ASN C 303       8.157  93.478   6.398  1.00 22.60 LIG-0.27  OA
BRANCH 13 15
ATOM     15  CA  ASN C 303       8.414  91.093   6.516  1.00 31.24 LIG 0.18  C 
BRANCH 15 16
ATOM     16  CB  ASN C 303       9.532  91.025   7.550  1.00 21.65 LIG 0.14  C 
BRANCH 16 17
ATOM     17  CG  ASN C 303      10.607  92.120   7.307  1.00 16.90 LIG 0.22  C 
ATOM     18 OD1  ASN C 303      11.701  91.843   6.777  1.00 28.96 LIG-0.27  OA
ATOM     19  ND2 ASN C 303      10.281  93.348   7.705  1.00 28.67 LIG-0.37  N 
ATOM     20 22HD ASN C 303       9.514  93.495   8.066  1.00 28.67 LIG 0.16  HD
ATOM     21 21HD ASN C 303      10.837  93.996   7.601  1.00 28.67 LIG 0.16  HD
ENDBRANCH 16 17
ENDBRANCH 15 16
BRANCH 15 22
ATOM     22  N   ASN C 303       8.970  91.047   5.165  1.00 31.60 LIG-0.35  N 
ATOM     23  C   GLU C 302       8.161  91.022   4.111  1.00 42.93 LIG 0.24  C 
ATOM     24 O    GLU C 302       6.911  90.974   4.225  1.00 23.80 LIG-0.27  OA
ATOM     25 H    ASN C 303       9.829  91.039   5.124  1.00 31.60 LIG 0.16  HD
BRANCH 23 26
ATOM     26  CA  GLU C 302       8.871  91.012   2.739  1.00 34.08 LIG 0.18  C 
BRANCH 26 27
ATOM     27  N   GLU C 302       8.087  90.361   1.731  1.00 23.23 LIG-0.35  N 
ATOM     28  C   ACE C 301       7.934  89.055   1.773  1.00 22.46 LIG 0.21  C 
ATOM     29 O    ACE C 301       8.441  88.371   2.646  1.00 29.32 LIG-0.27  OA
ATOM     30  CH3 ACE C 301       7.085  88.415   0.689  1.00 21.44 LIG 0.12  C 
ATOM     31 H    GLU C 302       7.749  90.880   1.134  1.00 23.23 LIG 0.16  HD
ENDBRANCH 26 27
BRANCH 26 32
ATOM     32  CB  GLU C 302       9.199  92.431   2.275  1.00 20.79 LIG 0.04  C 
BRANCH 32 33
ATOM     33  CG  GLU C 302       8.374  93.536   3.027  1.00 23.79 LIG 0.12  C 
BRANCH 33 34
ATOM     34  CD  GLU C 302       8.742  94.970   2.681  1.00 40.63 LIG 0.17  C 
ATOM     35 OE1  GLU C 302       8.254  95.930   3.302  1.00 32.87 LIG-0.65  OA
ATOM     36 OE2  GLU C 302       9.509  95.150   1.723  1.00 33.51 LIG-0.65  OA
ENDBRANCH 33 34
ENDBRANCH 32 33
ENDBRANCH 26 32
ENDBRANCH 23 26
ENDBRANCH 15 22
ENDBRANCH 13 15
ENDBRANCH 6 11
ENDBRANCH 3 6
ENDBRANCH 1 2
BRANCH 1 37
ATOM     37  C   TYR C 305       5.104  91.519  11.637  1.00 20.52 LIG 0.24  C 
ATOM     38 O    TYR C 305       5.479  90.374  11.373  1.00 23.93 LIG-0.27  OA
ATOM     39  N   PHE C 306       5.440  92.157  12.742  1.00 17.96 LIG-0.35  N 
ATOM     40 H    PHE C 306       5.215  92.964  12.941  1.00 17.96 LIG 0.16  HD
BRANCH 39 41
ATOM     41  CA  PHE C 306       6.285  91.444  13.758  1.00 18.04 LIG 0.18  C 
BRANCH 41 42
ATOM     42  C   PHE C 306       5.483  90.270  14.248  1.00 31.34 LIG 0.24  C 
ATOM     43  N   GLN C 307       6.146  89.344  14.935  1.00 26.23 LIG-0.35  N 
ATOM     44 H    GLN C 307       6.973  89.406  15.163  1.00 26.23 LIG 0.16  HD
ATOM     45 O    PHE C 306       4.283  90.188  14.010  1.00 30.18 LIG-0.27  OA
BRANCH 43 46
ATOM     46  CA  GLN C 307       5.479  88.112  15.363  1.00 27.99 LIG 0.16  C 
BRANCH 46 47
ATOM     47  CB  GLN C 307       4.432  88.497  16.400  1.00 36.24 LIG 0.04  C 
BRANCH 47 48
ATOM     48  CG  GLN C 307       4.960  89.300  17.544  1.00 42.27 LIG 0.10  C 
BRANCH 48 49
ATOM     49  CD  GLN C 307       5.334  88.399  18.708  1.00 30.08 LIG 0.21  C 
ATOM     50  NE2 GLN C 307       5.018  88.869  19.930  1.00 33.32 LIG-0.37  N 
ATOM     51 21HE GLN C 307       4.638  89.636  20.010  1.00 33.32 LIG 0.16  HD
ATOM     52 22HE GLN C 307       5.196  88.402  20.630  1.00 33.32 LIG 0.16  HD
ATOM     53 OE1  GLN C 307       5.890  87.291  18.517  1.00 31.63 LIG-0.27  OA
ENDBRANCH 48 49
ENDBRANCH 47 48
ENDBRANCH 46 47
BRANCH 46 54
ATOM     54  C   GLN C 307       4.877  87.210  14.295  1.00 39.25 LIG 0.22  C 
ATOM     55 O    GLN C 307       5.501  87.081  13.228  1.00 55.00 LIG-0.29  OA
ENDBRANCH 46 54
ENDBRANCH 43 46
ENDBRANCH 41 42
BRANCH 41 56
ATOM     56  CB  PHE C 306       6.648  92.369  14.912  1.00 20.53 LIG 0.07  C 
BRANCH 56 57
ATOM     57  CG  PHE C 306       7.619  93.405  14.546  1.00 20.37 LIG-0.06  A 
ATOM     58  CD2 PHE C 306       7.277  94.730  14.575  1.00 17.20 LIG 0.01  A 
ATOM     59  CE2 PHE C 306       8.205  95.717  14.277  1.00 19.90 LIG 0.00  A 
ATOM     60  CZ  PHE C 306       9.522  95.374  13.936  1.00 23.32 LIG 0.00  A 
ATOM     61  CE1 PHE C 306       9.873  94.022  13.902  1.00 27.54 LIG 0.00  A 
ATOM     62  CD1 PHE C 306       8.940  93.051  14.201  1.00 19.02 LIG 0.01  A 
ENDBRANCH 56 57
ENDBRANCH 41 56
ENDBRANCH 39 41
ENDBRANCH 1 37
BRANCH 1 63
ATOM     63  CB  TYR C 305       2.908  91.548  10.432  1.00 23.59 LIG 0.07  C 
BRANCH 63 64
ATOM     64  CG  TYR C 305       2.842  90.164  10.988  1.00 90.40 LIG-0.06  A 
ATOM     65  CD2 TYR C 305       3.346  89.097  10.264  1.00 31.11 LIG 0.01  A 
ATOM     66  CE2 TYR C 305       3.295  87.784  10.768  1.00 55.34 LIG 0.04  A 
ATOM     67  CZ  TYR C 305       2.730  87.559  12.018  1.00 93.94 LIG 0.07  A 
ATOM     68  CE1 TYR C 305       2.216  88.617  12.766  1.00 56.99 LIG 0.04  A 
ATOM     69  CD1 TYR C 305       2.273  89.912  12.249  1.00 51.39 LIG 0.01  A 
BRANCH 67 70
ATOM     70 OH   TYR C 305       2.674  86.280  12.520  1.00 93.94 LIG-0.36  OA
ATOM     71 HH   TYR C 305       2.133  86.254  13.161  1.00 93.94 LIG 0.22  HD
ENDBRANCH 67 70
ENDBRANCH 63 64
ENDBRANCH 1 63
TORSDOF 27
ENDMDL
MODEL 8
USER: ADFR SOLUTION from run 192
USER: SCORE 28.520811 LL:  -6.387 LR: -24.551 RR:   0.000 FEB: -16.497
USER: RMSD 3.770808
USER: SEED 191
USER: STATUS no improvement in best in 4 clusters for 5 generations
USER: GENES 29
USER: genes 0 Translation |==|  0.37055 0.58626 0.56370
USER: genes 1 Rotation |==|  0.56949 0.49988 0.55330 0.99227
USER: genes 2 Torsion [CB]-CA--N-[C] |==|  0.25788
USER: genes 3 Torsion [N]-C--CA-[N] |==|  0.01604
USER: genes 4 Torsion [C]-CA--CB-[CG] |==|  0.52597
USER: genes 5 Torsion [CA]-CB--CG-[CD2] |==|  0.68883
USER: genes 6 Torsion [C]-CA--N-[C] |==|  0.62419
USER: genes 7 Torsion [N]-C--CA-[N] |==|  0.33548
USER: genes 8 Torsion [C]-CA--CB-[CG] |==|  0.81047
USER: genes 9 Torsion [CA]-CB--CG-[OD1] |==|  0.73038
USER: genes 10 Torsion [C]-CA--N-[C] |==|  0.81387
USER: genes 11 Torsion [N]-C--CA-[N] |==|  0.40283
USER: genes 12 Torsion [C]-CA--N-[C] |==|  0.81680
USER: genes 13 Torsion [C]-CA--CB-[CG] |==|  0.02319
USER: genes 14 Torsion [CA]-CB--CG-[CD] |==|  0.46307
USER: genes 15 Torsion [CB]-CG--CD-[OE1] |==|  0.38594
USER: genes 16 Torsion [N]-CA--C-[N] |==|  0.33793
USER: genes 17 Torsion [C]-N--CA-[CB] |==|  0.49107
USER: genes 18 Torsion [N]-CA--C-[N] |==|  0.38632
USER: genes 19 Torsion [C]-N--CA-[CB] |==|  0.39757
USER: genes 20 Torsion [N]-CA--CB-[CG] |==|  0.70188
USER: genes 21 Torsion [CA]-CB--CG-[CD] |==|  0.65007
USER: genes 22 Torsion [CB]-CG--CD-[NE2] |==|  0.09795
USER: genes 23 Torsion [N]-CA--C-[O] |==|  0.55941
USER: genes 24 Torsion [N]-CA--CB-[CG] |==|  0.84895
USER: genes 25 Torsion [CA]-CB--CG-[CD1] |==|  0.77539
USER: genes 26 Torsion [N]-CA--CB-[CG] |==|  0.30729
USER: genes 27 Torsion [CA]-CB--CG-[CD2] |==|  0.75368
USER: genes 28 Torsion [CE2]-CZ--OH-[HH] |==|  0.51150
ROOT
ATOM      1  CA  TYR C 305       4.214  92.232  10.604  1.00 17.70 LIG 0.18  C 
ENDROOT
BRANCH 1 2
ATOM      2  N   TYR C 305       4.972  92.393   9.377  1.00 18.26 LIG-0.35  N 
ATOM      3  C   LEU C 304       4.829  93.508   8.697  1.00 22.06 LIG 0.24  C 
ATOM      4 O    LEU C 304       4.037  94.361   9.028  1.00 19.49 LIG-0.27  OA
ATOM      5 H    TYR C 305       5.483  91.736   9.161  1.00 18.26 LIG 0.16  HD
BRANCH 3 6
ATOM      6  CA  LEU C 304       5.682  93.657   7.425  1.00 20.64 LIG 0.18  C 
BRANCH 6 7
ATOM      7  CB  LEU C 304       4.764  93.985   6.236  1.00 15.74 LIG 0.04  C 
BRANCH 7 8
ATOM      8  CG  LEU C 304       5.364  93.967   4.792  1.00 18.57 LIG-0.02  C 
ATOM      9  CD2 LEU C 304       5.397  95.349   4.235  1.00 21.94 LIG 0.01  C 
ATOM     10  CD1 LEU C 304       4.519  92.989   3.929  1.00 20.21 LIG 0.01  C 
ENDBRANCH 7 8
ENDBRANCH 6 7
BRANCH 6 11
ATOM     11  N   LEU C 304       6.397  92.424   7.167  1.00 19.38 LIG-0.35  N 
ATOM     12 H    LEU C 304       5.944  91.699   7.247  1.00 19.38 LIG 0.16  HD
ATOM     13  C   ASN C 303       7.674  92.506   6.834  1.00 24.27 LIG 0.24  C 
ATOM     14 O    ASN C 303       8.271  93.577   6.797  1.00 22.60 LIG-0.27  OA
BRANCH 13 15
ATOM     15  CA  ASN C 303       8.404  91.191   6.559  1.00 31.24 LIG 0.18  C 
BRANCH 15 16
ATOM     16  CB  ASN C 303       9.546  91.037   7.556  1.00 21.65 LIG 0.14  C 
BRANCH 16 17
ATOM     17  CG  ASN C 303      10.669  92.082   7.309  1.00 16.90 LIG 0.22  C 
ATOM     18 OD1  ASN C 303      11.687  91.791   6.649  1.00 28.96 LIG-0.27  OA
ATOM     19  ND2 ASN C 303      10.470  93.283   7.849  1.00 28.67 LIG-0.37  N 
ATOM     20 22HD ASN C 303       9.753  93.440   8.297  1.00 28.67 LIG 0.16  HD
ATOM     21 21HD ASN C 303      11.059  93.901   7.750  1.00 28.67 LIG 0.16  HD
ENDBRANCH 16 17
ENDBRANCH 15 16
BRANCH 15 22
ATOM     22  N   ASN C 303       8.923  91.210   5.193  1.00 31.60 LIG-0.35  N 
ATOM     23  C   GLU C 302       8.086  91.201   4.160  1.00 42.93 LIG 0.24  C 
ATOM     24 O    GLU C 302       6.841  91.114   4.306  1.00 23.80 LIG-0.27  OA
ATOM     25 H    ASN C 303       9.780  91.227   5.128  1.00 31.60 LIG 0.16  HD
BRANCH 23 26
ATOM     26  CA  GLU C 302       8.757  91.260   2.770  1.00 34.08 LIG 0.18  C 
BRANCH 26 27
ATOM     27  N   GLU C 302       8.043  90.493   1.793  1.00 23.23 LIG-0.35  N 
ATOM     28  C   ACE C 301       7.981  89.184   1.917  1.00 22.46 LIG 0.21  C 
ATOM     29 O    ACE C 301       8.516  88.595   2.842  1.00 29.32 LIG-0.27  OA
ATOM     30  CH3 ACE C 301       7.203  88.417   0.862  1.00 21.44 LIG 0.12  C 
ATOM     31 H    GLU C 302       7.683  90.947   1.158  1.00 23.23 LIG 0.16  HD
ENDBRANCH 26 27
BRANCH 26 32
ATOM     32  CB  GLU C 302       8.881  92.702   2.277  1.00 20.79 LIG 0.04  C 
BRANCH 32 33
ATOM     33  CG  GLU C 302       8.499  93.767   3.367  1.00 23.79 LIG 0.12  C 
BRANCH 33 34
ATOM     34  CD  GLU C 302       8.899  95.197   3.046  1.00 40.63 LIG 0.17  C 
ATOM     35 OE1  GLU C 302       8.139  96.150   3.290  1.00 32.87 LIG-0.65  OA
ATOM     36 OE2  GLU C 302       9.990  95.376   2.485  1.00 33.51 LIG-0.65  OA
ENDBRANCH 33 34
ENDBRANCH 32 33
ENDBRANCH 26 32
ENDBRANCH 23 26
ENDBRANCH 15 22
ENDBRANCH 13 15
ENDBRANCH 6 11
ENDBRANCH 3 6
ENDBRANCH 1 2
BRANCH 1 37
ATOM     37  C   TYR C 305       5.084  91.417  11.547  1.00 20.52 LIG 0.24  C 
ATOM     38 O    TYR C 305       5.490  90.304  11.207  1.00 23.93 LIG-0.27  OA
ATOM     39  N   PHE C 306       5.380  91.977  12.705  1.00 17.96 LIG-0.35  N 
ATOM     40 H    PHE C 306       5.133  92.761  12.958  1.00 17.96 LIG 0.16  HD
BRANCH 39 41
ATOM     41  CA  PHE C 306       6.216  91.205  13.685  1.00 18.04 LIG 0.18  C 
BRANCH 41 42
ATOM     42  C   PHE C 306       5.436  89.972  14.051  1.00 31.34 LIG 0.24  C 
ATOM     43  N   GLN C 307       6.128  88.841  14.152  1.00 26.23 LIG-0.35  N 
ATOM     44 H    GLN C 307       6.984  88.786  14.084  1.00 26.23 LIG 0.16  HD
ATOM     45 O    PHE C 306       4.226  90.029  14.235  1.00 30.18 LIG-0.27  OA
BRANCH 43 46
ATOM     46  CA  GLN C 307       5.446  87.568  14.398  1.00 27.99 LIG 0.16  C 
BRANCH 46 47
ATOM     47  CB  GLN C 307       6.180  86.496  13.603  1.00 36.24 LIG 0.04  C 
BRANCH 47 48
ATOM     48  CG  GLN C 307       5.441  86.002  12.402  1.00 42.27 LIG 0.10  C 
BRANCH 48 49
ATOM     49  CD  GLN C 307       5.307  84.490  12.436  1.00 30.08 LIG 0.21  C 
ATOM     50  NE2 GLN C 307       5.141  83.949  13.659  1.00 33.32 LIG-0.37  N 
ATOM     51 21HE GLN C 307       5.126  84.455  14.354  1.00 33.32 LIG 0.16  HD
ATOM     52 22HE GLN C 307       5.050  83.099  13.744  1.00 33.32 LIG 0.16  HD
ATOM     53 OE1  GLN C 307       5.339  83.813  11.381  1.00 31.63 LIG-0.27  OA
ENDBRANCH 48 49
ENDBRANCH 47 48
ENDBRANCH 46 47
BRANCH 46 54
ATOM     54  C   GLN C 307       5.241  87.127  15.841  1.00 39.25 LIG 0.22  C 
ATOM     55 O    GLN C 307       5.049  85.918  16.054  1.00 55.00 LIG-0.29  OA
ENDBRANCH 46 54
ENDBRANCH 43 46
ENDBRANCH 41 42
BRANCH 41 56
ATOM     56  CB  PHE C 306       6.517  92.040  14.922  1.00 20.53 LIG 0.07  C 
BRANCH 56 57
ATOM     57  CG  PHE C 306       7.133  93.335  14.617  1.00 20.37 LIG-0.06  A 
ATOM     58  CD2 PHE C 306       6.391  94.486  14.626  1.00 17.20 LIG 0.01  A 
ATOM     59  CE2 PHE C 306       6.979  95.719  14.387  1.00 19.90 LIG 0.00  A 
ATOM     60  CZ  PHE C 306       8.355  95.813  14.126  1.00 23.32 LIG 0.00  A 
ATOM     61  CE1 PHE C 306       9.113  94.639  14.112  1.00 27.54 LIG 0.00  A 
ATOM     62  CD1 PHE C 306       8.516  93.419  14.353  1.00 19.02 LIG 0.01  A 
ENDBRANCH 56 57
ENDBRANCH 41 56
ENDBRANCH 39 41
ENDBRANCH 1 37
BRANCH 1 63
ATOM     63  CB  TYR C 305       2.892  91.521  10.338  1.00 23.59 LIG 0.07  C 
BRANCH 63 64
ATOM     64  CG  TYR C 305       2.790  90.137  10.889  1.00 90.40 LIG-0.06  A 
ATOM     65  CD2 TYR C 305       3.208  89.055  10.134  1.00 31.11 LIG 0.01  A 
ATOM     66  CE2 TYR C 305       3.121  87.741  10.632  1.00 55.34 LIG 0.04  A 
ATOM     67  CZ  TYR C 305       2.607  87.531  11.906  1.00 93.94 LIG 0.07  A 
ATOM     68  CE1 TYR C 305       2.179  88.606  12.685  1.00 56.99 LIG 0.04  A 
ATOM     69  CD1 TYR C 305       2.272  89.901  12.174  1.00 51.39 LIG 0.01  A 
BRANCH 67 70
ATOM     70 OH   TYR C 305       2.517  86.253  12.402  1.00 93.94 LIG-0.36  OA
ATOM     71 HH   TYR C 305       2.140  86.269  13.152  1.00 93.94 LIG 0.22  HD
ENDBRANCH 67 70
ENDBRANCH 63 64
ENDBRANCH 1 63
TORSDOF 27
ENDMDL
MODEL 9
USER: ADFR SOLUTION from run 87
USER: SCORE 27.549193 LL:  -5.493 LR: -24.525 RR:   0.000 FEB: -16.471
USER: RMSD 3.090264
USER: SEED 86
USER: STATUS no improvement in best in 5 clusters for 5 generations
USER: GENES 29
USER: genes 0 Translation |==|  0.39487 0.59552 0.55884
USER: genes 1 Rotation |==|  0.50886 0.49739 0.50633 0.99987
USER: genes 2 Torsion [CB]-CA--N-[C] |==|  0.27075
USER: genes 3 Torsion [N]-C--CA-[N] |==|  0.42916
USER: genes 4 Torsion [C]-CA--CB-[CG] |==|  0.27794
USER: genes 5 Torsion [CA]-CB--CG-[CD2] |==|  0.47068
USER: genes 6 Torsion [C]-CA--N-[C] |==|  0.72122
USER: genes 7 Torsion [N]-C--CA-[N] |==|  0.51649
USER: genes 8 Torsion [C]-CA--CB-[CG] |==|  0.34580
USER: genes 9 Torsion [CA]-CB--CG-[OD1] |==|  0.34839
USER: genes 10 Torsion [C]-CA--N-[C] |==|  0.57184
USER: genes 11 Torsion [N]-C--CA-[N] |==|  0.38415
USER: genes 12 Torsion [C]-CA--N-[C] |==|  0.80928
USER: genes 13 Torsion [C]-CA--CB-[CG] |==|  0.16018
USER: genes 14 Torsion [CA]-CB--CG-[CD] |==|  0.15810
USER: genes 15 Torsion [CB]-CG--CD-[OE1] |==|  0.25715
USER: genes 16 Torsion [N]-CA--C-[N] |==|  0.37529
USER: genes 17 Torsion [C]-N--CA-[CB] |==|  0.48372
USER: genes 18 Torsion [N]-CA--C-[N] |==|  0.38333
USER: genes 19 Torsion [C]-N--CA-[CB] |==|  0.43463
USER: genes 20 Torsion [N]-CA--CB-[CG] |==|  0.49909
USER: genes 21 Torsion [CA]-CB--CG-[CD] |==|  0.25170
USER: genes 22 Torsion [CB]-CG--CD-[NE2] |==|  0.68125
USER: genes 23 Torsion [N]-CA--C-[O] |==|  0.73581
USER: genes 24 Torsion [N]-CA--CB-[CG] |==|  0.82135
USER: genes 25 Torsion [CA]-CB--CG-[CD1] |==|  0.81638
USER: genes 26 Torsion [N]-CA--CB-[CG] |==|  0.25570
USER: genes 27 Torsion [CA]-CB--CG-[CD2] |==|  0.27939
USER: genes 28 Torsion [CE2]-CZ--OH-[HH] |==|  0.98426
ROOT
ATOM      1  CA  TYR C 305       4.670  92.440  10.483  1.00 17.70 LIG 0.18  C 
ENDROOT
BRANCH 1 2
ATOM      2  N   TYR C 305       5.428  92.159   9.279  1.00 18.26 LIG-0.35  N 
ATOM      3  C   LEU C 304       5.566  93.115   8.390  1.00 22.06 LIG 0.24  C 
ATOM      4 O    LEU C 304       5.023  94.189   8.518  1.00 19.49 LIG-0.27  OA
ATOM      5 H    TYR C 305       5.752  91.364   9.214  1.00 18.26 LIG 0.16  HD
BRANCH 3 6
ATOM      6  CA  LEU C 304       6.412  92.789   7.147  1.00 20.64 LIG 0.18  C 
BRANCH 6 7
ATOM      7  CB  LEU C 304       7.897  93.031   7.467  1.00 15.74 LIG 0.04  C 
BRANCH 7 8
ATOM      8  CG  LEU C 304       8.802  91.805   7.817  1.00 18.57 LIG-0.02  C 
ATOM      9  CD2 LEU C 304      10.234  92.217   7.841  1.00 21.94 LIG 0.01  C 
ATOM     10  CD1 LEU C 304       8.515  90.680   6.784  1.00 20.21 LIG 0.01  C 
ENDBRANCH 7 8
ENDBRANCH 6 7
BRANCH 6 11
ATOM     11  N   LEU C 304       6.004  93.632   6.042  1.00 19.38 LIG-0.35  N 
ATOM     12 H    LEU C 304       6.312  94.434   6.043  1.00 19.38 LIG 0.16  HD
ATOM     13  C   ASN C 303       5.203  93.112   5.128  1.00 24.27 LIG 0.24  C 
ATOM     14 O    ASN C 303       4.757  91.973   5.224  1.00 22.60 LIG-0.27  OA
BRANCH 13 15
ATOM     15  CA  ASN C 303       4.794  94.019   3.968  1.00 31.24 LIG 0.18  C 
BRANCH 15 16
ATOM     16  CB  ASN C 303       4.206  95.310   4.527  1.00 21.65 LIG 0.14  C 
BRANCH 16 17
ATOM     17  CG  ASN C 303       4.946  96.562   3.981  1.00 16.90 LIG 0.22  C 
ATOM     18 OD1  ASN C 303       4.323  97.484   3.417  1.00 28.96 LIG-0.27  OA
ATOM     19  ND2 ASN C 303       6.266  96.574   4.152  1.00 28.67 LIG-0.37  N 
ATOM     20 22HD ASN C 303       6.655  95.916   4.547  1.00 28.67 LIG 0.16  HD
ATOM     21 21HD ASN C 303       6.730  97.239   3.866  1.00 28.67 LIG 0.16  HD
ENDBRANCH 16 17
ENDBRANCH 15 16
BRANCH 15 22
ATOM     22  N   ASN C 303       3.805  93.327   3.145  1.00 31.60 LIG-0.35  N 
ATOM     23  C   GLU C 302       3.671  93.637   1.859  1.00 42.93 LIG 0.24  C 
ATOM     24 O    GLU C 302       4.329  94.561   1.319  1.00 23.80 LIG-0.27  OA
ATOM     25 H    ASN C 303       3.343  92.730   3.555  1.00 31.60 LIG 0.16  HD
BRANCH 23 26
ATOM     26  CA  GLU C 302       2.618  92.808   1.090  1.00 34.08 LIG 0.18  C 
BRANCH 26 27
ATOM     27  N   GLU C 302       1.838  93.619   0.202  1.00 23.23 LIG-0.35  N 
ATOM     28  C   ACE C 301       0.993  94.495   0.700  1.00 22.46 LIG 0.21  C 
ATOM     29 O    ACE C 301       0.847  94.645   1.902  1.00 29.32 LIG-0.27  OA
ATOM     30  CH3 ACE C 301       0.198  95.338  -0.282  1.00 21.44 LIG 0.12  C 
ATOM     31 H    GLU C 302       1.971  93.481  -0.637  1.00 23.23 LIG 0.16  HD
ENDBRANCH 26 27
BRANCH 26 32
ATOM     32  CB  GLU C 302       3.276  91.684   0.290  1.00 20.79 LIG 0.04  C 
BRANCH 32 33
ATOM     33  CG  GLU C 302       4.125  90.704   1.176  1.00 23.79 LIG 0.12  C 
BRANCH 33 34
ATOM     34  CD  GLU C 302       3.370  90.038   2.315  1.00 40.63 LIG 0.17  C 
ATOM     35 OE1  GLU C 302       2.830  88.928   2.170  1.00 32.87 LIG-0.65  OA
ATOM     36 OE2  GLU C 302       3.267  90.666   3.380  1.00 33.51 LIG-0.65  OA
ENDBRANCH 33 34
ENDBRANCH 32 33
ENDBRANCH 26 32
ENDBRANCH 23 26
ENDBRANCH 15 22
ENDBRANCH 13 15
ENDBRANCH 6 11
ENDBRANCH 3 6
ENDBRANCH 1 2
BRANCH 1 37
ATOM     37  C   TYR C 305       5.384  91.729  11.621  1.00 20.52 LIG 0.24  C 
ATOM     38 O    TYR C 305       5.788  90.573  11.470  1.00 23.93 LIG-0.27  OA
ATOM     39  N   PHE C 306       5.551  92.418  12.734  1.00 17.96 LIG-0.35  N 
ATOM     40 H    PHE C 306       5.303  93.233  12.858  1.00 17.96 LIG 0.16  HD
BRANCH 39 41
ATOM     41  CA  PHE C 306       6.228  91.755  13.898  1.00 18.04 LIG 0.18  C 
BRANCH 41 42
ATOM     42  C   PHE C 306       5.331  90.632  14.344  1.00 31.34 LIG 0.24  C 
ATOM     43  N   GLN C 307       5.928  89.485  14.657  1.00 26.23 LIG-0.35  N 
ATOM     44 H    GLN C 307       6.779  89.369  14.679  1.00 26.23 LIG 0.16  HD
ATOM     45 O    PHE C 306       4.117  90.787  14.402  1.00 30.18 LIG-0.27  OA
BRANCH 43 46
ATOM     46  CA  GLN C 307       5.136  88.302  15.000  1.00 27.99 LIG 0.16  C 
BRANCH 46 47
ATOM     47  CB  GLN C 307       6.002  87.078  14.728  1.00 36.24 LIG 0.04  C 
BRANCH 47 48
ATOM     48  CG  GLN C 307       5.343  85.773  15.034  1.00 42.27 LIG 0.10  C 
BRANCH 48 49
ATOM     49  CD  GLN C 307       4.618  85.236  13.813  1.00 30.08 LIG 0.21  C 
ATOM     50  NE2 GLN C 307       3.277  85.158  13.922  1.00 33.32 LIG-0.37  N 
ATOM     51 21HE GLN C 307       2.891  85.396  14.652  1.00 33.32 LIG 0.16  HD
ATOM     52 22HE GLN C 307       2.809  84.869  13.261  1.00 33.32 LIG 0.16  HD
ATOM     53 OE1  GLN C 307       5.247  84.904  12.780  1.00 31.63 LIG-0.27  OA
ENDBRANCH 48 49
ENDBRANCH 47 48
ENDBRANCH 46 47
BRANCH 46 54
ATOM     54  C   GLN C 307       4.514  88.227  16.387  1.00 39.25 LIG 0.22  C 
ATOM     55 O    GLN C 307       5.140  87.617  17.270  1.00 55.00 LIG-0.29  OA
ENDBRANCH 46 54
ENDBRANCH 43 46
ENDBRANCH 41 42
BRANCH 41 56
ATOM     56  CB  PHE C 306       6.459  92.743  15.032  1.00 20.53 LIG 0.07  C 
BRANCH 56 57
ATOM     57  CG  PHE C 306       7.382  93.828  14.682  1.00 20.37 LIG-0.06  A 
ATOM     58  CD2 PHE C 306       6.957  95.128  14.646  1.00 17.20 LIG 0.01  A 
ATOM     59  CE2 PHE C 306       7.837  96.163  14.364  1.00 19.90 LIG 0.00  A 
ATOM     60  CZ  PHE C 306       9.191  95.894  14.106  1.00 23.32 LIG 0.00  A 
ATOM     61  CE1 PHE C 306       9.626  94.566  14.138  1.00 27.54 LIG 0.00  A 
ATOM     62  CD1 PHE C 306       8.740  93.547  14.421  1.00 19.02 LIG 0.01  A 
ENDBRANCH 56 57
ENDBRANCH 41 56
ENDBRANCH 39 41
ENDBRANCH 1 37
BRANCH 1 63
ATOM     63  CB  TYR C 305       3.234  91.946  10.352  1.00 23.59 LIG 0.07  C 
BRANCH 63 64
ATOM     64  CG  TYR C 305       2.988  90.560  10.851  1.00 90.40 LIG-0.06  A 
ATOM     65  CD2 TYR C 305       2.417  90.359  12.096  1.00 31.11 LIG 0.01  A 
ATOM     66  CE2 TYR C 305       2.176  89.061  12.587  1.00 55.34 LIG 0.04  A 
ATOM     67  CZ  TYR C 305       2.518  87.965  11.802  1.00 93.94 LIG 0.07  A 
ATOM     68  CE1 TYR C 305       3.094  88.144  10.545  1.00 56.99 LIG 0.04  A 
ATOM     69  CD1 TYR C 305       3.327  89.437  10.076  1.00 51.39 LIG 0.01  A 
BRANCH 67 70
ATOM     70 OH   TYR C 305       2.287  86.694  12.272  1.00 93.94 LIG-0.36  OA
ATOM     71 HH   TYR C 305       2.013  86.734  13.065  1.00 93.94 LIG 0.22  HD
ENDBRANCH 67 70
ENDBRANCH 63 64
ENDBRANCH 1 63
TORSDOF 27
ENDMDL
MODEL 10
USER: ADFR SOLUTION from run 87
USER: SCORE 28.004363 LL:  -5.725 LR: -24.506 RR:   0.000 FEB: -16.452
USER: RMSD 4.246908
USER: SEED 86
USER: STATUS no improvement in best in 5 clusters for 5 generations
USER: GENES 29
USER: genes 0 Translation |==|  0.39055 0.59940 0.55321
USER: genes 1 Rotation |==|  0.50415 0.52355 0.49668 0.99942
USER: genes 2 Torsion [CB]-CA--N-[C] |==|  0.26584
USER: genes 3 Torsion [N]-C--CA-[N] |==|  0.39455
USER: genes 4 Torsion [C]-CA--CB-[CG] |==|  0.29320
USER: genes 5 Torsion [CA]-CB--CG-[CD2] |==|  0.55307
USER: genes 6 Torsion [C]-CA--N-[C] |==|  0.59502
USER: genes 7 Torsion [N]-C--CA-[N] |==|  0.16969
USER: genes 8 Torsion [C]-CA--CB-[CG] |==|  0.24641
USER: genes 9 Torsion [CA]-CB--CG-[OD1] |==|  0.79311
USER: genes 10 Torsion [C]-CA--N-[C] |==|  0.77507
USER: genes 11 Torsion [N]-C--CA-[N] |==|  0.95525
USER: genes 12 Torsion [C]-CA--N-[C] |==|  0.81742
USER: genes 13 Torsion [C]-CA--CB-[CG] |==|  0.14153
USER: genes 14 Torsion [CA]-CB--CG-[CD] |==|  0.38926
USER: genes 15 Torsion [CB]-CG--CD-[OE1] |==|  0.00983
USER: genes 16 Torsion [N]-CA--C-[N] |==|  0.38810
USER: genes 17 Torsion [C]-N--CA-[CB] |==|  0.49516
USER: genes 18 Torsion [N]-CA--C-[N] |==|  0.44024
USER: genes 19 Torsion [C]-N--CA-[CB] |==|  0.76553
USER: genes 20 Torsion [N]-CA--CB-[CG] |==|  0.20435
USER: genes 21 Torsion [CA]-CB--CG-[CD] |==|  0.70697
USER: genes 22 Torsion [CB]-CG--CD-[NE2] |==|  0.41304
USER: genes 23 Torsion [N]-CA--C-[O] |==|  0.16584
USER: genes 24 Torsion [N]-CA--CB-[CG] |==|  0.81124
USER: genes 25 Torsion [CA]-CB--CG-[CD1] |==|  0.81276
USER: genes 26 Torsion [N]-CA--CB-[CG] |==|  0.24028
USER: genes 27 Torsion [CA]-CB--CG-[CD2] |==|  0.31237
USER: genes 28 Torsion [CE2]-CZ--OH-[HH] |==|  0.94776
ROOT
ATOM      1  CA  TYR C 305       4.589  92.527  10.344  1.00 17.70 LIG 0.18  C 
ENDROOT
BRANCH 1 2
ATOM      2  N   TYR C 305       5.206  92.196   9.073  1.00 18.26 LIG-0.35  N 
ATOM      3  C   LEU C 304       5.252  93.120   8.141  1.00 22.06 LIG 0.24  C 
ATOM      4 O    LEU C 304       4.736  94.204   8.291  1.00 19.49 LIG-0.27  OA
ATOM      5 H    TYR C 305       5.513  91.396   9.001  1.00 18.26 LIG 0.16  HD
BRANCH 3 6
ATOM      6  CA  LEU C 304       5.951  92.742   6.824  1.00 20.64 LIG 0.18  C 
BRANCH 6 7
ATOM      7  CB  LEU C 304       7.398  93.261   6.852  1.00 15.74 LIG 0.04  C 
BRANCH 7 8
ATOM      8  CG  LEU C 304       8.562  92.239   7.068  1.00 18.57 LIG-0.02  C 
ATOM      9  CD2 LEU C 304       9.791  92.952   7.518  1.00 21.94 LIG 0.01  C 
ATOM     10  CD1 LEU C 304       8.771  91.456   5.742  1.00 20.21 LIG 0.01  C 
ENDBRANCH 7 8
ENDBRANCH 6 7
BRANCH 6 11
ATOM     11  N   LEU C 304       5.240  93.327   5.706  1.00 19.38 LIG-0.35  N 
ATOM     12 H    LEU C 304       4.880  94.095   5.846  1.00 19.38 LIG 0.16  HD
ATOM     13  C   ASN C 303       5.198  92.648   4.573  1.00 24.27 LIG 0.24  C 
ATOM     14 O    ASN C 303       5.687  91.528   4.466  1.00 22.60 LIG-0.27  OA
BRANCH 13 15
ATOM     15  CA  ASN C 303       4.449  93.291   3.406  1.00 31.24 LIG 0.18  C 
BRANCH 15 16
ATOM     16  CB  ASN C 303       4.479  92.345   2.212  1.00 21.65 LIG 0.14  C 
BRANCH 16 17
ATOM     17  CG  ASN C 303       3.279  91.358   2.232  1.00 16.90 LIG 0.22  C 
ATOM     18 OD1  ASN C 303       3.247  90.397   3.027  1.00 28.96 LIG-0.27  OA
ATOM     19  ND2 ASN C 303       2.312  91.606   1.351  1.00 28.67 LIG-0.37  N 
ATOM     20 22HD ASN C 303       2.375  92.280   0.821  1.00 28.67 LIG 0.16  HD
ATOM     21 21HD ASN C 303       1.624  91.091   1.311  1.00 28.67 LIG 0.16  HD
ENDBRANCH 16 17
ENDBRANCH 15 16
BRANCH 15 22
ATOM     22  N   ASN C 303       5.094  94.557   3.065  1.00 31.60 LIG-0.35  N 
ATOM     23  C   GLU C 302       4.834  95.652   3.772  1.00 42.93 LIG 0.24  C 
ATOM     24 O    GLU C 302       3.994  95.663   4.707  1.00 23.80 LIG-0.27  OA
ATOM     25 H    ASN C 303       5.631  94.524   2.394  1.00 31.60 LIG 0.16  HD
BRANCH 23 26
ATOM     26  CA  GLU C 302       5.607  96.916   3.335  1.00 34.08 LIG 0.18  C 
BRANCH 26 27
ATOM     27  N   GLU C 302       6.725  96.601   2.495  1.00 23.23 LIG-0.35  N 
ATOM     28  C   ACE C 301       7.735  95.920   2.991  1.00 22.46 LIG 0.21  C 
ATOM     29 O    ACE C 301       7.755  95.543   4.152  1.00 29.32 LIG-0.27  OA
ATOM     30  CH3 ACE C 301       8.890  95.602   2.059  1.00 21.44 LIG 0.12  C 
ATOM     31 H    GLU C 302       6.670  96.886   1.686  1.00 23.23 LIG 0.16  HD
ENDBRANCH 26 27
BRANCH 26 32
ATOM     32  CB  GLU C 302       4.693  97.896   2.600  1.00 20.79 LIG 0.04  C 
BRANCH 32 33
ATOM     33  CG  GLU C 302       3.368  98.216   3.381  1.00 23.79 LIG 0.12  C 
BRANCH 33 34
ATOM     34  CD  GLU C 302       2.916  99.666   3.329  1.00 40.63 LIG 0.17  C 
ATOM     35 OE1  GLU C 302       3.529 100.509   2.652  1.00 32.87 LIG-0.65  OA
ATOM     36 OE2  GLU C 302       1.943  99.990   4.027  1.00 33.51 LIG-0.65  OA
ENDBRANCH 33 34
ENDBRANCH 32 33
ENDBRANCH 26 32
ENDBRANCH 23 26
ENDBRANCH 15 22
ENDBRANCH 13 15
ENDBRANCH 6 11
ENDBRANCH 3 6
ENDBRANCH 1 2
BRANCH 1 37
ATOM     37  C   TYR C 305       5.392  91.810  11.416  1.00 20.52 LIG 0.24  C 
ATOM     38 O    TYR C 305       5.810  90.667  11.214  1.00 23.93 LIG-0.27  OA
ATOM     39  N   PHE C 306       5.620  92.481  12.529  1.00 17.96 LIG-0.35  N 
ATOM     40 H    PHE C 306       5.364  93.287  12.687  1.00 17.96 LIG 0.16  HD
BRANCH 39 41
ATOM     41  CA  PHE C 306       6.388  91.810  13.631  1.00 18.04 LIG 0.18  C 
BRANCH 41 42
ATOM     42  C   PHE C 306       5.595  90.600  14.043  1.00 31.34 LIG 0.24  C 
ATOM     43  N   GLN C 307       6.266  89.636  14.668  1.00 26.23 LIG-0.35  N 
ATOM     44 H    GLN C 307       7.092  89.689  14.899  1.00 26.23 LIG 0.16  HD
ATOM     45 O    PHE C 306       4.396  90.525  13.800  1.00 30.18 LIG-0.27  OA
BRANCH 43 46
ATOM     46  CA  GLN C 307       5.608  88.373  15.013  1.00 27.99 LIG 0.16  C 
BRANCH 46 47
ATOM     47  CB  GLN C 307       4.890  88.581  16.341  1.00 36.24 LIG 0.04  C 
BRANCH 47 48
ATOM     48  CG  GLN C 307       3.652  89.412  16.251  1.00 42.27 LIG 0.10  C 
BRANCH 48 49
ATOM     49  CD  GLN C 307       3.893  90.801  16.816  1.00 30.08 LIG 0.21  C 
ATOM     50  NE2 GLN C 307       3.178  91.791  16.246  1.00 33.32 LIG-0.37  N 
ATOM     51 21HE GLN C 307       2.637  91.614  15.601  1.00 33.32 LIG 0.16  HD
ATOM     52 22HE GLN C 307       3.263  92.599  16.527  1.00 33.32 LIG 0.16  HD
ATOM     53 OE1  GLN C 307       4.699  90.987  17.758  1.00 31.63 LIG-0.27  OA
ENDBRANCH 48 49
ENDBRANCH 47 48
ENDBRANCH 46 47
BRANCH 46 54
ATOM     54  C   GLN C 307       4.678  87.741  13.988  1.00 39.25 LIG 0.22  C 
ATOM     55 O    GLN C 307       5.156  87.438  12.882  1.00 55.00 LIG-0.29  OA
ENDBRANCH 46 54
ENDBRANCH 43 46
ENDBRANCH 41 42
BRANCH 41 56
ATOM     56  CB  PHE C 306       6.586  92.752  14.811  1.00 20.53 LIG 0.07  C 
BRANCH 56 57
ATOM     57  CG  PHE C 306       7.480  93.876  14.516  1.00 20.37 LIG-0.06  A 
ATOM     58  CD2 PHE C 306       7.013  95.163  14.512  1.00 17.20 LIG 0.01  A 
ATOM     59  CE2 PHE C 306       7.865  96.234  14.282  1.00 19.90 LIG 0.00  A 
ATOM     60  CZ  PHE C 306       9.232  96.017  14.046  1.00 23.32 LIG 0.00  A 
ATOM     61  CE1 PHE C 306       9.710  94.704  14.047  1.00 27.54 LIG 0.00  A 
ATOM     62  CD1 PHE C 306       8.852  93.649  14.277  1.00 19.02 LIG 0.01  A 
ENDBRANCH 56 57
ENDBRANCH 41 56
ENDBRANCH 39 41
ENDBRANCH 1 37
BRANCH 1 63
ATOM     63  CB  TYR C 305       3.131  92.085  10.375  1.00 23.59 LIG 0.07  C 
BRANCH 63 64
ATOM     64  CG  TYR C 305       2.900  90.674  10.804  1.00 90.40 LIG-0.06  A 
ATOM     65  CD2 TYR C 305       2.264  90.406  12.004  1.00 31.11 LIG 0.01  A 
ATOM     66  CE2 TYR C 305       2.036  89.083  12.429  1.00 55.34 LIG 0.04  A 
ATOM     67  CZ  TYR C 305       2.458  88.030  11.626  1.00 93.94 LIG 0.07  A 
ATOM     68  CE1 TYR C 305       3.101  88.276  10.413  1.00 56.99 LIG 0.04  A 
ATOM     69  CD1 TYR C 305       3.320  89.594  10.008  1.00 51.39 LIG 0.01  A 
BRANCH 67 70
ATOM     70 OH   TYR C 305       2.241  86.735  12.031  1.00 93.94 LIG-0.36  OA
ATOM     71 HH   TYR C 305       2.094  86.722  12.858  1.00 93.94 LIG 0.22  HD
ENDBRANCH 67 70
ENDBRANCH 63 64
ENDBRANCH 1 63
TORSDOF 27
ENDMDL
MODEL 11
USER: ADFR SOLUTION from run 170
USER: SCORE 25.594640 LL:  -4.389 LR: -24.372 RR:   0.000 FEB: -16.317
USER: RMSD 6.895378
USER: SEED 169
USER: STATUS no improvement in best in 3 clusters for 5 generations
USER: GENES 29
USER: genes 0 Translation |==|  0.47980 0.55562 0.68872
USER: genes 1 Rotation |==|  0.61098 0.72129 0.13316 0.73269
USER: genes 2 Torsion [CB]-CA--N-[C] |==|  0.47407
USER: genes 3 Torsion [N]-C--CA-[N] |==|  0.42222
USER: genes 4 Torsion [C]-CA--CB-[CG] |==|  0.82329
USER: genes 5 Torsion [CA]-CB--CG-[CD2] |==|  0.19338
USER: genes 6 Torsion [C]-CA--N-[C] |==|  0.62469
USER: genes 7 Torsion [N]-C--CA-[N] |==|  0.50415
USER: genes 8 Torsion [C]-CA--CB-[CG] |==|  0.70897
USER: genes 9 Torsion [CA]-CB--CG-[OD1] |==|  0.21002
USER: genes 10 Torsion [C]-CA--N-[C] |==|  0.63383
USER: genes 11 Torsion [N]-C--CA-[N] |==|  0.35643
USER: genes 12 Torsion [C]-CA--N-[C] |==|  0.67178
USER: genes 13 Torsion [C]-CA--CB-[CG] |==|  0.46757
USER: genes 14 Torsion [CA]-CB--CG-[CD] |==|  0.47350
USER: genes 15 Torsion [CB]-CG--CD-[OE1] |==|  0.86471
USER: genes 16 Torsion [N]-CA--C-[N] |==|  0.42793
USER: genes 17 Torsion [C]-N--CA-[CB] |==|  0.44498
USER: genes 18 Torsion [N]-CA--C-[N] |==|  0.18689
USER: genes 19 Torsion [C]-N--CA-[CB] |==|  0.54430
USER: genes 20 Torsion [N]-CA--CB-[CG] |==|  0.92612
USER: genes 21 Torsion [CA]-CB--CG-[CD] |==|  0.29699
USER: genes 22 Torsion [CB]-CG--CD-[NE2] |==|  0.90430
USER: genes 23 Torsion [N]-CA--C-[O] |==|  0.36674
USER: genes 24 Torsion [N]-CA--CB-[CG] |==|  0.65855
USER: genes 25 Torsion [CA]-CB--CG-[CD1] |==|  0.27141
USER: genes 26 Torsion [N]-CA--CB-[CG] |==|  0.82696
USER: genes 27 Torsion [CA]-CB--CG-[CD2] |==|  0.29686
USER: genes 28 Torsion [CE2]-CZ--OH-[HH] |==|  0.62531
ROOT
ATOM      1  CA  TYR C 305       6.262  91.543  13.698  1.00 17.70 LIG 0.18  C 
ENDROOT
BRANCH 1 2
ATOM      2  N   TYR C 305       5.511  92.272  12.693  1.00 18.26 LIG-0.35  N 
ATOM      3  C   LEU C 304       5.363  91.728  11.507  1.00 22.06 LIG 0.24  C 
ATOM      4 O    LEU C 304       5.892  90.679  11.215  1.00 19.49 LIG-0.27  OA
ATOM      5 H    TYR C 305       5.199  93.036  12.937  1.00 18.26 LIG 0.16  HD
BRANCH 3 6
ATOM      6  CA  LEU C 304       4.526  92.514  10.483  1.00 20.64 LIG 0.18  C 
BRANCH 6 7
ATOM      7  CB  LEU C 304       3.044  92.142  10.649  1.00 15.74 LIG 0.04  C 
BRANCH 7 8
ATOM      8  CG  LEU C 304       2.601  90.668  10.370  1.00 18.57 LIG-0.02  C 
ATOM      9  CD2 LEU C 304       3.134  89.765  11.429  1.00 21.94 LIG 0.01  C 
ATOM     10  CD1 LEU C 304       3.086  90.279   8.945  1.00 20.21 LIG 0.01  C 
ENDBRANCH 7 8
ENDBRANCH 6 7
BRANCH 6 11
ATOM     11  N   LEU C 304       4.966  92.195   9.141  1.00 19.38 LIG-0.35  N 
ATOM     12 H    LEU C 304       5.098  91.362   8.974  1.00 19.38 LIG 0.16  HD
ATOM     13  C   ASN C 303       5.129  93.191   8.288  1.00 24.27 LIG 0.24  C 
ATOM     14 O    ASN C 303       4.977  94.363   8.617  1.00 22.60 LIG-0.27  OA
BRANCH 13 15
ATOM     15  CA  ASN C 303       5.586  92.826   6.875  1.00 31.24 LIG 0.18  C 
BRANCH 15 16
ATOM     16  CB  ASN C 303       6.910  92.077   6.958  1.00 21.65 LIG 0.14  C 
BRANCH 16 17
ATOM     17  CG  ASN C 303       8.105  92.974   6.532  1.00 16.90 LIG 0.22  C 
ATOM     18 OD1  ASN C 303       8.549  93.858   7.291  1.00 28.96 LIG-0.27  OA
ATOM     19  ND2 ASN C 303       8.604  92.736   5.321  1.00 28.67 LIG-0.37  N 
ATOM     20 22HD ASN C 303       8.267  92.115   4.831  1.00 28.67 LIG 0.16  HD
ATOM     21 21HD ASN C 303       9.264  93.204   5.029  1.00 28.67 LIG 0.16  HD
ENDBRANCH 16 17
ENDBRANCH 15 16
BRANCH 15 22
ATOM     22  N   ASN C 303       5.744  94.050   6.093  1.00 31.60 LIG-0.35  N 
ATOM     23  C   GLU C 302       5.213  94.140   4.878  1.00 42.93 LIG 0.24  C 
ATOM     24 O    GLU C 302       4.617  93.177   4.333  1.00 23.80 LIG-0.27  OA
ATOM     25 H    ASN C 303       6.193  94.675   6.479  1.00 31.60 LIG 0.16  HD
BRANCH 23 26
ATOM     26  CA  GLU C 302       5.418  95.498   4.170  1.00 34.08 LIG 0.18  C 
BRANCH 26 27
ATOM     27  N   GLU C 302       5.964  95.342   2.854  1.00 23.23 LIG-0.35  N 
ATOM     28  C   ACE C 301       7.138  95.866   2.574  1.00 22.46 LIG 0.21  C 
ATOM     29 O    ACE C 301       7.785  96.486   3.402  1.00 29.32 LIG-0.27  OA
ATOM     30  CH3 ACE C 301       7.678  95.664   1.169  1.00 21.44 LIG 0.12  C 
ATOM     31 H    GLU C 302       5.475  94.900   2.301  1.00 23.23 LIG 0.16  HD
ENDBRANCH 26 27
BRANCH 26 32
ATOM     32  CB  GLU C 302       4.106  96.276   4.076  1.00 20.79 LIG 0.04  C 
BRANCH 32 33
ATOM     33  CG  GLU C 302       4.301  97.771   3.634  1.00 23.79 LIG 0.12  C 
BRANCH 33 34
ATOM     34  CD  GLU C 302       3.023  98.524   3.306  1.00 40.63 LIG 0.17  C 
ATOM     35 OE1  GLU C 302       2.162  98.038   2.553  1.00 32.87 LIG-0.65  OA
ATOM     36 OE2  GLU C 302       2.891  99.664   3.777  1.00 33.51 LIG-0.65  OA
ENDBRANCH 33 34
ENDBRANCH 32 33
ENDBRANCH 26 32
ENDBRANCH 23 26
ENDBRANCH 15 22
ENDBRANCH 13 15
ENDBRANCH 6 11
ENDBRANCH 3 6
ENDBRANCH 1 2
BRANCH 1 37
ATOM     37  C   TYR C 305       5.424  90.330  14.069  1.00 20.52 LIG 0.24  C 
ATOM     38 O    TYR C 305       4.201  90.354  13.916  1.00 23.93 LIG-0.27  OA
ATOM     39  N   PHE C 306       6.079  89.281  14.531  1.00 17.96 LIG-0.35  N 
ATOM     40 H    PHE C 306       6.933  89.227  14.625  1.00 17.96 LIG 0.16  HD
BRANCH 39 41
ATOM     41  CA  PHE C 306       5.298  88.066  14.937  1.00 18.04 LIG 0.18  C 
BRANCH 41 42
ATOM     42  C   PHE C 306       4.723  88.348  16.299  1.00 31.34 LIG 0.24  C 
ATOM     43  N   GLN C 307       3.794  89.298  16.365  1.00 26.23 LIG-0.35  N 
ATOM     44 H    GLN C 307       3.466  89.706  15.684  1.00 26.23 LIG 0.16  HD
ATOM     45 O    PHE C 306       5.111  87.728  17.282  1.00 30.18 LIG-0.27  OA
BRANCH 43 46
ATOM     46  CA  GLN C 307       3.252  89.721  17.658  1.00 27.99 LIG 0.16  C 
BRANCH 46 47
ATOM     47  CB  GLN C 307       1.969  90.495  17.383  1.00 36.24 LIG 0.04  C 
BRANCH 47 48
ATOM     48  CG  GLN C 307       1.918  91.153  16.043  1.00 42.27 LIG 0.10  C 
BRANCH 48 49
ATOM     49  CD  GLN C 307       0.962  90.420  15.118  1.00 30.08 LIG 0.21  C 
ATOM     50  NE2 GLN C 307       0.909  89.083  15.280  1.00 33.32 LIG-0.37  N 
ATOM     51 21HE GLN C 307       1.404  88.702  15.871  1.00 33.32 LIG 0.16  HD
ATOM     52 22HE GLN C 307       0.380  88.612  14.793  1.00 33.32 LIG 0.16  HD
ATOM     53 OE1  GLN C 307       0.270  91.041  14.277  1.00 31.63 LIG-0.27  OA
ENDBRANCH 48 49
ENDBRANCH 47 48
ENDBRANCH 46 47
BRANCH 46 54
ATOM     54  C   GLN C 307       3.025  88.661  18.726  1.00 39.25 LIG 0.22  C 
ATOM     55 O    GLN C 307       3.447  88.894  19.872  1.00 55.00 LIG-0.29  OA
ENDBRANCH 46 54
ENDBRANCH 43 46
ENDBRANCH 41 42
BRANCH 41 56
ATOM     56  CB  PHE C 306       6.188  86.831  14.973  1.00 20.53 LIG 0.07  C 
BRANCH 56 57
ATOM     57  CG  PHE C 306       5.715  85.745  14.108  1.00 20.37 LIG-0.06  A 
ATOM     58  CD2 PHE C 306       4.706  84.913  14.512  1.00 17.20 LIG 0.01  A 
ATOM     59  CE2 PHE C 306       4.222  83.916  13.678  1.00 19.90 LIG 0.00  A 
ATOM     60  CZ  PHE C 306       4.762  83.738  12.395  1.00 23.32 LIG 0.00  A 
ATOM     61  CE1 PHE C 306       5.795  84.584  11.981  1.00 27.54 LIG 0.00  A 
ATOM     62  CD1 PHE C 306       6.266  85.572  12.821  1.00 19.02 LIG 0.01  A 
ENDBRANCH 56 57
ENDBRANCH 41 56
ENDBRANCH 39 41
ENDBRANCH 1 37
BRANCH 1 63
ATOM     63  CB  TYR C 305       6.526  92.413  14.921  1.00 23.59 LIG 0.07  C 
BRANCH 63 64
ATOM     64  CG  TYR C 305       7.353  93.631  14.671  1.00 90.40 LIG-0.06  A 
ATOM     65  CD2 TYR C 305       6.764  94.884  14.668  1.00 31.11 LIG 0.01  A 
ATOM     66  CE2 TYR C 305       7.524  96.046  14.435  1.00 55.34 LIG 0.04  A 
ATOM     67  CZ  TYR C 305       8.890  95.929  14.206  1.00 93.94 LIG 0.07  A 
ATOM     68  CE1 TYR C 305       9.505  94.677  14.204  1.00 56.99 LIG 0.04  A 
ATOM     69  CD1 TYR C 305       8.735  93.536  14.435  1.00 51.39 LIG 0.01  A 
BRANCH 67 70
ATOM     70 OH   TYR C 305       9.641  97.057  13.976  1.00 93.94 LIG-0.36  OA
ATOM     71 HH   TYR C 305      10.156  96.923  13.326  1.00 93.94 LIG 0.22  HD
ENDBRANCH 67 70
ENDBRANCH 63 64
ENDBRANCH 1 63
TORSDOF 27
ENDMDL
