MODEL 1
USER: ADFR SOLUTION from run 195
USER: SCORE 15.937307 LL:  -2.228 LR: -14.235 RR:   0.000 FEB: -10.058
USER: RMSD 9.235874
USER: SEED 194
USER: STATUS no improvement in best in 4 clusters for 5 generations
USER: GENES 16
USER: genes 0 Translation |==|  0.37705 0.55357 0.66099
USER: genes 1 Rotation |==|  0.19058 0.19226 0.67030 0.67479
USER: genes 2 Torsion [C]-CA--CB-[CG2] |==|  0.92823
USER: genes 3 Torsion [N]-CA--C-[N] |==|  0.43333
USER: genes 4 Torsion [N]-CA--C-[O] |==|  0.02642
USER: genes 5 Torsion [C]-N--CA-[C] |==|  0.19312
USER: genes 6 Torsion [N]-CA--C-[O] |==|  0.18455
USER: genes 7 Torsion [N]-CA--CB-[CG1] |==|  0.53714
USER: genes 8 Torsion [CB]-CA--N-[C] |==|  0.83261
USER: genes 9 Torsion [N]-C--CA-[N] |==|  0.15012
USER: genes 10 Torsion [C]-CA--N-[C] |==|  0.73067
USER: genes 11 Torsion [N]-C--CA-[N] |==|  0.27288
USER: genes 12 Torsion [C]-CA--CB-[CG] |==|  0.34176
USER: genes 13 Torsion [CA]-CB--CG-[CD2] |==|  0.83914
USER: genes 14 Torsion [C]-CA--CB-[CG] |==|  0.35618
USER: genes 15 Torsion [CA]-CB--CG-[OD1] |==|  0.97610
ROOT
ATOM      1  CA  VAL B1253       9.173   1.954   4.221  1.00 16.87 LIG 0.18  C 
ENDROOT
BRANCH 1 2
ATOM      2  CB  VAL B1253       8.408   0.826   4.895  1.00 16.98 LIG 0.01  C 
ATOM      3  CG2 VAL B1253       7.315   0.265   3.961  1.00 17.49 LIG 0.01  C 
ATOM      4  CG1 VAL B1253       7.826   1.326   6.212  1.00 17.27 LIG 0.01  C 
ENDBRANCH 1 2
BRANCH 1 5
ATOM      5  C   VAL B1253       9.073   1.731   2.724  1.00 15.50 LIG 0.24  C 
ATOM      6 O    VAL B1253       8.230   2.335   2.057  1.00 14.12 LIG-0.27  OA
ATOM      7  N   PRO B1254       9.909   0.864   2.184  1.00 15.47 LIG-0.34  N 
ATOM      8  CD  PRO B1254      11.070   0.239   2.832  1.00 15.59 LIG 0.13  C 
ATOM      9  CA  PRO B1254       9.777   0.471   0.761  1.00 15.20 LIG 0.18  C 
ATOM     10  CG  PRO B1254      11.875  -0.332   1.703  1.00 16.22 LIG 0.02  C 
ATOM     11  CB  PRO B1254      11.043  -0.366   0.475  1.00 15.83 LIG 0.04  C 
BRANCH 9 12
ATOM     12  C   PRO B1254       8.492  -0.339   0.467  1.00 15.00 LIG 0.24  C 
ATOM     13 O    PRO B1254       7.562  -0.491   1.291  1.00 15.08 LIG-0.27  OA
ATOM     14  N   VAL B1255       8.421  -0.820  -0.770  1.00 14.75 LIG-0.34  N 
ATOM     15 H    VAL B1255       9.002  -0.649  -1.381  1.00 14.75 LIG 0.16  HD
BRANCH 14 16
ATOM     16  CA  VAL B1255       7.340  -1.693  -1.207  1.00 15.14 LIG 0.19  C 
BRANCH 16 17
ATOM     17  C   VAL B1255       6.014  -0.925  -1.293  1.00 15.86 LIG 0.20  C 
ATOM     18 O    VAL B1255       5.855  -0.031  -2.124  1.00 17.42 LIG-0.65  OA
ATOM     19 OXT  VAL B1255       5.078  -1.181  -0.539  1.00 14.43 LIG-0.65  OA
ENDBRANCH 16 17
BRANCH 16 20
ATOM     20  CB  VAL B1255       7.184  -2.934  -0.267  1.00 15.34 LIG 0.01  C 
ATOM     21  CG1 VAL B1255       6.295  -3.975  -0.912  1.00 14.42 LIG 0.01  C 
ATOM     22  CG2 VAL B1255       8.535  -3.540   0.107  1.00 13.28 LIG 0.01  C 
ENDBRANCH 16 20
ENDBRANCH 14 16
ENDBRANCH 9 12
ENDBRANCH 1 5
BRANCH 1 23
ATOM     23  N   VAL B1253       8.645   3.253   4.565  1.00 17.12 LIG-0.35  N 
ATOM     24  C   ASP B1252       7.392   3.586   4.284  1.00 19.01 LIG 0.24  C 
ATOM     25 O    ASP B1252       6.587   2.817   3.802  1.00 18.72 LIG-0.27  OA
ATOM     26 H    VAL B1253       9.206   3.774   4.958  1.00 17.12 LIG 0.16  HD
BRANCH 24 27
ATOM     27  CA  ASP B1252       6.989   4.993   4.600  1.00 20.50 LIG 0.19  C 
BRANCH 27 28
ATOM     28  N   ASP B1252       7.891   5.961   3.976  1.00 21.10 LIG-0.34  N 
ATOM     29  C   LEU B1251       8.901   6.508   4.643  1.00 22.51 LIG 0.26  C 
ATOM     30 O    LEU B1251       9.077   6.320   5.843  1.00 22.36 LIG-0.27  OA
ATOM     31 H    ASP B1252       7.709   6.137   3.154  1.00 21.10 LIG 0.16  HD
BRANCH 29 32
ATOM     32  CA  LEU B1251       9.887   7.358   3.837  1.00 23.47 LIG 0.40  C 
ATOM     33  N   LEU B1251       9.574   8.798   3.961  1.00 25.02 LIG 0.61  N 
BRANCH 32 34
ATOM     34  CB  LEU B1251      11.313   7.127   4.336  1.00 24.34 LIG 0.06  C 
BRANCH 34 35
ATOM     35  CG  LEU B1251      12.380   6.653   3.369  1.00 26.35 LIG-0.02  C 
ATOM     36  CD2 LEU B1251      11.941   5.355   2.758  1.00 28.22 LIG 0.01  C 
ATOM     37  CD1 LEU B1251      13.784   6.507   3.950  1.00 26.24 LIG 0.01  C 
ENDBRANCH 34 35
ENDBRANCH 32 34
ENDBRANCH 29 32
ENDBRANCH 27 28
BRANCH 27 38
ATOM     38  CB  ASP B1252       5.515   5.227   4.250  1.00 20.08 LIG 0.15  C 
BRANCH 38 39
ATOM     39  CG  ASP B1252       4.659   5.837   5.383  1.00 25.61 LIG 0.17  C 
ATOM     40 OD1  ASP B1252       5.104   5.967   6.544  1.00 33.05 LIG-0.65  OA
ATOM     41 OD2  ASP B1252       3.451   6.199   5.182  1.00 30.53 LIG-0.65  OA
ENDBRANCH 38 39
ENDBRANCH 27 38
ENDBRANCH 24 27
ENDBRANCH 1 23
TORSDOF 14
ENDMDL
MODEL 2
USER: ADFR SOLUTION from run 161
USER: SCORE 15.320261 LL:  -2.593 LR: -13.324 RR:   0.000 FEB:  -9.148
USER: RMSD 9.375090
USER: SEED 160
USER: STATUS no improvement in best in 4 clusters for 5 generations
USER: GENES 16
USER: genes 0 Translation |==|  0.38043 0.57626 0.72723
USER: genes 1 Rotation |==|  0.17868 0.19999 0.70980 0.61285
USER: genes 2 Torsion [C]-CA--CB-[CG2] |==|  0.84299
USER: genes 3 Torsion [N]-CA--C-[N] |==|  0.16413
USER: genes 4 Torsion [N]-CA--C-[O] |==|  0.94955
USER: genes 5 Torsion [C]-N--CA-[C] |==|  0.60278
USER: genes 6 Torsion [N]-CA--C-[O] |==|  0.98794
USER: genes 7 Torsion [N]-CA--CB-[CG1] |==|  0.58273
USER: genes 8 Torsion [CB]-CA--N-[C] |==|  0.77705
USER: genes 9 Torsion [N]-C--CA-[N] |==|  0.18889
USER: genes 10 Torsion [C]-CA--N-[C] |==|  0.77518
USER: genes 11 Torsion [N]-C--CA-[N] |==|  0.25113
USER: genes 12 Torsion [C]-CA--CB-[CG] |==|  0.33681
USER: genes 13 Torsion [CA]-CB--CG-[CD2] |==|  0.48234
USER: genes 14 Torsion [C]-CA--CB-[CG] |==|  0.32734
USER: genes 15 Torsion [CA]-CB--CG-[OD1] |==|  0.00464
ROOT
ATOM      1  CA  VAL B1253       9.236   2.380   5.562  1.00 16.87 LIG 0.18  C 
ENDROOT
BRANCH 1 2
ATOM      2  CB  VAL B1253       8.519   1.408   6.486  1.00 16.98 LIG 0.01  C 
ATOM      3  CG2 VAL B1253       7.109   1.077   5.953  1.00 17.49 LIG 0.01  C 
ATOM      4  CG1 VAL B1253       8.472   1.990   7.894  1.00 17.27 LIG 0.01  C 
ENDBRANCH 1 2
BRANCH 1 5
ATOM      5  C   VAL B1253       9.263   1.749   4.183  1.00 15.50 LIG 0.24  C 
ATOM      6 O    VAL B1253       8.744   0.647   3.990  1.00 14.12 LIG-0.27  OA
ATOM      7  N   PRO B1254       9.870   2.419   3.222  1.00 15.47 LIG-0.34  N 
ATOM      8  CD  PRO B1254      10.347   3.807   3.282  1.00 15.59 LIG 0.13  C 
ATOM      9  CA  PRO B1254      10.079   1.808   1.888  1.00 15.20 LIG 0.18  C 
ATOM     10  CG  PRO B1254      10.591   4.189   1.852  1.00 16.22 LIG 0.02  C 
ATOM     11  CB  PRO B1254      10.610   2.965   1.014  1.00 15.83 LIG 0.04  C 
BRANCH 9 12
ATOM     12  C   PRO B1254      11.069   0.620   1.908  1.00 15.00 LIG 0.24  C 
ATOM     13 O    PRO B1254      11.881   0.407   2.836  1.00 15.08 LIG-0.27  OA
ATOM     14  N   VAL B1255      10.950  -0.207   0.874  1.00 14.75 LIG-0.34  N 
ATOM     15 H    VAL B1255      10.337  -0.134   0.275  1.00 14.75 LIG 0.16  HD
BRANCH 14 16
ATOM     16  CA  VAL B1255      11.858  -1.326   0.661  1.00 15.14 LIG 0.19  C 
BRANCH 16 17
ATOM     17  C   VAL B1255      12.144  -1.525  -0.834  1.00 15.86 LIG 0.20  C 
ATOM     18 O    VAL B1255      11.570  -0.842  -1.683  1.00 17.42 LIG-0.65  OA
ATOM     19 OXT  VAL B1255      12.950  -2.367  -1.224  1.00 14.43 LIG-0.65  OA
ENDBRANCH 16 17
BRANCH 16 20
ATOM     20  CB  VAL B1255      11.300  -2.648   1.283  1.00 15.34 LIG 0.01  C 
ATOM     21  CG1 VAL B1255      12.438  -3.550   1.711  1.00 14.42 LIG 0.01  C 
ATOM     22  CG2 VAL B1255      10.362  -2.376   2.457  1.00 13.28 LIG 0.01  C 
ENDBRANCH 16 20
ENDBRANCH 14 16
ENDBRANCH 9 12
ENDBRANCH 1 5
BRANCH 1 23
ATOM     23  N   VAL B1253       8.580   3.665   5.508  1.00 17.12 LIG-0.35  N 
ATOM     24  C   ASP B1252       7.511   3.862   4.748  1.00 19.01 LIG 0.24  C 
ATOM     25 O    ASP B1252       6.965   2.981   4.118  1.00 18.72 LIG-0.27  OA
ATOM     26 H    VAL B1253       8.940   4.271   6.001  1.00 17.12 LIG 0.16  HD
BRANCH 24 27
ATOM     27  CA  ASP B1252       6.979   5.261   4.698  1.00 20.50 LIG 0.19  C 
BRANCH 27 28
ATOM     28  N   ASP B1252       7.904   6.161   4.010  1.00 21.10 LIG-0.34  N 
ATOM     29  C   LEU B1251       8.960   6.683   4.625  1.00 22.51 LIG 0.26  C 
ATOM     30 O    LEU B1251       9.167   6.529   5.825  1.00 22.36 LIG-0.27  OA
ATOM     31 H    ASP B1252       7.702   6.317   3.188  1.00 21.10 LIG 0.16  HD
BRANCH 29 32
ATOM     32  CA  LEU B1251       9.958   7.455   3.757  1.00 23.47 LIG 0.40  C 
ATOM     33  N   LEU B1251       9.604   8.890   3.688  1.00 25.02 LIG 0.61  N 
BRANCH 32 34
ATOM     34  CB  LEU B1251      11.367   7.330   4.334  1.00 24.34 LIG 0.06  C 
BRANCH 34 35
ATOM     35  CG  LEU B1251      12.476   6.734   3.490  1.00 26.35 LIG-0.02  C 
ATOM     36  CD2 LEU B1251      13.775   6.870   4.226  1.00 28.22 LIG 0.01  C 
ATOM     37  CD1 LEU B1251      12.614   7.302   2.080  1.00 26.24 LIG 0.01  C 
ENDBRANCH 34 35
ENDBRANCH 32 34
ENDBRANCH 29 32
ENDBRANCH 27 28
BRANCH 27 38
ATOM     38  CB  ASP B1252       5.564   5.282   4.108  1.00 20.08 LIG 0.15  C 
BRANCH 38 39
ATOM     39  CG  ASP B1252       4.463   5.801   5.061  1.00 25.61 LIG 0.17  C 
ATOM     40 OD1  ASP B1252       4.727   6.201   6.214  1.00 33.05 LIG-0.65  OA
ATOM     41 OD2  ASP B1252       3.233   5.807   4.714  1.00 30.53 LIG-0.65  OA
ENDBRANCH 38 39
ENDBRANCH 27 38
ENDBRANCH 24 27
ENDBRANCH 1 23
TORSDOF 14
ENDMDL
MODEL 3
USER: ADFR SOLUTION from run 5
USER: SCORE 14.580754 LL:  -2.536 LR: -13.175 RR:   0.000 FEB:  -8.999
USER: RMSD 7.268239
USER: SEED 263126
USER: STATUS no improvement in best in 3 clusters for 5 generations
USER: GENES 16
USER: genes 0 Translation |==|  0.27382 0.55228 0.71193
USER: genes 1 Rotation |==|  0.38940 0.85282 0.71195 0.76146
USER: genes 2 Torsion [C]-CA--CB-[CG2] |==|  0.05312
USER: genes 3 Torsion [N]-CA--C-[N] |==|  0.88889
USER: genes 4 Torsion [N]-CA--C-[O] |==|  0.34855
USER: genes 5 Torsion [C]-N--CA-[C] |==|  0.92355
USER: genes 6 Torsion [N]-CA--C-[O] |==|  0.82700
USER: genes 7 Torsion [N]-CA--CB-[CG1] |==|  0.63882
USER: genes 8 Torsion [CB]-CA--N-[C] |==|  0.19276
USER: genes 9 Torsion [N]-C--CA-[N] |==|  0.11292
USER: genes 10 Torsion [C]-CA--N-[C] |==|  0.63509
USER: genes 11 Torsion [N]-C--CA-[N] |==|  0.63555
USER: genes 12 Torsion [C]-CA--CB-[CG] |==|  0.43611
USER: genes 13 Torsion [CA]-CB--CG-[CD2] |==|  0.74137
USER: genes 14 Torsion [C]-CA--CB-[CG] |==|  0.34907
USER: genes 15 Torsion [CA]-CB--CG-[OD1] |==|  0.62276
ROOT
ATOM      1  CA  VAL B1253       7.237   1.930   5.253  1.00 16.87 LIG 0.18  C 
ENDROOT
BRANCH 1 2
ATOM      2  CB  VAL B1253       8.533   1.487   5.913  1.00 16.98 LIG 0.01  C 
ATOM      3  CG2 VAL B1253       8.774   2.258   7.229  1.00 17.49 LIG 0.01  C 
ATOM      4  CG1 VAL B1253       9.686   1.663   4.932  1.00 17.27 LIG 0.01  C 
ENDBRANCH 1 2
BRANCH 1 5
ATOM      5  C   VAL B1253       6.874   3.281   5.840  1.00 15.50 LIG 0.24  C 
ATOM      6 O    VAL B1253       6.048   3.364   6.752  1.00 14.12 LIG-0.27  OA
ATOM      7  N   PRO B1254       7.466   4.343   5.328  1.00 15.47 LIG-0.34  N 
ATOM      8  CD  PRO B1254       8.595   4.355   4.388  1.00 15.59 LIG 0.13  C 
ATOM      9  CA  PRO B1254       7.056   5.708   5.734  1.00 15.20 LIG 0.18  C 
ATOM     10  CG  PRO B1254       9.114   5.761   4.433  1.00 16.22 LIG 0.02  C 
ATOM     11  CB  PRO B1254       8.111   6.634   5.089  1.00 15.83 LIG 0.04  C 
BRANCH 9 12
ATOM     12  C   PRO B1254       5.627   6.080   5.273  1.00 15.00 LIG 0.24  C 
ATOM     13 O    PRO B1254       4.728   6.480   6.047  1.00 15.08 LIG-0.27  OA
ATOM     14  N   VAL B1255       5.438   5.997   3.960  1.00 14.75 LIG-0.34  N 
ATOM     15 H    VAL B1255       6.066   5.816   3.400  1.00 14.75 LIG 0.16  HD
BRANCH 14 16
ATOM     16  CA  VAL B1255       4.135   6.207   3.343  1.00 15.14 LIG 0.19  C 
BRANCH 16 17
ATOM     17  C   VAL B1255       3.003   5.851   4.315  1.00 15.86 LIG 0.20  C 
ATOM     18 O    VAL B1255       2.875   4.703   4.743  1.00 17.42 LIG-0.65  OA
ATOM     19 OXT  VAL B1255       2.195   6.697   4.693  1.00 14.43 LIG-0.65  OA
ENDBRANCH 16 17
BRANCH 16 20
ATOM     20  CB  VAL B1255       3.985   5.387   2.019  1.00 15.34 LIG 0.01  C 
ATOM     21  CG1 VAL B1255       3.493   6.280   0.900  1.00 14.42 LIG 0.01  C 
ATOM     22  CG2 VAL B1255       5.290   4.700   1.621  1.00 13.28 LIG 0.01  C 
ENDBRANCH 16 20
ENDBRANCH 14 16
ENDBRANCH 9 12
ENDBRANCH 1 5
BRANCH 1 23
ATOM     23  N   VAL B1253       7.363   2.031   3.818  1.00 17.12 LIG-0.35  N 
ATOM     24  C   ASP B1252       7.508   0.951   3.061  1.00 19.01 LIG 0.24  C 
ATOM     25 O    ASP B1252       7.465  -0.181   3.493  1.00 18.72 LIG-0.27  OA
ATOM     26 H    VAL B1253       7.336   2.835   3.513  1.00 17.12 LIG 0.16  HD
BRANCH 24 27
ATOM     27  CA  ASP B1252       7.728   1.188   1.598  1.00 20.50 LIG 0.19  C 
BRANCH 27 28
ATOM     28  N   ASP B1252       8.633   2.315   1.369  1.00 21.10 LIG-0.34  N 
ATOM     29  C   LEU B1251       8.341   3.284   0.508  1.00 22.51 LIG 0.26  C 
ATOM     30 O    LEU B1251       7.354   3.243  -0.220  1.00 22.36 LIG-0.27  OA
ATOM     31 H    ASP B1252       9.356   2.289   1.835  1.00 21.10 LIG 0.16  HD
BRANCH 29 32
ATOM     32  CA  LEU B1251       9.269   4.501   0.492  1.00 23.47 LIG 0.40  C 
ATOM     33  N   LEU B1251       8.496   5.761   0.549  1.00 25.02 LIG 0.61  N 
BRANCH 32 34
ATOM     34  CB  LEU B1251      10.216   4.459   1.690  1.00 24.34 LIG 0.06  C 
BRANCH 34 35
ATOM     35  CG  LEU B1251      11.530   5.212   1.637  1.00 26.35 LIG-0.02  C 
ATOM     36  CD2 LEU B1251      12.603   4.285   1.148  1.00 28.22 LIG 0.01  C 
ATOM     37  CD1 LEU B1251      11.968   5.876   2.940  1.00 26.24 LIG 0.01  C 
ENDBRANCH 34 35
ENDBRANCH 32 34
ENDBRANCH 29 32
ENDBRANCH 27 28
BRANCH 27 38
ATOM     38  CB  ASP B1252       8.178  -0.101   0.902  1.00 20.08 LIG 0.15  C 
BRANCH 38 39
ATOM     39  CG  ASP B1252       7.323  -0.523  -0.315  1.00 25.61 LIG 0.17  C 
ATOM     40 OD1  ASP B1252       6.964  -1.707  -0.487  1.00 33.05 LIG-0.65  OA
ATOM     41 OD2  ASP B1252       6.979   0.321  -1.210  1.00 30.53 LIG-0.65  OA
ENDBRANCH 38 39
ENDBRANCH 27 38
ENDBRANCH 24 27
ENDBRANCH 1 23
TORSDOF 14
ENDMDL
MODEL 4
USER: ADFR SOLUTION from run 186
USER: SCORE 14.705744 LL:  -2.451 LR: -13.023 RR:   0.000 FEB:  -8.847
USER: RMSD 9.231220
USER: SEED 185
USER: STATUS no improvement in best in 5 clusters for 5 generations
USER: GENES 16
USER: genes 0 Translation |==|  0.33735 0.59172 0.75065
USER: genes 1 Rotation |==|  0.88453 0.78832 0.37333 0.55442
USER: genes 2 Torsion [C]-CA--CB-[CG2] |==|  0.02108
USER: genes 3 Torsion [N]-CA--C-[N] |==|  0.86360
USER: genes 4 Torsion [N]-CA--C-[O] |==|  0.93173
USER: genes 5 Torsion [C]-N--CA-[C] |==|  0.79369
USER: genes 6 Torsion [N]-CA--C-[O] |==|  0.92448
USER: genes 7 Torsion [N]-CA--CB-[CG1] |==|  0.22551
USER: genes 8 Torsion [CB]-CA--N-[C] |==|  0.20313
USER: genes 9 Torsion [N]-C--CA-[N] |==|  0.87778
USER: genes 10 Torsion [C]-CA--N-[C] |==|  0.79563
USER: genes 11 Torsion [N]-C--CA-[N] |==|  0.18027
USER: genes 12 Torsion [C]-CA--CB-[CG] |==|  0.37916
USER: genes 13 Torsion [CA]-CB--CG-[CD2] |==|  0.97527
USER: genes 14 Torsion [C]-CA--CB-[CG] |==|  0.20074
USER: genes 15 Torsion [CA]-CB--CG-[OD1] |==|  0.99520
ROOT
ATOM      1  CA  VAL B1253       8.428   2.670   6.037  1.00 16.87 LIG 0.18  C 
ENDROOT
BRANCH 1 2
ATOM      2  CB  VAL B1253       7.199   1.903   6.500  1.00 16.98 LIG 0.01  C 
ATOM      3  CG2 VAL B1253       7.348   0.394   6.211  1.00 17.49 LIG 0.01  C 
ATOM      4  CG1 VAL B1253       5.959   2.489   5.836  1.00 17.27 LIG 0.01  C 
ENDBRANCH 1 2
BRANCH 1 5
ATOM      5  C   VAL B1253       9.303   1.693   5.272  1.00 15.50 LIG 0.24  C 
ATOM      6 O    VAL B1253      10.353   1.277   5.766  1.00 14.12 LIG-0.27  OA
ATOM      7  N   PRO B1254       8.897   1.329   4.071  1.00 15.47 LIG-0.34  N 
ATOM      8  CD  PRO B1254       7.586   1.599   3.465  1.00 15.59 LIG 0.13  C 
ATOM      9  CA  PRO B1254       9.764   0.504   3.197  1.00 15.20 LIG 0.18  C 
ATOM     10  CG  PRO B1254       7.506   0.662   2.296  1.00 16.22 LIG 0.02  C 
ATOM     11  CB  PRO B1254       8.858   0.124   2.005  1.00 15.83 LIG 0.04  C 
BRANCH 9 12
ATOM     12  C   PRO B1254      11.034   1.247   2.720  1.00 15.00 LIG 0.24  C 
ATOM     13 O    PRO B1254      11.123   2.493   2.641  1.00 15.08 LIG-0.27  OA
ATOM     14  N   VAL B1255      12.064   0.450   2.453  1.00 14.75 LIG-0.34  N 
ATOM     15 H    VAL B1255      12.057  -0.399   2.591  1.00 14.75 LIG 0.16  HD
BRANCH 14 16
ATOM     16  CA  VAL B1255      13.314   0.950   1.895  1.00 15.14 LIG 0.19  C 
BRANCH 16 17
ATOM     17  C   VAL B1255      13.154   1.297   0.409  1.00 15.86 LIG 0.20  C 
ATOM     18 O    VAL B1255      12.313   0.725  -0.285  1.00 17.42 LIG-0.65  OA
ATOM     19 OXT  VAL B1255      13.856   2.152  -0.127  1.00 14.43 LIG-0.65  OA
ENDBRANCH 16 17
BRANCH 16 20
ATOM     20  CB  VAL B1255      14.481  -0.074   2.086  1.00 15.34 LIG 0.01  C 
ATOM     21  CG1 VAL B1255      14.423  -1.145   1.017  1.00 14.42 LIG 0.01  C 
ATOM     22  CG2 VAL B1255      15.847   0.610   2.086  1.00 13.28 LIG 0.01  C 
ENDBRANCH 16 20
ENDBRANCH 14 16
ENDBRANCH 9 12
ENDBRANCH 1 5
BRANCH 1 23
ATOM     23  N   VAL B1253       8.086   3.792   5.196  1.00 17.12 LIG-0.35  N 
ATOM     24  C   ASP B1252       7.538   4.890   5.700  1.00 19.01 LIG 0.24  C 
ATOM     25 O    ASP B1252       7.359   5.065   6.887  1.00 18.72 LIG-0.27  OA
ATOM     26 H    VAL B1253       8.267   3.682   4.362  1.00 17.12 LIG 0.16  HD
BRANCH 24 27
ATOM     27  CA  ASP B1252       7.136   5.946   4.717  1.00 20.50 LIG 0.19  C 
BRANCH 27 28
ATOM     28  N   ASP B1252       8.171   6.156   3.705  1.00 21.10 LIG-0.34  N 
ATOM     29  C   LEU B1251       9.305   6.788   3.983  1.00 22.51 LIG 0.26  C 
ATOM     30 O    LEU B1251       9.512   7.325   5.067  1.00 22.36 LIG-0.27  OA
ATOM     31 H    ASP B1252       7.978   5.837   2.929  1.00 21.10 LIG 0.16  HD
BRANCH 29 32
ATOM     32  CA  LEU B1251      10.388   6.781   2.901  1.00 23.47 LIG 0.40  C 
ATOM     33  N   LEU B1251       9.944   7.519   1.698  1.00 25.02 LIG 0.61  N 
BRANCH 32 34
ATOM     34  CB  LEU B1251      11.665   7.437   3.427  1.00 24.34 LIG 0.06  C 
BRANCH 34 35
ATOM     35  CG  LEU B1251      13.010   6.798   3.143  1.00 26.35 LIG-0.02  C 
ATOM     36  CD2 LEU B1251      12.787   5.447   2.530  1.00 28.22 LIG 0.01  C 
ATOM     37  CD1 LEU B1251      13.954   6.681   4.336  1.00 26.24 LIG 0.01  C 
ENDBRANCH 34 35
ENDBRANCH 32 34
ENDBRANCH 29 32
ENDBRANCH 27 28
BRANCH 27 38
ATOM     38  CB  ASP B1252       5.759   5.635   4.119  1.00 20.08 LIG 0.15  C 
BRANCH 38 39
ATOM     39  CG  ASP B1252       4.565   5.840   5.080  1.00 25.61 LIG 0.17  C 
ATOM     40 OD1  ASP B1252       4.730   6.200   6.265  1.00 33.05 LIG-0.65  OA
ATOM     41 OD2  ASP B1252       3.365   5.614   4.705  1.00 30.53 LIG-0.65  OA
ENDBRANCH 38 39
ENDBRANCH 27 38
ENDBRANCH 24 27
ENDBRANCH 1 23
TORSDOF 14
ENDMDL
MODEL 5
USER: ADFR SOLUTION from run 93
USER: SCORE 15.202409 LL:  -2.750 LR: -12.948 RR:   0.000 FEB:  -8.772
USER: RMSD 9.440017
USER: SEED 92
USER: STATUS no improvement in best in 5 clusters for 5 generations
USER: GENES 16
USER: genes 0 Translation |==|  0.35182 0.55600 0.68241
USER: genes 1 Rotation |==|  0.14173 0.17155 0.60303 0.55615
USER: genes 2 Torsion [C]-CA--CB-[CG2] |==|  0.71507
USER: genes 3 Torsion [N]-CA--C-[N] |==|  0.14436
USER: genes 4 Torsion [N]-CA--C-[O] |==|  0.11747
USER: genes 5 Torsion [C]-N--CA-[C] |==|  0.60028
USER: genes 6 Torsion [N]-CA--C-[O] |==|  0.45839
USER: genes 7 Torsion [N]-CA--CB-[CG1] |==|  0.60716
USER: genes 8 Torsion [CB]-CA--N-[C] |==|  0.18242
USER: genes 9 Torsion [N]-C--CA-[N] |==|  0.87267
USER: genes 10 Torsion [C]-CA--N-[C] |==|  0.80794
USER: genes 11 Torsion [N]-C--CA-[N] |==|  0.29825
USER: genes 12 Torsion [C]-CA--CB-[CG] |==|  0.56683
USER: genes 13 Torsion [CA]-CB--CG-[CD2] |==|  0.80788
USER: genes 14 Torsion [C]-CA--CB-[CG] |==|  0.35005
USER: genes 15 Torsion [CA]-CB--CG-[OD1] |==|  0.49073
ROOT
ATOM      1  CA  VAL B1253       8.700   2.000   4.655  1.00 16.87 LIG 0.18  C 
ENDROOT
BRANCH 1 2
ATOM      2  CB  VAL B1253       7.640   0.962   4.991  1.00 16.98 LIG 0.01  C 
ATOM      3  CG2 VAL B1253       6.235   1.456   4.587  1.00 17.49 LIG 0.01  C 
ATOM      4  CG1 VAL B1253       7.718   0.623   6.475  1.00 17.27 LIG 0.01  C 
ENDBRANCH 1 2
BRANCH 1 5
ATOM      5  C   VAL B1253       9.398   1.533   3.392  1.00 15.50 LIG 0.24  C 
ATOM      6 O    VAL B1253       9.145   0.427   2.911  1.00 14.12 LIG-0.27  OA
ATOM      7  N   PRO B1254      10.283   2.350   2.852  1.00 15.47 LIG-0.34  N 
ATOM      8  CD  PRO B1254      10.524   3.753   3.216  1.00 15.59 LIG 0.13  C 
ATOM      9  CA  PRO B1254      11.122   1.910   1.712  1.00 15.20 LIG 0.18  C 
ATOM     10  CG  PRO B1254      11.323   4.310   2.076  1.00 16.22 LIG 0.02  C 
ATOM     11  CB  PRO B1254      11.846   3.194   1.250  1.00 15.83 LIG 0.04  C 
BRANCH 9 12
ATOM     12  C   PRO B1254      12.132   0.801   2.087  1.00 15.00 LIG 0.24  C 
ATOM     13 O    PRO B1254      11.853  -0.175   2.819  1.00 15.08 LIG-0.27  OA
ATOM     14  N   VAL B1255      13.325   0.932   1.516  1.00 14.75 LIG-0.34  N 
ATOM     15 H    VAL B1255      13.510   1.540   0.935  1.00 14.75 LIG 0.16  HD
BRANCH 14 16
ATOM     16  CA  VAL B1255      14.440   0.048   1.823  1.00 15.14 LIG 0.19  C 
BRANCH 16 17
ATOM     17  C   VAL B1255      15.769   0.814   1.816  1.00 15.86 LIG 0.20  C 
ATOM     18 O    VAL B1255      16.784   0.323   2.312  1.00 17.42 LIG-0.65  OA
ATOM     19 OXT  VAL B1255      15.859   1.933   1.316  1.00 14.43 LIG-0.65  OA
ENDBRANCH 16 17
BRANCH 16 20
ATOM     20  CB  VAL B1255      14.509  -1.160   0.831  1.00 15.34 LIG 0.01  C 
ATOM     21  CG1 VAL B1255      14.905  -2.423   1.565  1.00 14.42 LIG 0.01  C 
ATOM     22  CG2 VAL B1255      13.191  -1.363   0.086  1.00 13.28 LIG 0.01  C 
ENDBRANCH 16 20
ENDBRANCH 14 16
ENDBRANCH 9 12
ENDBRANCH 1 5
BRANCH 1 23
ATOM     23  N   VAL B1253       8.132   3.312   4.453  1.00 17.12 LIG-0.35  N 
ATOM     24  C   ASP B1252       7.553   3.974   5.445  1.00 19.01 LIG 0.24  C 
ATOM     25 O    ASP B1252       7.525   3.575   6.591  1.00 18.72 LIG-0.27  OA
ATOM     26 H    VAL B1253       8.205   3.613   3.650  1.00 17.12 LIG 0.16  HD
BRANCH 24 27
ATOM     27  CA  ASP B1252       6.914   5.281   5.091  1.00 20.50 LIG 0.19  C 
BRANCH 27 28
ATOM     28  N   ASP B1252       7.789   6.092   4.244  1.00 21.10 LIG-0.34  N 
ATOM     29  C   LEU B1251       8.910   6.631   4.709  1.00 22.51 LIG 0.26  C 
ATOM     30 O    LEU B1251       9.228   6.573   5.893  1.00 22.36 LIG-0.27  OA
ATOM     31 H    ASP B1252       7.512   6.184   3.434  1.00 21.10 LIG 0.16  HD
BRANCH 29 32
ATOM     32  CA  LEU B1251       9.836   7.297   3.688  1.00 23.47 LIG 0.40  C 
ATOM     33  N   LEU B1251       9.797   8.771   3.814  1.00 25.02 LIG 0.61  N 
BRANCH 32 34
ATOM     34  CB  LEU B1251      11.276   6.831   3.899  1.00 24.34 LIG 0.06  C 
BRANCH 34 35
ATOM     35  CG  LEU B1251      12.425   7.701   3.427  1.00 26.35 LIG-0.02  C 
ATOM     36  CD2 LEU B1251      12.440   7.715   1.927  1.00 28.22 LIG 0.01  C 
ATOM     37  CD1 LEU B1251      13.805   7.324   3.959  1.00 26.24 LIG 0.01  C 
ENDBRANCH 34 35
ENDBRANCH 32 34
ENDBRANCH 29 32
ENDBRANCH 27 28
BRANCH 27 38
ATOM     38  CB  ASP B1252       5.523   5.059   4.486  1.00 20.08 LIG 0.15  C 
BRANCH 38 39
ATOM     39  CG  ASP B1252       4.376   5.833   5.175  1.00 25.61 LIG 0.17  C 
ATOM     40 OD1  ASP B1252       3.204   5.790   4.745  1.00 33.05 LIG-0.65  OA
ATOM     41 OD2  ASP B1252       4.592   6.575   6.193  1.00 30.53 LIG-0.65  OA
ENDBRANCH 38 39
ENDBRANCH 27 38
ENDBRANCH 24 27
ENDBRANCH 1 23
TORSDOF 14
ENDMDL
MODEL 6
USER: ADFR SOLUTION from run 45
USER: SCORE 14.309243 LL:  -3.004 LR: -12.664 RR:   0.000 FEB:  -8.487
USER: RMSD 8.997974
USER: SEED 44
USER: STATUS no improvement in best in 6 clusters for 5 generations
USER: GENES 16
USER: genes 0 Translation |==|  0.36275 0.49035 0.66261
USER: genes 1 Rotation |==|  0.13884 0.18794 0.39167 0.60219
USER: genes 2 Torsion [C]-CA--CB-[CG2] |==|  0.87161
USER: genes 3 Torsion [N]-CA--C-[N] |==|  0.52430
USER: genes 4 Torsion [N]-CA--C-[O] |==|  0.37806
USER: genes 5 Torsion [C]-N--CA-[C] |==|  0.58705
USER: genes 6 Torsion [N]-CA--C-[O] |==|  0.85558
USER: genes 7 Torsion [N]-CA--CB-[CG1] |==|  0.03498
USER: genes 8 Torsion [CB]-CA--N-[C] |==|  0.24952
USER: genes 9 Torsion [N]-C--CA-[N] |==|  0.01114
USER: genes 10 Torsion [C]-CA--N-[C] |==|  0.65272
USER: genes 11 Torsion [N]-C--CA-[N] |==|  0.44872
USER: genes 12 Torsion [C]-CA--CB-[CG] |==|  0.61432
USER: genes 13 Torsion [CA]-CB--CG-[CD2] |==|  0.56465
USER: genes 14 Torsion [C]-CA--CB-[CG] |==|  0.62255
USER: genes 15 Torsion [CA]-CB--CG-[OD1] |==|  0.87079
ROOT
ATOM      1  CA  VAL B1253       8.905   0.769   4.254  1.00 16.87 LIG 0.18  C 
ENDROOT
BRANCH 1 2
ATOM      2  CB  VAL B1253       7.810   0.145   3.403  1.00 16.98 LIG 0.01  C 
ATOM      3  CG2 VAL B1253       7.727   0.829   2.021  1.00 17.49 LIG 0.01  C 
ATOM      4  CG1 VAL B1253       6.485   0.217   4.152  1.00 17.27 LIG 0.01  C 
ENDBRANCH 1 2
BRANCH 1 5
ATOM      5  C   VAL B1253      10.136   0.897   3.376  1.00 15.50 LIG 0.24  C 
ATOM      6 O    VAL B1253      10.747   1.966   3.311  1.00 14.12 LIG-0.27  OA
ATOM      7  N   PRO B1254      10.503  -0.167   2.689  1.00 15.47 LIG-0.34  N 
ATOM      8  CD  PRO B1254       9.979  -1.532   2.833  1.00 15.59 LIG 0.13  C 
ATOM      9  CA  PRO B1254      11.596  -0.084   1.692  1.00 15.20 LIG 0.18  C 
ATOM     10  CG  PRO B1254      10.976  -2.400   2.123  1.00 16.22 LIG 0.02  C 
ATOM     11  CB  PRO B1254      11.855  -1.551   1.283  1.00 15.83 LIG 0.04  C 
BRANCH 9 12
ATOM     12  C   PRO B1254      11.238   0.786   0.464  1.00 15.00 LIG 0.24  C 
ATOM     13 O    PRO B1254      12.016   1.623  -0.046  1.00 15.08 LIG-0.27  OA
ATOM     14  N   VAL B1255      10.042   0.530  -0.056  1.00 14.75 LIG-0.34  N 
ATOM     15 H    VAL B1255       9.530  -0.105   0.218  1.00 14.75 LIG 0.16  HD
BRANCH 14 16
ATOM     16  CA  VAL B1255       9.483   1.312  -1.150  1.00 15.14 LIG 0.19  C 
BRANCH 16 17
ATOM     17  C   VAL B1255       7.952   1.377  -1.055  1.00 15.86 LIG 0.20  C 
ATOM     18 O    VAL B1255       7.284   0.349  -0.940  1.00 17.42 LIG-0.65  OA
ATOM     19 OXT  VAL B1255       7.354   2.450  -1.089  1.00 14.43 LIG-0.65  OA
ENDBRANCH 16 17
BRANCH 16 20
ATOM     20  CB  VAL B1255       9.911   0.744  -2.543  1.00 15.34 LIG 0.01  C 
ATOM     21  CG1 VAL B1255      10.529  -0.629  -2.385  1.00 14.42 LIG 0.01  C 
ATOM     22  CG2 VAL B1255       8.742   0.697  -3.525  1.00 13.28 LIG 0.01  C 
ENDBRANCH 16 20
ENDBRANCH 14 16
ENDBRANCH 9 12
ENDBRANCH 1 5
BRANCH 1 23
ATOM     23  N   VAL B1253       8.524   2.063   4.768  1.00 17.12 LIG-0.35  N 
ATOM     24  C   ASP B1252       7.904   2.188   5.934  1.00 19.01 LIG 0.24  C 
ATOM     25 O    ASP B1252       7.686   1.256   6.680  1.00 18.72 LIG-0.27  OA
ATOM     26 H    VAL B1253       8.733   2.725   4.259  1.00 17.12 LIG 0.16  HD
BRANCH 24 27
ATOM     27  CA  ASP B1252       7.473   3.570   6.315  1.00 20.50 LIG 0.19  C 
BRANCH 27 28
ATOM     28  N   ASP B1252       7.749   4.530   5.247  1.00 21.10 LIG-0.34  N 
ATOM     29  C   LEU B1251       8.468   5.627   5.459  1.00 22.51 LIG 0.26  C 
ATOM     30 O    LEU B1251       8.853   5.956   6.577  1.00 22.36 LIG-0.27  OA
ATOM     31 H    ASP B1252       7.408   4.321   4.485  1.00 21.10 LIG 0.16  HD
BRANCH 29 32
ATOM     32  CA  LEU B1251       8.850   6.457   4.230  1.00 23.47 LIG 0.40  C 
ATOM     33  N   LEU B1251       9.244   7.830   4.615  1.00 25.02 LIG 0.61  N 
BRANCH 32 34
ATOM     34  CB  LEU B1251      10.020   5.804   3.496  1.00 24.34 LIG 0.06  C 
BRANCH 34 35
ATOM     35  CG  LEU B1251      11.137   6.668   2.944  1.00 26.35 LIG-0.02  C 
ATOM     36  CD2 LEU B1251      11.820   5.928   1.832  1.00 28.22 LIG 0.01  C 
ATOM     37  CD1 LEU B1251      12.168   7.149   3.961  1.00 26.24 LIG 0.01  C 
ENDBRANCH 34 35
ENDBRANCH 32 34
ENDBRANCH 29 32
ENDBRANCH 27 28
BRANCH 27 38
ATOM     38  CB  ASP B1252       6.008   3.575   6.770  1.00 20.08 LIG 0.15  C 
BRANCH 38 39
ATOM     39  CG  ASP B1252       5.150   4.731   6.207  1.00 25.61 LIG 0.17  C 
ATOM     40 OD1  ASP B1252       5.556   5.913   6.211  1.00 33.05 LIG-0.65  OA
ATOM     41 OD2  ASP B1252       3.976   4.525   5.748  1.00 30.53 LIG-0.65  OA
ENDBRANCH 38 39
ENDBRANCH 27 38
ENDBRANCH 24 27
ENDBRANCH 1 23
TORSDOF 14
ENDMDL
MODEL 7
USER: ADFR SOLUTION from run 177
USER: SCORE 13.981075 LL:  -2.112 LR: -12.509 RR:   0.000 FEB:  -8.333
USER: RMSD 9.396197
USER: SEED 176
USER: STATUS no improvement in best in 3 clusters for 5 generations
USER: GENES 16
USER: genes 0 Translation |==|  0.31660 0.53920 0.70617
USER: genes 1 Rotation |==|  0.12778 0.24315 0.64906 0.65253
USER: genes 2 Torsion [C]-CA--CB-[CG2] |==|  0.13486
USER: genes 3 Torsion [N]-CA--C-[N] |==|  0.23029
USER: genes 4 Torsion [N]-CA--C-[O] |==|  0.95575
USER: genes 5 Torsion [C]-N--CA-[C] |==|  0.72575
USER: genes 6 Torsion [N]-CA--C-[O] |==|  0.09456
USER: genes 7 Torsion [N]-CA--CB-[CG1] |==|  0.63004
USER: genes 8 Torsion [CB]-CA--N-[C] |==|  0.76182
USER: genes 9 Torsion [N]-C--CA-[N] |==|  0.24637
USER: genes 10 Torsion [C]-CA--N-[C] |==|  0.69479
USER: genes 11 Torsion [N]-C--CA-[N] |==|  0.19148
USER: genes 12 Torsion [C]-CA--CB-[CG] |==|  0.41221
USER: genes 13 Torsion [CA]-CB--CG-[CD2] |==|  0.89835
USER: genes 14 Torsion [C]-CA--CB-[CG] |==|  0.23644
USER: genes 15 Torsion [CA]-CB--CG-[OD1] |==|  0.06269
ROOT
ATOM      1  CA  VAL B1253       8.039   1.685   5.136  1.00 16.87 LIG 0.18  C 
ENDROOT
BRANCH 1 2
ATOM      2  CB  VAL B1253       6.922   0.937   5.846  1.00 16.98 LIG 0.01  C 
ATOM      3  CG2 VAL B1253       6.978  -0.572   5.527  1.00 17.49 LIG 0.01  C 
ATOM      4  CG1 VAL B1253       5.580   1.549   5.461  1.00 17.27 LIG 0.01  C 
ENDBRANCH 1 2
BRANCH 1 5
ATOM      5  C   VAL B1253       8.026   1.238   3.686  1.00 15.50 LIG 0.24  C 
ATOM      6 O    VAL B1253       6.994   0.794   3.179  1.00 14.12 LIG-0.27  OA
ATOM      7  N   PRO B1254       9.157   1.334   3.013  1.00 15.47 LIG-0.34  N 
ATOM      8  CD  PRO B1254      10.383   2.019   3.443  1.00 15.59 LIG 0.13  C 
ATOM      9  CA  PRO B1254       9.272   0.776   1.644  1.00 15.20 LIG 0.18  C 
ATOM     10  CG  PRO B1254      11.199   2.163   2.193  1.00 16.22 LIG 0.02  C 
ATOM     11  CB  PRO B1254      10.644   1.276   1.140  1.00 15.83 LIG 0.04  C 
BRANCH 9 12
ATOM     12  C   PRO B1254       9.190  -0.768   1.605  1.00 15.00 LIG 0.24  C 
ATOM     13 O    PRO B1254       9.328  -1.498   2.612  1.00 15.08 LIG-0.27  OA
ATOM     14  N   VAL B1255       8.897  -1.268   0.408  1.00 14.75 LIG-0.34  N 
ATOM     15 H    VAL B1255       8.704  -0.783  -0.276  1.00 14.75 LIG 0.16  HD
BRANCH 14 16
ATOM     16  CA  VAL B1255       8.874  -2.700   0.145  1.00 15.14 LIG 0.19  C 
BRANCH 16 17
ATOM     17  C   VAL B1255      10.181  -3.159  -0.515  1.00 15.86 LIG 0.20  C 
ATOM     18 O    VAL B1255      11.254  -2.627  -0.228  1.00 17.42 LIG-0.65  OA
ATOM     19 OXT  VAL B1255      10.195  -4.066  -1.344  1.00 14.43 LIG-0.65  OA
ENDBRANCH 16 17
BRANCH 16 20
ATOM     20  CB  VAL B1255       7.652  -3.105  -0.744  1.00 15.34 LIG 0.01  C 
ATOM     21  CG1 VAL B1255       6.955  -4.316  -0.162  1.00 14.42 LIG 0.01  C 
ATOM     22  CG2 VAL B1255       6.665  -1.951  -0.916  1.00 13.28 LIG 0.01  C 
ENDBRANCH 16 20
ENDBRANCH 14 16
ENDBRANCH 9 12
ENDBRANCH 1 5
BRANCH 1 23
ATOM     23  N   VAL B1253       7.873   3.117   5.216  1.00 17.12 LIG-0.35  N 
ATOM     24  C   ASP B1252       7.125   3.775   4.340  1.00 19.01 LIG 0.24  C 
ATOM     25 O    ASP B1252       6.473   3.231   3.473  1.00 18.72 LIG-0.27  OA
ATOM     26 H    VAL B1253       8.294   3.490   5.867  1.00 17.12 LIG 0.16  HD
BRANCH 24 27
ATOM     27  CA  ASP B1252       7.109   5.267   4.465  1.00 20.50 LIG 0.19  C 
BRANCH 27 28
ATOM     28  N   ASP B1252       8.186   5.881   3.688  1.00 21.10 LIG-0.34  N 
ATOM     29  C   LEU B1251       9.230   6.459   4.273  1.00 22.51 LIG 0.26  C 
ATOM     30 O    LEU B1251       9.306   6.607   5.489  1.00 22.36 LIG-0.27  OA
ATOM     31 H    ASP B1252       8.080   5.833   2.836  1.00 21.10 LIG 0.16  HD
BRANCH 29 32
ATOM     32  CA  LEU B1251      10.381   6.897   3.364  1.00 23.47 LIG 0.40  C 
ATOM     33  N   LEU B1251       9.978   8.032   2.504  1.00 25.02 LIG 0.61  N 
BRANCH 32 34
ATOM     34  CB  LEU B1251      11.583   7.327   4.203  1.00 24.34 LIG 0.06  C 
BRANCH 34 35
ATOM     35  CG  LEU B1251      12.986   7.117   3.671  1.00 26.35 LIG-0.02  C 
ATOM     36  CD2 LEU B1251      13.029   5.825   2.909  1.00 28.22 LIG 0.01  C 
ATOM     37  CD1 LEU B1251      14.102   7.146   4.711  1.00 26.24 LIG 0.01  C 
ENDBRANCH 34 35
ENDBRANCH 32 34
ENDBRANCH 29 32
ENDBRANCH 27 28
BRANCH 27 38
ATOM     38  CB  ASP B1252       5.722   5.825   4.124  1.00 20.08 LIG 0.15  C 
BRANCH 38 39
ATOM     39  CG  ASP B1252       4.713   5.837   5.295  1.00 25.61 LIG 0.17  C 
ATOM     40 OD1  ASP B1252       5.089   5.825   6.486  1.00 33.05 LIG-0.65  OA
ATOM     41 OD2  ASP B1252       3.453   5.825   5.086  1.00 30.53 LIG-0.65  OA
ENDBRANCH 38 39
ENDBRANCH 27 38
ENDBRANCH 24 27
ENDBRANCH 1 23
TORSDOF 14
ENDMDL
MODEL 8
USER: ADFR SOLUTION from run 133
USER: SCORE 14.409292 LL:  -4.046 LR: -12.467 RR:   0.000 FEB:  -8.290
USER: RMSD 7.197355
USER: SEED 132
USER: STATUS no improvement in best in 9 clusters for 5 generations
USER: GENES 16
USER: genes 0 Translation |==|  0.31321 0.51540 0.61475
USER: genes 1 Rotation |==|  0.45929 0.61430 0.75198 0.91447
USER: genes 2 Torsion [C]-CA--CB-[CG2] |==|  0.44945
USER: genes 3 Torsion [N]-CA--C-[N] |==|  0.86170
USER: genes 4 Torsion [N]-CA--C-[O] |==|  0.69877
USER: genes 5 Torsion [C]-N--CA-[C] |==|  0.73752
USER: genes 6 Torsion [N]-CA--C-[O] |==|  0.30270
USER: genes 7 Torsion [N]-CA--CB-[CG1] |==|  0.53113
USER: genes 8 Torsion [CB]-CA--N-[C] |==|  0.39978
USER: genes 9 Torsion [N]-C--CA-[N] |==|  0.72220
USER: genes 10 Torsion [C]-CA--N-[C] |==|  0.16099
USER: genes 11 Torsion [N]-C--CA-[N] |==|  0.38848
USER: genes 12 Torsion [C]-CA--CB-[CG] |==|  0.10909
USER: genes 13 Torsion [CA]-CB--CG-[CD2] |==|  0.51244
USER: genes 14 Torsion [C]-CA--CB-[CG] |==|  0.12246
USER: genes 15 Torsion [CA]-CB--CG-[OD1] |==|  0.67502
ROOT
ATOM      1  CA  VAL B1253       7.976   1.239   3.285  1.00 16.87 LIG 0.18  C 
ENDROOT
BRANCH 1 2
ATOM      2  CB  VAL B1253       8.475  -0.027   3.963  1.00 16.98 LIG 0.01  C 
ATOM      3  CG2 VAL B1253       9.015  -1.034   2.925  1.00 17.49 LIG 0.01  C 
ATOM      4  CG1 VAL B1253       7.353  -0.626   4.804  1.00 17.27 LIG 0.01  C 
ENDBRANCH 1 2
BRANCH 1 5
ATOM      5  C   VAL B1253       7.073   1.951   4.275  1.00 15.50 LIG 0.24  C 
ATOM      6 O    VAL B1253       5.853   1.977   4.100  1.00 14.12 LIG-0.27  OA
ATOM      7  N   PRO B1254       7.650   2.540   5.305  1.00 15.47 LIG-0.34  N 
ATOM      8  CD  PRO B1254       9.054   2.412   5.720  1.00 15.59 LIG 0.13  C 
ATOM      9  CA  PRO B1254       6.862   3.387   6.232  1.00 15.20 LIG 0.18  C 
ATOM     10  CG  PRO B1254       9.087   2.948   7.121  1.00 16.22 LIG 0.02  C 
ATOM     11  CB  PRO B1254       7.836   3.699   7.389  1.00 15.83 LIG 0.04  C 
BRANCH 9 12
ATOM     12  C   PRO B1254       6.336   4.685   5.576  1.00 15.00 LIG 0.24  C 
ATOM     13 O    PRO B1254       6.782   5.825   5.835  1.00 15.08 LIG-0.27  OA
ATOM     14  N   VAL B1255       5.398   4.490   4.655  1.00 14.75 LIG-0.34  N 
ATOM     15 H    VAL B1255       5.145   3.710   4.392  1.00 14.75 LIG 0.16  HD
BRANCH 14 16
ATOM     16  CA  VAL B1255       4.707   5.591   3.998  1.00 15.14 LIG 0.19  C 
BRANCH 16 17
ATOM     17  C   VAL B1255       3.387   5.915   4.711  1.00 15.86 LIG 0.20  C 
ATOM     18 O    VAL B1255       3.262   6.950   5.366  1.00 17.42 LIG-0.65  OA
ATOM     19 OXT  VAL B1255       2.423   5.155   4.648  1.00 14.43 LIG-0.65  OA
ENDBRANCH 16 17
BRANCH 16 20
ATOM     20  CB  VAL B1255       4.442   5.287   2.487  1.00 15.34 LIG 0.01  C 
ATOM     21  CG1 VAL B1255       3.978   6.537   1.771  1.00 14.42 LIG 0.01  C 
ATOM     22  CG2 VAL B1255       5.673   4.700   1.798  1.00 13.28 LIG 0.01  C 
ENDBRANCH 16 20
ENDBRANCH 14 16
ENDBRANCH 9 12
ENDBRANCH 1 5
BRANCH 1 23
ATOM     23  N   VAL B1253       9.058   2.107   2.886  1.00 17.12 LIG-0.35  N 
ATOM     24  C   ASP B1252       8.999   2.814   1.766  1.00 19.01 LIG 0.24  C 
ATOM     25 O    ASP B1252       8.022   2.850   1.047  1.00 18.72 LIG-0.27  OA
ATOM     26 H    VAL B1253       9.725   2.119   3.430  1.00 17.12 LIG 0.16  HD
BRANCH 24 27
ATOM     27  CA  ASP B1252      10.222   3.601   1.409  1.00 20.50 LIG 0.19  C 
BRANCH 27 28
ATOM     28  N   ASP B1252      10.078   5.010   1.774  1.00 21.10 LIG-0.34  N 
ATOM     29  C   LEU B1251       9.831   5.388   3.023  1.00 22.51 LIG 0.26  C 
ATOM     30 O    LEU B1251       9.605   4.585   3.923  1.00 22.36 LIG-0.27  OA
ATOM     31 H    ASP B1252      10.167   5.557   1.116  1.00 21.10 LIG 0.16  HD
BRANCH 29 32
ATOM     32  CA  LEU B1251       9.890   6.889   3.318  1.00 23.47 LIG 0.40  C 
ATOM     33  N   LEU B1251       8.803   7.294   4.238  1.00 25.02 LIG 0.61  N 
BRANCH 32 34
ATOM     34  CB  LEU B1251      11.228   7.249   3.962  1.00 24.34 LIG 0.06  C 
BRANCH 34 35
ATOM     35  CG  LEU B1251      12.500   6.585   3.473  1.00 26.35 LIG-0.02  C 
ATOM     36  CD2 LEU B1251      13.643   7.028   4.337  1.00 28.22 LIG 0.01  C 
ATOM     37  CD1 LEU B1251      12.841   6.808   2.002  1.00 26.24 LIG 0.01  C 
ENDBRANCH 34 35
ENDBRANCH 32 34
ENDBRANCH 29 32
ENDBRANCH 27 28
BRANCH 27 38
ATOM     38  CB  ASP B1252      11.478   2.948   1.999  1.00 20.08 LIG 0.15  C 
BRANCH 38 39
ATOM     39  CG  ASP B1252      11.553   1.412   1.845  1.00 25.61 LIG 0.17  C 
ATOM     40 OD1  ASP B1252      11.566   0.652   2.836  1.00 33.05 LIG-0.65  OA
ATOM     41 OD2  ASP B1252      11.640   0.863   0.694  1.00 30.53 LIG-0.65  OA
ENDBRANCH 38 39
ENDBRANCH 27 38
ENDBRANCH 24 27
ENDBRANCH 1 23
TORSDOF 14
ENDMDL
MODEL 9
USER: ADFR SOLUTION from run 40
USER: SCORE 14.143521 LL:  -2.645 LR: -12.446 RR:   0.000 FEB:  -8.270
USER: RMSD 7.368420
USER: SEED 39
USER: STATUS no improvement in best in 4 clusters for 5 generations
USER: GENES 16
USER: genes 0 Translation |==|  0.33477 0.50974 0.58068
USER: genes 1 Rotation |==|  0.46359 0.62497 0.85913 0.82262
USER: genes 2 Torsion [C]-CA--CB-[CG2] |==|  0.62206
USER: genes 3 Torsion [N]-CA--C-[N] |==|  0.82903
USER: genes 4 Torsion [N]-CA--C-[O] |==|  0.38491
USER: genes 5 Torsion [C]-N--CA-[C] |==|  0.17552
USER: genes 6 Torsion [N]-CA--C-[O] |==|  0.51695
USER: genes 7 Torsion [N]-CA--CB-[CG1] |==|  0.32838
USER: genes 8 Torsion [CB]-CA--N-[C] |==|  0.55556
USER: genes 9 Torsion [N]-C--CA-[N] |==|  0.91315
USER: genes 10 Torsion [C]-CA--N-[C] |==|  0.80763
USER: genes 11 Torsion [N]-C--CA-[N] |==|  0.99308
USER: genes 12 Torsion [C]-CA--CB-[CG] |==|  0.54985
USER: genes 13 Torsion [CA]-CB--CG-[CD2] |==|  0.68311
USER: genes 14 Torsion [C]-CA--CB-[CG] |==|  0.02264
USER: genes 15 Torsion [CA]-CB--CG-[OD1] |==|  0.79045
ROOT
ATOM      1  CA  VAL B1253       8.380   1.133   2.595  1.00 16.87 LIG 0.18  C 
ENDROOT
BRANCH 1 2
ATOM      2  CB  VAL B1253       9.560   0.296   3.064  1.00 16.98 LIG 0.01  C 
ATOM      3  CG2 VAL B1253      10.895   0.908   2.587  1.00 17.49 LIG 0.01  C 
ATOM      4  CG1 VAL B1253       9.388  -1.138   2.579  1.00 17.27 LIG 0.01  C 
ENDBRANCH 1 2
BRANCH 1 5
ATOM      5  C   VAL B1253       7.428   1.261   3.769  1.00 15.50 LIG 0.24  C 
ATOM      6 O    VAL B1253       6.272   0.839   3.685  1.00 14.12 LIG-0.27  OA
ATOM      7  N   PRO B1254       7.886   1.847   4.859  1.00 15.47 LIG-0.34  N 
ATOM      8  CD  PRO B1254       9.281   2.209   5.144  1.00 15.59 LIG 0.13  C 
ATOM      9  CA  PRO B1254       6.980   2.154   5.991  1.00 15.20 LIG 0.18  C 
ATOM     10  CG  PRO B1254       9.312   2.474   6.620  1.00 16.22 LIG 0.02  C 
ATOM     11  CB  PRO B1254       7.923   2.623   7.121  1.00 15.83 LIG 0.04  C 
BRANCH 9 12
ATOM     12  C   PRO B1254       5.926   3.234   5.656  1.00 15.00 LIG 0.24  C 
ATOM     13 O    PRO B1254       4.728   3.171   6.013  1.00 15.08 LIG-0.27  OA
ATOM     14  N   VAL B1255       6.410   4.284   4.999  1.00 14.75 LIG-0.34  N 
ATOM     15 H    VAL B1255       7.246   4.393   4.827  1.00 14.75 LIG 0.16  HD
BRANCH 14 16
ATOM     16  CA  VAL B1255       5.557   5.356   4.505  1.00 15.14 LIG 0.19  C 
BRANCH 16 17
ATOM     17  C   VAL B1255       4.862   6.085   5.663  1.00 15.86 LIG 0.20  C 
ATOM     18 O    VAL B1255       4.014   6.951   5.445  1.00 17.42 LIG-0.65  OA
ATOM     19 OXT  VAL B1255       5.130   5.826   6.834  1.00 14.43 LIG-0.65  OA
ENDBRANCH 16 17
BRANCH 16 20
ATOM     20  CB  VAL B1255       4.494   4.826   3.487  1.00 15.34 LIG 0.01  C 
ATOM     21  CG1 VAL B1255       3.095   5.067   4.013  1.00 14.42 LIG 0.01  C 
ATOM     22  CG2 VAL B1255       4.663   5.454   2.105  1.00 13.28 LIG 0.01  C 
ENDBRANCH 16 20
ENDBRANCH 14 16
ENDBRANCH 9 12
ENDBRANCH 1 5
BRANCH 1 23
ATOM     23  N   VAL B1253       8.786   2.441   2.139  1.00 17.12 LIG-0.35  N 
ATOM     24  C   ASP B1252       7.921   3.444   2.062  1.00 19.01 LIG 0.24  C 
ATOM     25 O    ASP B1252       6.770   3.366   2.436  1.00 18.72 LIG-0.27  OA
ATOM     26 H    VAL B1253       9.617   2.503   1.928  1.00 17.12 LIG 0.16  HD
BRANCH 24 27
ATOM     27  CA  ASP B1252       8.436   4.724   1.482  1.00 20.50 LIG 0.19  C 
BRANCH 27 28
ATOM     28  N   ASP B1252       9.858   4.909   1.770  1.00 21.10 LIG-0.34  N 
ATOM     29  C   LEU B1251      10.298   5.154   3.000  1.00 22.51 LIG 0.26  C 
ATOM     30 O    LEU B1251       9.539   5.345   3.945  1.00 22.36 LIG-0.27  OA
ATOM     31 H    ASP B1252      10.371   4.845   1.082  1.00 21.10 LIG 0.16  HD
BRANCH 29 32
ATOM     32  CA  LEU B1251      11.814   5.140   3.211  1.00 23.47 LIG 0.40  C 
ATOM     33  N   LEU B1251      12.523   4.785   1.962  1.00 25.02 LIG 0.61  N 
BRANCH 32 34
ATOM     34  CB  LEU B1251      12.296   6.517   3.667  1.00 24.34 LIG 0.06  C 
BRANCH 34 35
ATOM     35  CG  LEU B1251      13.764   6.876   3.551  1.00 26.35 LIG-0.02  C 
ATOM     36  CD2 LEU B1251      14.333   7.046   4.928  1.00 28.22 LIG 0.01  C 
ATOM     37  CD1 LEU B1251      14.083   8.102   2.700  1.00 26.24 LIG 0.01  C 
ENDBRANCH 34 35
ENDBRANCH 32 34
ENDBRANCH 29 32
ENDBRANCH 27 28
BRANCH 27 38
ATOM     38  CB  ASP B1252       8.105   4.815  -0.013  1.00 20.08 LIG 0.15  C 
BRANCH 38 39
ATOM     39  CG  ASP B1252       7.168   3.706  -0.545  1.00 25.61 LIG 0.17  C 
ATOM     40 OD1  ASP B1252       7.575   2.542  -0.744  1.00 33.05 LIG-0.65  OA
ATOM     41 OD2  ASP B1252       5.948   3.950  -0.836  1.00 30.53 LIG-0.65  OA
ENDBRANCH 38 39
ENDBRANCH 27 38
ENDBRANCH 24 27
ENDBRANCH 1 23
TORSDOF 14
ENDMDL
MODEL 10
USER: ADFR SOLUTION from run 112
USER: SCORE 13.452430 LL:  -2.330 LR: -12.265 RR:   0.000 FEB:  -8.089
USER: RMSD 6.968029
USER: SEED 111
USER: STATUS no improvement in best in 5 clusters for 5 generations
USER: GENES 16
USER: genes 0 Translation |==|  0.27168 0.55115 0.69976
USER: genes 1 Rotation |==|  0.39546 0.82365 0.71006 0.80034
USER: genes 2 Torsion [C]-CA--CB-[CG2] |==|  0.07641
USER: genes 3 Torsion [N]-CA--C-[N] |==|  0.91111
USER: genes 4 Torsion [N]-CA--C-[O] |==|  0.37402
USER: genes 5 Torsion [C]-N--CA-[C] |==|  0.91695
USER: genes 6 Torsion [N]-CA--C-[O] |==|  0.82191
USER: genes 7 Torsion [N]-CA--CB-[CG1] |==|  0.41203
USER: genes 8 Torsion [CB]-CA--N-[C] |==|  0.17801
USER: genes 9 Torsion [N]-C--CA-[N] |==|  0.00082
USER: genes 10 Torsion [C]-CA--N-[C] |==|  0.63564
USER: genes 11 Torsion [N]-C--CA-[N] |==|  0.04159
USER: genes 12 Torsion [C]-CA--CB-[CG] |==|  0.69401
USER: genes 13 Torsion [CA]-CB--CG-[CD2] |==|  0.56140
USER: genes 14 Torsion [C]-CA--CB-[CG] |==|  0.81982
USER: genes 15 Torsion [CA]-CB--CG-[OD1] |==|  0.78094
ROOT
ATOM      1  CA  VAL B1253       7.197   1.909   5.006  1.00 16.87 LIG 0.18  C 
ENDROOT
BRANCH 1 2
ATOM      2  CB  VAL B1253       8.341   1.324   5.818  1.00 16.98 LIG 0.01  C 
ATOM      3  CG2 VAL B1253       8.280   1.802   7.285  1.00 17.49 LIG 0.01  C 
ATOM      4  CG1 VAL B1253       9.666   1.685   5.158  1.00 17.27 LIG 0.01  C 
ENDBRANCH 1 2
BRANCH 1 5
ATOM      5  C   VAL B1253       6.815   3.226   5.656  1.00 15.50 LIG 0.24  C 
ATOM      6 O    VAL B1253       5.954   3.261   6.537  1.00 14.12 LIG-0.27  OA
ATOM      7  N   PRO B1254       7.430   4.313   5.228  1.00 15.47 LIG-0.34  N 
ATOM      8  CD  PRO B1254       8.596   4.372   4.336  1.00 15.59 LIG 0.13  C 
ATOM      9  CA  PRO B1254       7.008   5.654   5.696  1.00 15.20 LIG 0.18  C 
ATOM     10  CG  PRO B1254       9.117   5.770   4.482  1.00 16.22 LIG 0.02  C 
ATOM     11  CB  PRO B1254       8.091   6.610   5.147  1.00 15.83 LIG 0.04  C 
BRANCH 9 12
ATOM     12  C   PRO B1254       5.600   6.059   5.201  1.00 15.00 LIG 0.24  C 
ATOM     13 O    PRO B1254       4.727   6.575   5.934  1.00 15.08 LIG-0.27  OA
ATOM     14  N   VAL B1255       5.403   5.869   3.900  1.00 14.75 LIG-0.34  N 
ATOM     15 H    VAL B1255       6.019   5.606   3.359  1.00 14.75 LIG 0.16  HD
BRANCH 14 16
ATOM     16  CA  VAL B1255       4.112   6.093   3.265  1.00 15.14 LIG 0.19  C 
BRANCH 16 17
ATOM     17  C   VAL B1255       2.962   5.829   4.247  1.00 15.86 LIG 0.20  C 
ATOM     18 O    VAL B1255       2.772   4.704   4.707  1.00 17.42 LIG-0.65  OA
ATOM     19 OXT  VAL B1255       2.204   6.730   4.600  1.00 14.43 LIG-0.65  OA
ENDBRANCH 16 17
BRANCH 16 20
ATOM     20  CB  VAL B1255       3.938   5.211   1.984  1.00 15.34 LIG 0.01  C 
ATOM     21  CG1 VAL B1255       2.483   4.840   1.792  1.00 14.42 LIG 0.01  C 
ATOM     22  CG2 VAL B1255       4.484   5.902   0.736  1.00 13.28 LIG 0.01  C 
ENDBRANCH 16 20
ENDBRANCH 14 16
ENDBRANCH 9 12
ENDBRANCH 1 5
BRANCH 1 23
ATOM     23  N   VAL B1253       7.562   2.123   3.626  1.00 17.12 LIG-0.35  N 
ATOM     24  C   ASP B1252       7.872   1.110   2.828  1.00 19.01 LIG 0.24  C 
ATOM     25 O    ASP B1252       7.797  -0.054   3.164  1.00 18.72 LIG-0.27  OA
ATOM     26 H    VAL B1253       7.559   2.948   3.380  1.00 17.12 LIG 0.16  HD
BRANCH 24 27
ATOM     27  CA  ASP B1252       8.330   1.464   1.448  1.00 20.50 LIG 0.19  C 
BRANCH 27 28
ATOM     28  N   ASP B1252       8.351   2.913   1.246  1.00 21.10 LIG-0.34  N 
ATOM     29  C   LEU B1251       7.797   3.480   0.180  1.00 22.51 LIG 0.26  C 
ATOM     30 O    LEU B1251       7.330   2.826  -0.747  1.00 22.36 LIG-0.27  OA
ATOM     31 H    ASP B1252       8.749   3.352   1.871  1.00 21.10 LIG 0.16  HD
BRANCH 29 32
ATOM     32  CA  LEU B1251       7.715   5.009   0.171  1.00 23.47 LIG 0.40  C 
ATOM     33  N   LEU B1251       8.593   5.596   1.207  1.00 25.02 LIG 0.61  N 
BRANCH 32 34
ATOM     34  CB  LEU B1251       8.142   5.553  -1.191  1.00 24.34 LIG 0.06  C 
BRANCH 34 35
ATOM     35  CG  LEU B1251       9.449   6.309  -1.323  1.00 26.35 LIG-0.02  C 
ATOM     36  CD2 LEU B1251       9.390   7.173  -2.547  1.00 28.22 LIG 0.01  C 
ATOM     37  CD1 LEU B1251      10.712   5.451  -1.351  1.00 26.24 LIG 0.01  C 
ENDBRANCH 34 35
ENDBRANCH 32 34
ENDBRANCH 29 32
ENDBRANCH 27 28
BRANCH 27 38
ATOM     38  CB  ASP B1252       9.669   0.789   1.130  1.00 20.08 LIG 0.15  C 
BRANCH 38 39
ATOM     39  CG  ASP B1252      10.861   1.256   1.996  1.00 25.61 LIG 0.17  C 
ATOM     40 OD1  ASP B1252      11.456   2.331   1.770  1.00 33.05 LIG-0.65  OA
ATOM     41 OD2  ASP B1252      11.305   0.540   2.957  1.00 30.53 LIG-0.65  OA
ENDBRANCH 38 39
ENDBRANCH 27 38
ENDBRANCH 24 27
ENDBRANCH 1 23
TORSDOF 14
ENDMDL
MODEL 11
USER: ADFR SOLUTION from run 33
USER: SCORE 13.278245 LL:  -2.873 LR: -12.261 RR:   0.000 FEB:  -8.085
USER: RMSD 5.715198
USER: SEED 32
USER: STATUS no improvement in best in 6 clusters for 5 generations
USER: GENES 16
USER: genes 0 Translation |==|  0.39660 0.62761 0.61951
USER: genes 1 Rotation |==|  0.85911 0.22262 0.30951 0.58839
USER: genes 2 Torsion [C]-CA--CB-[CG2] |==|  0.11513
USER: genes 3 Torsion [N]-CA--C-[N] |==|  0.36825
USER: genes 4 Torsion [N]-CA--C-[O] |==|  0.78018
USER: genes 5 Torsion [C]-N--CA-[C] |==|  0.81583
USER: genes 6 Torsion [N]-CA--C-[O] |==|  0.79035
USER: genes 7 Torsion [N]-CA--CB-[CG1] |==|  0.56727
USER: genes 8 Torsion [CB]-CA--N-[C] |==|  0.38647
USER: genes 9 Torsion [N]-C--CA-[N] |==|  0.39909
USER: genes 10 Torsion [C]-CA--N-[C] |==|  0.65857
USER: genes 11 Torsion [N]-C--CA-[N] |==|  0.46246
USER: genes 12 Torsion [C]-CA--CB-[CG] |==|  0.74529
USER: genes 13 Torsion [CA]-CB--CG-[CD2] |==|  0.13836
USER: genes 14 Torsion [C]-CA--CB-[CG] |==|  0.12604
USER: genes 15 Torsion [CA]-CB--CG-[OD1] |==|  0.72398
ROOT
ATOM      1  CA  VAL B1253       9.539   3.343   3.381  1.00 16.87 LIG 0.18  C 
ENDROOT
BRANCH 1 2
ATOM      2  CB  VAL B1253       9.869   4.758   2.933  1.00 16.98 LIG 0.01  C 
ATOM      3  CG2 VAL B1253       9.171   5.799   3.833  1.00 17.49 LIG 0.01  C 
ATOM      4  CG1 VAL B1253       9.485   4.926   1.468  1.00 17.27 LIG 0.01  C 
ENDBRANCH 1 2
BRANCH 1 5
ATOM      5  C   VAL B1253       8.063   3.317   3.732  1.00 15.50 LIG 0.24  C 
ATOM      6 O    VAL B1253       7.210   3.333   2.842  1.00 14.12 LIG-0.27  OA
ATOM      7  N   PRO B1254       7.745   3.290   5.012  1.00 15.47 LIG-0.34  N 
ATOM      8  CD  PRO B1254       8.659   3.072   6.142  1.00 15.59 LIG 0.13  C 
ATOM      9  CA  PRO B1254       6.334   3.421   5.444  1.00 15.20 LIG 0.18  C 
ATOM     10  CG  PRO B1254       7.762   2.753   7.301  1.00 16.22 LIG 0.02  C 
ATOM     11  CB  PRO B1254       6.367   3.127   6.960  1.00 15.83 LIG 0.04  C 
BRANCH 9 12
ATOM     12  C   PRO B1254       5.733   4.817   5.157  1.00 15.00 LIG 0.24  C 
ATOM     13 O    PRO B1254       5.945   5.825   5.868  1.00 15.08 LIG-0.27  OA
ATOM     14  N   VAL B1255       5.009   4.881   4.044  1.00 14.75 LIG-0.34  N 
ATOM     15 H    VAL B1255       4.929   4.227   3.491  1.00 14.75 LIG 0.16  HD
BRANCH 14 16
ATOM     16  CA  VAL B1255       4.279   6.080   3.656  1.00 15.14 LIG 0.19  C 
BRANCH 16 17
ATOM     17  C   VAL B1255       3.140   6.374   4.642  1.00 15.86 LIG 0.20  C 
ATOM     18 O    VAL B1255       2.103   5.710   4.624  1.00 17.42 LIG-0.65  OA
ATOM     19 OXT  VAL B1255       3.231   7.274   5.473  1.00 14.43 LIG-0.65  OA
ENDBRANCH 16 17
BRANCH 16 20
ATOM     20  CB  VAL B1255       3.715   5.966   2.201  1.00 15.34 LIG 0.01  C 
ATOM     21  CG1 VAL B1255       3.503   7.343   1.609  1.00 14.42 LIG 0.01  C 
ATOM     22  CG2 VAL B1255       4.623   5.130   1.301  1.00 13.28 LIG 0.01  C 
ENDBRANCH 16 20
ENDBRANCH 14 16
ENDBRANCH 9 12
ENDBRANCH 1 5
BRANCH 1 23
ATOM     23  N   VAL B1253       9.823   2.366   2.357  1.00 17.12 LIG-0.35  N 
ATOM     24  C   ASP B1252      10.378   1.198   2.651  1.00 19.01 LIG 0.24  C 
ATOM     25 O    ASP B1252      10.611   0.834   3.785  1.00 18.72 LIG-0.27  OA
ATOM     26 H    VAL B1253       9.604   2.610   1.561  1.00 17.12 LIG 0.16  HD
BRANCH 24 27
ATOM     27  CA  ASP B1252      10.716   0.310   1.494  1.00 20.50 LIG 0.19  C 
BRANCH 27 28
ATOM     28  N   ASP B1252      11.958  -0.426   1.728  1.00 21.10 LIG-0.34  N 
ATOM     29  C   LEU B1251      12.989  -0.344   0.895  1.00 22.51 LIG 0.26  C 
ATOM     30 O    LEU B1251      12.930   0.266  -0.169  1.00 22.36 LIG-0.27  OA
ATOM     31 H    ASP B1252      11.955  -0.908   2.441  1.00 21.10 LIG 0.16  HD
BRANCH 29 32
ATOM     32  CA  LEU B1251      14.296  -1.005   1.340  1.00 23.47 LIG 0.40  C 
ATOM     33  N   LEU B1251      15.246  -1.122   0.211  1.00 25.02 LIG 0.61  N 
BRANCH 32 34
ATOM     34  CB  LEU B1251      14.956  -0.181   2.444  1.00 24.34 LIG 0.06  C 
BRANCH 34 35
ATOM     35  CG  LEU B1251      15.967   0.889   2.082  1.00 26.35 LIG-0.02  C 
ATOM     36  CD2 LEU B1251      15.388   1.763   1.010  1.00 28.22 LIG 0.01  C 
ATOM     37  CD1 LEU B1251      17.343   0.384   1.657  1.00 26.24 LIG 0.01  C 
ENDBRANCH 34 35
ENDBRANCH 32 34
ENDBRANCH 29 32
ENDBRANCH 27 28
BRANCH 27 38
ATOM     38  CB  ASP B1252       9.531  -0.597   1.143  1.00 20.08 LIG 0.15  C 
BRANCH 38 39
ATOM     39  CG  ASP B1252       8.157   0.108   1.090  1.00 25.61 LIG 0.17  C 
ATOM     40 OD1  ASP B1252       7.353   0.053   2.045  1.00 33.05 LIG-0.65  OA
ATOM     41 OD2  ASP B1252       7.777   0.748   0.051  1.00 30.53 LIG-0.65  OA
ENDBRANCH 38 39
ENDBRANCH 27 38
ENDBRANCH 24 27
ENDBRANCH 1 23
TORSDOF 14
ENDMDL
