MODEL 1
USER: ADFR SOLUTION from run 138
USER: SCORE 11.335886 LL:  -1.718 LR: -10.941 RR:   0.000 FEB:  -6.765
USER: RMSD 6.574242
USER: SEED 137
USER: STATUS no improvement in best in 17 clusters for 5 generations
USER: GENES 16
USER: genes 0 Translation |==|  0.65810 0.57424 0.38076
USER: genes 1 Rotation |==|  0.47648 0.69841 0.51265 0.95817
USER: genes 2 Torsion [CB]-CA--N-[C] |==|  0.23732
USER: genes 3 Torsion [N]-C--CA-[N] |==|  0.92523
USER: genes 4 Torsion [C]-CA--N-[C] |==|  0.82103
USER: genes 5 Torsion [N]-C--CA-[N] |==|  0.22252
USER: genes 6 Torsion [C]-CA--CB-[OG] |==|  0.90245
USER: genes 7 Torsion [CA]-CB--OG-[HG] |==|  0.40446
USER: genes 8 Torsion [N]-CA--CB-[CG1] |==|  0.68153
USER: genes 9 Torsion [N]-CA--C-[N] |==|  0.00105
USER: genes 10 Torsion [C]-N--CA-[CB] |==|  0.85556
USER: genes 11 Torsion [N]-CA--CB-[OG] |==|  0.42675
USER: genes 12 Torsion [CA]-CB--OG-[HG] |==|  0.19435
USER: genes 13 Torsion [N]-CA--C-[N] |==|  0.48108
USER: genes 14 Torsion [C]-N--CA-[C] |==|  0.18487
USER: genes 15 Torsion [N]-CA--C-[O] |==|  0.02750
ROOT
ATOM      1  CA  VAL B 303      16.277   6.139  31.643  1.00 37.13 LIG 0.18  C 
ENDROOT
BRANCH 1 2
ATOM      2  N   VAL B 303      15.918   5.937  33.041  1.00 37.20 LIG-0.35  N 
ATOM      3  C   SER B 302      15.718   4.723  33.545  1.00 37.39 LIG 0.24  C 
ATOM      4 O    SER B 302      15.804   3.695  32.868  1.00 37.76 LIG-0.27  OA
ATOM      5 H    VAL B 303      15.850   6.662  33.499  1.00 37.20 LIG 0.16  HD
BRANCH 3 6
ATOM      6  CA  SER B 302      15.359   4.661  35.026  1.00 37.09 LIG 0.20  C 
BRANCH 6 7
ATOM      7  N   SER B 302      15.900   5.812  35.737  1.00 36.48 LIG-0.34  N 
ATOM      8 H    SER B 302      15.304   6.336  36.070  1.00 36.48 LIG 0.16  HD
ATOM      9  C   ALA B 301      17.209   6.012  35.847  1.00 36.26 LIG 0.26  C 
ATOM     10 O    ALA B 301      18.045   5.246  35.368  1.00 35.88 LIG-0.27  OA
BRANCH 9 11
ATOM     11  CA  ALA B 301      17.642   7.261  36.610  1.00 36.43 LIG 0.40  C 
ATOM     12  CB  ALA B 301      19.062   7.649  36.211  1.00 36.70 LIG 0.06  C 
ATOM     13  N   ALA B 301      17.575   7.035  38.084  1.00 36.51 LIG 0.61  N 
ENDBRANCH 9 11
ENDBRANCH 6 7
BRANCH 6 14
ATOM     14  CB  SER B 302      13.836   4.602  35.180  1.00 37.65 LIG 0.20  C 
BRANCH 14 15
ATOM     15 OG   SER B 302      13.193   5.373  34.182  1.00 38.63 LIG-0.40  OA
ATOM     16 HG   SER B 302      12.470   5.004  33.964  1.00 38.63 LIG 0.21  HD
ENDBRANCH 14 15
ENDBRANCH 6 14
ENDBRANCH 3 6
ENDBRANCH 1 2
BRANCH 1 17
ATOM     17  CB  VAL B 303      15.022   6.192  30.734  1.00 37.28 LIG 0.01  C 
ATOM     18  CG1 VAL B 303      15.018   5.007  29.786  1.00 36.92 LIG 0.01  C 
ATOM     19  CG2 VAL B 303      13.758   6.194  31.584  1.00 37.06 LIG 0.01  C 
ENDBRANCH 1 17
BRANCH 1 20
ATOM     20  C   VAL B 303      17.039   7.449  31.500  1.00 37.27 LIG 0.24  C 
ATOM     21 O    VAL B 303      17.429   7.833  30.395  1.00 36.92 LIG-0.27  OA
ATOM     22  N   SER B 304      17.242   8.140  32.615  1.00 37.37 LIG-0.34  N 
ATOM     23 H    SER B 304      16.966   7.894  33.392  1.00 37.37 LIG 0.16  HD
BRANCH 22 24
ATOM     24  CA  SER B 304      17.969   9.403  32.605  1.00 37.74 LIG 0.20  C 
BRANCH 24 25
ATOM     25  CB  SER B 304      19.315   9.236  31.896  1.00 37.88 LIG 0.20  C 
BRANCH 25 26
ATOM     26 OG   SER B 304      19.752  10.467  31.344  1.00 38.36 LIG-0.40  OA
ATOM     27 HG   SER B 304      19.969  10.991  31.965  1.00 38.36 LIG 0.21  HD
ENDBRANCH 25 26
ENDBRANCH 24 25
BRANCH 24 28
ATOM     28  C   SER B 304      17.132  10.460  31.890  1.00 37.93 LIG 0.24  C 
ATOM     29 O    SER B 304      16.083  10.150  31.325  1.00 38.21 LIG-0.27  OA
ATOM     30  N   ALA B 305      17.596  11.705  31.919  1.00 38.06 LIG-0.35  N 
ATOM     31 H    ALA B 305      18.327  11.936  32.307  1.00 38.06 LIG 0.16  HD
BRANCH 30 32
ATOM     32  CA  ALA B 305      16.879  12.800  31.276  1.00 38.30 LIG 0.16  C 
ATOM     33  CB  ALA B 305      16.640  12.467  29.804  1.00 38.13 LIG 0.04  C 
BRANCH 32 34
ATOM     34  C   ALA B 305      15.549  13.076  31.968  1.00 38.47 LIG 0.22  C 
ATOM     35 O    ALA B 305      15.325  12.507  33.057  1.00 38.58 LIG-0.29  OA
ENDBRANCH 32 34
ENDBRANCH 30 32
ENDBRANCH 24 28
ENDBRANCH 22 24
ENDBRANCH 1 20
TORSDOF 14
ENDMDL
MODEL 2
USER: ADFR SOLUTION from run 21
USER: SCORE 10.727399 LL:  -2.141 LR: -10.749 RR:   0.000 FEB:  -6.572
USER: RMSD 3.016423
USER: SEED 20
USER: STATUS no improvement in best in 26 clusters for 5 generations
USER: GENES 16
USER: genes 0 Translation |==|  0.51942 0.46856 0.41533
USER: genes 1 Rotation |==|  0.58022 0.54708 0.52173 0.99079
USER: genes 2 Torsion [CB]-CA--N-[C] |==|  0.26631
USER: genes 3 Torsion [N]-C--CA-[N] |==|  0.97239
USER: genes 4 Torsion [C]-CA--N-[C] |==|  0.75800
USER: genes 5 Torsion [N]-C--CA-[N] |==|  0.33342
USER: genes 6 Torsion [C]-CA--CB-[OG] |==|  0.58343
USER: genes 7 Torsion [CA]-CB--OG-[HG] |==|  0.12556
USER: genes 8 Torsion [N]-CA--CB-[CG1] |==|  0.72856
USER: genes 9 Torsion [N]-CA--C-[N] |==|  0.43638
USER: genes 10 Torsion [C]-N--CA-[CB] |==|  0.24984
USER: genes 11 Torsion [N]-CA--CB-[OG] |==|  0.82603
USER: genes 12 Torsion [CA]-CB--OG-[HG] |==|  0.76350
USER: genes 13 Torsion [N]-CA--C-[N] |==|  0.34124
USER: genes 14 Torsion [C]-N--CA-[C] |==|  0.49284
USER: genes 15 Torsion [N]-CA--C-[O] |==|  0.96068
ROOT
ATOM      1  CA  VAL B 303      13.468   3.999  32.162  1.00 37.13 LIG 0.18  C 
ENDROOT
BRANCH 1 2
ATOM      2  N   VAL B 303      12.376   3.398  32.917  1.00 37.20 LIG-0.35  N 
ATOM      3  C   SER B 302      12.086   2.105  32.820  1.00 37.39 LIG 0.24  C 
ATOM      4 O    SER B 302      12.702   1.333  32.079  1.00 37.76 LIG-0.27  OA
ATOM      5 H    VAL B 303      11.948   3.948  33.420  1.00 37.20 LIG 0.16  HD
BRANCH 3 6
ATOM      6  CA  SER B 302      10.925   1.611  33.676  1.00 37.09 LIG 0.20  C 
BRANCH 6 7
ATOM      7  N   SER B 302      10.506   2.638  34.620  1.00 36.48 LIG-0.34  N 
ATOM      8 H    SER B 302       9.869   3.142  34.337  1.00 36.48 LIG 0.16  HD
ATOM      9  C   ALA B 301      11.077   2.764  35.814  1.00 36.26 LIG 0.26  C 
ATOM     10 O    ALA B 301      11.983   2.026  36.202  1.00 35.88 LIG-0.27  OA
BRANCH 9 11
ATOM     11  CA  ALA B 301      10.550   3.886  36.702  1.00 36.43 LIG 0.40  C 
ATOM     12  CB  ALA B 301      11.666   4.883  37.001  1.00 36.70 LIG 0.06  C 
ATOM     13  N   ALA B 301      10.004   3.342  37.981  1.00 36.51 LIG 0.61  N 
ENDBRANCH 9 11
ENDBRANCH 6 7
BRANCH 6 14
ATOM     14  CB  SER B 302       9.758   1.208  32.769  1.00 37.65 LIG 0.20  C 
BRANCH 14 15
ATOM     15 OG   SER B 302       8.515   1.403  33.420  1.00 38.63 LIG-0.40  OA
ATOM     16 HG   SER B 302       8.512   2.152  33.799  1.00 38.63 LIG 0.21  HD
ENDBRANCH 14 15
ENDBRANCH 6 14
ENDBRANCH 3 6
ENDBRANCH 1 2
BRANCH 1 17
ATOM     17  CB  VAL B 303      12.964   4.649  30.848  1.00 37.28 LIG 0.01  C 
ATOM     18  CG1 VAL B 303      13.175   3.699  29.684  1.00 36.92 LIG 0.01  C 
ATOM     19  CG2 VAL B 303      11.490   5.012  30.974  1.00 37.06 LIG 0.01  C 
ENDBRANCH 1 17
BRANCH 1 20
ATOM     20  C   VAL B 303      14.142   5.070  33.009  1.00 37.27 LIG 0.24  C 
ATOM     21 O    VAL B 303      13.541   5.604  33.943  1.00 36.92 LIG-0.27  OA
ATOM     22  N   SER B 304      15.394   5.375  32.689  1.00 37.37 LIG-0.34  N 
ATOM     23 H    SER B 304      15.832   5.003  32.049  1.00 37.37 LIG 0.16  HD
BRANCH 22 24
ATOM     24  CA  SER B 304      16.138   6.392  33.421  1.00 37.74 LIG 0.20  C 
BRANCH 24 25
ATOM     25  CB  SER B 304      16.885   5.761  34.598  1.00 37.88 LIG 0.20  C 
BRANCH 25 26
ATOM     26 OG   SER B 304      15.976   5.192  35.526  1.00 38.36 LIG-0.40  OA
ATOM     27 HG   SER B 304      15.713   5.785  36.060  1.00 38.36 LIG 0.21  HD
ENDBRANCH 25 26
ENDBRANCH 24 25
BRANCH 24 28
ATOM     28  C   SER B 304      17.129   7.067  32.477  1.00 37.93 LIG 0.24  C 
ATOM     29 O    SER B 304      17.971   6.401  31.873  1.00 38.21 LIG-0.27  OA
ATOM     30  N   ALA B 305      17.027   8.385  32.350  1.00 38.06 LIG-0.35  N 
ATOM     31 H    ALA B 305      16.447   8.865  32.766  1.00 38.06 LIG 0.16  HD
BRANCH 30 32
ATOM     32  CA  ALA B 305      17.915   9.138  31.471  1.00 38.30 LIG 0.16  C 
ATOM     33  CB  ALA B 305      17.845   8.568  30.056  1.00 38.13 LIG 0.04  C 
BRANCH 32 34
ATOM     34  C   ALA B 305      17.554  10.619  31.454  1.00 38.47 LIG 0.22  C 
ATOM     35 O    ALA B 305      16.450  10.960  31.926  1.00 38.58 LIG-0.29  OA
ENDBRANCH 32 34
ENDBRANCH 30 32
ENDBRANCH 24 28
ENDBRANCH 22 24
ENDBRANCH 1 20
TORSDOF 14
ENDMDL
MODEL 3
USER: ADFR SOLUTION from run 174
USER: SCORE 10.689290 LL:  -1.902 LR: -10.612 RR:   0.000 FEB:  -6.436
USER: RMSD 9.302330
USER: SEED 173
USER: STATUS no improvement in best in 18 clusters for 5 generations
USER: GENES 16
USER: genes 0 Translation |==|  0.54388 0.56916 0.41278
USER: genes 1 Rotation |==|  0.40722 0.44837 0.02304 0.60599
USER: genes 2 Torsion [CB]-CA--N-[C] |==|  0.87778
USER: genes 3 Torsion [N]-C--CA-[N] |==|  0.92934
USER: genes 4 Torsion [C]-CA--N-[C] |==|  0.65839
USER: genes 5 Torsion [N]-C--CA-[N] |==|  0.31306
USER: genes 6 Torsion [C]-CA--CB-[OG] |==|  0.71346
USER: genes 7 Torsion [CA]-CB--OG-[HG] |==|  0.08902
USER: genes 8 Torsion [N]-CA--CB-[CG1] |==|  0.36046
USER: genes 9 Torsion [N]-CA--C-[N] |==|  0.39663
USER: genes 10 Torsion [C]-N--CA-[CB] |==|  0.28324
USER: genes 11 Torsion [N]-CA--CB-[OG] |==|  0.99232
USER: genes 12 Torsion [CA]-CB--OG-[HG] |==|  0.66290
USER: genes 13 Torsion [N]-CA--C-[N] |==|  0.99787
USER: genes 14 Torsion [C]-N--CA-[C] |==|  0.16352
USER: genes 15 Torsion [N]-CA--C-[O] |==|  0.42179
ROOT
ATOM      1  CA  VAL B 303      13.964   6.036  32.124  1.00 37.13 LIG 0.18  C 
ENDROOT
BRANCH 1 2
ATOM      2  N   VAL B 303      15.121   6.920  32.198  1.00 37.20 LIG-0.35  N 
ATOM      3  C   SER B 302      16.271   6.619  31.604  1.00 37.39 LIG 0.24  C 
ATOM      4 O    SER B 302      16.445   5.575  30.969  1.00 37.76 LIG-0.27  OA
ATOM      5 H    VAL B 303      14.990   7.638  32.653  1.00 37.20 LIG 0.16  HD
BRANCH 3 6
ATOM      6  CA  SER B 302      17.392   7.641  31.756  1.00 37.09 LIG 0.20  C 
BRANCH 6 7
ATOM      7  N   SER B 302      16.849   8.972  31.994  1.00 36.48 LIG-0.34  N 
ATOM      8 H    SER B 302      16.334   9.029  32.681  1.00 36.48 LIG 0.16  HD
ATOM      9  C   ALA B 301      17.142   9.997  31.200  1.00 36.26 LIG 0.26  C 
ATOM     10 O    ALA B 301      17.889   9.896  30.226  1.00 35.88 LIG-0.27  OA
BRANCH 9 11
ATOM     11  CA  ALA B 301      16.501  11.335  31.557  1.00 36.43 LIG 0.40  C 
ATOM     12  CB  ALA B 301      15.747  11.889  30.351  1.00 36.70 LIG 0.06  C 
ATOM     13  N   ALA B 301      17.531  12.319  32.003  1.00 36.51 LIG 0.61  N 
ENDBRANCH 9 11
ENDBRANCH 6 7
BRANCH 6 14
ATOM     14  CB  SER B 302      18.311   7.223  32.909  1.00 37.65 LIG 0.20  C 
BRANCH 14 15
ATOM     15 OG   SER B 302      18.062   8.000  34.067  1.00 38.63 LIG-0.40  OA
ATOM     16 HG   SER B 302      17.250   8.212  34.093  1.00 38.63 LIG 0.21  HD
ENDBRANCH 14 15
ENDBRANCH 6 14
ENDBRANCH 3 6
ENDBRANCH 1 2
BRANCH 1 17
ATOM     17  CB  VAL B 303      13.750   5.495  30.687  1.00 37.28 LIG 0.01  C 
ATOM     18  CG1 VAL B 303      13.591   3.986  30.719  1.00 36.92 LIG 0.01  C 
ATOM     19  CG2 VAL B 303      12.525   6.144  30.058  1.00 37.06 LIG 0.01  C 
ENDBRANCH 1 17
BRANCH 1 20
ATOM     20  C   VAL B 303      14.164   4.857  33.066  1.00 37.27 LIG 0.24  C 
ATOM     21 O    VAL B 303      15.280   4.358  33.221  1.00 36.92 LIG-0.27  OA
ATOM     22  N   SER B 304      13.084   4.420  33.702  1.00 37.37 LIG-0.34  N 
ATOM     23 H    SER B 304      12.301   4.765  33.616  1.00 37.37 LIG 0.16  HD
BRANCH 22 24
ATOM     24  CA  SER B 304      13.149   3.290  34.621  1.00 37.74 LIG 0.20  C 
BRANCH 24 25
ATOM     25  CB  SER B 304      13.151   3.783  36.070  1.00 37.88 LIG 0.20  C 
BRANCH 25 26
ATOM     26 OG   SER B 304      13.153   5.200  36.121  1.00 38.36 LIG-0.40  OA
ATOM     27 HG   SER B 304      13.830   5.464  36.543  1.00 38.36 LIG 0.21  HD
ENDBRANCH 25 26
ENDBRANCH 24 25
BRANCH 24 28
ATOM     28  C   SER B 304      11.949   2.378  34.383  1.00 37.93 LIG 0.24  C 
ATOM     29 O    SER B 304      11.805   1.348  35.042  1.00 38.21 LIG-0.27  OA
ATOM     30  N   ALA B 305      11.090   2.759  33.443  1.00 38.06 LIG-0.35  N 
ATOM     31 H    ALA B 305      11.178   3.473  32.972  1.00 38.06 LIG 0.16  HD
BRANCH 30 32
ATOM     32  CA  ALA B 305       9.903   1.971  33.131  1.00 38.30 LIG 0.16  C 
ATOM     33  CB  ALA B 305      10.319   0.600  32.600  1.00 38.13 LIG 0.04  C 
BRANCH 32 34
ATOM     34  C   ALA B 305       9.009   1.806  34.354  1.00 38.47 LIG 0.22  C 
ATOM     35 O    ALA B 305       7.783   1.655  34.169  1.00 38.58 LIG-0.29  OA
ENDBRANCH 32 34
ENDBRANCH 30 32
ENDBRANCH 24 28
ENDBRANCH 22 24
ENDBRANCH 1 20
TORSDOF 14
ENDMDL
MODEL 4
USER: ADFR SOLUTION from run 50
USER: SCORE 10.250488 LL:  -1.994 LR: -10.394 RR:   0.000 FEB:  -6.218
USER: RMSD 9.170867
USER: SEED 49
USER: STATUS no improvement in best in 26 clusters for 5 generations
USER: GENES 16
USER: genes 0 Translation |==|  0.47946 0.52067 0.37759
USER: genes 1 Rotation |==|  0.33966 0.54779 0.03262 0.55967
USER: genes 2 Torsion [CB]-CA--N-[C] |==|  0.43889
USER: genes 3 Torsion [N]-C--CA-[N] |==|  0.28343
USER: genes 4 Torsion [C]-CA--N-[C] |==|  0.60228
USER: genes 5 Torsion [N]-C--CA-[N] |==|  0.28864
USER: genes 6 Torsion [C]-CA--CB-[OG] |==|  0.65622
USER: genes 7 Torsion [CA]-CB--OG-[HG] |==|  0.13848
USER: genes 8 Torsion [N]-CA--CB-[CG1] |==|  0.84229
USER: genes 9 Torsion [N]-CA--C-[N] |==|  0.45147
USER: genes 10 Torsion [C]-N--CA-[CB] |==|  0.48910
USER: genes 11 Torsion [N]-CA--CB-[OG] |==|  0.01737
USER: genes 12 Torsion [CA]-CB--OG-[HG] |==|  0.83683
USER: genes 13 Torsion [N]-CA--C-[N] |==|  0.48288
USER: genes 14 Torsion [C]-N--CA-[C] |==|  0.14327
USER: genes 15 Torsion [N]-CA--C-[O] |==|  0.60963
ROOT
ATOM      1  CA  VAL B 303      12.659   5.055  31.596  1.00 37.13 LIG 0.18  C 
ENDROOT
BRANCH 1 2
ATOM      2  N   VAL B 303      14.004   5.598  31.452  1.00 37.20 LIG-0.35  N 
ATOM      3  C   SER B 302      14.675   6.089  32.489  1.00 37.39 LIG 0.24  C 
ATOM      4 O    SER B 302      14.207   6.136  33.630  1.00 37.76 LIG-0.27  OA
ATOM      5 H    VAL B 303      14.314   5.571  30.651  1.00 37.20 LIG 0.16  HD
BRANCH 3 6
ATOM      6  CA  SER B 302      16.076   6.614  32.194  1.00 37.09 LIG 0.20  C 
BRANCH 6 7
ATOM      7  N   SER B 302      16.078   8.070  32.121  1.00 36.48 LIG-0.34  N 
ATOM      8 H    SER B 302      15.551   8.454  32.682  1.00 36.48 LIG 0.16  HD
ATOM      9  C   ALA B 301      16.840   8.724  31.251  1.00 36.26 LIG 0.26  C 
ATOM     10 O    ALA B 301      17.593   8.154  30.461  1.00 35.88 LIG-0.27  OA
BRANCH 9 11
ATOM     11  CA  ALA B 301      16.741  10.246  31.274  1.00 36.43 LIG 0.40  C 
ATOM     12  CB  ALA B 301      16.628  10.783  29.851  1.00 36.70 LIG 0.06  C 
ATOM     13  N   ALA B 301      17.929  10.848  31.948  1.00 36.51 LIG 0.61  N 
ENDBRANCH 9 11
ENDBRANCH 6 7
BRANCH 6 14
ATOM     14  CB  SER B 302      17.042   6.130  33.280  1.00 37.65 LIG 0.20  C 
BRANCH 14 15
ATOM     15 OG   SER B 302      17.702   7.220  33.898  1.00 38.63 LIG-0.40  OA
ATOM     16 HG   SER B 302      17.136   7.796  34.128  1.00 38.63 LIG 0.21  HD
ENDBRANCH 14 15
ENDBRANCH 6 14
ENDBRANCH 3 6
ENDBRANCH 1 2
BRANCH 1 17
ATOM     17  CB  VAL B 303      11.895   5.058  30.247  1.00 37.28 LIG 0.01  C 
ATOM     18  CG1 VAL B 303      11.846   6.465  29.682  1.00 36.92 LIG 0.01  C 
ATOM     19  CG2 VAL B 303      12.569   4.114  29.260  1.00 37.06 LIG 0.01  C 
ENDBRANCH 1 17
BRANCH 1 20
ATOM     20  C   VAL B 303      12.742   3.623  32.106  1.00 37.27 LIG 0.24  C 
ATOM     21 O    VAL B 303      13.798   2.991  32.041  1.00 36.92 LIG-0.27  OA
ATOM     22  N   SER B 304      11.630   3.115  32.624  1.00 37.37 LIG-0.34  N 
ATOM     23 H    SER B 304      10.888   3.546  32.690  1.00 37.37 LIG 0.16  HD
BRANCH 22 24
ATOM     24  CA  SER B 304      11.584   1.751  33.135  1.00 37.74 LIG 0.20  C 
BRANCH 24 25
ATOM     25  CB  SER B 304      10.216   1.463  33.758  1.00 37.88 LIG 0.20  C 
BRANCH 25 26
ATOM     26 OG   SER B 304       9.325   2.545  33.543  1.00 38.36 LIG-0.40  OA
ATOM     27 HG   SER B 304       9.648   3.245  33.877  1.00 38.36 LIG 0.21  HD
ENDBRANCH 25 26
ENDBRANCH 24 25
BRANCH 24 28
ATOM     28  C   SER B 304      11.850   0.776  31.991  1.00 37.93 LIG 0.24  C 
ATOM     29 O    SER B 304      11.950   1.182  30.833  1.00 38.21 LIG-0.27  OA
ATOM     30  N   ALA B 305      11.967  -0.506  32.318  1.00 38.06 LIG-0.35  N 
ATOM     31 H    ALA B 305      11.898  -0.806  33.121  1.00 38.06 LIG 0.16  HD
BRANCH 30 32
ATOM     32  CA  ALA B 305      12.229  -1.529  31.312  1.00 38.30 LIG 0.16  C 
ATOM     33  CB  ALA B 305      10.992  -1.718  30.435  1.00 38.13 LIG 0.04  C 
BRANCH 32 34
ATOM     34  C   ALA B 305      13.429  -1.162  30.446  1.00 38.47 LIG 0.22  C 
ATOM     35 O    ALA B 305      13.368  -1.409  29.223  1.00 38.58 LIG-0.29  OA
ENDBRANCH 32 34
ENDBRANCH 30 32
ENDBRANCH 24 28
ENDBRANCH 22 24
ENDBRANCH 1 20
TORSDOF 14
ENDMDL
MODEL 5
USER: ADFR SOLUTION from run 21
USER: SCORE 9.698306 LL:  -1.828 LR: -10.384 RR:   0.000 FEB:  -6.208
USER: RMSD 1.411914
USER: SEED 20
USER: STATUS no improvement in best in 26 clusters for 5 generations
USER: GENES 16
USER: genes 0 Translation |==|  0.51048 0.45919 0.41541
USER: genes 1 Rotation |==|  0.55021 0.48936 0.48235 0.99705
USER: genes 2 Torsion [CB]-CA--N-[C] |==|  0.26482
USER: genes 3 Torsion [N]-C--CA-[N] |==|  0.47636
USER: genes 4 Torsion [C]-CA--N-[C] |==|  0.53333
USER: genes 5 Torsion [N]-C--CA-[N] |==|  0.55784
USER: genes 6 Torsion [C]-CA--CB-[OG] |==|  0.45400
USER: genes 7 Torsion [CA]-CB--OG-[HG] |==|  0.59307
USER: genes 8 Torsion [N]-CA--CB-[CG1] |==|  0.24754
USER: genes 9 Torsion [N]-CA--C-[N] |==|  0.48756
USER: genes 10 Torsion [C]-N--CA-[CB] |==|  0.24385
USER: genes 11 Torsion [N]-CA--CB-[OG] |==|  0.80749
USER: genes 12 Torsion [CA]-CB--OG-[HG] |==|  0.74857
USER: genes 13 Torsion [N]-CA--C-[N] |==|  0.33243
USER: genes 14 Torsion [C]-N--CA-[C] |==|  0.49822
USER: genes 15 Torsion [N]-CA--C-[O] |==|  0.99499
ROOT
ATOM      1  CA  VAL B 303      13.287   3.810  32.163  1.00 37.13 LIG 0.18  C 
ENDROOT
BRANCH 1 2
ATOM      2  N   VAL B 303      11.974   3.513  32.721  1.00 37.20 LIG-0.35  N 
ATOM      3  C   SER B 302      11.460   2.288  32.692  1.00 37.39 LIG 0.24  C 
ATOM      4 O    SER B 302      12.044   1.329  32.181  1.00 37.76 LIG-0.27  OA
ATOM      5 H    VAL B 303      11.573   4.192  33.064  1.00 37.20 LIG 0.16  HD
BRANCH 3 6
ATOM      6  CA  SER B 302      10.082   2.122  33.323  1.00 37.09 LIG 0.20  C 
BRANCH 6 7
ATOM      7  N   SER B 302       9.547   0.794  33.052  1.00 36.48 LIG-0.34  N 
ATOM      8 H    SER B 302      10.119   0.239  32.730  1.00 36.48 LIG 0.16  HD
ATOM      9  C   ALA B 301       8.275   0.493  33.293  1.00 36.26 LIG 0.26  C 
ATOM     10 O    ALA B 301       7.473   1.301  33.762  1.00 35.88 LIG-0.27  OA
BRANCH 9 11
ATOM     11  CA  ALA B 301       7.841  -0.931  32.957  1.00 36.43 LIG 0.40  C 
ATOM     12  CB  ALA B 301       8.532  -1.398  31.680  1.00 36.70 LIG 0.06  C 
ATOM     13  N   ALA B 301       6.360  -1.011  32.787  1.00 36.51 LIG 0.61  N 
ENDBRANCH 9 11
ENDBRANCH 6 7
BRANCH 6 14
ATOM     14  CB  SER B 302      10.180   2.363  34.833  1.00 37.65 LIG 0.20  C 
BRANCH 14 15
ATOM     15 OG   SER B 302       8.901   2.593  35.396  1.00 38.63 LIG-0.40  OA
ATOM     16 HG   SER B 302       8.969   3.138  36.032  1.00 38.63 LIG 0.21  HD
ENDBRANCH 14 15
ENDBRANCH 6 14
ENDBRANCH 3 6
ENDBRANCH 1 2
BRANCH 1 17
ATOM     17  CB  VAL B 303      13.183   4.338  30.709  1.00 37.28 LIG 0.01  C 
ATOM     18  CG1 VAL B 303      13.034   5.848  30.715  1.00 36.92 LIG 0.01  C 
ATOM     19  CG2 VAL B 303      14.416   3.930  29.914  1.00 37.06 LIG 0.01  C 
ENDBRANCH 1 17
BRANCH 1 20
ATOM     20  C   VAL B 303      13.976   4.864  33.018  1.00 37.27 LIG 0.24  C 
ATOM     21 O    VAL B 303      13.390   5.384  33.970  1.00 36.92 LIG-0.27  OA
ATOM     22  N   SER B 304      15.224   5.172  32.685  1.00 37.37 LIG-0.34  N 
ATOM     23 H    SER B 304      15.652   4.810  32.033  1.00 37.37 LIG 0.16  HD
BRANCH 22 24
ATOM     24  CA  SER B 304      15.982   6.175  33.422  1.00 37.74 LIG 0.20  C 
BRANCH 24 25
ATOM     25  CB  SER B 304      16.702   5.531  34.609  1.00 37.88 LIG 0.20  C 
BRANCH 25 26
ATOM     26 OG   SER B 304      15.774   5.120  35.600  1.00 38.36 LIG-0.40  OA
ATOM     27 HG   SER B 304      15.654   5.745  36.149  1.00 38.36 LIG 0.21  HD
ENDBRANCH 25 26
ENDBRANCH 24 25
BRANCH 24 28
ATOM     28  C   SER B 304      16.998   6.826  32.488  1.00 37.93 LIG 0.24  C 
ATOM     29 O    SER B 304      17.868   6.148  31.941  1.00 38.21 LIG-0.27  OA
ATOM     30  N   ALA B 305      16.884   8.137  32.306  1.00 38.06 LIG-0.35  N 
ATOM     31 H    ALA B 305      16.284   8.624  32.682  1.00 38.06 LIG 0.16  HD
BRANCH 30 32
ATOM     32  CA  ALA B 305      17.793   8.867  31.431  1.00 38.30 LIG 0.16  C 
ATOM     33  CB  ALA B 305      17.744   8.272  30.024  1.00 38.13 LIG 0.04  C 
BRANCH 32 34
ATOM     34  C   ALA B 305      17.445  10.350  31.379  1.00 38.47 LIG 0.22  C 
ATOM     35 O    ALA B 305      16.453  10.742  32.028  1.00 38.58 LIG-0.29  OA
ENDBRANCH 32 34
ENDBRANCH 30 32
ENDBRANCH 24 28
ENDBRANCH 22 24
ENDBRANCH 1 20
TORSDOF 14
ENDMDL
MODEL 6
USER: ADFR SOLUTION from run 90
USER: SCORE 11.217043 LL:  -1.790 LR: -10.380 RR:   0.000 FEB:  -6.204
USER: RMSD 7.776557
USER: SEED 89
USER: STATUS no improvement in best in 18 clusters for 5 generations
USER: GENES 16
USER: genes 0 Translation |==|  0.74453 0.71058 0.41620
USER: genes 1 Rotation |==|  0.33085 0.39110 0.74658 0.88565
USER: genes 2 Torsion [CB]-CA--N-[C] |==|  0.88524
USER: genes 3 Torsion [N]-C--CA-[N] |==|  0.98644
USER: genes 4 Torsion [C]-CA--N-[C] |==|  0.78725
USER: genes 5 Torsion [N]-C--CA-[N] |==|  0.34576
USER: genes 6 Torsion [C]-CA--CB-[OG] |==|  0.56989
USER: genes 7 Torsion [CA]-CB--OG-[HG] |==|  0.57871
USER: genes 8 Torsion [N]-CA--CB-[CG1] |==|  0.34265
USER: genes 9 Torsion [N]-CA--C-[N] |==|  0.38829
USER: genes 10 Torsion [C]-N--CA-[CB] |==|  0.52222
USER: genes 11 Torsion [N]-CA--CB-[OG] |==|  0.83750
USER: genes 12 Torsion [CA]-CB--OG-[HG] |==|  0.20389
USER: genes 13 Torsion [N]-CA--C-[N] |==|  0.41799
USER: genes 14 Torsion [C]-N--CA-[C] |==|  0.84868
USER: genes 15 Torsion [N]-CA--C-[O] |==|  0.30959
ROOT
ATOM      1  CA  VAL B 303      18.027   8.900  32.175  1.00 37.13 LIG 0.18  C 
ENDROOT
BRANCH 1 2
ATOM      2  N   VAL B 303      17.209   7.880  32.820  1.00 37.20 LIG-0.35  N 
ATOM      3  C   SER B 302      16.538   6.973  32.118  1.00 37.39 LIG 0.24  C 
ATOM      4 O    SER B 302      16.545   6.941  30.884  1.00 37.76 LIG-0.27  OA
ATOM      5 H    VAL B 303      17.204   7.921  33.679  1.00 37.20 LIG 0.16  HD
BRANCH 3 6
ATOM      6  CA  SER B 302      15.734   5.960  32.925  1.00 37.09 LIG 0.20  C 
BRANCH 6 7
ATOM      7  N   SER B 302      15.965   6.136  34.352  1.00 36.48 LIG-0.34  N 
ATOM      8 H    SER B 302      15.326   6.531  34.770  1.00 36.48 LIG 0.16  HD
ATOM      9  C   ALA B 301      17.082   5.711  34.935  1.00 36.26 LIG 0.26  C 
ATOM     10 O    ALA B 301      17.982   5.140  34.319  1.00 35.88 LIG-0.27  OA
BRANCH 9 11
ATOM     11  CA  ALA B 301      17.202   5.965  36.435  1.00 36.43 LIG 0.40  C 
ATOM     12  CB  ALA B 301      18.332   6.953  36.707  1.00 36.70 LIG 0.06  C 
ATOM     13  N   ALA B 301      17.456   4.693  37.173  1.00 36.51 LIG 0.61  N 
ENDBRANCH 9 11
ENDBRANCH 6 7
BRANCH 6 14
ATOM     14  CB  SER B 302      14.245   6.116  32.600  1.00 37.65 LIG 0.20  C 
BRANCH 14 15
ATOM     15 OG   SER B 302      13.438   5.655  33.669  1.00 38.63 LIG-0.40  OA
ATOM     16 HG   SER B 302      12.703   5.383  33.368  1.00 38.63 LIG 0.21  HD
ENDBRANCH 14 15
ENDBRANCH 6 14
ENDBRANCH 3 6
ENDBRANCH 1 2
BRANCH 1 17
ATOM     17  CB  VAL B 303      18.832   8.318  30.985  1.00 37.28 LIG 0.01  C 
ATOM     18  CG1 VAL B 303      18.513   9.087  29.716  1.00 36.92 LIG 0.01  C 
ATOM     19  CG2 VAL B 303      20.325   8.381  31.281  1.00 37.06 LIG 0.01  C 
ENDBRANCH 1 17
BRANCH 1 20
ATOM     20  C   VAL B 303      17.131  10.017  31.659  1.00 37.27 LIG 0.24  C 
ATOM     21 O    VAL B 303      16.043   9.762  31.139  1.00 36.92 LIG-0.27  OA
ATOM     22  N   SER B 304      17.583  11.256  31.812  1.00 37.37 LIG-0.34  N 
ATOM     23 H    SER B 304      18.333  11.453  32.184  1.00 37.37 LIG 0.16  HD
BRANCH 22 24
ATOM     24  CA  SER B 304      16.819  12.407  31.347  1.00 37.74 LIG 0.20  C 
BRANCH 24 25
ATOM     25  CB  SER B 304      17.654  13.684  31.469  1.00 37.88 LIG 0.20  C 
BRANCH 25 26
ATOM     26 OG   SER B 304      18.060  13.895  32.812  1.00 38.36 LIG-0.40  OA
ATOM     27 HG   SER B 304      18.665  13.347  33.012  1.00 38.36 LIG 0.21  HD
ENDBRANCH 25 26
ENDBRANCH 24 25
BRANCH 24 28
ATOM     28  C   SER B 304      16.414  12.188  29.893  1.00 37.93 LIG 0.24  C 
ATOM     29 O    SER B 304      17.115  11.507  29.143  1.00 38.21 LIG-0.27  OA
ATOM     30  N   ALA B 305      15.282  12.762  29.498  1.00 38.06 LIG-0.35  N 
ATOM     31 H    ALA B 305      14.783  13.241  30.008  1.00 38.06 LIG 0.16  HD
BRANCH 30 32
ATOM     32  CA  ALA B 305      14.790  12.617  28.133  1.00 38.30 LIG 0.16  C 
ATOM     33  CB  ALA B 305      13.525  13.454  27.949  1.00 38.13 LIG 0.04  C 
BRANCH 32 34
ATOM     34  C   ALA B 305      15.843  13.038  27.115  1.00 38.47 LIG 0.22  C 
ATOM     35 O    ALA B 305      16.352  12.152  26.395  1.00 38.58 LIG-0.29  OA
ENDBRANCH 32 34
ENDBRANCH 30 32
ENDBRANCH 24 28
ENDBRANCH 22 24
ENDBRANCH 1 20
TORSDOF 14
ENDMDL
MODEL 7
USER: ADFR SOLUTION from run 36
USER: SCORE 10.540362 LL:  -1.480 LR: -10.305 RR:   0.000 FEB:  -6.129
USER: RMSD 3.801978
USER: SEED 35
USER: STATUS no improvement in best in 19 clusters for 5 generations
USER: GENES 16
USER: genes 0 Translation |==|  0.57151 0.51403 0.33555
USER: genes 1 Rotation |==|  0.59876 0.66232 0.55880 0.95874
USER: genes 2 Torsion [CB]-CA--N-[C] |==|  0.77524
USER: genes 3 Torsion [N]-C--CA-[N] |==|  0.51652
USER: genes 4 Torsion [C]-CA--N-[C] |==|  0.63703
USER: genes 5 Torsion [N]-C--CA-[N] |==|  0.12933
USER: genes 6 Torsion [C]-CA--CB-[OG] |==|  0.67277
USER: genes 7 Torsion [CA]-CB--OG-[HG] |==|  0.12397
USER: genes 8 Torsion [N]-CA--CB-[CG1] |==|  0.67499
USER: genes 9 Torsion [N]-CA--C-[N] |==|  0.17015
USER: genes 10 Torsion [C]-N--CA-[CB] |==|  0.53333
USER: genes 11 Torsion [N]-CA--CB-[OG] |==|  0.06349
USER: genes 12 Torsion [CA]-CB--OG-[HG] |==|  0.65134
USER: genes 13 Torsion [N]-CA--C-[N] |==|  0.35186
USER: genes 14 Torsion [C]-N--CA-[C] |==|  0.52605
USER: genes 15 Torsion [N]-CA--C-[O] |==|  0.84504
ROOT
ATOM      1  CA  VAL B 303      14.523   4.920  30.965  1.00 37.13 LIG 0.18  C 
ENDROOT
BRANCH 1 2
ATOM      2  N   VAL B 303      14.012   4.057  32.022  1.00 37.20 LIG-0.35  N 
ATOM      3  C   SER B 302      13.511   4.550  33.150  1.00 37.39 LIG 0.24  C 
ATOM      4 O    SER B 302      13.460   5.760  33.387  1.00 37.76 LIG-0.27  OA
ATOM      5 H    VAL B 303      14.063   3.216  31.849  1.00 37.20 LIG 0.16  HD
BRANCH 3 6
ATOM      6  CA  SER B 302      13.002   3.529  34.162  1.00 37.09 LIG 0.20  C 
BRANCH 6 7
ATOM      7  N   SER B 302      12.355   4.195  35.285  1.00 36.48 LIG-0.34  N 
ATOM      8 H    SER B 302      11.773   4.786  35.060  1.00 36.48 LIG 0.16  HD
ATOM      9  C   ALA B 301      12.658   3.892  36.544  1.00 36.26 LIG 0.26  C 
ATOM     10 O    ALA B 301      13.490   3.036  36.844  1.00 35.88 LIG-0.27  OA
BRANCH 9 11
ATOM     11  CA  ALA B 301      11.913   4.669  37.625  1.00 36.43 LIG 0.40  C 
ATOM     12  CB  ALA B 301      12.144   4.019  38.986  1.00 36.70 LIG 0.06  C 
ATOM     13  N   ALA B 301      10.450   4.721  37.333  1.00 36.51 LIG 0.61  N 
ENDBRANCH 9 11
ENDBRANCH 6 7
BRANCH 6 14
ATOM     14  CB  SER B 302      12.027   2.570  33.473  1.00 37.65 LIG 0.20  C 
BRANCH 14 15
ATOM     15 OG   SER B 302      10.734   2.659  34.044  1.00 38.63 LIG-0.40  OA
ATOM     16 HG   SER B 302      10.531   3.467  34.152  1.00 38.63 LIG 0.21  HD
ENDBRANCH 14 15
ENDBRANCH 6 14
ENDBRANCH 3 6
ENDBRANCH 1 2
BRANCH 1 17
ATOM     17  CB  VAL B 303      13.378   5.483  30.084  1.00 37.28 LIG 0.01  C 
ATOM     18  CG1 VAL B 303      13.529   4.988  28.658  1.00 36.92 LIG 0.01  C 
ATOM     19  CG2 VAL B 303      12.028   5.067  30.650  1.00 37.06 LIG 0.01  C 
ENDBRANCH 1 17
BRANCH 1 20
ATOM     20  C   VAL B 303      15.281   6.086  31.585  1.00 37.27 LIG 0.24  C 
ATOM     21 O    VAL B 303      14.905   7.246  31.410  1.00 36.92 LIG-0.27  OA
ATOM     22  N   SER B 304      16.344   5.776  32.318  1.00 37.37 LIG-0.34  N 
ATOM     23 H    SER B 304      16.613   4.972  32.462  1.00 37.37 LIG 0.16  HD
BRANCH 22 24
ATOM     24  CA  SER B 304      17.156   6.807  32.953  1.00 37.74 LIG 0.20  C 
BRANCH 24 25
ATOM     25  CB  SER B 304      18.463   6.207  33.476  1.00 37.88 LIG 0.20  C 
BRANCH 25 26
ATOM     26 OG   SER B 304      18.781   5.010  32.785  1.00 38.36 LIG-0.40  OA
ATOM     27 HG   SER B 304      18.894   4.388  33.339  1.00 38.36 LIG 0.21  HD
ENDBRANCH 25 26
ENDBRANCH 24 25
BRANCH 24 28
ATOM     28  C   SER B 304      17.457   7.906  31.938  1.00 37.93 LIG 0.24  C 
ATOM     29 O    SER B 304      17.955   7.630  30.846  1.00 38.21 LIG-0.27  OA
ATOM     30  N   ALA B 305      17.153   9.148  32.298  1.00 38.06 LIG-0.35  N 
ATOM     31 H    ALA B 305      16.807   9.357  33.057  1.00 38.06 LIG 0.16  HD
BRANCH 30 32
ATOM     32  CA  ALA B 305      17.389  10.280  31.409  1.00 38.30 LIG 0.16  C 
ATOM     33  CB  ALA B 305      16.460  10.188  30.200  1.00 38.13 LIG 0.04  C 
BRANCH 32 34
ATOM     34  C   ALA B 305      17.176  11.606  32.129  1.00 38.47 LIG 0.22  C 
ATOM     35 O    ALA B 305      16.074  11.803  32.682  1.00 38.58 LIG-0.29  OA
ENDBRANCH 32 34
ENDBRANCH 30 32
ENDBRANCH 24 28
ENDBRANCH 22 24
ENDBRANCH 1 20
TORSDOF 14
ENDMDL
MODEL 8
USER: ADFR SOLUTION from run 19
USER: SCORE 9.321854 LL:  -2.001 LR: -10.208 RR:   0.000 FEB:  -6.031
USER: RMSD 9.237343
USER: SEED 18
USER: STATUS no improvement in best in 30 clusters for 5 generations
USER: GENES 16
USER: genes 0 Translation |==|  0.47941 0.52808 0.34710
USER: genes 1 Rotation |==|  0.38824 0.55677 0.01654 0.52361
USER: genes 2 Torsion [CB]-CA--N-[C] |==|  0.43125
USER: genes 3 Torsion [N]-C--CA-[N] |==|  0.29056
USER: genes 4 Torsion [C]-CA--N-[C] |==|  0.63943
USER: genes 5 Torsion [N]-C--CA-[N] |==|  0.27877
USER: genes 6 Torsion [C]-CA--CB-[OG] |==|  0.75324
USER: genes 7 Torsion [CA]-CB--OG-[HG] |==|  0.12470
USER: genes 8 Torsion [N]-CA--CB-[CG1] |==|  0.78089
USER: genes 9 Torsion [N]-CA--C-[N] |==|  0.23005
USER: genes 10 Torsion [C]-N--CA-[CB] |==|  0.47780
USER: genes 11 Torsion [N]-CA--CB-[OG] |==|  0.03641
USER: genes 12 Torsion [CA]-CB--OG-[HG] |==|  0.08767
USER: genes 13 Torsion [N]-CA--C-[N] |==|  0.40486
USER: genes 14 Torsion [C]-N--CA-[C] |==|  0.81486
USER: genes 15 Torsion [N]-CA--C-[O] |==|  0.20525
ROOT
ATOM      1  CA  VAL B 303      12.658   5.205  31.138  1.00 37.13 LIG 0.18  C 
ENDROOT
BRANCH 1 2
ATOM      2  N   VAL B 303      14.079   5.508  31.254  1.00 37.20 LIG-0.35  N 
ATOM      3  C   SER B 302      14.613   5.940  32.391  1.00 37.39 LIG 0.24  C 
ATOM      4 O    SER B 302      13.949   6.130  33.414  1.00 37.76 LIG-0.27  OA
ATOM      5 H    VAL B 303      14.528   5.382  30.531  1.00 37.20 LIG 0.16  HD
BRANCH 3 6
ATOM      6  CA  SER B 302      16.115   6.206  32.369  1.00 37.09 LIG 0.20  C 
BRANCH 6 7
ATOM      7  N   SER B 302      16.384   7.637  32.325  1.00 36.48 LIG-0.34  N 
ATOM      8 H    SER B 302      15.963   8.097  32.917  1.00 36.48 LIG 0.16  HD
ATOM      9  C   ALA B 301      17.217   8.163  31.432  1.00 36.26 LIG 0.26  C 
ATOM     10 O    ALA B 301      17.816   7.485  30.597  1.00 35.88 LIG-0.27  OA
BRANCH 9 11
ATOM     11  CA  ALA B 301      17.405   9.676  31.489  1.00 36.43 LIG 0.40  C 
ATOM     12  CB  ALA B 301      17.421  10.252  30.076  1.00 36.70 LIG 0.06  C 
ATOM     13  N   ALA B 301      18.672  10.031  32.193  1.00 36.51 LIG 0.61  N 
ENDBRANCH 9 11
ENDBRANCH 6 7
BRANCH 6 14
ATOM     14  CB  SER B 302      16.763   5.577  33.606  1.00 37.65 LIG 0.20  C 
BRANCH 14 15
ATOM     15 OG   SER B 302      16.765   6.480  34.697  1.00 38.63 LIG-0.40  OA
ATOM     16 HG   SER B 302      16.013   6.850  34.756  1.00 38.63 LIG 0.21  HD
ENDBRANCH 14 15
ENDBRANCH 6 14
ENDBRANCH 3 6
ENDBRANCH 1 2
BRANCH 1 17
ATOM     17  CB  VAL B 303      12.166   5.324  29.673  1.00 37.28 LIG 0.01  C 
ATOM     18  CG1 VAL B 303      11.950   6.782  29.315  1.00 36.92 LIG 0.01  C 
ATOM     19  CG2 VAL B 303      13.177   4.690  28.727  1.00 37.06 LIG 0.01  C 
ENDBRANCH 1 17
BRANCH 1 20
ATOM     20  C   VAL B 303      12.400   3.786  31.626  1.00 37.27 LIG 0.24  C 
ATOM     21 O    VAL B 303      12.330   2.849  30.829  1.00 36.92 LIG-0.27  OA
ATOM     22  N   SER B 304      12.270   3.627  32.938  1.00 37.37 LIG-0.34  N 
ATOM     23 H    SER B 304      12.328   4.267  33.509  1.00 37.37 LIG 0.16  HD
BRANCH 22 24
ATOM     24  CA  SER B 304      12.009   2.317  33.523  1.00 37.74 LIG 0.20  C 
BRANCH 24 25
ATOM     25  CB  SER B 304      12.102   2.389  35.048  1.00 37.88 LIG 0.20  C 
BRANCH 25 26
ATOM     26 OG   SER B 304      12.114   3.736  35.491  1.00 38.36 LIG-0.40  OA
ATOM     27 HG   SER B 304      11.661   4.208  34.964  1.00 38.36 LIG 0.21  HD
ENDBRANCH 25 26
ENDBRANCH 24 25
BRANCH 24 28
ATOM     28  C   SER B 304      10.618   1.848  33.106  1.00 37.93 LIG 0.24  C 
ATOM     29 O    SER B 304       9.702   2.658  32.961  1.00 38.21 LIG-0.27  OA
ATOM     30  N   ALA B 305      10.464   0.543  32.914  1.00 38.06 LIG-0.35  N 
ATOM     31 H    ALA B 305      11.092  -0.035  33.013  1.00 38.06 LIG 0.16  HD
BRANCH 30 32
ATOM     32  CA  ALA B 305       9.181  -0.021  32.508  1.00 38.30 LIG 0.16  C 
ATOM     33  CB  ALA B 305       9.355  -1.499  32.159  1.00 38.13 LIG 0.04  C 
BRANCH 32 34
ATOM     34  C   ALA B 305       8.134   0.133  33.606  1.00 38.47 LIG 0.22  C 
ATOM     35 O    ALA B 305       7.653   1.268  33.802  1.00 38.58 LIG-0.29  OA
ENDBRANCH 32 34
ENDBRANCH 30 32
ENDBRANCH 24 28
ENDBRANCH 22 24
ENDBRANCH 1 20
TORSDOF 14
ENDMDL
MODEL 9
USER: ADFR SOLUTION from run 186
USER: SCORE 11.178942 LL:  -2.025 LR: -10.203 RR:   0.000 FEB:  -6.026
USER: RMSD 8.081478
USER: SEED 185
USER: STATUS no improvement in best in 14 clusters for 5 generations
USER: GENES 16
USER: genes 0 Translation |==|  0.60765 0.59554 0.38104
USER: genes 1 Rotation |==|  0.25913 0.48341 0.90386 0.66912
USER: genes 2 Torsion [CB]-CA--N-[C] |==|  0.88194
USER: genes 3 Torsion [N]-C--CA-[N] |==|  0.88665
USER: genes 4 Torsion [C]-CA--N-[C] |==|  0.84444
USER: genes 5 Torsion [N]-C--CA-[N] |==|  0.12216
USER: genes 6 Torsion [C]-CA--CB-[OG] |==|  0.96407
USER: genes 7 Torsion [CA]-CB--OG-[HG] |==|  0.46067
USER: genes 8 Torsion [N]-CA--CB-[CG1] |==|  0.34831
USER: genes 9 Torsion [N]-CA--C-[N] |==|  0.88220
USER: genes 10 Torsion [C]-N--CA-[CB] |==|  0.17491
USER: genes 11 Torsion [N]-CA--CB-[OG] |==|  0.14180
USER: genes 12 Torsion [CA]-CB--OG-[HG] |==|  0.97658
USER: genes 13 Torsion [N]-CA--C-[N] |==|  0.19296
USER: genes 14 Torsion [C]-N--CA-[C] |==|  0.78276
USER: genes 15 Torsion [N]-CA--C-[O] |==|  0.78036
ROOT
ATOM      1  CA  VAL B 303      15.255   6.571  31.648  1.00 37.13 LIG 0.18  C 
ENDROOT
BRANCH 1 2
ATOM      2  N   VAL B 303      15.243   6.223  33.063  1.00 37.20 LIG-0.35  N 
ATOM      3  C   SER B 302      15.458   4.980  33.481  1.00 37.39 LIG 0.24  C 
ATOM      4 O    SER B 302      15.663   4.040  32.709  1.00 37.76 LIG-0.27  OA
ATOM      5 H    VAL B 303      15.088   6.885  33.589  1.00 37.20 LIG 0.16  HD
BRANCH 3 6
ATOM      6  CA  SER B 302      15.428   4.765  34.990  1.00 37.09 LIG 0.20  C 
BRANCH 6 7
ATOM      7  N   SER B 302      16.095   5.860  35.682  1.00 36.48 LIG-0.34  N 
ATOM      8 H    SER B 302      15.610   6.257  36.270  1.00 36.48 LIG 0.16  HD
ATOM      9  C   ALA B 301      17.352   6.195  35.407  1.00 36.26 LIG 0.26  C 
ATOM     10 O    ALA B 301      18.032   5.607  34.566  1.00 35.88 LIG-0.27  OA
BRANCH 9 11
ATOM     11  CA  ALA B 301      17.929   7.366  36.198  1.00 36.43 LIG 0.40  C 
ATOM     12  CB  ALA B 301      19.446   7.402  36.042  1.00 36.70 LIG 0.06  C 
ATOM     13  N   ALA B 301      17.573   7.260  37.644  1.00 36.51 LIG 0.61  N 
ENDBRANCH 9 11
ENDBRANCH 6 7
BRANCH 6 14
ATOM     14  CB  SER B 302      13.975   4.642  35.459  1.00 37.65 LIG 0.20  C 
BRANCH 14 15
ATOM     15 OG   SER B 302      13.075   5.050  34.444  1.00 38.63 LIG-0.40  OA
ATOM     16 HG   SER B 302      12.298   4.797  34.640  1.00 38.63 LIG 0.21  HD
ENDBRANCH 14 15
ENDBRANCH 6 14
ENDBRANCH 3 6
ENDBRANCH 1 2
BRANCH 1 17
ATOM     17  CB  VAL B 303      16.422   5.877  30.899  1.00 37.28 LIG 0.01  C 
ATOM     18  CG1 VAL B 303      15.887   5.094  29.715  1.00 36.92 LIG 0.01  C 
ATOM     19  CG2 VAL B 303      17.437   6.913  30.434  1.00 37.06 LIG 0.01  C 
ENDBRANCH 1 17
BRANCH 1 20
ATOM     20  C   VAL B 303      13.941   6.142  31.009  1.00 37.27 LIG 0.24  C 
ATOM     21 O    VAL B 303      13.365   6.874  30.202  1.00 36.92 LIG-0.27  OA
ATOM     22  N   SER B 304      13.474   4.950  31.362  1.00 37.37 LIG-0.34  N 
ATOM     23 H    SER B 304      13.870   4.421  31.913  1.00 37.37 LIG 0.16  HD
BRANCH 22 24
ATOM     24  CA  SER B 304      12.220   4.436  30.826  1.00 37.74 LIG 0.20  C 
BRANCH 24 25
ATOM     25  CB  SER B 304      12.324   4.258  29.309  1.00 37.88 LIG 0.20  C 
BRANCH 25 26
ATOM     26 OG   SER B 304      13.480   3.512  28.967  1.00 38.36 LIG-0.40  OA
ATOM     27 HG   SER B 304      13.957   3.403  29.650  1.00 38.36 LIG 0.21  HD
ENDBRANCH 25 26
ENDBRANCH 24 25
BRANCH 24 28
ATOM     28  C   SER B 304      11.901   3.099  31.487  1.00 37.93 LIG 0.24  C 
ATOM     29 O    SER B 304      11.959   2.052  30.842  1.00 38.21 LIG-0.27  OA
ATOM     30  N   ALA B 305      11.565   3.136  32.772  1.00 38.06 LIG-0.35  N 
ATOM     31 H    ALA B 305      11.517   3.859  33.236  1.00 38.06 LIG 0.16  HD
BRANCH 30 32
ATOM     32  CA  ALA B 305      11.245   1.921  33.512  1.00 38.30 LIG 0.16  C 
ATOM     33  CB  ALA B 305      11.390   2.176  35.011  1.00 38.13 LIG 0.04  C 
BRANCH 32 34
ATOM     34  C   ALA B 305       9.832   1.438  33.202  1.00 38.47 LIG 0.22  C 
ATOM     35 O    ALA B 305       8.879   2.011  33.768  1.00 38.58 LIG-0.29  OA
ENDBRANCH 32 34
ENDBRANCH 30 32
ENDBRANCH 24 28
ENDBRANCH 22 24
ENDBRANCH 1 20
TORSDOF 14
ENDMDL
MODEL 10
USER: ADFR SOLUTION from run 60
USER: SCORE 10.302357 LL:  -1.697 LR: -10.187 RR:   0.000 FEB:  -6.011
USER: RMSD 9.007125
USER: SEED 59
USER: STATUS no improvement in best in 24 clusters for 5 generations
USER: GENES 16
USER: genes 0 Translation |==|  0.53748 0.57058 0.41914
USER: genes 1 Rotation |==|  0.39371 0.45236 0.02373 0.59799
USER: genes 2 Torsion [CB]-CA--N-[C] |==|  0.87439
USER: genes 3 Torsion [N]-C--CA-[N] |==|  0.93149
USER: genes 4 Torsion [C]-CA--N-[C] |==|  0.67366
USER: genes 5 Torsion [N]-C--CA-[N] |==|  0.27521
USER: genes 6 Torsion [C]-CA--CB-[OG] |==|  0.72151
USER: genes 7 Torsion [CA]-CB--OG-[HG] |==|  0.09307
USER: genes 8 Torsion [N]-CA--CB-[CG1] |==|  0.41411
USER: genes 9 Torsion [N]-CA--C-[N] |==|  0.34474
USER: genes 10 Torsion [C]-N--CA-[CB] |==|  0.18553
USER: genes 11 Torsion [N]-CA--CB-[OG] |==|  0.01385
USER: genes 12 Torsion [CA]-CB--OG-[HG] |==|  0.38299
USER: genes 13 Torsion [N]-CA--C-[N] |==|  0.77783
USER: genes 14 Torsion [C]-N--CA-[C] |==|  0.54877
USER: genes 15 Torsion [N]-CA--C-[O] |==|  0.81374
ROOT
ATOM      1  CA  VAL B 303      13.834   6.065  32.219  1.00 37.13 LIG 0.18  C 
ENDROOT
BRANCH 1 2
ATOM      2  N   VAL B 303      15.026   6.903  32.230  1.00 37.20 LIG-0.35  N 
ATOM      3  C   SER B 302      16.139   6.547  31.598  1.00 37.39 LIG 0.24  C 
ATOM      4 O    SER B 302      16.247   5.485  30.978  1.00 37.76 LIG-0.27  OA
ATOM      5 H    VAL B 303      14.942   7.635  32.675  1.00 37.20 LIG 0.16  HD
BRANCH 3 6
ATOM      6  CA  SER B 302      17.305   7.526  31.685  1.00 37.09 LIG 0.20  C 
BRANCH 6 7
ATOM      7  N   SER B 302      16.825   8.879  31.935  1.00 36.48 LIG-0.34  N 
ATOM      8 H    SER B 302      16.410   8.977  32.682  1.00 36.48 LIG 0.16  HD
ATOM      9  C   ALA B 301      17.026   9.863  31.064  1.00 36.26 LIG 0.26  C 
ATOM     10 O    ALA B 301      17.630   9.703  30.003  1.00 35.88 LIG-0.27  OA
BRANCH 9 11
ATOM     11  CA  ALA B 301      16.464  11.229  31.444  1.00 36.43 LIG 0.40  C 
ATOM     12  CB  ALA B 301      15.850  11.899  30.219  1.00 36.70 LIG 0.06  C 
ATOM     13  N   ALA B 301      17.531  12.104  32.015  1.00 36.51 LIG 0.61  N 
ENDBRANCH 9 11
ENDBRANCH 6 7
BRANCH 6 14
ATOM     14  CB  SER B 302      18.262   7.083  32.796  1.00 37.65 LIG 0.20  C 
BRANCH 14 15
ATOM     15 OG   SER B 302      18.054   7.835  33.978  1.00 38.63 LIG-0.40  OA
ATOM     16 HG   SER B 302      17.240   8.030  34.047  1.00 38.63 LIG 0.21  HD
ENDBRANCH 14 15
ENDBRANCH 6 14
ENDBRANCH 3 6
ENDBRANCH 1 2
BRANCH 1 17
ATOM     17  CB  VAL B 303      13.526   5.530  30.797  1.00 37.28 LIG 0.01  C 
ATOM     18  CG1 VAL B 303      12.856   4.172  30.887  1.00 36.92 LIG 0.01  C 
ATOM     19  CG2 VAL B 303      12.634   6.512  30.049  1.00 37.06 LIG 0.01  C 
ENDBRANCH 1 17
BRANCH 1 20
ATOM     20  C   VAL B 303      14.038   4.881  33.153  1.00 37.27 LIG 0.24  C 
ATOM     21 O    VAL B 303      15.004   4.129  33.015  1.00 36.92 LIG-0.27  OA
ATOM     22  N   SER B 304      13.132   4.721  34.111  1.00 37.37 LIG-0.34  N 
ATOM     23 H    SER B 304      12.458   5.243  34.229  1.00 37.37 LIG 0.16  HD
BRANCH 22 24
ATOM     24  CA  SER B 304      13.214   3.617  35.058  1.00 37.74 LIG 0.20  C 
BRANCH 24 25
ATOM     25  CB  SER B 304      14.440   3.781  35.960  1.00 37.88 LIG 0.20  C 
BRANCH 25 26
ATOM     26 OG   SER B 304      15.093   5.014  35.706  1.00 38.36 LIG-0.40  OA
ATOM     27 HG   SER B 304      15.320   5.366  36.434  1.00 38.36 LIG 0.21  HD
ENDBRANCH 25 26
ENDBRANCH 24 25
BRANCH 24 28
ATOM     28  C   SER B 304      11.945   3.585  35.905  1.00 37.93 LIG 0.24  C 
ATOM     29 O    SER B 304      11.040   2.791  35.647  1.00 38.21 LIG-0.27  OA
ATOM     30  N   ALA B 305      11.882   4.445  36.915  1.00 38.06 LIG-0.35  N 
ATOM     31 H    ALA B 305      12.504   5.007  37.107  1.00 38.06 LIG 0.16  HD
BRANCH 30 32
ATOM     32  CA  ALA B 305      10.722   4.503  37.797  1.00 38.30 LIG 0.16  C 
ATOM     33  CB  ALA B 305      10.749   3.318  38.762  1.00 38.13 LIG 0.04  C 
BRANCH 32 34
ATOM     34  C   ALA B 305      10.684   5.810  38.581  1.00 38.47 LIG 0.22  C 
ATOM     35 O    ALA B 305      11.575   6.011  39.432  1.00 38.58 LIG-0.29  OA
ENDBRANCH 32 34
ENDBRANCH 30 32
ENDBRANCH 24 28
ENDBRANCH 22 24
ENDBRANCH 1 20
TORSDOF 14
ENDMDL
MODEL 11
USER: ADFR SOLUTION from run 40
USER: SCORE 11.040503 LL:  -1.759 LR: -10.121 RR:   0.000 FEB:  -5.945
USER: RMSD 5.823332
USER: SEED 39
USER: STATUS no improvement in best in 6 clusters for 5 generations
USER: GENES 16
USER: genes 0 Translation |==|  0.69686 0.60941 0.38320
USER: genes 1 Rotation |==|  0.38745 0.68778 0.56251 0.94516
USER: genes 2 Torsion [CB]-CA--N-[C] |==|  0.21217
USER: genes 3 Torsion [N]-C--CA-[N] |==|  0.35956
USER: genes 4 Torsion [C]-CA--N-[C] |==|  0.83447
USER: genes 5 Torsion [N]-C--CA-[N] |==|  0.30819
USER: genes 6 Torsion [C]-CA--CB-[OG] |==|  0.58061
USER: genes 7 Torsion [CA]-CB--OG-[HG] |==|  0.91626
USER: genes 8 Torsion [N]-CA--CB-[CG1] |==|  0.73312
USER: genes 9 Torsion [N]-CA--C-[N] |==|  0.89982
USER: genes 10 Torsion [C]-N--CA-[CB] |==|  0.85000
USER: genes 11 Torsion [N]-CA--CB-[OG] |==|  0.54040
USER: genes 12 Torsion [CA]-CB--OG-[HG] |==|  0.32419
USER: genes 13 Torsion [N]-CA--C-[N] |==|  0.36369
USER: genes 14 Torsion [C]-N--CA-[C] |==|  0.81502
USER: genes 15 Torsion [N]-CA--C-[O] |==|  0.35693
ROOT
ATOM      1  CA  VAL B 303      17.061   6.852  31.680  1.00 37.13 LIG 0.18  C 
ENDROOT
BRANCH 1 2
ATOM      2  N   VAL B 303      16.705   6.886  33.093  1.00 37.20 LIG-0.35  N 
ATOM      3  C   SER B 302      16.705   5.789  33.842  1.00 37.39 LIG 0.24  C 
ATOM      4 O    SER B 302      16.986   4.673  33.397  1.00 37.76 LIG-0.27  OA
ATOM      5 H    VAL B 303      16.500   7.668  33.388  1.00 37.20 LIG 0.16  HD
BRANCH 3 6
ATOM      6  CA  SER B 302      16.322   5.976  35.307  1.00 37.09 LIG 0.20  C 
BRANCH 6 7
ATOM      7  N   SER B 302      15.289   5.025  35.696  1.00 36.48 LIG-0.34  N 
ATOM      8 H    SER B 302      15.513   4.500  36.339  1.00 36.48 LIG 0.16  HD
ATOM      9  C   ALA B 301      14.106   4.994  35.090  1.00 36.26 LIG 0.26  C 
ATOM     10 O    ALA B 301      13.803   5.761  34.175  1.00 35.88 LIG-0.27  OA
BRANCH 9 11
ATOM     11  CA  ALA B 301      13.117   3.945  35.588  1.00 36.43 LIG 0.40  C 
ATOM     12  CB  ALA B 301      12.602   3.116  34.416  1.00 36.70 LIG 0.06  C 
ATOM     13  N   ALA B 301      11.970   4.586  36.296  1.00 36.51 LIG 0.61  N 
ENDBRANCH 9 11
ENDBRANCH 6 7
BRANCH 6 14
ATOM     14  CB  SER B 302      17.565   5.806  36.185  1.00 37.65 LIG 0.20  C 
BRANCH 14 15
ATOM     15 OG   SER B 302      17.220   5.317  37.468  1.00 38.63 LIG-0.40  OA
ATOM     16 HG   SER B 302      16.450   5.584  37.672  1.00 38.63 LIG 0.21  HD
ENDBRANCH 14 15
ENDBRANCH 6 14
ENDBRANCH 3 6
ENDBRANCH 1 2
BRANCH 1 17
ATOM     17  CB  VAL B 303      15.911   6.276  30.815  1.00 37.28 LIG 0.01  C 
ATOM     18  CG1 VAL B 303      16.138   4.797  30.567  1.00 36.92 LIG 0.01  C 
ATOM     19  CG2 VAL B 303      14.573   6.498  31.508  1.00 37.06 LIG 0.01  C 
ENDBRANCH 1 17
BRANCH 1 20
ATOM     20  C   VAL B 303      17.375   8.262  31.201  1.00 37.27 LIG 0.24  C 
ATOM     21 O    VAL B 303      18.257   8.461  30.363  1.00 36.92 LIG-0.27  OA
ATOM     22  N   SER B 304      16.644   9.239  31.724  1.00 37.37 LIG-0.34  N 
ATOM     23 H    SER B 304      16.017   9.117  32.300  1.00 37.37 LIG 0.16  HD
BRANCH 22 24
ATOM     24  CA  SER B 304      16.859  10.632  31.351  1.00 37.74 LIG 0.20  C 
BRANCH 24 25
ATOM     25  CB  SER B 304      18.326  11.016  31.557  1.00 37.88 LIG 0.20  C 
BRANCH 25 26
ATOM     26 OG   SER B 304      18.489  12.425  31.523  1.00 38.36 LIG-0.40  OA
ATOM     27 HG   SER B 304      18.765  12.693  32.270  1.00 38.36 LIG 0.21  HD
ENDBRANCH 25 26
ENDBRANCH 24 25
BRANCH 24 28
ATOM     28  C   SER B 304      16.470  10.828  29.889  1.00 37.93 LIG 0.24  C 
ATOM     29 O    SER B 304      16.887  10.059  29.022  1.00 38.21 LIG-0.27  OA
ATOM     30  N   ALA B 305      15.670  11.853  29.619  1.00 38.06 LIG-0.35  N 
ATOM     31 H    ALA B 305      15.372  12.400  30.212  1.00 38.06 LIG 0.16  HD
BRANCH 30 32
ATOM     32  CA  ALA B 305      15.225  12.136  28.259  1.00 38.30 LIG 0.16  C 
ATOM     33  CB  ALA B 305      14.159  13.230  28.282  1.00 38.13 LIG 0.04  C 
BRANCH 32 34
ATOM     34  C   ALA B 305      16.389  12.564  27.372  1.00 38.47 LIG 0.22  C 
ATOM     35 O    ALA B 305      16.545  11.972  26.283  1.00 38.58 LIG-0.29  OA
ENDBRANCH 32 34
ENDBRANCH 30 32
ENDBRANCH 24 28
ENDBRANCH 22 24
ENDBRANCH 1 20
TORSDOF 14
ENDMDL
MODEL 12
USER: ADFR SOLUTION from run 134
USER: SCORE 10.303179 LL:  -2.140 LR: -10.115 RR:   0.000 FEB:  -5.939
USER: RMSD 8.006449
USER: SEED 133
USER: STATUS no improvement in best in 25 clusters for 5 generations
USER: GENES 16
USER: genes 0 Translation |==|  0.73528 0.64410 0.41473
USER: genes 1 Rotation |==|  0.15278 0.36576 0.82766 0.56373
USER: genes 2 Torsion [CB]-CA--N-[C] |==|  0.86644
USER: genes 3 Torsion [N]-C--CA-[N] |==|  0.84827
USER: genes 4 Torsion [C]-CA--N-[C] |==|  0.84513
USER: genes 5 Torsion [N]-C--CA-[N] |==|  0.21512
USER: genes 6 Torsion [C]-CA--CB-[OG] |==|  0.80866
USER: genes 7 Torsion [CA]-CB--OG-[HG] |==|  0.93268
USER: genes 8 Torsion [N]-CA--CB-[CG1] |==|  0.51825
USER: genes 9 Torsion [N]-CA--C-[N] |==|  0.93323
USER: genes 10 Torsion [C]-N--CA-[CB] |==|  0.40412
USER: genes 11 Torsion [N]-CA--CB-[OG] |==|  0.97784
USER: genes 12 Torsion [CA]-CB--OG-[HG] |==|  0.50588
USER: genes 13 Torsion [N]-CA--C-[N] |==|  0.91153
USER: genes 14 Torsion [C]-N--CA-[C] |==|  0.17944
USER: genes 15 Torsion [N]-CA--C-[O] |==|  0.75991
ROOT
ATOM      1  CA  VAL B 303      17.839   7.554  32.153  1.00 37.13 LIG 0.18  C 
ENDROOT
BRANCH 1 2
ATOM      2  N   VAL B 303      17.133   6.970  33.286  1.00 37.20 LIG-0.35  N 
ATOM      3  C   SER B 302      17.495   5.804  33.812  1.00 37.39 LIG 0.24  C 
ATOM      4 O    SER B 302      18.432   5.133  33.372  1.00 37.76 LIG-0.27  OA
ATOM      5 H    VAL B 303      16.475   7.442  33.576  1.00 37.20 LIG 0.16  HD
BRANCH 3 6
ATOM      6  CA  SER B 302      16.673   5.320  35.002  1.00 37.09 LIG 0.20  C 
BRANCH 6 7
ATOM      7  N   SER B 302      16.638   6.331  36.051  1.00 36.48 LIG-0.34  N 
ATOM      8 H    SER B 302      15.846   6.567  36.290  1.00 36.48 LIG 0.16  HD
ATOM      9  C   ALA B 301      17.753   6.828  36.577  1.00 36.26 LIG 0.26  C 
ATOM     10 O    ALA B 301      18.876   6.469  36.225  1.00 35.88 LIG-0.27  OA
BRANCH 9 11
ATOM     11  CA  ALA B 301      17.576   7.886  37.662  1.00 36.43 LIG 0.40  C 
ATOM     12  CB  ALA B 301      18.866   8.684  37.828  1.00 36.70 LIG 0.06  C 
ATOM     13  N   ALA B 301      17.200   7.258  38.963  1.00 36.51 LIG 0.61  N 
ENDBRANCH 9 11
ENDBRANCH 6 7
BRANCH 6 14
ATOM     14  CB  SER B 302      15.253   4.981  34.537  1.00 37.65 LIG 0.20  C 
BRANCH 14 15
ATOM     15 OG   SER B 302      14.545   6.150  34.166  1.00 38.63 LIG-0.40  OA
ATOM     16 HG   SER B 302      14.875   6.815  34.559  1.00 38.63 LIG 0.21  HD
ENDBRANCH 14 15
ENDBRANCH 6 14
ENDBRANCH 3 6
ENDBRANCH 1 2
BRANCH 1 17
ATOM     17  CB  VAL B 303      19.375   7.537  32.367  1.00 37.28 LIG 0.01  C 
ATOM     18  CG1 VAL B 303      20.064   8.294  31.247  1.00 36.92 LIG 0.01  C 
ATOM     19  CG2 VAL B 303      19.723   8.152  33.716  1.00 37.06 LIG 0.01  C 
ENDBRANCH 1 17
BRANCH 1 20
ATOM     20  C   VAL B 303      17.513   6.767  30.891  1.00 37.27 LIG 0.24  C 
ATOM     21 O    VAL B 303      17.622   7.287  29.779  1.00 36.92 LIG-0.27  OA
ATOM     22  N   SER B 304      17.123   5.510  31.064  1.00 37.37 LIG-0.34  N 
ATOM     23 H    SER B 304      17.054   5.127  31.831  1.00 37.37 LIG 0.16  HD
BRANCH 22 24
ATOM     24  CA  SER B 304      16.772   4.661  29.932  1.00 37.74 LIG 0.20  C 
BRANCH 24 25
ATOM     25  CB  SER B 304      17.184   3.213  30.206  1.00 37.88 LIG 0.20  C 
BRANCH 25 26
ATOM     26 OG   SER B 304      17.952   3.122  31.395  1.00 38.36 LIG-0.40  OA
ATOM     27 HG   SER B 304      18.193   2.326  31.514  1.00 38.36 LIG 0.21  HD
ENDBRANCH 25 26
ENDBRANCH 24 25
BRANCH 24 28
ATOM     28  C   SER B 304      15.268   4.738  29.692  1.00 37.93 LIG 0.24  C 
ATOM     29 O    SER B 304      14.808   4.628  28.555  1.00 38.21 LIG-0.27  OA
ATOM     30  N   ALA B 305      14.504   4.925  30.763  1.00 38.06 LIG-0.35  N 
ATOM     31 H    ALA B 305      14.809   5.006  31.563  1.00 38.06 LIG 0.16  HD
BRANCH 30 32
ATOM     32  CA  ALA B 305      13.051   5.008  30.659  1.00 38.30 LIG 0.16  C 
ATOM     33  CB  ALA B 305      12.667   6.135  29.702  1.00 38.13 LIG 0.04  C 
BRANCH 32 34
ATOM     34  C   ALA B 305      12.452   3.692  30.177  1.00 38.47 LIG 0.22  C 
ATOM     35 O    ALA B 305      12.379   3.495  28.946  1.00 38.58 LIG-0.29  OA
ENDBRANCH 32 34
ENDBRANCH 30 32
ENDBRANCH 24 28
ENDBRANCH 22 24
ENDBRANCH 1 20
TORSDOF 14
ENDMDL
MODEL 13
USER: ADFR SOLUTION from run 19
USER: SCORE 9.833847 LL:  -2.350 LR: -10.092 RR:   0.000 FEB:  -5.916
USER: RMSD 8.232558
USER: SEED 18
USER: STATUS no improvement in best in 30 clusters for 5 generations
USER: GENES 16
USER: genes 0 Translation |==|  0.48274 0.54573 0.34162
USER: genes 1 Rotation |==|  0.36778 0.56006 0.02492 0.55668
USER: genes 2 Torsion [CB]-CA--N-[C] |==|  0.46690
USER: genes 3 Torsion [N]-C--CA-[N] |==|  0.25288
USER: genes 4 Torsion [C]-CA--N-[C] |==|  0.61429
USER: genes 5 Torsion [N]-C--CA-[N] |==|  0.34934
USER: genes 6 Torsion [C]-CA--CB-[OG] |==|  0.64068
USER: genes 7 Torsion [CA]-CB--OG-[HG] |==|  0.12795
USER: genes 8 Torsion [N]-CA--CB-[CG1] |==|  0.79510
USER: genes 9 Torsion [N]-CA--C-[N] |==|  0.26218
USER: genes 10 Torsion [C]-N--CA-[CB] |==|  0.80556
USER: genes 11 Torsion [N]-CA--CB-[OG] |==|  0.85343
USER: genes 12 Torsion [CA]-CB--OG-[HG] |==|  0.96105
USER: genes 13 Torsion [N]-CA--C-[N] |==|  0.08477
USER: genes 14 Torsion [C]-N--CA-[C] |==|  0.56622
USER: genes 15 Torsion [N]-CA--C-[O] |==|  0.67179
ROOT
ATOM      1  CA  VAL B 303      12.726   5.562  31.056  1.00 37.13 LIG 0.18  C 
ENDROOT
BRANCH 1 2
ATOM      2  N   VAL B 303      14.098   6.052  31.087  1.00 37.20 LIG-0.35  N 
ATOM      3  C   SER B 302      14.737   6.274  32.231  1.00 37.39 LIG 0.24  C 
ATOM      4 O    SER B 302      14.215   6.100  33.335  1.00 37.76 LIG-0.27  OA
ATOM      5 H    VAL B 303      14.446   6.181  30.311  1.00 37.20 LIG 0.16  HD
BRANCH 3 6
ATOM      6  CA  SER B 302      16.172   6.776  32.112  1.00 37.09 LIG 0.20  C 
BRANCH 6 7
ATOM      7  N   SER B 302      16.210   8.232  32.098  1.00 36.48 LIG-0.34  N 
ATOM      8 H    SER B 302      15.674   8.608  32.655  1.00 36.48 LIG 0.16  HD
ATOM      9  C   ALA B 301      17.018   8.901  31.281  1.00 36.26 LIG 0.26  C 
ATOM     10 O    ALA B 301      17.785   8.343  30.495  1.00 35.88 LIG-0.27  OA
BRANCH 9 11
ATOM     11  CA  ALA B 301      16.954  10.423  31.361  1.00 36.43 LIG 0.40  C 
ATOM     12  CB  ALA B 301      16.373  10.989  30.068  1.00 36.70 LIG 0.06  C 
ATOM     13  N   ALA B 301      18.309  11.003  31.601  1.00 36.51 LIG 0.61  N 
ENDBRANCH 9 11
ENDBRANCH 6 7
BRANCH 6 14
ATOM     14  CB  SER B 302      17.002   6.229  33.277  1.00 37.65 LIG 0.20  C 
BRANCH 14 15
ATOM     15 OG   SER B 302      17.713   7.266  33.928  1.00 38.63 LIG-0.40  OA
ATOM     16 HG   SER B 302      17.200   7.919  34.058  1.00 38.63 LIG 0.21  HD
ENDBRANCH 14 15
ENDBRANCH 6 14
ENDBRANCH 3 6
ENDBRANCH 1 2
BRANCH 1 17
ATOM     17  CB  VAL B 303      12.114   5.667  29.635  1.00 37.28 LIG 0.01  C 
ATOM     18  CG1 VAL B 303      11.794   7.115  29.314  1.00 36.92 LIG 0.01  C 
ATOM     19  CG2 VAL B 303      13.078   5.096  28.605  1.00 37.06 LIG 0.01  C 
ENDBRANCH 1 17
BRANCH 1 20
ATOM     20  C   VAL B 303      12.697   4.104  31.494  1.00 37.27 LIG 0.24  C 
ATOM     21 O    VAL B 303      12.906   3.200  30.683  1.00 36.92 LIG-0.27  OA
ATOM     22  N   SER B 304      12.449   3.878  32.778  1.00 37.37 LIG-0.34  N 
ATOM     23 H    SER B 304      12.314   4.497  33.360  1.00 37.37 LIG 0.16  HD
BRANCH 22 24
ATOM     24  CA  SER B 304      12.385   2.523  33.312  1.00 37.74 LIG 0.20  C 
BRANCH 24 25
ATOM     25  CB  SER B 304      11.135   1.807  32.797  1.00 37.88 LIG 0.20  C 
BRANCH 25 26
ATOM     26 OG   SER B 304       9.972   2.580  33.046  1.00 38.36 LIG-0.40  OA
ATOM     27 HG   SER B 304      10.153   3.191  33.594  1.00 38.36 LIG 0.21  HD
ENDBRANCH 25 26
ENDBRANCH 24 25
BRANCH 24 28
ATOM     28  C   SER B 304      13.635   1.756  32.890  1.00 37.93 LIG 0.24  C 
ATOM     29 O    SER B 304      13.592   0.538  32.711  1.00 38.21 LIG-0.27  OA
ATOM     30  N   ALA B 305      14.745   2.469  32.729  1.00 38.06 LIG-0.35  N 
ATOM     31 H    ALA B 305      14.792   3.319  32.852  1.00 38.06 LIG 0.16  HD
BRANCH 30 32
ATOM     32  CA  ALA B 305      15.999   1.847  32.321  1.00 38.30 LIG 0.16  C 
ATOM     33  CB  ALA B 305      16.014   1.663  30.805  1.00 38.13 LIG 0.04  C 
BRANCH 32 34
ATOM     34  C   ALA B 305      17.199   2.680  32.755  1.00 38.47 LIG 0.22  C 
ATOM     35 O    ALA B 305      17.949   3.136  31.867  1.00 38.58 LIG-0.29  OA
ENDBRANCH 32 34
ENDBRANCH 30 32
ENDBRANCH 24 28
ENDBRANCH 22 24
ENDBRANCH 1 20
TORSDOF 14
ENDMDL
MODEL 14
USER: ADFR SOLUTION from run 126
USER: SCORE 10.353173 LL:  -2.165 LR: -10.081 RR:   0.000 FEB:  -5.905
USER: RMSD 5.586263
USER: SEED 125
USER: STATUS no improvement in best in 24 clusters for 5 generations
USER: GENES 16
USER: genes 0 Translation |==|  0.64856 0.56371 0.35335
USER: genes 1 Rotation |==|  0.59897 0.81779 0.56184 0.86795
USER: genes 2 Torsion [CB]-CA--N-[C] |==|  0.36476
USER: genes 3 Torsion [N]-C--CA-[N] |==|  0.38952
USER: genes 4 Torsion [C]-CA--N-[C] |==|  0.80865
USER: genes 5 Torsion [N]-C--CA-[N] |==|  0.09408
USER: genes 6 Torsion [C]-CA--CB-[OG] |==|  0.61813
USER: genes 7 Torsion [CA]-CB--OG-[HG] |==|  0.15008
USER: genes 8 Torsion [N]-CA--CB-[CG1] |==|  0.71500
USER: genes 9 Torsion [N]-CA--C-[N] |==|  0.87604
USER: genes 10 Torsion [C]-N--CA-[CB] |==|  0.82778
USER: genes 11 Torsion [N]-CA--CB-[OG] |==|  0.25983
USER: genes 12 Torsion [CA]-CB--OG-[HG] |==|  0.84544
USER: genes 13 Torsion [N]-CA--C-[N] |==|  0.50196
USER: genes 14 Torsion [C]-N--CA-[C] |==|  0.17879
USER: genes 15 Torsion [N]-CA--C-[O] |==|  0.05060
ROOT
ATOM      1  CA  VAL B 303      16.083   5.926  31.232  1.00 37.13 LIG 0.18  C 
ENDROOT
BRANCH 1 2
ATOM      2  N   VAL B 303      16.520   5.052  32.313  1.00 37.20 LIG-0.35  N 
ATOM      3  C   SER B 302      17.254   3.968  32.085  1.00 37.39 LIG 0.24  C 
ATOM      4 O    SER B 302      17.600   3.619  30.952  1.00 37.76 LIG-0.27  OA
ATOM      5 H    VAL B 303      16.263   5.299  33.096  1.00 37.20 LIG 0.16  HD
BRANCH 3 6
ATOM      6  CA  SER B 302      17.648   3.152  33.312  1.00 37.09 LIG 0.20  C 
BRANCH 6 7
ATOM      7  N   SER B 302      17.567   1.725  33.030  1.00 36.48 LIG-0.34  N 
ATOM      8 H    SER B 302      18.328   1.324  33.005  1.00 36.48 LIG 0.16  HD
ATOM      9  C   ALA B 301      16.401   1.118  32.835  1.00 36.26 LIG 0.26  C 
ATOM     10 O    ALA B 301      15.323   1.710  32.884  1.00 35.88 LIG-0.27  OA
BRANCH 9 11
ATOM     11  CA  ALA B 301      16.458  -0.378  32.541  1.00 36.43 LIG 0.40  C 
ATOM     12  CB  ALA B 301      15.138  -1.037  32.933  1.00 36.70 LIG 0.06  C 
ATOM     13  N   ALA B 301      17.583  -1.025  33.279  1.00 36.51 LIG 0.61  N 
ENDBRANCH 9 11
ENDBRANCH 6 7
BRANCH 6 14
ATOM     14  CB  SER B 302      19.067   3.534  33.744  1.00 37.65 LIG 0.20  C 
BRANCH 14 15
ATOM     15 OG   SER B 302      19.821   2.386  34.091  1.00 38.63 LIG-0.40  OA
ATOM     16 HG   SER B 302      19.803   1.836  33.457  1.00 38.63 LIG 0.21  HD
ENDBRANCH 14 15
ENDBRANCH 6 14
ENDBRANCH 3 6
ENDBRANCH 1 2
BRANCH 1 17
ATOM     17  CB  VAL B 303      14.568   6.240  31.328  1.00 37.28 LIG 0.01  C 
ATOM     18  CG1 VAL B 303      13.801   5.408  30.318  1.00 36.92 LIG 0.01  C 
ATOM     19  CG2 VAL B 303      14.063   5.960  32.738  1.00 37.06 LIG 0.01  C 
ENDBRANCH 1 17
BRANCH 1 20
ATOM     20  C   VAL B 303      16.858   7.235  31.294  1.00 37.27 LIG 0.24  C 
ATOM     21 O    VAL B 303      17.318   7.744  30.270  1.00 36.92 LIG-0.27  OA
ATOM     22  N   SER B 304      16.993   7.785  32.495  1.00 37.37 LIG-0.34  N 
ATOM     23 H    SER B 304      16.668   7.451  33.218  1.00 37.37 LIG 0.16  HD
BRANCH 22 24
ATOM     24  CA  SER B 304      17.724   9.033  32.681  1.00 37.74 LIG 0.20  C 
BRANCH 24 25
ATOM     25  CB  SER B 304      19.187   8.858  32.267  1.00 37.88 LIG 0.20  C 
BRANCH 25 26
ATOM     26 OG   SER B 304      19.379   9.242  30.915  1.00 38.36 LIG-0.40  OA
ATOM     27 HG   SER B 304      18.855   8.807  30.423  1.00 38.36 LIG 0.21  HD
ENDBRANCH 25 26
ENDBRANCH 24 25
BRANCH 24 28
ATOM     28  C   SER B 304      17.073  10.128  31.842  1.00 37.93 LIG 0.24  C 
ATOM     29 O    SER B 304      16.075   9.886  31.162  1.00 38.21 LIG-0.27  OA
ATOM     30  N   ALA B 305      17.636  11.330  31.893  1.00 38.06 LIG-0.35  N 
ATOM     31 H    ALA B 305      18.333  11.515  32.361  1.00 38.06 LIG 0.16  HD
BRANCH 30 32
ATOM     32  CA  ALA B 305      17.098  12.457  31.139  1.00 38.30 LIG 0.16  C 
ATOM     33  CB  ALA B 305      17.058  12.110  29.652  1.00 38.13 LIG 0.04  C 
BRANCH 32 34
ATOM     34  C   ALA B 305      15.702  12.833  31.622  1.00 38.47 LIG 0.22  C 
ATOM     35 O    ALA B 305      15.341  12.429  32.747  1.00 38.58 LIG-0.29  OA
ENDBRANCH 32 34
ENDBRANCH 30 32
ENDBRANCH 24 28
ENDBRANCH 22 24
ENDBRANCH 1 20
TORSDOF 14
ENDMDL
MODEL 15
USER: ADFR SOLUTION from run 183
USER: SCORE 9.599050 LL:  -2.244 LR: -10.065 RR:   0.000 FEB:  -5.889
USER: RMSD 8.427155
USER: SEED 182
USER: STATUS no improvement in best in 39 clusters for 5 generations
USER: GENES 16
USER: genes 0 Translation |==|  0.75781 0.70538 0.43655
USER: genes 1 Rotation |==|  0.34576 0.48498 0.75290 0.90253
USER: genes 2 Torsion [CB]-CA--N-[C] |==|  0.18125
USER: genes 3 Torsion [N]-C--CA-[N] |==|  0.83333
USER: genes 4 Torsion [C]-CA--N-[C] |==|  0.80925
USER: genes 5 Torsion [N]-C--CA-[N] |==|  0.25628
USER: genes 6 Torsion [C]-CA--CB-[OG] |==|  0.62270
USER: genes 7 Torsion [CA]-CB--OG-[HG] |==|  0.89435
USER: genes 8 Torsion [N]-CA--CB-[CG1] |==|  0.14234
USER: genes 9 Torsion [N]-CA--C-[N] |==|  0.39781
USER: genes 10 Torsion [C]-N--CA-[CB] |==|  0.50027
USER: genes 11 Torsion [N]-CA--CB-[OG] |==|  0.04012
USER: genes 12 Torsion [CA]-CB--OG-[HG] |==|  0.82313
USER: genes 13 Torsion [N]-CA--C-[N] |==|  0.79343
USER: genes 14 Torsion [C]-N--CA-[C] |==|  0.52359
USER: genes 15 Torsion [N]-CA--C-[O] |==|  0.22287
ROOT
ATOM      1  CA  VAL B 303      18.296   8.795  32.480  1.00 37.13 LIG 0.18  C 
ENDROOT
BRANCH 1 2
ATOM      2  N   VAL B 303      17.648   7.973  33.495  1.00 37.20 LIG-0.35  N 
ATOM      3  C   SER B 302      18.264   6.939  34.057  1.00 37.39 LIG 0.24  C 
ATOM      4 O    SER B 302      19.409   6.593  33.751  1.00 37.76 LIG-0.27  OA
ATOM      5 H    VAL B 303      16.847   8.217  33.690  1.00 37.20 LIG 0.16  HD
BRANCH 3 6
ATOM      6  CA  SER B 302      17.469   6.176  35.111  1.00 37.09 LIG 0.20  C 
BRANCH 6 7
ATOM      7  N   SER B 302      17.104   7.052  36.217  1.00 36.48 LIG-0.34  N 
ATOM      8 H    SER B 302      16.262   7.221  36.273  1.00 36.48 LIG 0.16  HD
ATOM      9  C   ALA B 301      18.015   7.535  37.054  1.00 36.26 LIG 0.26  C 
ATOM     10 O    ALA B 301      19.215   7.274  36.960  1.00 35.88 LIG-0.27  OA
BRANCH 9 11
ATOM     11  CA  ALA B 301      17.500   8.447  38.163  1.00 36.43 LIG 0.40  C 
ATOM     12  CB  ALA B 301      18.535   9.524  38.476  1.00 36.70 LIG 0.06  C 
ATOM     13  N   ALA B 301      17.196   7.667  39.399  1.00 36.51 LIG 0.61  N 
ENDBRANCH 9 11
ENDBRANCH 6 7
BRANCH 6 14
ATOM     14  CB  SER B 302      16.217   5.572  34.469  1.00 37.65 LIG 0.20  C 
BRANCH 14 15
ATOM     15 OG   SER B 302      15.079   5.766  35.289  1.00 38.63 LIG-0.40  OA
ATOM     16 HG   SER B 302      15.296   5.676  36.095  1.00 38.63 LIG 0.21  HD
ENDBRANCH 14 15
ENDBRANCH 6 14
ENDBRANCH 3 6
ENDBRANCH 1 2
BRANCH 1 17
ATOM     17  CB  VAL B 303      18.578   7.988  31.187  1.00 37.28 LIG 0.01  C 
ATOM     18  CG1 VAL B 303      17.314   7.285  30.728  1.00 36.92 LIG 0.01  C 
ATOM     19  CG2 VAL B 303      19.096   8.913  30.094  1.00 37.06 LIG 0.01  C 
ENDBRANCH 1 17
BRANCH 1 20
ATOM     20  C   VAL B 303      17.399   9.975  32.134  1.00 37.27 LIG 0.24  C 
ATOM     21 O    VAL B 303      16.173   9.847  32.103  1.00 36.92 LIG-0.27  OA
ATOM     22  N   SER B 304      18.009  11.127  31.885  1.00 37.37 LIG-0.34  N 
ATOM     23 H    SER B 304      18.862  11.238  31.914  1.00 37.37 LIG 0.16  HD
BRANCH 22 24
ATOM     24  CA  SER B 304      17.257  12.325  31.531  1.00 37.74 LIG 0.20  C 
BRANCH 24 25
ATOM     25  CB  SER B 304      18.208  13.500  31.296  1.00 37.88 LIG 0.20  C 
BRANCH 25 26
ATOM     26 OG   SER B 304      19.545  13.048  31.158  1.00 38.36 LIG-0.40  OA
ATOM     27 HG   SER B 304      19.796  12.691  31.876  1.00 38.36 LIG 0.21  HD
ENDBRANCH 25 26
ENDBRANCH 24 25
BRANCH 24 28
ATOM     28  C   SER B 304      16.443  12.053  30.269  1.00 37.93 LIG 0.24  C 
ATOM     29 O    SER B 304      15.224  11.888  30.333  1.00 38.21 LIG-0.27  OA
ATOM     30  N   ALA B 305      17.117  12.010  29.125  1.00 38.06 LIG-0.35  N 
ATOM     31 H    ALA B 305      17.968  12.120  29.063  1.00 38.06 LIG 0.16  HD
BRANCH 30 32
ATOM     32  CA  ALA B 305      16.446  11.764  27.853  1.00 38.30 LIG 0.16  C 
ATOM     33  CB  ALA B 305      15.527  12.938  27.520  1.00 38.13 LIG 0.04  C 
BRANCH 32 34
ATOM     34  C   ALA B 305      17.451  11.555  26.726  1.00 38.47 LIG 0.22  C 
ATOM     35 O    ALA B 305      17.984  10.431  26.616  1.00 38.58 LIG-0.29  OA
ENDBRANCH 32 34
ENDBRANCH 30 32
ENDBRANCH 24 28
ENDBRANCH 22 24
ENDBRANCH 1 20
TORSDOF 14
ENDMDL
MODEL 16
USER: ADFR SOLUTION from run 79
USER: SCORE 9.790376 LL:  -1.979 LR: -10.050 RR:   0.000 FEB:  -5.873
USER: RMSD 8.526046
USER: SEED 78
USER: STATUS no improvement in best in 42 clusters for 5 generations
USER: GENES 16
USER: genes 0 Translation |==|  0.46844 0.50949 0.32613
USER: genes 1 Rotation |==|  0.45149 0.61046 0.01682 0.54450
USER: genes 2 Torsion [CB]-CA--N-[C] |==|  0.41693
USER: genes 3 Torsion [N]-C--CA-[N] |==|  0.22897
USER: genes 4 Torsion [C]-CA--N-[C] |==|  0.74445
USER: genes 5 Torsion [N]-C--CA-[N] |==|  0.14259
USER: genes 6 Torsion [C]-CA--CB-[OG] |==|  0.86991
USER: genes 7 Torsion [CA]-CB--OG-[HG] |==|  0.58024
USER: genes 8 Torsion [N]-CA--CB-[CG1] |==|  0.76394
USER: genes 9 Torsion [N]-CA--C-[N] |==|  0.22379
USER: genes 10 Torsion [C]-N--CA-[CB] |==|  0.18457
USER: genes 11 Torsion [N]-CA--CB-[OG] |==|  0.12273
USER: genes 12 Torsion [CA]-CB--OG-[HG] |==|  0.06535
USER: genes 13 Torsion [N]-CA--C-[N] |==|  0.02899
USER: genes 14 Torsion [C]-N--CA-[C] |==|  0.74959
USER: genes 15 Torsion [N]-CA--C-[O] |==|  0.04348
ROOT
ATOM      1  CA  VAL B 303      12.436   4.828  30.824  1.00 37.13 LIG 0.18  C 
ENDROOT
BRANCH 1 2
ATOM      2  N   VAL B 303      13.777   5.060  31.346  1.00 37.20 LIG-0.35  N 
ATOM      3  C   SER B 302      13.996   5.299  32.634  1.00 37.39 LIG 0.24  C 
ATOM      4 O    SER B 302      13.088   5.358  33.469  1.00 37.76 LIG-0.27  OA
ATOM      5 H    VAL B 303      14.399   5.028  30.752  1.00 37.20 LIG 0.16  HD
BRANCH 3 6
ATOM      6  CA  SER B 302      15.450   5.512  33.040  1.00 37.09 LIG 0.20  C 
BRANCH 6 7
ATOM      7  N   SER B 302      15.862   6.886  32.784  1.00 36.48 LIG-0.34  N 
ATOM      8 H    SER B 302      15.707   7.430  33.432  1.00 36.48 LIG 0.16  HD
ATOM      9  C   ALA B 301      16.428   7.242  31.635  1.00 36.26 LIG 0.26  C 
ATOM     10 O    ALA B 301      16.648   6.445  30.723  1.00 35.88 LIG-0.27  OA
BRANCH 9 11
ATOM     11  CA  ALA B 301      16.804   8.714  31.493  1.00 36.43 LIG 0.40  C 
ATOM     12  CB  ALA B 301      17.594   8.928  30.206  1.00 36.70 LIG 0.06  C 
ATOM     13  N   ALA B 301      17.609   9.175  32.662  1.00 36.51 LIG 0.61  N 
ENDBRANCH 9 11
ENDBRANCH 6 7
BRANCH 6 14
ATOM     14  CB  SER B 302      15.622   5.168  34.523  1.00 37.65 LIG 0.20  C 
BRANCH 14 15
ATOM     15 OG   SER B 302      14.601   5.761  35.305  1.00 38.63 LIG-0.40  OA
ATOM     16 HG   SER B 302      14.892   5.911  36.079  1.00 38.63 LIG 0.21  HD
ENDBRANCH 14 15
ENDBRANCH 6 14
ENDBRANCH 3 6
ENDBRANCH 1 2
BRANCH 1 17
ATOM     17  CB  VAL B 303      12.306   5.301  29.353  1.00 37.28 LIG 0.01  C 
ATOM     18  CG1 VAL B 303      11.984   6.783  29.311  1.00 36.92 LIG 0.01  C 
ATOM     19  CG2 VAL B 303      13.595   5.017  28.595  1.00 37.06 LIG 0.01  C 
ENDBRANCH 1 17
BRANCH 1 20
ATOM     20  C   VAL B 303      12.116   3.341  30.889  1.00 37.27 LIG 0.24  C 
ATOM     21 O    VAL B 303      12.231   2.628  29.890  1.00 36.92 LIG-0.27  OA
ATOM     22  N   SER B 304      11.724   2.872  32.068  1.00 37.37 LIG-0.34  N 
ATOM     23 H    SER B 304      11.651   3.353  32.777  1.00 37.37 LIG 0.16  HD
BRANCH 22 24
ATOM     24  CA  SER B 304      11.379   1.468  32.250  1.00 37.74 LIG 0.20  C 
BRANCH 24 25
ATOM     25  CB  SER B 304      12.619   0.589  32.073  1.00 37.88 LIG 0.20  C 
BRANCH 25 26
ATOM     26 OG   SER B 304      13.734   1.146  32.750  1.00 38.36 LIG-0.40  OA
ATOM     27 HG   SER B 304      13.465   1.650  33.367  1.00 38.36 LIG 0.21  HD
ENDBRANCH 25 26
ENDBRANCH 24 25
BRANCH 24 28
ATOM     28  C   SER B 304      10.796   1.270  33.646  1.00 37.93 LIG 0.24  C 
ATOM     29 O    SER B 304      10.612   0.138  34.093  1.00 38.21 LIG-0.27  OA
ATOM     30  N   ALA B 305      10.508   2.372  34.331  1.00 38.06 LIG-0.35  N 
ATOM     31 H    ALA B 305      10.628   3.169  34.033  1.00 38.06 LIG 0.16  HD
BRANCH 30 32
ATOM     32  CA  ALA B 305       9.951   2.308  35.678  1.00 38.30 LIG 0.16  C 
ATOM     33  CB  ALA B 305      10.436   3.505  36.494  1.00 38.13 LIG 0.04  C 
BRANCH 32 34
ATOM     34  C   ALA B 305       8.428   2.281  35.649  1.00 38.47 LIG 0.22  C 
ATOM     35 O    ALA B 305       7.866   2.017  34.566  1.00 38.58 LIG-0.29  OA
ENDBRANCH 32 34
ENDBRANCH 30 32
ENDBRANCH 24 28
ENDBRANCH 22 24
ENDBRANCH 1 20
TORSDOF 14
ENDMDL
MODEL 17
USER: ADFR SOLUTION from run 191
USER: SCORE 9.511211 LL:  -2.439 LR: -10.025 RR:   0.000 FEB:  -5.849
USER: RMSD 7.917414
USER: SEED 190
USER: STATUS no improvement in best in 24 clusters for 5 generations
USER: GENES 16
USER: genes 0 Translation |==|  0.46823 0.52582 0.35020
USER: genes 1 Rotation |==|  0.39361 0.57603 0.01762 0.51442
USER: genes 2 Torsion [CB]-CA--N-[C] |==|  0.41501
USER: genes 3 Torsion [N]-C--CA-[N] |==|  0.89504
USER: genes 4 Torsion [C]-CA--N-[C] |==|  0.84150
USER: genes 5 Torsion [N]-C--CA-[N] |==|  0.56765
USER: genes 6 Torsion [C]-CA--CB-[OG] |==|  0.38357
USER: genes 7 Torsion [CA]-CB--OG-[HG] |==|  0.81855
USER: genes 8 Torsion [N]-CA--CB-[CG1] |==|  0.79205
USER: genes 9 Torsion [N]-CA--C-[N] |==|  0.22066
USER: genes 10 Torsion [C]-N--CA-[CB] |==|  0.80669
USER: genes 11 Torsion [N]-CA--CB-[OG] |==|  0.82049
USER: genes 12 Torsion [CA]-CB--OG-[HG] |==|  0.00581
USER: genes 13 Torsion [N]-CA--C-[N] |==|  0.71667
USER: genes 14 Torsion [C]-N--CA-[C] |==|  0.56897
USER: genes 15 Torsion [N]-CA--C-[O] |==|  0.45710
ROOT
ATOM      1  CA  VAL B 303      12.432   5.159  31.185  1.00 37.13 LIG 0.18  C 
ENDROOT
BRANCH 1 2
ATOM      2  N   VAL B 303      13.865   5.374  31.335  1.00 37.20 LIG-0.35  N 
ATOM      3  C   SER B 302      14.393   5.809  32.474  1.00 37.39 LIG 0.24  C 
ATOM      4 O    SER B 302      13.713   6.075  33.470  1.00 37.76 LIG-0.27  OA
ATOM      5 H    VAL B 303      14.326   5.197  30.631  1.00 37.20 LIG 0.16  HD
BRANCH 3 6
ATOM      6  CA  SER B 302      15.908   5.978  32.491  1.00 37.09 LIG 0.20  C 
BRANCH 6 7
ATOM      7  N   SER B 302      16.555   4.914  31.735  1.00 36.48 LIG-0.34  N 
ATOM      8 H    SER B 302      17.060   5.188  31.095  1.00 36.48 LIG 0.16  HD
ATOM      9  C   ALA B 301      16.365   3.632  32.033  1.00 36.26 LIG 0.26  C 
ATOM     10 O    ALA B 301      15.645   3.261  32.960  1.00 35.88 LIG-0.27  OA
BRANCH 9 11
ATOM     11  CA  ALA B 301      17.095   2.618  31.158  1.00 36.43 LIG 0.40  C 
ATOM     12  CB  ALA B 301      17.188   3.137  29.726  1.00 36.70 LIG 0.06  C 
ATOM     13  N   ALA B 301      16.397   1.299  31.172  1.00 36.51 LIG 0.61  N 
ENDBRANCH 9 11
ENDBRANCH 6 7
BRANCH 6 14
ATOM     14  CB  SER B 302      16.275   7.348  31.910  1.00 37.65 LIG 0.20  C 
BRANCH 14 15
ATOM     15 OG   SER B 302      17.302   7.964  32.666  1.00 38.63 LIG-0.40  OA
ATOM     16 HG   SER B 302      17.017   8.135  33.438  1.00 38.63 LIG 0.21  HD
ENDBRANCH 14 15
ENDBRANCH 6 14
ENDBRANCH 3 6
ENDBRANCH 1 2
BRANCH 1 17
ATOM     17  CB  VAL B 303      11.967   5.404  29.726  1.00 37.28 LIG 0.01  C 
ATOM     18  CG1 VAL B 303      11.931   6.892  29.436  1.00 36.92 LIG 0.01  C 
ATOM     19  CG2 VAL B 303      12.900   4.696  28.753  1.00 37.06 LIG 0.01  C 
ENDBRANCH 1 17
BRANCH 1 20
ATOM     20  C   VAL B 303      12.090   3.727  31.573  1.00 37.27 LIG 0.24  C 
ATOM     21 O    VAL B 303      11.920   2.864  30.709  1.00 36.92 LIG-0.27  OA
ATOM     22  N   SER B 304      12.001   3.472  32.873  1.00 37.37 LIG-0.34  N 
ATOM     23 H    SER B 304      12.130   4.058  33.489  1.00 37.37 LIG 0.16  HD
BRANCH 22 24
ATOM     24  CA  SER B 304      11.669   2.141  33.365  1.00 37.74 LIG 0.20  C 
BRANCH 24 25
ATOM     25  CB  SER B 304      10.210   1.806  33.046  1.00 37.88 LIG 0.20  C 
BRANCH 25 26
ATOM     26 OG   SER B 304       9.329   2.673  33.740  1.00 38.36 LIG-0.40  OA
ATOM     27 HG   SER B 304       9.775   3.234  34.179  1.00 38.36 LIG 0.21  HD
ENDBRANCH 25 26
ENDBRANCH 24 25
BRANCH 24 28
ATOM     28  C   SER B 304      12.593   1.118  32.712  1.00 37.93 LIG 0.24  C 
ATOM     29 O    SER B 304      13.750   0.976  33.110  1.00 38.21 LIG-0.27  OA
ATOM     30  N   ALA B 305      12.082   0.406  31.714  1.00 38.06 LIG-0.35  N 
ATOM     31 H    ALA B 305      11.278   0.494  31.423  1.00 38.06 LIG 0.16  HD
BRANCH 30 32
ATOM     32  CA  ALA B 305      12.868  -0.606  31.018  1.00 38.30 LIG 0.16  C 
ATOM     33  CB  ALA B 305      12.841  -1.914  31.808  1.00 38.13 LIG 0.04  C 
BRANCH 32 34
ATOM     34  C   ALA B 305      12.346  -0.841  29.606  1.00 38.47 LIG 0.22  C 
ATOM     35 O    ALA B 305      13.082  -1.450  28.801  1.00 38.58 LIG-0.29  OA
ENDBRANCH 32 34
ENDBRANCH 30 32
ENDBRANCH 24 28
ENDBRANCH 22 24
ENDBRANCH 1 20
TORSDOF 14
ENDMDL
MODEL 18
USER: ADFR SOLUTION from run 137
USER: SCORE 10.376325 LL:  -1.910 LR:  -9.992 RR:   0.000 FEB:  -5.816
USER: RMSD 5.485848
USER: SEED 136
USER: STATUS no improvement in best in 28 clusters for 5 generations
USER: GENES 16
USER: genes 0 Translation |==|  0.55303 0.50944 0.26324
USER: genes 1 Rotation |==|  0.68278 0.76182 0.75422 0.78882
USER: genes 2 Torsion [CB]-CA--N-[C] |==|  0.78333
USER: genes 3 Torsion [N]-C--CA-[N] |==|  0.41051
USER: genes 4 Torsion [C]-CA--N-[C] |==|  0.79926
USER: genes 5 Torsion [N]-C--CA-[N] |==|  0.15961
USER: genes 6 Torsion [C]-CA--CB-[OG] |==|  0.51678
USER: genes 7 Torsion [CA]-CB--OG-[HG] |==|  0.88579
USER: genes 8 Torsion [N]-CA--CB-[CG1] |==|  0.52057
USER: genes 9 Torsion [N]-CA--C-[N] |==|  0.18478
USER: genes 10 Torsion [C]-N--CA-[CB] |==|  0.28812
USER: genes 11 Torsion [N]-CA--CB-[OG] |==|  0.75188
USER: genes 12 Torsion [CA]-CB--OG-[HG] |==|  0.84394
USER: genes 13 Torsion [N]-CA--C-[N] |==|  0.39376
USER: genes 14 Torsion [C]-N--CA-[C] |==|  0.50613
USER: genes 15 Torsion [N]-CA--C-[O] |==|  0.89713
ROOT
ATOM      1  CA  VAL B 303      14.149   4.827  29.881  1.00 37.13 LIG 0.18  C 
ENDROOT
BRANCH 1 2
ATOM      2  N   VAL B 303      14.940   3.615  30.048  1.00 37.20 LIG-0.35  N 
ATOM      3  C   SER B 302      15.078   3.026  31.231  1.00 37.39 LIG 0.24  C 
ATOM      4 O    SER B 302      14.567   3.468  32.263  1.00 37.76 LIG-0.27  OA
ATOM      5 H    VAL B 303      15.300   3.324  29.323  1.00 37.20 LIG 0.16  HD
BRANCH 3 6
ATOM      6  CA  SER B 302      15.926   1.758  31.255  1.00 37.09 LIG 0.20  C 
BRANCH 6 7
ATOM      7  N   SER B 302      16.625   1.628  32.526  1.00 36.48 LIG-0.34  N 
ATOM      8 H    SER B 302      16.317   1.012  33.041  1.00 36.48 LIG 0.16  HD
ATOM      9  C   ALA B 301      17.653   2.411  32.840  1.00 36.26 LIG 0.26  C 
ATOM     10 O    ALA B 301      18.083   3.283  32.085  1.00 35.88 LIG-0.27  OA
BRANCH 9 11
ATOM     11  CA  ALA B 301      18.290   2.177  34.206  1.00 36.43 LIG 0.40  C 
ATOM     12  CB  ALA B 301      19.463   3.132  34.405  1.00 36.70 LIG 0.06  C 
ATOM     13  N   ALA B 301      18.761   0.766  34.340  1.00 36.51 LIG 0.61  N 
ENDBRANCH 9 11
ENDBRANCH 6 7
BRANCH 6 14
ATOM     14  CB  SER B 302      15.029   0.540  31.010  1.00 37.65 LIG 0.20  C 
BRANCH 14 15
ATOM     15 OG   SER B 302      15.754  -0.666  31.161  1.00 38.63 LIG-0.40  OA
ATOM     16 HG   SER B 302      16.514  -0.582  30.812  1.00 38.63 LIG 0.21  HD
ENDBRANCH 14 15
ENDBRANCH 6 14
ENDBRANCH 3 6
ENDBRANCH 1 2
BRANCH 1 17
ATOM     17  CB  VAL B 303      12.630   4.518  29.852  1.00 37.28 LIG 0.01  C 
ATOM     18  CG1 VAL B 303      11.851   5.771  29.496  1.00 36.92 LIG 0.01  C 
ATOM     19  CG2 VAL B 303      12.339   3.410  28.849  1.00 37.06 LIG 0.01  C 
ENDBRANCH 1 17
BRANCH 1 20
ATOM     20  C   VAL B 303      14.432   5.781  31.033  1.00 37.27 LIG 0.24  C 
ATOM     21 O    VAL B 303      13.558   6.045  31.861  1.00 36.92 LIG-0.27  OA
ATOM     22  N   SER B 304      15.657   6.289  31.092  1.00 37.37 LIG-0.34  N 
ATOM     23 H    SER B 304      16.283   6.105  30.531  1.00 37.37 LIG 0.16  HD
BRANCH 22 24
ATOM     24  CA  SER B 304      16.043   7.222  32.143  1.00 37.74 LIG 0.20  C 
BRANCH 24 25
ATOM     25  CB  SER B 304      16.901   6.514  33.194  1.00 37.88 LIG 0.20  C 
BRANCH 25 26
ATOM     26 OG   SER B 304      16.090   5.953  34.213  1.00 38.36 LIG-0.40  OA
ATOM     27 HG   SER B 304      15.612   6.554  34.554  1.00 38.36 LIG 0.21  HD
ENDBRANCH 25 26
ENDBRANCH 24 25
BRANCH 24 28
ATOM     28  C   SER B 304      16.825   8.379  31.526  1.00 37.93 LIG 0.24  C 
ATOM     29 O    SER B 304      17.619   8.178  30.607  1.00 38.21 LIG-0.27  OA
ATOM     30  N   ALA B 305      16.596   9.586  32.032  1.00 38.06 LIG-0.35  N 
ATOM     31 H    ALA B 305      16.047   9.742  32.674  1.00 38.06 LIG 0.16  HD
BRANCH 30 32
ATOM     32  CA  ALA B 305      17.279  10.768  31.519  1.00 38.30 LIG 0.16  C 
ATOM     33  CB  ALA B 305      16.950  10.953  30.039  1.00 38.13 LIG 0.04  C 
BRANCH 32 34
ATOM     34  C   ALA B 305      16.887  12.018  32.299  1.00 38.47 LIG 0.22  C 
ATOM     35 O    ALA B 305      15.704  12.122  32.684  1.00 38.58 LIG-0.29  OA
ENDBRANCH 32 34
ENDBRANCH 30 32
ENDBRANCH 24 28
ENDBRANCH 22 24
ENDBRANCH 1 20
TORSDOF 14
ENDMDL
MODEL 19
USER: ADFR SOLUTION from run 173
USER: SCORE 9.722864 LL:  -1.974 LR:  -9.970 RR:   0.000 FEB:  -5.794
USER: RMSD 4.666040
USER: SEED 172
USER: STATUS no improvement in best in 29 clusters for 5 generations
USER: GENES 16
USER: genes 0 Translation |==|  0.54121 0.45485 0.29298
USER: genes 1 Rotation |==|  0.61908 0.75525 0.65735 0.88198
USER: genes 2 Torsion [CB]-CA--N-[C] |==|  0.43878
USER: genes 3 Torsion [N]-C--CA-[N] |==|  0.33137
USER: genes 4 Torsion [C]-CA--N-[C] |==|  0.63253
USER: genes 5 Torsion [N]-C--CA-[N] |==|  0.09141
USER: genes 6 Torsion [C]-CA--CB-[OG] |==|  0.62696
USER: genes 7 Torsion [CA]-CB--OG-[HG] |==|  0.34667
USER: genes 8 Torsion [N]-CA--CB-[CG1] |==|  0.33950
USER: genes 9 Torsion [N]-CA--C-[N] |==|  0.95454
USER: genes 10 Torsion [C]-N--CA-[CB] |==|  0.50173
USER: genes 11 Torsion [N]-CA--CB-[OG] |==|  0.77895
USER: genes 12 Torsion [CA]-CB--OG-[HG] |==|  0.55440
USER: genes 13 Torsion [N]-CA--C-[N] |==|  0.38333
USER: genes 14 Torsion [C]-N--CA-[C] |==|  0.51227
USER: genes 15 Torsion [N]-CA--C-[O] |==|  0.98802
ROOT
ATOM      1  CA  VAL B 303      13.909   3.722  30.327  1.00 37.13 LIG 0.18  C 
ENDROOT
BRANCH 1 2
ATOM      2  N   VAL B 303      14.240   2.594  31.189  1.00 37.20 LIG-0.35  N 
ATOM      3  C   SER B 302      15.462   2.073  31.224  1.00 37.39 LIG 0.24  C 
ATOM      4 O    SER B 302      16.389   2.491  30.525  1.00 37.76 LIG-0.27  OA
ATOM      5 H    VAL B 303      13.582   2.305  31.662  1.00 37.20 LIG 0.16  HD
BRANCH 3 6
ATOM      6  CA  SER B 302      15.666   0.904  32.181  1.00 37.09 LIG 0.20  C 
BRANCH 6 7
ATOM      7  N   SER B 302      16.076  -0.292  31.456  1.00 36.48 LIG-0.34  N 
ATOM      8 H    SER B 302      16.712  -0.164  30.891  1.00 36.48 LIG 0.16  HD
ATOM      9  C   ALA B 301      15.497  -1.469  31.668  1.00 36.26 LIG 0.26  C 
ATOM     10 O    ALA B 301      14.592  -1.631  32.487  1.00 35.88 LIG-0.27  OA
BRANCH 9 11
ATOM     11  CA  ALA B 301      16.015  -2.638  30.836  1.00 36.43 LIG 0.40  C 
ATOM     12  CB  ALA B 301      15.763  -3.952  31.569  1.00 36.70 LIG 0.06  C 
ATOM     13  N   ALA B 301      17.474  -2.489  30.556  1.00 36.51 LIG 0.61  N 
ENDBRANCH 9 11
ENDBRANCH 6 7
BRANCH 6 14
ATOM     14  CB  SER B 302      16.716   1.280  33.231  1.00 37.65 LIG 0.20  C 
BRANCH 14 15
ATOM     15 OG   SER B 302      17.655   0.236  33.410  1.00 38.63 LIG-0.40  OA
ATOM     16 HG   SER B 302      18.432   0.532  33.289  1.00 38.63 LIG 0.21  HD
ENDBRANCH 14 15
ENDBRANCH 6 14
ENDBRANCH 3 6
ENDBRANCH 1 2
BRANCH 1 17
ATOM     17  CB  VAL B 303      12.387   3.795  30.041  1.00 37.28 LIG 0.01  C 
ATOM     18  CG1 VAL B 303      11.839   5.137  30.489  1.00 36.92 LIG 0.01  C 
ATOM     19  CG2 VAL B 303      12.121   3.582  28.557  1.00 37.06 LIG 0.01  C 
ENDBRANCH 1 17
BRANCH 1 20
ATOM     20  C   VAL B 303      14.344   5.018  30.997  1.00 37.27 LIG 0.24  C 
ATOM     21 O    VAL B 303      14.435   6.062  30.349  1.00 36.92 LIG-0.27  OA
ATOM     22  N   SER B 304      14.602   4.952  32.298  1.00 37.37 LIG-0.34  N 
ATOM     23 H    SER B 304      14.532   4.235  32.768  1.00 37.37 LIG 0.16  HD
BRANCH 22 24
ATOM     24  CA  SER B 304      15.038   6.125  33.046  1.00 37.74 LIG 0.20  C 
BRANCH 24 25
ATOM     25  CB  SER B 304      15.276   5.761  34.513  1.00 37.88 LIG 0.20  C 
BRANCH 25 26
ATOM     26 OG   SER B 304      14.051   5.701  35.224  1.00 38.36 LIG-0.40  OA
ATOM     27 HG   SER B 304      14.201   5.768  36.048  1.00 38.36 LIG 0.21  HD
ENDBRANCH 25 26
ENDBRANCH 24 25
BRANCH 24 28
ATOM     28  C   SER B 304      16.323   6.667  32.428  1.00 37.93 LIG 0.24  C 
ATOM     29 O    SER B 304      17.215   5.899  32.063  1.00 38.21 LIG-0.27  OA
ATOM     30  N   ALA B 305      16.416   7.987  32.311  1.00 38.06 LIG-0.35  N 
ATOM     31 H    ALA B 305      15.804   8.536  32.563  1.00 38.06 LIG 0.16  HD
BRANCH 30 32
ATOM     32  CA  ALA B 305      17.594   8.620  31.730  1.00 38.30 LIG 0.16  C 
ATOM     33  CB  ALA B 305      17.751   8.181  30.275  1.00 38.13 LIG 0.04  C 
BRANCH 32 34
ATOM     34  C   ALA B 305      17.504  10.140  31.807  1.00 38.47 LIG 0.22  C 
ATOM     35 O    ALA B 305      16.452  10.643  32.255  1.00 38.58 LIG-0.29  OA
ENDBRANCH 32 34
ENDBRANCH 30 32
ENDBRANCH 24 28
ENDBRANCH 22 24
ENDBRANCH 1 20
TORSDOF 14
ENDMDL
MODEL 20
USER: ADFR SOLUTION from run 51
USER: SCORE 10.405633 LL:  -1.787 LR:  -9.933 RR:   0.000 FEB:  -5.757
USER: RMSD 7.132777
USER: SEED 50
USER: STATUS no improvement in best in 30 clusters for 5 generations
USER: GENES 16
USER: genes 0 Translation |==|  0.70567 0.58451 0.37925
USER: genes 1 Rotation |==|  0.40300 0.62846 0.57612 0.96722
USER: genes 2 Torsion [CB]-CA--N-[C] |==|  0.21502
USER: genes 3 Torsion [N]-C--CA-[N] |==|  0.87812
USER: genes 4 Torsion [C]-CA--N-[C] |==|  0.83083
USER: genes 5 Torsion [N]-C--CA-[N] |==|  0.24224
USER: genes 6 Torsion [C]-CA--CB-[OG] |==|  0.83033
USER: genes 7 Torsion [CA]-CB--OG-[HG] |==|  0.93364
USER: genes 8 Torsion [N]-CA--CB-[CG1] |==|  0.72435
USER: genes 9 Torsion [N]-CA--C-[N] |==|  0.75387
USER: genes 10 Torsion [C]-N--CA-[CB] |==|  0.85906
USER: genes 11 Torsion [N]-CA--CB-[OG] |==|  0.76149
USER: genes 12 Torsion [CA]-CB--OG-[HG] |==|  0.22686
USER: genes 13 Torsion [N]-CA--C-[N] |==|  0.35556
USER: genes 14 Torsion [C]-N--CA-[C] |==|  0.51056
USER: genes 15 Torsion [N]-CA--C-[O] |==|  0.92341
ROOT
ATOM      1  CA  VAL B 303      17.240   6.347  31.621  1.00 37.13 LIG 0.18  C 
ENDROOT
BRANCH 1 2
ATOM      2  N   VAL B 303      16.582   6.177  32.910  1.00 37.20 LIG-0.35  N 
ATOM      3  C   SER B 302      16.525   4.995  33.516  1.00 37.39 LIG 0.24  C 
ATOM      4 O    SER B 302      17.003   3.968  33.029  1.00 37.76 LIG-0.27  OA
ATOM      5 H    VAL B 303      16.243   6.898  33.234  1.00 37.20 LIG 0.16  HD
BRANCH 3 6
ATOM      6  CA  SER B 302      15.816   4.967  34.866  1.00 37.09 LIG 0.20  C 
BRANCH 6 7
ATOM      7  N   SER B 302      16.217   6.104  35.684  1.00 36.48 LIG-0.34  N 
ATOM      8 H    SER B 302      15.573   6.630  35.902  1.00 36.48 LIG 0.16  HD
ATOM      9  C   ALA B 301      17.481   6.287  36.051  1.00 36.26 LIG 0.26  C 
ATOM     10 O    ALA B 301      18.388   5.517  35.735  1.00 35.88 LIG-0.27  OA
BRANCH 9 11
ATOM     11  CA  ALA B 301      17.768   7.522  36.900  1.00 36.43 LIG 0.40  C 
ATOM     12  CB  ALA B 301      19.195   8.003  36.657  1.00 36.70 LIG 0.06  C 
ATOM     13  N   ALA B 301      17.575   7.228  38.351  1.00 36.51 LIG 0.61  N 
ENDBRANCH 9 11
ENDBRANCH 6 7
BRANCH 6 14
ATOM     14  CB  SER B 302      14.300   4.973  34.646  1.00 37.65 LIG 0.20  C 
BRANCH 14 15
ATOM     15 OG   SER B 302      13.888   6.145  33.966  1.00 38.63 LIG-0.40  OA
ATOM     16 HG   SER B 302      14.453   6.754  34.089  1.00 38.63 LIG 0.21  HD
ENDBRANCH 14 15
ENDBRANCH 6 14
ENDBRANCH 3 6
ENDBRANCH 1 2
BRANCH 1 17
ATOM     17  CB  VAL B 303      16.356   5.831  30.456  1.00 37.28 LIG 0.01  C 
ATOM     18  CG1 VAL B 303      16.802   4.441  30.043  1.00 36.92 LIG 0.01  C 
ATOM     19  CG2 VAL B 303      14.892   5.815  30.876  1.00 37.06 LIG 0.01  C 
ENDBRANCH 1 17
BRANCH 1 20
ATOM     20  C   VAL B 303      17.535   7.823  31.393  1.00 37.27 LIG 0.24  C 
ATOM     21 O    VAL B 303      18.615   8.310  31.733  1.00 36.92 LIG-0.27  OA
ATOM     22  N   SER B 304      16.578   8.533  30.807  1.00 37.37 LIG-0.34  N 
ATOM     23 H    SER B 304      15.824   8.208  30.552  1.00 37.37 LIG 0.16  HD
BRANCH 22 24
ATOM     24  CA  SER B 304      16.740   9.958  30.547  1.00 37.74 LIG 0.20  C 
BRANCH 24 25
ATOM     25  CB  SER B 304      17.190  10.682  31.817  1.00 37.88 LIG 0.20  C 
BRANCH 25 26
ATOM     26 OG   SER B 304      16.075  11.043  32.616  1.00 38.36 LIG-0.40  OA
ATOM     27 HG   SER B 304      15.830  10.380  33.071  1.00 38.36 LIG 0.21  HD
ENDBRANCH 25 26
ENDBRANCH 24 25
BRANCH 24 28
ATOM     28  C   SER B 304      17.773  10.154  29.442  1.00 37.93 LIG 0.24  C 
ATOM     29 O    SER B 304      18.881   9.621  29.519  1.00 38.21 LIG-0.27  OA
ATOM     30  N   ALA B 305      17.410  10.914  28.415  1.00 38.06 LIG-0.35  N 
ATOM     31 H    ALA B 305      16.642  11.295  28.347  1.00 38.06 LIG 0.16  HD
BRANCH 30 32
ATOM     32  CA  ALA B 305      18.311  11.168  27.297  1.00 38.30 LIG 0.16  C 
ATOM     33  CB  ALA B 305      18.651   9.851  26.600  1.00 38.13 LIG 0.04  C 
BRANCH 32 34
ATOM     34  C   ALA B 305      17.696  12.141  26.297  1.00 38.47 LIG 0.22  C 
ATOM     35 O    ALA B 305      16.451  12.186  26.212  1.00 38.58 LIG-0.29  OA
ENDBRANCH 32 34
ENDBRANCH 30 32
ENDBRANCH 24 28
ENDBRANCH 22 24
ENDBRANCH 1 20
TORSDOF 14
ENDMDL
MODEL 21
USER: ADFR SOLUTION from run 22
USER: SCORE 10.291950 LL:  -1.279 LR:  -9.930 RR:   0.000 FEB:  -5.754
USER: RMSD 7.957085
USER: SEED 21
USER: STATUS no improvement in best in 31 clusters for 5 generations
USER: GENES 16
USER: genes 0 Translation |==|  0.44539 0.49041 0.30119
USER: genes 1 Rotation |==|  0.52550 0.46864 0.03074 0.66783
USER: genes 2 Torsion [CB]-CA--N-[C] |==|  0.77090
USER: genes 3 Torsion [N]-C--CA-[N] |==|  0.39551
USER: genes 4 Torsion [C]-CA--N-[C] |==|  0.85549
USER: genes 5 Torsion [N]-C--CA-[N] |==|  0.51653
USER: genes 6 Torsion [C]-CA--CB-[OG] |==|  0.54710
USER: genes 7 Torsion [CA]-CB--OG-[HG] |==|  0.95555
USER: genes 8 Torsion [N]-CA--CB-[CG1] |==|  0.12352
USER: genes 9 Torsion [N]-CA--C-[N] |==|  0.22014
USER: genes 10 Torsion [C]-N--CA-[CB] |==|  0.54232
USER: genes 11 Torsion [N]-CA--CB-[OG] |==|  0.03576
USER: genes 12 Torsion [CA]-CB--OG-[HG] |==|  0.81776
USER: genes 13 Torsion [N]-CA--C-[N] |==|  0.28191
USER: genes 14 Torsion [C]-N--CA-[C] |==|  0.16355
USER: genes 15 Torsion [N]-CA--C-[O] |==|  0.40087
ROOT
ATOM      1  CA  VAL B 303      11.969   4.442  30.450  1.00 37.13 LIG 0.18  C 
ENDROOT
BRANCH 1 2
ATOM      2  N   VAL B 303      12.687   5.506  31.139  1.00 37.20 LIG-0.35  N 
ATOM      3  C   SER B 302      13.877   5.304  31.694  1.00 37.39 LIG 0.24  C 
ATOM      4 O    SER B 302      14.445   4.208  31.681  1.00 37.76 LIG-0.27  OA
ATOM      5 H    VAL B 303      12.276   6.262  31.151  1.00 37.20 LIG 0.16  HD
BRANCH 3 6
ATOM      6  CA  SER B 302      14.517   6.511  32.372  1.00 37.09 LIG 0.20  C 
BRANCH 6 7
ATOM      7  N   SER B 302      15.219   6.111  33.584  1.00 36.48 LIG-0.34  N 
ATOM      8 H    SER B 302      16.034   6.383  33.629  1.00 36.48 LIG 0.16  HD
ATOM      9  C   ALA B 301      14.626   5.385  34.527  1.00 36.26 LIG 0.26  C 
ATOM     10 O    ALA B 301      13.455   5.013  34.446  1.00 35.88 LIG-0.27  OA
BRANCH 9 11
ATOM     11  CA  ALA B 301      15.476   5.027  35.742  1.00 36.43 LIG 0.40  C 
ATOM     12  CB  ALA B 301      16.783   4.383  35.291  1.00 36.70 LIG 0.06  C 
ATOM     13  N   ALA B 301      14.743   4.098  36.651  1.00 36.51 LIG 0.61  N 
ENDBRANCH 9 11
ENDBRANCH 6 7
BRANCH 6 14
ATOM     14  CB  SER B 302      15.479   7.194  31.395  1.00 37.65 LIG 0.20  C 
BRANCH 14 15
ATOM     15 OG   SER B 302      16.368   8.060  32.077  1.00 38.63 LIG-0.40  OA
ATOM     16 HG   SER B 302      16.075   8.212  32.849  1.00 38.63 LIG 0.21  HD
ENDBRANCH 14 15
ENDBRANCH 6 14
ENDBRANCH 3 6
ENDBRANCH 1 2
BRANCH 1 17
ATOM     17  CB  VAL B 303      12.464   4.272  28.990  1.00 37.28 LIG 0.01  C 
ATOM     18  CG1 VAL B 303      13.980   4.310  28.948  1.00 36.92 LIG 0.01  C 
ATOM     19  CG2 VAL B 303      11.950   2.960  28.412  1.00 37.06 LIG 0.01  C 
ENDBRANCH 1 17
BRANCH 1 20
ATOM     20  C   VAL B 303      12.175   3.128  31.192  1.00 37.27 LIG 0.24  C 
ATOM     21 O    VAL B 303      12.997   2.302  30.792  1.00 36.92 LIG-0.27  OA
ATOM     22  N   SER B 304      11.434   2.941  32.278  1.00 37.37 LIG-0.34  N 
ATOM     23 H    SER B 304      10.865   3.512  32.578  1.00 37.37 LIG 0.16  HD
BRANCH 22 24
ATOM     24  CA  SER B 304      11.534   1.718  33.064  1.00 37.74 LIG 0.20  C 
BRANCH 24 25
ATOM     25  CB  SER B 304      10.338   1.596  34.011  1.00 37.88 LIG 0.20  C 
BRANCH 25 26
ATOM     26 OG   SER B 304       9.325   2.527  33.667  1.00 38.36 LIG-0.40  OA
ATOM     27 HG   SER B 304       9.608   3.308  33.793  1.00 38.36 LIG 0.21  HD
ENDBRANCH 25 26
ENDBRANCH 24 25
BRANCH 24 28
ATOM     28  C   SER B 304      11.579   0.517  32.123  1.00 37.93 LIG 0.24  C 
ATOM     29 O    SER B 304      10.547   0.092  31.602  1.00 38.21 LIG-0.27  OA
ATOM     30  N   ALA B 305      12.773  -0.024  31.907  1.00 38.06 LIG-0.35  N 
ATOM     31 H    ALA B 305      13.501   0.260  32.265  1.00 38.06 LIG 0.16  HD
BRANCH 30 32
ATOM     32  CA  ALA B 305      12.940  -1.171  31.022  1.00 38.30 LIG 0.16  C 
ATOM     33  CB  ALA B 305      12.180  -2.371  31.584  1.00 38.13 LIG 0.04  C 
BRANCH 32 34
ATOM     34  C   ALA B 305      12.452  -0.861  29.612  1.00 38.47 LIG 0.22  C 
ATOM     35 O    ALA B 305      13.075  -1.362  28.652  1.00 38.58 LIG-0.29  OA
ENDBRANCH 32 34
ENDBRANCH 30 32
ENDBRANCH 24 28
ENDBRANCH 22 24
ENDBRANCH 1 20
TORSDOF 14
ENDMDL
MODEL 22
USER: ADFR SOLUTION from run 199
USER: SCORE 9.221871 LL:  -1.938 LR:  -9.932 RR:   0.000 FEB:  -5.756
USER: RMSD 9.950890
USER: SEED 198
USER: STATUS no improvement in best in 33 clusters for 5 generations
USER: GENES 16
USER: genes 0 Translation |==|  0.63962 0.59128 0.34965
USER: genes 1 Rotation |==|  0.28361 0.76186 0.86544 0.53262
USER: genes 2 Torsion [CB]-CA--N-[C] |==|  0.21957
USER: genes 3 Torsion [N]-C--CA-[N] |==|  0.40234
USER: genes 4 Torsion [C]-CA--N-[C] |==|  0.82958
USER: genes 5 Torsion [N]-C--CA-[N] |==|  0.17288
USER: genes 6 Torsion [C]-CA--CB-[OG] |==|  0.26121
USER: genes 7 Torsion [CA]-CB--OG-[HG] |==|  0.94832
USER: genes 8 Torsion [N]-CA--CB-[CG1] |==|  0.24756
USER: genes 9 Torsion [N]-CA--C-[N] |==|  0.42329
USER: genes 10 Torsion [C]-N--CA-[CB] |==|  0.36323
USER: genes 11 Torsion [N]-CA--CB-[OG] |==|  0.94742
USER: genes 12 Torsion [CA]-CB--OG-[HG] |==|  0.86645
USER: genes 13 Torsion [N]-CA--C-[N] |==|  0.38146
USER: genes 14 Torsion [C]-N--CA-[C] |==|  0.53920
USER: genes 15 Torsion [N]-CA--C-[O] |==|  0.22842
ROOT
ATOM      1  CA  VAL B 303      15.902   6.484  31.177  1.00 37.13 LIG 0.18  C 
ENDROOT
BRANCH 1 2
ATOM      2  N   VAL B 303      16.451   7.606  31.929  1.00 37.20 LIG-0.35  N 
ATOM      3  C   SER B 302      17.484   8.311  31.482  1.00 37.39 LIG 0.24  C 
ATOM      4 O    SER B 302      18.057   8.059  30.418  1.00 37.76 LIG-0.27  OA
ATOM      5 H    VAL B 303      16.050   7.763  32.674  1.00 37.20 LIG 0.16  HD
BRANCH 3 6
ATOM      6  CA  SER B 302      17.945   9.463  32.368  1.00 37.09 LIG 0.20  C 
BRANCH 6 7
ATOM      7  N   SER B 302      19.393   9.615  32.306  1.00 36.48 LIG-0.34  N 
ATOM      8 H    SER B 302      19.658  10.375  32.002  1.00 36.48 LIG 0.16  HD
ATOM      9  C   ALA B 301      20.213   8.644  32.694  1.00 36.26 LIG 0.26  C 
ATOM     10 O    ALA B 301      19.812   7.566  33.134  1.00 35.88 LIG-0.27  OA
BRANCH 9 11
ATOM     11  CA  ALA B 301      21.707   8.930  32.570  1.00 36.43 LIG 0.40  C 
ATOM     12  CB  ALA B 301      22.508   7.692  32.962  1.00 36.70 LIG 0.06  C 
ATOM     13  N   ALA B 301      22.104  10.082  33.432  1.00 36.51 LIG 0.61  N 
ENDBRANCH 9 11
ENDBRANCH 6 7
BRANCH 6 14
ATOM     14  CB  SER B 302      17.251  10.756  31.927  1.00 37.65 LIG 0.20  C 
BRANCH 14 15
ATOM     15 OG   SER B 302      16.075  10.986  32.682  1.00 38.63 LIG-0.40  OA
ATOM     16 HG   SER B 302      15.832  10.270  33.048  1.00 38.63 LIG 0.21  HD
ENDBRANCH 14 15
ENDBRANCH 6 14
ENDBRANCH 3 6
ENDBRANCH 1 2
BRANCH 1 17
ATOM     17  CB  VAL B 303      16.762   5.206  31.349  1.00 37.28 LIG 0.01  C 
ATOM     18  CG1 VAL B 303      16.280   4.414  32.550  1.00 36.92 LIG 0.01  C 
ATOM     19  CG2 VAL B 303      16.693   4.353  30.090  1.00 37.06 LIG 0.01  C 
ENDBRANCH 1 17
BRANCH 1 20
ATOM     20  C   VAL B 303      14.489   6.192  31.660  1.00 37.27 LIG 0.24  C 
ATOM     21 O    VAL B 303      14.147   6.469  32.811  1.00 36.92 LIG-0.27  OA
ATOM     22  N   SER B 304      13.665   5.640  30.777  1.00 37.37 LIG-0.34  N 
ATOM     23 H    SER B 304      13.883   5.451  29.966  1.00 37.37 LIG 0.16  HD
BRANCH 22 24
ATOM     24  CA  SER B 304      12.291   5.303  31.127  1.00 37.74 LIG 0.20  C 
BRANCH 24 25
ATOM     25  CB  SER B 304      11.325   5.845  30.070  1.00 37.88 LIG 0.20  C 
BRANCH 25 26
ATOM     26 OG   SER B 304      11.940   6.865  29.300  1.00 38.36 LIG-0.40  OA
ATOM     27 HG   SER B 304      12.314   7.416  29.812  1.00 38.36 LIG 0.21  HD
ENDBRANCH 25 26
ENDBRANCH 24 25
BRANCH 24 28
ATOM     28  C   SER B 304      12.154   3.787  31.228  1.00 37.93 LIG 0.24  C 
ATOM     29 O    SER B 304      12.684   3.053  30.392  1.00 38.21 LIG-0.27  OA
ATOM     30  N   ALA B 305      11.447   3.320  32.251  1.00 38.06 LIG-0.35  N 
ATOM     31 H    ALA B 305      11.069   3.819  32.841  1.00 38.06 LIG 0.16  HD
BRANCH 30 32
ATOM     32  CA  ALA B 305      11.253   1.889  32.455  1.00 38.30 LIG 0.16  C 
ATOM     33  CB  ALA B 305      12.558   1.255  32.932  1.00 38.13 LIG 0.04  C 
BRANCH 32 34
ATOM     34  C   ALA B 305      10.144   1.617  33.465  1.00 38.47 LIG 0.22  C 
ATOM     35 O    ALA B 305       8.963   1.643  33.061  1.00 38.58 LIG-0.29  OA
ENDBRANCH 32 34
ENDBRANCH 30 32
ENDBRANCH 24 28
ENDBRANCH 22 24
ENDBRANCH 1 20
TORSDOF 14
ENDMDL
MODEL 23
USER: ADFR SOLUTION from run 114
USER: SCORE 10.512931 LL:  -1.660 LR:  -9.919 RR:   0.000 FEB:  -5.743
USER: RMSD 5.743686
USER: SEED 113
USER: STATUS no improvement in best in 7 clusters for 5 generations
USER: GENES 16
USER: genes 0 Translation |==|  0.68717 0.59159 0.37661
USER: genes 1 Rotation |==|  0.35125 0.68454 0.56240 0.93580
USER: genes 2 Torsion [CB]-CA--N-[C] |==|  0.22672
USER: genes 3 Torsion [N]-C--CA-[N] |==|  0.34445
USER: genes 4 Torsion [C]-CA--N-[C] |==|  0.83849
USER: genes 5 Torsion [N]-C--CA-[N] |==|  0.95715
USER: genes 6 Torsion [C]-CA--CB-[OG] |==|  0.64144
USER: genes 7 Torsion [CA]-CB--OG-[HG] |==|  0.83935
USER: genes 8 Torsion [N]-CA--CB-[CG1] |==|  0.74993
USER: genes 9 Torsion [N]-CA--C-[N] |==|  0.97693
USER: genes 10 Torsion [C]-N--CA-[CB] |==|  0.56573
USER: genes 11 Torsion [N]-CA--CB-[OG] |==|  0.72429
USER: genes 12 Torsion [CA]-CB--OG-[HG] |==|  0.57361
USER: genes 13 Torsion [N]-CA--C-[N] |==|  0.31117
USER: genes 14 Torsion [C]-N--CA-[C] |==|  0.53232
USER: genes 15 Torsion [N]-CA--C-[O] |==|  0.95544
ROOT
ATOM      1  CA  VAL B 303      16.865   6.491  31.581  1.00 37.13 LIG 0.18  C 
ENDROOT
BRANCH 1 2
ATOM      2  N   VAL B 303      16.480   6.693  32.972  1.00 37.20 LIG-0.35  N 
ATOM      3  C   SER B 302      16.627   5.740  33.886  1.00 37.39 LIG 0.24  C 
ATOM      4 O    SER B 302      17.079   4.623  33.622  1.00 37.76 LIG-0.27  OA
ATOM      5 H    VAL B 303      16.155   7.472  33.140  1.00 37.20 LIG 0.16  HD
BRANCH 3 6
ATOM      6  CA  SER B 302      16.191   6.096  35.303  1.00 37.09 LIG 0.20  C 
BRANCH 6 7
ATOM      7  N   SER B 302      15.204   5.143  35.794  1.00 36.48 LIG-0.34  N 
ATOM      8 H    SER B 302      15.430   4.737  36.518  1.00 36.48 LIG 0.16  HD
ATOM      9  C   ALA B 301      14.055   4.939  35.158  1.00 36.26 LIG 0.26  C 
ATOM     10 O    ALA B 301      13.746   5.538  34.127  1.00 35.88 LIG-0.27  OA
BRANCH 9 11
ATOM     11  CA  ALA B 301      13.113   3.909  35.773  1.00 36.43 LIG 0.40  C 
ATOM     12  CB  ALA B 301      11.936   4.613  36.441  1.00 36.70 LIG 0.06  C 
ATOM     13  N   ALA B 301      13.828   3.063  36.774  1.00 36.51 LIG 0.61  N 
ENDBRANCH 9 11
ENDBRANCH 6 7
BRANCH 6 14
ATOM     14  CB  SER B 302      17.416   6.120  36.223  1.00 37.65 LIG 0.20  C 
BRANCH 14 15
ATOM     15 OG   SER B 302      17.200   5.334  37.381  1.00 38.63 LIG-0.40  OA
ATOM     16 HG   SER B 302      16.522   5.617  37.789  1.00 38.63 LIG 0.21  HD
ENDBRANCH 14 15
ENDBRANCH 6 14
ENDBRANCH 3 6
ENDBRANCH 1 2
BRANCH 1 17
ATOM     17  CB  VAL B 303      15.768   5.733  30.789  1.00 37.28 LIG 0.01  C 
ATOM     18  CG1 VAL B 303      16.008   4.237  30.873  1.00 36.92 LIG 0.01  C 
ATOM     19  CG2 VAL B 303      14.391   6.081  31.338  1.00 37.06 LIG 0.01  C 
ENDBRANCH 1 17
BRANCH 1 20
ATOM     20  C   VAL B 303      17.102   7.840  30.918  1.00 37.27 LIG 0.24  C 
ATOM     21 O    VAL B 303      17.575   7.910  29.782  1.00 36.92 LIG-0.27  OA
ATOM     22  N   SER B 304      16.763   8.913  31.624  1.00 37.37 LIG-0.34  N 
ATOM     23 H    SER B 304      16.420   8.883  32.412  1.00 37.37 LIG 0.16  HD
BRANCH 22 24
ATOM     24  CA  SER B 304      16.954  10.259  31.099  1.00 37.74 LIG 0.20  C 
BRANCH 24 25
ATOM     25  CB  SER B 304      17.053  11.267  32.246  1.00 37.88 LIG 0.20  C 
BRANCH 25 26
ATOM     26 OG   SER B 304      15.814  11.927  32.447  1.00 38.36 LIG-0.40  OA
ATOM     27 HG   SER B 304      15.950  12.683  32.788  1.00 38.36 LIG 0.21  HD
ENDBRANCH 25 26
ENDBRANCH 24 25
BRANCH 24 28
ATOM     28  C   SER B 304      18.228  10.297  30.261  1.00 37.93 LIG 0.24  C 
ATOM     29 O    SER B 304      19.331  10.163  30.792  1.00 38.21 LIG-0.27  OA
ATOM     30  N   ALA B 305      18.075  10.477  28.953  1.00 38.06 LIG-0.35  N 
ATOM     31 H    ALA B 305      17.313  10.574  28.568  1.00 38.06 LIG 0.16  HD
BRANCH 30 32
ATOM     32  CA  ALA B 305      19.219  10.524  28.051  1.00 38.30 LIG 0.16  C 
ATOM     33  CB  ALA B 305      19.850   9.136  27.945  1.00 38.13 LIG 0.04  C 
BRANCH 32 34
ATOM     34  C   ALA B 305      18.816  11.018  26.667  1.00 38.47 LIG 0.22  C 
ATOM     35 O    ALA B 305      17.601  11.019  26.375  1.00 38.58 LIG-0.29  OA
ENDBRANCH 32 34
ENDBRANCH 30 32
ENDBRANCH 24 28
ENDBRANCH 22 24
ENDBRANCH 1 20
TORSDOF 14
ENDMDL
MODEL 24
USER: ADFR SOLUTION from run 96
USER: SCORE 9.495542 LL:  -2.163 LR:  -9.897 RR:   0.000 FEB:  -5.721
USER: RMSD 8.342924
USER: SEED 95
USER: STATUS no improvement in best in 35 clusters for 5 generations
USER: GENES 16
USER: genes 0 Translation |==|  0.47375 0.52407 0.35149
USER: genes 1 Rotation |==|  0.39302 0.56478 0.01607 0.51301
USER: genes 2 Torsion [CB]-CA--N-[C] |==|  0.41592
USER: genes 3 Torsion [N]-C--CA-[N] |==|  0.89732
USER: genes 4 Torsion [C]-CA--N-[C] |==|  0.84969
USER: genes 5 Torsion [N]-C--CA-[N] |==|  0.56808
USER: genes 6 Torsion [C]-CA--CB-[OG] |==|  0.36324
USER: genes 7 Torsion [CA]-CB--OG-[HG] |==|  0.81747
USER: genes 8 Torsion [N]-CA--CB-[CG1] |==|  0.78201
USER: genes 9 Torsion [N]-CA--C-[N] |==|  0.21711
USER: genes 10 Torsion [C]-N--CA-[CB] |==|  0.48420
USER: genes 11 Torsion [N]-CA--CB-[OG] |==|  0.15679
USER: genes 12 Torsion [CA]-CB--OG-[HG] |==|  0.03217
USER: genes 13 Torsion [N]-CA--C-[N] |==|  0.40135
USER: genes 14 Torsion [C]-N--CA-[C] |==|  0.81456
USER: genes 15 Torsion [N]-CA--C-[O] |==|  0.20836
ROOT
ATOM      1  CA  VAL B 303      12.543   5.123  31.204  1.00 37.13 LIG 0.18  C 
ENDROOT
BRANCH 1 2
ATOM      2  N   VAL B 303      13.976   5.352  31.343  1.00 37.20 LIG-0.35  N 
ATOM      3  C   SER B 302      14.503   5.834  32.464  1.00 37.39 LIG 0.24  C 
ATOM      4 O    SER B 302      13.824   6.136  33.449  1.00 37.76 LIG-0.27  OA
ATOM      5 H    VAL B 303      14.437   5.148  30.646  1.00 37.20 LIG 0.16  HD
BRANCH 3 6
ATOM      6  CA  SER B 302      16.018   6.011  32.472  1.00 37.09 LIG 0.20  C 
BRANCH 6 7
ATOM      7  N   SER B 302      16.668   4.931  31.741  1.00 36.48 LIG-0.34  N 
ATOM      8 H    SER B 302      17.200   5.193  31.118  1.00 36.48 LIG 0.16  HD
ATOM      9  C   ALA B 301      16.440   3.655  32.035  1.00 36.26 LIG 0.26  C 
ATOM     10 O    ALA B 301      15.680   3.302  32.937  1.00 35.88 LIG-0.27  OA
BRANCH 9 11
ATOM     11  CA  ALA B 301      17.179   2.623  31.189  1.00 36.43 LIG 0.40  C 
ATOM     12  CB  ALA B 301      17.335   3.136  29.760  1.00 36.70 LIG 0.06  C 
ATOM     13  N   ALA B 301      16.450   1.320  31.179  1.00 36.51 LIG 0.61  N 
ENDBRANCH 9 11
ENDBRANCH 6 7
BRANCH 6 14
ATOM     14  CB  SER B 302      16.376   7.367  31.855  1.00 37.65 LIG 0.20  C 
BRANCH 14 15
ATOM     15 OG   SER B 302      17.278   8.081  32.680  1.00 38.63 LIG-0.40  OA
ATOM     16 HG   SER B 302      16.899   8.280  33.403  1.00 38.63 LIG 0.21  HD
ENDBRANCH 14 15
ENDBRANCH 6 14
ENDBRANCH 3 6
ENDBRANCH 1 2
BRANCH 1 17
ATOM     17  CB  VAL B 303      12.077   5.300  29.736  1.00 37.28 LIG 0.01  C 
ATOM     18  CG1 VAL B 303      11.949   6.775  29.405  1.00 36.92 LIG 0.01  C 
ATOM     19  CG2 VAL B 303      13.062   4.628  28.789  1.00 37.06 LIG 0.01  C 
ENDBRANCH 1 17
BRANCH 1 20
ATOM     20  C   VAL B 303      12.208   3.709  31.657  1.00 37.27 LIG 0.24  C 
ATOM     21 O    VAL B 303      12.018   2.813  30.833  1.00 36.92 LIG-0.27  OA
ATOM     22  N   SER B 304      12.147   3.508  32.968  1.00 37.37 LIG-0.34  N 
ATOM     23 H    SER B 304      12.289   4.118  33.557  1.00 37.37 LIG 0.16  HD
BRANCH 22 24
ATOM     24  CA  SER B 304      11.823   2.199  33.521  1.00 37.74 LIG 0.20  C 
BRANCH 24 25
ATOM     25  CB  SER B 304      11.960   2.217  35.045  1.00 37.88 LIG 0.20  C 
BRANCH 25 26
ATOM     26 OG   SER B 304      11.143   3.228  35.613  1.00 38.36 LIG-0.40  OA
ATOM     27 HG   SER B 304      10.618   3.525  35.029  1.00 38.36 LIG 0.21  HD
ENDBRANCH 25 26
ENDBRANCH 24 25
BRANCH 24 28
ATOM     28  C   SER B 304      10.396   1.826  33.130  1.00 37.93 LIG 0.24  C 
ATOM     29 O    SER B 304       9.521   2.690  33.057  1.00 38.21 LIG-0.27  OA
ATOM     30  N   ALA B 305      10.164   0.542  32.879  1.00 38.06 LIG-0.35  N 
ATOM     31 H    ALA B 305      10.763  -0.073  32.928  1.00 38.06 LIG 0.16  HD
BRANCH 30 32
ATOM     32  CA  ALA B 305       8.841   0.068  32.490  1.00 38.30 LIG 0.16  C 
ATOM     33  CB  ALA B 305       8.923  -1.396  32.060  1.00 38.13 LIG 0.04  C 
BRANCH 32 34
ATOM     34  C   ALA B 305       7.840   0.219  33.630  1.00 38.47 LIG 0.22  C 
ATOM     35 O    ALA B 305       7.411   1.364  33.887  1.00 38.58 LIG-0.29  OA
ENDBRANCH 32 34
ENDBRANCH 30 32
ENDBRANCH 24 28
ENDBRANCH 22 24
ENDBRANCH 1 20
TORSDOF 14
ENDMDL
MODEL 25
USER: ADFR SOLUTION from run 129
USER: SCORE 10.430294 LL:  -1.444 LR:  -9.870 RR:   0.000 FEB:  -5.693
USER: RMSD 8.257922
USER: SEED 128
USER: STATUS no improvement in best in 29 clusters for 5 generations
USER: GENES 16
USER: genes 0 Translation |==|  0.45574 0.51993 0.36602
USER: genes 1 Rotation |==|  0.51066 0.57932 0.01087 0.56596
USER: genes 2 Torsion [CB]-CA--N-[C] |==|  0.77111
USER: genes 3 Torsion [N]-C--CA-[N] |==|  0.88367
USER: genes 4 Torsion [C]-CA--N-[C] |==|  0.75119
USER: genes 5 Torsion [N]-C--CA-[N] |==|  0.23928
USER: genes 6 Torsion [C]-CA--CB-[OG] |==|  0.79072
USER: genes 7 Torsion [CA]-CB--OG-[HG] |==|  0.59960
USER: genes 8 Torsion [N]-CA--CB-[CG1] |==|  0.78277
USER: genes 9 Torsion [N]-CA--C-[N] |==|  0.14444
USER: genes 10 Torsion [C]-N--CA-[CB] |==|  0.76721
USER: genes 11 Torsion [N]-CA--CB-[OG] |==|  0.88968
USER: genes 12 Torsion [CA]-CB--OG-[HG] |==|  0.05494
USER: genes 13 Torsion [N]-CA--C-[N] |==|  0.18425
USER: genes 14 Torsion [C]-N--CA-[C] |==|  0.87639
USER: genes 15 Torsion [N]-CA--C-[O] |==|  0.33032
ROOT
ATOM      1  CA  VAL B 303      12.179   5.040  31.422  1.00 37.13 LIG 0.18  C 
ENDROOT
BRANCH 1 2
ATOM      2  N   VAL B 303      13.331   5.388  32.244  1.00 37.20 LIG-0.35  N 
ATOM      3  C   SER B 302      14.379   4.580  32.360  1.00 37.39 LIG 0.24  C 
ATOM      4 O    SER B 302      14.444   3.482  31.800  1.00 37.76 LIG-0.27  OA
ATOM      5 H    VAL B 303      13.268   6.150  32.638  1.00 37.20 LIG 0.16  HD
BRANCH 3 6
ATOM      6  CA  SER B 302      15.517   5.078  33.244  1.00 37.09 LIG 0.20  C 
BRANCH 6 7
ATOM      7  N   SER B 302      15.769   6.494  33.013  1.00 36.48 LIG-0.34  N 
ATOM      8 H    SER B 302      15.319   7.023  33.521  1.00 36.48 LIG 0.16  HD
ATOM      9  C   ALA B 301      16.628   6.908  32.087  1.00 36.26 LIG 0.26  C 
ATOM     10 O    ALA B 301      17.268   6.133  31.375  1.00 35.88 LIG-0.27  OA
BRANCH 9 11
ATOM     11  CA  ALA B 301      16.792   8.418  31.942  1.00 36.43 LIG 0.40  C 
ATOM     12  CB  ALA B 301      17.204   8.762  30.514  1.00 36.70 LIG 0.06  C 
ATOM     13  N   ALA B 301      17.811   8.938  32.900  1.00 36.51 LIG 0.61  N 
ENDBRANCH 9 11
ENDBRANCH 6 7
BRANCH 6 14
ATOM     14  CB  SER B 302      15.167   4.828  34.715  1.00 37.65 LIG 0.20  C 
BRANCH 14 15
ATOM     15 OG   SER B 302      14.206   5.761  35.176  1.00 38.63 LIG-0.40  OA
ATOM     16 HG   SER B 302      14.368   5.957  35.976  1.00 38.63 LIG 0.21  HD
ENDBRANCH 14 15
ENDBRANCH 6 14
ENDBRANCH 3 6
ENDBRANCH 1 2
BRANCH 1 17
ATOM     17  CB  VAL B 303      12.423   5.371  29.927  1.00 37.28 LIG 0.01  C 
ATOM     18  CG1 VAL B 303      12.244   6.859  29.690  1.00 36.92 LIG 0.01  C 
ATOM     19  CG2 VAL B 303      13.822   4.933  29.515  1.00 37.06 LIG 0.01  C 
ENDBRANCH 1 17
BRANCH 1 20
ATOM     20  C   VAL B 303      11.894   3.550  31.552  1.00 37.27 LIG 0.24  C 
ATOM     21 O    VAL B 303      11.789   2.839  30.551  1.00 36.92 LIG-0.27  OA
ATOM     22  N   SER B 304      11.780   3.076  32.787  1.00 37.37 LIG-0.34  N 
ATOM     23 H    SER B 304      11.863   3.555  33.497  1.00 37.37 LIG 0.16  HD
BRANCH 22 24
ATOM     24  CA  SER B 304      11.497   1.668  33.038  1.00 37.74 LIG 0.20  C 
BRANCH 24 25
ATOM     25  CB  SER B 304       9.992   1.406  32.954  1.00 37.88 LIG 0.20  C 
BRANCH 25 26
ATOM     26 OG   SER B 304       9.260   2.467  33.546  1.00 38.36 LIG-0.40  OA
ATOM     27 HG   SER B 304       9.745   3.152  33.590  1.00 38.36 LIG 0.21  HD
ENDBRANCH 25 26
ENDBRANCH 24 25
BRANCH 24 28
ATOM     28  C   SER B 304      12.232   0.816  32.007  1.00 37.93 LIG 0.24  C 
ATOM     29 O    SER B 304      11.605   0.165  31.171  1.00 38.21 LIG-0.27  OA
ATOM     30  N   ALA B 305      13.559   0.823  32.068  1.00 38.06 LIG-0.35  N 
ATOM     31 H    ALA B 305      14.012   1.270  32.647  1.00 38.06 LIG 0.16  HD
BRANCH 30 32
ATOM     32  CA  ALA B 305      14.369   0.052  31.132  1.00 38.30 LIG 0.16  C 
ATOM     33  CB  ALA B 305      15.810  -0.023  31.636  1.00 38.13 LIG 0.04  C 
BRANCH 32 34
ATOM     34  C   ALA B 305      13.812  -1.354  30.942  1.00 38.47 LIG 0.22  C 
ATOM     35 O    ALA B 305      13.446  -1.691  29.797  1.00 38.58 LIG-0.29  OA
ENDBRANCH 32 34
ENDBRANCH 30 32
ENDBRANCH 24 28
ENDBRANCH 22 24
ENDBRANCH 1 20
TORSDOF 14
ENDMDL
MODEL 26
USER: ADFR SOLUTION from run 154
USER: SCORE 10.001687 LL:  -1.869 LR:  -9.853 RR:   0.000 FEB:  -5.677
USER: RMSD 2.096103
USER: SEED 153
USER: STATUS no improvement in best in 22 clusters for 5 generations
USER: GENES 16
USER: genes 0 Translation |==|  0.47082 0.42432 0.38629
USER: genes 1 Rotation |==|  0.51563 0.57438 0.43116 0.98937
USER: genes 2 Torsion [CB]-CA--N-[C] |==|  0.24444
USER: genes 3 Torsion [N]-C--CA-[N] |==|  0.48222
USER: genes 4 Torsion [C]-CA--N-[C] |==|  0.60319
USER: genes 5 Torsion [N]-C--CA-[N] |==|  0.42678
USER: genes 6 Torsion [C]-CA--CB-[OG] |==|  0.51134
USER: genes 7 Torsion [CA]-CB--OG-[HG] |==|  0.82690
USER: genes 8 Torsion [N]-CA--CB-[CG1] |==|  0.25025
USER: genes 9 Torsion [N]-CA--C-[N] |==|  0.90830
USER: genes 10 Torsion [C]-N--CA-[CB] |==|  0.82739
USER: genes 11 Torsion [N]-CA--CB-[OG] |==|  0.80914
USER: genes 12 Torsion [CA]-CB--OG-[HG] |==|  0.70599
USER: genes 13 Torsion [N]-CA--C-[N] |==|  0.49785
USER: genes 14 Torsion [C]-N--CA-[C] |==|  0.76305
USER: genes 15 Torsion [N]-CA--C-[O] |==|  0.02000
ROOT
ATOM      1  CA  VAL B 303      12.484   3.104  31.726  1.00 37.13 LIG 0.18  C 
ENDROOT
BRANCH 1 2
ATOM      2  N   VAL B 303      11.437   3.111  32.740  1.00 37.20 LIG-0.35  N 
ATOM      3  C   SER B 302      10.676   2.046  32.969  1.00 37.39 LIG 0.24  C 
ATOM      4 O    SER B 302      10.789   0.993  32.336  1.00 37.76 LIG-0.27  OA
ATOM      5 H    VAL B 303      11.361   3.855  33.166  1.00 37.20 LIG 0.16  HD
BRANCH 3 6
ATOM      6  CA  SER B 302       9.627   2.194  34.067  1.00 37.09 LIG 0.20  C 
BRANCH 6 7
ATOM      7  N   SER B 302       8.765   1.021  34.118  1.00 36.48 LIG-0.34  N 
ATOM      8 H    SER B 302       9.168   0.276  33.968  1.00 36.48 LIG 0.16  HD
ATOM      9  C   ALA B 301       7.465   1.121  34.379  1.00 36.26 LIG 0.26  C 
ATOM     10 O    ALA B 301       6.909   2.197  34.599  1.00 35.88 LIG-0.27  OA
BRANCH 9 11
ATOM     11  CA  ALA B 301       6.675  -0.184  34.394  1.00 36.43 LIG 0.40  C 
ATOM     12  CB  ALA B 301       6.246  -0.551  32.977  1.00 36.70 LIG 0.06  C 
ATOM     13  N   ALA B 301       5.472  -0.069  35.271  1.00 36.51 LIG 0.61  N 
ENDBRANCH 9 11
ENDBRANCH 6 7
BRANCH 6 14
ATOM     14  CB  SER B 302      10.325   2.406  35.414  1.00 37.65 LIG 0.20  C 
BRANCH 14 15
ATOM     15 OG   SER B 302       9.386   2.454  36.473  1.00 38.63 LIG-0.40  OA
ATOM     16 HG   SER B 302       8.871   3.108  36.361  1.00 38.63 LIG 0.21  HD
ENDBRANCH 14 15
ENDBRANCH 6 14
ENDBRANCH 3 6
ENDBRANCH 1 2
BRANCH 1 17
ATOM     17  CB  VAL B 303      11.936   3.518  30.336  1.00 37.28 LIG 0.01  C 
ATOM     18  CG1 VAL B 303      12.047   5.021  30.161  1.00 36.92 LIG 0.01  C 
ATOM     19  CG2 VAL B 303      12.703   2.798  29.235  1.00 37.06 LIG 0.01  C 
ENDBRANCH 1 17
BRANCH 1 20
ATOM     20  C   VAL B 303      13.585   4.075  32.127  1.00 37.27 LIG 0.24  C 
ATOM     21 O    VAL B 303      14.761   3.852  31.830  1.00 36.92 LIG-0.27  OA
ATOM     22  N   SER B 304      13.204   5.158  32.793  1.00 37.37 LIG-0.34  N 
ATOM     23 H    SER B 304      12.388   5.336  32.997  1.00 37.37 LIG 0.16  HD
BRANCH 22 24
ATOM     24  CA  SER B 304      14.169   6.155  33.240  1.00 37.74 LIG 0.20  C 
BRANCH 24 25
ATOM     25  CB  SER B 304      15.156   5.532  34.229  1.00 37.88 LIG 0.20  C 
BRANCH 25 26
ATOM     26 OG   SER B 304      14.511   5.207  35.450  1.00 38.36 LIG-0.40  OA
ATOM     27 HG   SER B 304      14.734   5.760  36.041  1.00 38.36 LIG 0.21  HD
ENDBRANCH 25 26
ENDBRANCH 24 25
BRANCH 24 28
ATOM     28  C   SER B 304      14.921   6.705  32.031  1.00 37.93 LIG 0.24  C 
ATOM     29 O    SER B 304      14.676   6.287  30.898  1.00 38.21 LIG-0.27  OA
ATOM     30  N   ALA B 305      15.832   7.641  32.273  1.00 38.06 LIG-0.35  N 
ATOM     31 H    ALA B 305      16.016   7.942  33.057  1.00 38.06 LIG 0.16  HD
BRANCH 30 32
ATOM     32  CA  ALA B 305      16.608   8.246  31.196  1.00 38.30 LIG 0.16  C 
ATOM     33  CB  ALA B 305      17.033   9.658  31.597  1.00 38.13 LIG 0.04  C 
BRANCH 32 34
ATOM     34  C   ALA B 305      17.837   7.409  30.860  1.00 38.47 LIG 0.22  C 
ATOM     35 O    ALA B 305      17.957   6.294  31.410  1.00 38.58 LIG-0.29  OA
ENDBRANCH 32 34
ENDBRANCH 30 32
ENDBRANCH 24 28
ENDBRANCH 22 24
ENDBRANCH 1 20
TORSDOF 14
ENDMDL
MODEL 27
USER: ADFR SOLUTION from run 77
USER: SCORE 9.918557 LL:  -2.797 LR:  -9.842 RR:   0.000 FEB:  -5.666
USER: RMSD 5.649296
USER: SEED 76
USER: STATUS no improvement in best in 18 clusters for 5 generations
USER: GENES 16
USER: genes 0 Translation |==|  0.66633 0.59258 0.48191
USER: genes 1 Rotation |==|  0.15633 0.26031 0.76203 0.57603
USER: genes 2 Torsion [CB]-CA--N-[C] |==|  0.44470
USER: genes 3 Torsion [N]-C--CA-[N] |==|  0.39098
USER: genes 4 Torsion [C]-CA--N-[C] |==|  0.64444
USER: genes 5 Torsion [N]-C--CA-[N] |==|  0.25822
USER: genes 6 Torsion [C]-CA--CB-[OG] |==|  0.75140
USER: genes 7 Torsion [CA]-CB--OG-[HG] |==|  0.04943
USER: genes 8 Torsion [N]-CA--CB-[CG1] |==|  0.52114
USER: genes 9 Torsion [N]-CA--C-[N] |==|  0.90461
USER: genes 10 Torsion [C]-N--CA-[CB] |==|  0.45130
USER: genes 11 Torsion [N]-CA--CB-[OG] |==|  0.96225
USER: genes 12 Torsion [CA]-CB--OG-[HG] |==|  0.37077
USER: genes 13 Torsion [N]-CA--C-[N] |==|  0.89905
USER: genes 14 Torsion [C]-N--CA-[C] |==|  0.71171
USER: genes 15 Torsion [N]-CA--C-[O] |==|  0.06866
ROOT
ATOM      1  CA  VAL B 303      16.443   6.511  33.161  1.00 37.13 LIG 0.18  C 
ENDROOT
BRANCH 1 2
ATOM      2  N   VAL B 303      15.742   5.408  33.806  1.00 37.20 LIG-0.35  N 
ATOM      3  C   SER B 302      14.418   5.305  33.773  1.00 37.39 LIG 0.24  C 
ATOM      4 O    SER B 302      13.694   6.135  33.216  1.00 37.76 LIG-0.27  OA
ATOM      5 H    VAL B 303      16.257   4.843  34.200  1.00 37.20 LIG 0.16  HD
BRANCH 3 6
ATOM      6  CA  SER B 302      13.821   4.093  34.481  1.00 37.09 LIG 0.20  C 
BRANCH 6 7
ATOM      7  N   SER B 302      12.596   4.456  35.182  1.00 36.48 LIG-0.34  N 
ATOM      8 H    SER B 302      12.017   4.867  34.697  1.00 36.48 LIG 0.16  HD
ATOM      9  C   ALA B 301      12.416   4.164  36.467  1.00 36.26 LIG 0.26  C 
ATOM     10 O    ALA B 301      13.256   3.568  37.141  1.00 35.88 LIG-0.27  OA
BRANCH 9 11
ATOM     11  CA  ALA B 301      11.092   4.608  37.082  1.00 36.43 LIG 0.40  C 
ATOM     12  CB  ALA B 301      11.304   5.011  38.538  1.00 36.70 LIG 0.06  C 
ATOM     13  N   ALA B 301      10.075   3.519  37.004  1.00 36.51 LIG 0.61  N 
ENDBRANCH 9 11
ENDBRANCH 6 7
BRANCH 6 14
ATOM     14  CB  SER B 302      13.544   2.988  33.456  1.00 37.65 LIG 0.20  C 
BRANCH 14 15
ATOM     15 OG   SER B 302      12.242   3.112  32.912  1.00 38.63 LIG-0.40  OA
ATOM     16 HG   SER B 302      11.950   3.886  33.057  1.00 38.63 LIG 0.21  HD
ENDBRANCH 14 15
ENDBRANCH 6 14
ENDBRANCH 3 6
ENDBRANCH 1 2
BRANCH 1 17
ATOM     17  CB  VAL B 303      17.872   6.692  33.734  1.00 37.28 LIG 0.01  C 
ATOM     18  CG1 VAL B 303      18.499   7.956  33.177  1.00 36.92 LIG 0.01  C 
ATOM     19  CG2 VAL B 303      17.824   6.750  35.255  1.00 37.06 LIG 0.01  C 
ENDBRANCH 1 17
BRANCH 1 20
ATOM     20  C   VAL B 303      16.546   6.242  31.666  1.00 37.27 LIG 0.24  C 
ATOM     21 O    VAL B 303      16.503   7.169  30.855  1.00 36.92 LIG-0.27  OA
ATOM     22  N   SER B 304      16.694   4.973  31.303  1.00 37.37 LIG-0.34  N 
ATOM     23 H    SER B 304      16.739   4.316  31.855  1.00 37.37 LIG 0.16  HD
BRANCH 22 24
ATOM     24  CA  SER B 304      16.792   4.591  29.900  1.00 37.74 LIG 0.20  C 
BRANCH 24 25
ATOM     25  CB  SER B 304      17.379   3.183  29.772  1.00 37.88 LIG 0.20  C 
BRANCH 25 26
ATOM     26 OG   SER B 304      17.949   2.761  31.000  1.00 38.36 LIG-0.40  OA
ATOM     27 HG   SER B 304      17.697   1.978  31.172  1.00 38.36 LIG 0.21  HD
ENDBRANCH 25 26
ENDBRANCH 24 25
BRANCH 24 28
ATOM     28  C   SER B 304      15.404   4.636  29.267  1.00 37.93 LIG 0.24  C 
ATOM     29 O    SER B 304      15.259   5.008  28.102  1.00 38.21 LIG-0.27  OA
ATOM     30  N   ALA B 305      14.389   4.255  30.035  1.00 38.06 LIG-0.35  N 
ATOM     31 H    ALA B 305      14.473   3.995  30.850  1.00 38.06 LIG 0.16  HD
BRANCH 30 32
ATOM     32  CA  ALA B 305      13.017   4.250  29.537  1.00 38.30 LIG 0.16  C 
ATOM     33  CB  ALA B 305      12.332   2.942  29.929  1.00 38.13 LIG 0.04  C 
BRANCH 32 34
ATOM     34  C   ALA B 305      12.225   5.434  30.079  1.00 38.47 LIG 0.22  C 
ATOM     35 O    ALA B 305      12.858   6.452  30.431  1.00 38.58 LIG-0.29  OA
ENDBRANCH 32 34
ENDBRANCH 30 32
ENDBRANCH 24 28
ENDBRANCH 22 24
ENDBRANCH 1 20
TORSDOF 14
ENDMDL
MODEL 28
USER: ADFR SOLUTION from run 8
USER: SCORE 9.786931 LL:  -2.051 LR:  -9.821 RR:   0.000 FEB:  -5.645
USER: RMSD 8.552284
USER: SEED 674008
USER: STATUS no improvement in best in 25 clusters for 5 generations
USER: GENES 16
USER: genes 0 Translation |==|  0.50389 0.52449 0.39827
USER: genes 1 Rotation |==|  0.46417 0.33747 0.97147 0.50457
USER: genes 2 Torsion [CB]-CA--N-[C] |==|  0.39441
USER: genes 3 Torsion [N]-C--CA-[N] |==|  0.32831
USER: genes 4 Torsion [C]-CA--N-[C] |==|  0.63136
USER: genes 5 Torsion [N]-C--CA-[N] |==|  0.19547
USER: genes 6 Torsion [C]-CA--CB-[OG] |==|  0.70576
USER: genes 7 Torsion [CA]-CB--OG-[HG] |==|  0.04461
USER: genes 8 Torsion [N]-CA--CB-[CG1] |==|  0.15853
USER: genes 9 Torsion [N]-CA--C-[N] |==|  0.18847
USER: genes 10 Torsion [C]-N--CA-[CB] |==|  0.17773
USER: genes 11 Torsion [N]-CA--CB-[OG] |==|  0.75264
USER: genes 12 Torsion [CA]-CB--OG-[HG] |==|  0.13484
USER: genes 13 Torsion [N]-CA--C-[N] |==|  0.06111
USER: genes 14 Torsion [C]-N--CA-[C] |==|  0.74915
USER: genes 15 Torsion [N]-CA--C-[O] |==|  0.07822
ROOT
ATOM      1  CA  VAL B 303      13.154   5.132  31.906  1.00 37.13 LIG 0.18  C 
ENDROOT
BRANCH 1 2
ATOM      2  N   VAL B 303      14.305   4.849  32.753  1.00 37.20 LIG-0.35  N 
ATOM      3  C   SER B 302      14.237   4.929  34.078  1.00 37.39 LIG 0.24  C 
ATOM      4 O    SER B 302      13.210   5.261  34.677  1.00 37.76 LIG-0.27  OA
ATOM      5 H    VAL B 303      15.017   4.631  32.323  1.00 37.20 LIG 0.16  HD
BRANCH 3 6
ATOM      6  CA  SER B 302      15.516   4.595  34.838  1.00 37.09 LIG 0.20  C 
BRANCH 6 7
ATOM      7  N   SER B 302      15.979   5.747  35.601  1.00 36.48 LIG-0.34  N 
ATOM      8 H    SER B 302      15.367   6.139  36.060  1.00 36.48 LIG 0.16  HD
ATOM      9  C   ALA B 301      17.249   6.138  35.571  1.00 36.26 LIG 0.26  C 
ATOM     10 O    ALA B 301      18.112   5.558  34.912  1.00 35.88 LIG-0.27  OA
BRANCH 9 11
ATOM     11  CA  ALA B 301      17.600   7.364  36.408  1.00 36.43 LIG 0.40  C 
ATOM     12  CB  ALA B 301      18.996   7.861  36.046  1.00 36.70 LIG 0.06  C 
ATOM     13  N   ALA B 301      17.540   7.050  37.866  1.00 36.51 LIG 0.61  N 
ENDBRANCH 9 11
ENDBRANCH 6 7
BRANCH 6 14
ATOM     14  CB  SER B 302      15.261   3.404  35.768  1.00 37.65 LIG 0.20  C 
BRANCH 14 15
ATOM     15 OG   SER B 302      15.177   3.820  37.118  1.00 38.63 LIG-0.40  OA
ATOM     16 HG   SER B 302      15.063   4.652  37.149  1.00 38.63 LIG 0.21  HD
ENDBRANCH 14 15
ENDBRANCH 6 14
ENDBRANCH 3 6
ENDBRANCH 1 2
BRANCH 1 17
ATOM     17  CB  VAL B 303      13.567   5.880  30.612  1.00 37.28 LIG 0.01  C 
ATOM     18  CG1 VAL B 303      14.598   5.069  29.851  1.00 36.92 LIG 0.01  C 
ATOM     19  CG2 VAL B 303      12.344   6.135  29.741  1.00 37.06 LIG 0.01  C 
ENDBRANCH 1 17
BRANCH 1 20
ATOM     20  C   VAL B 303      12.475   3.825  31.519  1.00 37.27 LIG 0.24  C 
ATOM     21 O    VAL B 303      12.501   3.423  30.355  1.00 36.92 LIG-0.27  OA
ATOM     22  N   SER B 304      11.876   3.158  32.499  1.00 37.37 LIG-0.34  N 
ATOM     23 H    SER B 304      11.859   3.418  33.319  1.00 37.37 LIG 0.16  HD
BRANCH 22 24
ATOM     24  CA  SER B 304      11.183   1.901  32.249  1.00 37.74 LIG 0.20  C 
BRANCH 24 25
ATOM     25  CB  SER B 304      12.173   0.834  31.774  1.00 37.88 LIG 0.20  C 
BRANCH 25 26
ATOM     26 OG   SER B 304      12.307   0.861  30.363  1.00 38.36 LIG-0.40  OA
ATOM     27 HG   SER B 304      12.434   1.652  30.109  1.00 38.36 LIG 0.21  HD
ENDBRANCH 25 26
ENDBRANCH 24 25
BRANCH 24 28
ATOM     28  C   SER B 304      10.497   1.441  33.531  1.00 37.93 LIG 0.24  C 
ATOM     29 O    SER B 304      10.203   0.256  33.694  1.00 38.21 LIG-0.27  OA
ATOM     30  N   ALA B 305      10.245   2.377  34.439  1.00 38.06 LIG-0.35  N 
ATOM     31 H    ALA B 305      10.441   3.208  34.340  1.00 38.06 LIG 0.16  HD
BRANCH 30 32
ATOM     32  CA  ALA B 305       9.598   2.055  35.707  1.00 38.30 LIG 0.16  C 
ATOM     33  CB  ALA B 305      10.116   2.987  36.801  1.00 38.13 LIG 0.04  C 
BRANCH 32 34
ATOM     34  C   ALA B 305       8.082   2.170  35.601  1.00 38.47 LIG 0.22  C 
ATOM     35 O    ALA B 305       7.554   1.973  34.487  1.00 38.58 LIG-0.29  OA
ENDBRANCH 32 34
ENDBRANCH 30 32
ENDBRANCH 24 28
ENDBRANCH 22 24
ENDBRANCH 1 20
TORSDOF 14
ENDMDL
MODEL 29
USER: ADFR SOLUTION from run 133
USER: SCORE 10.446021 LL:  -1.872 LR:  -9.807 RR:   0.000 FEB:  -5.631
USER: RMSD 8.817949
USER: SEED 132
USER: STATUS no improvement in best in 41 clusters for 5 generations
USER: GENES 16
USER: genes 0 Translation |==|  0.58561 0.56104 0.41280
USER: genes 1 Rotation |==|  0.42773 0.63165 0.97686 0.50671
USER: genes 2 Torsion [CB]-CA--N-[C] |==|  0.87222
USER: genes 3 Torsion [N]-C--CA-[N] |==|  0.92450
USER: genes 4 Torsion [C]-CA--N-[C] |==|  0.78629
USER: genes 5 Torsion [N]-C--CA-[N] |==|  0.40386
USER: genes 6 Torsion [C]-CA--CB-[OG] |==|  0.02544
USER: genes 7 Torsion [CA]-CB--OG-[HG] |==|  0.58324
USER: genes 8 Torsion [N]-CA--CB-[CG1] |==|  0.54231
USER: genes 9 Torsion [N]-CA--C-[N] |==|  0.84057
USER: genes 10 Torsion [C]-N--CA-[CB] |==|  0.86613
USER: genes 11 Torsion [N]-CA--CB-[OG] |==|  0.91239
USER: genes 12 Torsion [CA]-CB--OG-[HG] |==|  0.77979
USER: genes 13 Torsion [N]-CA--C-[N] |==|  0.81793
USER: genes 14 Torsion [C]-N--CA-[C] |==|  0.19801
USER: genes 15 Torsion [N]-CA--C-[O] |==|  0.27064
ROOT
ATOM      1  CA  VAL B 303      14.809   5.872  32.124  1.00 37.13 LIG 0.18  C 
ENDROOT
BRANCH 1 2
ATOM      2  N   VAL B 303      15.869   6.503  32.900  1.00 37.20 LIG-0.35  N 
ATOM      3  C   SER B 302      16.897   5.808  33.376  1.00 37.39 LIG 0.24  C 
ATOM      4 O    SER B 302      17.016   4.590  33.212  1.00 37.76 LIG-0.27  OA
ATOM      5 H    VAL B 303      15.768   7.349  33.017  1.00 37.20 LIG 0.16  HD
BRANCH 3 6
ATOM      6  CA  SER B 302      17.937   6.600  34.160  1.00 37.09 LIG 0.20  C 
BRANCH 6 7
ATOM      7  N   SER B 302      17.967   7.989  33.722  1.00 36.48 LIG-0.34  N 
ATOM      8 H    SER B 302      17.575   8.538  34.256  1.00 36.48 LIG 0.16  HD
ATOM      9  C   ALA B 301      18.559   8.350  32.588  1.00 36.26 LIG 0.26  C 
ATOM     10 O    ALA B 301      19.122   7.548  31.843  1.00 35.88 LIG-0.27  OA
BRANCH 9 11
ATOM     11  CA  ALA B 301      18.510   9.836  32.243  1.00 36.43 LIG 0.40  C 
ATOM     12  CB  ALA B 301      17.303  10.125  31.355  1.00 36.70 LIG 0.06  C 
ATOM     13  N   ALA B 301      19.761  10.263  31.549  1.00 36.51 LIG 0.61  N 
ENDBRANCH 9 11
ENDBRANCH 6 7
BRANCH 6 14
ATOM     14  CB  SER B 302      17.621   6.516  35.657  1.00 37.65 LIG 0.20  C 
BRANCH 14 15
ATOM     15 OG   SER B 302      16.596   5.572  35.909  1.00 38.63 LIG-0.40  OA
ATOM     16 HG   SER B 302      16.161   5.806  36.589  1.00 38.63 LIG 0.21  HD
ENDBRANCH 14 15
ENDBRANCH 6 14
ENDBRANCH 3 6
ENDBRANCH 1 2
BRANCH 1 17
ATOM     17  CB  VAL B 303      15.382   4.924  31.039  1.00 37.28 LIG 0.01  C 
ATOM     18  CG1 VAL B 303      14.305   4.584  30.026  1.00 36.92 LIG 0.01  C 
ATOM     19  CG2 VAL B 303      16.572   5.576  30.349  1.00 37.06 LIG 0.01  C 
ENDBRANCH 1 17
BRANCH 1 20
ATOM     20  C   VAL B 303      13.911   5.066  33.052  1.00 37.27 LIG 0.24  C 
ATOM     21 O    VAL B 303      12.700   5.289  33.107  1.00 36.92 LIG-0.27  OA
ATOM     22  N   SER B 304      14.504   4.122  33.774  1.00 37.37 LIG-0.34  N 
ATOM     23 H    SER B 304      15.344   3.945  33.739  1.00 37.37 LIG 0.16  HD
BRANCH 22 24
ATOM     24  CA  SER B 304      13.750   3.294  34.707  1.00 37.74 LIG 0.20  C 
BRANCH 24 25
ATOM     25  CB  SER B 304      12.855   4.166  35.590  1.00 37.88 LIG 0.20  C 
BRANCH 25 26
ATOM     26 OG   SER B 304      13.451   5.434  35.816  1.00 38.36 LIG-0.40  OA
ATOM     27 HG   SER B 304      14.038   5.365  36.413  1.00 38.36 LIG 0.21  HD
ENDBRANCH 25 26
ENDBRANCH 24 25
BRANCH 24 28
ATOM     28  C   SER B 304      12.897   2.301  33.922  1.00 37.93 LIG 0.24  C 
ATOM     29 O    SER B 304      13.116   1.091  33.997  1.00 38.21 LIG-0.27  OA
ATOM     30  N   ALA B 305      11.926   2.812  33.173  1.00 38.06 LIG-0.35  N 
ATOM     31 H    ALA B 305      11.762   3.654  33.108  1.00 38.06 LIG 0.16  HD
BRANCH 30 32
ATOM     32  CA  ALA B 305      11.043   1.961  32.385  1.00 38.30 LIG 0.16  C 
ATOM     33  CB  ALA B 305      11.874   0.992  31.545  1.00 38.13 LIG 0.04  C 
BRANCH 32 34
ATOM     34  C   ALA B 305      10.080   1.183  33.274  1.00 38.47 LIG 0.22  C 
ATOM     35 O    ALA B 305       8.928   1.639  33.432  1.00 38.58 LIG-0.29  OA
ENDBRANCH 32 34
ENDBRANCH 30 32
ENDBRANCH 24 28
ENDBRANCH 22 24
ENDBRANCH 1 20
TORSDOF 14
ENDMDL
MODEL 30
USER: ADFR SOLUTION from run 106
USER: SCORE 9.743598 LL:  -1.499 LR:  -9.804 RR:   0.000 FEB:  -5.628
USER: RMSD 9.866863
USER: SEED 105
USER: STATUS no improvement in best in 24 clusters for 5 generations
USER: GENES 16
USER: genes 0 Translation |==|  0.69353 0.69661 0.42445
USER: genes 1 Rotation |==|  0.45371 0.69284 0.04120 0.51322
USER: genes 2 Torsion [CB]-CA--N-[C] |==|  0.54180
USER: genes 3 Torsion [N]-C--CA-[N] |==|  0.04424
USER: genes 4 Torsion [C]-CA--N-[C] |==|  0.75035
USER: genes 5 Torsion [N]-C--CA-[N] |==|  0.08434
USER: genes 6 Torsion [C]-CA--CB-[OG] |==|  0.76739
USER: genes 7 Torsion [CA]-CB--OG-[HG] |==|  0.87712
USER: genes 8 Torsion [N]-CA--CB-[CG1] |==|  0.75374
USER: genes 9 Torsion [N]-CA--C-[N] |==|  0.27533
USER: genes 10 Torsion [C]-N--CA-[CB] |==|  0.48942
USER: genes 11 Torsion [N]-CA--CB-[OG] |==|  0.22789
USER: genes 12 Torsion [CA]-CB--OG-[HG] |==|  0.32400
USER: genes 13 Torsion [N]-CA--C-[N] |==|  0.50794
USER: genes 14 Torsion [C]-N--CA-[C] |==|  0.20422
USER: genes 15 Torsion [N]-CA--C-[O] |==|  0.93409
ROOT
ATOM      1  CA  VAL B 303      16.994   8.617  32.299  1.00 37.13 LIG 0.18  C 
ENDROOT
BRANCH 1 2
ATOM      2  N   VAL B 303      18.371   8.483  32.757  1.00 37.20 LIG-0.35  N 
ATOM      3  C   SER B 302      18.741   7.517  33.591  1.00 37.39 LIG 0.24  C 
ATOM      4 O    SER B 302      17.952   6.685  34.045  1.00 37.76 LIG-0.27  OA
ATOM      5 H    VAL B 303      18.909   9.076  32.442  1.00 37.20 LIG 0.16  HD
BRANCH 3 6
ATOM      6  CA  SER B 302      20.217   7.492  33.976  1.00 37.09 LIG 0.20  C 
BRANCH 6 7
ATOM      7  N   SER B 302      20.859   8.757  33.645  1.00 36.48 LIG-0.34  N 
ATOM      8 H    SER B 302      20.837   9.343  34.274  1.00 36.48 LIG 0.16  HD
ATOM      9  C   ALA B 301      21.426   8.962  32.460  1.00 36.26 LIG 0.26  C 
ATOM     10 O    ALA B 301      21.453   8.106  31.575  1.00 35.88 LIG-0.27  OA
BRANCH 9 11
ATOM     11  CA  ALA B 301      22.056  10.334  32.239  1.00 36.43 LIG 0.40  C 
ATOM     12  CB  ALA B 301      23.200  10.226  31.236  1.00 36.70 LIG 0.06  C 
ATOM     13  N   ALA B 301      22.563  10.901  33.523  1.00 36.51 LIG 0.61  N 
ENDBRANCH 9 11
ENDBRANCH 6 7
BRANCH 6 14
ATOM     14  CB  SER B 302      20.347   7.201  35.475  1.00 37.65 LIG 0.20  C 
BRANCH 14 15
ATOM     15 OG   SER B 302      20.203   8.384  36.239  1.00 38.63 LIG-0.40  OA
ATOM     16 HG   SER B 302      20.645   9.003  35.883  1.00 38.63 LIG 0.21  HD
ENDBRANCH 14 15
ENDBRANCH 6 14
ENDBRANCH 3 6
ENDBRANCH 1 2
BRANCH 1 17
ATOM     17  CB  VAL B 303      16.890   9.559  31.071  1.00 37.28 LIG 0.01  C 
ATOM     18  CG1 VAL B 303      16.707  10.993  31.531  1.00 36.92 LIG 0.01  C 
ATOM     19  CG2 VAL B 303      18.137   9.434  30.207  1.00 37.06 LIG 0.01  C 
ENDBRANCH 1 17
BRANCH 1 20
ATOM     20  C   VAL B 303      16.452   7.248  31.912  1.00 37.27 LIG 0.24  C 
ATOM     21 O    VAL B 303      16.723   6.751  30.817  1.00 36.92 LIG-0.27  OA
ATOM     22  N   SER B 304      15.696   6.636  32.815  1.00 37.37 LIG-0.34  N 
ATOM     23 H    SER B 304      15.508   6.962  33.588  1.00 37.37 LIG 0.16  HD
BRANCH 22 24
ATOM     24  CA  SER B 304      15.111   5.326  32.554  1.00 37.74 LIG 0.20  C 
BRANCH 24 25
ATOM     25  CB  SER B 304      14.371   4.818  33.793  1.00 37.88 LIG 0.20  C 
BRANCH 25 26
ATOM     26 OG   SER B 304      13.071   5.380  33.870  1.00 38.36 LIG-0.40  OA
ATOM     27 HG   SER B 304      12.497   4.769  33.810  1.00 38.36 LIG 0.21  HD
ENDBRANCH 25 26
ENDBRANCH 24 25
BRANCH 24 28
ATOM     28  C   SER B 304      14.146   5.431  31.377  1.00 37.93 LIG 0.24  C 
ATOM     29 O    SER B 304      14.007   6.497  30.775  1.00 38.21 LIG-0.27  OA
ATOM     30  N   ALA B 305      13.484   4.327  31.050  1.00 38.06 LIG-0.35  N 
ATOM     31 H    ALA B 305      13.568   3.577  31.462  1.00 38.06 LIG 0.16  HD
BRANCH 30 32
ATOM     32  CA  ALA B 305      12.539   4.305  29.940  1.00 38.30 LIG 0.16  C 
ATOM     33  CB  ALA B 305      11.589   5.497  30.046  1.00 38.13 LIG 0.04  C 
BRANCH 32 34
ATOM     34  C   ALA B 305      13.260   4.333  28.597  1.00 38.47 LIG 0.22  C 
ATOM     35 O    ALA B 305      14.413   4.811  28.559  1.00 38.58 LIG-0.29  OA
ENDBRANCH 32 34
ENDBRANCH 30 32
ENDBRANCH 24 28
ENDBRANCH 22 24
ENDBRANCH 1 20
TORSDOF 14
ENDMDL
MODEL 31
USER: ADFR SOLUTION from run 87
USER: SCORE 9.688094 LL:  -1.815 LR:  -9.787 RR:   0.000 FEB:  -5.610
USER: RMSD 9.218849
USER: SEED 86
USER: STATUS no improvement in best in 25 clusters for 5 generations
USER: GENES 16
USER: genes 0 Translation |==|  0.53548 0.53652 0.51741
USER: genes 1 Rotation |==|  0.43559 0.36447 0.02576 0.55081
USER: genes 2 Torsion [CB]-CA--N-[C] |==|  0.86111
USER: genes 3 Torsion [N]-C--CA-[N] |==|  0.89497
USER: genes 4 Torsion [C]-CA--N-[C] |==|  0.62294
USER: genes 5 Torsion [N]-C--CA-[N] |==|  0.32466
USER: genes 6 Torsion [C]-CA--CB-[OG] |==|  0.03028
USER: genes 7 Torsion [CA]-CB--OG-[HG] |==|  0.70001
USER: genes 8 Torsion [N]-CA--CB-[CG1] |==|  0.47457
USER: genes 9 Torsion [N]-CA--C-[N] |==|  0.35998
USER: genes 10 Torsion [C]-N--CA-[CB] |==|  0.37739
USER: genes 11 Torsion [N]-CA--CB-[OG] |==|  0.13794
USER: genes 12 Torsion [CA]-CB--OG-[HG] |==|  0.27086
USER: genes 13 Torsion [N]-CA--C-[N] |==|  0.94896
USER: genes 14 Torsion [C]-N--CA-[C] |==|  0.56742
USER: genes 15 Torsion [N]-CA--C-[O] |==|  0.57406
ROOT
ATOM      1  CA  VAL B 303      13.794   5.376  33.693  1.00 37.13 LIG 0.18  C 
ENDROOT
BRANCH 1 2
ATOM      2  N   VAL B 303      15.050   6.113  33.734  1.00 37.20 LIG-0.35  N 
ATOM      3  C   SER B 302      16.226   5.500  33.650  1.00 37.39 LIG 0.24  C 
ATOM      4 O    SER B 302      16.337   4.275  33.549  1.00 37.76 LIG-0.27  OA
ATOM      5 H    VAL B 303      14.959   6.964  33.816  1.00 37.20 LIG 0.16  HD
BRANCH 3 6
ATOM      6  CA  SER B 302      17.457   6.398  33.695  1.00 37.09 LIG 0.20  C 
BRANCH 6 7
ATOM      7  N   SER B 302      17.217   7.639  32.971  1.00 36.48 LIG-0.34  N 
ATOM      8 H    SER B 302      16.454   8.002  33.129  1.00 36.48 LIG 0.16  HD
ATOM      9  C   ALA B 301      18.122   8.148  32.140  1.00 36.26 LIG 0.26  C 
ATOM     10 O    ALA B 301      19.213   7.616  31.933  1.00 35.88 LIG-0.27  OA
BRANCH 9 11
ATOM     11  CA  ALA B 301      17.742   9.448  31.438  1.00 36.43 LIG 0.40  C 
ATOM     12  CB  ALA B 301      17.787   9.257  29.925  1.00 36.70 LIG 0.06  C 
ATOM     13  N   ALA B 301      18.661  10.556  31.834  1.00 36.51 LIG 0.61  N 
ENDBRANCH 9 11
ENDBRANCH 6 7
BRANCH 6 14
ATOM     14  CB  SER B 302      17.822   6.691  35.154  1.00 37.65 LIG 0.20  C 
BRANCH 14 15
ATOM     15 OG   SER B 302      17.089   5.863  36.039  1.00 38.63 LIG-0.40  OA
ATOM     16 HG   SER B 302      16.509   6.322  36.437  1.00 38.63 LIG 0.21  HD
ENDBRANCH 14 15
ENDBRANCH 6 14
ENDBRANCH 3 6
ENDBRANCH 1 2
BRANCH 1 17
ATOM     17  CB  VAL B 303      13.746   4.396  32.492  1.00 37.28 LIG 0.01  C 
ATOM     18  CG1 VAL B 303      12.534   3.491  32.608  1.00 36.92 LIG 0.01  C 
ATOM     19  CG2 VAL B 303      13.705   5.173  31.183  1.00 37.06 LIG 0.01  C 
ENDBRANCH 1 17
BRANCH 1 20
ATOM     20  C   VAL B 303      13.630   4.579  34.980  1.00 37.27 LIG 0.24  C 
ATOM     21 O    VAL B 303      14.541   3.861  35.396  1.00 36.92 LIG-0.27  OA
ATOM     22  N   SER B 304      12.472   4.715  35.616  1.00 37.37 LIG-0.34  N 
ATOM     23 H    SER B 304      11.831   5.221  35.347  1.00 37.37 LIG 0.16  HD
BRANCH 22 24
ATOM     24  CA  SER B 304      12.195   3.994  36.852  1.00 37.74 LIG 0.20  C 
BRANCH 24 25
ATOM     25  CB  SER B 304      11.540   4.925  37.875  1.00 37.88 LIG 0.20  C 
BRANCH 25 26
ATOM     26 OG   SER B 304      10.450   5.624  37.296  1.00 38.36 LIG-0.40  OA
ATOM     27 HG   SER B 304       9.732   5.232  37.487  1.00 38.36 LIG 0.21  HD
ENDBRANCH 25 26
ENDBRANCH 24 25
BRANCH 24 28
ATOM     28  C   SER B 304      11.271   2.818  36.552  1.00 37.93 LIG 0.24  C 
ATOM     29 O    SER B 304      11.166   1.885  37.349  1.00 38.21 LIG-0.27  OA
ATOM     30  N   ALA B 305      10.601   2.865  35.405  1.00 38.06 LIG-0.35  N 
ATOM     31 H    ALA B 305      10.665   3.507  34.838  1.00 38.06 LIG 0.16  HD
BRANCH 30 32
ATOM     32  CA  ALA B 305       9.684   1.801  35.014  1.00 38.30 LIG 0.16  C 
ATOM     33  CB  ALA B 305       8.330   2.012  35.690  1.00 38.13 LIG 0.04  C 
BRANCH 32 34
ATOM     34  C   ALA B 305       9.506   1.749  33.501  1.00 38.47 LIG 0.22  C 
ATOM     35 O    ALA B 305       8.437   1.286  33.051  1.00 38.58 LIG-0.29  OA
ENDBRANCH 32 34
ENDBRANCH 30 32
ENDBRANCH 24 28
ENDBRANCH 22 24
ENDBRANCH 1 20
TORSDOF 14
ENDMDL
MODEL 32
USER: ADFR SOLUTION from run 200
USER: SCORE 10.503081 LL:  -1.752 LR:  -9.792 RR:   0.000 FEB:  -5.616
USER: RMSD 6.496715
USER: SEED 199
USER: STATUS searching
USER: GENES 16
USER: genes 0 Translation |==|  0.48251 0.47855 0.33827
USER: genes 1 Rotation |==|  0.63895 0.65410 0.12427 0.75646
USER: genes 2 Torsion [CB]-CA--N-[C] |==|  0.86584
USER: genes 3 Torsion [N]-C--CA-[N] |==|  0.03263
USER: genes 4 Torsion [C]-CA--N-[C] |==|  0.19362
USER: genes 5 Torsion [N]-C--CA-[N] |==|  0.96193
USER: genes 6 Torsion [C]-CA--CB-[OG] |==|  0.30346
USER: genes 7 Torsion [CA]-CB--OG-[HG] |==|  0.21666
USER: genes 8 Torsion [N]-CA--CB-[CG1] |==|  0.39799
USER: genes 9 Torsion [N]-CA--C-[N] |==|  0.90538
USER: genes 10 Torsion [C]-N--CA-[CB] |==|  0.50000
USER: genes 11 Torsion [N]-CA--CB-[OG] |==|  0.74932
USER: genes 12 Torsion [CA]-CB--OG-[HG] |==|  0.63642
USER: genes 13 Torsion [N]-CA--C-[N] |==|  0.44286
USER: genes 14 Torsion [C]-N--CA-[C] |==|  0.17488
USER: genes 15 Torsion [N]-CA--C-[O] |==|  0.10275
ROOT
ATOM      1  CA  VAL B 303      12.721   4.202  31.006  1.00 37.13 LIG 0.18  C 
ENDROOT
BRANCH 1 2
ATOM      2  N   VAL B 303      12.809   4.535  32.422  1.00 37.20 LIG-0.35  N 
ATOM      3  C   SER B 302      13.887   5.115  32.940  1.00 37.39 LIG 0.24  C 
ATOM      4 O    SER B 302      14.885   5.393  32.270  1.00 37.76 LIG-0.27  OA
ATOM      5 H    VAL B 303      12.112   4.325  32.880  1.00 37.20 LIG 0.16  HD
BRANCH 3 6
ATOM      6  CA  SER B 302      13.835   5.416  34.434  1.00 37.09 LIG 0.20  C 
BRANCH 6 7
ATOM      7  N   SER B 302      12.699   4.749  35.056  1.00 36.48 LIG-0.34  N 
ATOM      8 H    SER B 302      12.074   5.280  35.315  1.00 36.48 LIG 0.16  HD
ATOM      9  C   ALA B 301      12.658   3.428  35.199  1.00 36.26 LIG 0.26  C 
ATOM     10 O    ALA B 301      13.561   2.686  34.813  1.00 35.88 LIG-0.27  OA
BRANCH 9 11
ATOM     11  CA  ALA B 301      11.414   2.858  35.874  1.00 36.43 LIG 0.40  C 
ATOM     12  CB  ALA B 301      10.543   2.144  34.845  1.00 36.70 LIG 0.06  C 
ATOM     13  N   ALA B 301      10.626   3.937  36.540  1.00 36.51 LIG 0.61  N 
ENDBRANCH 9 11
ENDBRANCH 6 7
BRANCH 6 14
ATOM     14  CB  SER B 302      15.145   4.968  35.090  1.00 37.65 LIG 0.20  C 
BRANCH 14 15
ATOM     15 OG   SER B 302      15.925   6.082  35.485  1.00 38.63 LIG-0.40  OA
ATOM     16 HG   SER B 302      15.616   6.402  36.198  1.00 38.63 LIG 0.21  HD
ENDBRANCH 14 15
ENDBRANCH 6 14
ENDBRANCH 3 6
ENDBRANCH 1 2
BRANCH 1 17
ATOM     17  CB  VAL B 303      13.142   5.396  30.111  1.00 37.28 LIG 0.01  C 
ATOM     18  CG1 VAL B 303      13.893   4.893  28.893  1.00 36.92 LIG 0.01  C 
ATOM     19  CG2 VAL B 303      11.915   6.191  29.687  1.00 37.06 LIG 0.01  C 
ENDBRANCH 1 17
BRANCH 1 20
ATOM     20  C   VAL B 303      13.633   3.020  30.705  1.00 37.27 LIG 0.24  C 
ATOM     21 O    VAL B 303      13.326   2.191  29.846  1.00 36.92 LIG-0.27  OA
ATOM     22  N   SER B 304      14.759   2.950  31.405  1.00 37.37 LIG-0.34  N 
ATOM     23 H    SER B 304      14.995   3.527  31.998  1.00 37.37 LIG 0.16  HD
BRANCH 22 24
ATOM     24  CA  SER B 304      15.706   1.859  31.213  1.00 37.74 LIG 0.20  C 
BRANCH 24 25
ATOM     25  CB  SER B 304      16.908   2.028  32.145  1.00 37.88 LIG 0.20  C 
BRANCH 25 26
ATOM     26 OG   SER B 304      17.930   2.784  31.517  1.00 38.36 LIG-0.40  OA
ATOM     27 HG   SER B 304      18.665   2.386  31.601  1.00 38.36 LIG 0.21  HD
ENDBRANCH 25 26
ENDBRANCH 24 25
BRANCH 24 28
ATOM     28  C   SER B 304      15.009   0.532  31.499  1.00 37.93 LIG 0.24  C 
ATOM     29 O    SER B 304      13.980   0.498  32.176  1.00 38.21 LIG-0.27  OA
ATOM     30  N   ALA B 305      15.567  -0.557  30.981  1.00 38.06 LIG-0.35  N 
ATOM     31 H    ALA B 305      16.286  -0.550  30.509  1.00 38.06 LIG 0.16  HD
BRANCH 30 32
ATOM     32  CA  ALA B 305      14.988  -1.880  31.182  1.00 38.30 LIG 0.16  C 
ATOM     33  CB  ALA B 305      14.910  -2.188  32.676  1.00 38.13 LIG 0.04  C 
BRANCH 32 34
ATOM     34  C   ALA B 305      13.600  -1.979  30.559  1.00 38.47 LIG 0.22  C 
ATOM     35 O    ALA B 305      13.398  -1.387  29.478  1.00 38.58 LIG-0.29  OA
ENDBRANCH 32 34
ENDBRANCH 30 32
ENDBRANCH 24 28
ENDBRANCH 22 24
ENDBRANCH 1 20
TORSDOF 14
ENDMDL
MODEL 33
USER: ADFR SOLUTION from run 56
USER: SCORE 9.795083 LL:  -2.479 LR:  -9.783 RR:   0.000 FEB:  -5.607
USER: RMSD 4.195026
USER: SEED 55
USER: STATUS no improvement in best in 30 clusters for 5 generations
USER: GENES 16
USER: genes 0 Translation |==|  0.47253 0.46353 0.33044
USER: genes 1 Rotation |==|  0.73884 0.69758 0.29133 0.83223
USER: genes 2 Torsion [CB]-CA--N-[C] |==|  0.48300
USER: genes 3 Torsion [N]-C--CA-[N] |==|  0.92031
USER: genes 4 Torsion [C]-CA--N-[C] |==|  0.78014
USER: genes 5 Torsion [N]-C--CA-[N] |==|  0.69090
USER: genes 6 Torsion [C]-CA--CB-[OG] |==|  0.69799
USER: genes 7 Torsion [CA]-CB--OG-[HG] |==|  0.11856
USER: genes 8 Torsion [N]-CA--CB-[CG1] |==|  0.21869
USER: genes 9 Torsion [N]-CA--C-[N] |==|  0.95990
USER: genes 10 Torsion [C]-N--CA-[CB] |==|  0.82222
USER: genes 11 Torsion [N]-CA--CB-[OG] |==|  0.69215
USER: genes 12 Torsion [CA]-CB--OG-[HG] |==|  0.68953
USER: genes 13 Torsion [N]-CA--C-[N] |==|  0.12864
USER: genes 14 Torsion [C]-N--CA-[C] |==|  0.73442
USER: genes 15 Torsion [N]-CA--C-[O] |==|  0.11311
ROOT
ATOM      1  CA  VAL B 303      12.519   3.897  30.889  1.00 37.13 LIG 0.18  C 
ENDROOT
BRANCH 1 2
ATOM      2  N   VAL B 303      11.927   3.424  32.134  1.00 37.20 LIG-0.35  N 
ATOM      3  C   SER B 302      11.760   2.129  32.382  1.00 37.39 LIG 0.24  C 
ATOM      4 O    SER B 302      12.073   1.247  31.578  1.00 37.76 LIG-0.27  OA
ATOM      5 H    VAL B 303      11.703   4.049  32.680  1.00 37.20 LIG 0.16  HD
BRANCH 3 6
ATOM      6  CA  SER B 302      11.139   1.779  33.730  1.00 37.09 LIG 0.20  C 
BRANCH 6 7
ATOM      7  N   SER B 302      11.453   2.796  34.724  1.00 36.48 LIG-0.34  N 
ATOM      8 H    SER B 302      10.817   3.355  34.875  1.00 36.48 LIG 0.16  HD
ATOM      9  C   ALA B 301      12.635   2.835  35.332  1.00 36.26 LIG 0.26  C 
ATOM     10 O    ALA B 301      13.530   2.020  35.107  1.00 35.88 LIG-0.27  OA
BRANCH 9 11
ATOM     11  CA  ALA B 301      12.838   3.957  36.346  1.00 36.43 LIG 0.40  C 
ATOM     12  CB  ALA B 301      11.510   4.656  36.622  1.00 36.70 LIG 0.06  C 
ATOM     13  N   ALA B 301      13.837   4.949  35.851  1.00 36.51 LIG 0.61  N 
ENDBRANCH 9 11
ENDBRANCH 6 7
BRANCH 6 14
ATOM     14  CB  SER B 302       9.622   1.635  33.571  1.00 37.65 LIG 0.20  C 
BRANCH 14 15
ATOM     15 OG   SER B 302       8.941   2.716  34.182  1.00 38.63 LIG-0.40  OA
ATOM     16 HG   SER B 302       9.338   3.434  34.005  1.00 38.63 LIG 0.21  HD
ENDBRANCH 14 15
ENDBRANCH 6 14
ENDBRANCH 3 6
ENDBRANCH 1 2
BRANCH 1 17
ATOM     17  CB  VAL B 303      12.463   5.443  30.782  1.00 37.28 LIG 0.01  C 
ATOM     18  CG1 VAL B 303      13.565   6.062  31.620  1.00 36.92 LIG 0.01  C 
ATOM     19  CG2 VAL B 303      12.598   5.873  29.327  1.00 37.06 LIG 0.01  C 
ENDBRANCH 1 17
BRANCH 1 20
ATOM     20  C   VAL B 303      13.974   3.455  30.817  1.00 37.27 LIG 0.24  C 
ATOM     21 O    VAL B 303      14.599   3.517  29.757  1.00 36.92 LIG-0.27  OA
ATOM     22  N   SER B 304      14.514   3.019  31.949  1.00 37.37 LIG-0.34  N 
ATOM     23 H    SER B 304      14.097   2.982  32.700  1.00 37.37 LIG 0.16  HD
BRANCH 22 24
ATOM     24  CA  SER B 304      15.896   2.558  32.002  1.00 37.74 LIG 0.20  C 
BRANCH 24 25
ATOM     25  CB  SER B 304      16.075   1.312  31.131  1.00 37.88 LIG 0.20  C 
BRANCH 25 26
ATOM     26 OG   SER B 304      16.313   0.166  31.932  1.00 38.36 LIG-0.40  OA
ATOM     27 HG   SER B 304      17.101  -0.099  31.815  1.00 38.36 LIG 0.21  HD
ENDBRANCH 25 26
ENDBRANCH 24 25
BRANCH 24 28
ATOM     28  C   SER B 304      16.818   3.672  31.512  1.00 37.93 LIG 0.24  C 
ATOM     29 O    SER B 304      17.715   3.432  30.704  1.00 38.21 LIG-0.27  OA
ATOM     30  N   ALA B 305      16.594   4.887  32.001  1.00 38.06 LIG-0.35  N 
ATOM     31 H    ALA B 305      15.973   5.070  32.568  1.00 38.06 LIG 0.16  HD
BRANCH 30 32
ATOM     32  CA  ALA B 305      17.405   6.031  31.602  1.00 38.30 LIG 0.16  C 
ATOM     33  CB  ALA B 305      16.524   7.273  31.485  1.00 38.13 LIG 0.04  C 
BRANCH 32 34
ATOM     34  C   ALA B 305      18.533   6.286  32.596  1.00 38.47 LIG 0.22  C 
ATOM     35 O    ALA B 305      19.140   5.298  33.061  1.00 38.58 LIG-0.29  OA
ENDBRANCH 32 34
ENDBRANCH 30 32
ENDBRANCH 24 28
ENDBRANCH 22 24
ENDBRANCH 1 20
TORSDOF 14
ENDMDL
MODEL 34
USER: ADFR SOLUTION from run 36
USER: SCORE 10.607704 LL:  -1.944 LR:  -9.757 RR:   0.000 FEB:  -5.581
USER: RMSD 4.030055
USER: SEED 35
USER: STATUS no improvement in best in 19 clusters for 5 generations
USER: GENES 16
USER: genes 0 Translation |==|  0.48607 0.45260 0.37217
USER: genes 1 Rotation |==|  0.55209 0.59678 0.51476 0.98755
USER: genes 2 Torsion [CB]-CA--N-[C] |==|  0.23066
USER: genes 3 Torsion [N]-C--CA-[N] |==|  0.00065
USER: genes 4 Torsion [C]-CA--N-[C] |==|  0.72852
USER: genes 5 Torsion [N]-C--CA-[N] |==|  0.31792
USER: genes 6 Torsion [C]-CA--CB-[OG] |==|  0.62774
USER: genes 7 Torsion [CA]-CB--OG-[HG] |==|  0.56356
USER: genes 8 Torsion [N]-CA--CB-[CG1] |==|  0.35006
USER: genes 9 Torsion [N]-CA--C-[N] |==|  0.36284
USER: genes 10 Torsion [C]-N--CA-[CB] |==|  0.84372
USER: genes 11 Torsion [N]-CA--CB-[OG] |==|  0.54837
USER: genes 12 Torsion [CA]-CB--OG-[HG] |==|  0.80390
USER: genes 13 Torsion [N]-CA--C-[N] |==|  0.36111
USER: genes 14 Torsion [C]-N--CA-[C] |==|  0.63809
USER: genes 15 Torsion [N]-CA--C-[O] |==|  0.97432
ROOT
ATOM      1  CA  VAL B 303      12.793   3.676  31.515  1.00 37.13 LIG 0.18  C 
ENDROOT
BRANCH 1 2
ATOM      2  N   VAL B 303      11.885   3.166  32.534  1.00 37.20 LIG-0.35  N 
ATOM      3  C   SER B 302      11.420   1.921  32.498  1.00 37.39 LIG 0.24  C 
ATOM      4 O    SER B 302      11.707   1.124  31.601  1.00 37.76 LIG-0.27  OA
ATOM      5 H    VAL B 303      11.683   3.735  33.146  1.00 37.20 LIG 0.16  HD
BRANCH 3 6
ATOM      6  CA  SER B 302      10.487   1.520  33.636  1.00 37.09 LIG 0.20  C 
BRANCH 6 7
ATOM      7  N   SER B 302      10.288   2.632  34.557  1.00 36.48 LIG-0.34  N 
ATOM      8 H    SER B 302       9.693   3.199  34.306  1.00 36.48 LIG 0.16  HD
ATOM      9  C   ALA B 301      10.983   2.735  35.686  1.00 36.26 LIG 0.26  C 
ATOM     10 O    ALA B 301      11.825   1.906  36.030  1.00 35.88 LIG-0.27  OA
BRANCH 9 11
ATOM     11  CA  ALA B 301      10.683   3.951  36.556  1.00 36.43 LIG 0.40  C 
ATOM     12  CB  ALA B 301      11.966   4.737  36.813  1.00 36.70 LIG 0.06  C 
ATOM     13  N   ALA B 301      10.075   3.540  37.856  1.00 36.51 LIG 0.61  N 
ENDBRANCH 9 11
ENDBRANCH 6 7
BRANCH 6 14
ATOM     14  CB  SER B 302       9.146   1.057  33.057  1.00 37.65 LIG 0.20  C 
BRANCH 14 15
ATOM     15 OG   SER B 302       8.061   1.636  33.758  1.00 38.63 LIG-0.40  OA
ATOM     16 HG   SER B 302       7.376   1.161  33.657  1.00 38.63 LIG 0.21  HD
ENDBRANCH 14 15
ENDBRANCH 6 14
ENDBRANCH 3 6
ENDBRANCH 1 2
BRANCH 1 17
ATOM     17  CB  VAL B 303      12.026   4.161  30.257  1.00 37.28 LIG 0.01  C 
ATOM     18  CG1 VAL B 303      12.414   5.591  29.932  1.00 36.92 LIG 0.01  C 
ATOM     19  CG2 VAL B 303      12.325   3.248  29.076  1.00 37.06 LIG 0.01  C 
ENDBRANCH 1 17
BRANCH 1 20
ATOM     20  C   VAL B 303      13.588   4.843  32.082  1.00 37.27 LIG 0.24  C 
ATOM     21 O    VAL B 303      13.021   5.762  32.676  1.00 36.92 LIG-0.27  OA
ATOM     22  N   SER B 304      14.904   4.802  31.908  1.00 37.37 LIG-0.34  N 
ATOM     23 H    SER B 304      15.317   4.162  31.508  1.00 37.37 LIG 0.16  HD
BRANCH 22 24
ATOM     24  CA  SER B 304      15.769   5.868  32.397  1.00 37.74 LIG 0.20  C 
BRANCH 24 25
ATOM     25  CB  SER B 304      15.329   7.216  31.821  1.00 37.88 LIG 0.20  C 
BRANCH 25 26
ATOM     26 OG   SER B 304      16.360   8.181  31.950  1.00 38.36 LIG-0.40  OA
ATOM     27 HG   SER B 304      16.449   8.390  32.759  1.00 38.36 LIG 0.21  HD
ENDBRANCH 25 26
ENDBRANCH 24 25
BRANCH 24 28
ATOM     28  C   SER B 304      15.707   5.907  33.921  1.00 37.93 LIG 0.24  C 
ATOM     29 O    SER B 304      14.622   5.922  34.503  1.00 38.21 LIG-0.27  OA
ATOM     30  N   ALA B 305      16.870   5.923  34.564  1.00 38.06 LIG-0.35  N 
ATOM     31 H    ALA B 305      17.635   5.915  34.172  1.00 38.06 LIG 0.16  HD
BRANCH 30 32
ATOM     32  CA  ALA B 305      16.936   5.954  36.020  1.00 38.30 LIG 0.16  C 
ATOM     33  CB  ALA B 305      17.399   4.596  36.545  1.00 38.13 LIG 0.04  C 
BRANCH 32 34
ATOM     34  C   ALA B 305      17.876   7.049  36.510  1.00 38.47 LIG 0.22  C 
ATOM     35 O    ALA B 305      18.584   7.637  35.666  1.00 38.58 LIG-0.29  OA
ENDBRANCH 32 34
ENDBRANCH 30 32
ENDBRANCH 24 28
ENDBRANCH 22 24
ENDBRANCH 1 20
TORSDOF 14
ENDMDL
MODEL 35
USER: ADFR SOLUTION from run 37
USER: SCORE 10.189853 LL:  -1.926 LR:  -9.764 RR:   0.000 FEB:  -5.588
USER: RMSD 7.567239
USER: SEED 36
USER: STATUS no improvement in best in 33 clusters for 5 generations
USER: GENES 16
USER: genes 0 Translation |==|  0.48869 0.47030 0.32479
USER: genes 1 Rotation |==|  0.45916 0.60956 0.08609 0.75496
USER: genes 2 Torsion [CB]-CA--N-[C] |==|  0.85457
USER: genes 3 Torsion [N]-C--CA-[N] |==|  0.20371
USER: genes 4 Torsion [C]-CA--N-[C] |==|  0.77570
USER: genes 5 Torsion [N]-C--CA-[N] |==|  0.54686
USER: genes 6 Torsion [C]-CA--CB-[OG] |==|  0.47780
USER: genes 7 Torsion [CA]-CB--OG-[HG] |==|  0.11439
USER: genes 8 Torsion [N]-CA--CB-[CG1] |==|  0.49676
USER: genes 9 Torsion [N]-CA--C-[N] |==|  0.99877
USER: genes 10 Torsion [C]-N--CA-[CB] |==|  0.52778
USER: genes 11 Torsion [N]-CA--CB-[OG] |==|  0.76493
USER: genes 12 Torsion [CA]-CB--OG-[HG] |==|  0.63998
USER: genes 13 Torsion [N]-CA--C-[N] |==|  0.41324
USER: genes 14 Torsion [C]-N--CA-[C] |==|  0.18688
USER: genes 15 Torsion [N]-CA--C-[O] |==|  0.09543
ROOT
ATOM      1  CA  VAL B 303      12.846   4.035  30.804  1.00 37.13 LIG 0.18  C 
ENDROOT
BRANCH 1 2
ATOM      2  N   VAL B 303      13.464   5.064  31.630  1.00 37.20 LIG-0.35  N 
ATOM      3  C   SER B 302      14.552   5.718  31.238  1.00 37.39 LIG 0.24  C 
ATOM      4 O    SER B 302      15.120   5.491  30.166  1.00 37.76 LIG-0.27  OA
ATOM      5 H    VAL B 303      13.065   5.204  32.379  1.00 37.20 LIG 0.16  HD
BRANCH 3 6
ATOM      6  CA  SER B 302      15.083   6.776  32.199  1.00 37.09 LIG 0.20  C 
BRANCH 6 7
ATOM      7  N   SER B 302      15.723   6.153  33.350  1.00 36.48 LIG-0.34  N 
ATOM      8 H    SER B 302      16.581   6.116  33.304  1.00 36.48 LIG 0.16  HD
ATOM      9  C   ALA B 301      15.014   5.689  34.375  1.00 36.26 LIG 0.26  C 
ATOM     10 O    ALA B 301      13.786   5.759  34.425  1.00 35.88 LIG-0.27  OA
BRANCH 9 11
ATOM     11  CA  ALA B 301      15.806   5.053  35.513  1.00 36.43 LIG 0.40  C 
ATOM     12  CB  ALA B 301      16.927   4.186  34.947  1.00 36.70 LIG 0.06  C 
ATOM     13  N   ALA B 301      14.919   4.226  36.384  1.00 36.51 LIG 0.61  N 
ENDBRANCH 9 11
ENDBRANCH 6 7
BRANCH 6 14
ATOM     14  CB  SER B 302      16.073   7.684  31.462  1.00 37.65 LIG 0.20  C 
BRANCH 14 15
ATOM     15 OG   SER B 302      16.450   8.787  32.266  1.00 38.63 LIG-0.40  OA
ATOM     16 HG   SER B 302      16.570   8.529  33.057  1.00 38.63 LIG 0.21  HD
ENDBRANCH 14 15
ENDBRANCH 6 14
ENDBRANCH 3 6
ENDBRANCH 1 2
BRANCH 1 17
ATOM     17  CB  VAL B 303      12.566   4.548  29.368  1.00 37.28 LIG 0.01  C 
ATOM     18  CG1 VAL B 303      11.950   3.441  28.532  1.00 36.92 LIG 0.01  C 
ATOM     19  CG2 VAL B 303      11.639   5.755  29.414  1.00 37.06 LIG 0.01  C 
ENDBRANCH 1 17
BRANCH 1 20
ATOM     20  C   VAL B 303      13.770   2.828  30.720  1.00 37.27 LIG 0.24  C 
ATOM     21 O    VAL B 303      13.449   1.833  30.068  1.00 36.92 LIG-0.27  OA
ATOM     22  N   SER B 304      14.923   2.921  31.372  1.00 37.37 LIG-0.34  N 
ATOM     23 H    SER B 304      15.169   3.612  31.821  1.00 37.37 LIG 0.16  HD
BRANCH 22 24
ATOM     24  CA  SER B 304      15.885   1.825  31.374  1.00 37.74 LIG 0.20  C 
BRANCH 24 25
ATOM     25  CB  SER B 304      16.996   2.096  32.391  1.00 37.88 LIG 0.20  C 
BRANCH 25 26
ATOM     26 OG   SER B 304      18.012   2.908  31.824  1.00 38.36 LIG-0.40  OA
ATOM     27 HG   SER B 304      18.762   2.554  31.960  1.00 38.36 LIG 0.21  HD
ENDBRANCH 25 26
ENDBRANCH 24 25
BRANCH 24 28
ATOM     28  C   SER B 304      15.166   0.525  31.723  1.00 37.93 LIG 0.24  C 
ATOM     29 O    SER B 304      14.186   0.533  32.469  1.00 38.21 LIG-0.27  OA
ATOM     30  N   ALA B 305      15.652  -0.586  31.182  1.00 38.06 LIG-0.35  N 
ATOM     31 H    ALA B 305      16.336  -0.608  30.662  1.00 38.06 LIG 0.16  HD
BRANCH 30 32
ATOM     32  CA  ALA B 305      15.044  -1.887  31.437  1.00 38.30 LIG 0.16  C 
ATOM     33  CB  ALA B 305      14.962  -2.131  32.943  1.00 38.13 LIG 0.04  C 
BRANCH 32 34
ATOM     34  C   ALA B 305      13.654  -1.983  30.819  1.00 38.47 LIG 0.22  C 
ATOM     35 O    ALA B 305      13.450  -1.389  29.739  1.00 38.58 LIG-0.29  OA
ENDBRANCH 32 34
ENDBRANCH 30 32
ENDBRANCH 24 28
ENDBRANCH 22 24
ENDBRANCH 1 20
TORSDOF 14
ENDMDL
MODEL 36
USER: ADFR SOLUTION from run 13
USER: SCORE 10.601768 LL:  -1.899 LR:  -9.757 RR:   0.000 FEB:  -5.581
USER: RMSD 7.883152
USER: SEED 909914
USER: STATUS no improvement in best in 29 clusters for 5 generations
USER: GENES 16
USER: genes 0 Translation |==|  0.61151 0.60112 0.38074
USER: genes 1 Rotation |==|  0.25099 0.41300 0.91491 0.59099
USER: genes 2 Torsion [CB]-CA--N-[C] |==|  0.78315
USER: genes 3 Torsion [N]-C--CA-[N] |==|  0.93121
USER: genes 4 Torsion [C]-CA--N-[C] |==|  0.82326
USER: genes 5 Torsion [N]-C--CA-[N] |==|  0.17470
USER: genes 6 Torsion [C]-CA--CB-[OG] |==|  0.92821
USER: genes 7 Torsion [CA]-CB--OG-[HG] |==|  0.37912
USER: genes 8 Torsion [N]-CA--CB-[CG1] |==|  0.83510
USER: genes 9 Torsion [N]-CA--C-[N] |==|  0.12366
USER: genes 10 Torsion [C]-N--CA-[CB] |==|  0.80313
USER: genes 11 Torsion [N]-CA--CB-[OG] |==|  0.93672
USER: genes 12 Torsion [CA]-CB--OG-[HG] |==|  0.11705
USER: genes 13 Torsion [N]-CA--C-[N] |==|  0.20000
USER: genes 14 Torsion [C]-N--CA-[C] |==|  0.80741
USER: genes 15 Torsion [N]-CA--C-[O] |==|  0.47131
ROOT
ATOM      1  CA  VAL B 303      15.333   6.684  31.643  1.00 37.13 LIG 0.18  C 
ENDROOT
BRANCH 1 2
ATOM      2  N   VAL B 303      15.325   6.240  33.031  1.00 37.20 LIG-0.35  N 
ATOM      3  C   SER B 302      15.317   4.951  33.355  1.00 37.39 LIG 0.24  C 
ATOM      4 O    SER B 302      15.298   4.049  32.513  1.00 37.76 LIG-0.27  OA
ATOM      5 H    VAL B 303      15.327   6.878  33.608  1.00 37.20 LIG 0.16  HD
BRANCH 3 6
ATOM      6  CA  SER B 302      15.321   4.633  34.846  1.00 37.09 LIG 0.20  C 
BRANCH 6 7
ATOM      7  N   SER B 302      15.903   5.731  35.607  1.00 36.48 LIG-0.34  N 
ATOM      8 H    SER B 302      15.359   6.114  36.152  1.00 36.48 LIG 0.16  HD
ATOM      9  C   ALA B 301      17.174   6.090  35.452  1.00 36.26 LIG 0.26  C 
ATOM     10 O    ALA B 301      17.938   5.523  34.672  1.00 35.88 LIG-0.27  OA
BRANCH 9 11
ATOM     11  CA  ALA B 301      17.655   7.261  36.304  1.00 36.43 LIG 0.40  C 
ATOM     12  CB  ALA B 301      19.091   7.620  35.933  1.00 36.70 LIG 0.06  C 
ATOM     13  N   ALA B 301      17.578   6.931  37.758  1.00 36.51 LIG 0.61  N 
ENDBRANCH 9 11
ENDBRANCH 6 7
BRANCH 6 14
ATOM     14  CB  SER B 302      13.888   4.358  35.313  1.00 37.65 LIG 0.20  C 
BRANCH 14 15
ATOM     15 OG   SER B 302      12.947   5.013  34.483  1.00 38.63 LIG-0.40  OA
ATOM     16 HG   SER B 302      12.311   4.491  34.313  1.00 38.63 LIG 0.21  HD
ENDBRANCH 14 15
ENDBRANCH 6 14
ENDBRANCH 3 6
ENDBRANCH 1 2
BRANCH 1 17
ATOM     17  CB  VAL B 303      16.745   6.566  31.014  1.00 37.28 LIG 0.01  C 
ATOM     18  CG1 VAL B 303      17.735   7.408  31.797  1.00 36.92 LIG 0.01  C 
ATOM     19  CG2 VAL B 303      17.189   5.109  30.992  1.00 37.06 LIG 0.01  C 
ENDBRANCH 1 17
BRANCH 1 20
ATOM     20  C   VAL B 303      14.365   5.833  30.833  1.00 37.27 LIG 0.24  C 
ATOM     21 O    VAL B 303      14.689   5.387  29.731  1.00 36.92 LIG-0.27  OA
ATOM     22  N   SER B 304      13.180   5.600  31.384  1.00 37.37 LIG-0.34  N 
ATOM     23 H    SER B 304      12.942   5.893  32.158  1.00 37.37 LIG 0.16  HD
BRANCH 22 24
ATOM     24  CA  SER B 304      12.165   4.809  30.699  1.00 37.74 LIG 0.20  C 
BRANCH 24 25
ATOM     25  CB  SER B 304      11.598   5.588  29.510  1.00 37.88 LIG 0.20  C 
BRANCH 25 26
ATOM     26 OG   SER B 304      11.788   6.982  29.682  1.00 38.36 LIG-0.40  OA
ATOM     27 HG   SER B 304      12.559   7.125  29.986  1.00 38.36 LIG 0.21  HD
ENDBRANCH 25 26
ENDBRANCH 24 25
BRANCH 24 28
ATOM     28  C   SER B 304      12.787   3.502  30.217  1.00 37.93 LIG 0.24  C 
ATOM     29 O    SER B 304      13.002   3.316  29.019  1.00 38.21 LIG-0.27  OA
ATOM     30  N   ALA B 305      13.075   2.601  31.150  1.00 38.06 LIG-0.35  N 
ATOM     31 H    ALA B 305      12.929   2.715  31.990  1.00 38.06 LIG 0.16  HD
BRANCH 30 32
ATOM     32  CA  ALA B 305      13.678   1.317  30.810  1.00 38.30 LIG 0.16  C 
ATOM     33  CB  ALA B 305      14.149   0.615  32.083  1.00 38.13 LIG 0.04  C 
BRANCH 32 34
ATOM     34  C   ALA B 305      12.698   0.425  30.057  1.00 38.47 LIG 0.22  C 
ATOM     35 O    ALA B 305      13.138  -0.620  29.534  1.00 38.58 LIG-0.29  OA
ENDBRANCH 32 34
ENDBRANCH 30 32
ENDBRANCH 24 28
ENDBRANCH 22 24
ENDBRANCH 1 20
TORSDOF 14
ENDMDL
MODEL 37
USER: ADFR SOLUTION from run 152
USER: SCORE 10.302254 LL:  -1.911 LR:  -9.753 RR:   0.000 FEB:  -5.577
USER: RMSD 7.007149
USER: SEED 151
USER: STATUS searching
USER: GENES 16
USER: genes 0 Translation |==|  0.46594 0.51845 0.38696
USER: genes 1 Rotation |==|  0.62079 0.55672 0.02407 0.57538
USER: genes 2 Torsion [CB]-CA--N-[C] |==|  0.82774
USER: genes 3 Torsion [N]-C--CA-[N] |==|  0.12309
USER: genes 4 Torsion [C]-CA--N-[C] |==|  0.14593
USER: genes 5 Torsion [N]-C--CA-[N] |==|  0.35826
USER: genes 6 Torsion [C]-CA--CB-[OG] |==|  0.57474
USER: genes 7 Torsion [CA]-CB--OG-[HG] |==|  0.91323
USER: genes 8 Torsion [N]-CA--CB-[CG1] |==|  0.58768
USER: genes 9 Torsion [N]-CA--C-[N] |==|  0.07856
USER: genes 10 Torsion [C]-N--CA-[CB] |==|  0.76554
USER: genes 11 Torsion [N]-CA--CB-[OG] |==|  0.88530
USER: genes 12 Torsion [CA]-CB--OG-[HG] |==|  0.08336
USER: genes 13 Torsion [N]-CA--C-[N] |==|  0.17778
USER: genes 14 Torsion [C]-N--CA-[C] |==|  0.88343
USER: genes 15 Torsion [N]-CA--C-[O] |==|  0.33466
ROOT
ATOM      1  CA  VAL B 303      12.385   5.010  31.736  1.00 37.13 LIG 0.18  C 
ENDROOT
BRANCH 1 2
ATOM      2  N   VAL B 303      13.071   5.356  32.975  1.00 37.20 LIG-0.35  N 
ATOM      3  C   SER B 302      14.196   4.752  33.345  1.00 37.39 LIG 0.24  C 
ATOM      4 O    SER B 302      14.723   3.853  32.684  1.00 37.76 LIG-0.27  OA
ATOM      5 H    VAL B 303      12.687   5.974  33.432  1.00 37.20 LIG 0.16  HD
BRANCH 3 6
ATOM      6  CA  SER B 302      14.810   5.223  34.659  1.00 37.09 LIG 0.20  C 
BRANCH 6 7
ATOM      7  N   SER B 302      13.785   5.370  35.685  1.00 36.48 LIG-0.34  N 
ATOM      8 H    SER B 302      13.780   6.136  36.075  1.00 36.48 LIG 0.16  HD
ATOM      9  C   ALA B 301      12.940   4.385  35.973  1.00 36.26 LIG 0.26  C 
ATOM     10 O    ALA B 301      12.959   3.297  35.396  1.00 35.88 LIG-0.27  OA
BRANCH 9 11
ATOM     11  CA  ALA B 301      11.921   4.667  37.073  1.00 36.43 LIG 0.40  C 
ATOM     12  CB  ALA B 301      12.259   3.852  38.317  1.00 36.70 LIG 0.06  C 
ATOM     13  N   ALA B 301      10.538   4.339  36.616  1.00 36.51 LIG 0.61  N 
ENDBRANCH 9 11
ENDBRANCH 6 7
BRANCH 6 14
ATOM     14  CB  SER B 302      15.880   4.223  35.110  1.00 37.65 LIG 0.20  C 
BRANCH 14 15
ATOM     15 OG   SER B 302      16.034   4.241  36.517  1.00 38.63 LIG-0.40  OA
ATOM     16 HG   SER B 302      15.873   5.013  36.807  1.00 38.63 LIG 0.21  HD
ENDBRANCH 14 15
ENDBRANCH 6 14
ENDBRANCH 3 6
ENDBRANCH 1 2
BRANCH 1 17
ATOM     17  CB  VAL B 303      13.270   5.293  30.495  1.00 37.28 LIG 0.01  C 
ATOM     18  CG1 VAL B 303      12.400   5.682  29.315  1.00 36.92 LIG 0.01  C 
ATOM     19  CG2 VAL B 303      14.269   6.400  30.805  1.00 37.06 LIG 0.01  C 
ENDBRANCH 1 17
BRANCH 1 20
ATOM     20  C   VAL B 303      12.024   3.531  31.752  1.00 37.27 LIG 0.24  C 
ATOM     21 O    VAL B 303      11.938   2.893  30.701  1.00 36.92 LIG-0.27  OA
ATOM     22  N   SER B 304      11.825   2.984  32.945  1.00 37.37 LIG-0.34  N 
ATOM     23 H    SER B 304      11.894   3.411  33.689  1.00 37.37 LIG 0.16  HD
BRANCH 22 24
ATOM     24  CA  SER B 304      11.463   1.579  33.087  1.00 37.74 LIG 0.20  C 
BRANCH 24 25
ATOM     25  CB  SER B 304       9.951   1.401  32.927  1.00 37.88 LIG 0.20  C 
BRANCH 25 26
ATOM     26 OG   SER B 304       9.248   2.436  33.595  1.00 38.36 LIG-0.40  OA
ATOM     27 HG   SER B 304       9.713   3.136  33.596  1.00 38.36 LIG 0.21  HD
ENDBRANCH 25 26
ENDBRANCH 24 25
BRANCH 24 28
ATOM     28  C   SER B 304      12.198   0.761  32.028  1.00 37.93 LIG 0.24  C 
ATOM     29 O    SER B 304      11.571   0.166  31.151  1.00 38.21 LIG-0.27  OA
ATOM     30  N   ALA B 305      13.523   0.735  32.112  1.00 38.06 LIG-0.35  N 
ATOM     31 H    ALA B 305      13.975   1.143  32.720  1.00 38.06 LIG 0.16  HD
BRANCH 30 32
ATOM     32  CA  ALA B 305      14.333  -0.008  31.153  1.00 38.30 LIG 0.16  C 
ATOM     33  CB  ALA B 305      15.745  -0.194  31.706  1.00 38.13 LIG 0.04  C 
BRANCH 32 34
ATOM     34  C   ALA B 305      13.715  -1.365  30.838  1.00 38.47 LIG 0.22  C 
ATOM     35 O    ALA B 305      13.410  -1.610  29.652  1.00 38.58 LIG-0.29  OA
ENDBRANCH 32 34
ENDBRANCH 30 32
ENDBRANCH 24 28
ENDBRANCH 22 24
ENDBRANCH 1 20
TORSDOF 14
ENDMDL
MODEL 38
USER: ADFR SOLUTION from run 114
USER: SCORE 9.828848 LL:  -1.782 LR:  -9.750 RR:   0.000 FEB:  -5.573
USER: RMSD 5.859684
USER: SEED 113
USER: STATUS no improvement in best in 7 clusters for 5 generations
USER: GENES 16
USER: genes 0 Translation |==|  0.69446 0.58975 0.37096
USER: genes 1 Rotation |==|  0.36809 0.68347 0.52440 0.94536
USER: genes 2 Torsion [CB]-CA--N-[C] |==|  0.22806
USER: genes 3 Torsion [N]-C--CA-[N] |==|  0.37277
USER: genes 4 Torsion [C]-CA--N-[C] |==|  0.83790
USER: genes 5 Torsion [N]-C--CA-[N] |==|  0.94477
USER: genes 6 Torsion [C]-CA--CB-[OG] |==|  0.67390
USER: genes 7 Torsion [CA]-CB--OG-[HG] |==|  0.80085
USER: genes 8 Torsion [N]-CA--CB-[CG1] |==|  0.72754
USER: genes 9 Torsion [N]-CA--C-[N] |==|  0.95000
USER: genes 10 Torsion [C]-N--CA-[CB] |==|  0.17070
USER: genes 11 Torsion [N]-CA--CB-[OG] |==|  0.29688
USER: genes 12 Torsion [CA]-CB--OG-[HG] |==|  0.65493
USER: genes 13 Torsion [N]-CA--C-[N] |==|  0.44683
USER: genes 14 Torsion [C]-N--CA-[C] |==|  0.82228
USER: genes 15 Torsion [N]-CA--C-[O] |==|  0.19985
ROOT
ATOM      1  CA  VAL B 303      17.013   6.453  31.496  1.00 37.13 LIG 0.18  C 
ENDROOT
BRANCH 1 2
ATOM      2  N   VAL B 303      16.588   6.701  32.868  1.00 37.20 LIG-0.35  N 
ATOM      3  C   SER B 302      16.539   5.730  33.773  1.00 37.39 LIG 0.24  C 
ATOM      4 O    SER B 302      16.829   4.558  33.515  1.00 37.76 LIG-0.27  OA
ATOM      5 H    VAL B 303      16.377   7.519  33.032  1.00 37.20 LIG 0.16  HD
BRANCH 3 6
ATOM      6  CA  SER B 302      16.086   6.136  35.172  1.00 37.09 LIG 0.20  C 
BRANCH 6 7
ATOM      7  N   SER B 302      15.105   5.193  35.691  1.00 36.48 LIG-0.34  N 
ATOM      8 H    SER B 302      15.331   4.816  36.431  1.00 36.48 LIG 0.16  HD
ATOM      9  C   ALA B 301      13.962   4.953  35.055  1.00 36.26 LIG 0.26  C 
ATOM     10 O    ALA B 301      13.655   5.510  34.001  1.00 35.88 LIG-0.27  OA
BRANCH 9 11
ATOM     11  CA  ALA B 301      13.027   3.937  35.703  1.00 36.43 LIG 0.40  C 
ATOM     12  CB  ALA B 301      11.897   4.659  36.431  1.00 36.70 LIG 0.06  C 
ATOM     13  N   ALA B 301      13.768   3.064  36.661  1.00 36.51 LIG 0.61  N 
ENDBRANCH 9 11
ENDBRANCH 6 7
BRANCH 6 14
ATOM     14  CB  SER B 302      17.302   6.211  36.100  1.00 37.65 LIG 0.20  C 
BRANCH 14 15
ATOM     15 OG   SER B 302      17.200   5.268  37.151  1.00 38.63 LIG-0.40  OA
ATOM     16 HG   SER B 302      16.607   5.514  37.692  1.00 38.63 LIG 0.21  HD
ENDBRANCH 14 15
ENDBRANCH 6 14
ENDBRANCH 3 6
ENDBRANCH 1 2
BRANCH 1 17
ATOM     17  CB  VAL B 303      15.855   5.890  30.633  1.00 37.28 LIG 0.01  C 
ATOM     18  CG1 VAL B 303      15.965   4.380  30.539  1.00 36.92 LIG 0.01  C 
ATOM     19  CG2 VAL B 303      14.513   6.287  31.233  1.00 37.06 LIG 0.01  C 
ENDBRANCH 1 17
BRANCH 1 20
ATOM     20  C   VAL B 303      17.499   7.754  30.873  1.00 37.27 LIG 0.24  C 
ATOM     21 O    VAL B 303      18.193   7.743  29.855  1.00 36.92 LIG-0.27  OA
ATOM     22  N   SER B 304      17.125   8.875  31.477  1.00 37.37 LIG-0.34  N 
ATOM     23 H    SER B 304      16.630   8.902  32.180  1.00 37.37 LIG 0.16  HD
BRANCH 22 24
ATOM     24  CA  SER B 304      17.538  10.181  30.979  1.00 37.74 LIG 0.20  C 
BRANCH 24 25
ATOM     25  CB  SER B 304      17.004  10.403  29.562  1.00 37.88 LIG 0.20  C 
BRANCH 25 26
ATOM     26 OG   SER B 304      15.939  11.339  29.564  1.00 38.36 LIG-0.40  OA
ATOM     27 HG   SER B 304      15.261  10.993  29.208  1.00 38.36 LIG 0.21  HD
ENDBRANCH 25 26
ENDBRANCH 24 25
BRANCH 24 28
ATOM     28  C   SER B 304      17.006  11.266  31.911  1.00 37.93 LIG 0.24  C 
ATOM     29 O    SER B 304      16.075  11.029  32.682  1.00 38.21 LIG-0.27  OA
ATOM     30  N   ALA B 305      17.598  12.453  31.841  1.00 38.06 LIG-0.35  N 
ATOM     31 H    ALA B 305      18.247  12.636  31.307  1.00 38.06 LIG 0.16  HD
BRANCH 30 32
ATOM     32  CA  ALA B 305      17.180  13.565  32.687  1.00 38.30 LIG 0.16  C 
ATOM     33  CB  ALA B 305      18.129  14.747  32.492  1.00 38.13 LIG 0.04  C 
BRANCH 32 34
ATOM     34  C   ALA B 305      15.750  13.992  32.378  1.00 38.47 LIG 0.22  C 
ATOM     35 O    ALA B 305      14.822  13.236  32.734  1.00 38.58 LIG-0.29  OA
ENDBRANCH 32 34
ENDBRANCH 30 32
ENDBRANCH 24 28
ENDBRANCH 22 24
ENDBRANCH 1 20
TORSDOF 14
ENDMDL
MODEL 39
USER: ADFR SOLUTION from run 3
USER: SCORE 10.635342 LL:  -1.665 LR:  -9.731 RR:   0.000 FEB:  -5.555
USER: RMSD 6.160179
USER: SEED 25335
USER: STATUS searching
USER: GENES 16
USER: genes 0 Translation |==|  0.68923 0.61356 0.44501
USER: genes 1 Rotation |==|  0.22404 0.20466 0.63193 0.76308
USER: genes 2 Torsion [CB]-CA--N-[C] |==|  0.56675
USER: genes 3 Torsion [N]-C--CA-[N] |==|  0.95931
USER: genes 4 Torsion [C]-CA--N-[C] |==|  0.79926
USER: genes 5 Torsion [N]-C--CA-[N] |==|  0.78799
USER: genes 6 Torsion [C]-CA--CB-[OG] |==|  0.87823
USER: genes 7 Torsion [CA]-CB--OG-[HG] |==|  0.54748
USER: genes 8 Torsion [N]-CA--CB-[CG1] |==|  0.54425
USER: genes 9 Torsion [N]-CA--C-[N] |==|  0.34503
USER: genes 10 Torsion [C]-N--CA-[CB] |==|  0.54774
USER: genes 11 Torsion [N]-CA--CB-[OG] |==|  0.85419
USER: genes 12 Torsion [CA]-CB--OG-[HG] |==|  0.46060
USER: genes 13 Torsion [N]-CA--C-[N] |==|  0.38401
USER: genes 14 Torsion [C]-N--CA-[C] |==|  0.53087
USER: genes 15 Torsion [N]-CA--C-[O] |==|  0.00703
ROOT
ATOM      1  CA  VAL B 303      16.907   6.936  32.607  1.00 37.13 LIG 0.18  C 
ENDROOT
BRANCH 1 2
ATOM      2  N   VAL B 303      15.990   5.872  32.218  1.00 37.20 LIG-0.35  N 
ATOM      3  C   SER B 302      14.870   6.122  31.548  1.00 37.39 LIG 0.24  C 
ATOM      4 O    SER B 302      14.523   7.261  31.225  1.00 37.76 LIG-0.27  OA
ATOM      5 H    VAL B 303      16.238   5.084  32.459  1.00 37.20 LIG 0.16  HD
BRANCH 3 6
ATOM      6  CA  SER B 302      14.012   4.911  31.198  1.00 37.09 LIG 0.20  C 
BRANCH 6 7
ATOM      7  N   SER B 302      14.765   3.676  31.375  1.00 36.48 LIG-0.34  N 
ATOM      8 H    SER B 302      14.526   3.208  32.057  1.00 36.48 LIG 0.16  HD
ATOM      9  C   ALA B 301      15.736   3.324  30.538  1.00 36.26 LIG 0.26  C 
ATOM     10 O    ALA B 301      16.056   4.005  29.563  1.00 35.88 LIG-0.27  OA
BRANCH 9 11
ATOM     11  CA  ALA B 301      16.450   2.011  30.842  1.00 36.43 LIG 0.40  C 
ATOM     12  CB  ALA B 301      15.429   0.929  31.181  1.00 36.70 LIG 0.06  C 
ATOM     13  N   ALA B 301      17.407   2.174  31.976  1.00 36.51 LIG 0.61  N 
ENDBRANCH 9 11
ENDBRANCH 6 7
BRANCH 6 14
ATOM     14  CB  SER B 302      12.757   4.904  32.076  1.00 37.65 LIG 0.20  C 
BRANCH 14 15
ATOM     15 OG   SER B 302      13.075   5.208  33.422  1.00 38.63 LIG-0.40  OA
ATOM     16 HG   SER B 302      12.439   4.975  33.920  1.00 38.63 LIG 0.21  HD
ENDBRANCH 14 15
ENDBRANCH 6 14
ENDBRANCH 3 6
ENDBRANCH 1 2
BRANCH 1 17
ATOM     17  CB  VAL B 303      18.347   6.400  32.817  1.00 37.28 LIG 0.01  C 
ATOM     18  CG1 VAL B 303      19.172   7.416  33.584  1.00 36.92 LIG 0.01  C 
ATOM     19  CG2 VAL B 303      18.309   5.074  33.565  1.00 37.06 LIG 0.01  C 
ENDBRANCH 1 17
BRANCH 1 20
ATOM     20  C   VAL B 303      16.936   8.003  31.522  1.00 37.27 LIG 0.24  C 
ATOM     21 O    VAL B 303      17.203   7.707  30.355  1.00 36.92 LIG-0.27  OA
ATOM     22  N   SER B 304      16.651   9.242  31.904  1.00 37.37 LIG-0.34  N 
ATOM     23 H    SER B 304      16.450   9.464  32.710  1.00 37.37 LIG 0.16  HD
BRANCH 22 24
ATOM     24  CA  SER B 304      16.658  10.349  30.956  1.00 37.74 LIG 0.20  C 
BRANCH 24 25
ATOM     25  CB  SER B 304      16.722  11.685  31.701  1.00 37.88 LIG 0.20  C 
BRANCH 25 26
ATOM     26 OG   SER B 304      15.700  11.765  32.682  1.00 38.36 LIG-0.40  OA
ATOM     27 HG   SER B 304      15.863  12.403  33.204  1.00 38.36 LIG 0.21  HD
ENDBRANCH 25 26
ENDBRANCH 24 25
BRANCH 24 28
ATOM     28  C   SER B 304      17.863  10.212  30.030  1.00 37.93 LIG 0.24  C 
ATOM     29 O    SER B 304      18.960   9.873  30.476  1.00 38.21 LIG-0.27  OA
ATOM     30  N   ALA B 305      17.657  10.472  28.744  1.00 38.06 LIG-0.35  N 
ATOM     31 H    ALA B 305      16.898  10.712  28.417  1.00 38.06 LIG 0.16  HD
BRANCH 30 32
ATOM     32  CA  ALA B 305      18.731  10.368  27.763  1.00 38.30 LIG 0.16  C 
ATOM     33  CB  ALA B 305      19.119   8.902  27.576  1.00 38.13 LIG 0.04  C 
BRANCH 32 34
ATOM     34  C   ALA B 305      18.322  10.972  26.425  1.00 38.47 LIG 0.22  C 
ATOM     35 O    ALA B 305      17.195  11.503  26.340  1.00 38.58 LIG-0.29  OA
ENDBRANCH 32 34
ENDBRANCH 30 32
ENDBRANCH 24 28
ENDBRANCH 22 24
ENDBRANCH 1 20
TORSDOF 14
ENDMDL
MODEL 40
USER: ADFR SOLUTION from run 130
USER: SCORE 10.223530 LL:  -2.098 LR:  -9.719 RR:   0.000 FEB:  -5.543
USER: RMSD 8.308195
USER: SEED 129
USER: STATUS no improvement in best in 19 clusters for 5 generations
USER: GENES 16
USER: genes 0 Translation |==|  0.45879 0.48165 0.30418
USER: genes 1 Rotation |==|  0.54530 0.42777 0.03309 0.65724
USER: genes 2 Torsion [CB]-CA--N-[C] |==|  0.80556
USER: genes 3 Torsion [N]-C--CA-[N] |==|  0.40303
USER: genes 4 Torsion [C]-CA--N-[C] |==|  0.82037
USER: genes 5 Torsion [N]-C--CA-[N] |==|  0.57128
USER: genes 6 Torsion [C]-CA--CB-[OG] |==|  0.54353
USER: genes 7 Torsion [CA]-CB--OG-[HG] |==|  0.99206
USER: genes 8 Torsion [N]-CA--CB-[CG1] |==|  0.55274
USER: genes 9 Torsion [N]-CA--C-[N] |==|  0.19762
USER: genes 10 Torsion [C]-N--CA-[CB] |==|  0.26278
USER: genes 11 Torsion [N]-CA--CB-[OG] |==|  0.14493
USER: genes 12 Torsion [CA]-CB--OG-[HG] |==|  0.92165
USER: genes 13 Torsion [N]-CA--C-[N] |==|  0.46588
USER: genes 14 Torsion [C]-N--CA-[C] |==|  0.17455
USER: genes 15 Torsion [N]-CA--C-[O] |==|  0.95256
ROOT
ATOM      1  CA  VAL B 303      12.240   4.264  30.495  1.00 37.13 LIG 0.18  C 
ENDROOT
BRANCH 1 2
ATOM      2  N   VAL B 303      12.914   5.385  31.139  1.00 37.20 LIG-0.35  N 
ATOM      3  C   SER B 302      14.130   5.266  31.660  1.00 37.39 LIG 0.24  C 
ATOM      4 O    SER B 302      14.762   4.206  31.651  1.00 37.76 LIG-0.27  OA
ATOM      5 H    VAL B 303      12.458   6.114  31.148  1.00 37.20 LIG 0.16  HD
BRANCH 3 6
ATOM      6  CA  SER B 302      14.716   6.524  32.292  1.00 37.09 LIG 0.20  C 
BRANCH 6 7
ATOM      7  N   SER B 302      15.530   6.187  33.453  1.00 36.48 LIG-0.34  N 
ATOM      8 H    SER B 302      16.365   6.374  33.368  1.00 36.48 LIG 0.16  HD
ATOM      9  C   ALA B 301      15.000   5.638  34.541  1.00 36.26 LIG 0.26  C 
ATOM     10 O    ALA B 301      13.799   5.386  34.645  1.00 35.88 LIG-0.27  OA
BRANCH 9 11
ATOM     11  CA  ALA B 301      15.964   5.328  35.682  1.00 36.43 LIG 0.40  C 
ATOM     12  CB  ALA B 301      17.331   4.951  35.120  1.00 36.70 LIG 0.06  C 
ATOM     13  N   ALA B 301      15.444   4.217  36.533  1.00 36.51 LIG 0.61  N 
ENDBRANCH 9 11
ENDBRANCH 6 7
BRANCH 6 14
ATOM     14  CB  SER B 302      15.551   7.277  31.252  1.00 37.65 LIG 0.20  C 
BRANCH 14 15
ATOM     15 OG   SER B 302      16.392   8.235  31.869  1.00 38.63 LIG-0.40  OA
ATOM     16 HG   SER B 302      16.249   8.242  32.697  1.00 38.63 LIG 0.21  HD
ENDBRANCH 14 15
ENDBRANCH 6 14
ENDBRANCH 3 6
ENDBRANCH 1 2
BRANCH 1 17
ATOM     17  CB  VAL B 303      12.911   3.894  29.146  1.00 37.28 LIG 0.01  C 
ATOM     18  CG1 VAL B 303      11.954   3.079  28.298  1.00 36.92 LIG 0.01  C 
ATOM     19  CG2 VAL B 303      13.332   5.157  28.406  1.00 37.06 LIG 0.01  C 
ENDBRANCH 1 17
BRANCH 1 20
ATOM     20  C   VAL B 303      12.285   3.050  31.412  1.00 37.27 LIG 0.24  C 
ATOM     21 O    VAL B 303      13.007   2.087  31.147  1.00 36.92 LIG-0.27  OA
ATOM     22  N   SER B 304      11.521   3.101  32.496  1.00 37.37 LIG-0.34  N 
ATOM     23 H    SER B 304      11.021   3.770  32.703  1.00 37.37 LIG 0.16  HD
BRANCH 22 24
ATOM     24  CA  SER B 304      11.471   1.994  33.443  1.00 37.74 LIG 0.20  C 
BRANCH 24 25
ATOM     25  CB  SER B 304      12.459   2.229  34.588  1.00 37.88 LIG 0.20  C 
BRANCH 25 26
ATOM     26 OG   SER B 304      12.264   3.508  35.170  1.00 38.36 LIG-0.40  OA
ATOM     27 HG   SER B 304      11.951   4.033  34.593  1.00 38.36 LIG 0.21  HD
ENDBRANCH 25 26
ENDBRANCH 24 25
BRANCH 24 28
ATOM     28  C   SER B 304      10.054   1.868  33.996  1.00 37.93 LIG 0.24  C 
ATOM     29 O    SER B 304       9.227   2.761  33.807  1.00 38.21 LIG-0.27  OA
ATOM     30  N   ALA B 305       9.777   0.760  34.675  1.00 38.06 LIG-0.35  N 
ATOM     31 H    ALA B 305      10.344   0.130  34.818  1.00 38.06 LIG 0.16  HD
BRANCH 30 32
ATOM     32  CA  ALA B 305       8.456   0.526  35.245  1.00 38.30 LIG 0.16  C 
ATOM     33  CB  ALA B 305       8.111   1.645  36.226  1.00 38.13 LIG 0.04  C 
BRANCH 32 34
ATOM     34  C   ALA B 305       7.389   0.440  34.159  1.00 38.47 LIG 0.22  C 
ATOM     35 O    ALA B 305       7.668   0.886  33.026  1.00 38.58 LIG-0.29  OA
ENDBRANCH 32 34
ENDBRANCH 30 32
ENDBRANCH 24 28
ENDBRANCH 22 24
ENDBRANCH 1 20
TORSDOF 14
ENDMDL
MODEL 41
USER: ADFR SOLUTION from run 6
USER: SCORE 9.875073 LL:  -0.963 LR:  -9.706 RR:   0.000 FEB:  -5.529
USER: RMSD 9.707016
USER: SEED 754557
USER: STATUS no improvement in best in 22 clusters for 5 generations
USER: GENES 16
USER: genes 0 Translation |==|  0.61987 0.59780 0.35955
USER: genes 1 Rotation |==|  0.66590 0.28324 0.08519 0.55854
USER: genes 2 Torsion [CB]-CA--N-[C] |==|  0.16434
USER: genes 3 Torsion [N]-C--CA-[N] |==|  0.36205
USER: genes 4 Torsion [C]-CA--N-[C] |==|  0.84626
USER: genes 5 Torsion [N]-C--CA-[N] |==|  0.31782
USER: genes 6 Torsion [C]-CA--CB-[OG] |==|  0.33471
USER: genes 7 Torsion [CA]-CB--OG-[HG] |==|  0.17325
USER: genes 8 Torsion [N]-CA--CB-[CG1] |==|  0.15235
USER: genes 9 Torsion [N]-CA--C-[N] |==|  0.68494
USER: genes 10 Torsion [C]-N--CA-[CB] |==|  0.85516
USER: genes 11 Torsion [N]-CA--CB-[OG] |==|  0.88608
USER: genes 12 Torsion [CA]-CB--OG-[HG] |==|  0.59937
USER: genes 13 Torsion [N]-CA--C-[N] |==|  0.40528
USER: genes 14 Torsion [C]-N--CA-[C] |==|  0.76276
USER: genes 15 Torsion [N]-CA--C-[O] |==|  0.60072
ROOT
ATOM      1  CA  VAL B 303      15.502   6.616  31.325  1.00 37.13 LIG 0.18  C 
ENDROOT
BRANCH 1 2
ATOM      2  N   VAL B 303      16.043   7.814  31.954  1.00 37.20 LIG-0.35  N 
ATOM      3  C   SER B 302      16.936   8.586  31.342  1.00 37.39 LIG 0.24  C 
ATOM      4 O    SER B 302      17.377   8.336  30.217  1.00 37.76 LIG-0.27  OA
ATOM      5 H    VAL B 303      15.736   7.971  32.742  1.00 37.20 LIG 0.16  HD
BRANCH 3 6
ATOM      6  CA  SER B 302      17.406   9.813  32.115  1.00 37.09 LIG 0.20  C 
BRANCH 6 7
ATOM      7  N   SER B 302      18.861   9.892  32.123  1.00 36.48 LIG-0.34  N 
ATOM      8 H    SER B 302      19.178  10.633  31.823  1.00 36.48 LIG 0.16  HD
ATOM      9  C   ALA B 301      19.612   8.887  32.562  1.00 36.26 LIG 0.26  C 
ATOM     10 O    ALA B 301      19.137   7.837  32.994  1.00 35.88 LIG-0.27  OA
BRANCH 9 11
ATOM     11  CA  ALA B 301      21.122   9.096  32.508  1.00 36.43 LIG 0.40  C 
ATOM     12  CB  ALA B 301      21.775   7.976  31.703  1.00 36.70 LIG 0.06  C 
ATOM     13  N   ALA B 301      21.705   9.136  33.882  1.00 36.51 LIG 0.61  N 
ENDBRANCH 9 11
ENDBRANCH 6 7
BRANCH 6 14
ATOM     14  CB  SER B 302      16.804  11.074  31.487  1.00 37.65 LIG 0.20  C 
BRANCH 14 15
ATOM     15 OG   SER B 302      16.014  11.783  32.423  1.00 38.63 LIG-0.40  OA
ATOM     16 HG   SER B 302      16.497  12.038  33.062  1.00 38.63 LIG 0.21  HD
ENDBRANCH 14 15
ENDBRANCH 6 14
ENDBRANCH 3 6
ENDBRANCH 1 2
BRANCH 1 17
ATOM     17  CB  VAL B 303      16.621   5.603  30.970  1.00 37.28 LIG 0.01  C 
ATOM     18  CG1 VAL B 303      17.440   5.280  32.205  1.00 36.92 LIG 0.01  C 
ATOM     19  CG2 VAL B 303      16.013   4.333  30.390  1.00 37.06 LIG 0.01  C 
ENDBRANCH 1 17
BRANCH 1 20
ATOM     20  C   VAL B 303      14.518   5.945  32.273  1.00 37.27 LIG 0.24  C 
ATOM     21 O    VAL B 303      13.453   6.491  32.565  1.00 36.92 LIG-0.27  OA
ATOM     22  N   SER B 304      14.871   4.756  32.746  1.00 37.37 LIG-0.34  N 
ATOM     23 H    SER B 304      15.605   4.355  32.544  1.00 37.37 LIG 0.16  HD
BRANCH 22 24
ATOM     24  CA  SER B 304      14.017   4.022  33.671  1.00 37.74 LIG 0.20  C 
BRANCH 24 25
ATOM     25  CB  SER B 304      13.632   4.909  34.857  1.00 37.88 LIG 0.20  C 
BRANCH 25 26
ATOM     26 OG   SER B 304      14.740   5.680  35.292  1.00 38.36 LIG-0.40  OA
ATOM     27 HG   SER B 304      14.715   5.760  36.128  1.00 38.36 LIG 0.21  HD
ENDBRANCH 25 26
ENDBRANCH 24 25
BRANCH 24 28
ATOM     28  C   SER B 304      12.761   3.560  32.937  1.00 37.93 LIG 0.24  C 
ATOM     29 O    SER B 304      12.267   4.252  32.046  1.00 38.21 LIG-0.27  OA
ATOM     30  N   ALA B 305      12.250   2.391  33.310  1.00 38.06 LIG-0.35  N 
ATOM     31 H    ALA B 305      12.582   1.898  33.931  1.00 38.06 LIG 0.16  HD
BRANCH 30 32
ATOM     32  CA  ALA B 305      11.056   1.844  32.676  1.00 38.30 LIG 0.16  C 
ATOM     33  CB  ALA B 305      11.077   0.319  32.768  1.00 38.13 LIG 0.04  C 
BRANCH 32 34
ATOM     34  C   ALA B 305       9.786   2.386  33.323  1.00 38.47 LIG 0.22  C 
ATOM     35 O    ALA B 305       8.809   1.616  33.432  1.00 38.58 LIG-0.29  OA
ENDBRANCH 32 34
ENDBRANCH 30 32
ENDBRANCH 24 28
ENDBRANCH 22 24
ENDBRANCH 1 20
TORSDOF 14
ENDMDL
MODEL 42
USER: ADFR SOLUTION from run 181
USER: SCORE 10.115137 LL:  -2.196 LR:  -9.702 RR:   0.000 FEB:  -5.526
USER: RMSD 6.392015
USER: SEED 180
USER: STATUS no improvement in best in 38 clusters for 5 generations
USER: GENES 16
USER: genes 0 Translation |==|  0.46260 0.43500 0.33916
USER: genes 1 Rotation |==|  0.78685 0.66050 0.23670 0.76950
USER: genes 2 Torsion [CB]-CA--N-[C] |==|  0.52222
USER: genes 3 Torsion [N]-C--CA-[N] |==|  0.97986
USER: genes 4 Torsion [C]-CA--N-[C] |==|  0.71286
USER: genes 5 Torsion [N]-C--CA-[N] |==|  0.26893
USER: genes 6 Torsion [C]-CA--CB-[OG] |==|  0.64391
USER: genes 7 Torsion [CA]-CB--OG-[HG] |==|  0.89550
USER: genes 8 Torsion [N]-CA--CB-[CG1] |==|  0.73455
USER: genes 9 Torsion [N]-CA--C-[N] |==|  0.77682
USER: genes 10 Torsion [C]-N--CA-[CB] |==|  0.50580
USER: genes 11 Torsion [N]-CA--CB-[OG] |==|  0.68727
USER: genes 12 Torsion [CA]-CB--OG-[HG] |==|  0.66246
USER: genes 13 Torsion [N]-CA--C-[N] |==|  0.40029
USER: genes 14 Torsion [C]-N--CA-[C] |==|  0.18132
USER: genes 15 Torsion [N]-CA--C-[O] |==|  0.09461
ROOT
ATOM      1  CA  VAL B 303      12.318   3.320  31.019  1.00 37.13 LIG 0.18  C 
ENDROOT
BRANCH 1 2
ATOM      2  N   VAL B 303      11.594   2.988  32.240  1.00 37.20 LIG-0.35  N 
ATOM      3  C   SER B 302      11.173   1.753  32.491  1.00 37.39 LIG 0.24  C 
ATOM      4 O    SER B 302      11.347   0.813  31.710  1.00 37.76 LIG-0.27  OA
ATOM      5 H    VAL B 303      11.469   3.653  32.771  1.00 37.20 LIG 0.16  HD
BRANCH 3 6
ATOM      6  CA  SER B 302      10.440   1.549  33.813  1.00 37.09 LIG 0.20  C 
BRANCH 6 7
ATOM      7  N   SER B 302      10.499   2.755  34.628  1.00 36.48 LIG-0.34  N 
ATOM      8 H    SER B 302       9.964   3.380  34.377  1.00 36.48 LIG 0.16  HD
ATOM      9  C   ALA B 301      11.321   2.854  35.667  1.00 36.26 LIG 0.26  C 
ATOM     10 O    ALA B 301      12.074   1.944  36.013  1.00 35.88 LIG-0.27  OA
BRANCH 9 11
ATOM     11  CA  ALA B 301      11.290   4.174  36.431  1.00 36.43 LIG 0.40  C 
ATOM     12  CB  ALA B 301      12.702   4.562  36.860  1.00 36.70 LIG 0.06  C 
ATOM     13  N   ALA B 301      10.408   4.076  37.631  1.00 36.51 LIG 0.61  N 
ENDBRANCH 9 11
ENDBRANCH 6 7
BRANCH 6 14
ATOM     14  CB  SER B 302       8.984   1.161  33.534  1.00 37.65 LIG 0.20  C 
BRANCH 14 15
ATOM     15 OG   SER B 302       8.089   1.992  34.250  1.00 38.63 LIG-0.40  OA
ATOM     16 HG   SER B 302       8.408   2.160  35.008  1.00 38.63 LIG 0.21  HD
ENDBRANCH 14 15
ENDBRANCH 6 14
ENDBRANCH 3 6
ENDBRANCH 1 2
BRANCH 1 17
ATOM     17  CB  VAL B 303      12.868   4.769  31.058  1.00 37.28 LIG 0.01  C 
ATOM     18  CG1 VAL B 303      11.903   5.709  30.361  1.00 36.92 LIG 0.01  C 
ATOM     19  CG2 VAL B 303      13.087   5.208  32.499  1.00 37.06 LIG 0.01  C 
ENDBRANCH 1 17
BRANCH 1 20
ATOM     20  C   VAL B 303      13.485   2.359  30.844  1.00 37.27 LIG 0.24  C 
ATOM     21 O    VAL B 303      13.402   1.401  30.073  1.00 36.92 LIG-0.27  OA
ATOM     22  N   SER B 304      14.577   2.621  31.551  1.00 37.37 LIG-0.34  N 
ATOM     23 H    SER B 304      14.657   3.291  32.084  1.00 37.37 LIG 0.16  HD
BRANCH 22 24
ATOM     24  CA  SER B 304      15.755   1.765  31.476  1.00 37.74 LIG 0.20  C 
BRANCH 24 25
ATOM     25  CB  SER B 304      16.841   2.270  32.429  1.00 37.88 LIG 0.20  C 
BRANCH 25 26
ATOM     26 OG   SER B 304      17.958   2.761  31.707  1.00 38.36 LIG-0.40  OA
ATOM     27 HG   SER B 304      18.646   2.334  31.931  1.00 38.36 LIG 0.21  HD
ENDBRANCH 25 26
ENDBRANCH 24 25
BRANCH 24 28
ATOM     28  C   SER B 304      15.364   0.337  31.842  1.00 37.93 LIG 0.24  C 
ATOM     29 O    SER B 304      14.515   0.123  32.708  1.00 38.21 LIG-0.27  OA
ATOM     30  N   ALA B 305      15.982  -0.637  31.181  1.00 38.06 LIG-0.35  N 
ATOM     31 H    ALA B 305      16.578  -0.504  30.576  1.00 38.06 LIG 0.16  HD
BRANCH 30 32
ATOM     32  CA  ALA B 305      15.686  -2.041  31.441  1.00 38.30 LIG 0.16  C 
ATOM     33  CB  ALA B 305      15.910  -2.351  32.920  1.00 38.13 LIG 0.04  C 
BRANCH 32 34
ATOM     34  C   ALA B 305      14.255  -2.389  31.049  1.00 38.47 LIG 0.22  C 
ATOM     35 O    ALA B 305      13.758  -1.806  30.063  1.00 38.58 LIG-0.29  OA
ENDBRANCH 32 34
ENDBRANCH 30 32
ENDBRANCH 24 28
ENDBRANCH 22 24
ENDBRANCH 1 20
TORSDOF 14
ENDMDL
MODEL 43
USER: ADFR SOLUTION from run 192
USER: SCORE 9.778496 LL:  -2.335 LR:  -9.675 RR:   0.000 FEB:  -5.499
USER: RMSD 4.990645
USER: SEED 191
USER: STATUS no improvement in best in 48 clusters for 5 generations
USER: GENES 16
USER: genes 0 Translation |==|  0.44817 0.43287 0.36714
USER: genes 1 Rotation |==|  0.66874 0.56043 0.36780 0.94766
USER: genes 2 Torsion [CB]-CA--N-[C] |==|  0.45507
USER: genes 3 Torsion [N]-C--CA-[N] |==|  0.36886
USER: genes 4 Torsion [C]-CA--N-[C] |==|  0.56792
USER: genes 5 Torsion [N]-C--CA-[N] |==|  0.50305
USER: genes 6 Torsion [C]-CA--CB-[OG] |==|  0.47896
USER: genes 7 Torsion [CA]-CB--OG-[HG] |==|  0.70930
USER: genes 8 Torsion [N]-CA--CB-[CG1] |==|  0.28587
USER: genes 9 Torsion [N]-CA--C-[N] |==|  0.92613
USER: genes 10 Torsion [C]-N--CA-[CB] |==|  0.21658
USER: genes 11 Torsion [N]-CA--CB-[OG] |==|  0.13373
USER: genes 12 Torsion [CA]-CB--OG-[HG] |==|  0.39199
USER: genes 13 Torsion [N]-CA--C-[N] |==|  0.96444
USER: genes 14 Torsion [C]-N--CA-[C] |==|  0.73470
USER: genes 15 Torsion [N]-CA--C-[O] |==|  0.08753
ROOT
ATOM      1  CA  VAL B 303      12.025   3.277  31.439  1.00 37.13 LIG 0.18  C 
ENDROOT
BRANCH 1 2
ATOM      2  N   VAL B 303      10.851   3.159  32.295  1.00 37.20 LIG-0.35  N 
ATOM      3  C   SER B 302      10.566   2.033  32.941  1.00 37.39 LIG 0.24  C 
ATOM      4 O    SER B 302      11.257   1.014  32.851  1.00 37.76 LIG-0.27  OA
ATOM      5 H    VAL B 303      10.372   3.871  32.340  1.00 37.20 LIG 0.16  HD
BRANCH 3 6
ATOM      6  CA  SER B 302       9.312   2.057  33.809  1.00 37.09 LIG 0.20  C 
BRANCH 6 7
ATOM      7  N   SER B 302       8.494   0.875  33.567  1.00 36.48 LIG-0.34  N 
ATOM      8 H    SER B 302       8.929   0.198  33.264  1.00 36.48 LIG 0.16  HD
ATOM      9  C   ALA B 301       7.187   0.872  33.805  1.00 36.26 LIG 0.26  C 
ATOM     10 O    ALA B 301       6.585   1.851  34.247  1.00 35.88 LIG-0.27  OA
BRANCH 9 11
ATOM     11  CA  ALA B 301       6.446  -0.427  33.501  1.00 36.43 LIG 0.40  C 
ATOM     12  CB  ALA B 301       6.652  -0.814  32.040  1.00 36.70 LIG 0.06  C 
ATOM     13  N   ALA B 301       4.988  -0.289  33.786  1.00 36.51 LIG 0.61  N 
ENDBRANCH 9 11
ENDBRANCH 6 7
BRANCH 6 14
ATOM     14  CB  SER B 302       9.715   2.137  35.285  1.00 37.65 LIG 0.20  C 
BRANCH 14 15
ATOM     15 OG   SER B 302       8.583   2.335  36.112  1.00 38.63 LIG-0.40  OA
ATOM     16 HG   SER B 302       8.562   3.133  36.373  1.00 38.63 LIG 0.21  HD
ENDBRANCH 14 15
ENDBRANCH 6 14
ENDBRANCH 3 6
ENDBRANCH 1 2
BRANCH 1 17
ATOM     17  CB  VAL B 303      11.927   4.508  30.501  1.00 37.28 LIG 0.01  C 
ATOM     18  CG1 VAL B 303      12.801   5.631  31.026  1.00 36.92 LIG 0.01  C 
ATOM     19  CG2 VAL B 303      12.346   4.125  29.088  1.00 37.06 LIG 0.01  C 
ENDBRANCH 1 17
BRANCH 1 20
ATOM     20  C   VAL B 303      13.271   3.419  32.303  1.00 37.27 LIG 0.24  C 
ATOM     21 O    VAL B 303      14.373   3.065  31.881  1.00 36.92 LIG-0.27  OA
ATOM     22  N   SER B 304      13.096   3.947  33.508  1.00 37.37 LIG-0.34  N 
ATOM     23 H    SER B 304      12.337   4.211  33.814  1.00 37.37 LIG 0.16  HD
BRANCH 22 24
ATOM     24  CA  SER B 304      14.212   4.123  34.430  1.00 37.74 LIG 0.20  C 
BRANCH 24 25
ATOM     25  CB  SER B 304      15.038   5.349  34.036  1.00 37.88 LIG 0.20  C 
BRANCH 25 26
ATOM     26 OG   SER B 304      14.200   6.469  33.803  1.00 38.36 LIG-0.40  OA
ATOM     27 HG   SER B 304      14.567   7.162  34.105  1.00 38.36 LIG 0.21  HD
ENDBRANCH 25 26
ENDBRANCH 24 25
BRANCH 24 28
ATOM     28  C   SER B 304      13.672   4.291  35.847  1.00 37.93 LIG 0.24  C 
ATOM     29 O    SER B 304      14.428   4.222  36.817  1.00 38.21 LIG-0.27  OA
ATOM     30  N   ALA B 305      12.368   4.515  35.964  1.00 38.06 LIG-0.35  N 
ATOM     31 H    ALA B 305      11.827   4.564  35.298  1.00 38.06 LIG 0.16  HD
BRANCH 30 32
ATOM     32  CA  ALA B 305      11.739   4.698  37.267  1.00 38.30 LIG 0.16  C 
ATOM     33  CB  ALA B 305      10.646   5.761  37.168  1.00 38.13 LIG 0.04  C 
BRANCH 32 34
ATOM     34  C   ALA B 305      11.149   3.393  37.788  1.00 38.47 LIG 0.22  C 
ATOM     35 O    ALA B 305      11.713   2.325  37.471  1.00 38.58 LIG-0.29  OA
ENDBRANCH 32 34
ENDBRANCH 30 32
ENDBRANCH 24 28
ENDBRANCH 22 24
ENDBRANCH 1 20
TORSDOF 14
ENDMDL
MODEL 44
USER: ADFR SOLUTION from run 89
USER: SCORE 10.245690 LL:  -2.562 LR:  -9.663 RR:   0.000 FEB:  -5.487
USER: RMSD 7.964887
USER: SEED 88
USER: STATUS no improvement in best in 21 clusters for 5 generations
USER: GENES 16
USER: genes 0 Translation |==|  0.47176 0.52002 0.33653
USER: genes 1 Rotation |==|  0.40686 0.62554 0.02786 0.55147
USER: genes 2 Torsion [CB]-CA--N-[C] |==|  0.38472
USER: genes 3 Torsion [N]-C--CA-[N] |==|  0.87780
USER: genes 4 Torsion [C]-CA--N-[C] |==|  0.85373
USER: genes 5 Torsion [N]-C--CA-[N] |==|  0.51396
USER: genes 6 Torsion [C]-CA--CB-[OG] |==|  0.42130
USER: genes 7 Torsion [CA]-CB--OG-[HG] |==|  0.82195
USER: genes 8 Torsion [N]-CA--CB-[CG1] |==|  0.78923
USER: genes 9 Torsion [N]-CA--C-[N] |==|  0.26698
USER: genes 10 Torsion [C]-N--CA-[CB] |==|  0.16562
USER: genes 11 Torsion [N]-CA--CB-[OG] |==|  0.73273
USER: genes 12 Torsion [CA]-CB--OG-[HG] |==|  0.10313
USER: genes 13 Torsion [N]-CA--C-[N] |==|  0.06164
USER: genes 14 Torsion [C]-N--CA-[C] |==|  0.71152
USER: genes 15 Torsion [N]-CA--C-[O] |==|  0.02887
ROOT
ATOM      1  CA  VAL B 303      12.503   5.041  30.980  1.00 37.13 LIG 0.18  C 
ENDROOT
BRANCH 1 2
ATOM      2  N   VAL B 303      13.899   5.339  31.274  1.00 37.20 LIG-0.35  N 
ATOM      3  C   SER B 302      14.290   5.750  32.476  1.00 37.39 LIG 0.24  C 
ATOM      4 O    SER B 302      13.505   5.924  33.413  1.00 37.76 LIG-0.27  OA
ATOM      5 H    VAL B 303      14.433   5.226  30.610  1.00 37.20 LIG 0.16  HD
BRANCH 3 6
ATOM      6  CA  SER B 302      15.782   6.014  32.643  1.00 37.09 LIG 0.20  C 
BRANCH 6 7
ATOM      7  N   SER B 302      16.567   4.950  32.031  1.00 36.48 LIG-0.34  N 
ATOM      8 H    SER B 302      17.163   5.223  31.475  1.00 36.48 LIG 0.16  HD
ATOM      9  C   ALA B 301      16.356   3.670  32.325  1.00 36.26 LIG 0.26  C 
ATOM     10 O    ALA B 301      15.501   3.302  33.130  1.00 35.88 LIG-0.27  OA
BRANCH 9 11
ATOM     11  CA  ALA B 301      17.241   2.656  31.607  1.00 36.43 LIG 0.40  C 
ATOM     12  CB  ALA B 301      17.170   2.877  30.099  1.00 36.70 LIG 0.06  C 
ATOM     13  N   ALA B 301      16.825   1.260  31.932  1.00 36.51 LIG 0.61  N 
ENDBRANCH 9 11
ENDBRANCH 6 7
BRANCH 6 14
ATOM     14  CB  SER B 302      16.135   7.367  32.018  1.00 37.65 LIG 0.20  C 
BRANCH 14 15
ATOM     15 OG   SER B 302      17.253   7.951  32.662  1.00 38.63 LIG-0.40  OA
ATOM     16 HG   SER B 302      17.060   8.119  33.462  1.00 38.63 LIG 0.21  HD
ENDBRANCH 14 15
ENDBRANCH 6 14
ENDBRANCH 3 6
ENDBRANCH 1 2
BRANCH 1 17
ATOM     17  CB  VAL B 303      12.087   5.576  29.585  1.00 37.28 LIG 0.01  C 
ATOM     18  CG1 VAL B 303      11.892   7.079  29.642  1.00 36.92 LIG 0.01  C 
ATOM     19  CG2 VAL B 303      13.144   5.217  28.550  1.00 37.06 LIG 0.01  C 
ENDBRANCH 1 17
BRANCH 1 20
ATOM     20  C   VAL B 303      12.288   3.535  31.010  1.00 37.27 LIG 0.24  C 
ATOM     21 O    VAL B 303      12.545   2.842  30.023  1.00 36.92 LIG-0.27  OA
ATOM     22  N   SER B 304      11.827   3.026  32.146  1.00 37.37 LIG-0.34  N 
ATOM     23 H    SER B 304      11.655   3.492  32.848  1.00 37.37 LIG 0.16  HD
BRANCH 22 24
ATOM     24  CA  SER B 304      11.571   1.598  32.291  1.00 37.74 LIG 0.20  C 
BRANCH 24 25
ATOM     25  CB  SER B 304      12.856   0.801  32.056  1.00 37.88 LIG 0.20  C 
BRANCH 25 26
ATOM     26 OG   SER B 304      12.925   0.337  30.718  1.00 38.36 LIG-0.40  OA
ATOM     27 HG   SER B 304      12.608   0.920  30.202  1.00 38.36 LIG 0.21  HD
ENDBRANCH 25 26
ENDBRANCH 24 25
BRANCH 24 28
ATOM     28  C   SER B 304      11.037   1.323  33.693  1.00 37.93 LIG 0.24  C 
ATOM     29 O    SER B 304      11.131   0.199  34.189  1.00 38.21 LIG-0.27  OA
ATOM     30  N   ALA B 305      10.479   2.347  34.329  1.00 38.06 LIG-0.35  N 
ATOM     31 H    ALA B 305      10.404   3.136  33.996  1.00 38.06 LIG 0.16  HD
BRANCH 30 32
ATOM     32  CA  ALA B 305       9.939   2.206  35.676  1.00 38.30 LIG 0.16  C 
ATOM     33  CB  ALA B 305      10.400   3.377  36.543  1.00 38.13 LIG 0.04  C 
BRANCH 32 34
ATOM     34  C   ALA B 305       8.416   2.140  35.660  1.00 38.47 LIG 0.22  C 
ATOM     35 O    ALA B 305       7.846   2.011  34.557  1.00 38.58 LIG-0.29  OA
ENDBRANCH 32 34
ENDBRANCH 30 32
ENDBRANCH 24 28
ENDBRANCH 22 24
ENDBRANCH 1 20
TORSDOF 14
ENDMDL
MODEL 45
USER: ADFR SOLUTION from run 96
USER: SCORE 10.118107 LL:  -1.828 LR:  -9.665 RR:   0.000 FEB:  -5.488
USER: RMSD 8.663873
USER: SEED 95
USER: STATUS no improvement in best in 35 clusters for 5 generations
USER: GENES 16
USER: genes 0 Translation |==|  0.69903 0.70467 0.40671
USER: genes 1 Rotation |==|  0.57879 0.62411 0.02280 0.52581
USER: genes 2 Torsion [CB]-CA--N-[C] |==|  0.80556
USER: genes 3 Torsion [N]-C--CA-[N] |==|  0.10997
USER: genes 4 Torsion [C]-CA--N-[C] |==|  0.16695
USER: genes 5 Torsion [N]-C--CA-[N] |==|  0.63330
USER: genes 6 Torsion [C]-CA--CB-[OG] |==|  0.17537
USER: genes 7 Torsion [CA]-CB--OG-[HG] |==|  0.92114
USER: genes 8 Torsion [N]-CA--CB-[CG1] |==|  0.60779
USER: genes 9 Torsion [N]-CA--C-[N] |==|  0.19302
USER: genes 10 Torsion [C]-N--CA-[CB] |==|  0.48044
USER: genes 11 Torsion [N]-CA--CB-[OG] |==|  0.26879
USER: genes 12 Torsion [CA]-CB--OG-[HG] |==|  0.38026
USER: genes 13 Torsion [N]-CA--C-[N] |==|  0.48875
USER: genes 14 Torsion [C]-N--CA-[C] |==|  0.19630
USER: genes 15 Torsion [N]-CA--C-[O] |==|  0.00973
ROOT
ATOM      1  CA  VAL B 303      17.105   8.781  32.033  1.00 37.13 LIG 0.18  C 
ENDROOT
BRANCH 1 2
ATOM      2  N   VAL B 303      18.072   8.708  33.121  1.00 37.20 LIG-0.35  N 
ATOM      3  C   SER B 302      19.070   7.831  33.114  1.00 37.39 LIG 0.24  C 
ATOM      4 O    SER B 302      19.239   7.014  32.205  1.00 37.76 LIG-0.27  OA
ATOM      5 H    VAL B 303      17.936   9.275  33.754  1.00 37.20 LIG 0.16  HD
BRANCH 3 6
ATOM      6  CA  SER B 302      20.012   7.876  34.313  1.00 37.09 LIG 0.20  C 
BRANCH 6 7
ATOM      7  N   SER B 302      19.268   8.103  35.545  1.00 36.48 LIG-0.34  N 
ATOM      8 H    SER B 302      19.490   8.818  35.968  1.00 36.48 LIG 0.16  HD
ATOM      9  C   ALA B 301      18.328   7.259  35.958  1.00 36.26 LIG 0.26  C 
ATOM     10 O    ALA B 301      18.019   6.244  35.333  1.00 35.88 LIG-0.27  OA
BRANCH 9 11
ATOM     11  CA  ALA B 301      17.631   7.610  37.269  1.00 36.43 LIG 0.40  C 
ATOM     12  CB  ALA B 301      18.365   8.756  37.959  1.00 36.70 LIG 0.06  C 
ATOM     13  N   ALA B 301      17.575   6.427  38.178  1.00 36.51 LIG 0.61  N 
ENDBRANCH 9 11
ENDBRANCH 6 7
BRANCH 6 14
ATOM     14  CB  SER B 302      20.796   6.563  34.395  1.00 37.65 LIG 0.20  C 
BRANCH 14 15
ATOM     15 OG   SER B 302      21.619   6.389  33.256  1.00 38.63 LIG-0.40  OA
ATOM     16 HG   SER B 302      21.275   6.782  32.599  1.00 38.63 LIG 0.21  HD
ENDBRANCH 14 15
ENDBRANCH 6 14
ENDBRANCH 3 6
ENDBRANCH 1 2
BRANCH 1 17
ATOM     17  CB  VAL B 303      17.746   9.342  30.737  1.00 37.28 LIG 0.01  C 
ATOM     18  CG1 VAL B 303      16.767  10.259  30.029  1.00 36.92 LIG 0.01  C 
ATOM     19  CG2 VAL B 303      19.029  10.091  31.069  1.00 37.06 LIG 0.01  C 
ENDBRANCH 1 17
BRANCH 1 20
ATOM     20  C   VAL B 303      16.560   7.389  31.745  1.00 37.27 LIG 0.24  C 
ATOM     21 O    VAL B 303      16.856   6.799  30.704  1.00 36.92 LIG-0.27  OA
ATOM     22  N   SER B 304      15.770   6.861  32.672  1.00 37.37 LIG-0.34  N 
ATOM     23 H    SER B 304      15.564   7.252  33.410  1.00 37.37 LIG 0.16  HD
BRANCH 22 24
ATOM     24  CA  SER B 304      15.179   5.539  32.504  1.00 37.74 LIG 0.20  C 
BRANCH 24 25
ATOM     25  CB  SER B 304      14.464   5.109  33.787  1.00 37.88 LIG 0.20  C 
BRANCH 25 26
ATOM     26 OG   SER B 304      13.075   5.386  33.709  1.00 38.36 LIG-0.40  OA
ATOM     27 HG   SER B 304      12.642   4.733  34.012  1.00 38.36 LIG 0.21  HD
ENDBRANCH 25 26
ENDBRANCH 24 25
BRANCH 24 28
ATOM     28  C   SER B 304      14.189   5.575  31.343  1.00 37.93 LIG 0.24  C 
ATOM     29 O    SER B 304      13.944   6.633  30.762  1.00 38.21 LIG-0.27  OA
ATOM     30  N   ALA B 305      13.623   4.421  31.008  1.00 38.06 LIG-0.35  N 
ATOM     31 H    ALA B 305      13.782   3.675  31.405  1.00 38.06 LIG 0.16  HD
BRANCH 30 32
ATOM     32  CA  ALA B 305      12.666   4.331  29.911  1.00 38.30 LIG 0.16  C 
ATOM     33  CB  ALA B 305      11.575   5.385  30.091  1.00 38.13 LIG 0.04  C 
BRANCH 32 34
ATOM     34  C   ALA B 305      13.349   4.516  28.561  1.00 38.47 LIG 0.22  C 
ATOM     35 O    ALA B 305      14.591   4.646  28.544  1.00 38.58 LIG-0.29  OA
ENDBRANCH 32 34
ENDBRANCH 30 32
ENDBRANCH 24 28
ENDBRANCH 22 24
ENDBRANCH 1 20
TORSDOF 14
ENDMDL
MODEL 46
USER: ADFR SOLUTION from run 29
USER: SCORE 8.652108 LL:  -2.005 LR:  -9.647 RR:   0.000 FEB:  -5.471
USER: RMSD 5.717559
USER: SEED 28
USER: STATUS no improvement in best in 39 clusters for 5 generations
USER: GENES 16
USER: genes 0 Translation |==|  0.61716 0.45252 0.28589
USER: genes 1 Rotation |==|  0.56661 0.79592 0.53653 0.89581
USER: genes 2 Torsion [CB]-CA--N-[C] |==|  0.52224
USER: genes 3 Torsion [N]-C--CA-[N] |==|  0.29787
USER: genes 4 Torsion [C]-CA--N-[C] |==|  0.76385
USER: genes 5 Torsion [N]-C--CA-[N] |==|  0.70826
USER: genes 6 Torsion [C]-CA--CB-[OG] |==|  0.77147
USER: genes 7 Torsion [CA]-CB--OG-[HG] |==|  0.03998
USER: genes 8 Torsion [N]-CA--CB-[CG1] |==|  0.13949
USER: genes 9 Torsion [N]-CA--C-[N] |==|  0.88532
USER: genes 10 Torsion [C]-N--CA-[CB] |==|  0.31565
USER: genes 11 Torsion [N]-CA--CB-[OG] |==|  0.42401
USER: genes 12 Torsion [CA]-CB--OG-[HG] |==|  0.78064
USER: genes 13 Torsion [N]-CA--C-[N] |==|  0.79443
USER: genes 14 Torsion [C]-N--CA-[C] |==|  0.50038
USER: genes 15 Torsion [N]-CA--C-[O] |==|  0.67128
ROOT
ATOM      1  CA  VAL B 303      15.448   3.674  30.220  1.00 37.13 LIG 0.18  C 
ENDROOT
BRANCH 1 2
ATOM      2  N   VAL B 303      15.711   2.993  31.481  1.00 37.20 LIG-0.35  N 
ATOM      3  C   SER B 302      16.949   2.745  31.898  1.00 37.39 LIG 0.24  C 
ATOM      4 O    SER B 302      17.950   3.054  31.247  1.00 37.76 LIG-0.27  OA
ATOM      5 H    VAL B 303      15.005   2.772  31.920  1.00 37.20 LIG 0.16  HD
BRANCH 3 6
ATOM      6  CA  SER B 302      17.075   2.034  33.242  1.00 37.09 LIG 0.20  C 
BRANCH 6 7
ATOM      7  N   SER B 302      17.493   0.651  33.057  1.00 36.48 LIG-0.34  N 
ATOM      8 H    SER B 302      18.341   0.524  33.126  1.00 36.48 LIG 0.16  HD
ATOM      9  C   ALA B 301      16.615  -0.315  32.805  1.00 36.26 LIG 0.26  C 
ATOM     10 O    ALA B 301      15.404  -0.112  32.719  1.00 35.88 LIG-0.27  OA
BRANCH 9 11
ATOM     11  CA  ALA B 301      17.186  -1.718  32.625  1.00 36.43 LIG 0.40  C 
ATOM     12  CB  ALA B 301      18.608  -1.777  33.175  1.00 36.70 LIG 0.06  C 
ATOM     13  N   ALA B 301      17.186  -2.114  31.185  1.00 36.51 LIG 0.61  N 
ENDBRANCH 9 11
ENDBRANCH 6 7
BRANCH 6 14
ATOM     14  CB  SER B 302      18.078   2.785  34.123  1.00 37.65 LIG 0.20  C 
BRANCH 14 15
ATOM     15 OG   SER B 302      19.409   2.418  33.807  1.00 38.63 LIG-0.40  OA
ATOM     16 HG   SER B 302      19.421   2.011  33.072  1.00 38.63 LIG 0.21  HD
ENDBRANCH 14 15
ENDBRANCH 6 14
ENDBRANCH 3 6
ENDBRANCH 1 2
BRANCH 1 17
ATOM     17  CB  VAL B 303      13.944   4.018  30.061  1.00 37.28 LIG 0.01  C 
ATOM     18  CG1 VAL B 303      13.437   4.721  31.306  1.00 36.92 LIG 0.01  C 
ATOM     19  CG2 VAL B 303      13.734   4.895  28.834  1.00 37.06 LIG 0.01  C 
ENDBRANCH 1 17
BRANCH 1 20
ATOM     20  C   VAL B 303      16.252   4.965  30.163  1.00 37.27 LIG 0.24  C 
ATOM     21 O    VAL B 303      16.807   5.316  29.119  1.00 36.92 LIG-0.27  OA
ATOM     22  N   SER B 304      16.307   5.677  31.282  1.00 37.37 LIG-0.34  N 
ATOM     23 H    SER B 304      15.916   5.454  32.015  1.00 37.37 LIG 0.16  HD
BRANCH 22 24
ATOM     24  CA  SER B 304      17.057   6.925  31.353  1.00 37.74 LIG 0.20  C 
BRANCH 24 25
ATOM     25  CB  SER B 304      16.106   8.106  31.560  1.00 37.88 LIG 0.20  C 
BRANCH 25 26
ATOM     26 OG   SER B 304      16.759   9.169  32.233  1.00 38.36 LIG-0.40  OA
ATOM     27 HG   SER B 304      16.795   9.000  33.055  1.00 38.36 LIG 0.21  HD
ENDBRANCH 25 26
ENDBRANCH 24 25
BRANCH 24 28
ATOM     28  C   SER B 304      18.052   6.850  32.507  1.00 37.93 LIG 0.24  C 
ATOM     29 O    SER B 304      19.255   6.705  32.288  1.00 38.21 LIG-0.27  OA
ATOM     30  N   ALA B 305      17.550   6.951  33.733  1.00 38.06 LIG-0.35  N 
ATOM     31 H    ALA B 305      16.713   7.050  33.903  1.00 38.06 LIG 0.16  HD
BRANCH 30 32
ATOM     32  CA  ALA B 305      18.404   6.899  34.914  1.00 38.30 LIG 0.16  C 
ATOM     33  CB  ALA B 305      19.450   8.011  34.843  1.00 38.13 LIG 0.04  C 
BRANCH 32 34
ATOM     34  C   ALA B 305      17.589   7.033  36.195  1.00 38.47 LIG 0.22  C 
ATOM     35 O    ALA B 305      17.819   8.011  36.938  1.00 38.58 LIG-0.29  OA
ENDBRANCH 32 34
ENDBRANCH 30 32
ENDBRANCH 24 28
ENDBRANCH 22 24
ENDBRANCH 1 20
TORSDOF 14
ENDMDL
MODEL 47
USER: ADFR SOLUTION from run 103
USER: SCORE 9.716797 LL:  -2.614 LR:  -9.632 RR:   0.000 FEB:  -5.456
USER: RMSD 5.414092
USER: SEED 102
USER: STATUS no improvement in best in 31 clusters for 5 generations
USER: GENES 16
USER: genes 0 Translation |==|  0.45896 0.45975 0.33007
USER: genes 1 Rotation |==|  0.72960 0.71243 0.26545 0.81168
USER: genes 2 Torsion [CB]-CA--N-[C] |==|  0.48598
USER: genes 3 Torsion [N]-C--CA-[N] |==|  0.93700
USER: genes 4 Torsion [C]-CA--N-[C] |==|  0.75006
USER: genes 5 Torsion [N]-C--CA-[N] |==|  0.70876
USER: genes 6 Torsion [C]-CA--CB-[OG] |==|  0.74567
USER: genes 7 Torsion [CA]-CB--OG-[HG] |==|  0.08212
USER: genes 8 Torsion [N]-CA--CB-[CG1] |==|  0.20739
USER: genes 9 Torsion [N]-CA--C-[N] |==|  0.93411
USER: genes 10 Torsion [C]-N--CA-[CB] |==|  0.17348
USER: genes 11 Torsion [N]-CA--CB-[OG] |==|  0.48089
USER: genes 12 Torsion [CA]-CB--OG-[HG] |==|  0.95465
USER: genes 13 Torsion [N]-CA--C-[N] |==|  0.44149
USER: genes 14 Torsion [C]-N--CA-[C] |==|  0.73717
USER: genes 15 Torsion [N]-CA--C-[O] |==|  0.01320
ROOT
ATOM      1  CA  VAL B 303      12.244   3.821  30.883  1.00 37.13 LIG 0.18  C 
ENDROOT
BRANCH 1 2
ATOM      2  N   VAL B 303      11.801   3.380  32.200  1.00 37.20 LIG-0.35  N 
ATOM      3  C   SER B 302      11.611   2.096  32.482  1.00 37.39 LIG 0.24  C 
ATOM      4 O    SER B 302      11.779   1.196  31.654  1.00 37.76 LIG-0.27  OA
ATOM      5 H    VAL B 303      11.677   4.018  32.764  1.00 37.20 LIG 0.16  HD
BRANCH 3 6
ATOM      6  CA  SER B 302      11.158   1.780  33.903  1.00 37.09 LIG 0.20  C 
BRANCH 6 7
ATOM      7  N   SER B 302      11.521   2.858  34.813  1.00 36.48 LIG-0.34  N 
ATOM      8 H    SER B 302      10.924   3.471  34.894  1.00 36.48 LIG 0.16  HD
ATOM      9  C   ALA B 301      12.687   2.868  35.452  1.00 36.26 LIG 0.26  C 
ATOM     10 O    ALA B 301      13.525   1.976  35.327  1.00 35.88 LIG-0.27  OA
BRANCH 9 11
ATOM     11  CA  ALA B 301      12.946   4.060  36.369  1.00 36.43 LIG 0.40  C 
ATOM     12  CB  ALA B 301      11.635   4.781  36.670  1.00 36.70 LIG 0.06  C 
ATOM     13  N   ALA B 301      13.914   5.011  35.748  1.00 36.51 LIG 0.61  N 
ENDBRANCH 9 11
ENDBRANCH 6 7
BRANCH 6 14
ATOM     14  CB  SER B 302       9.642   1.555  33.917  1.00 37.65 LIG 0.20  C 
BRANCH 14 15
ATOM     15 OG   SER B 302       8.950   2.761  34.182  1.00 38.63 LIG-0.40  OA
ATOM     16 HG   SER B 302       9.398   3.411  33.895  1.00 38.63 LIG 0.21  HD
ENDBRANCH 14 15
ENDBRANCH 6 14
ENDBRANCH 3 6
ENDBRANCH 1 2
BRANCH 1 17
ATOM     17  CB  VAL B 303      12.266   5.368  30.776  1.00 37.28 LIG 0.01  C 
ATOM     18  CG1 VAL B 303      13.454   5.923  31.539  1.00 36.92 LIG 0.01  C 
ATOM     19  CG2 VAL B 303      12.329   5.791  29.315  1.00 37.06 LIG 0.01  C 
ENDBRANCH 1 17
BRANCH 1 20
ATOM     20  C   VAL B 303      13.646   3.292  30.616  1.00 37.27 LIG 0.24  C 
ATOM     21 O    VAL B 303      14.061   3.160  29.463  1.00 36.92 LIG-0.27  OA
ATOM     22  N   SER B 304      14.380   3.000  31.684  1.00 37.37 LIG-0.34  N 
ATOM     23 H    SER B 304      14.112   3.098  32.495  1.00 37.37 LIG 0.16  HD
BRANCH 22 24
ATOM     24  CA  SER B 304      15.734   2.475  31.554  1.00 37.74 LIG 0.20  C 
BRANCH 24 25
ATOM     25  CB  SER B 304      16.634   3.496  30.855  1.00 37.88 LIG 0.20  C 
BRANCH 25 26
ATOM     26 OG   SER B 304      17.986   3.066  30.863  1.00 38.36 LIG-0.40  OA
ATOM     27 HG   SER B 304      18.083   2.455  31.432  1.00 38.36 LIG 0.21  HD
ENDBRANCH 25 26
ENDBRANCH 24 25
BRANCH 24 28
ATOM     28  C   SER B 304      16.285   2.158  32.941  1.00 37.93 LIG 0.24  C 
ATOM     29 O    SER B 304      15.801   2.686  33.943  1.00 38.21 LIG-0.27  OA
ATOM     30  N   ALA B 305      17.295   1.296  32.997  1.00 38.06 LIG-0.35  N 
ATOM     31 H    ALA B 305      17.645   0.921  32.307  1.00 38.06 LIG 0.16  HD
BRANCH 30 32
ATOM     32  CA  ALA B 305      17.900   0.912  34.267  1.00 38.30 LIG 0.16  C 
ATOM     33  CB  ALA B 305      18.293  -0.564  34.225  1.00 38.13 LIG 0.04  C 
BRANCH 32 34
ATOM     34  C   ALA B 305      19.123   1.766  34.581  1.00 38.47 LIG 0.22  C 
ATOM     35 O    ALA B 305      19.396   2.707  33.807  1.00 38.58 LIG-0.29  OA
ENDBRANCH 32 34
ENDBRANCH 30 32
ENDBRANCH 24 28
ENDBRANCH 22 24
ENDBRANCH 1 20
TORSDOF 14
ENDMDL
MODEL 48
USER: ADFR SOLUTION from run 191
USER: SCORE 9.165949 LL:  -1.678 LR:  -9.631 RR:   0.000 FEB:  -5.454
USER: RMSD 5.756351
USER: SEED 190
USER: STATUS no improvement in best in 24 clusters for 5 generations
USER: GENES 16
USER: genes 0 Translation |==|  0.66232 0.57625 0.38501
USER: genes 1 Rotation |==|  0.56109 0.82089 0.52864 0.87747
USER: genes 2 Torsion [CB]-CA--N-[C] |==|  0.36830
USER: genes 3 Torsion [N]-C--CA-[N] |==|  0.11390
USER: genes 4 Torsion [C]-CA--N-[C] |==|  0.15338
USER: genes 5 Torsion [N]-C--CA-[N] |==|  0.94553
USER: genes 6 Torsion [C]-CA--CB-[OG] |==|  0.24652
USER: genes 7 Torsion [CA]-CB--OG-[HG] |==|  0.57227
USER: genes 8 Torsion [N]-CA--CB-[CG1] |==|  0.66049
USER: genes 9 Torsion [N]-CA--C-[N] |==|  0.88711
USER: genes 10 Torsion [C]-N--CA-[CB] |==|  0.86648
USER: genes 11 Torsion [N]-CA--CB-[OG] |==|  0.84133
USER: genes 12 Torsion [CA]-CB--OG-[HG] |==|  0.76712
USER: genes 13 Torsion [N]-CA--C-[N] |==|  0.46667
USER: genes 14 Torsion [C]-N--CA-[C] |==|  0.17155
USER: genes 15 Torsion [N]-CA--C-[O] |==|  0.05235
ROOT
ATOM      1  CA  VAL B 303      16.362   6.180  31.707  1.00 37.13 LIG 0.18  C 
ENDROOT
BRANCH 1 2
ATOM      2  N   VAL B 303      16.787   5.543  32.947  1.00 37.20 LIG-0.35  N 
ATOM      3  C   SER B 302      17.539   4.447  32.950  1.00 37.39 LIG 0.24  C 
ATOM      4 O    SER B 302      17.912   3.888  31.915  1.00 37.76 LIG-0.27  OA
ATOM      5 H    VAL B 303      16.511   5.936  33.661  1.00 37.20 LIG 0.16  HD
BRANCH 3 6
ATOM      6  CA  SER B 302      17.918   3.896  34.321  1.00 37.09 LIG 0.20  C 
BRANCH 6 7
ATOM      7  N   SER B 302      16.786   3.966  35.236  1.00 36.48 LIG-0.34  N 
ATOM      8 H    SER B 302      16.945   4.390  35.967  1.00 36.48 LIG 0.16  HD
ATOM      9  C   ALA B 301      15.614   3.411  34.940  1.00 36.26 LIG 0.26  C 
ATOM     10 O    ALA B 301      15.405   2.815  33.883  1.00 35.88 LIG-0.27  OA
BRANCH 9 11
ATOM     11  CA  ALA B 301      14.515   3.550  35.989  1.00 36.43 LIG 0.40  C 
ATOM     12  CB  ALA B 301      13.536   4.644  35.576  1.00 36.70 LIG 0.06  C 
ATOM     13  N   ALA B 301      15.093   3.868  37.328  1.00 36.51 LIG 0.61  N 
ENDBRANCH 9 11
ENDBRANCH 6 7
BRANCH 6 14
ATOM     14  CB  SER B 302      18.400   2.450  34.174  1.00 37.65 LIG 0.20  C 
BRANCH 14 15
ATOM     15 OG   SER B 302      19.794   2.400  33.927  1.00 38.63 LIG-0.40  OA
ATOM     16 HG   SER B 302      19.980   1.694  33.511  1.00 38.63 LIG 0.21  HD
ENDBRANCH 14 15
ENDBRANCH 6 14
ENDBRANCH 3 6
ENDBRANCH 1 2
BRANCH 1 17
ATOM     17  CB  VAL B 303      14.847   6.511  31.726  1.00 37.28 LIG 0.01  C 
ATOM     18  CG1 VAL B 303      14.154   5.832  30.560  1.00 36.92 LIG 0.01  C 
ATOM     19  CG2 VAL B 303      14.229   6.064  33.043  1.00 37.06 LIG 0.01  C 
ENDBRANCH 1 17
BRANCH 1 20
ATOM     20  C   VAL B 303      17.142   7.472  31.507  1.00 37.27 LIG 0.24  C 
ATOM     21 O    VAL B 303      17.548   7.795  30.389  1.00 36.92 LIG-0.27  OA
ATOM     22  N   SER B 304      17.341   8.215  32.589  1.00 37.37 LIG-0.34  N 
ATOM     23 H    SER B 304      17.054   8.012  33.373  1.00 37.37 LIG 0.16  HD
BRANCH 22 24
ATOM     24  CA  SER B 304      18.084   9.468  32.524  1.00 37.74 LIG 0.20  C 
BRANCH 24 25
ATOM     25  CB  SER B 304      19.392   9.270  31.754  1.00 37.88 LIG 0.20  C 
BRANCH 25 26
ATOM     26 OG   SER B 304      20.180   8.253  32.349  1.00 38.36 LIG-0.40  OA
ATOM     27 HG   SER B 304      20.626   8.578  32.983  1.00 38.36 LIG 0.21  HD
ENDBRANCH 25 26
ENDBRANCH 24 25
BRANCH 24 28
ATOM     28  C   SER B 304      17.228  10.525  31.834  1.00 37.93 LIG 0.24  C 
ATOM     29 O    SER B 304      16.196  10.207  31.242  1.00 38.21 LIG-0.27  OA
ATOM     30  N   ALA B 305      17.656  11.781  31.912  1.00 38.06 LIG-0.35  N 
ATOM     31 H    ALA B 305      18.375  12.019  32.319  1.00 38.06 LIG 0.16  HD
BRANCH 30 32
ATOM     32  CA  ALA B 305      16.918  12.878  31.297  1.00 38.30 LIG 0.16  C 
ATOM     33  CB  ALA B 305      16.813  12.648  29.790  1.00 38.13 LIG 0.04  C 
BRANCH 32 34
ATOM     34  C   ALA B 305      15.524  13.017  31.899  1.00 38.47 LIG 0.22  C 
ATOM     35 O    ALA B 305      15.310  12.489  33.011  1.00 38.58 LIG-0.29  OA
ENDBRANCH 32 34
ENDBRANCH 30 32
ENDBRANCH 24 28
ENDBRANCH 22 24
ENDBRANCH 1 20
TORSDOF 14
ENDMDL
MODEL 49
USER: ADFR SOLUTION from run 144
USER: SCORE 10.047619 LL:  -1.880 LR:  -9.608 RR:   0.000 FEB:  -5.432
USER: RMSD 5.177052
USER: SEED 143
USER: STATUS no improvement in best in 32 clusters for 5 generations
USER: GENES 16
USER: genes 0 Translation |==|  0.69274 0.58313 0.51936
USER: genes 1 Rotation |==|  0.19050 0.25089 0.69731 0.73069
USER: genes 2 Torsion [CB]-CA--N-[C] |==|  0.49576
USER: genes 3 Torsion [N]-C--CA-[N] |==|  0.37760
USER: genes 4 Torsion [C]-CA--N-[C] |==|  0.77237
USER: genes 5 Torsion [N]-C--CA-[N] |==|  0.17310
USER: genes 6 Torsion [C]-CA--CB-[OG] |==|  0.69172
USER: genes 7 Torsion [CA]-CB--OG-[HG] |==|  0.91886
USER: genes 8 Torsion [N]-CA--CB-[CG1] |==|  0.12005
USER: genes 9 Torsion [N]-CA--C-[N] |==|  0.37324
USER: genes 10 Torsion [C]-N--CA-[CB] |==|  0.48937
USER: genes 11 Torsion [N]-CA--CB-[OG] |==|  0.97534
USER: genes 12 Torsion [CA]-CB--OG-[HG] |==|  0.90320
USER: genes 13 Torsion [N]-CA--C-[N] |==|  0.48333
USER: genes 14 Torsion [C]-N--CA-[C] |==|  0.84020
USER: genes 15 Torsion [N]-CA--C-[O] |==|  0.25669
ROOT
ATOM      1  CA  VAL B 303      16.978   6.319  33.722  1.00 37.13 LIG 0.18  C 
ENDROOT
BRANCH 1 2
ATOM      2  N   VAL B 303      16.033   5.216  33.837  1.00 37.20 LIG-0.35  N 
ATOM      3  C   SER B 302      14.721   5.404  33.733  1.00 37.39 LIG 0.24  C 
ATOM      4 O    SER B 302      14.215   6.514  33.551  1.00 37.76 LIG-0.27  OA
ATOM      5 H    VAL B 303      16.397   4.450  33.976  1.00 37.20 LIG 0.16  HD
BRANCH 3 6
ATOM      6  CA  SER B 302      13.852   4.157  33.863  1.00 37.09 LIG 0.20  C 
BRANCH 6 7
ATOM      7  N   SER B 302      12.700   4.417  34.717  1.00 36.48 LIG-0.34  N 
ATOM      8 H    SER B 302      11.976   4.598  34.290  1.00 36.48 LIG 0.16  HD
ATOM      9  C   ALA B 301      12.790   4.372  36.042  1.00 36.26 LIG 0.26  C 
ATOM     10 O    ALA B 301      13.837   4.103  36.632  1.00 35.88 LIG-0.27  OA
BRANCH 9 11
ATOM     11  CA  ALA B 301      11.511   4.673  36.818  1.00 36.43 LIG 0.40  C 
ATOM     12  CB  ALA B 301      11.800   4.677  38.316  1.00 36.70 LIG 0.06  C 
ATOM     13  N   ALA B 301      10.452   3.667  36.511  1.00 36.51 LIG 0.61  N 
ENDBRANCH 9 11
ENDBRANCH 6 7
BRANCH 6 14
ATOM     14  CB  SER B 302      13.397   3.705  32.472  1.00 37.65 LIG 0.20  C 
BRANCH 14 15
ATOM     15 OG   SER B 302      12.006   3.904  32.301  1.00 38.63 LIG-0.40  OA
ATOM     16 HG   SER B 302      11.620   3.845  33.045  1.00 38.63 LIG 0.21  HD
ENDBRANCH 14 15
ENDBRANCH 6 14
ENDBRANCH 3 6
ENDBRANCH 1 2
BRANCH 1 17
ATOM     17  CB  VAL B 303      18.440   5.841  33.919  1.00 37.28 LIG 0.01  C 
ATOM     18  CG1 VAL B 303      18.667   4.544  33.166  1.00 36.92 LIG 0.01  C 
ATOM     19  CG2 VAL B 303      19.411   6.911  33.438  1.00 37.06 LIG 0.01  C 
ENDBRANCH 1 17
BRANCH 1 20
ATOM     20  C   VAL B 303      16.853   6.954  32.344  1.00 37.27 LIG 0.24  C 
ATOM     21 O    VAL B 303      16.784   6.253  31.332  1.00 36.92 LIG-0.27  OA
ATOM     22  N   SER B 304      16.812   8.280  32.306  1.00 37.37 LIG-0.34  N 
ATOM     23 H    SER B 304      16.846   8.784  33.003  1.00 37.37 LIG 0.16  HD
BRANCH 22 24
ATOM     24  CA  SER B 304      16.705   9.001  31.044  1.00 37.74 LIG 0.20  C 
BRANCH 24 25
ATOM     25  CB  SER B 304      16.584  10.505  31.300  1.00 37.88 LIG 0.20  C 
BRANCH 25 26
ATOM     26 OG   SER B 304      16.404  10.770  32.682  1.00 38.36 LIG-0.40  OA
ATOM     27 HG   SER B 304      15.944  10.157  33.027  1.00 38.36 LIG 0.21  HD
ENDBRANCH 25 26
ENDBRANCH 24 25
BRANCH 24 28
ATOM     28  C   SER B 304      17.940   8.716  30.195  1.00 37.93 LIG 0.24  C 
ATOM     29 O    SER B 304      18.878   8.062  30.654  1.00 38.21 LIG-0.27  OA
ATOM     30  N   ALA B 305      17.938   9.203  28.959  1.00 38.06 LIG-0.35  N 
ATOM     31 H    ALA B 305      17.292   9.663  28.625  1.00 38.06 LIG 0.16  HD
BRANCH 30 32
ATOM     32  CA  ALA B 305      19.060   8.989  28.053  1.00 38.30 LIG 0.16  C 
ATOM     33  CB  ALA B 305      18.781   9.673  26.715  1.00 38.13 LIG 0.04  C 
BRANCH 32 34
ATOM     34  C   ALA B 305      20.361   9.518  28.645  1.00 38.47 LIG 0.22  C 
ATOM     35 O    ALA B 305      21.073   8.727  29.299  1.00 38.58 LIG-0.29  OA
ENDBRANCH 32 34
ENDBRANCH 30 32
ENDBRANCH 24 28
ENDBRANCH 22 24
ENDBRANCH 1 20
TORSDOF 14
ENDMDL
MODEL 50
USER: ADFR SOLUTION from run 159
USER: SCORE 9.917201 LL:  -2.123 LR:  -9.606 RR:   0.000 FEB:  -5.430
USER: RMSD 5.388178
USER: SEED 158
USER: STATUS no improvement in best in 47 clusters for 5 generations
USER: GENES 16
USER: genes 0 Translation |==|  0.62969 0.61102 0.45002
USER: genes 1 Rotation |==|  0.17927 0.15460 0.50962 0.66654
USER: genes 2 Torsion [CB]-CA--N-[C] |==|  0.26111
USER: genes 3 Torsion [N]-C--CA-[N] |==|  0.22141
USER: genes 4 Torsion [C]-CA--N-[C] |==|  0.79062
USER: genes 5 Torsion [N]-C--CA-[N] |==|  0.67770
USER: genes 6 Torsion [C]-CA--CB-[OG] |==|  0.77295
USER: genes 7 Torsion [CA]-CB--OG-[HG] |==|  0.21439
USER: genes 8 Torsion [N]-CA--CB-[CG1] |==|  0.75169
USER: genes 9 Torsion [N]-CA--C-[N] |==|  0.52672
USER: genes 10 Torsion [C]-N--CA-[CB] |==|  0.87093
USER: genes 11 Torsion [N]-CA--CB-[OG] |==|  0.88558
USER: genes 12 Torsion [CA]-CB--OG-[HG] |==|  0.13124
USER: genes 13 Torsion [N]-CA--C-[N] |==|  0.36780
USER: genes 14 Torsion [C]-N--CA-[C] |==|  0.17913
USER: genes 15 Torsion [N]-CA--C-[O] |==|  0.00946
ROOT
ATOM      1  CA  VAL B 303      15.701   6.884  32.682  1.00 37.13 LIG 0.18  C 
ENDROOT
BRANCH 1 2
ATOM      2  N   VAL B 303      15.089   5.967  31.730  1.00 37.20 LIG-0.35  N 
ATOM      3  C   SER B 302      13.884   5.445  31.934  1.00 37.39 LIG 0.24  C 
ATOM      4 O    SER B 302      13.213   5.684  32.942  1.00 37.76 LIG-0.27  OA
ATOM      5 H    VAL B 303      15.572   5.800  31.038  1.00 37.20 LIG 0.16  HD
BRANCH 3 6
ATOM      6  CA  SER B 302      13.364   4.510  30.848  1.00 37.09 LIG 0.20  C 
BRANCH 6 7
ATOM      7  N   SER B 302      13.951   3.183  30.984  1.00 36.48 LIG-0.34  N 
ATOM      8 H    SER B 302      13.420   2.591  31.311  1.00 36.48 LIG 0.16  HD
ATOM      9  C   ALA B 301      15.206   2.936  30.623  1.00 36.26 LIG 0.26  C 
ATOM     10 O    ALA B 301      15.948   3.797  30.149  1.00 35.88 LIG-0.27  OA
BRANCH 9 11
ATOM     11  CA  ALA B 301      15.700   1.507  30.826  1.00 36.43 LIG 0.40  C 
ATOM     12  CB  ALA B 301      14.550   0.620  31.293  1.00 36.70 LIG 0.06  C 
ATOM     13  N   ALA B 301      16.809   1.462  31.824  1.00 36.51 LIG 0.61  N 
ENDBRANCH 9 11
ENDBRANCH 6 7
BRANCH 6 14
ATOM     14  CB  SER B 302      11.836   4.431  30.931  1.00 37.65 LIG 0.20  C 
BRANCH 14 15
ATOM     15 OG   SER B 302      11.427   3.514  31.930  1.00 38.63 LIG-0.40  OA
ATOM     16 HG   SER B 302      11.513   3.867  32.687  1.00 38.63 LIG 0.21  HD
ENDBRANCH 14 15
ENDBRANCH 6 14
ENDBRANCH 3 6
ENDBRANCH 1 2
BRANCH 1 17
ATOM     17  CB  VAL B 303      16.620   6.138  33.683  1.00 37.28 LIG 0.01  C 
ATOM     18  CG1 VAL B 303      15.820   5.696  34.894  1.00 36.92 LIG 0.01  C 
ATOM     19  CG2 VAL B 303      17.265   4.935  33.007  1.00 37.06 LIG 0.01  C 
ENDBRANCH 1 17
BRANCH 1 20
ATOM     20  C   VAL B 303      16.532   7.916  31.932  1.00 37.27 LIG 0.24  C 
ATOM     21 O    VAL B 303      16.463   8.008  30.705  1.00 36.92 LIG-0.27  OA
ATOM     22  N   SER B 304      17.309   8.699  32.671  1.00 37.37 LIG-0.34  N 
ATOM     23 H    SER B 304      17.360   8.657  33.528  1.00 37.37 LIG 0.16  HD
BRANCH 22 24
ATOM     24  CA  SER B 304      18.159   9.716  32.064  1.00 37.74 LIG 0.20  C 
BRANCH 24 25
ATOM     25  CB  SER B 304      18.915   9.133  30.868  1.00 37.88 LIG 0.20  C 
BRANCH 25 26
ATOM     26 OG   SER B 304      19.382   7.825  31.155  1.00 38.36 LIG-0.40  OA
ATOM     27 HG   SER B 304      18.761   7.374  31.498  1.00 38.36 LIG 0.21  HD
ENDBRANCH 25 26
ENDBRANCH 24 25
BRANCH 24 28
ATOM     28  C   SER B 304      17.294  10.889  31.612  1.00 37.93 LIG 0.24  C 
ATOM     29 O    SER B 304      16.262  10.695  30.969  1.00 38.21 LIG-0.27  OA
ATOM     30  N   ALA B 305      17.716  12.103  31.949  1.00 38.06 LIG-0.35  N 
ATOM     31 H    ALA B 305      18.435  12.256  32.395  1.00 38.06 LIG 0.16  HD
BRANCH 30 32
ATOM     32  CA  ALA B 305      16.970  13.300  31.578  1.00 38.30 LIG 0.16  C 
ATOM     33  CB  ALA B 305      16.802  13.353  30.060  1.00 38.13 LIG 0.04  C 
BRANCH 32 34
ATOM     34  C   ALA B 305      15.603  13.334  32.253  1.00 38.47 LIG 0.22  C 
ATOM     35 O    ALA B 305      15.322  12.420  33.055  1.00 38.58 LIG-0.29  OA
ENDBRANCH 32 34
ENDBRANCH 30 32
ENDBRANCH 24 28
ENDBRANCH 22 24
ENDBRANCH 1 20
TORSDOF 14
ENDMDL
MODEL 51
USER: ADFR SOLUTION from run 144
USER: SCORE 10.160632 LL:  -1.980 LR:  -9.604 RR:   0.000 FEB:  -5.428
USER: RMSD 5.007942
USER: SEED 143
USER: STATUS no improvement in best in 32 clusters for 5 generations
USER: GENES 16
USER: genes 0 Translation |==|  0.65271 0.57400 0.62012
USER: genes 1 Rotation |==|  0.11952 0.26643 0.71645 0.56191
USER: genes 2 Torsion [CB]-CA--N-[C] |==|  0.51186
USER: genes 3 Torsion [N]-C--CA-[N] |==|  0.31338
USER: genes 4 Torsion [C]-CA--N-[C] |==|  0.72240
USER: genes 5 Torsion [N]-C--CA-[N] |==|  0.43550
USER: genes 6 Torsion [C]-CA--CB-[OG] |==|  0.71364
USER: genes 7 Torsion [CA]-CB--OG-[HG] |==|  0.10653
USER: genes 8 Torsion [N]-CA--CB-[CG1] |==|  0.33100
USER: genes 9 Torsion [N]-CA--C-[N] |==|  0.39042
USER: genes 10 Torsion [C]-N--CA-[CB] |==|  0.18793
USER: genes 11 Torsion [N]-CA--CB-[OG] |==|  0.07189
USER: genes 12 Torsion [CA]-CB--OG-[HG] |==|  0.08194
USER: genes 13 Torsion [N]-CA--C-[N] |==|  0.96122
USER: genes 14 Torsion [C]-N--CA-[C] |==|  0.53633
USER: genes 15 Torsion [N]-CA--C-[O] |==|  0.68627
ROOT
ATOM      1  CA  VAL B 303      16.167   6.134  35.234  1.00 37.13 LIG 0.18  C 
ENDROOT
BRANCH 1 2
ATOM      2  N   VAL B 303      15.250   5.094  35.680  1.00 37.20 LIG-0.35  N 
ATOM      3  C   SER B 302      14.132   4.814  35.018  1.00 37.39 LIG 0.24  C 
ATOM      4 O    SER B 302      13.787   5.420  34.000  1.00 37.76 LIG-0.27  OA
ATOM      5 H    VAL B 303      15.496   4.687  36.397  1.00 37.20 LIG 0.16  HD
BRANCH 3 6
ATOM      6  CA  SER B 302      13.273   3.693  35.594  1.00 37.09 LIG 0.20  C 
BRANCH 6 7
ATOM      7  N   SER B 302      12.010   4.217  36.097  1.00 36.48 LIG-0.34  N 
ATOM      8 H    SER B 302      11.417   4.360  35.490  1.00 36.48 LIG 0.16  HD
ATOM      9  C   ALA B 301      11.816   4.447  37.392  1.00 36.26 LIG 0.26  C 
ATOM     10 O    ALA B 301      12.675   4.228  38.245  1.00 35.88 LIG-0.27  OA
BRANCH 9 11
ATOM     11  CA  ALA B 301      10.450   5.004  37.784  1.00 36.43 LIG 0.40  C 
ATOM     12  CB  ALA B 301      10.418   6.512  37.557  1.00 36.70 LIG 0.06  C 
ATOM     13  N   ALA B 301      10.141   4.702  39.212  1.00 36.51 LIG 0.61  N 
ENDBRANCH 9 11
ENDBRANCH 6 7
BRANCH 6 14
ATOM     14  CB  SER B 302      13.023   2.636  34.514  1.00 37.65 LIG 0.20  C 
BRANCH 14 15
ATOM     15 OG   SER B 302      11.716   2.749  33.982  1.00 38.63 LIG-0.40  OA
ATOM     16 HG   SER B 302      11.511   3.561  33.913  1.00 38.63 LIG 0.21  HD
ENDBRANCH 14 15
ENDBRANCH 6 14
ENDBRANCH 3 6
ENDBRANCH 1 2
BRANCH 1 17
ATOM     17  CB  VAL B 303      17.441   6.189  36.116  1.00 37.28 LIG 0.01  C 
ATOM     18  CG1 VAL B 303      18.670   5.915  35.271  1.00 36.92 LIG 0.01  C 
ATOM     19  CG2 VAL B 303      17.554   7.550  36.790  1.00 37.06 LIG 0.01  C 
ENDBRANCH 1 17
BRANCH 1 20
ATOM     20  C   VAL B 303      16.581   5.863  33.794  1.00 37.27 LIG 0.24  C 
ATOM     21 O    VAL B 303      16.797   4.713  33.407  1.00 36.92 LIG-0.27  OA
ATOM     22  N   SER B 304      16.682   6.922  32.999  1.00 37.37 LIG-0.34  N 
ATOM     23 H    SER B 304      16.523   7.729  33.249  1.00 37.37 LIG 0.16  HD
BRANCH 22 24
ATOM     24  CA  SER B 304      17.081   6.788  31.604  1.00 37.74 LIG 0.20  C 
BRANCH 24 25
ATOM     25  CB  SER B 304      15.998   6.057  30.808  1.00 37.88 LIG 0.20  C 
BRANCH 25 26
ATOM     26 OG   SER B 304      14.726   6.227  31.413  1.00 38.36 LIG-0.40  OA
ATOM     27 HG   SER B 304      14.702   6.965  31.813  1.00 38.36 LIG 0.21  HD
ENDBRANCH 25 26
ENDBRANCH 24 25
BRANCH 24 28
ATOM     28  C   SER B 304      17.315   8.176  31.012  1.00 37.93 LIG 0.24  C 
ATOM     29 O    SER B 304      17.898   8.307  29.936  1.00 38.21 LIG-0.27  OA
ATOM     30  N   ALA B 305      16.857   9.206  31.715  1.00 38.06 LIG-0.35  N 
ATOM     31 H    ALA B 305      16.450   9.131  32.469  1.00 38.06 LIG 0.16  HD
BRANCH 30 32
ATOM     32  CA  ALA B 305      17.016  10.578  31.248  1.00 38.30 LIG 0.16  C 
ATOM     33  CB  ALA B 305      16.099  10.825  30.051  1.00 38.13 LIG 0.04  C 
BRANCH 32 34
ATOM     34  C   ALA B 305      16.707  11.581  32.353  1.00 38.47 LIG 0.22  C 
ATOM     35 O    ALA B 305      15.699  12.306  32.223  1.00 38.58 LIG-0.29  OA
ENDBRANCH 32 34
ENDBRANCH 30 32
ENDBRANCH 24 28
ENDBRANCH 22 24
ENDBRANCH 1 20
TORSDOF 14
ENDMDL
MODEL 52
USER: ADFR SOLUTION from run 47
USER: SCORE 9.420797 LL:  -1.995 LR:  -9.559 RR:   0.000 FEB:  -5.382
USER: RMSD 8.743955
USER: SEED 46
USER: STATUS no improvement in best in 19 clusters for 5 generations
USER: GENES 16
USER: genes 0 Translation |==|  0.44578 0.40969 0.39113
USER: genes 1 Rotation |==|  0.62420 0.32824 0.05716 0.59471
USER: genes 2 Torsion [CB]-CA--N-[C] |==|  0.13333
USER: genes 3 Torsion [N]-C--CA-[N] |==|  0.17635
USER: genes 4 Torsion [C]-CA--N-[C] |==|  0.78159
USER: genes 5 Torsion [N]-C--CA-[N] |==|  0.53624
USER: genes 6 Torsion [C]-CA--CB-[OG] |==|  0.62581
USER: genes 7 Torsion [CA]-CB--OG-[HG] |==|  0.75624
USER: genes 8 Torsion [N]-CA--CB-[CG1] |==|  0.18156
USER: genes 9 Torsion [N]-CA--C-[N] |==|  0.11235
USER: genes 10 Torsion [C]-N--CA-[CB] |==|  0.39044
USER: genes 11 Torsion [N]-CA--CB-[OG] |==|  0.09925
USER: genes 12 Torsion [CA]-CB--OG-[HG] |==|  0.29627
USER: genes 13 Torsion [N]-CA--C-[N] |==|  0.63753
USER: genes 14 Torsion [C]-N--CA-[C] |==|  0.49910
USER: genes 15 Torsion [N]-CA--C-[O] |==|  0.91495
ROOT
ATOM      1  CA  VAL B 303      11.977   2.807  31.799  1.00 37.13 LIG 0.18  C 
ENDROOT
BRANCH 1 2
ATOM      2  N   VAL B 303      12.571   3.976  32.435  1.00 37.20 LIG-0.35  N 
ATOM      3  C   SER B 302      13.391   4.791  31.779  1.00 37.39 LIG 0.24  C 
ATOM      4 O    SER B 302      13.717   4.608  30.603  1.00 37.76 LIG-0.27  OA
ATOM      5 H    VAL B 303      12.345   4.085  33.258  1.00 37.20 LIG 0.16  HD
BRANCH 3 6
ATOM      6  CA  SER B 302      13.929   5.980  32.567  1.00 37.09 LIG 0.20  C 
BRANCH 6 7
ATOM      7  N   SER B 302      14.753   5.530  33.682  1.00 36.48 LIG-0.34  N 
ATOM      8 H    SER B 302      15.600   5.586  33.543  1.00 36.48 LIG 0.16  HD
ATOM      9  C   ALA B 301      14.213   5.077  34.809  1.00 36.26 LIG 0.26  C 
ATOM     10 O    ALA B 301      12.997   5.014  34.990  1.00 35.88 LIG-0.27  OA
BRANCH 9 11
ATOM     11  CA  ALA B 301      15.188   4.630  35.895  1.00 36.43 LIG 0.40  C 
ATOM     12  CB  ALA B 301      16.289   3.770  35.284  1.00 36.70 LIG 0.06  C 
ATOM     13  N   ALA B 301      14.482   3.863  36.963  1.00 36.51 LIG 0.61  N 
ENDBRANCH 9 11
ENDBRANCH 6 7
BRANCH 6 14
ATOM     14  CB  SER B 302      14.739   6.886  31.634  1.00 37.65 LIG 0.20  C 
BRANCH 14 15
ATOM     15 OG   SER B 302      15.960   7.276  32.235  1.00 38.63 LIG-0.40  OA
ATOM     16 HG   SER B 302      15.839   7.973  32.689  1.00 38.63 LIG 0.21  HD
ENDBRANCH 14 15
ENDBRANCH 6 14
ENDBRANCH 3 6
ENDBRANCH 1 2
BRANCH 1 17
ATOM     17  CB  VAL B 303      13.037   1.972  31.036  1.00 37.28 LIG 0.01  C 
ATOM     18  CG1 VAL B 303      14.036   1.382  32.014  1.00 36.92 LIG 0.01  C 
ATOM     19  CG2 VAL B 303      12.359   0.866  30.239  1.00 37.06 LIG 0.01  C 
ENDBRANCH 1 17
BRANCH 1 20
ATOM     20  C   VAL B 303      11.331   1.926  32.859  1.00 37.27 LIG 0.24  C 
ATOM     21 O    VAL B 303      11.435   0.699  32.806  1.00 36.92 LIG-0.27  OA
ATOM     22  N   SER B 304      10.672   2.552  33.826  1.00 37.37 LIG-0.34  N 
ATOM     23 H    SER B 304      10.600   3.408  33.885  1.00 37.37 LIG 0.16  HD
BRANCH 22 24
ATOM     24  CA  SER B 304      10.002   1.815  34.890  1.00 37.74 LIG 0.20  C 
BRANCH 24 25
ATOM     25  CB  SER B 304      10.186   2.531  36.230  1.00 37.88 LIG 0.20  C 
BRANCH 25 26
ATOM     26 OG   SER B 304      10.175   3.938  36.057  1.00 38.36 LIG-0.40  OA
ATOM     27 HG   SER B 304       9.450   4.250  36.346  1.00 38.36 LIG 0.21  HD
ENDBRANCH 25 26
ENDBRANCH 24 25
BRANCH 24 28
ATOM     28  C   SER B 304       8.516   1.697  34.562  1.00 37.93 LIG 0.24  C 
ATOM     29 O    SER B 304       8.149   1.306  33.454  1.00 38.21 LIG-0.27  OA
ATOM     30  N   ALA B 305       7.666   2.033  35.527  1.00 38.06 LIG-0.35  N 
ATOM     31 H    ALA B 305       7.907   2.310  36.304  1.00 38.06 LIG 0.16  HD
BRANCH 30 32
ATOM     32  CA  ALA B 305       6.223   1.956  35.332  1.00 38.30 LIG 0.16  C 
ATOM     33  CB  ALA B 305       5.830   0.529  34.952  1.00 38.13 LIG 0.04  C 
BRANCH 32 34
ATOM     34  C   ALA B 305       5.469   2.386  36.585  1.00 38.47 LIG 0.22  C 
ATOM     35 O    ALA B 305       6.007   2.181  37.693  1.00 38.58 LIG-0.29  OA
ENDBRANCH 32 34
ENDBRANCH 30 32
ENDBRANCH 24 28
ENDBRANCH 22 24
ENDBRANCH 1 20
TORSDOF 14
ENDMDL
MODEL 53
USER: ADFR SOLUTION from run 181
USER: SCORE 10.027594 LL:  -1.837 LR:  -9.557 RR:   0.000 FEB:  -5.381
USER: RMSD 8.440094
USER: SEED 180
USER: STATUS no improvement in best in 38 clusters for 5 generations
USER: GENES 16
USER: genes 0 Translation |==|  0.55286 0.59259 0.40954
USER: genes 1 Rotation |==|  0.41446 0.42278 0.02143 0.58770
USER: genes 2 Torsion [CB]-CA--N-[C] |==|  0.80835
USER: genes 3 Torsion [N]-C--CA-[N] |==|  0.01058
USER: genes 4 Torsion [C]-CA--N-[C] |==|  0.68072
USER: genes 5 Torsion [N]-C--CA-[N] |==|  0.29680
USER: genes 6 Torsion [C]-CA--CB-[OG] |==|  0.81512
USER: genes 7 Torsion [CA]-CB--OG-[HG] |==|  0.01687
USER: genes 8 Torsion [N]-CA--CB-[CG1] |==|  0.23199
USER: genes 9 Torsion [N]-CA--C-[N] |==|  0.08087
USER: genes 10 Torsion [C]-N--CA-[CB] |==|  0.87778
USER: genes 11 Torsion [N]-CA--CB-[OG] |==|  0.90961
USER: genes 12 Torsion [CA]-CB--OG-[HG] |==|  0.29167
USER: genes 13 Torsion [N]-CA--C-[N] |==|  0.88636
USER: genes 14 Torsion [C]-N--CA-[C] |==|  0.57342
USER: genes 15 Torsion [N]-CA--C-[O] |==|  0.21598
ROOT
ATOM      1  CA  VAL B 303      14.145   6.511  32.075  1.00 37.13 LIG 0.18  C 
ENDROOT
BRANCH 1 2
ATOM      2  N   VAL B 303      15.341   7.343  32.128  1.00 37.20 LIG-0.35  N 
ATOM      3  C   SER B 302      16.561   6.818  32.111  1.00 37.39 LIG 0.24  C 
ATOM      4 O    SER B 302      16.767   5.602  32.068  1.00 37.76 LIG-0.27  OA
ATOM      5 H    VAL B 303      15.184   8.187  32.170  1.00 37.20 LIG 0.16  HD
BRANCH 3 6
ATOM      6  CA  SER B 302      17.720   7.808  32.161  1.00 37.09 LIG 0.20  C 
BRANCH 6 7
ATOM      7  N   SER B 302      17.227   9.172  32.309  1.00 36.48 LIG-0.34  N 
ATOM      8 H    SER B 302      16.824   9.325  33.053  1.00 36.48 LIG 0.16  HD
ATOM      9  C   ALA B 301      17.401  10.083  31.357  1.00 36.26 LIG 0.26  C 
ATOM     10 O    ALA B 301      17.989   9.844  30.302  1.00 35.88 LIG-0.27  OA
BRANCH 9 11
ATOM     11  CA  ALA B 301      16.830  11.470  31.635  1.00 36.43 LIG 0.40  C 
ATOM     12  CB  ALA B 301      16.021  11.951  30.434  1.00 36.70 LIG 0.06  C 
ATOM     13  N   ALA B 301      17.919  12.446  31.933  1.00 36.51 LIG 0.61  N 
ENDBRANCH 9 11
ENDBRANCH 6 7
BRANCH 6 14
ATOM     14  CB  SER B 302      18.652   7.446  33.321  1.00 37.65 LIG 0.20  C 
BRANCH 14 15
ATOM     15 OG   SER B 302      18.009   7.633  34.569  1.00 38.63 LIG-0.40  OA
ATOM     16 HG   SER B 302      17.203   7.832  34.442  1.00 38.63 LIG 0.21  HD
ENDBRANCH 14 15
ENDBRANCH 6 14
ENDBRANCH 3 6
ENDBRANCH 1 2
BRANCH 1 17
ATOM     17  CB  VAL B 303      13.984   5.831  30.691  1.00 37.28 LIG 0.01  C 
ATOM     18  CG1 VAL B 303      14.817   4.565  30.634  1.00 36.92 LIG 0.01  C 
ATOM     19  CG2 VAL B 303      12.518   5.513  30.431  1.00 37.06 LIG 0.01  C 
ENDBRANCH 1 17
BRANCH 1 20
ATOM     20  C   VAL B 303      14.231   5.430  33.143  1.00 37.27 LIG 0.24  C 
ATOM     21 O    VAL B 303      13.684   4.338  32.980  1.00 36.92 LIG-0.27  OA
ATOM     22  N   SER B 304      14.928   5.731  34.233  1.00 37.37 LIG-0.34  N 
ATOM     23 H    SER B 304      15.326   6.483  34.358  1.00 37.37 LIG 0.16  HD
BRANCH 22 24
ATOM     24  CA  SER B 304      15.071   4.781  35.330  1.00 37.74 LIG 0.20  C 
BRANCH 24 25
ATOM     25  CB  SER B 304      13.727   4.117  35.636  1.00 37.88 LIG 0.20  C 
BRANCH 25 26
ATOM     26 OG   SER B 304      12.654   5.011  35.391  1.00 38.36 LIG-0.40  OA
ATOM     27 HG   SER B 304      12.266   4.795  34.678  1.00 38.36 LIG 0.21  HD
ENDBRANCH 25 26
ENDBRANCH 24 25
BRANCH 24 28
ATOM     28  C   SER B 304      16.100   3.722  34.947  1.00 37.93 LIG 0.24  C 
ATOM     29 O    SER B 304      16.920   3.319  35.772  1.00 38.21 LIG-0.27  OA
ATOM     30  N   ALA B 305      16.054   3.273  33.697  1.00 38.06 LIG-0.35  N 
ATOM     31 H    ALA B 305      15.490   3.545  33.109  1.00 38.06 LIG 0.16  HD
BRANCH 30 32
ATOM     32  CA  ALA B 305      16.983   2.256  33.218  1.00 38.30 LIG 0.16  C 
ATOM     33  CB  ALA B 305      16.457   0.866  33.576  1.00 38.13 LIG 0.04  C 
BRANCH 32 34
ATOM     34  C   ALA B 305      17.193   2.360  31.712  1.00 38.47 LIG 0.22  C 
ATOM     35 O    ALA B 305      17.950   3.257  31.285  1.00 38.58 LIG-0.29  OA
ENDBRANCH 32 34
ENDBRANCH 30 32
ENDBRANCH 24 28
ENDBRANCH 22 24
ENDBRANCH 1 20
TORSDOF 14
ENDMDL
MODEL 54
USER: ADFR SOLUTION from run 37
USER: SCORE 9.530719 LL:  -1.804 LR:  -9.546 RR:   0.000 FEB:  -5.370
USER: RMSD 9.215403
USER: SEED 36
USER: STATUS no improvement in best in 33 clusters for 5 generations
USER: GENES 16
USER: genes 0 Translation |==|  0.45286 0.45538 0.41107
USER: genes 1 Rotation |==|  0.52552 0.49477 0.99926 0.50783
USER: genes 2 Torsion [CB]-CA--N-[C] |==|  0.25554
USER: genes 3 Torsion [N]-C--CA-[N] |==|  0.44157
USER: genes 4 Torsion [C]-CA--N-[C] |==|  0.78362
USER: genes 5 Torsion [N]-C--CA-[N] |==|  0.80832
USER: genes 6 Torsion [C]-CA--CB-[OG] |==|  0.91902
USER: genes 7 Torsion [CA]-CB--OG-[HG] |==|  0.58025
USER: genes 8 Torsion [N]-CA--CB-[CG1] |==|  0.75681
USER: genes 9 Torsion [N]-CA--C-[N] |==|  0.21712
USER: genes 10 Torsion [C]-N--CA-[CB] |==|  0.51667
USER: genes 11 Torsion [N]-CA--CB-[OG] |==|  0.23437
USER: genes 12 Torsion [CA]-CB--OG-[HG] |==|  0.56586
USER: genes 13 Torsion [N]-CA--C-[N] |==|  0.40093
USER: genes 14 Torsion [C]-N--CA-[C] |==|  0.18454
USER: genes 15 Torsion [N]-CA--C-[O] |==|  0.09422
ROOT
ATOM      1  CA  VAL B 303      12.120   3.732  32.098  1.00 37.13 LIG 0.18  C 
ENDROOT
BRANCH 1 2
ATOM      2  N   VAL B 303      13.457   3.943  32.640  1.00 37.20 LIG-0.35  N 
ATOM      3  C   SER B 302      13.965   5.160  32.798  1.00 37.39 LIG 0.24  C 
ATOM      4 O    SER B 302      13.356   6.187  32.484  1.00 37.76 LIG-0.27  OA
ATOM      5 H    VAL B 303      13.875   3.219  32.843  1.00 37.20 LIG 0.16  HD
BRANCH 3 6
ATOM      6  CA  SER B 302      15.370   5.231  33.386  1.00 37.09 LIG 0.20  C 
BRANCH 6 7
ATOM      7  N   SER B 302      16.003   6.503  33.063  1.00 36.48 LIG-0.34  N 
ATOM      8 H    SER B 302      16.008   7.071  33.708  1.00 36.48 LIG 0.16  HD
ATOM      9  C   ALA B 301      16.521   6.738  31.862  1.00 36.26 LIG 0.26  C 
ATOM     10 O    ALA B 301      16.510   5.907  30.954  1.00 35.88 LIG-0.27  OA
BRANCH 9 11
ATOM     11  CA  ALA B 301      17.146   8.114  31.652  1.00 36.43 LIG 0.40  C 
ATOM     12  CB  ALA B 301      18.162   8.399  32.754  1.00 36.70 LIG 0.06  C 
ATOM     13  N   ALA B 301      16.101   9.180  31.643  1.00 36.51 LIG 0.61  N 
ENDBRANCH 9 11
ENDBRANCH 6 7
BRANCH 6 14
ATOM     14  CB  SER B 302      15.298   5.038  34.904  1.00 37.65 LIG 0.20  C 
BRANCH 14 15
ATOM     15 OG   SER B 302      14.063   5.503  35.419  1.00 38.63 LIG-0.40  OA
ATOM     16 HG   SER B 302      14.169   5.761  36.211  1.00 38.63 LIG 0.21  HD
ENDBRANCH 14 15
ENDBRANCH 6 14
ENDBRANCH 3 6
ENDBRANCH 1 2
BRANCH 1 17
ATOM     17  CB  VAL B 303      12.151   3.544  30.559  1.00 37.28 LIG 0.01  C 
ATOM     18  CG1 VAL B 303      12.072   4.893  29.869  1.00 36.92 LIG 0.01  C 
ATOM     19  CG2 VAL B 303      13.421   2.811  30.147  1.00 37.06 LIG 0.01  C 
ENDBRANCH 1 17
BRANCH 1 20
ATOM     20  C   VAL B 303      11.506   2.491  32.730  1.00 37.27 LIG 0.24  C 
ATOM     21 O    VAL B 303      11.479   1.421  32.119  1.00 36.92 LIG-0.27  OA
ATOM     22  N   SER B 304      11.022   2.632  33.958  1.00 37.37 LIG-0.34  N 
ATOM     23 H    SER B 304      11.043   3.367  34.404  1.00 37.37 LIG 0.16  HD
BRANCH 22 24
ATOM     24  CA  SER B 304      10.399   1.517  34.662  1.00 37.74 LIG 0.20  C 
BRANCH 24 25
ATOM     25  CB  SER B 304       9.801   1.993  35.988  1.00 37.88 LIG 0.20  C 
BRANCH 25 26
ATOM     26 OG   SER B 304       8.502   2.527  35.793  1.00 38.36 LIG-0.40  OA
ATOM     27 HG   SER B 304       8.320   3.059  36.418  1.00 38.36 LIG 0.21  HD
ENDBRANCH 25 26
ENDBRANCH 24 25
BRANCH 24 28
ATOM     28  C   SER B 304       9.306   0.916  33.784  1.00 37.93 LIG 0.24  C 
ATOM     29 O    SER B 304       8.620   1.636  33.057  1.00 38.21 LIG-0.27  OA
ATOM     30  N   ALA B 305       9.147  -0.402  33.851  1.00 38.06 LIG-0.35  N 
ATOM     31 H    ALA B 305       9.616  -0.917  34.354  1.00 38.06 LIG 0.16  HD
BRANCH 30 32
ATOM     32  CA  ALA B 305       8.138  -1.089  33.053  1.00 38.30 LIG 0.16  C 
ATOM     33  CB  ALA B 305       6.763  -0.482  33.325  1.00 38.13 LIG 0.04  C 
BRANCH 32 34
ATOM     34  C   ALA B 305       8.457  -1.009  31.564  1.00 38.47 LIG 0.22  C 
ATOM     35 O    ALA B 305       9.657  -1.017  31.220  1.00 38.58 LIG-0.29  OA
ENDBRANCH 32 34
ENDBRANCH 30 32
ENDBRANCH 24 28
ENDBRANCH 22 24
ENDBRANCH 1 20
TORSDOF 14
ENDMDL
MODEL 55
USER: ADFR SOLUTION from run 164
USER: SCORE 9.994426 LL:  -2.516 LR:  -9.537 RR:   0.000 FEB:  -5.361
USER: RMSD 4.453700
USER: SEED 163
USER: STATUS no improvement in best in 18 clusters for 5 generations
USER: GENES 16
USER: genes 0 Translation |==|  0.47321 0.43361 0.32621
USER: genes 1 Rotation |==|  0.69189 0.66214 0.33193 0.89830
USER: genes 2 Torsion [CB]-CA--N-[C] |==|  0.42419
USER: genes 3 Torsion [N]-C--CA-[N] |==|  0.95080
USER: genes 4 Torsion [C]-CA--N-[C] |==|  0.76111
USER: genes 5 Torsion [N]-C--CA-[N] |==|  0.13097
USER: genes 6 Torsion [C]-CA--CB-[OG] |==|  0.62865
USER: genes 7 Torsion [CA]-CB--OG-[HG] |==|  0.83247
USER: genes 8 Torsion [N]-CA--CB-[CG1] |==|  0.18738
USER: genes 9 Torsion [N]-CA--C-[N] |==|  0.12689
USER: genes 10 Torsion [C]-N--CA-[CB] |==|  0.87682
USER: genes 11 Torsion [N]-CA--CB-[OG] |==|  0.40388
USER: genes 12 Torsion [CA]-CB--OG-[HG] |==|  0.16448
USER: genes 13 Torsion [N]-CA--C-[N] |==|  0.88461
USER: genes 14 Torsion [C]-N--CA-[C] |==|  0.65290
USER: genes 15 Torsion [N]-CA--C-[O] |==|  0.96868
ROOT
ATOM      1  CA  VAL B 303      12.533   3.292  30.825  1.00 37.13 LIG 0.18  C 
ENDROOT
BRANCH 1 2
ATOM      2  N   VAL B 303      11.785   2.972  32.034  1.00 37.20 LIG-0.35  N 
ATOM      3  C   SER B 302      11.477   1.721  32.359  1.00 37.39 LIG 0.24  C 
ATOM      4 O    SER B 302      11.785   0.752  31.658  1.00 37.76 LIG-0.27  OA
ATOM      5 H    VAL B 303      11.566   3.657  32.508  1.00 37.20 LIG 0.16  HD
BRANCH 3 6
ATOM      6  CA  SER B 302      10.701   1.535  33.658  1.00 37.09 LIG 0.20  C 
BRANCH 6 7
ATOM      7  N   SER B 302      10.805   2.722  34.496  1.00 36.48 LIG-0.34  N 
ATOM      8 H    SER B 302      10.160   3.283  34.400  1.00 36.48 LIG 0.16  HD
ATOM      9  C   ALA B 301      11.823   2.898  35.333  1.00 36.26 LIG 0.26  C 
ATOM     10 O    ALA B 301      12.732   2.078  35.461  1.00 35.88 LIG-0.27  OA
BRANCH 9 11
ATOM     11  CA  ALA B 301      11.815   4.188  36.147  1.00 36.43 LIG 0.40  C 
ATOM     12  CB  ALA B 301      12.874   4.120  37.243  1.00 36.70 LIG 0.06  C 
ATOM     13  N   ALA B 301      10.473   4.428  36.755  1.00 36.51 LIG 0.61  N 
ENDBRANCH 9 11
ENDBRANCH 6 7
BRANCH 6 14
ATOM     14  CB  SER B 302       9.234   1.232  33.337  1.00 37.65 LIG 0.20  C 
BRANCH 14 15
ATOM     15 OG   SER B 302       8.365   2.011  34.139  1.00 38.63 LIG-0.40  OA
ATOM     16 HG   SER B 302       8.500   1.837  34.950  1.00 38.63 LIG 0.21  HD
ENDBRANCH 14 15
ENDBRANCH 6 14
ENDBRANCH 3 6
ENDBRANCH 1 2
BRANCH 1 17
ATOM     17  CB  VAL B 303      12.200   4.714  30.307  1.00 37.28 LIG 0.01  C 
ATOM     18  CG1 VAL B 303      12.714   5.756  31.282  1.00 36.92 LIG 0.01  C 
ATOM     19  CG2 VAL B 303      12.814   4.928  28.930  1.00 37.06 LIG 0.01  C 
ENDBRANCH 1 17
BRANCH 1 20
ATOM     20  C   VAL B 303      14.025   3.214  31.116  1.00 37.27 LIG 0.24  C 
ATOM     21 O    VAL B 303      14.787   4.105  30.736  1.00 36.92 LIG-0.27  OA
ATOM     22  N   SER B 304      14.439   2.154  31.799  1.00 37.37 LIG-0.34  N 
ATOM     23 H    SER B 304      13.920   1.530  32.083  1.00 37.37 LIG 0.16  HD
BRANCH 22 24
ATOM     24  CA  SER B 304      15.847   1.964  32.127  1.00 37.74 LIG 0.20  C 
BRANCH 24 25
ATOM     25  CB  SER B 304      16.722   2.273  30.911  1.00 37.88 LIG 0.20  C 
BRANCH 25 26
ATOM     26 OG   SER B 304      17.950   2.861  31.309  1.00 38.36 LIG-0.40  OA
ATOM     27 HG   SER B 304      18.359   2.336  31.821  1.00 38.36 LIG 0.21  HD
ENDBRANCH 25 26
ENDBRANCH 24 25
BRANCH 24 28
ATOM     28  C   SER B 304      16.222   2.884  33.286  1.00 37.93 LIG 0.24  C 
ATOM     29 O    SER B 304      16.946   2.480  34.196  1.00 38.21 LIG-0.27  OA
ATOM     30  N   ALA B 305      15.730   4.118  33.248  1.00 38.06 LIG-0.35  N 
ATOM     31 H    ALA B 305      15.222   4.414  32.622  1.00 38.06 LIG 0.16  HD
BRANCH 30 32
ATOM     32  CA  ALA B 305      16.025   5.088  34.297  1.00 38.30 LIG 0.16  C 
ATOM     33  CB  ALA B 305      16.879   6.219  33.727  1.00 38.13 LIG 0.04  C 
BRANCH 32 34
ATOM     34  C   ALA B 305      14.747   5.657  34.903  1.00 38.47 LIG 0.22  C 
ATOM     35 O    ALA B 305      13.667   5.420  34.324  1.00 38.58 LIG-0.29  OA
ENDBRANCH 32 34
ENDBRANCH 30 32
ENDBRANCH 24 28
ENDBRANCH 22 24
ENDBRANCH 1 20
TORSDOF 14
ENDMDL
MODEL 56
USER: ADFR SOLUTION from run 55
USER: SCORE 9.758606 LL:  -1.957 LR:  -9.526 RR:   0.000 FEB:  -5.349
USER: RMSD 8.800814
USER: SEED 54
USER: STATUS no improvement in best in 13 clusters for 5 generations
USER: GENES 16
USER: genes 0 Translation |==|  0.50960 0.52988 0.41946
USER: genes 1 Rotation |==|  0.43179 0.60264 0.02008 0.56703
USER: genes 2 Torsion [CB]-CA--N-[C] |==|  0.44853
USER: genes 3 Torsion [N]-C--CA-[N] |==|  0.45927
USER: genes 4 Torsion [C]-CA--N-[C] |==|  0.53675
USER: genes 5 Torsion [N]-C--CA-[N] |==|  0.17928
USER: genes 6 Torsion [C]-CA--CB-[OG] |==|  0.36401
USER: genes 7 Torsion [CA]-CB--OG-[HG] |==|  0.18870
USER: genes 8 Torsion [N]-CA--CB-[CG1] |==|  0.17906
USER: genes 9 Torsion [N]-CA--C-[N] |==|  0.41511
USER: genes 10 Torsion [C]-N--CA-[CB] |==|  0.53333
USER: genes 11 Torsion [N]-CA--CB-[OG] |==|  0.86691
USER: genes 12 Torsion [CA]-CB--OG-[HG] |==|  0.07394
USER: genes 13 Torsion [N]-CA--C-[N] |==|  0.38785
USER: genes 14 Torsion [C]-N--CA-[C] |==|  0.85684
USER: genes 15 Torsion [N]-CA--C-[O] |==|  0.49801
ROOT
ATOM      1  CA  VAL B 303      13.269   5.241  32.224  1.00 37.13 LIG 0.18  C 
ENDROOT
BRANCH 1 2
ATOM      2  N   VAL B 303      14.603   5.631  32.664  1.00 37.20 LIG-0.35  N 
ATOM      3  C   SER B 302      14.919   5.713  33.952  1.00 37.39 LIG 0.24  C 
ATOM      4 O    SER B 302      14.112   5.484  34.857  1.00 37.76 LIG-0.27  OA
ATOM      5 H    VAL B 303      15.153   5.799  32.024  1.00 37.20 LIG 0.16  HD
BRANCH 3 6
ATOM      6  CA  SER B 302      16.355   6.122  34.266  1.00 37.09 LIG 0.20  C 
BRANCH 6 7
ATOM      7  N   SER B 302      16.487   6.509  35.665  1.00 36.48 LIG-0.34  N 
ATOM      8 H    SER B 302      15.817   6.292  36.159  1.00 36.48 LIG 0.16  HD
ATOM      9  C   ALA B 301      17.565   7.145  36.114  1.00 36.26 LIG 0.26  C 
ATOM     10 O    ALA B 301      18.516   7.440  35.390  1.00 35.88 LIG-0.27  OA
BRANCH 9 11
ATOM     11  CA  ALA B 301      17.573   7.500  37.597  1.00 36.43 LIG 0.40  C 
ATOM     12  CB  ALA B 301      18.795   8.352  37.923  1.00 36.70 LIG 0.06  C 
ATOM     13  N   ALA B 301      17.577   6.268  38.441  1.00 36.51 LIG 0.61  N 
ENDBRANCH 9 11
ENDBRANCH 6 7
BRANCH 6 14
ATOM     14  CB  SER B 302      17.299   4.961  33.940  1.00 37.65 LIG 0.20  C 
BRANCH 14 15
ATOM     15 OG   SER B 302      18.395   5.400  33.157  1.00 38.63 LIG-0.40  OA
ATOM     16 HG   SER B 302      18.886   5.902  33.619  1.00 38.63 LIG 0.21  HD
ENDBRANCH 14 15
ENDBRANCH 6 14
ENDBRANCH 3 6
ENDBRANCH 1 2
BRANCH 1 17
ATOM     17  CB  VAL B 303      13.010   5.655  30.752  1.00 37.28 LIG 0.01  C 
ATOM     18  CG1 VAL B 303      13.950   4.905  29.828  1.00 36.92 LIG 0.01  C 
ATOM     19  CG2 VAL B 303      11.561   5.375  30.376  1.00 37.06 LIG 0.01  C 
ENDBRANCH 1 17
BRANCH 1 20
ATOM     20  C   VAL B 303      13.118   3.731  32.340  1.00 37.27 LIG 0.24  C 
ATOM     21 O    VAL B 303      14.093   2.988  32.211  1.00 36.92 LIG-0.27  OA
ATOM     22  N   SER B 304      11.896   3.278  32.595  1.00 37.37 LIG-0.34  N 
ATOM     23 H    SER B 304      11.207   3.782  32.700  1.00 37.37 LIG 0.16  HD
BRANCH 22 24
ATOM     24  CA  SER B 304      11.624   1.851  32.717  1.00 37.74 LIG 0.20  C 
BRANCH 24 25
ATOM     25  CB  SER B 304      10.116   1.595  32.712  1.00 37.88 LIG 0.20  C 
BRANCH 25 26
ATOM     26 OG   SER B 304       9.452   2.469  33.609  1.00 38.36 LIG-0.40  OA
ATOM     27 HG   SER B 304       9.902   3.173  33.699  1.00 38.36 LIG 0.21  HD
ENDBRANCH 25 26
ENDBRANCH 24 25
BRANCH 24 28
ATOM     28  C   SER B 304      12.282   1.113  31.554  1.00 37.93 LIG 0.24  C 
ATOM     29 O    SER B 304      12.262   1.589  30.419  1.00 38.21 LIG-0.27  OA
ATOM     30  N   ALA B 305      12.864  -0.047  31.840  1.00 38.06 LIG-0.35  N 
ATOM     31 H    ALA B 305      12.885  -0.394  32.626  1.00 38.06 LIG 0.16  HD
BRANCH 30 32
ATOM     32  CA  ALA B 305      13.530  -0.839  30.812  1.00 38.30 LIG 0.16  C 
ATOM     33  CB  ALA B 305      13.960  -2.184  31.396  1.00 38.13 LIG 0.04  C 
BRANCH 32 34
ATOM     34  C   ALA B 305      12.623  -1.062  29.608  1.00 38.47 LIG 0.22  C 
ATOM     35 O    ALA B 305      13.075  -1.716  28.645  1.00 38.58 LIG-0.29  OA
ENDBRANCH 32 34
ENDBRANCH 30 32
ENDBRANCH 24 28
ENDBRANCH 22 24
ENDBRANCH 1 20
TORSDOF 14
ENDMDL
MODEL 57
USER: ADFR SOLUTION from run 116
USER: SCORE 8.797071 LL:  -2.008 LR:  -9.512 RR:   0.000 FEB:  -5.336
USER: RMSD 6.349283
USER: SEED 115
USER: STATUS no improvement in best in 40 clusters for 5 generations
USER: GENES 16
USER: genes 0 Translation |==|  0.61330 0.60001 0.41997
USER: genes 1 Rotation |==|  0.78865 0.66847 0.13230 0.55563
USER: genes 2 Torsion [CB]-CA--N-[C] |==|  0.49498
USER: genes 3 Torsion [N]-C--CA-[N] |==|  0.46667
USER: genes 4 Torsion [C]-CA--N-[C] |==|  0.54482
USER: genes 5 Torsion [N]-C--CA-[N] |==|  0.05956
USER: genes 6 Torsion [C]-CA--CB-[OG] |==|  0.41118
USER: genes 7 Torsion [CA]-CB--OG-[HG] |==|  0.88438
USER: genes 8 Torsion [N]-CA--CB-[CG1] |==|  0.23189
USER: genes 9 Torsion [N]-CA--C-[N] |==|  0.94020
USER: genes 10 Torsion [C]-N--CA-[CB] |==|  0.28279
USER: genes 11 Torsion [N]-CA--CB-[OG] |==|  0.08328
USER: genes 12 Torsion [CA]-CB--OG-[HG] |==|  0.34051
USER: genes 13 Torsion [N]-CA--C-[N] |==|  0.39365
USER: genes 14 Torsion [C]-N--CA-[C] |==|  0.60440
USER: genes 15 Torsion [N]-CA--C-[O] |==|  0.84216
ROOT
ATOM      1  CA  VAL B 303      15.369   6.661  32.232  1.00 37.13 LIG 0.18  C 
ENDROOT
BRANCH 1 2
ATOM      2  N   VAL B 303      15.096   6.155  33.571  1.00 37.20 LIG-0.35  N 
ATOM      3  C   SER B 302      13.968   5.515  33.861  1.00 37.39 LIG 0.24  C 
ATOM      4 O    SER B 302      13.075   5.321  33.032  1.00 37.76 LIG-0.27  OA
ATOM      5 H    VAL B 303      15.721   6.307  34.142  1.00 37.20 LIG 0.16  HD
BRANCH 3 6
ATOM      6  CA  SER B 302      13.822   5.031  35.300  1.00 37.09 LIG 0.20  C 
BRANCH 6 7
ATOM      7  N   SER B 302      12.454   4.605  35.565  1.00 36.48 LIG-0.34  N 
ATOM      8 H    SER B 302      11.980   4.471  34.859  1.00 36.48 LIG 0.16  HD
ATOM      9  C   ALA B 301      12.001   4.445  36.804  1.00 36.26 LIG 0.26  C 
ATOM     10 O    ALA B 301      12.698   4.636  37.801  1.00 35.88 LIG-0.27  OA
BRANCH 9 11
ATOM     11  CA  ALA B 301      10.547   4.004  36.942  1.00 36.43 LIG 0.40  C 
ATOM     12  CB  ALA B 301      10.404   3.038  38.115  1.00 36.70 LIG 0.06  C 
ATOM     13  N   ALA B 301      10.066   3.350  35.689  1.00 36.51 LIG 0.61  N 
ENDBRANCH 9 11
ENDBRANCH 6 7
BRANCH 6 14
ATOM     14  CB  SER B 302      14.800   3.880  35.553  1.00 37.65 LIG 0.20  C 
BRANCH 14 15
ATOM     15 OG   SER B 302      15.246   3.876  36.897  1.00 38.63 LIG-0.40  OA
ATOM     16 HG   SER B 302      15.403   4.664  37.143  1.00 38.63 LIG 0.21  HD
ENDBRANCH 14 15
ENDBRANCH 6 14
ENDBRANCH 3 6
ENDBRANCH 1 2
BRANCH 1 17
ATOM     17  CB  VAL B 303      16.728   7.406  32.169  1.00 37.28 LIG 0.01  C 
ATOM     18  CG1 VAL B 303      17.857   6.410  31.979  1.00 36.92 LIG 0.01  C 
ATOM     19  CG2 VAL B 303      16.719   8.420  31.033  1.00 37.06 LIG 0.01  C 
ENDBRANCH 1 17
BRANCH 1 20
ATOM     20  C   VAL B 303      15.402   5.501  31.247  1.00 37.27 LIG 0.24  C 
ATOM     21 O    VAL B 303      15.232   5.692  30.042  1.00 36.92 LIG-0.27  OA
ATOM     22  N   SER B 304      15.632   4.298  31.760  1.00 37.37 LIG-0.34  N 
ATOM     23 H    SER B 304      15.765   4.147  32.596  1.00 37.37 LIG 0.16  HD
BRANCH 22 24
ATOM     24  CA  SER B 304      15.675   3.108  30.918  1.00 37.74 LIG 0.20  C 
BRANCH 24 25
ATOM     25  CB  SER B 304      17.125   2.693  30.660  1.00 37.88 LIG 0.20  C 
BRANCH 25 26
ATOM     26 OG   SER B 304      17.956   3.055  31.750  1.00 38.36 LIG-0.40  OA
ATOM     27 HG   SER B 304      18.339   2.371  32.050  1.00 38.36 LIG 0.21  HD
ENDBRANCH 25 26
ENDBRANCH 24 25
BRANCH 24 28
ATOM     28  C   SER B 304      14.923   1.975  31.609  1.00 37.93 LIG 0.24  C 
ATOM     29 O    SER B 304      15.000   1.825  32.829  1.00 38.21 LIG-0.27  OA
ATOM     30  N   ALA B 305      14.197   1.181  30.830  1.00 38.06 LIG-0.35  N 
ATOM     31 H    ALA B 305      14.135   1.270  29.977  1.00 38.06 LIG 0.16  HD
BRANCH 30 32
ATOM     32  CA  ALA B 305      13.430   0.068  31.378  1.00 38.30 LIG 0.16  C 
ATOM     33  CB  ALA B 305      11.985   0.504  31.615  1.00 38.13 LIG 0.04  C 
BRANCH 32 34
ATOM     34  C   ALA B 305      13.463  -1.140  30.449  1.00 38.47 LIG 0.22  C 
ATOM     35 O    ALA B 305      13.065  -0.989  29.275  1.00 38.58 LIG-0.29  OA
ENDBRANCH 32 34
ENDBRANCH 30 32
ENDBRANCH 24 28
ENDBRANCH 22 24
ENDBRANCH 1 20
TORSDOF 14
ENDMDL
MODEL 58
USER: ADFR SOLUTION from run 4
USER: SCORE 9.804761 LL:  -2.006 LR:  -9.468 RR:   0.000 FEB:  -5.292
USER: RMSD 5.592584
USER: SEED 415467
USER: STATUS no improvement in best in 17 clusters for 5 generations
USER: GENES 16
USER: genes 0 Translation |==|  0.68704 0.59014 0.37658
USER: genes 1 Rotation |==|  0.36226 0.69291 0.55070 0.93731
USER: genes 2 Torsion [CB]-CA--N-[C] |==|  0.22081
USER: genes 3 Torsion [N]-C--CA-[N] |==|  0.35556
USER: genes 4 Torsion [C]-CA--N-[C] |==|  0.84042
USER: genes 5 Torsion [N]-C--CA-[N] |==|  0.31982
USER: genes 6 Torsion [C]-CA--CB-[OG] |==|  0.63140
USER: genes 7 Torsion [CA]-CB--OG-[HG] |==|  0.85475
USER: genes 8 Torsion [N]-CA--CB-[CG1] |==|  0.74099
USER: genes 9 Torsion [N]-CA--C-[N] |==|  0.98138
USER: genes 10 Torsion [C]-N--CA-[CB] |==|  0.52626
USER: genes 11 Torsion [N]-CA--CB-[OG] |==|  0.73003
USER: genes 12 Torsion [CA]-CB--OG-[HG] |==|  0.94080
USER: genes 13 Torsion [N]-CA--C-[N] |==|  0.89040
USER: genes 14 Torsion [C]-N--CA-[C] |==|  0.61414
USER: genes 15 Torsion [N]-CA--C-[O] |==|  0.34928
ROOT
ATOM      1  CA  VAL B 303      16.863   6.461  31.581  1.00 37.13 LIG 0.18  C 
ENDROOT
BRANCH 1 2
ATOM      2  N   VAL B 303      16.517   6.663  32.982  1.00 37.20 LIG-0.35  N 
ATOM      3  C   SER B 302      16.575   5.674  33.867  1.00 37.39 LIG 0.24  C 
ATOM      4 O    SER B 302      16.906   4.523  33.566  1.00 37.76 LIG-0.27  OA
ATOM      5 H    VAL B 303      16.276   7.465  33.176  1.00 37.20 LIG 0.16  HD
BRANCH 3 6
ATOM      6  CA  SER B 302      16.196   6.031  35.300  1.00 37.09 LIG 0.20  C 
BRANCH 6 7
ATOM      7  N   SER B 302      15.187   5.112  35.812  1.00 36.48 LIG-0.34  N 
ATOM      8 H    SER B 302      15.416   4.697  36.530  1.00 36.48 LIG 0.16  HD
ATOM      9  C   ALA B 301      14.019   4.948  35.201  1.00 36.26 LIG 0.26  C 
ATOM     10 O    ALA B 301      13.708   5.558  34.178  1.00 35.88 LIG-0.27  OA
BRANCH 9 11
ATOM     11  CA  ALA B 301      13.056   3.949  35.836  1.00 36.43 LIG 0.40  C 
ATOM     12  CB  ALA B 301      12.673   2.876  34.822  1.00 36.70 LIG 0.06  C 
ATOM     13  N   ALA B 301      11.827   4.635  36.333  1.00 36.51 LIG 0.61  N 
ENDBRANCH 9 11
ENDBRANCH 6 7
BRANCH 6 14
ATOM     14  CB  SER B 302      17.447   6.000  36.183  1.00 37.65 LIG 0.20  C 
BRANCH 14 15
ATOM     15 OG   SER B 302      17.210   5.280  37.379  1.00 38.63 LIG-0.40  OA
ATOM     16 HG   SER B 302      16.522   5.582  37.756  1.00 38.63 LIG 0.21  HD
ENDBRANCH 14 15
ENDBRANCH 6 14
ENDBRANCH 3 6
ENDBRANCH 1 2
BRANCH 1 17
ATOM     17  CB  VAL B 303      15.703   5.795  30.796  1.00 37.28 LIG 0.01  C 
ATOM     18  CG1 VAL B 303      15.885   4.289  30.781  1.00 36.92 LIG 0.01  C 
ATOM     19  CG2 VAL B 303      14.366   6.161  31.426  1.00 37.06 LIG 0.01  C 
ENDBRANCH 1 17
BRANCH 1 20
ATOM     20  C   VAL B 303      17.179   7.805  30.938  1.00 37.27 LIG 0.24  C 
ATOM     21 O    VAL B 303      17.607   7.865  29.784  1.00 36.92 LIG-0.27  OA
ATOM     22  N   SER B 304      16.957   8.882  31.681  1.00 37.37 LIG-0.34  N 
ATOM     23 H    SER B 304      16.646   8.859  32.483  1.00 37.37 LIG 0.16  HD
BRANCH 22 24
ATOM     24  CA  SER B 304      17.232  10.222  31.178  1.00 37.74 LIG 0.20  C 
BRANCH 24 25
ATOM     25  CB  SER B 304      17.112  11.248  32.307  1.00 37.88 LIG 0.20  C 
BRANCH 25 26
ATOM     26 OG   SER B 304      15.835  11.866  32.294  1.00 38.36 LIG-0.40  OA
ATOM     27 HG   SER B 304      15.493  11.786  31.531  1.00 38.36 LIG 0.21  HD
ENDBRANCH 25 26
ENDBRANCH 24 25
BRANCH 24 28
ATOM     28  C   SER B 304      18.639  10.259  30.589  1.00 37.93 LIG 0.24  C 
ATOM     29 O    SER B 304      18.869  10.891  29.557  1.00 38.21 LIG-0.27  OA
ATOM     30  N   ALA B 305      19.577   9.584  31.245  1.00 38.06 LIG-0.35  N 
ATOM     31 H    ALA B 305      19.432   9.136  31.964  1.00 38.06 LIG 0.16  HD
BRANCH 30 32
ATOM     32  CA  ALA B 305      20.959   9.551  30.780  1.00 38.30 LIG 0.16  C 
ATOM     33  CB  ALA B 305      21.792  10.560  31.569  1.00 38.13 LIG 0.04  C 
BRANCH 32 34
ATOM     34  C   ALA B 305      21.560   8.158  30.922  1.00 38.47 LIG 0.22  C 
ATOM     35 O    ALA B 305      22.066   7.631  29.909  1.00 38.58 LIG-0.29  OA
ENDBRANCH 32 34
ENDBRANCH 30 32
ENDBRANCH 24 28
ENDBRANCH 22 24
ENDBRANCH 1 20
TORSDOF 14
ENDMDL
MODEL 59
USER: ADFR SOLUTION from run 131
USER: SCORE 9.953976 LL:  -2.196 LR:  -9.474 RR:   0.000 FEB:  -5.298
USER: RMSD 6.904176
USER: SEED 130
USER: STATUS no improvement in best in 23 clusters for 5 generations
USER: GENES 16
USER: genes 0 Translation |==|  0.62725 0.58169 0.37304
USER: genes 1 Rotation |==|  0.22093 0.53666 0.90089 0.60030
USER: genes 2 Torsion [CB]-CA--N-[C] |==|  0.85000
USER: genes 3 Torsion [N]-C--CA-[N] |==|  0.35186
USER: genes 4 Torsion [C]-CA--N-[C] |==|  0.89079
USER: genes 5 Torsion [N]-C--CA-[N] |==|  0.92694
USER: genes 6 Torsion [C]-CA--CB-[OG] |==|  0.64763
USER: genes 7 Torsion [CA]-CB--OG-[HG] |==|  0.80830
USER: genes 8 Torsion [N]-CA--CB-[CG1] |==|  0.54141
USER: genes 9 Torsion [N]-CA--C-[N] |==|  0.10242
USER: genes 10 Torsion [C]-N--CA-[CB] |==|  0.85388
USER: genes 11 Torsion [N]-CA--CB-[OG] |==|  0.90648
USER: genes 12 Torsion [CA]-CB--OG-[HG] |==|  0.69118
USER: genes 13 Torsion [N]-CA--C-[N] |==|  0.35351
USER: genes 14 Torsion [C]-N--CA-[C] |==|  0.51754
USER: genes 15 Torsion [N]-CA--C-[O] |==|  0.95660
ROOT
ATOM      1  CA  VAL B 303      15.652   6.290  31.528  1.00 37.13 LIG 0.18  C 
ENDROOT
BRANCH 1 2
ATOM      2  N   VAL B 303      15.554   6.455  32.972  1.00 37.20 LIG-0.35  N 
ATOM      3  C   SER B 302      15.632   5.420  33.803  1.00 37.39 LIG 0.24  C 
ATOM      4 O    SER B 302      15.773   4.258  33.413  1.00 37.76 LIG-0.27  OA
ATOM      5 H    VAL B 303      15.444   7.268  33.230  1.00 37.20 LIG 0.16  HD
BRANCH 3 6
ATOM      6  CA  SER B 302      15.524   5.742  35.289  1.00 37.09 LIG 0.20  C 
BRANCH 6 7
ATOM      7  N   SER B 302      14.484   4.939  35.918  1.00 36.48 LIG-0.34  N 
ATOM      8 H    SER B 302      14.682   4.653  36.705  1.00 36.48 LIG 0.16  HD
ATOM      9  C   ALA B 301      13.333   4.684  35.304  1.00 36.26 LIG 0.26  C 
ATOM     10 O    ALA B 301      13.066   5.109  34.180  1.00 35.88 LIG-0.27  OA
BRANCH 9 11
ATOM     11  CA  ALA B 301      12.333   3.823  36.070  1.00 36.43 LIG 0.40  C 
ATOM     12  CB  ALA B 301      11.338   4.712  36.809  1.00 36.70 LIG 0.06  C 
ATOM     13  N   ALA B 301      13.032   2.932  37.043  1.00 36.51 LIG 0.61  N 
ENDBRANCH 9 11
ENDBRANCH 6 7
BRANCH 6 14
ATOM     14  CB  SER B 302      16.876   5.493  35.964  1.00 37.65 LIG 0.20  C 
BRANCH 14 15
ATOM     15 OG   SER B 302      16.738   4.633  37.081  1.00 38.63 LIG-0.40  OA
ATOM     16 HG   SER B 302      16.321   5.032  37.692  1.00 38.63 LIG 0.21  HD
ENDBRANCH 14 15
ENDBRANCH 6 14
ENDBRANCH 3 6
ENDBRANCH 1 2
BRANCH 1 17
ATOM     17  CB  VAL B 303      16.940   5.526  31.126  1.00 37.28 LIG 0.01  C 
ATOM     18  CG1 VAL B 303      17.199   5.690  29.640  1.00 36.92 LIG 0.01  C 
ATOM     19  CG2 VAL B 303      18.127   6.040  31.931  1.00 37.06 LIG 0.01  C 
ENDBRANCH 1 17
BRANCH 1 20
ATOM     20  C   VAL B 303      14.445   5.512  31.023  1.00 37.27 LIG 0.24  C 
ATOM     21 O    VAL B 303      14.562   4.690  30.112  1.00 36.92 LIG-0.27  OA
ATOM     22  N   SER B 304      13.287   5.764  31.622  1.00 37.37 LIG-0.34  N 
ATOM     23 H    SER B 304      13.190   6.324  32.267  1.00 37.37 LIG 0.16  HD
BRANCH 22 24
ATOM     24  CA  SER B 304      12.060   5.089  31.217  1.00 37.74 LIG 0.20  C 
BRANCH 24 25
ATOM     25  CB  SER B 304      11.846   5.234  29.709  1.00 37.88 LIG 0.20  C 
BRANCH 25 26
ATOM     26 OG   SER B 304      12.331   6.484  29.248  1.00 38.36 LIG-0.40  OA
ATOM     27 HG   SER B 304      11.684   6.966  29.013  1.00 38.36 LIG 0.21  HD
ENDBRANCH 25 26
ENDBRANCH 24 25
BRANCH 24 28
ATOM     28  C   SER B 304      12.151   3.613  31.591  1.00 37.93 LIG 0.24  C 
ATOM     29 O    SER B 304      13.116   2.935  31.237  1.00 38.21 LIG-0.27  OA
ATOM     30  N   ALA B 305      11.147   3.118  32.307  1.00 38.06 LIG-0.35  N 
ATOM     31 H    ALA B 305      10.465   3.577  32.560  1.00 38.06 LIG 0.16  HD
BRANCH 30 32
ATOM     32  CA  ALA B 305      11.127   1.722  32.729  1.00 38.30 LIG 0.16  C 
ATOM     33  CB  ALA B 305      12.287   1.455  33.687  1.00 38.13 LIG 0.04  C 
BRANCH 32 34
ATOM     34  C   ALA B 305       9.806   1.363  33.400  1.00 38.47 LIG 0.22  C 
ATOM     35 O    ALA B 305       9.066   2.296  33.776  1.00 38.58 LIG-0.29  OA
ENDBRANCH 32 34
ENDBRANCH 30 32
ENDBRANCH 24 28
ENDBRANCH 22 24
ENDBRANCH 1 20
TORSDOF 14
ENDMDL
MODEL 60
USER: ADFR SOLUTION from run 97
USER: SCORE 9.737640 LL:  -1.892 LR:  -9.466 RR:   0.000 FEB:  -5.290
USER: RMSD 8.647160
USER: SEED 96
USER: STATUS no improvement in best in 24 clusters for 5 generations
USER: GENES 16
USER: genes 0 Translation |==|  0.50130 0.49196 0.34935
USER: genes 1 Rotation |==|  0.47784 0.69670 0.04788 0.58007
USER: genes 2 Torsion [CB]-CA--N-[C] |==|  0.21111
USER: genes 3 Torsion [N]-C--CA-[N] |==|  0.34641
USER: genes 4 Torsion [C]-CA--N-[C] |==|  0.81337
USER: genes 5 Torsion [N]-C--CA-[N] |==|  0.80298
USER: genes 6 Torsion [C]-CA--CB-[OG] |==|  0.95045
USER: genes 7 Torsion [CA]-CB--OG-[HG] |==|  0.59115
USER: genes 8 Torsion [N]-CA--CB-[CG1] |==|  0.23599
USER: genes 9 Torsion [N]-CA--C-[N] |==|  0.02980
USER: genes 10 Torsion [C]-N--CA-[CB] |==|  0.50846
USER: genes 11 Torsion [N]-CA--CB-[OG] |==|  0.90582
USER: genes 12 Torsion [CA]-CB--OG-[HG] |==|  0.67804
USER: genes 13 Torsion [N]-CA--C-[N] |==|  0.89371
USER: genes 14 Torsion [C]-N--CA-[C] |==|  0.57937
USER: genes 15 Torsion [N]-CA--C-[O] |==|  0.38846
ROOT
ATOM      1  CA  VAL B 303      13.101   4.473  31.172  1.00 37.13 LIG 0.18  C 
ENDROOT
BRANCH 1 2
ATOM      2  N   VAL B 303      14.369   4.586  31.882  1.00 37.20 LIG-0.35  N 
ATOM      3  C   SER B 302      14.624   5.597  32.706  1.00 37.39 LIG 0.24  C 
ATOM      4 O    SER B 302      13.821   6.511  32.913  1.00 37.76 LIG-0.27  OA
ATOM      5 H    VAL B 303      14.924   3.949  31.720  1.00 37.20 LIG 0.16  HD
BRANCH 3 6
ATOM      6  CA  SER B 302      15.987   5.580  33.389  1.00 37.09 LIG 0.20  C 
BRANCH 6 7
ATOM      7  N   SER B 302      16.707   6.821  33.134  1.00 36.48 LIG-0.34  N 
ATOM      8 H    SER B 302      16.824   7.314  33.830  1.00 36.48 LIG 0.16  HD
ATOM      9  C   ALA B 301      17.138   7.141  31.918  1.00 36.26 LIG 0.26  C 
ATOM     10 O    ALA B 301      16.967   6.417  30.937  1.00 35.88 LIG-0.27  OA
BRANCH 9 11
ATOM     11  CA  ALA B 301      17.871   8.472  31.787  1.00 36.43 LIG 0.40  C 
ATOM     12  CB  ALA B 301      18.972   8.566  32.839  1.00 36.70 LIG 0.06  C 
ATOM     13  N   ALA B 301      16.927   9.618  31.941  1.00 36.51 LIG 0.61  N 
ENDBRANCH 9 11
ENDBRANCH 6 7
BRANCH 6 14
ATOM     14  CB  SER B 302      15.801   5.368  34.894  1.00 37.65 LIG 0.20  C 
BRANCH 14 15
ATOM     15 OG   SER B 302      14.471   5.650  35.289  1.00 38.63 LIG-0.40  OA
ATOM     16 HG   SER B 302      14.470   5.965  36.068  1.00 38.63 LIG 0.21  HD
ENDBRANCH 14 15
ENDBRANCH 6 14
ENDBRANCH 3 6
ENDBRANCH 1 2
BRANCH 1 17
ATOM     17  CB  VAL B 303      13.026   5.459  29.978  1.00 37.28 LIG 0.01  C 
ATOM     18  CG1 VAL B 303      13.679   4.845  28.755  1.00 36.92 LIG 0.01  C 
ATOM     19  CG2 VAL B 303      11.575   5.814  29.682  1.00 37.06 LIG 0.01  C 
ENDBRANCH 1 17
BRANCH 1 20
ATOM     20  C   VAL B 303      12.939   3.054  30.645  1.00 37.27 LIG 0.24  C 
ATOM     21 O    VAL B 303      12.045   2.779  29.842  1.00 36.92 LIG-0.27  OA
ATOM     22  N   SER B 304      13.810   2.156  31.090  1.00 37.37 LIG-0.34  N 
ATOM     23 H    SER B 304      14.447   2.333  31.640  1.00 37.37 LIG 0.16  HD
BRANCH 22 24
ATOM     24  CA  SER B 304      13.748   0.763  30.665  1.00 37.74 LIG 0.20  C 
BRANCH 24 25
ATOM     25  CB  SER B 304      14.818  -0.060  31.386  1.00 37.88 LIG 0.20  C 
BRANCH 25 26
ATOM     26 OG   SER B 304      15.984   0.714  31.612  1.00 38.36 LIG-0.40  OA
ATOM     27 HG   SER B 304      16.626   0.386  31.182  1.00 38.36 LIG 0.21  HD
ENDBRANCH 25 26
ENDBRANCH 24 25
BRANCH 24 28
ATOM     28  C   SER B 304      12.363   0.203  30.976  1.00 37.93 LIG 0.24  C 
ATOM     29 O    SER B 304      11.812  -0.574  30.196  1.00 38.21 LIG-0.27  OA
ATOM     30  N   ALA B 305      11.804   0.597  32.116  1.00 38.06 LIG-0.35  N 
ATOM     31 H    ALA B 305      12.174   1.141  32.670  1.00 38.06 LIG 0.16  HD
BRANCH 30 32
ATOM     32  CA  ALA B 305      10.486   0.124  32.522  1.00 38.30 LIG 0.16  C 
ATOM     33  CB  ALA B 305      10.622  -1.197  33.277  1.00 38.13 LIG 0.04  C 
BRANCH 32 34
ATOM     34  C   ALA B 305       9.773   1.150  33.396  1.00 38.47 LIG 0.22  C 
ATOM     35 O    ALA B 305       8.550   1.325  33.216  1.00 38.58 LIG-0.29  OA
ENDBRANCH 32 34
ENDBRANCH 30 32
ENDBRANCH 24 28
ENDBRANCH 22 24
ENDBRANCH 1 20
TORSDOF 14
ENDMDL
MODEL 61
USER: ADFR SOLUTION from run 90
USER: SCORE 9.424807 LL:  -2.142 LR:  -9.457 RR:   0.000 FEB:  -5.281
USER: RMSD 7.747895
USER: SEED 89
USER: STATUS no improvement in best in 18 clusters for 5 generations
USER: GENES 16
USER: genes 0 Translation |==|  0.73042 0.72897 0.37822
USER: genes 1 Rotation |==|  0.37440 0.28679 0.68268 0.89420
USER: genes 2 Torsion [CB]-CA--N-[C] |==|  0.20835
USER: genes 3 Torsion [N]-C--CA-[N] |==|  0.54150
USER: genes 4 Torsion [C]-CA--N-[C] |==|  0.76069
USER: genes 5 Torsion [N]-C--CA-[N] |==|  0.39128
USER: genes 6 Torsion [C]-CA--CB-[OG] |==|  0.73594
USER: genes 7 Torsion [CA]-CB--OG-[HG] |==|  0.25659
USER: genes 8 Torsion [N]-CA--CB-[CG1] |==|  0.21049
USER: genes 9 Torsion [N]-CA--C-[N] |==|  0.43869
USER: genes 10 Torsion [C]-N--CA-[CB] |==|  0.51168
USER: genes 11 Torsion [N]-CA--CB-[OG] |==|  0.10573
USER: genes 12 Torsion [CA]-CB--OG-[HG] |==|  0.82879
USER: genes 13 Torsion [N]-CA--C-[N] |==|  0.30606
USER: genes 14 Torsion [C]-N--CA-[C] |==|  0.51934
USER: genes 15 Torsion [N]-CA--C-[O] |==|  0.44092
ROOT
ATOM      1  CA  VAL B 303      17.741   9.273  31.605  1.00 37.13 LIG 0.18  C 
ENDROOT
BRANCH 1 2
ATOM      2  N   VAL B 303      16.795   8.168  31.515  1.00 37.20 LIG-0.35  N 
ATOM      3  C   SER B 302      17.080   6.960  31.991  1.00 37.39 LIG 0.24  C 
ATOM      4 O    SER B 302      18.160   6.688  32.523  1.00 37.76 LIG-0.27  OA
ATOM      5 H    VAL B 303      16.052   8.368  31.132  1.00 37.20 LIG 0.16  HD
BRANCH 3 6
ATOM      6  CA  SER B 302      15.992   5.903  31.837  1.00 37.09 LIG 0.20  C 
BRANCH 6 7
ATOM      7  N   SER B 302      16.265   4.753  32.688  1.00 36.48 LIG-0.34  N 
ATOM      8 H    SER B 302      15.883   4.781  33.458  1.00 36.48 LIG 0.16  HD
ATOM      9  C   ALA B 301      17.045   3.755  32.283  1.00 36.26 LIG 0.26  C 
ATOM     10 O    ALA B 301      17.577   3.731  31.173  1.00 35.88 LIG-0.27  OA
BRANCH 9 11
ATOM     11  CA  ALA B 301      17.256   2.615  33.275  1.00 36.43 LIG 0.40  C 
ATOM     12  CB  ALA B 301      18.573   2.809  34.019  1.00 36.70 LIG 0.06  C 
ATOM     13  N   ALA B 301      17.261   1.295  32.577  1.00 36.51 LIG 0.61  N 
ENDBRANCH 9 11
ENDBRANCH 6 7
BRANCH 6 14
ATOM     14  CB  SER B 302      14.632   6.517  32.185  1.00 37.65 LIG 0.20  C 
BRANCH 14 15
ATOM     15 OG   SER B 302      14.291   6.267  33.537  1.00 38.63 LIG-0.40  OA
ATOM     16 HG   SER B 302      14.553   6.906  34.015  1.00 38.63 LIG 0.21  HD
ENDBRANCH 14 15
ENDBRANCH 6 14
ENDBRANCH 3 6
ENDBRANCH 1 2
BRANCH 1 17
ATOM     17  CB  VAL B 303      18.894   9.122  30.580  1.00 37.28 LIG 0.01  C 
ATOM     18  CG1 VAL B 303      18.403   9.480  29.190  1.00 36.92 LIG 0.01  C 
ATOM     19  CG2 VAL B 303      20.065  10.013  30.974  1.00 37.06 LIG 0.01  C 
ENDBRANCH 1 17
BRANCH 1 20
ATOM     20  C   VAL B 303      17.017  10.584  31.337  1.00 37.27 LIG 0.24  C 
ATOM     21 O    VAL B 303      15.950  10.600  30.720  1.00 36.92 LIG-0.27  OA
ATOM     22  N   SER B 304      17.591  11.684  31.811  1.00 37.37 LIG-0.34  N 
ATOM     23 H    SER B 304      18.328  11.690  32.254  1.00 37.37 LIG 0.16  HD
BRANCH 22 24
ATOM     24  CA  SER B 304      16.998  12.999  31.606  1.00 37.74 LIG 0.20  C 
BRANCH 24 25
ATOM     25  CB  SER B 304      17.917  14.089  32.163  1.00 37.88 LIG 0.20  C 
BRANCH 25 26
ATOM     26 OG   SER B 304      19.278  13.775  31.918  1.00 38.36 LIG-0.40  OA
ATOM     27 HG   SER B 304      19.475  13.057  32.307  1.00 38.36 LIG 0.21  HD
ENDBRANCH 25 26
ENDBRANCH 24 25
BRANCH 24 28
ATOM     28  C   SER B 304      16.769  13.222  30.114  1.00 37.93 LIG 0.24  C 
ATOM     29 O    SER B 304      17.723  13.379  29.352  1.00 38.21 LIG-0.27  OA
ATOM     30  N   ALA B 305      15.506  13.235  29.701  1.00 38.06 LIG-0.35  N 
ATOM     31 H    ALA B 305      14.830  13.129  30.221  1.00 38.06 LIG 0.16  HD
BRANCH 30 32
ATOM     32  CA  ALA B 305      15.165  13.433  28.297  1.00 38.30 LIG 0.16  C 
ATOM     33  CB  ALA B 305      15.686  12.259  27.469  1.00 38.13 LIG 0.04  C 
BRANCH 32 34
ATOM     34  C   ALA B 305      13.660  13.576  28.106  1.00 38.47 LIG 0.22  C 
ATOM     35 O    ALA B 305      13.251  14.139  27.069  1.00 38.58 LIG-0.29  OA
ENDBRANCH 32 34
ENDBRANCH 30 32
ENDBRANCH 24 28
ENDBRANCH 22 24
ENDBRANCH 1 20
TORSDOF 14
ENDMDL
MODEL 62
USER: ADFR SOLUTION from run 47
USER: SCORE 9.425080 LL:  -2.081 LR:  -9.441 RR:   0.000 FEB:  -5.265
USER: RMSD 9.532374
USER: SEED 46
USER: STATUS no improvement in best in 19 clusters for 5 generations
USER: GENES 16
USER: genes 0 Translation |==|  0.62130 0.56085 0.56334
USER: genes 1 Rotation |==|  0.34532 0.56945 0.94807 0.64313
USER: genes 2 Torsion [CB]-CA--N-[C] |==|  0.17945
USER: genes 3 Torsion [N]-C--CA-[N] |==|  0.79139
USER: genes 4 Torsion [C]-CA--N-[C] |==|  0.75556
USER: genes 5 Torsion [N]-C--CA-[N] |==|  0.13900
USER: genes 6 Torsion [C]-CA--CB-[OG] |==|  0.66915
USER: genes 7 Torsion [CA]-CB--OG-[HG] |==|  0.17708
USER: genes 8 Torsion [N]-CA--CB-[CG1] |==|  0.22769
USER: genes 9 Torsion [N]-CA--C-[N] |==|  0.99753
USER: genes 10 Torsion [C]-N--CA-[CB] |==|  0.20993
USER: genes 11 Torsion [N]-CA--CB-[OG] |==|  0.79986
USER: genes 12 Torsion [CA]-CB--OG-[HG] |==|  0.91305
USER: genes 13 Torsion [N]-CA--C-[N] |==|  0.43176
USER: genes 14 Torsion [C]-N--CA-[C] |==|  0.73489
USER: genes 15 Torsion [N]-CA--C-[O] |==|  0.05838
ROOT
ATOM      1  CA  VAL B 303      15.531   5.868  34.382  1.00 37.13 LIG 0.18  C 
ENDROOT
BRANCH 1 2
ATOM      2  N   VAL B 303      16.188   5.823  35.682  1.00 37.20 LIG-0.35  N 
ATOM      3  C   SER B 302      17.425   6.275  35.858  1.00 37.39 LIG 0.24  C 
ATOM      4 O    SER B 302      18.105   6.743  34.941  1.00 37.76 LIG-0.27  OA
ATOM      5 H    VAL B 303      15.708   5.484  36.310  1.00 37.20 LIG 0.16  HD
BRANCH 3 6
ATOM      6  CA  SER B 302      17.982   6.175  37.275  1.00 37.09 LIG 0.20  C 
BRANCH 6 7
ATOM      7  N   SER B 302      17.394   7.194  38.134  1.00 36.48 LIG-0.34  N 
ATOM      8 H    SER B 302      16.689   6.940  38.556  1.00 36.48 LIG 0.16  HD
ATOM      9  C   ALA B 301      17.924   8.409  38.238  1.00 36.26 LIG 0.26  C 
ATOM     10 O    ALA B 301      18.938   8.750  37.630  1.00 35.88 LIG-0.27  OA
BRANCH 9 11
ATOM     11  CA  ALA B 301      17.205   9.384  39.166  1.00 36.43 LIG 0.40  C 
ATOM     12  CB  ALA B 301      18.039  10.650  39.338  1.00 36.70 LIG 0.06  C 
ATOM     13  N   ALA B 301      16.949   8.762  40.498  1.00 36.51 LIG 0.61  N 
ENDBRANCH 9 11
ENDBRANCH 6 7
BRANCH 6 14
ATOM     14  CB  SER B 302      17.704   4.776  37.835  1.00 37.65 LIG 0.20  C 
BRANCH 14 15
ATOM     15 OG   SER B 302      16.892   4.843  38.993  1.00 38.63 LIG-0.40  OA
ATOM     16 HG   SER B 302      16.141   5.159  38.792  1.00 38.63 LIG 0.21  HD
ENDBRANCH 14 15
ENDBRANCH 6 14
ENDBRANCH 3 6
ENDBRANCH 1 2
BRANCH 1 17
ATOM     17  CB  VAL B 303      16.250   4.963  33.348  1.00 37.28 LIG 0.01  C 
ATOM     18  CG1 VAL B 303      15.802   3.524  33.518  1.00 36.92 LIG 0.01  C 
ATOM     19  CG2 VAL B 303      15.956   5.447  31.934  1.00 37.06 LIG 0.01  C 
ENDBRANCH 1 17
BRANCH 1 20
ATOM     20  C   VAL B 303      14.090   5.399  34.525  1.00 37.27 LIG 0.24  C 
ATOM     21 O    VAL B 303      13.341   5.361  33.547  1.00 36.92 LIG-0.27  OA
ATOM     22  N   SER B 304      13.707   5.030  35.741  1.00 37.37 LIG-0.34  N 
ATOM     23 H    SER B 304      14.220   5.038  36.432  1.00 37.37 LIG 0.16  HD
BRANCH 22 24
ATOM     24  CA  SER B 304      12.348   4.573  36.004  1.00 37.74 LIG 0.20  C 
BRANCH 24 25
ATOM     25  CB  SER B 304      12.156   3.148  35.481  1.00 37.88 LIG 0.20  C 
BRANCH 25 26
ATOM     26 OG   SER B 304      12.111   3.131  34.064  1.00 38.36 LIG-0.40  OA
ATOM     27 HG   SER B 304      11.776   3.850  33.785  1.00 38.36 LIG 0.21  HD
ENDBRANCH 25 26
ENDBRANCH 24 25
BRANCH 24 28
ATOM     28  C   SER B 304      12.083   4.617  37.506  1.00 37.93 LIG 0.24  C 
ATOM     29 O    SER B 304      13.016   4.552  38.308  1.00 38.21 LIG-0.27  OA
ATOM     30  N   ALA B 305      10.814   4.728  37.883  1.00 38.06 LIG-0.35  N 
ATOM     31 H    ALA B 305      10.152   4.772  37.336  1.00 38.06 LIG 0.16  HD
BRANCH 30 32
ATOM     32  CA  ALA B 305      10.440   4.786  39.292  1.00 38.30 LIG 0.16  C 
ATOM     33  CB  ALA B 305       9.278   5.761  39.477  1.00 38.13 LIG 0.04  C 
BRANCH 32 34
ATOM     34  C   ALA B 305      10.053   3.410  39.820  1.00 38.47 LIG 0.22  C 
ATOM     35 O    ALA B 305      10.460   2.406  39.200  1.00 38.58 LIG-0.29  OA
ENDBRANCH 32 34
ENDBRANCH 30 32
ENDBRANCH 24 28
ENDBRANCH 22 24
ENDBRANCH 1 20
TORSDOF 14
ENDMDL
MODEL 63
USER: ADFR SOLUTION from run 14
USER: SCORE 10.272186 LL:  -2.235 LR:  -9.421 RR:   0.000 FEB:  -5.245
USER: RMSD 5.491841
USER: SEED 35326
USER: STATUS searching
USER: GENES 16
USER: genes 0 Translation |==|  0.62318 0.39229 0.32578
USER: genes 1 Rotation |==|  0.49996 0.85737 0.65076 0.81553
USER: genes 2 Torsion [CB]-CA--N-[C] |==|  0.86376
USER: genes 3 Torsion [N]-C--CA-[N] |==|  0.88254
USER: genes 4 Torsion [C]-CA--N-[C] |==|  0.82778
USER: genes 5 Torsion [N]-C--CA-[N] |==|  0.72964
USER: genes 6 Torsion [C]-CA--CB-[OG] |==|  0.61422
USER: genes 7 Torsion [CA]-CB--OG-[HG] |==|  0.14328
USER: genes 8 Torsion [N]-CA--CB-[CG1] |==|  0.48427
USER: genes 9 Torsion [N]-CA--C-[N] |==|  0.81129
USER: genes 10 Torsion [C]-N--CA-[CB] |==|  0.49596
USER: genes 11 Torsion [N]-CA--CB-[OG] |==|  0.94001
USER: genes 12 Torsion [CA]-CB--OG-[HG] |==|  0.75984
USER: genes 13 Torsion [N]-CA--C-[N] |==|  0.47430
USER: genes 14 Torsion [C]-N--CA-[C] |==|  0.58440
USER: genes 15 Torsion [N]-CA--C-[O] |==|  0.90661
ROOT
ATOM      1  CA  VAL B 303      15.569   2.455  30.819  1.00 37.13 LIG 0.18  C 
ENDROOT
BRANCH 1 2
ATOM      2  N   VAL B 303      16.532   2.046  31.833  1.00 37.20 LIG-0.35  N 
ATOM      3  C   SER B 302      16.284   2.184  33.131  1.00 37.39 LIG 0.24  C 
ATOM      4 O    SER B 302      15.240   2.679  33.565  1.00 37.76 LIG-0.27  OA
ATOM      5 H    VAL B 303      17.260   1.713  31.518  1.00 37.20 LIG 0.16  HD
BRANCH 3 6
ATOM      6  CA  SER B 302      17.377   1.703  34.080  1.00 37.09 LIG 0.20  C 
BRANCH 6 7
ATOM      7  N   SER B 302      17.930   0.433  33.628  1.00 36.48 LIG-0.34  N 
ATOM      8 H    SER B 302      18.767   0.460  33.432  1.00 36.48 LIG 0.16  HD
ATOM      9  C   ALA B 301      17.181  -0.661  33.535  1.00 36.26 LIG 0.26  C 
ATOM     10 O    ALA B 301      15.985  -0.679  33.828  1.00 35.88 LIG-0.27  OA
BRANCH 9 11
ATOM     11  CA  ALA B 301      17.882  -1.922  33.040  1.00 36.43 LIG 0.40  C 
ATOM     12  CB  ALA B 301      19.380  -1.829  33.319  1.00 36.70 LIG 0.06  C 
ATOM     13  N   ALA B 301      17.653  -2.122  31.579  1.00 36.51 LIG 0.61  N 
ENDBRANCH 9 11
ENDBRANCH 6 7
BRANCH 6 14
ATOM     14  CB  SER B 302      18.477   2.765  34.171  1.00 37.65 LIG 0.20  C 
BRANCH 14 15
ATOM     15 OG   SER B 302      19.762   2.170  34.171  1.00 38.63 LIG-0.40  OA
ATOM     16 HG   SER B 302      19.826   1.643  33.520  1.00 38.63 LIG 0.21  HD
ENDBRANCH 14 15
ENDBRANCH 6 14
ENDBRANCH 3 6
ENDBRANCH 1 2
BRANCH 1 17
ATOM     17  CB  VAL B 303      14.153   1.902  31.120  1.00 37.28 LIG 0.01  C 
ATOM     18  CG1 VAL B 303      13.154   2.461  30.124  1.00 36.92 LIG 0.01  C 
ATOM     19  CG2 VAL B 303      14.161   0.380  31.065  1.00 37.06 LIG 0.01  C 
ENDBRANCH 1 17
BRANCH 1 20
ATOM     20  C   VAL B 303      15.500   3.975  30.768  1.00 37.27 LIG 0.24  C 
ATOM     21 O    VAL B 303      15.905   4.591  29.780  1.00 36.92 LIG-0.27  OA
ATOM     22  N   SER B 304      14.978   4.578  31.829  1.00 37.37 LIG-0.34  N 
ATOM     23 H    SER B 304      14.679   4.163  32.521  1.00 37.37 LIG 0.16  HD
BRANCH 22 24
ATOM     24  CA  SER B 304      14.869   6.030  31.901  1.00 37.74 LIG 0.20  C 
BRANCH 24 25
ATOM     25  CB  SER B 304      14.200   6.448  33.212  1.00 37.88 LIG 0.20  C 
BRANCH 25 26
ATOM     26 OG   SER B 304      13.441   5.380  33.755  1.00 38.36 LIG-0.40  OA
ATOM     27 HG   SER B 304      12.669   5.387  33.422  1.00 38.36 LIG 0.21  HD
ENDBRANCH 25 26
ENDBRANCH 24 25
BRANCH 24 28
ATOM     28  C   SER B 304      16.263   6.644  31.809  1.00 37.93 LIG 0.24  C 
ATOM     29 O    SER B 304      17.266   5.930  31.862  1.00 38.21 LIG-0.27  OA
ATOM     30  N   ALA B 305      16.323   7.963  31.669  1.00 38.06 LIG-0.35  N 
ATOM     31 H    ALA B 305      15.633   8.475  31.633  1.00 38.06 LIG 0.16  HD
BRANCH 30 32
ATOM     32  CA  ALA B 305      17.600   8.661  31.564  1.00 38.30 LIG 0.16  C 
ATOM     33  CB  ALA B 305      18.034   8.724  30.100  1.00 38.13 LIG 0.04  C 
BRANCH 32 34
ATOM     34  C   ALA B 305      17.512  10.070  32.141  1.00 38.47 LIG 0.22  C 
ATOM     35 O    ALA B 305      16.433  10.686  32.022  1.00 38.58 LIG-0.29  OA
ENDBRANCH 32 34
ENDBRANCH 30 32
ENDBRANCH 24 28
ENDBRANCH 22 24
ENDBRANCH 1 20
TORSDOF 14
ENDMDL
MODEL 64
USER: ADFR SOLUTION from run 93
USER: SCORE 9.468338 LL:  -2.406 LR:  -9.412 RR:   0.000 FEB:  -5.236
USER: RMSD 4.289248
USER: SEED 92
USER: STATUS no improvement in best in 20 clusters for 5 generations
USER: GENES 16
USER: genes 0 Translation |==|  0.54635 0.51056 0.60338
USER: genes 1 Rotation |==|  0.14737 0.44678 0.63533 0.82327
USER: genes 2 Torsion [CB]-CA--N-[C] |==|  0.21385
USER: genes 3 Torsion [N]-C--CA-[N] |==|  0.12770
USER: genes 4 Torsion [C]-CA--N-[C] |==|  0.16359
USER: genes 5 Torsion [N]-C--CA-[N] |==|  0.86286
USER: genes 6 Torsion [C]-CA--CB-[OG] |==|  0.56850
USER: genes 7 Torsion [CA]-CB--OG-[HG] |==|  0.89109
USER: genes 8 Torsion [N]-CA--CB-[CG1] |==|  0.74981
USER: genes 9 Torsion [N]-CA--C-[N] |==|  0.39935
USER: genes 10 Torsion [C]-N--CA-[CB] |==|  0.48932
USER: genes 11 Torsion [N]-CA--CB-[OG] |==|  0.03067
USER: genes 12 Torsion [CA]-CB--OG-[HG] |==|  0.74653
USER: genes 13 Torsion [N]-CA--C-[N] |==|  0.81317
USER: genes 14 Torsion [C]-N--CA-[C] |==|  0.59263
USER: genes 15 Torsion [N]-CA--C-[O] |==|  0.93207
ROOT
ATOM      1  CA  VAL B 303      14.013   4.850  34.983  1.00 37.13 LIG 0.18  C 
ENDROOT
BRANCH 1 2
ATOM      2  N   VAL B 303      12.666   4.826  35.536  1.00 37.20 LIG-0.35  N 
ATOM      3  C   SER B 302      12.444   4.634  36.832  1.00 37.39 LIG 0.24  C 
ATOM      4 O    SER B 302      13.351   4.448  37.647  1.00 37.76 LIG-0.27  OA
ATOM      5 H    VAL B 303      12.042   4.945  34.956  1.00 37.20 LIG 0.16  HD
BRANCH 3 6
ATOM      6  CA  SER B 302      10.984   4.645  37.273  1.00 37.09 LIG 0.20  C 
BRANCH 6 7
ATOM      7  N   SER B 302      10.168   3.837  36.375  1.00 36.48 LIG-0.34  N 
ATOM      8 H    SER B 302       9.529   4.266  35.992  1.00 36.48 LIG 0.16  HD
ATOM      9  C   ALA B 301      10.414   2.545  36.183  1.00 36.26 LIG 0.26  C 
ATOM     10 O    ALA B 301      11.339   1.951  36.736  1.00 35.88 LIG-0.27  OA
BRANCH 9 11
ATOM     11  CA  ALA B 301       9.479   1.813  35.224  1.00 36.43 LIG 0.40  C 
ATOM     12  CB  ALA B 301       9.762   2.246  33.789  1.00 36.70 LIG 0.06  C 
ATOM     13  N   ALA B 301       8.050   2.085  35.561  1.00 36.51 LIG 0.61  N 
ENDBRANCH 9 11
ENDBRANCH 6 7
BRANCH 6 14
ATOM     14  CB  SER B 302      10.880   4.121  38.709  1.00 37.65 LIG 0.20  C 
BRANCH 14 15
ATOM     15 OG   SER B 302       9.594   3.587  38.965  1.00 38.63 LIG-0.40  OA
ATOM     16 HG   SER B 302       9.012   4.067  38.595  1.00 38.63 LIG 0.21  HD
ENDBRANCH 14 15
ENDBRANCH 6 14
ENDBRANCH 3 6
ENDBRANCH 1 2
BRANCH 1 17
ATOM     17  CB  VAL B 303      14.600   3.421  34.846  1.00 37.28 LIG 0.01  C 
ATOM     18  CG1 VAL B 303      15.337   3.039  36.116  1.00 36.92 LIG 0.01  C 
ATOM     19  CG2 VAL B 303      13.487   2.423  34.558  1.00 37.06 LIG 0.01  C 
ENDBRANCH 1 17
BRANCH 1 20
ATOM     20  C   VAL B 303      13.986   5.500  33.606  1.00 37.27 LIG 0.24  C 
ATOM     21 O    VAL B 303      13.028   5.331  32.849  1.00 36.92 LIG-0.27  OA
ATOM     22  N   SER B 304      15.032   6.253  33.288  1.00 37.37 LIG-0.34  N 
ATOM     23 H    SER B 304      15.702   6.392  33.808  1.00 37.37 LIG 0.16  HD
BRANCH 22 24
ATOM     24  CA  SER B 304      15.124   6.917  31.993  1.00 37.74 LIG 0.20  C 
BRANCH 24 25
ATOM     25  CB  SER B 304      16.380   7.789  31.932  1.00 37.88 LIG 0.20  C 
BRANCH 25 26
ATOM     26 OG   SER B 304      17.234   7.522  33.032  1.00 38.36 LIG-0.40  OA
ATOM     27 HG   SER B 304      17.046   8.041  33.665  1.00 38.36 LIG 0.21  HD
ENDBRANCH 25 26
ENDBRANCH 24 25
BRANCH 24 28
ATOM     28  C   SER B 304      15.165   5.865  30.889  1.00 37.93 LIG 0.24  C 
ATOM     29 O    SER B 304      14.231   5.753  30.095  1.00 38.21 LIG-0.27  OA
ATOM     30  N   ALA B 305      16.249   5.097  30.840  1.00 38.06 LIG-0.35  N 
ATOM     31 H    ALA B 305      16.909   5.161  31.388  1.00 38.06 LIG 0.16  HD
BRANCH 30 32
ATOM     32  CA  ALA B 305      16.404   4.062  29.825  1.00 38.30 LIG 0.16  C 
ATOM     33  CB  ALA B 305      17.124   4.637  28.606  1.00 38.13 LIG 0.04  C 
BRANCH 32 34
ATOM     34  C   ALA B 305      17.177   2.864  30.366  1.00 38.47 LIG 0.22  C 
ATOM     35 O    ALA B 305      17.950   3.051  31.329  1.00 38.58 LIG-0.29  OA
ENDBRANCH 32 34
ENDBRANCH 30 32
ENDBRANCH 24 28
ENDBRANCH 22 24
ENDBRANCH 1 20
TORSDOF 14
ENDMDL
MODEL 65
USER: ADFR SOLUTION from run 157
USER: SCORE 9.043536 LL:  -2.329 LR:  -9.408 RR:   0.000 FEB:  -5.232
USER: RMSD 8.735418
USER: SEED 156
USER: STATUS searching
USER: GENES 16
USER: genes 0 Translation |==|  0.63400 0.58399 0.34987
USER: genes 1 Rotation |==|  0.31840 0.71436 0.90604 0.57876
USER: genes 2 Torsion [CB]-CA--N-[C] |==|  0.18372
USER: genes 3 Torsion [N]-C--CA-[N] |==|  0.09675
USER: genes 4 Torsion [C]-CA--N-[C] |==|  0.15706
USER: genes 5 Torsion [N]-C--CA-[N] |==|  0.98728
USER: genes 6 Torsion [C]-CA--CB-[OG] |==|  0.59234
USER: genes 7 Torsion [CA]-CB--OG-[HG] |==|  0.71760
USER: genes 8 Torsion [N]-CA--CB-[CG1] |==|  0.24552
USER: genes 9 Torsion [N]-CA--C-[N] |==|  0.47314
USER: genes 10 Torsion [C]-N--CA-[CB] |==|  0.36795
USER: genes 11 Torsion [N]-CA--CB-[OG] |==|  0.92159
USER: genes 12 Torsion [CA]-CB--OG-[HG] |==|  0.93484
USER: genes 13 Torsion [N]-CA--C-[N] |==|  0.36670
USER: genes 14 Torsion [C]-N--CA-[C] |==|  0.54315
USER: genes 15 Torsion [N]-CA--C-[O] |==|  0.16293
ROOT
ATOM      1  CA  VAL B 303      15.789   6.337  31.180  1.00 37.13 LIG 0.18  C 
ENDROOT
BRANCH 1 2
ATOM      2  N   VAL B 303      16.503   7.104  32.192  1.00 37.20 LIG-0.35  N 
ATOM      3  C   SER B 302      17.719   7.594  31.971  1.00 37.39 LIG 0.24  C 
ATOM      4 O    SER B 302      18.329   7.420  30.912  1.00 37.76 LIG-0.27  OA
ATOM      5 H    VAL B 303      16.072   7.208  32.929  1.00 37.20 LIG 0.16  HD
BRANCH 3 6
ATOM      6  CA  SER B 302      18.342   8.386  33.115  1.00 37.09 LIG 0.20  C 
BRANCH 6 7
ATOM      7  N   SER B 302      17.952   7.827  34.403  1.00 36.48 LIG-0.34  N 
ATOM      8 H    SER B 302      17.567   8.386  34.931  1.00 36.48 LIG 0.16  HD
ATOM      9  C   ALA B 301      18.184   6.555  34.710  1.00 36.26 LIG 0.26  C 
ATOM     10 O    ALA B 301      18.730   5.769  33.935  1.00 35.88 LIG-0.27  OA
BRANCH 9 11
ATOM     11  CA  ALA B 301      17.733   6.099  36.094  1.00 36.43 LIG 0.40  C 
ATOM     12  CB  ALA B 301      16.661   5.021  35.965  1.00 36.70 LIG 0.06  C 
ATOM     13  N   ALA B 301      17.200   7.247  36.887  1.00 36.51 LIG 0.61  N 
ENDBRANCH 9 11
ENDBRANCH 6 7
BRANCH 6 14
ATOM     14  CB  SER B 302      19.867   8.381  32.968  1.00 37.65 LIG 0.20  C 
BRANCH 14 15
ATOM     15 OG   SER B 302      20.501   8.386  34.234  1.00 38.63 LIG-0.40  OA
ATOM     16 HG   SER B 302      20.772   9.162  34.409  1.00 38.63 LIG 0.21  HD
ENDBRANCH 14 15
ENDBRANCH 6 14
ENDBRANCH 3 6
ENDBRANCH 1 2
BRANCH 1 17
ATOM     17  CB  VAL B 303      16.491   4.986  30.886  1.00 37.28 LIG 0.01  C 
ATOM     18  CG1 VAL B 303      15.982   3.918  31.834  1.00 36.92 LIG 0.01  C 
ATOM     19  CG2 VAL B 303      16.247   4.572  29.441  1.00 37.06 LIG 0.01  C 
ENDBRANCH 1 17
BRANCH 1 20
ATOM     20  C   VAL B 303      14.372   6.056  31.663  1.00 37.27 LIG 0.24  C 
ATOM     21 O    VAL B 303      14.040   6.312  32.821  1.00 36.92 LIG-0.27  OA
ATOM     22  N   SER B 304      13.536   5.538  30.770  1.00 37.37 LIG-0.34  N 
ATOM     23 H    SER B 304      13.748   5.365  29.955  1.00 37.37 LIG 0.16  HD
BRANCH 22 24
ATOM     24  CA  SER B 304      12.158   5.215  31.119  1.00 37.74 LIG 0.20  C 
BRANCH 24 25
ATOM     25  CB  SER B 304      11.200   5.761  30.057  1.00 37.88 LIG 0.20  C 
BRANCH 25 26
ATOM     26 OG   SER B 304      11.745   6.909  29.427  1.00 38.36 LIG-0.40  OA
ATOM     27 HG   SER B 304      12.310   7.267  29.936  1.00 38.36 LIG 0.21  HD
ENDBRANCH 25 26
ENDBRANCH 24 25
BRANCH 24 28
ATOM     28  C   SER B 304      12.008   3.701  31.227  1.00 37.93 LIG 0.24  C 
ATOM     29 O    SER B 304      12.449   2.963  30.344  1.00 38.21 LIG-0.27  OA
ATOM     30  N   ALA B 305      11.387   3.241  32.307  1.00 38.06 LIG-0.35  N 
ATOM     31 H    ALA B 305      11.071   3.742  32.930  1.00 38.06 LIG 0.16  HD
BRANCH 30 32
ATOM     32  CA  ALA B 305      11.190   1.812  32.523  1.00 38.30 LIG 0.16  C 
ATOM     33  CB  ALA B 305      12.516   1.161  32.913  1.00 38.13 LIG 0.04  C 
BRANCH 32 34
ATOM     34  C   ALA B 305      10.146   1.551  33.603  1.00 38.47 LIG 0.22  C 
ATOM     35 O    ALA B 305       8.998   2.010  33.432  1.00 38.58 LIG-0.29  OA
ENDBRANCH 32 34
ENDBRANCH 30 32
ENDBRANCH 24 28
ENDBRANCH 22 24
ENDBRANCH 1 20
TORSDOF 14
ENDMDL
MODEL 66
USER: ADFR SOLUTION from run 125
USER: SCORE 10.293851 LL:  -2.563 LR:  -9.400 RR:   0.000 FEB:  -5.223
USER: RMSD 4.691247
USER: SEED 124
USER: STATUS no improvement in best in 18 clusters for 5 generations
USER: GENES 16
USER: genes 0 Translation |==|  0.46622 0.36943 0.49015
USER: genes 1 Rotation |==|  0.41856 0.54794 0.43656 0.98687
USER: genes 2 Torsion [CB]-CA--N-[C] |==|  0.22701
USER: genes 3 Torsion [N]-C--CA-[N] |==|  0.92927
USER: genes 4 Torsion [C]-CA--N-[C] |==|  0.83278
USER: genes 5 Torsion [N]-C--CA-[N] |==|  0.19160
USER: genes 6 Torsion [C]-CA--CB-[OG] |==|  0.50039
USER: genes 7 Torsion [CA]-CB--OG-[HG] |==|  0.12583
USER: genes 8 Torsion [N]-CA--CB-[CG1] |==|  0.21044
USER: genes 9 Torsion [N]-CA--C-[N] |==|  0.97296
USER: genes 10 Torsion [C]-N--CA-[CB] |==|  0.83272
USER: genes 11 Torsion [N]-CA--CB-[OG] |==|  0.84616
USER: genes 12 Torsion [CA]-CB--OG-[HG] |==|  0.71568
USER: genes 13 Torsion [N]-CA--C-[N] |==|  0.07556
USER: genes 14 Torsion [C]-N--CA-[C] |==|  0.59723
USER: genes 15 Torsion [N]-CA--C-[O] |==|  0.91176
ROOT
ATOM      1  CA  VAL B 303      12.391   1.992  33.284  1.00 37.13 LIG 0.18  C 
ENDROOT
BRANCH 1 2
ATOM      2  N   VAL B 303      11.284   2.299  34.181  1.00 37.20 LIG-0.35  N 
ATOM      3  C   SER B 302      10.502   1.348  34.680  1.00 37.39 LIG 0.24  C 
ATOM      4 O    SER B 302      10.644   0.153  34.409  1.00 37.76 LIG-0.27  OA
ATOM      5 H    VAL B 303      11.188   3.137  34.352  1.00 37.20 LIG 0.16  HD
BRANCH 3 6
ATOM      6  CA  SER B 302       9.389   1.814  35.613  1.00 37.09 LIG 0.20  C 
BRANCH 6 7
ATOM      7  N   SER B 302       9.740   3.081  36.242  1.00 36.48 LIG-0.34  N 
ATOM      8 H    SER B 302       9.195   3.725  36.072  1.00 36.48 LIG 0.16  HD
ATOM      9  C   ALA B 301      10.818   3.204  37.010  1.00 36.26 LIG 0.26  C 
ATOM     10 O    ALA B 301      11.580   2.267  37.246  1.00 35.88 LIG-0.27  OA
BRANCH 9 11
ATOM     11  CA  ALA B 301      11.074   4.587  37.600  1.00 36.43 LIG 0.40  C 
ATOM     12  CB  ALA B 301      12.463   4.636  38.229  1.00 36.70 LIG 0.06  C 
ATOM     13  N   ALA B 301      10.044   4.929  38.625  1.00 36.51 LIG 0.61  N 
ENDBRANCH 9 11
ENDBRANCH 6 7
BRANCH 6 14
ATOM     14  CB  SER B 302       8.084   1.951  34.823  1.00 37.65 LIG 0.20  C 
BRANCH 14 15
ATOM     15 OG   SER B 302       7.026   2.386  35.657  1.00 38.63 LIG-0.40  OA
ATOM     16 HG   SER B 302       7.292   3.021  36.139  1.00 38.63 LIG 0.21  HD
ENDBRANCH 14 15
ENDBRANCH 6 14
ENDBRANCH 3 6
ENDBRANCH 1 2
BRANCH 1 17
ATOM     17  CB  VAL B 303      11.906   1.798  31.824  1.00 37.28 LIG 0.01  C 
ATOM     18  CG1 VAL B 303      11.595   3.145  31.198  1.00 36.92 LIG 0.01  C 
ATOM     19  CG2 VAL B 303      12.968   1.068  31.012  1.00 37.06 LIG 0.01  C 
ENDBRANCH 1 17
BRANCH 1 20
ATOM     20  C   VAL B 303      13.402   3.130  33.317  1.00 37.27 LIG 0.24  C 
ATOM     21 O    VAL B 303      14.499   3.014  32.768  1.00 36.92 LIG-0.27  OA
ATOM     22  N   SER B 304      13.027   4.234  33.952  1.00 37.37 LIG-0.34  N 
ATOM     23 H    SER B 304      12.261   4.337  34.330  1.00 37.37 LIG 0.16  HD
BRANCH 22 24
ATOM     24  CA  SER B 304      13.914   5.386  34.060  1.00 37.74 LIG 0.20  C 
BRANCH 24 25
ATOM     25  CB  SER B 304      15.200   5.001  34.795  1.00 37.88 LIG 0.20  C 
BRANCH 25 26
ATOM     26 OG   SER B 304      14.907   4.436  36.062  1.00 38.36 LIG-0.40  OA
ATOM     27 HG   SER B 304      15.043   5.009  36.662  1.00 38.36 LIG 0.21  HD
ENDBRANCH 25 26
ENDBRANCH 24 25
BRANCH 24 28
ATOM     28  C   SER B 304      14.247   5.897  32.661  1.00 37.93 LIG 0.24  C 
ATOM     29 O    SER B 304      15.305   6.490  32.447  1.00 38.21 LIG-0.27  OA
ATOM     30  N   ALA B 305      13.346   5.665  31.713  1.00 38.06 LIG-0.35  N 
ATOM     31 H    ALA B 305      12.602   5.255  31.847  1.00 38.06 LIG 0.16  HD
BRANCH 30 32
ATOM     32  CA  ALA B 305      13.557   6.101  30.337  1.00 38.30 LIG 0.16  C 
ATOM     33  CB  ALA B 305      14.200   4.973  29.532  1.00 38.13 LIG 0.04  C 
BRANCH 32 34
ATOM     34  C   ALA B 305      12.248   6.526  29.682  1.00 38.47 LIG 0.22  C 
ATOM     35 O    ALA B 305      11.199   5.948  30.036  1.00 38.58 LIG-0.29  OA
ENDBRANCH 32 34
ENDBRANCH 30 32
ENDBRANCH 24 28
ENDBRANCH 22 24
ENDBRANCH 1 20
TORSDOF 14
ENDMDL
MODEL 67
USER: ADFR SOLUTION from run 181
USER: SCORE 10.395193 LL:  -2.364 LR:  -9.399 RR:   0.000 FEB:  -5.223
USER: RMSD 5.037790
USER: SEED 180
USER: STATUS no improvement in best in 38 clusters for 5 generations
USER: GENES 16
USER: genes 0 Translation |==|  0.53706 0.52371 0.51363
USER: genes 1 Rotation |==|  0.14865 0.32740 0.73421 0.70472
USER: genes 2 Torsion [CB]-CA--N-[C] |==|  0.86667
USER: genes 3 Torsion [N]-C--CA-[N] |==|  0.97089
USER: genes 4 Torsion [C]-CA--N-[C] |==|  0.75969
USER: genes 5 Torsion [N]-C--CA-[N] |==|  0.27902
USER: genes 6 Torsion [C]-CA--CB-[OG] |==|  0.69192
USER: genes 7 Torsion [CA]-CB--OG-[HG] |==|  0.18007
USER: genes 8 Torsion [N]-CA--CB-[CG1] |==|  0.52225
USER: genes 9 Torsion [N]-CA--C-[N] |==|  0.90448
USER: genes 10 Torsion [C]-N--CA-[CB] |==|  0.83693
USER: genes 11 Torsion [N]-CA--CB-[OG] |==|  0.89141
USER: genes 12 Torsion [CA]-CB--OG-[HG] |==|  0.04140
USER: genes 13 Torsion [N]-CA--C-[N] |==|  0.06701
USER: genes 14 Torsion [C]-N--CA-[C] |==|  0.57959
USER: genes 15 Torsion [N]-CA--C-[O] |==|  0.80202
ROOT
ATOM      1  CA  VAL B 303      13.825   5.116  33.636  1.00 37.13 LIG 0.18  C 
ENDROOT
BRANCH 1 2
ATOM      2  N   VAL B 303      12.759   4.297  34.198  1.00 37.20 LIG-0.35  N 
ATOM      3  C   SER B 302      12.685   2.990  33.970  1.00 37.39 LIG 0.24  C 
ATOM      4 O    SER B 302      13.495   2.387  33.260  1.00 37.76 LIG-0.27  OA
ATOM      5 H    VAL B 303      12.195   4.731  34.681  1.00 37.20 LIG 0.16  HD
BRANCH 3 6
ATOM      6  CA  SER B 302      11.522   2.257  34.631  1.00 37.09 LIG 0.20  C 
BRANCH 6 7
ATOM      7  N   SER B 302      10.851   3.118  35.596  1.00 36.48 LIG-0.34  N 
ATOM      8 H    SER B 302      10.176   3.548  35.279  1.00 36.48 LIG 0.16  HD
ATOM      9  C   ALA B 301      11.267   3.212  36.854  1.00 36.26 LIG 0.26  C 
ATOM     10 O    ALA B 301      12.232   2.582  37.289  1.00 35.88 LIG-0.27  OA
BRANCH 9 11
ATOM     11  CA  ALA B 301      10.481   4.156  37.759  1.00 36.43 LIG 0.40  C 
ATOM     12  CB  ALA B 301      11.439   4.959  38.634  1.00 36.70 LIG 0.06  C 
ATOM     13  N   ALA B 301       9.527   3.397  38.621  1.00 36.51 LIG 0.61  N 
ENDBRANCH 9 11
ENDBRANCH 6 7
BRANCH 6 14
ATOM     14  CB  SER B 302      10.538   1.787  33.555  1.00 37.65 LIG 0.20  C 
BRANCH 14 15
ATOM     15 OG   SER B 302       9.321   2.507  33.629  1.00 38.63 LIG-0.40  OA
ATOM     16 HG   SER B 302       9.462   3.315  33.450  1.00 38.63 LIG 0.21  HD
ENDBRANCH 14 15
ENDBRANCH 6 14
ENDBRANCH 3 6
ENDBRANCH 1 2
BRANCH 1 17
ATOM     17  CB  VAL B 303      15.218   4.471  33.858  1.00 37.28 LIG 0.01  C 
ATOM     18  CG1 VAL B 303      16.310   5.437  33.440  1.00 36.92 LIG 0.01  C 
ATOM     19  CG2 VAL B 303      15.387   4.080  35.320  1.00 37.06 LIG 0.01  C 
ENDBRANCH 1 17
BRANCH 1 20
ATOM     20  C   VAL B 303      13.599   5.288  32.141  1.00 37.27 LIG 0.24  C 
ATOM     21 O    VAL B 303      13.916   6.335  31.572  1.00 36.92 LIG-0.27  OA
ATOM     22  N   SER B 304      13.061   4.256  31.503  1.00 37.37 LIG-0.34  N 
ATOM     23 H    SER B 304      12.846   3.514  31.881  1.00 37.37 LIG 0.16  HD
BRANCH 22 24
ATOM     24  CA  SER B 304      12.786   4.306  30.072  1.00 37.74 LIG 0.20  C 
BRANCH 24 25
ATOM     25  CB  SER B 304      11.834   5.462  29.754  1.00 37.88 LIG 0.20  C 
BRANCH 25 26
ATOM     26 OG   SER B 304      10.836   5.583  30.754  1.00 38.36 LIG-0.40  OA
ATOM     27 HG   SER B 304      11.063   5.141  31.432  1.00 38.36 LIG 0.21  HD
ENDBRANCH 25 26
ENDBRANCH 24 25
BRANCH 24 28
ATOM     28  C   SER B 304      14.098   4.489  29.314  1.00 37.93 LIG 0.24  C 
ATOM     29 O    SER B 304      14.106   4.991  28.189  1.00 38.21 LIG-0.27  OA
ATOM     30  N   ALA B 305      15.202   4.083  29.931  1.00 38.06 LIG-0.35  N 
ATOM     31 H    ALA B 305      15.213   3.729  30.714  1.00 38.06 LIG 0.16  HD
BRANCH 30 32
ATOM     32  CA  ALA B 305      16.515   4.213  29.308  1.00 38.30 LIG 0.16  C 
ATOM     33  CB  ALA B 305      17.094   5.594  29.607  1.00 38.13 LIG 0.04  C 
BRANCH 32 34
ATOM     34  C   ALA B 305      17.471   3.131  29.797  1.00 38.47 LIG 0.22  C 
ATOM     35 O    ALA B 305      17.892   3.207  30.970  1.00 38.58 LIG-0.29  OA
ENDBRANCH 32 34
ENDBRANCH 30 32
ENDBRANCH 24 28
ENDBRANCH 22 24
ENDBRANCH 1 20
TORSDOF 14
ENDMDL
MODEL 68
USER: ADFR SOLUTION from run 73
USER: SCORE 9.602103 LL:  -1.837 LR:  -9.405 RR:   0.000 FEB:  -5.228
USER: RMSD 8.405452
USER: SEED 72
USER: STATUS no improvement in best in 19 clusters for 5 generations
USER: GENES 16
USER: genes 0 Translation |==|  0.72446 0.63315 0.49471
USER: genes 1 Rotation |==|  0.65153 0.71090 0.09395 0.63299
USER: genes 2 Torsion [CB]-CA--N-[C] |==|  0.48889
USER: genes 3 Torsion [N]-C--CA-[N] |==|  0.24226
USER: genes 4 Torsion [C]-CA--N-[C] |==|  0.75750
USER: genes 5 Torsion [N]-C--CA-[N] |==|  0.15575
USER: genes 6 Torsion [C]-CA--CB-[OG] |==|  0.77203
USER: genes 7 Torsion [CA]-CB--OG-[HG] |==|  0.02316
USER: genes 8 Torsion [N]-CA--CB-[CG1] |==|  0.28711
USER: genes 9 Torsion [N]-CA--C-[N] |==|  0.39783
USER: genes 10 Torsion [C]-N--CA-[CB] |==|  0.18357
USER: genes 11 Torsion [N]-CA--CB-[OG] |==|  0.78470
USER: genes 12 Torsion [CA]-CB--OG-[HG] |==|  0.57009
USER: genes 13 Torsion [N]-CA--C-[N] |==|  0.82844
USER: genes 14 Torsion [C]-N--CA-[C] |==|  0.68929
USER: genes 15 Torsion [N]-CA--C-[O] |==|  0.97868
ROOT
ATOM      1  CA  VAL B 303      17.620   7.332  33.353  1.00 37.13 LIG 0.18  C 
ENDROOT
BRANCH 1 2
ATOM      2  N   VAL B 303      18.114   7.121  34.707  1.00 37.20 LIG-0.35  N 
ATOM      3  C   SER B 302      17.607   6.184  35.500  1.00 37.39 LIG 0.24  C 
ATOM      4 O    SER B 302      16.680   5.445  35.156  1.00 37.76 LIG-0.27  OA
ATOM      5 H    VAL B 303      18.752   7.650  34.939  1.00 37.20 LIG 0.16  HD
BRANCH 3 6
ATOM      6  CA  SER B 302      18.228   6.069  36.888  1.00 37.09 LIG 0.20  C 
BRANCH 6 7
ATOM      7  N   SER B 302      17.575   6.975  37.823  1.00 36.48 LIG-0.34  N 
ATOM      8 H    SER B 302      16.924   6.624  38.262  1.00 36.48 LIG 0.16  HD
ATOM      9  C   ALA B 301      17.973   8.235  37.967  1.00 36.26 LIG 0.26  C 
ATOM     10 O    ALA B 301      18.912   8.716  37.333  1.00 35.88 LIG-0.27  OA
BRANCH 9 11
ATOM     11  CA  ALA B 301      17.198   9.079  38.974  1.00 36.43 LIG 0.40  C 
ATOM     12  CB  ALA B 301      17.808  10.475  39.063  1.00 36.70 LIG 0.06  C 
ATOM     13  N   ALA B 301      17.202   8.439  40.322  1.00 36.51 LIG 0.61  N 
ENDBRANCH 9 11
ENDBRANCH 6 7
BRANCH 6 14
ATOM     14  CB  SER B 302      18.119   4.621  37.378  1.00 37.65 LIG 0.20  C 
BRANCH 14 15
ATOM     15 OG   SER B 302      16.839   4.365  37.928  1.00 38.63 LIG-0.40  OA
ATOM     16 HG   SER B 302      16.335   5.021  37.782  1.00 38.63 LIG 0.21  HD
ENDBRANCH 14 15
ENDBRANCH 6 14
ENDBRANCH 3 6
ENDBRANCH 1 2
BRANCH 1 17
ATOM     17  CB  VAL B 303      18.308   8.546  32.677  1.00 37.28 LIG 0.01  C 
ATOM     18  CG1 VAL B 303      19.352   8.066  31.686  1.00 36.92 LIG 0.01  C 
ATOM     19  CG2 VAL B 303      17.271   9.413  31.975  1.00 37.06 LIG 0.01  C 
ENDBRANCH 1 17
BRANCH 1 20
ATOM     20  C   VAL B 303      17.889   6.090  32.515  1.00 37.27 LIG 0.24  C 
ATOM     21 O    VAL B 303      18.918   5.431  32.678  1.00 36.92 LIG-0.27  OA
ATOM     22  N   SER B 304      16.958   5.764  31.626  1.00 37.37 LIG-0.34  N 
ATOM     23 H    SER B 304      16.229   6.205  31.508  1.00 37.37 LIG 0.16  HD
BRANCH 22 24
ATOM     24  CA  SER B 304      17.109   4.602  30.759  1.00 37.74 LIG 0.20  C 
BRANCH 24 25
ATOM     25  CB  SER B 304      17.082   3.315  31.586  1.00 37.88 LIG 0.20  C 
BRANCH 25 26
ATOM     26 OG   SER B 304      18.325   3.107  32.237  1.00 38.36 LIG-0.40  OA
ATOM     27 HG   SER B 304      18.429   2.287  32.388  1.00 38.36 LIG 0.21  HD
ENDBRANCH 25 26
ENDBRANCH 24 25
BRANCH 24 28
ATOM     28  C   SER B 304      15.977   4.587  29.736  1.00 37.93 LIG 0.24  C 
ATOM     29 O    SER B 304      16.221   4.663  28.531  1.00 38.21 LIG-0.27  OA
ATOM     30  N   ALA B 305      14.742   4.488  30.217  1.00 38.06 LIG-0.35  N 
ATOM     31 H    ALA B 305      14.555   4.437  31.055  1.00 38.06 LIG 0.16  HD
BRANCH 30 32
ATOM     32  CA  ALA B 305      13.581   4.458  29.335  1.00 38.30 LIG 0.16  C 
ATOM     33  CB  ALA B 305      12.731   3.226  29.644  1.00 38.13 LIG 0.04  C 
BRANCH 32 34
ATOM     34  C   ALA B 305      12.739   5.720  29.482  1.00 38.47 LIG 0.22  C 
ATOM     35 O    ALA B 305      13.034   6.520  30.394  1.00 38.58 LIG-0.29  OA
ENDBRANCH 32 34
ENDBRANCH 30 32
ENDBRANCH 24 28
ENDBRANCH 22 24
ENDBRANCH 1 20
TORSDOF 14
ENDMDL
MODEL 69
USER: ADFR SOLUTION from run 52
USER: SCORE 10.876500 LL:  -2.339 LR:  -9.395 RR:   0.000 FEB:  -5.219
USER: RMSD 6.210015
USER: SEED 51
USER: STATUS no improvement in best in 20 clusters for 5 generations
USER: GENES 16
USER: genes 0 Translation |==|  0.57361 0.54968 0.57627
USER: genes 1 Rotation |==|  0.09281 0.26160 0.34016 0.54258
USER: genes 2 Torsion [CB]-CA--N-[C] |==|  0.49147
USER: genes 3 Torsion [N]-C--CA-[N] |==|  0.87148
USER: genes 4 Torsion [C]-CA--N-[C] |==|  0.83689
USER: genes 5 Torsion [N]-C--CA-[N] |==|  0.62012
USER: genes 6 Torsion [C]-CA--CB-[OG] |==|  0.80941
USER: genes 7 Torsion [CA]-CB--OG-[HG] |==|  0.21123
USER: genes 8 Torsion [N]-CA--CB-[CG1] |==|  0.91623
USER: genes 9 Torsion [N]-CA--C-[N] |==|  0.44804
USER: genes 10 Torsion [C]-N--CA-[CB] |==|  0.15088
USER: genes 11 Torsion [N]-CA--CB-[OG] |==|  0.11558
USER: genes 12 Torsion [CA]-CB--OG-[HG] |==|  0.83075
USER: genes 13 Torsion [N]-CA--C-[N] |==|  0.08889
USER: genes 14 Torsion [C]-N--CA-[C] |==|  0.13124
USER: genes 15 Torsion [N]-CA--C-[O] |==|  0.37653
ROOT
ATOM      1  CA  VAL B 303      14.566   5.642  34.576  1.00 37.13 LIG 0.18  C 
ENDROOT
BRANCH 1 2
ATOM      2  N   VAL B 303      14.209   5.164  33.246  1.00 37.20 LIG-0.35  N 
ATOM      3  C   SER B 302      14.530   5.842  32.149  1.00 37.39 LIG 0.24  C 
ATOM      4 O    SER B 302      15.130   6.919  32.178  1.00 37.76 LIG-0.27  OA
ATOM      5 H    VAL B 303      13.780   4.419  33.240  1.00 37.20 LIG 0.16  HD
BRANCH 3 6
ATOM      6  CA  SER B 302      14.102   5.217  30.825  1.00 37.09 LIG 0.20  C 
BRANCH 6 7
ATOM      7  N   SER B 302      14.430   3.798  30.794  1.00 36.48 LIG-0.34  N 
ATOM      8 H    SER B 302      13.754   3.280  30.673  1.00 36.48 LIG 0.16  HD
ATOM      9  C   ALA B 301      15.679   3.367  30.941  1.00 36.26 LIG 0.26  C 
ATOM     10 O    ALA B 301      16.633   4.128  31.105  1.00 35.88 LIG-0.27  OA
BRANCH 9 11
ATOM     11  CA  ALA B 301      15.884   1.856  30.896  1.00 36.43 LIG 0.40  C 
ATOM     12  CB  ALA B 301      14.545   1.144  31.060  1.00 36.70 LIG 0.06  C 
ATOM     13  N   ALA B 301      16.825   1.413  31.967  1.00 36.51 LIG 0.61  N 
ENDBRANCH 9 11
ENDBRANCH 6 7
BRANCH 6 14
ATOM     14  CB  SER B 302      12.597   5.424  30.626  1.00 37.65 LIG 0.20  C 
BRANCH 14 15
ATOM     15 OG   SER B 302      11.850   4.661  31.555  1.00 38.63 LIG-0.40  OA
ATOM     16 HG   SER B 302      11.879   5.029  32.309  1.00 38.63 LIG 0.21  HD
ENDBRANCH 14 15
ENDBRANCH 6 14
ENDBRANCH 3 6
ENDBRANCH 1 2
BRANCH 1 17
ATOM     17  CB  VAL B 303      14.010   4.711  35.685  1.00 37.28 LIG 0.01  C 
ATOM     18  CG1 VAL B 303      12.723   4.059  35.219  1.00 36.92 LIG 0.01  C 
ATOM     19  CG2 VAL B 303      15.042   3.651  36.044  1.00 37.06 LIG 0.01  C 
ENDBRANCH 1 17
BRANCH 1 20
ATOM     20  C   VAL B 303      16.081   5.704  34.703  1.00 37.27 LIG 0.24  C 
ATOM     21 O    VAL B 303      16.805   5.082  33.923  1.00 36.92 LIG-0.27  OA
ATOM     22  N   SER B 304      16.561   6.462  35.682  1.00 37.37 LIG-0.34  N 
ATOM     23 H    SER B 304      16.072   6.913  36.227  1.00 37.37 LIG 0.16  HD
BRANCH 22 24
ATOM     24  CA  SER B 304      17.995   6.591  35.910  1.00 37.74 LIG 0.20  C 
BRANCH 24 25
ATOM     25  CB  SER B 304      18.700   7.035  34.626  1.00 37.88 LIG 0.20  C 
BRANCH 25 26
ATOM     26 OG   SER B 304      17.950   8.037  33.959  1.00 38.36 LIG-0.40  OA
ATOM     27 HG   SER B 304      17.197   7.730  33.749  1.00 38.36 LIG 0.21  HD
ENDBRANCH 25 26
ENDBRANCH 24 25
BRANCH 24 28
ATOM     28  C   SER B 304      18.239   7.611  37.017  1.00 37.93 LIG 0.24  C 
ATOM     29 O    SER B 304      19.250   8.315  37.009  1.00 38.21 LIG-0.27  OA
ATOM     30  N   ALA B 305      17.314   7.691  37.967  1.00 38.06 LIG-0.35  N 
ATOM     31 H    ALA B 305      16.604   7.205  37.989  1.00 38.06 LIG 0.16  HD
BRANCH 30 32
ATOM     32  CA  ALA B 305      17.435   8.633  39.073  1.00 38.30 LIG 0.16  C 
ATOM     33  CB  ALA B 305      18.486   8.134  40.064  1.00 38.13 LIG 0.04  C 
BRANCH 32 34
ATOM     34  C   ALA B 305      17.809  10.026  38.578  1.00 38.47 LIG 0.22  C 
ATOM     35 O    ALA B 305      17.200  11.003  39.060  1.00 38.58 LIG-0.29  OA
ENDBRANCH 32 34
ENDBRANCH 30 32
ENDBRANCH 24 28
ENDBRANCH 22 24
ENDBRANCH 1 20
TORSDOF 14
ENDMDL
MODEL 70
USER: ADFR SOLUTION from run 101
USER: SCORE 9.900846 LL:  -1.989 LR:  -9.385 RR:   0.000 FEB:  -5.209
USER: RMSD 8.817153
USER: SEED 100
USER: STATUS searching
USER: GENES 16
USER: genes 0 Translation |==|  0.54157 0.57275 0.41824
USER: genes 1 Rotation |==|  0.41327 0.45590 0.02486 0.62157
USER: genes 2 Torsion [CB]-CA--N-[C] |==|  0.86656
USER: genes 3 Torsion [N]-C--CA-[N] |==|  0.17739
USER: genes 4 Torsion [C]-CA--N-[C] |==|  0.15659
USER: genes 5 Torsion [N]-C--CA-[N] |==|  0.28399
USER: genes 6 Torsion [C]-CA--CB-[OG] |==|  0.59142
USER: genes 7 Torsion [CA]-CB--OG-[HG] |==|  0.68589
USER: genes 8 Torsion [N]-CA--CB-[CG1] |==|  0.38086
USER: genes 9 Torsion [N]-CA--C-[N] |==|  0.40000
USER: genes 10 Torsion [C]-N--CA-[CB] |==|  0.26277
USER: genes 11 Torsion [N]-CA--CB-[OG] |==|  0.00200
USER: genes 12 Torsion [CA]-CB--OG-[HG] |==|  0.66610
USER: genes 13 Torsion [N]-CA--C-[N] |==|  0.99255
USER: genes 14 Torsion [C]-N--CA-[C] |==|  0.17530
USER: genes 15 Torsion [N]-CA--C-[O] |==|  0.37040
ROOT
ATOM      1  CA  VAL B 303      13.917   6.109  32.206  1.00 37.13 LIG 0.18  C 
ENDROOT
BRANCH 1 2
ATOM      2  N   VAL B 303      15.020   7.053  32.331  1.00 37.20 LIG-0.35  N 
ATOM      3  C   SER B 302      16.214   6.810  31.802  1.00 37.39 LIG 0.24  C 
ATOM      4 O    SER B 302      16.477   5.771  31.189  1.00 37.76 LIG-0.27  OA
ATOM      5 H    VAL B 303      14.827   7.767  32.770  1.00 37.20 LIG 0.16  HD
BRANCH 3 6
ATOM      6  CA  SER B 302      17.271   7.891  32.002  1.00 37.09 LIG 0.20  C 
BRANCH 6 7
ATOM      7  N   SER B 302      17.583   8.053  33.416  1.00 36.48 LIG-0.34  N 
ATOM      8 H    SER B 302      17.476   8.852  33.714  1.00 36.48 LIG 0.16  HD
ATOM      9  C   ALA B 301      17.998   7.032  34.159  1.00 36.26 LIG 0.26  C 
ATOM     10 O    ALA B 301      18.139   5.894  33.713  1.00 35.88 LIG-0.27  OA
BRANCH 9 11
ATOM     11  CA  ALA B 301      18.299   7.339  35.623  1.00 36.43 LIG 0.40  C 
ATOM     12  CB  ALA B 301      19.603   6.665  36.040  1.00 36.70 LIG 0.06  C 
ATOM     13  N   ALA B 301      17.187   6.876  36.505  1.00 36.51 LIG 0.61  N 
ENDBRANCH 9 11
ENDBRANCH 6 7
BRANCH 6 14
ATOM     14  CB  SER B 302      18.532   7.525  31.212  1.00 37.65 LIG 0.20  C 
BRANCH 14 15
ATOM     15 OG   SER B 302      19.698   7.977  31.876  1.00 38.63 LIG-0.40  OA
ATOM     16 HG   SER B 302      20.063   8.581  31.421  1.00 38.63 LIG 0.21  HD
ENDBRANCH 14 15
ENDBRANCH 6 14
ENDBRANCH 3 6
ENDBRANCH 1 2
BRANCH 1 17
ATOM     17  CB  VAL B 303      13.746   5.621  30.744  1.00 37.28 LIG 0.01  C 
ATOM     18  CG1 VAL B 303      13.494   4.125  30.722  1.00 36.92 LIG 0.01  C 
ATOM     19  CG2 VAL B 303      12.597   6.363  30.074  1.00 37.06 LIG 0.01  C 
ENDBRANCH 1 17
BRANCH 1 20
ATOM     20  C   VAL B 303      14.178   4.902  33.096  1.00 37.27 LIG 0.24  C 
ATOM     21 O    VAL B 303      15.323   4.475  33.258  1.00 36.92 LIG-0.27  OA
ATOM     22  N   SER B 304      13.117   4.360  33.682  1.00 37.37 LIG-0.34  N 
ATOM     23 H    SER B 304      12.313   4.653  33.591  1.00 37.37 LIG 0.16  HD
BRANCH 22 24
ATOM     24  CA  SER B 304      13.240   3.194  34.548  1.00 37.74 LIG 0.20  C 
BRANCH 24 25
ATOM     25  CB  SER B 304      13.356   3.629  36.011  1.00 37.88 LIG 0.20  C 
BRANCH 25 26
ATOM     26 OG   SER B 304      13.296   5.041  36.125  1.00 38.36 LIG-0.40  OA
ATOM     27 HG   SER B 304      14.004   5.325  36.478  1.00 38.36 LIG 0.21  HD
ENDBRANCH 25 26
ENDBRANCH 24 25
BRANCH 24 28
ATOM     28  C   SER B 304      12.017   2.301  34.366  1.00 37.93 LIG 0.24  C 
ATOM     29 O    SER B 304      11.929   1.229  34.967  1.00 38.21 LIG-0.27  OA
ATOM     30  N   ALA B 305      11.076   2.743  33.539  1.00 38.06 LIG-0.35  N 
ATOM     31 H    ALA B 305      11.123   3.486  33.111  1.00 38.06 LIG 0.16  HD
BRANCH 30 32
ATOM     32  CA  ALA B 305       9.859   1.978  33.291  1.00 38.30 LIG 0.16  C 
ATOM     33  CB  ALA B 305      10.219   0.602  32.732  1.00 38.13 LIG 0.04  C 
BRANCH 32 34
ATOM     34  C   ALA B 305       9.032   1.821  34.562  1.00 38.47 LIG 0.22  C 
ATOM     35 O    ALA B 305       7.805   2.044  34.495  1.00 38.58 LIG-0.29  OA
ENDBRANCH 32 34
ENDBRANCH 30 32
ENDBRANCH 24 28
ENDBRANCH 22 24
ENDBRANCH 1 20
TORSDOF 14
ENDMDL
MODEL 71
USER: ADFR SOLUTION from run 39
USER: SCORE 10.483778 LL:  -1.935 LR:  -9.377 RR:   0.000 FEB:  -5.200
USER: RMSD 7.627919
USER: SEED 38
USER: STATUS no improvement in best in 20 clusters for 5 generations
USER: GENES 16
USER: genes 0 Translation |==|  0.44177 0.52721 0.33286
USER: genes 1 Rotation |==|  0.51590 0.58416 0.02308 0.62334
USER: genes 2 Torsion [CB]-CA--N-[C] |==|  0.76942
USER: genes 3 Torsion [N]-C--CA-[N] |==|  0.32236
USER: genes 4 Torsion [C]-CA--N-[C] |==|  0.82778
USER: genes 5 Torsion [N]-C--CA-[N] |==|  0.12550
USER: genes 6 Torsion [C]-CA--CB-[OG] |==|  0.32205
USER: genes 7 Torsion [CA]-CB--OG-[HG] |==|  0.08915
USER: genes 8 Torsion [N]-CA--CB-[CG1] |==|  0.82001
USER: genes 9 Torsion [N]-CA--C-[N] |==|  0.16417
USER: genes 10 Torsion [C]-N--CA-[CB] |==|  0.19978
USER: genes 11 Torsion [N]-CA--CB-[OG] |==|  0.75005
USER: genes 12 Torsion [CA]-CB--OG-[HG] |==|  0.01787
USER: genes 13 Torsion [N]-CA--C-[N] |==|  0.04015
USER: genes 14 Torsion [C]-N--CA-[C] |==|  0.68134
USER: genes 15 Torsion [N]-CA--C-[O] |==|  0.06535
ROOT
ATOM      1  CA  VAL B 303      11.896   5.187  30.925  1.00 37.13 LIG 0.18  C 
ENDROOT
BRANCH 1 2
ATOM      2  N   VAL B 303      12.894   5.761  31.818  1.00 37.20 LIG-0.35  N 
ATOM      3  C   SER B 302      14.087   5.201  31.989  1.00 37.39 LIG 0.24  C 
ATOM      4 O    SER B 302      14.424   4.157  31.423  1.00 37.76 LIG-0.27  OA
ATOM      5 H    VAL B 303      12.642   6.481  32.215  1.00 37.20 LIG 0.16  HD
BRANCH 3 6
ATOM      6  CA  SER B 302      15.035   5.916  32.945  1.00 37.09 LIG 0.20  C 
BRANCH 6 7
ATOM      7  N   SER B 302      15.329   5.081  34.102  1.00 36.48 LIG-0.34  N 
ATOM      8 H    SER B 302      16.158   4.870  34.187  1.00 36.48 LIG 0.16  HD
ATOM      9  C   ALA B 301      14.374   4.691  34.942  1.00 36.26 LIG 0.26  C 
ATOM     10 O    ALA B 301      13.193   5.011  34.806  1.00 35.88 LIG-0.27  OA
BRANCH 9 11
ATOM     11  CA  ALA B 301      14.816   3.812  36.108  1.00 36.43 LIG 0.40  C 
ATOM     12  CB  ALA B 301      13.700   3.721  37.144  1.00 36.70 LIG 0.06  C 
ATOM     13  N   ALA B 301      16.053   4.353  36.745  1.00 36.51 LIG 0.61  N 
ENDBRANCH 9 11
ENDBRANCH 6 7
BRANCH 6 14
ATOM     14  CB  SER B 302      16.326   6.282  32.206  1.00 37.65 LIG 0.20  C 
BRANCH 14 15
ATOM     15 OG   SER B 302      16.491   7.686  32.131  1.00 38.63 LIG-0.40  OA
ATOM     16 HG   SER B 302      16.158   8.044  32.814  1.00 38.63 LIG 0.21  HD
ENDBRANCH 14 15
ENDBRANCH 6 14
ENDBRANCH 3 6
ENDBRANCH 1 2
BRANCH 1 17
ATOM     17  CB  VAL B 303      12.136   5.611  29.453  1.00 37.28 LIG 0.01  C 
ATOM     18  CG1 VAL B 303      11.950   7.109  29.307  1.00 36.92 LIG 0.01  C 
ATOM     19  CG2 VAL B 303      13.536   5.205  29.013  1.00 37.06 LIG 0.01  C 
ENDBRANCH 1 17
BRANCH 1 20
ATOM     20  C   VAL B 303      11.951   3.668  31.011  1.00 37.27 LIG 0.24  C 
ATOM     21 O    VAL B 303      12.192   2.989  30.011  1.00 36.92 LIG-0.27  OA
ATOM     22  N   SER B 304      11.737   3.137  32.209  1.00 37.37 LIG-0.34  N 
ATOM     23 H    SER B 304      11.580   3.596  32.919  1.00 37.37 LIG 0.16  HD
BRANCH 22 24
ATOM     24  CA  SER B 304      11.753   1.694  32.414  1.00 37.74 LIG 0.20  C 
BRANCH 24 25
ATOM     25  CB  SER B 304      13.184   1.159  32.317  1.00 37.88 LIG 0.20  C 
BRANCH 25 26
ATOM     26 OG   SER B 304      13.498   0.796  30.982  1.00 38.36 LIG-0.40  OA
ATOM     27 HG   SER B 304      12.869   1.024  30.474  1.00 38.36 LIG 0.21  HD
ENDBRANCH 25 26
ENDBRANCH 24 25
BRANCH 24 28
ATOM     28  C   SER B 304      11.169   1.373  33.786  1.00 37.93 LIG 0.24  C 
ATOM     29 O    SER B 304      11.322   0.259  34.287  1.00 38.21 LIG-0.27  OA
ATOM     30  N   ALA B 305      10.504   2.351  34.392  1.00 38.06 LIG-0.35  N 
ATOM     31 H    ALA B 305      10.387   3.133  34.055  1.00 38.06 LIG 0.16  HD
BRANCH 30 32
ATOM     32  CA  ALA B 305       9.907   2.164  35.710  1.00 38.30 LIG 0.16  C 
ATOM     33  CB  ALA B 305      10.449   3.217  36.675  1.00 38.13 LIG 0.04  C 
BRANCH 32 34
ATOM     34  C   ALA B 305       8.386   2.250  35.648  1.00 38.47 LIG 0.22  C 
ATOM     35 O    ALA B 305       7.829   2.011  34.557  1.00 38.58 LIG-0.29  OA
ENDBRANCH 32 34
ENDBRANCH 30 32
ENDBRANCH 24 28
ENDBRANCH 22 24
ENDBRANCH 1 20
TORSDOF 14
ENDMDL
MODEL 72
USER: ADFR SOLUTION from run 61
USER: SCORE 10.122837 LL:  -1.606 LR:  -9.376 RR:   0.000 FEB:  -5.200
USER: RMSD 6.966719
USER: SEED 60
USER: STATUS no improvement in best in 24 clusters for 5 generations
USER: GENES 16
USER: genes 0 Translation |==|  0.74754 0.72236 0.43145
USER: genes 1 Rotation |==|  0.32768 0.36348 0.75199 0.87171
USER: genes 2 Torsion [CB]-CA--N-[C] |==|  0.86663
USER: genes 3 Torsion [N]-C--CA-[N] |==|  0.45859
USER: genes 4 Torsion [C]-CA--N-[C] |==|  0.62432
USER: genes 5 Torsion [N]-C--CA-[N] |==|  0.39957
USER: genes 6 Torsion [C]-CA--CB-[OG] |==|  0.96802
USER: genes 7 Torsion [CA]-CB--OG-[HG] |==|  0.15838
USER: genes 8 Torsion [N]-CA--CB-[CG1] |==|  0.31927
USER: genes 9 Torsion [N]-CA--C-[N] |==|  0.41109
USER: genes 10 Torsion [C]-N--CA-[CB] |==|  0.51667
USER: genes 11 Torsion [N]-CA--CB-[OG] |==|  0.05502
USER: genes 12 Torsion [CA]-CB--OG-[HG] |==|  0.81560
USER: genes 13 Torsion [N]-CA--C-[N] |==|  0.42386
USER: genes 14 Torsion [C]-N--CA-[C] |==|  0.83765
USER: genes 15 Torsion [N]-CA--C-[O] |==|  0.33552
ROOT
ATOM      1  CA  VAL B 303      18.088   9.139  32.404  1.00 37.13 LIG 0.18  C 
ENDROOT
BRANCH 1 2
ATOM      2  N   VAL B 303      17.297   8.043  32.948  1.00 37.20 LIG-0.35  N 
ATOM      3  C   SER B 302      16.661   7.179  32.163  1.00 37.39 LIG 0.24  C 
ATOM      4 O    SER B 302      16.682   7.253  30.931  1.00 37.76 LIG-0.27  OA
ATOM      5 H    VAL B 303      17.281   8.009  33.808  1.00 37.20 LIG 0.16  HD
BRANCH 3 6
ATOM      6  CA  SER B 302      15.881   6.076  32.870  1.00 37.09 LIG 0.20  C 
BRANCH 6 7
ATOM      7  N   SER B 302      14.962   5.422  31.948  1.00 36.48 LIG-0.34  N 
ATOM      8 H    SER B 302      15.302   5.234  31.181  1.00 36.48 LIG 0.16  HD
ATOM      9  C   ALA B 301      13.707   5.149  32.291  1.00 36.26 LIG 0.26  C 
ATOM     10 O    ALA B 301      13.242   5.420  33.399  1.00 35.88 LIG-0.27  OA
BRANCH 9 11
ATOM     11  CA  ALA B 301      12.848   4.469  31.230  1.00 36.43 LIG 0.40  C 
ATOM     12  CB  ALA B 301      12.055   5.515  30.452  1.00 36.70 LIG 0.06  C 
ATOM     13  N   ALA B 301      11.912   3.485  31.850  1.00 36.51 LIG 0.61  N 
ENDBRANCH 9 11
ENDBRANCH 6 7
BRANCH 6 14
ATOM     14  CB  SER B 302      16.860   5.059  33.464  1.00 37.65 LIG 0.20  C 
BRANCH 14 15
ATOM     15 OG   SER B 302      18.173   5.271  32.978  1.00 38.63 LIG-0.40  OA
ATOM     16 HG   SER B 302      18.413   6.057  33.152  1.00 38.63 LIG 0.21  HD
ENDBRANCH 14 15
ENDBRANCH 6 14
ENDBRANCH 3 6
ENDBRANCH 1 2
BRANCH 1 17
ATOM     17  CB  VAL B 303      19.047   8.651  31.287  1.00 37.28 LIG 0.01  C 
ATOM     18  CG1 VAL B 303      18.655   9.270  29.959  1.00 36.92 LIG 0.01  C 
ATOM     19  CG2 VAL B 303      20.484   9.011  31.637  1.00 37.06 LIG 0.01  C 
ENDBRANCH 1 17
BRANCH 1 20
ATOM     20  C   VAL B 303      17.159  10.195  31.822  1.00 37.27 LIG 0.24  C 
ATOM     21 O    VAL B 303      16.076   9.878  31.327  1.00 36.92 LIG-0.27  OA
ATOM     22  N   SER B 304      17.578  11.453  31.892  1.00 37.37 LIG-0.34  N 
ATOM     23 H    SER B 304      18.324  11.694  32.245  1.00 37.37 LIG 0.16  HD
BRANCH 22 24
ATOM     24  CA  SER B 304      16.780  12.551  31.359  1.00 37.74 LIG 0.20  C 
BRANCH 24 25
ATOM     25  CB  SER B 304      17.563  13.863  31.438  1.00 37.88 LIG 0.20  C 
BRANCH 25 26
ATOM     26 OG   SER B 304      18.953  13.616  31.566  1.00 38.36 LIG-0.40  OA
ATOM     27 HG   SER B 304      19.106  13.251  32.307  1.00 38.36 LIG 0.21  HD
ENDBRANCH 25 26
ENDBRANCH 24 25
BRANCH 24 28
ATOM     28  C   SER B 304      16.415  12.249  29.908  1.00 37.93 LIG 0.24  C 
ATOM     29 O    SER B 304      17.139  11.531  29.217  1.00 38.21 LIG-0.27  OA
ATOM     30  N   ALA B 305      15.293  12.795  29.452  1.00 38.06 LIG-0.35  N 
ATOM     31 H    ALA B 305      14.779  13.299  29.921  1.00 38.06 LIG 0.16  HD
BRANCH 30 32
ATOM     32  CA  ALA B 305      14.839  12.572  28.084  1.00 38.30 LIG 0.16  C 
ATOM     33  CB  ALA B 305      13.524  13.313  27.850  1.00 38.13 LIG 0.04  C 
BRANCH 32 34
ATOM     34  C   ALA B 305      15.881  13.032  27.071  1.00 38.47 LIG 0.22  C 
ATOM     35 O    ALA B 305      16.333  12.188  26.269  1.00 38.58 LIG-0.29  OA
ENDBRANCH 32 34
ENDBRANCH 30 32
ENDBRANCH 24 28
ENDBRANCH 22 24
ENDBRANCH 1 20
TORSDOF 14
ENDMDL
MODEL 73
USER: ADFR SOLUTION from run 178
USER: SCORE 9.961673 LL:  -1.579 LR:  -9.367 RR:   0.000 FEB:  -5.191
USER: RMSD 7.865475
USER: SEED 177
USER: STATUS no improvement in best in 29 clusters for 5 generations
USER: GENES 16
USER: genes 0 Translation |==|  0.46681 0.51511 0.35449
USER: genes 1 Rotation |==|  0.57429 0.40485 0.98521 0.50217
USER: genes 2 Torsion [CB]-CA--N-[C] |==|  0.77735
USER: genes 3 Torsion [N]-C--CA-[N] |==|  0.19417
USER: genes 4 Torsion [C]-CA--N-[C] |==|  0.77140
USER: genes 5 Torsion [N]-C--CA-[N] |==|  0.43897
USER: genes 6 Torsion [C]-CA--CB-[OG] |==|  0.57068
USER: genes 7 Torsion [CA]-CB--OG-[HG] |==|  0.33427
USER: genes 8 Torsion [N]-CA--CB-[CG1] |==|  0.75915
USER: genes 9 Torsion [N]-CA--C-[N] |==|  0.19585
USER: genes 10 Torsion [C]-N--CA-[CB] |==|  0.78008
USER: genes 11 Torsion [N]-CA--CB-[OG] |==|  0.82730
USER: genes 12 Torsion [CA]-CB--OG-[HG] |==|  0.15892
USER: genes 13 Torsion [N]-CA--C-[N] |==|  0.13333
USER: genes 14 Torsion [C]-N--CA-[C] |==|  0.12433
USER: genes 15 Torsion [N]-CA--C-[O] |==|  0.59486
ROOT
ATOM      1  CA  VAL B 303      12.403   4.942  31.249  1.00 37.13 LIG 0.18  C 
ENDROOT
BRANCH 1 2
ATOM      2  N   VAL B 303      13.823   5.000  31.571  1.00 37.20 LIG-0.35  N 
ATOM      3  C   SER B 302      14.653   4.011  31.256  1.00 37.39 LIG 0.24  C 
ATOM      4 O    SER B 302      14.283   2.979  30.691  1.00 37.76 LIG-0.27  OA
ATOM      5 H    VAL B 303      14.066   5.719  31.975  1.00 37.20 LIG 0.16  HD
BRANCH 3 6
ATOM      6  CA  SER B 302      16.115   4.212  31.644  1.00 37.09 LIG 0.20  C 
BRANCH 6 7
ATOM      7  N   SER B 302      16.278   4.148  33.090  1.00 36.48 LIG-0.34  N 
ATOM      8 H    SER B 302      16.540   3.383  33.385  1.00 36.48 LIG 0.16  HD
ATOM      9  C   ALA B 301      16.038   5.200  33.867  1.00 36.26 LIG 0.26  C 
ATOM     10 O    ALA B 301      15.672   6.288  33.423  1.00 35.88 LIG-0.27  OA
BRANCH 9 11
ATOM     11  CA  ALA B 301      16.240   4.995  35.365  1.00 36.43 LIG 0.40  C 
ATOM     12  CB  ALA B 301      15.025   4.295  35.964  1.00 36.70 LIG 0.06  C 
ATOM     13  N   ALA B 301      16.463   6.300  36.056  1.00 36.51 LIG 0.61  N 
ENDBRANCH 9 11
ENDBRANCH 6 7
BRANCH 6 14
ATOM     14  CB  SER B 302      16.975   3.146  30.959  1.00 37.65 LIG 0.20  C 
BRANCH 14 15
ATOM     15 OG   SER B 302      18.166   2.907  31.687  1.00 38.63 LIG-0.40  OA
ATOM     16 HG   SER B 302      18.196   2.100  31.919  1.00 38.63 LIG 0.21  HD
ENDBRANCH 14 15
ENDBRANCH 6 14
ENDBRANCH 3 6
ENDBRANCH 1 2
BRANCH 1 17
ATOM     17  CB  VAL B 303      12.138   5.315  29.768  1.00 37.28 LIG 0.01  C 
ATOM     18  CG1 VAL B 303      11.990   6.818  29.629  1.00 36.92 LIG 0.01  C 
ATOM     19  CG2 VAL B 303      13.274   4.810  28.889  1.00 37.06 LIG 0.01  C 
ENDBRANCH 1 17
BRANCH 1 20
ATOM     20  C   VAL B 303      11.882   3.534  31.500  1.00 37.27 LIG 0.24  C 
ATOM     21 O    VAL B 303      11.576   2.799  30.559  1.00 36.92 LIG-0.27  OA
ATOM     22  N   SER B 304      11.792   3.154  32.769  1.00 37.37 LIG-0.34  N 
ATOM     23 H    SER B 304      12.013   3.649  33.437  1.00 37.37 LIG 0.16  HD
BRANCH 22 24
ATOM     24  CA  SER B 304      11.296   1.833  33.134  1.00 37.74 LIG 0.20  C 
BRANCH 24 25
ATOM     25  CB  SER B 304       9.768   1.801  33.064  1.00 37.88 LIG 0.20  C 
BRANCH 25 26
ATOM     26 OG   SER B 304       9.201   2.715  33.989  1.00 38.36 LIG-0.40  OA
ATOM     27 HG   SER B 304       9.493   3.488  33.834  1.00 38.36 LIG 0.21  HD
ENDBRANCH 25 26
ENDBRANCH 24 25
BRANCH 24 28
ATOM     28  C   SER B 304      11.883   0.795  32.181  1.00 37.93 LIG 0.24  C 
ATOM     29 O    SER B 304      11.157  -0.046  31.648  1.00 38.21 LIG-0.27  OA
ATOM     30  N   ALA B 305      13.193   0.857  31.968  1.00 38.06 LIG-0.35  N 
ATOM     31 H    ALA B 305      13.713   1.435  32.334  1.00 38.06 LIG 0.16  HD
BRANCH 30 32
ATOM     32  CA  ALA B 305      13.864  -0.079  31.073  1.00 38.30 LIG 0.16  C 
ATOM     33  CB  ALA B 305      14.039  -1.426  31.771  1.00 38.13 LIG 0.04  C 
BRANCH 32 34
ATOM     34  C   ALA B 305      13.085  -0.263  29.776  1.00 38.47 LIG 0.22  C 
ATOM     35 O    ALA B 305      13.105  -1.388  29.234  1.00 38.58 LIG-0.29  OA
ENDBRANCH 32 34
ENDBRANCH 30 32
ENDBRANCH 24 28
ENDBRANCH 22 24
ENDBRANCH 1 20
TORSDOF 14
ENDMDL
MODEL 74
USER: ADFR SOLUTION from run 107
USER: SCORE 9.234414 LL:  -1.983 LR:  -9.375 RR:   0.000 FEB:  -5.199
USER: RMSD 6.173032
USER: SEED 106
USER: STATUS no improvement in best in 24 clusters for 5 generations
USER: GENES 16
USER: genes 0 Translation |==|  0.64269 0.57881 0.34212
USER: genes 1 Rotation |==|  0.73969 0.83900 0.61557 0.75351
USER: genes 2 Torsion [CB]-CA--N-[C] |==|  0.22716
USER: genes 3 Torsion [N]-C--CA-[N] |==|  0.03890
USER: genes 4 Torsion [C]-CA--N-[C] |==|  0.18498
USER: genes 5 Torsion [N]-C--CA-[N] |==|  0.83254
USER: genes 6 Torsion [C]-CA--CB-[OG] |==|  0.56554
USER: genes 7 Torsion [CA]-CB--OG-[HG] |==|  0.86423
USER: genes 8 Torsion [N]-CA--CB-[CG1] |==|  0.75167
USER: genes 9 Torsion [N]-CA--C-[N] |==|  0.46976
USER: genes 10 Torsion [C]-N--CA-[CB] |==|  0.18529
USER: genes 11 Torsion [N]-CA--CB-[OG] |==|  0.46918
USER: genes 12 Torsion [CA]-CB--OG-[HG] |==|  0.13891
USER: genes 13 Torsion [N]-CA--C-[N] |==|  0.46851
USER: genes 14 Torsion [C]-N--CA-[C] |==|  0.18282
USER: genes 15 Torsion [N]-CA--C-[O] |==|  0.99676
ROOT
ATOM      1  CA  VAL B 303      15.965   6.232  31.064  1.00 37.13 LIG 0.18  C 
ENDROOT
BRANCH 1 2
ATOM      2  N   VAL B 303      16.497   4.881  31.189  1.00 37.20 LIG-0.35  N 
ATOM      3  C   SER B 302      16.016   3.869  30.475  1.00 37.39 LIG 0.24  C 
ATOM      4 O    SER B 302      15.082   3.996  29.678  1.00 37.76 LIG-0.27  OA
ATOM      5 H    VAL B 303      17.139   4.804  31.756  1.00 37.20 LIG 0.16  HD
BRANCH 3 6
ATOM      6  CA  SER B 302      16.676   2.513  30.701  1.00 37.09 LIG 0.20  C 
BRANCH 6 7
ATOM      7  N   SER B 302      17.498   2.534  31.904  1.00 36.48 LIG-0.34  N 
ATOM      8 H    SER B 302      18.342   2.452  31.760  1.00 36.48 LIG 0.16  HD
ATOM      9  C   ALA B 301      16.962   2.668  33.113  1.00 36.26 LIG 0.26  C 
ATOM     10 O    ALA B 301      15.751   2.791  33.297  1.00 35.88 LIG-0.27  OA
BRANCH 9 11
ATOM     11  CA  ALA B 301      17.934   2.665  34.289  1.00 36.43 LIG 0.40  C 
ATOM     12  CB  ALA B 301      18.905   3.836  34.166  1.00 36.70 LIG 0.06  C 
ATOM     13  N   ALA B 301      18.695   1.383  34.350  1.00 36.51 LIG 0.61  N 
ENDBRANCH 9 11
ENDBRANCH 6 7
BRANCH 6 14
ATOM     14  CB  SER B 302      15.597   1.431  30.807  1.00 37.65 LIG 0.20  C 
BRANCH 14 15
ATOM     15 OG   SER B 302      16.071   0.307  31.526  1.00 38.63 LIG-0.40  OA
ATOM     16 HG   SER B 302      16.820   0.076  31.223  1.00 38.63 LIG 0.21  HD
ENDBRANCH 14 15
ENDBRANCH 6 14
ENDBRANCH 3 6
ENDBRANCH 1 2
BRANCH 1 17
ATOM     17  CB  VAL B 303      14.675   6.417  31.905  1.00 37.28 LIG 0.01  C 
ATOM     18  CG1 VAL B 303      13.458   6.052  31.077  1.00 36.92 LIG 0.01  C 
ATOM     19  CG2 VAL B 303      14.740   5.558  33.160  1.00 37.06 LIG 0.01  C 
ENDBRANCH 1 17
BRANCH 1 20
ATOM     20  C   VAL B 303      17.007   7.235  31.539  1.00 37.27 LIG 0.24  C 
ATOM     21 O    VAL B 303      18.024   6.857  32.123  1.00 36.92 LIG-0.27  OA
ATOM     22  N   SER B 304      16.758   8.513  31.280  1.00 37.37 LIG-0.34  N 
ATOM     23 H    SER B 304      16.060   8.793  30.862  1.00 37.37 LIG 0.16  HD
BRANCH 22 24
ATOM     24  CA  SER B 304      17.676   9.565  31.696  1.00 37.74 LIG 0.20  C 
BRANCH 24 25
ATOM     25  CB  SER B 304      18.997   9.451  30.931  1.00 37.88 LIG 0.20  C 
BRANCH 25 26
ATOM     26 OG   SER B 304      19.799  10.604  31.133  1.00 38.36 LIG-0.40  OA
ATOM     27 HG   SER B 304      19.854  10.766  31.955  1.00 38.36 LIG 0.21  HD
ENDBRANCH 25 26
ENDBRANCH 24 25
BRANCH 24 28
ATOM     28  C   SER B 304      17.037  10.925  31.431  1.00 37.93 LIG 0.24  C 
ATOM     29 O    SER B 304      16.011  11.013  30.756  1.00 38.21 LIG-0.27  OA
ATOM     30  N   ALA B 305      17.642  11.981  31.965  1.00 38.06 LIG-0.35  N 
ATOM     31 H    ALA B 305      18.359  11.936  32.436  1.00 38.06 LIG 0.16  HD
BRANCH 30 32
ATOM     32  CA  ALA B 305      17.119  13.330  31.785  1.00 38.30 LIG 0.16  C 
ATOM     33  CB  ALA B 305      16.988  13.639  30.295  1.00 38.13 LIG 0.04  C 
BRANCH 32 34
ATOM     34  C   ALA B 305      15.769  13.499  32.472  1.00 38.47 LIG 0.22  C 
ATOM     35 O    ALA B 305      15.280  12.510  33.057  1.00 38.58 LIG-0.29  OA
ENDBRANCH 32 34
ENDBRANCH 30 32
ENDBRANCH 24 28
ENDBRANCH 22 24
ENDBRANCH 1 20
TORSDOF 14
ENDMDL
MODEL 75
USER: ADFR SOLUTION from run 61
USER: SCORE 9.685049 LL:  -2.157 LR:  -9.366 RR:   0.000 FEB:  -5.189
USER: RMSD 8.000789
USER: SEED 60
USER: STATUS no improvement in best in 24 clusters for 5 generations
USER: GENES 16
USER: genes 0 Translation |==|  0.76738 0.69030 0.45097
USER: genes 1 Rotation |==|  0.22219 0.39754 0.78213 0.78762
USER: genes 2 Torsion [CB]-CA--N-[C] |==|  0.87416
USER: genes 3 Torsion [N]-C--CA-[N] |==|  0.95989
USER: genes 4 Torsion [C]-CA--N-[C] |==|  0.81497
USER: genes 5 Torsion [N]-C--CA-[N] |==|  0.29338
USER: genes 6 Torsion [C]-CA--CB-[OG] |==|  0.58730
USER: genes 7 Torsion [CA]-CB--OG-[HG] |==|  0.97714
USER: genes 8 Torsion [N]-CA--CB-[CG1] |==|  0.47667
USER: genes 9 Torsion [N]-CA--C-[N] |==|  0.30085
USER: genes 10 Torsion [C]-N--CA-[CB] |==|  0.43920
USER: genes 11 Torsion [N]-CA--CB-[OG] |==|  0.91637
USER: genes 12 Torsion [CA]-CB--OG-[HG] |==|  0.40581
USER: genes 13 Torsion [N]-CA--C-[N] |==|  0.40326
USER: genes 14 Torsion [C]-N--CA-[C] |==|  0.16278
USER: genes 15 Torsion [N]-CA--C-[O] |==|  0.09348
ROOT
ATOM      1  CA  VAL B 303      18.489   8.490  32.697  1.00 37.13 LIG 0.18  C 
ENDROOT
BRANCH 1 2
ATOM      2  N   VAL B 303      17.669   7.719  33.622  1.00 37.20 LIG-0.35  N 
ATOM      3  C   SER B 302      17.274   6.481  33.345  1.00 37.39 LIG 0.24  C 
ATOM      4 O    SER B 302      17.557   5.908  32.289  1.00 37.76 LIG-0.27  OA
ATOM      5 H    VAL B 303      17.469   8.134  34.349  1.00 37.20 LIG 0.16  HD
BRANCH 3 6
ATOM      6  CA  SER B 302      16.429   5.791  34.410  1.00 37.09 LIG 0.20  C 
BRANCH 6 7
ATOM      7  N   SER B 302      16.503   6.511  35.675  1.00 36.48 LIG-0.34  N 
ATOM      8 H    SER B 302      15.763   6.875  35.920  1.00 36.48 LIG 0.16  HD
ATOM      9  C   ALA B 301      17.633   6.584  36.371  1.00 36.26 LIG 0.26  C 
ATOM     10 O    ALA B 301      18.679   6.050  36.005  1.00 35.88 LIG-0.27  OA
BRANCH 9 11
ATOM     11  CA  ALA B 301      17.575   7.377  37.674  1.00 36.43 LIG 0.40  C 
ATOM     12  CB  ALA B 301      18.761   8.332  37.755  1.00 36.70 LIG 0.06  C 
ATOM     13  N   ALA B 301      17.581   6.463  38.854  1.00 36.51 LIG 0.61  N 
ENDBRANCH 9 11
ENDBRANCH 6 7
BRANCH 6 14
ATOM     14  CB  SER B 302      14.978   5.698  33.929  1.00 37.65 LIG 0.20  C 
BRANCH 14 15
ATOM     15 OG   SER B 302      14.075   5.761  35.018  1.00 38.63 LIG-0.40  OA
ATOM     16 HG   SER B 302      14.503   5.725  35.740  1.00 38.63 LIG 0.21  HD
ENDBRANCH 14 15
ENDBRANCH 6 14
ENDBRANCH 3 6
ENDBRANCH 1 2
BRANCH 1 17
ATOM     17  CB  VAL B 303      19.658   7.643  32.129  1.00 37.28 LIG 0.01  C 
ATOM     18  CG1 VAL B 303      20.361   8.405  31.022  1.00 36.92 LIG 0.01  C 
ATOM     19  CG2 VAL B 303      20.640   7.294  33.239  1.00 37.06 LIG 0.01  C 
ENDBRANCH 1 17
BRANCH 1 20
ATOM     20  C   VAL B 303      17.629   8.974  31.538  1.00 37.27 LIG 0.24  C 
ATOM     21 O    VAL B 303      17.214   8.184  30.688  1.00 36.92 LIG-0.27  OA
ATOM     22  N   SER B 304      17.353  10.273  31.510  1.00 37.37 LIG-0.34  N 
ATOM     23 H    SER B 304      17.624  10.836  32.101  1.00 37.37 LIG 0.16  HD
BRANCH 22 24
ATOM     24  CA  SER B 304      16.549  10.855  30.443  1.00 37.74 LIG 0.20  C 
BRANCH 24 25
ATOM     25  CB  SER B 304      15.937  12.181  30.903  1.00 37.88 LIG 0.20  C 
BRANCH 25 26
ATOM     26 OG   SER B 304      15.706  12.172  32.302  1.00 38.36 LIG-0.40  OA
ATOM     27 HG   SER B 304      15.825  12.944  32.611  1.00 38.36 LIG 0.21  HD
ENDBRANCH 25 26
ENDBRANCH 24 25
BRANCH 24 28
ATOM     28  C   SER B 304      17.428  11.085  29.218  1.00 37.93 LIG 0.24  C 
ATOM     29 O    SER B 304      18.609  11.410  29.346  1.00 38.21 LIG-0.27  OA
ATOM     30  N   ALA B 305      16.852  10.915  28.033  1.00 38.06 LIG-0.35  N 
ATOM     31 H    ALA B 305      16.028  10.691  27.926  1.00 38.06 LIG 0.16  HD
BRANCH 30 32
ATOM     32  CA  ALA B 305      17.594  11.100  26.791  1.00 38.30 LIG 0.16  C 
ATOM     33  CB  ALA B 305      18.050  12.553  26.674  1.00 38.13 LIG 0.04  C 
BRANCH 32 34
ATOM     34  C   ALA B 305      18.799  10.170  26.720  1.00 38.47 LIG 0.22  C 
ATOM     35 O    ALA B 305      18.702   9.041  27.245  1.00 38.58 LIG-0.29  OA
ENDBRANCH 32 34
ENDBRANCH 30 32
ENDBRANCH 24 28
ENDBRANCH 22 24
ENDBRANCH 1 20
TORSDOF 14
ENDMDL
MODEL 76
USER: ADFR SOLUTION from run 104
USER: SCORE 9.592414 LL:  -1.902 LR:  -9.365 RR:   0.000 FEB:  -5.189
USER: RMSD 3.199100
USER: SEED 103
USER: STATUS no improvement in best in 21 clusters for 5 generations
USER: GENES 16
USER: genes 0 Translation |==|  0.52212 0.41063 0.32496
USER: genes 1 Rotation |==|  0.57985 0.61125 0.54239 0.97901
USER: genes 2 Torsion [CB]-CA--N-[C] |==|  0.87450
USER: genes 3 Torsion [N]-C--CA-[N] |==|  0.34341
USER: genes 4 Torsion [C]-CA--N-[C] |==|  0.63402
USER: genes 5 Torsion [N]-C--CA-[N] |==|  0.95410
USER: genes 6 Torsion [C]-CA--CB-[OG] |==|  0.65870
USER: genes 7 Torsion [CA]-CB--OG-[HG] |==|  0.56434
USER: genes 8 Torsion [N]-CA--CB-[CG1] |==|  0.44800
USER: genes 9 Torsion [N]-CA--C-[N] |==|  0.78335
USER: genes 10 Torsion [C]-N--CA-[CB] |==|  0.81591
USER: genes 11 Torsion [N]-CA--CB-[OG] |==|  0.84923
USER: genes 12 Torsion [CA]-CB--OG-[HG] |==|  0.04344
USER: genes 13 Torsion [N]-CA--C-[N] |==|  0.51649
USER: genes 14 Torsion [C]-N--CA-[C] |==|  0.76192
USER: genes 15 Torsion [N]-CA--C-[O] |==|  0.08506
ROOT
ATOM      1  CA  VAL B 303      13.523   2.826  30.806  1.00 37.13 LIG 0.18  C 
ENDROOT
BRANCH 1 2
ATOM      2  N   VAL B 303      12.728   2.104  31.791  1.00 37.20 LIG-0.35  N 
ATOM      3  C   SER B 302      11.584   2.590  32.261  1.00 37.39 LIG 0.24  C 
ATOM      4 O    SER B 302      11.128   3.684  31.915  1.00 37.76 LIG-0.27  OA
ATOM      5 H    VAL B 303      13.062   1.349  32.033  1.00 37.20 LIG 0.16  HD
BRANCH 3 6
ATOM      6  CA  SER B 302      10.852   1.722  33.279  1.00 37.09 LIG 0.20  C 
BRANCH 6 7
ATOM      7  N   SER B 302      10.622   2.457  34.515  1.00 36.48 LIG-0.34  N 
ATOM      8 H    SER B 302      10.289   3.242  34.405  1.00 36.48 LIG 0.16  HD
ATOM      9  C   ALA B 301      10.911   1.933  35.702  1.00 36.26 LIG 0.26  C 
ATOM     10 O    ALA B 301      11.379   0.803  35.838  1.00 35.88 LIG-0.27  OA
BRANCH 9 11
ATOM     11  CA  ALA B 301      10.629   2.812  36.917  1.00 36.43 LIG 0.40  C 
ATOM     12  CB  ALA B 301       9.377   2.320  37.638  1.00 36.70 LIG 0.06  C 
ATOM     13  N   ALA B 301      10.451   4.238  36.514  1.00 36.51 LIG 0.61  N 
ENDBRANCH 9 11
ENDBRANCH 6 7
BRANCH 6 14
ATOM     14  CB  SER B 302       9.523   1.247  32.682  1.00 37.65 LIG 0.20  C 
BRANCH 14 15
ATOM     15 OG   SER B 302       8.431   1.635  33.496  1.00 38.63 LIG-0.40  OA
ATOM     16 HG   SER B 302       7.779   1.126  33.351  1.00 38.63 LIG 0.21  HD
ENDBRANCH 14 15
ENDBRANCH 6 14
ENDBRANCH 3 6
ENDBRANCH 1 2
BRANCH 1 17
ATOM     17  CB  VAL B 303      12.641   3.392  29.664  1.00 37.28 LIG 0.01  C 
ATOM     18  CG1 VAL B 303      13.383   4.493  28.931  1.00 36.92 LIG 0.01  C 
ATOM     19  CG2 VAL B 303      12.255   2.279  28.699  1.00 37.06 LIG 0.01  C 
ENDBRANCH 1 17
BRANCH 1 20
ATOM     20  C   VAL B 303      14.244   3.982  31.486  1.00 37.27 LIG 0.24  C 
ATOM     21 O    VAL B 303      15.442   3.901  31.763  1.00 36.92 LIG-0.27  OA
ATOM     22  N   SER B 304      13.516   5.062  31.743  1.00 37.37 LIG-0.34  N 
ATOM     23 H    SER B 304      12.683   5.141  31.546  1.00 37.37 LIG 0.16  HD
BRANCH 22 24
ATOM     24  CA  SER B 304      14.093   6.228  32.401  1.00 37.74 LIG 0.20  C 
BRANCH 24 25
ATOM     25  CB  SER B 304      14.488   5.886  33.839  1.00 37.88 LIG 0.20  C 
BRANCH 25 26
ATOM     26 OG   SER B 304      13.388   5.342  34.550  1.00 38.36 LIG-0.40  OA
ATOM     27 HG   SER B 304      12.791   5.109  34.006  1.00 38.36 LIG 0.21  HD
ENDBRANCH 25 26
ENDBRANCH 24 25
BRANCH 24 28
ATOM     28  C   SER B 304      15.320   6.691  31.620  1.00 37.93 LIG 0.24  C 
ATOM     29 O    SER B 304      15.612   6.165  30.545  1.00 38.21 LIG-0.27  OA
ATOM     30  N   ALA B 305      16.032   7.673  32.160  1.00 38.06 LIG-0.35  N 
ATOM     31 H    ALA B 305      15.843   8.049  32.910  1.00 38.06 LIG 0.16  HD
BRANCH 30 32
ATOM     32  CA  ALA B 305      17.222   8.203  31.502  1.00 38.30 LIG 0.16  C 
ATOM     33  CB  ALA B 305      17.430   9.661  31.910  1.00 38.13 LIG 0.04  C 
BRANCH 32 34
ATOM     34  C   ALA B 305      18.460   7.384  31.850  1.00 38.47 LIG 0.22  C 
ATOM     35 O    ALA B 305      18.311   6.167  32.086  1.00 38.58 LIG-0.29  OA
ENDBRANCH 32 34
ENDBRANCH 30 32
ENDBRANCH 24 28
ENDBRANCH 22 24
ENDBRANCH 1 20
TORSDOF 14
ENDMDL
MODEL 77
USER: ADFR SOLUTION from run 32
USER: SCORE 10.123174 LL:  -2.222 LR:  -9.366 RR:   0.000 FEB:  -5.190
USER: RMSD 6.249827
USER: SEED 31
USER: STATUS no improvement in best in 28 clusters for 5 generations
USER: GENES 16
USER: genes 0 Translation |==|  0.69911 0.67244 0.38942
USER: genes 1 Rotation |==|  0.81700 0.57561 0.38236 0.86050
USER: genes 2 Torsion [CB]-CA--N-[C] |==|  0.41223
USER: genes 3 Torsion [N]-C--CA-[N] |==|  0.47103
USER: genes 4 Torsion [C]-CA--N-[C] |==|  0.79654
USER: genes 5 Torsion [N]-C--CA-[N] |==|  0.66125
USER: genes 6 Torsion [C]-CA--CB-[OG] |==|  0.53840
USER: genes 7 Torsion [CA]-CB--OG-[HG] |==|  0.97922
USER: genes 8 Torsion [N]-CA--CB-[CG1] |==|  0.45679
USER: genes 9 Torsion [N]-CA--C-[N] |==|  0.85005
USER: genes 10 Torsion [C]-N--CA-[CB] |==|  0.16044
USER: genes 11 Torsion [N]-CA--CB-[OG] |==|  0.72890
USER: genes 12 Torsion [CA]-CB--OG-[HG] |==|  0.21099
USER: genes 13 Torsion [N]-CA--C-[N] |==|  0.09692
USER: genes 14 Torsion [C]-N--CA-[C] |==|  0.15236
USER: genes 15 Torsion [N]-CA--C-[O] |==|  0.34755
ROOT
ATOM      1  CA  VAL B 303      17.107   8.128  31.773  1.00 37.13 LIG 0.18  C 
ENDROOT
BRANCH 1 2
ATOM      2  N   VAL B 303      15.844   7.632  32.306  1.00 37.20 LIG-0.35  N 
ATOM      3  C   SER B 302      15.278   6.521  31.846  1.00 37.39 LIG 0.24  C 
ATOM      4 O    SER B 302      15.767   5.847  30.935  1.00 37.76 LIG-0.27  OA
ATOM      5 H    VAL B 303      15.509   8.117  32.932  1.00 37.20 LIG 0.16  HD
BRANCH 3 6
ATOM      6  CA  SER B 302      13.964   6.116  32.504  1.00 37.09 LIG 0.20  C 
BRANCH 6 7
ATOM      7  N   SER B 302      13.325   5.037  31.761  1.00 36.48 LIG-0.34  N 
ATOM      8 H    SER B 302      13.363   4.269  32.145  1.00 36.48 LIG 0.16  HD
ATOM      9  C   ALA B 301      12.739   5.252  30.587  1.00 36.26 LIG 0.26  C 
ATOM     10 O    ALA B 301      12.689   6.362  30.058  1.00 35.88 LIG-0.27  OA
BRANCH 9 11
ATOM     11  CA  ALA B 301      12.115   4.035  29.910  1.00 36.43 LIG 0.40  C 
ATOM     12  CB  ALA B 301      12.325   2.794  30.772  1.00 36.70 LIG 0.06  C 
ATOM     13  N   ALA B 301      12.707   3.815  28.557  1.00 36.51 LIG 0.61  N 
ENDBRANCH 9 11
ENDBRANCH 6 7
BRANCH 6 14
ATOM     14  CB  SER B 302      14.228   5.686  33.951  1.00 37.65 LIG 0.20  C 
BRANCH 14 15
ATOM     15 OG   SER B 302      13.108   5.011  34.495  1.00 38.63 LIG-0.40  OA
ATOM     16 HG   SER B 302      12.464   5.059  33.958  1.00 38.63 LIG 0.21  HD
ENDBRANCH 14 15
ENDBRANCH 6 14
ENDBRANCH 3 6
ENDBRANCH 1 2
BRANCH 1 17
ATOM     17  CB  VAL B 303      17.181   9.676  31.827  1.00 37.28 LIG 0.01  C 
ATOM     18  CG1 VAL B 303      18.614  10.134  31.636  1.00 36.92 LIG 0.01  C 
ATOM     19  CG2 VAL B 303      16.283  10.281  30.757  1.00 37.06 LIG 0.01  C 
ENDBRANCH 1 17
BRANCH 1 20
ATOM     20  C   VAL B 303      18.260   7.555  32.585  1.00 37.27 LIG 0.24  C 
ATOM     21 O    VAL B 303      19.188   6.962  32.031  1.00 36.92 LIG-0.27  OA
ATOM     22  N   SER B 304      18.207   7.741  33.899  1.00 37.37 LIG-0.34  N 
ATOM     23 H    SER B 304      17.575   8.163  34.301  1.00 37.37 LIG 0.16  HD
BRANCH 22 24
ATOM     24  CA  SER B 304      19.248   7.229  34.781  1.00 37.74 LIG 0.20  C 
BRANCH 24 25
ATOM     25  CB  SER B 304      20.613   7.790  34.376  1.00 37.88 LIG 0.20  C 
BRANCH 25 26
ATOM     26 OG   SER B 304      21.319   6.865  33.566  1.00 38.36 LIG-0.40  OA
ATOM     27 HG   SER B 304      20.998   6.869  32.790  1.00 38.36 LIG 0.21  HD
ENDBRANCH 25 26
ENDBRANCH 24 25
BRANCH 24 28
ATOM     28  C   SER B 304      18.928   7.625  36.220  1.00 37.93 LIG 0.24  C 
ATOM     29 O    SER B 304      19.833   7.900  37.009  1.00 38.21 LIG-0.27  OA
ATOM     30  N   ALA B 305      17.643   7.655  36.557  1.00 38.06 LIG-0.35  N 
ATOM     31 H    ALA B 305      17.001   7.463  36.018  1.00 38.06 LIG 0.16  HD
BRANCH 30 32
ATOM     32  CA  ALA B 305      17.216   8.025  37.901  1.00 38.30 LIG 0.16  C 
ATOM     33  CB  ALA B 305      17.667   6.958  38.898  1.00 38.13 LIG 0.04  C 
BRANCH 32 34
ATOM     34  C   ALA B 305      17.774   9.384  38.307  1.00 38.47 LIG 0.22  C 
ATOM     35 O    ALA B 305      16.969  10.261  38.682  1.00 38.58 LIG-0.29  OA
ENDBRANCH 32 34
ENDBRANCH 30 32
ENDBRANCH 24 28
ENDBRANCH 22 24
ENDBRANCH 1 20
TORSDOF 14
ENDMDL
MODEL 78
USER: ADFR SOLUTION from run 123
USER: SCORE 9.290753 LL:  -1.801 LR:  -9.366 RR:   0.000 FEB:  -5.190
USER: RMSD 9.168144
USER: SEED 122
USER: STATUS no improvement in best in 25 clusters for 5 generations
USER: GENES 16
USER: genes 0 Translation |==|  0.54046 0.53110 0.34079
USER: genes 1 Rotation |==|  0.31971 0.54309 0.05306 0.62604
USER: genes 2 Torsion [CB]-CA--N-[C] |==|  0.41407
USER: genes 3 Torsion [N]-C--CA-[N] |==|  0.35455
USER: genes 4 Torsion [C]-CA--N-[C] |==|  0.61111
USER: genes 5 Torsion [N]-C--CA-[N] |==|  0.32088
USER: genes 6 Torsion [C]-CA--CB-[OG] |==|  0.78342
USER: genes 7 Torsion [CA]-CB--OG-[HG] |==|  0.06477
USER: genes 8 Torsion [N]-CA--CB-[CG1] |==|  0.11794
USER: genes 9 Torsion [N]-CA--C-[N] |==|  0.83551
USER: genes 10 Torsion [C]-N--CA-[CB] |==|  0.83512
USER: genes 11 Torsion [N]-CA--CB-[OG] |==|  0.79318
USER: genes 12 Torsion [CA]-CB--OG-[HG] |==|  0.64090
USER: genes 13 Torsion [N]-CA--C-[N] |==|  0.44338
USER: genes 14 Torsion [C]-N--CA-[C] |==|  0.16265
USER: genes 15 Torsion [N]-CA--C-[O] |==|  0.20556
ROOT
ATOM      1  CA  VAL B 303      13.894   5.266  31.044  1.00 37.13 LIG 0.18  C 
ENDROOT
BRANCH 1 2
ATOM      2  N   VAL B 303      15.029   6.161  30.857  1.00 37.20 LIG-0.35  N 
ATOM      3  C   SER B 302      15.517   6.891  31.854  1.00 37.39 LIG 0.24  C 
ATOM      4 O    SER B 302      15.039   6.878  32.991  1.00 37.76 LIG-0.27  OA
ATOM      5 H    VAL B 303      15.346   6.170  30.057  1.00 37.20 LIG 0.16  HD
BRANCH 3 6
ATOM      6  CA  SER B 302      16.714   7.775  31.516  1.00 37.09 LIG 0.20  C 
BRANCH 6 7
ATOM      7  N   SER B 302      16.471   9.152  31.924  1.00 36.48 LIG-0.34  N 
ATOM      8 H    SER B 302      16.070   9.233  32.681  1.00 36.48 LIG 0.16  HD
ATOM      9  C   ALA B 301      16.847  10.180  31.170  1.00 36.26 LIG 0.26  C 
ATOM     10 O    ALA B 301      17.427  10.041  30.093  1.00 35.88 LIG-0.27  OA
BRANCH 9 11
ATOM     11  CA  ALA B 301      16.525  11.570  31.710  1.00 36.43 LIG 0.40  C 
ATOM     12  CB  ALA B 301      15.680  12.339  30.699  1.00 36.70 LIG 0.06  C 
ATOM     13  N   ALA B 301      17.775  12.331  32.006  1.00 36.51 LIG 0.61  N 
ENDBRANCH 9 11
ENDBRANCH 6 7
BRANCH 6 14
ATOM     14  CB  SER B 302      17.965   7.224  32.206  1.00 37.65 LIG 0.20  C 
BRANCH 14 15
ATOM     15 OG   SER B 302      17.984   7.569  33.579  1.00 38.63 LIG-0.40  OA
ATOM     16 HG   SER B 302      17.200   7.721  33.841  1.00 38.63 LIG 0.21  HD
ENDBRANCH 14 15
ENDBRANCH 6 14
ENDBRANCH 3 6
ENDBRANCH 1 2
BRANCH 1 17
ATOM     17  CB  VAL B 303      13.050   5.137  29.750  1.00 37.28 LIG 0.01  C 
ATOM     18  CG1 VAL B 303      13.962   5.009  28.545  1.00 36.92 LIG 0.01  C 
ATOM     19  CG2 VAL B 303      12.125   3.931  29.846  1.00 37.06 LIG 0.01  C 
ENDBRANCH 1 17
BRANCH 1 20
ATOM     20  C   VAL B 303      14.397   3.884  31.439  1.00 37.27 LIG 0.24  C 
ATOM     21 O    VAL B 303      14.045   3.366  32.500  1.00 36.92 LIG-0.27  OA
ATOM     22  N   SER B 304      15.212   3.284  30.580  1.00 37.37 LIG-0.34  N 
ATOM     23 H    SER B 304      15.458   3.626  29.829  1.00 37.37 LIG 0.16  HD
BRANCH 22 24
ATOM     24  CA  SER B 304      15.767   1.965  30.854  1.00 37.74 LIG 0.20  C 
BRANCH 24 25
ATOM     25  CB  SER B 304      16.584   1.990  32.148  1.00 37.88 LIG 0.20  C 
BRANCH 25 26
ATOM     26 OG   SER B 304      17.826   2.645  31.948  1.00 38.36 LIG-0.40  OA
ATOM     27 HG   SER B 304      18.448   2.160  32.237  1.00 38.36 LIG 0.21  HD
ENDBRANCH 25 26
ENDBRANCH 24 25
BRANCH 24 28
ATOM     28  C   SER B 304      14.629   0.956  30.976  1.00 37.93 LIG 0.24  C 
ATOM     29 O    SER B 304      13.481   1.332  31.217  1.00 38.21 LIG-0.27  OA
ATOM     30  N   ALA B 305      14.947  -0.323  30.807  1.00 38.06 LIG-0.35  N 
ATOM     31 H    ALA B 305      15.743  -0.602  30.641  1.00 38.06 LIG 0.16  HD
BRANCH 30 32
ATOM     32  CA  ALA B 305      13.943  -1.377  30.894  1.00 38.30 LIG 0.16  C 
ATOM     33  CB  ALA B 305      13.359  -1.418  32.306  1.00 38.13 LIG 0.04  C 
BRANCH 32 34
ATOM     34  C   ALA B 305      12.828  -1.167  29.877  1.00 38.47 LIG 0.22  C 
ATOM     35 O    ALA B 305      13.075  -1.407  28.677  1.00 38.58 LIG-0.29  OA
ENDBRANCH 32 34
ENDBRANCH 30 32
ENDBRANCH 24 28
ENDBRANCH 22 24
ENDBRANCH 1 20
TORSDOF 14
ENDMDL
MODEL 79
USER: ADFR SOLUTION from run 180
USER: SCORE 9.344864 LL:  -2.612 LR:  -9.361 RR:   0.000 FEB:  -5.185
USER: RMSD 6.367081
USER: SEED 179
USER: STATUS no improvement in best in 11 clusters for 5 generations
USER: GENES 16
USER: genes 0 Translation |==|  0.69191 0.63274 0.36479
USER: genes 1 Rotation |==|  0.81683 0.61195 0.13246 0.54469
USER: genes 2 Torsion [CB]-CA--N-[C] |==|  0.83333
USER: genes 3 Torsion [N]-C--CA-[N] |==|  0.29720
USER: genes 4 Torsion [C]-CA--N-[C] |==|  0.77002
USER: genes 5 Torsion [N]-C--CA-[N] |==|  0.41379
USER: genes 6 Torsion [C]-CA--CB-[OG] |==|  0.57967
USER: genes 7 Torsion [CA]-CB--OG-[HG] |==|  0.89217
USER: genes 8 Torsion [N]-CA--CB-[CG1] |==|  0.56964
USER: genes 9 Torsion [N]-CA--C-[N] |==|  0.02124
USER: genes 10 Torsion [C]-N--CA-[CB] |==|  0.33353
USER: genes 11 Torsion [N]-CA--CB-[OG] |==|  0.87607
USER: genes 12 Torsion [CA]-CB--OG-[HG] |==|  0.53300
USER: genes 13 Torsion [N]-CA--C-[N] |==|  0.06575
USER: genes 14 Torsion [C]-N--CA-[C] |==|  0.54666
USER: genes 15 Torsion [N]-CA--C-[O] |==|  0.00679
ROOT
ATOM      1  CA  VAL B 303      16.961   7.324  31.404  1.00 37.13 LIG 0.18  C 
ENDROOT
BRANCH 1 2
ATOM      2  N   VAL B 303      16.484   7.068  32.757  1.00 37.20 LIG-0.35  N 
ATOM      3  C   SER B 302      17.046   6.150  33.536  1.00 37.39 LIG 0.24  C 
ATOM      4 O    SER B 302      17.990   5.445  33.168  1.00 37.76 LIG-0.27  OA
ATOM      5 H    VAL B 303      15.818   7.557  32.996  1.00 37.20 LIG 0.16  HD
BRANCH 3 6
ATOM      6  CA  SER B 302      16.449   5.997  34.931  1.00 37.09 LIG 0.20  C 
BRANCH 6 7
ATOM      7  N   SER B 302      15.680   4.765  35.032  1.00 36.48 LIG-0.34  N 
ATOM      8 H    SER B 302      16.108   4.106  35.381  1.00 36.48 LIG 0.16  HD
ATOM      9  C   ALA B 301      14.421   4.692  34.611  1.00 36.26 LIG 0.26  C 
ATOM     10 O    ALA B 301      13.824   5.650  34.121  1.00 35.88 LIG-0.27  OA
BRANCH 9 11
ATOM     11  CA  ALA B 301      13.732   3.340  34.767  1.00 36.43 LIG 0.40  C 
ATOM     12  CB  ALA B 301      13.966   2.489  33.522  1.00 36.70 LIG 0.06  C 
ATOM     13  N   ALA B 301      12.266   3.510  34.993  1.00 36.51 LIG 0.61  N 
ENDBRANCH 9 11
ENDBRANCH 6 7
BRANCH 6 14
ATOM     14  CB  SER B 302      17.574   6.014  35.972  1.00 37.65 LIG 0.20  C 
BRANCH 14 15
ATOM     15 OG   SER B 302      17.220   5.262  37.118  1.00 38.63 LIG-0.40  OA
ATOM     16 HG   SER B 302      16.408   5.386  37.295  1.00 38.63 LIG 0.21  HD
ENDBRANCH 14 15
ENDBRANCH 6 14
ENDBRANCH 3 6
ENDBRANCH 1 2
BRANCH 1 17
ATOM     17  CB  VAL B 303      18.444   7.776  31.398  1.00 37.28 LIG 0.01  C 
ATOM     18  CG1 VAL B 303      18.731   8.599  30.156  1.00 36.92 LIG 0.01  C 
ATOM     19  CG2 VAL B 303      18.750   8.585  32.652  1.00 37.06 LIG 0.01  C 
ENDBRANCH 1 17
BRANCH 1 20
ATOM     20  C   VAL B 303      16.834   6.055  30.572  1.00 37.27 LIG 0.24  C 
ATOM     21 O    VAL B 303      17.316   5.994  29.439  1.00 36.92 LIG-0.27  OA
ATOM     22  N   SER B 304      16.195   5.039  31.138  1.00 37.37 LIG-0.34  N 
ATOM     23 H    SER B 304      15.864   5.060  31.932  1.00 37.37 LIG 0.16  HD
BRANCH 22 24
ATOM     24  CA  SER B 304      16.000   3.777  30.436  1.00 37.74 LIG 0.20  C 
BRANCH 24 25
ATOM     25  CB  SER B 304      16.657   2.631  31.209  1.00 37.88 LIG 0.20  C 
BRANCH 25 26
ATOM     26 OG   SER B 304      17.950   3.001  31.659  1.00 38.36 LIG-0.40  OA
ATOM     27 HG   SER B 304      18.357   2.320  31.935  1.00 38.36 LIG 0.21  HD
ENDBRANCH 25 26
ENDBRANCH 24 25
BRANCH 24 28
ATOM     28  C   SER B 304      14.506   3.512  30.281  1.00 37.93 LIG 0.24  C 
ATOM     29 O    SER B 304      14.086   2.364  30.130  1.00 38.21 LIG-0.27  OA
ATOM     30  N   ALA B 305      13.706   4.572  30.321  1.00 38.06 LIG-0.35  N 
ATOM     31 H    ALA B 305      13.984   5.380  30.424  1.00 38.06 LIG 0.16  HD
BRANCH 30 32
ATOM     32  CA  ALA B 305      12.260   4.442  30.191  1.00 38.30 LIG 0.16  C 
ATOM     33  CB  ALA B 305      11.673   3.887  31.488  1.00 38.13 LIG 0.04  C 
BRANCH 32 34
ATOM     34  C   ALA B 305      11.609   5.780  29.857  1.00 38.47 LIG 0.22  C 
ATOM     35 O    ALA B 305      12.353   6.770  29.694  1.00 38.58 LIG-0.29  OA
ENDBRANCH 32 34
ENDBRANCH 30 32
ENDBRANCH 24 28
ENDBRANCH 22 24
ENDBRANCH 1 20
TORSDOF 14
ENDMDL
MODEL 80
USER: ADFR SOLUTION from run 189
USER: SCORE 9.872341 LL:  -2.327 LR:  -9.364 RR:   0.000 FEB:  -5.187
USER: RMSD 4.839696
USER: SEED 188
USER: STATUS no improvement in best in 34 clusters for 5 generations
USER: GENES 16
USER: genes 0 Translation |==|  0.43790 0.42820 0.34696
USER: genes 1 Rotation |==|  0.75177 0.67151 0.24569 0.80417
USER: genes 2 Torsion [CB]-CA--N-[C] |==|  0.49624
USER: genes 3 Torsion [N]-C--CA-[N] |==|  0.98656
USER: genes 4 Torsion [C]-CA--N-[C] |==|  0.69585
USER: genes 5 Torsion [N]-C--CA-[N] |==|  0.32240
USER: genes 6 Torsion [C]-CA--CB-[OG] |==|  0.68898
USER: genes 7 Torsion [CA]-CB--OG-[HG] |==|  0.78972
USER: genes 8 Torsion [N]-CA--CB-[CG1] |==|  0.21034
USER: genes 9 Torsion [N]-CA--C-[N] |==|  0.92183
USER: genes 10 Torsion [C]-N--CA-[CB] |==|  0.87499
USER: genes 11 Torsion [N]-CA--CB-[OG] |==|  0.55368
USER: genes 12 Torsion [CA]-CB--OG-[HG] |==|  0.77056
USER: genes 13 Torsion [N]-CA--C-[N] |==|  0.86667
USER: genes 14 Torsion [C]-N--CA-[C] |==|  0.56895
USER: genes 15 Torsion [N]-CA--C-[O] |==|  0.89684
ROOT
ATOM      1  CA  VAL B 303      11.817   3.182  31.136  1.00 37.13 LIG 0.18  C 
ENDROOT
BRANCH 1 2
ATOM      2  N   VAL B 303      11.186   2.891  32.417  1.00 37.20 LIG-0.35  N 
ATOM      3  C   SER B 302      10.813   1.660  32.750  1.00 37.39 LIG 0.24  C 
ATOM      4 O    SER B 302      10.956   0.690  32.001  1.00 37.76 LIG-0.27  OA
ATOM      5 H    VAL B 303      11.081   3.577  32.925  1.00 37.20 LIG 0.16  HD
BRANCH 3 6
ATOM      6  CA  SER B 302      10.175   1.500  34.126  1.00 37.09 LIG 0.20  C 
BRANCH 6 7
ATOM      7  N   SER B 302      10.208   2.759  34.860  1.00 36.48 LIG-0.34  N 
ATOM      8 H    SER B 302       9.679   3.363  34.553  1.00 36.48 LIG 0.16  HD
ATOM      9  C   ALA B 301      11.001   2.931  35.913  1.00 36.26 LIG 0.26  C 
ATOM     10 O    ALA B 301      11.747   2.049  36.340  1.00 35.88 LIG-0.27  OA
BRANCH 9 11
ATOM     11  CA  ALA B 301      10.946   4.300  36.585  1.00 36.43 LIG 0.40  C 
ATOM     12  CB  ALA B 301      12.335   4.932  36.596  1.00 36.70 LIG 0.06  C 
ATOM     13  N   ALA B 301      10.433   4.187  37.982  1.00 36.51 LIG 0.61  N 
ENDBRANCH 9 11
ENDBRANCH 6 7
BRANCH 6 14
ATOM     14  CB  SER B 302       8.732   1.012  33.966  1.00 37.65 LIG 0.20  C 
BRANCH 14 15
ATOM     15 OG   SER B 302       7.808   2.011  34.358  1.00 38.63 LIG-0.40  OA
ATOM     16 HG   SER B 302       7.786   2.058  35.197  1.00 38.63 LIG 0.21  HD
ENDBRANCH 14 15
ENDBRANCH 6 14
ENDBRANCH 3 6
ENDBRANCH 1 2
BRANCH 1 17
ATOM     17  CB  VAL B 303      12.123   4.694  30.982  1.00 37.28 LIG 0.01  C 
ATOM     18  CG1 VAL B 303      13.333   5.067  31.817  1.00 36.92 LIG 0.01  C 
ATOM     19  CG2 VAL B 303      12.366   5.033  29.517  1.00 37.06 LIG 0.01  C 
ENDBRANCH 1 17
BRANCH 1 20
ATOM     20  C   VAL B 303      13.122   2.406  31.025  1.00 37.27 LIG 0.24  C 
ATOM     21 O    VAL B 303      13.568   2.077  29.924  1.00 36.92 LIG-0.27  OA
ATOM     22  N   SER B 304      13.740   2.123  32.166  1.00 37.37 LIG-0.34  N 
ATOM     23 H    SER B 304      13.450   2.355  32.942  1.00 37.37 LIG 0.16  HD
BRANCH 22 24
ATOM     24  CA  SER B 304      14.990   1.374  32.188  1.00 37.74 LIG 0.20  C 
BRANCH 24 25
ATOM     25  CB  SER B 304      14.904   0.168  31.249  1.00 37.88 LIG 0.20  C 
BRANCH 25 26
ATOM     26 OG   SER B 304      15.893  -0.795  31.573  1.00 38.36 LIG-0.40  OA
ATOM     27 HG   SER B 304      16.623  -0.578  31.219  1.00 38.36 LIG 0.21  HD
ENDBRANCH 25 26
ENDBRANCH 24 25
BRANCH 24 28
ATOM     28  C   SER B 304      16.132   2.289  31.756  1.00 37.93 LIG 0.24  C 
ATOM     29 O    SER B 304      17.175   2.341  32.409  1.00 38.21 LIG-0.27  OA
ATOM     30  N   ALA B 305      15.935   3.008  30.656  1.00 38.06 LIG-0.35  N 
ATOM     31 H    ALA B 305      15.212   2.985  30.190  1.00 38.06 LIG 0.16  HD
BRANCH 30 32
ATOM     32  CA  ALA B 305      16.957   3.913  30.142  1.00 38.30 LIG 0.16  C 
ATOM     33  CB  ALA B 305      17.968   3.129  29.307  1.00 38.13 LIG 0.04  C 
BRANCH 32 34
ATOM     34  C   ALA B 305      16.342   5.026  29.303  1.00 38.47 LIG 0.22  C 
ATOM     35 O    ALA B 305      15.366   4.744  28.577  1.00 38.58 LIG-0.29  OA
ENDBRANCH 32 34
ENDBRANCH 30 32
ENDBRANCH 24 28
ENDBRANCH 22 24
ENDBRANCH 1 20
TORSDOF 14
ENDMDL
MODEL 81
USER: ADFR SOLUTION from run 167
USER: SCORE 9.510293 LL:  -1.589 LR:  -9.365 RR:   0.000 FEB:  -5.189
USER: RMSD 8.654910
USER: SEED 166
USER: STATUS no improvement in best in 40 clusters for 5 generations
USER: GENES 16
USER: genes 0 Translation |==|  0.47880 0.51020 0.35106
USER: genes 1 Rotation |==|  0.59970 0.41242 0.98201 0.50728
USER: genes 2 Torsion [CB]-CA--N-[C] |==|  0.77770
USER: genes 3 Torsion [N]-C--CA-[N] |==|  0.02051
USER: genes 4 Torsion [C]-CA--N-[C] |==|  0.70651
USER: genes 5 Torsion [N]-C--CA-[N] |==|  0.28713
USER: genes 6 Torsion [C]-CA--CB-[OG] |==|  0.51350
USER: genes 7 Torsion [CA]-CB--OG-[HG] |==|  0.57842
USER: genes 8 Torsion [N]-CA--CB-[CG1] |==|  0.70386
USER: genes 9 Torsion [N]-CA--C-[N] |==|  0.22415
USER: genes 10 Torsion [C]-N--CA-[CB] |==|  0.78867
USER: genes 11 Torsion [N]-CA--CB-[OG] |==|  0.82850
USER: genes 12 Torsion [CA]-CB--OG-[HG] |==|  0.13247
USER: genes 13 Torsion [N]-CA--C-[N] |==|  0.67727
USER: genes 14 Torsion [C]-N--CA-[C] |==|  0.76684
USER: genes 15 Torsion [N]-CA--C-[O] |==|  0.47499
ROOT
ATOM      1  CA  VAL B 303      12.646   4.843  31.198  1.00 37.13 LIG 0.18  C 
ENDROOT
BRANCH 1 2
ATOM      2  N   VAL B 303      14.092   4.913  31.367  1.00 37.20 LIG-0.35  N 
ATOM      3  C   SER B 302      14.890   3.919  30.994  1.00 37.39 LIG 0.24  C 
ATOM      4 O    SER B 302      14.468   2.870  30.499  1.00 37.76 LIG-0.27  OA
ATOM      5 H    VAL B 303      14.372   5.644  31.724  1.00 37.20 LIG 0.16  HD
BRANCH 3 6
ATOM      6  CA  SER B 302      16.383   4.134  31.221  1.00 37.09 LIG 0.20  C 
BRANCH 6 7
ATOM      7  N   SER B 302      16.618   5.356  31.979  1.00 36.48 LIG-0.34  N 
ATOM      8 H    SER B 302      16.426   5.298  32.816  1.00 36.48 LIG 0.16  HD
ATOM      9  C   ALA B 301      17.092   6.455  31.401  1.00 36.26 LIG 0.26  C 
ATOM     10 O    ALA B 301      17.368   6.514  30.203  1.00 35.88 LIG-0.27  OA
BRANCH 9 11
ATOM     11  CA  ALA B 301      17.285   7.668  32.307  1.00 36.43 LIG 0.40  C 
ATOM     12  CB  ALA B 301      16.744   8.920  31.624  1.00 36.70 LIG 0.06  C 
ATOM     13  N   ALA B 301      18.727   7.859  32.643  1.00 36.51 LIG 0.61  N 
ENDBRANCH 9 11
ENDBRANCH 6 7
BRANCH 6 14
ATOM     14  CB  SER B 302      16.966   2.925  31.959  1.00 37.65 LIG 0.20  C 
BRANCH 14 15
ATOM     15 OG   SER B 302      18.328   3.136  32.286  1.00 38.63 LIG-0.40  OA
ATOM     16 HG   SER B 302      18.726   2.397  32.321  1.00 38.63 LIG 0.21  HD
ENDBRANCH 14 15
ENDBRANCH 6 14
ENDBRANCH 3 6
ENDBRANCH 1 2
BRANCH 1 17
ATOM     17  CB  VAL B 303      12.225   5.170  29.742  1.00 37.28 LIG 0.01  C 
ATOM     18  CG1 VAL B 303      11.591   6.547  29.682  1.00 36.92 LIG 0.01  C 
ATOM     19  CG2 VAL B 303      13.435   5.104  28.819  1.00 37.06 LIG 0.01  C 
ENDBRANCH 1 17
BRANCH 1 20
ATOM     20  C   VAL B 303      12.162   3.441  31.543  1.00 37.27 LIG 0.24  C 
ATOM     21 O    VAL B 303      11.941   2.615  30.655  1.00 36.92 LIG-0.27  OA
ATOM     22  N   SER B 304      12.008   3.170  32.833  1.00 37.37 LIG-0.34  N 
ATOM     23 H    SER B 304      12.170   3.730  33.466  1.00 37.37 LIG 0.16  HD
BRANCH 22 24
ATOM     24  CA  SER B 304      11.539   1.866  33.285  1.00 37.74 LIG 0.20  C 
BRANCH 24 25
ATOM     25  CB  SER B 304      10.031   1.736  33.060  1.00 37.88 LIG 0.20  C 
BRANCH 25 26
ATOM     26 OG   SER B 304       9.323   2.712  33.807  1.00 38.36 LIG-0.40  OA
ATOM     27 HG   SER B 304       9.679   3.464  33.694  1.00 38.36 LIG 0.21  HD
ENDBRANCH 25 26
ENDBRANCH 24 25
BRANCH 24 28
ATOM     28  C   SER B 304      12.276   0.772  32.518  1.00 37.93 LIG 0.24  C 
ATOM     29 O    SER B 304      13.494   0.637  32.637  1.00 38.21 LIG-0.27  OA
ATOM     30  N   ALA B 305      11.537  -0.006  31.734  1.00 38.06 LIG-0.35  N 
ATOM     31 H    ALA B 305      10.687   0.078  31.639  1.00 38.06 LIG 0.16  HD
BRANCH 30 32
ATOM     32  CA  ALA B 305      12.130  -1.088  30.958  1.00 38.30 LIG 0.16  C 
ATOM     33  CB  ALA B 305      11.080  -2.166  30.690  1.00 38.13 LIG 0.04  C 
BRANCH 32 34
ATOM     34  C   ALA B 305      12.699  -0.579  29.638  1.00 38.47 LIG 0.22  C 
ATOM     35 O    ALA B 305      13.386  -1.364  28.953  1.00 38.58 LIG-0.29  OA
ENDBRANCH 32 34
ENDBRANCH 30 32
ENDBRANCH 24 28
ENDBRANCH 22 24
ENDBRANCH 1 20
TORSDOF 14
ENDMDL
MODEL 82
USER: ADFR SOLUTION from run 61
USER: SCORE 10.216381 LL:  -2.258 LR:  -9.340 RR:   0.000 FEB:  -5.163
USER: RMSD 7.496480
USER: SEED 60
USER: STATUS no improvement in best in 24 clusters for 5 generations
USER: GENES 16
USER: genes 0 Translation |==|  0.74631 0.70362 0.43388
USER: genes 1 Rotation |==|  0.25452 0.26383 0.69390 0.81043
USER: genes 2 Torsion [CB]-CA--N-[C] |==|  0.85000
USER: genes 3 Torsion [N]-C--CA-[N] |==|  0.81125
USER: genes 4 Torsion [C]-CA--N-[C] |==|  0.76609
USER: genes 5 Torsion [N]-C--CA-[N] |==|  0.39169
USER: genes 6 Torsion [C]-CA--CB-[OG] |==|  0.71634
USER: genes 7 Torsion [CA]-CB--OG-[HG] |==|  0.25432
USER: genes 8 Torsion [N]-CA--CB-[CG1] |==|  0.38914
USER: genes 9 Torsion [N]-CA--C-[N] |==|  0.39819
USER: genes 10 Torsion [C]-N--CA-[CB] |==|  0.51146
USER: genes 11 Torsion [N]-CA--CB-[OG] |==|  0.91594
USER: genes 12 Torsion [CA]-CB--OG-[HG] |==|  0.29691
USER: genes 13 Torsion [N]-CA--C-[N] |==|  0.32009
USER: genes 14 Torsion [C]-N--CA-[C] |==|  0.17135
USER: genes 15 Torsion [N]-CA--C-[O] |==|  0.07859
ROOT
ATOM      1  CA  VAL B 303      18.063   8.759  32.440  1.00 37.13 LIG 0.18  C 
ENDROOT
BRANCH 1 2
ATOM      2  N   VAL B 303      17.099   7.667  32.485  1.00 37.20 LIG-0.35  N 
ATOM      3  C   SER B 302      16.934   6.835  31.462  1.00 37.39 LIG 0.24  C 
ATOM      4 O    SER B 302      17.566   6.938  30.407  1.00 37.76 LIG-0.27  OA
ATOM      5 H    VAL B 303      16.657   7.614  33.221  1.00 37.20 LIG 0.16  HD
BRANCH 3 6
ATOM      6  CA  SER B 302      15.898   5.733  31.653  1.00 37.09 LIG 0.20  C 
BRANCH 6 7
ATOM      7  N   SER B 302      16.341   4.777  32.660  1.00 36.48 LIG-0.34  N 
ATOM      8 H    SER B 302      16.035   4.925  33.450  1.00 36.48 LIG 0.16  HD
ATOM      9  C   ALA B 301      17.152   3.769  32.355  1.00 36.26 LIG 0.26  C 
ATOM     10 O    ALA B 301      17.573   3.570  31.216  1.00 35.88 LIG-0.27  OA
BRANCH 9 11
ATOM     11  CA  ALA B 301      17.546   2.846  33.504  1.00 36.43 LIG 0.40  C 
ATOM     12  CB  ALA B 301      18.909   3.252  34.056  1.00 36.70 LIG 0.06  C 
ATOM     13  N   ALA B 301      17.588   1.422  33.056  1.00 36.51 LIG 0.61  N 
ENDBRANCH 9 11
ENDBRANCH 6 7
BRANCH 6 14
ATOM     14  CB  SER B 302      14.559   6.355  32.058  1.00 37.65 LIG 0.20  C 
BRANCH 14 15
ATOM     15 OG   SER B 302      14.330   6.215  33.448  1.00 38.63 LIG-0.40  OA
ATOM     16 HG   SER B 302      14.627   6.889  33.851  1.00 38.63 LIG 0.21  HD
ENDBRANCH 14 15
ENDBRANCH 6 14
ENDBRANCH 3 6
ENDBRANCH 1 2
BRANCH 1 17
ATOM     17  CB  VAL B 303      19.483   8.253  32.079  1.00 37.28 LIG 0.01  C 
ATOM     18  CG1 VAL B 303      20.158   9.229  31.135  1.00 36.92 LIG 0.01  C 
ATOM     19  CG2 VAL B 303      20.314   8.077  33.343  1.00 37.06 LIG 0.01  C 
ENDBRANCH 1 17
BRANCH 1 20
ATOM     20  C   VAL B 303      17.628   9.778  31.396  1.00 37.27 LIG 0.24  C 
ATOM     21 O    VAL B 303      17.088   9.415  30.349  1.00 36.92 LIG-0.27  OA
ATOM     22  N   SER B 304      17.853  11.054  31.686  1.00 37.37 LIG-0.34  N 
ATOM     23 H    SER B 304      18.217  11.326  32.416  1.00 37.37 LIG 0.16  HD
BRANCH 22 24
ATOM     24  CA  SER B 304      17.491  12.119  30.759  1.00 37.74 LIG 0.20  C 
BRANCH 24 25
ATOM     25  CB  SER B 304      17.954  13.474  31.299  1.00 37.88 LIG 0.20  C 
BRANCH 25 26
ATOM     26 OG   SER B 304      17.954  13.479  32.717  1.00 38.36 LIG-0.40  OA
ATOM     27 HG   SER B 304      18.746  13.452  32.998  1.00 38.36 LIG 0.21  HD
ENDBRANCH 25 26
ENDBRANCH 24 25
BRANCH 24 28
ATOM     28  C   SER B 304      18.138  11.849  29.404  1.00 37.93 LIG 0.24  C 
ATOM     29 O    SER B 304      19.364  11.858  29.284  1.00 38.21 LIG-0.27  OA
ATOM     30  N   ALA B 305      17.316  11.609  28.389  1.00 38.06 LIG-0.35  N 
ATOM     31 H    ALA B 305      16.459  11.602  28.456  1.00 38.06 LIG 0.16  HD
BRANCH 30 32
ATOM     32  CA  ALA B 305      17.819  11.332  27.049  1.00 38.30 LIG 0.16  C 
ATOM     33  CB  ALA B 305      18.636  12.522  26.548  1.00 38.13 LIG 0.04  C 
BRANCH 32 34
ATOM     34  C   ALA B 305      18.674  10.070  27.026  1.00 38.47 LIG 0.22  C 
ATOM     35 O    ALA B 305      18.431   9.181  27.869  1.00 38.58 LIG-0.29  OA
ENDBRANCH 32 34
ENDBRANCH 30 32
ENDBRANCH 24 28
ENDBRANCH 22 24
ENDBRANCH 1 20
TORSDOF 14
ENDMDL
MODEL 83
USER: ADFR SOLUTION from run 171
USER: SCORE 9.608553 LL:  -1.441 LR:  -9.344 RR:   0.000 FEB:  -5.167
USER: RMSD 9.829116
USER: SEED 170
USER: STATUS no improvement in best in 39 clusters for 5 generations
USER: GENES 16
USER: genes 0 Translation |==|  0.67194 0.63952 0.41658
USER: genes 1 Rotation |==|  0.26996 0.39505 0.13024 0.72214
USER: genes 2 Torsion [CB]-CA--N-[C] |==|  0.55429
USER: genes 3 Torsion [N]-C--CA-[N] |==|  0.38128
USER: genes 4 Torsion [C]-CA--N-[C] |==|  0.80091
USER: genes 5 Torsion [N]-C--CA-[N] |==|  0.09812
USER: genes 6 Torsion [C]-CA--CB-[OG] |==|  0.68196
USER: genes 7 Torsion [CA]-CB--OG-[HG] |==|  0.17579
USER: genes 8 Torsion [N]-CA--CB-[CG1] |==|  0.41577
USER: genes 9 Torsion [N]-CA--C-[N] |==|  0.29649
USER: genes 10 Torsion [C]-N--CA-[CB] |==|  0.18988
USER: genes 11 Torsion [N]-CA--CB-[OG] |==|  0.35609
USER: genes 12 Torsion [CA]-CB--OG-[HG] |==|  0.67003
USER: genes 13 Torsion [N]-CA--C-[N] |==|  0.83411
USER: genes 14 Torsion [C]-N--CA-[C] |==|  0.60701
USER: genes 15 Torsion [N]-CA--C-[O] |==|  0.72079
ROOT
ATOM      1  CA  VAL B 303      16.557   7.461  32.181  1.00 37.13 LIG 0.18  C 
ENDROOT
BRANCH 1 2
ATOM      2  N   VAL B 303      16.894   8.668  31.436  1.00 37.20 LIG-0.35  N 
ATOM      3  C   SER B 302      17.704   9.596  31.934  1.00 37.39 LIG 0.24  C 
ATOM      4 O    SER B 302      18.208   9.512  33.057  1.00 37.76 LIG-0.27  OA
ATOM      5 H    VAL B 303      16.526   8.719  30.660  1.00 37.20 LIG 0.16  HD
BRANCH 3 6
ATOM      6  CA  SER B 302      17.977  10.800  31.039  1.00 37.09 LIG 0.20  C 
BRANCH 6 7
ATOM      7  N   SER B 302      17.933  12.036  31.809  1.00 36.48 LIG-0.34  N 
ATOM      8 H    SER B 302      18.700  12.405  31.932  1.00 36.48 LIG 0.16  HD
ATOM      9  C   ALA B 301      16.789  12.530  32.270  1.00 36.26 LIG 0.26  C 
ATOM     10 O    ALA B 301      15.700  11.989  32.076  1.00 35.88 LIG-0.27  OA
BRANCH 9 11
ATOM     11  CA  ALA B 301      16.884  13.827  33.069  1.00 36.43 LIG 0.40  C 
ATOM     12  CB  ALA B 301      15.545  14.558  33.037  1.00 36.70 LIG 0.06  C 
ATOM     13  N   ALA B 301      17.955  14.712  32.523  1.00 36.51 LIG 0.61  N 
ENDBRANCH 9 11
ENDBRANCH 6 7
BRANCH 6 14
ATOM     14  CB  SER B 302      19.342  10.636  30.365  1.00 37.65 LIG 0.20  C 
BRANCH 14 15
ATOM     15 OG   SER B 302      20.252  11.627  30.807  1.00 38.63 LIG-0.40  OA
ATOM     16 HG   SER B 302      20.388  11.536  31.631  1.00 38.63 LIG 0.21  HD
ENDBRANCH 14 15
ENDBRANCH 6 14
ENDBRANCH 3 6
ENDBRANCH 1 2
BRANCH 1 17
ATOM     17  CB  VAL B 303      16.024   6.344  31.247  1.00 37.28 LIG 0.01  C 
ATOM     18  CG1 VAL B 303      16.378   4.982  31.813  1.00 36.92 LIG 0.01  C 
ATOM     19  CG2 VAL B 303      14.516   6.473  31.082  1.00 37.06 LIG 0.01  C 
ENDBRANCH 1 17
BRANCH 1 20
ATOM     20  C   VAL B 303      17.795   6.947  32.901  1.00 37.27 LIG 0.24  C 
ATOM     21 O    VAL B 303      18.710   6.409  32.275  1.00 36.92 LIG-0.27  OA
ATOM     22  N   SER B 304      17.829   7.123  34.217  1.00 37.37 LIG-0.34  N 
ATOM     23 H    SER B 304      17.205   7.507  34.668  1.00 37.37 LIG 0.16  HD
BRANCH 22 24
ATOM     24  CA  SER B 304      18.957   6.662  35.017  1.00 37.74 LIG 0.20  C 
BRANCH 24 25
ATOM     25  CB  SER B 304      20.206   7.487  34.699  1.00 37.88 LIG 0.20  C 
BRANCH 25 26
ATOM     26 OG   SER B 304      20.791   7.996  35.886  1.00 38.36 LIG-0.40  OA
ATOM     27 HG   SER B 304      20.789   8.836  35.862  1.00 38.36 LIG 0.21  HD
ENDBRANCH 25 26
ENDBRANCH 24 25
BRANCH 24 28
ATOM     28  C   SER B 304      18.610   6.791  36.497  1.00 37.93 LIG 0.24  C 
ATOM     29 O    SER B 304      18.608   5.800  37.228  1.00 38.21 LIG-0.27  OA
ATOM     30  N   ALA B 305      18.320   8.011  36.936  1.00 38.06 LIG-0.35  N 
ATOM     31 H    ALA B 305      18.315   8.712  36.438  1.00 38.06 LIG 0.16  HD
BRANCH 30 32
ATOM     32  CA  ALA B 305      17.980   8.258  38.332  1.00 38.30 LIG 0.16  C 
ATOM     33  CB  ALA B 305      19.221   8.727  39.090  1.00 38.13 LIG 0.04  C 
BRANCH 32 34
ATOM     34  C   ALA B 305      16.871   9.296  38.459  1.00 38.47 LIG 0.22  C 
ATOM     35 O    ALA B 305      17.194  10.467  38.749  1.00 38.58 LIG-0.29  OA
ENDBRANCH 32 34
ENDBRANCH 30 32
ENDBRANCH 24 28
ENDBRANCH 22 24
ENDBRANCH 1 20
TORSDOF 14
ENDMDL
MODEL 84
USER: ADFR SOLUTION from run 20
USER: SCORE 10.583184 LL:  -2.054 LR:  -9.336 RR:   0.000 FEB:  -5.160
USER: RMSD 5.335320
USER: SEED 19
USER: STATUS no improvement in best in 24 clusters for 5 generations
USER: GENES 16
USER: genes 0 Translation |==|  0.62377 0.57750 0.45696
USER: genes 1 Rotation |==|  0.16786 0.18052 0.58212 0.67570
USER: genes 2 Torsion [CB]-CA--N-[C] |==|  0.52844
USER: genes 3 Torsion [N]-C--CA-[N] |==|  0.93889
USER: genes 4 Torsion [C]-CA--N-[C] |==|  0.83392
USER: genes 5 Torsion [N]-C--CA-[N] |==|  0.70810
USER: genes 6 Torsion [C]-CA--CB-[OG] |==|  0.72457
USER: genes 7 Torsion [CA]-CB--OG-[HG] |==|  0.34322
USER: genes 8 Torsion [N]-CA--CB-[CG1] |==|  0.13695
USER: genes 9 Torsion [N]-CA--C-[N] |==|  0.40623
USER: genes 10 Torsion [C]-N--CA-[CB] |==|  0.51820
USER: genes 11 Torsion [N]-CA--CB-[OG] |==|  0.92221
USER: genes 12 Torsion [CA]-CB--OG-[HG] |==|  0.11656
USER: genes 13 Torsion [N]-CA--C-[N] |==|  0.45388
USER: genes 14 Torsion [C]-N--CA-[C] |==|  0.85769
USER: genes 15 Torsion [N]-CA--C-[O] |==|  0.33758
ROOT
ATOM      1  CA  VAL B 303      15.581   6.205  32.786  1.00 37.13 LIG 0.18  C 
ENDROOT
BRANCH 1 2
ATOM      2  N   VAL B 303      14.777   5.139  32.204  1.00 37.20 LIG-0.35  N 
ATOM      3  C   SER B 302      13.866   5.380  31.266  1.00 37.39 LIG 0.24  C 
ATOM      4 O    SER B 302      13.628   6.513  30.839  1.00 37.76 LIG-0.27  OA
ATOM      5 H    VAL B 303      14.944   4.356  32.519  1.00 37.20 LIG 0.16  HD
BRANCH 3 6
ATOM      6  CA  SER B 302      13.106   4.168  30.740  1.00 37.09 LIG 0.20  C 
BRANCH 6 7
ATOM      7  N   SER B 302      13.858   2.943  30.980  1.00 36.48 LIG-0.34  N 
ATOM      8 H    SER B 302      13.450   2.365  31.469  1.00 36.48 LIG 0.16  HD
ATOM      9  C   ALA B 301      15.073   2.760  30.473  1.00 36.26 LIG 0.26  C 
ATOM     10 O    ALA B 301      15.637   3.598  29.769  1.00 35.88 LIG-0.27  OA
BRANCH 9 11
ATOM     11  CA  ALA B 301      15.755   1.436  30.807  1.00 36.43 LIG 0.40  C 
ATOM     12  CB  ALA B 301      14.725   0.436  31.323  1.00 36.70 LIG 0.06  C 
ATOM     13  N   ALA B 301      16.825   1.630  31.829  1.00 36.51 LIG 0.61  N 
ENDBRANCH 9 11
ENDBRANCH 6 7
BRANCH 6 14
ATOM     14  CB  SER B 302      11.733   4.094  31.415  1.00 37.65 LIG 0.20  C 
BRANCH 14 15
ATOM     15 OG   SER B 302      11.738   3.164  32.483  1.00 38.63 LIG-0.40  OA
ATOM     16 HG   SER B 302      11.497   3.548  33.190  1.00 38.63 LIG 0.21  HD
ENDBRANCH 14 15
ENDBRANCH 6 14
ENDBRANCH 3 6
ENDBRANCH 1 2
BRANCH 1 17
ATOM     17  CB  VAL B 303      16.732   5.641  33.659  1.00 37.28 LIG 0.01  C 
ATOM     18  CG1 VAL B 303      17.486   4.569  32.895  1.00 36.92 LIG 0.01  C 
ATOM     19  CG2 VAL B 303      17.676   6.762  34.071  1.00 37.06 LIG 0.01  C 
ENDBRANCH 1 17
BRANCH 1 20
ATOM     20  C   VAL B 303      16.183   7.053  31.674  1.00 37.27 LIG 0.24  C 
ATOM     21 O    VAL B 303      16.503   6.544  30.598  1.00 36.92 LIG-0.27  OA
ATOM     22  N   SER B 304      16.327   8.347  31.929  1.00 37.37 LIG-0.34  N 
ATOM     23 H    SER B 304      16.097   8.721  32.669  1.00 37.37 LIG 0.16  HD
BRANCH 22 24
ATOM     24  CA  SER B 304      16.902   9.257  30.946  1.00 37.74 LIG 0.20  C 
BRANCH 24 25
ATOM     25  CB  SER B 304      17.098  10.646  31.558  1.00 37.88 LIG 0.20  C 
BRANCH 25 26
ATOM     26 OG   SER B 304      16.154  10.881  32.590  1.00 38.36 LIG-0.40  OA
ATOM     27 HG   SER B 304      16.074  10.189  33.060  1.00 38.36 LIG 0.21  HD
ENDBRANCH 25 26
ENDBRANCH 24 25
BRANCH 24 28
ATOM     28  C   SER B 304      18.242   8.703  30.471  1.00 37.93 LIG 0.24  C 
ATOM     29 O    SER B 304      18.819   7.825  31.114  1.00 38.21 LIG-0.27  OA
ATOM     30  N   ALA B 305      18.732   9.215  29.348  1.00 38.06 LIG-0.35  N 
ATOM     31 H    ALA B 305      18.343   9.830  28.890  1.00 38.06 LIG 0.16  HD
BRANCH 30 32
ATOM     32  CA  ALA B 305      20.002   8.760  28.793  1.00 38.30 LIG 0.16  C 
ATOM     33  CB  ALA B 305      20.390   9.637  27.604  1.00 38.13 LIG 0.04  C 
BRANCH 32 34
ATOM     34  C   ALA B 305      21.108   8.788  29.842  1.00 38.47 LIG 0.22  C 
ATOM     35 O    ALA B 305      21.700   7.719  30.100  1.00 38.58 LIG-0.29  OA
ENDBRANCH 32 34
ENDBRANCH 30 32
ENDBRANCH 24 28
ENDBRANCH 22 24
ENDBRANCH 1 20
TORSDOF 14
ENDMDL
MODEL 85
USER: ADFR SOLUTION from run 117
USER: SCORE 10.017509 LL:  -3.020 LR:  -9.332 RR:   0.000 FEB:  -5.156
USER: RMSD 6.992994
USER: SEED 116
USER: STATUS no improvement in best in 40 clusters for 5 generations
USER: GENES 16
USER: genes 0 Translation |==|  0.45641 0.48640 0.29556
USER: genes 1 Rotation |==|  0.57026 0.41850 0.03169 0.63821
USER: genes 2 Torsion [CB]-CA--N-[C] |==|  0.84413
USER: genes 3 Torsion [N]-C--CA-[N] |==|  0.35910
USER: genes 4 Torsion [C]-CA--N-[C] |==|  0.85540
USER: genes 5 Torsion [N]-C--CA-[N] |==|  0.52213
USER: genes 6 Torsion [C]-CA--CB-[OG] |==|  0.47171
USER: genes 7 Torsion [CA]-CB--OG-[HG] |==|  0.13686
USER: genes 8 Torsion [N]-CA--CB-[CG1] |==|  0.53696
USER: genes 9 Torsion [N]-CA--C-[N] |==|  0.08167
USER: genes 10 Torsion [C]-N--CA-[CB] |==|  0.82778
USER: genes 11 Torsion [N]-CA--CB-[OG] |==|  0.82283
USER: genes 12 Torsion [CA]-CB--OG-[HG] |==|  0.02385
USER: genes 13 Torsion [N]-CA--C-[N] |==|  0.07098
USER: genes 14 Torsion [C]-N--CA-[C] |==|  0.57495
USER: genes 15 Torsion [N]-CA--C-[O] |==|  0.80619
ROOT
ATOM      1  CA  VAL B 303      12.192   4.361  30.365  1.00 37.13 LIG 0.18  C 
ENDROOT
BRANCH 1 2
ATOM      2  N   VAL B 303      12.854   5.437  31.092  1.00 37.20 LIG-0.35  N 
ATOM      3  C   SER B 302      14.109   5.328  31.516  1.00 37.39 LIG 0.24  C 
ATOM      4 O    SER B 302      14.789   4.313  31.343  1.00 37.76 LIG-0.27  OA
ATOM      5 H    VAL B 303      12.366   6.134  31.216  1.00 37.20 LIG 0.16  HD
BRANCH 3 6
ATOM      6  CA  SER B 302      14.676   6.537  32.253  1.00 37.09 LIG 0.20  C 
BRANCH 6 7
ATOM      7  N   SER B 302      15.274   6.136  33.520  1.00 36.48 LIG-0.34  N 
ATOM      8 H    SER B 302      16.079   6.414  33.636  1.00 36.48 LIG 0.16  HD
ATOM      9  C   ALA B 301      14.606   5.401  34.404  1.00 36.26 LIG 0.26  C 
ATOM     10 O    ALA B 301      13.450   5.021  34.220  1.00 35.88 LIG-0.27  OA
BRANCH 9 11
ATOM     11  CA  ALA B 301      15.351   5.044  35.687  1.00 36.43 LIG 0.40  C 
ATOM     12  CB  ALA B 301      16.718   4.458  35.350  1.00 36.70 LIG 0.06  C 
ATOM     13  N   ALA B 301      14.571   4.067  36.502  1.00 36.51 LIG 0.61  N 
ENDBRANCH 9 11
ENDBRANCH 6 7
BRANCH 6 14
ATOM     14  CB  SER B 302      15.714   7.232  31.367  1.00 37.65 LIG 0.20  C 
BRANCH 14 15
ATOM     15 OG   SER B 302      16.094   8.483  31.912  1.00 38.63 LIG-0.40  OA
ATOM     16 HG   SER B 302      16.289   8.388  32.724  1.00 38.63 LIG 0.21  HD
ENDBRANCH 14 15
ENDBRANCH 6 14
ENDBRANCH 3 6
ENDBRANCH 1 2
BRANCH 1 17
ATOM     17  CB  VAL B 303      12.990   3.951  29.100  1.00 37.28 LIG 0.01  C 
ATOM     18  CG1 VAL B 303      12.130   3.078  28.205  1.00 36.92 LIG 0.01  C 
ATOM     19  CG2 VAL B 303      13.451   5.191  28.347  1.00 37.06 LIG 0.01  C 
ENDBRANCH 1 17
BRANCH 1 20
ATOM     20  C   VAL B 303      12.056   3.145  31.272  1.00 37.27 LIG 0.24  C 
ATOM     21 O    VAL B 303      12.056   2.006  30.802  1.00 36.92 LIG-0.27  OA
ATOM     22  N   SER B 304      11.951   3.388  32.573  1.00 37.37 LIG-0.34  N 
ATOM     23 H    SER B 304      11.962   4.175  32.919  1.00 37.37 LIG 0.16  HD
BRANCH 22 24
ATOM     24  CA  SER B 304      11.804   2.306  33.538  1.00 37.74 LIG 0.20  C 
BRANCH 24 25
ATOM     25  CB  SER B 304      10.511   1.530  33.274  1.00 37.88 LIG 0.20  C 
BRANCH 25 26
ATOM     26 OG   SER B 304       9.377   2.359  33.467  1.00 38.36 LIG-0.40  OA
ATOM     27 HG   SER B 304       9.626   3.154  33.576  1.00 38.36 LIG 0.21  HD
ENDBRANCH 25 26
ENDBRANCH 24 25
BRANCH 24 28
ATOM     28  C   SER B 304      13.004   1.369  33.431  1.00 37.93 LIG 0.24  C 
ATOM     29 O    SER B 304      12.908   0.188  33.767  1.00 38.21 LIG-0.27  OA
ATOM     30  N   ALA B 305      14.130   1.896  32.962  1.00 38.06 LIG-0.35  N 
ATOM     31 H    ALA B 305      14.213   2.719  32.725  1.00 38.06 LIG 0.16  HD
BRANCH 30 32
ATOM     32  CA  ALA B 305      15.340   1.097  32.809  1.00 38.30 LIG 0.16  C 
ATOM     33  CB  ALA B 305      15.313   0.372  31.465  1.00 38.13 LIG 0.04  C 
BRANCH 32 34
ATOM     34  C   ALA B 305      16.592   1.961  32.907  1.00 38.47 LIG 0.22  C 
ATOM     35 O    ALA B 305      16.831   2.758  31.976  1.00 38.58 LIG-0.29  OA
ENDBRANCH 32 34
ENDBRANCH 30 32
ENDBRANCH 24 28
ENDBRANCH 22 24
ENDBRANCH 1 20
TORSDOF 14
ENDMDL
MODEL 86
USER: ADFR SOLUTION from run 184
USER: SCORE 10.078279 LL:  -1.848 LR:  -9.318 RR:   0.000 FEB:  -5.142
USER: RMSD 8.982088
USER: SEED 183
USER: STATUS no improvement in best in 46 clusters for 5 generations
USER: GENES 16
USER: genes 0 Translation |==|  0.50744 0.55266 0.35510
USER: genes 1 Rotation |==|  0.42264 0.58702 0.02660 0.61108
USER: genes 2 Torsion [CB]-CA--N-[C] |==|  0.83879
USER: genes 3 Torsion [N]-C--CA-[N] |==|  0.88055
USER: genes 4 Torsion [C]-CA--N-[C] |==|  0.70042
USER: genes 5 Torsion [N]-C--CA-[N] |==|  0.27839
USER: genes 6 Torsion [C]-CA--CB-[OG] |==|  0.59930
USER: genes 7 Torsion [CA]-CB--OG-[HG] |==|  0.15476
USER: genes 8 Torsion [N]-CA--CB-[CG1] |==|  0.39421
USER: genes 9 Torsion [N]-CA--C-[N] |==|  0.30216
USER: genes 10 Torsion [C]-N--CA-[CB] |==|  0.13333
USER: genes 11 Torsion [N]-CA--CB-[OG] |==|  0.71817
USER: genes 12 Torsion [CA]-CB--OG-[HG] |==|  0.17573
USER: genes 13 Torsion [N]-CA--C-[N] |==|  0.08976
USER: genes 14 Torsion [C]-N--CA-[C] |==|  0.66358
USER: genes 15 Torsion [N]-CA--C-[O] |==|  0.04060
ROOT
ATOM      1  CA  VAL B 303      13.226   5.702  31.258  1.00 37.13 LIG 0.18  C 
ENDROOT
BRANCH 1 2
ATOM      2  N   VAL B 303      14.458   6.351  31.688  1.00 37.20 LIG-0.35  N 
ATOM      3  C   SER B 302      15.618   6.122  31.081  1.00 37.39 LIG 0.24  C 
ATOM      4 O    SER B 302      15.736   5.341  30.133  1.00 37.76 LIG-0.27  OA
ATOM      5 H    VAL B 303      14.364   6.884  32.356  1.00 37.20 LIG 0.16  HD
BRANCH 3 6
ATOM      6  CA  SER B 302      16.824   6.878  31.630  1.00 37.09 LIG 0.20  C 
BRANCH 6 7
ATOM      7  N   SER B 302      16.479   8.266  31.910  1.00 36.48 LIG-0.34  N 
ATOM      8 H    SER B 302      15.973   8.375  32.597  1.00 36.48 LIG 0.16  HD
ATOM      9  C   ALA B 301      16.923   9.262  31.150  1.00 36.26 LIG 0.26  C 
ATOM     10 O    ALA B 301      17.653   9.084  30.174  1.00 35.88 LIG-0.27  OA
BRANCH 9 11
ATOM     11  CA  ALA B 301      16.482  10.667  31.548  1.00 36.43 LIG 0.40  C 
ATOM     12  CB  ALA B 301      16.112  11.469  30.304  1.00 36.70 LIG 0.06  C 
ATOM     13  N   ALA B 301      17.560  11.372  32.301  1.00 36.51 LIG 0.61  N 
ENDBRANCH 9 11
ENDBRANCH 6 7
BRANCH 6 14
ATOM     14  CB  SER B 302      17.327   6.184  32.899  1.00 37.65 LIG 0.20  C 
BRANCH 14 15
ATOM     15 OG   SER B 302      17.799   7.128  33.844  1.00 38.63 LIG-0.40  OA
ATOM     16 HG   SER B 302      17.193   7.686  34.009  1.00 38.63 LIG 0.21  HD
ENDBRANCH 14 15
ENDBRANCH 6 14
ENDBRANCH 3 6
ENDBRANCH 1 2
BRANCH 1 17
ATOM     17  CB  VAL B 303      12.907   6.009  29.772  1.00 37.28 LIG 0.01  C 
ATOM     18  CG1 VAL B 303      12.329   4.778  29.100  1.00 36.92 LIG 0.01  C 
ATOM     19  CG2 VAL B 303      11.930   7.173  29.675  1.00 37.06 LIG 0.01  C 
ENDBRANCH 1 17
BRANCH 1 20
ATOM     20  C   VAL B 303      13.359   4.195  31.429  1.00 37.27 LIG 0.24  C 
ATOM     21 O    VAL B 303      14.101   3.542  30.693  1.00 36.92 LIG-0.27  OA
ATOM     22  N   SER B 304      12.648   3.646  32.406  1.00 37.37 LIG-0.34  N 
ATOM     23 H    SER B 304      12.135   4.089  32.937  1.00 37.37 LIG 0.16  HD
BRANCH 22 24
ATOM     24  CA  SER B 304      12.684   2.211  32.658  1.00 37.74 LIG 0.20  C 
BRANCH 24 25
ATOM     25  CB  SER B 304      14.132   1.715  32.695  1.00 37.88 LIG 0.20  C 
BRANCH 25 26
ATOM     26 OG   SER B 304      14.479   1.080  31.476  1.00 38.36 LIG-0.40  OA
ATOM     27 HG   SER B 304      14.440   1.638  30.848  1.00 38.36 LIG 0.21  HD
ENDBRANCH 25 26
ENDBRANCH 24 25
BRANCH 24 28
ATOM     28  C   SER B 304      11.999   1.916  33.989  1.00 37.93 LIG 0.24  C 
ATOM     29 O    SER B 304      12.379   0.982  34.696  1.00 38.21 LIG-0.27  OA
ATOM     30  N   ALA B 305      10.992   2.714  34.329  1.00 38.06 LIG-0.35  N 
ATOM     31 H    ALA B 305      10.713   3.368  33.846  1.00 38.06 LIG 0.16  HD
BRANCH 30 32
ATOM     32  CA  ALA B 305      10.265   2.534  35.580  1.00 38.30 LIG 0.16  C 
ATOM     33  CB  ALA B 305      10.449   3.764  36.466  1.00 38.13 LIG 0.04  C 
BRANCH 32 34
ATOM     34  C   ALA B 305       8.780   2.292  35.330  1.00 38.47 LIG 0.22  C 
ATOM     35 O    ALA B 305       8.420   2.000  34.171  1.00 38.58 LIG-0.29  OA
ENDBRANCH 32 34
ENDBRANCH 30 32
ENDBRANCH 24 28
ENDBRANCH 22 24
ENDBRANCH 1 20
TORSDOF 14
ENDMDL
MODEL 87
USER: ADFR SOLUTION from run 2
USER: SCORE 9.842972 LL:  -1.218 LR:  -9.322 RR:   0.000 FEB:  -5.146
USER: RMSD 4.502024
USER: SEED 124370
USER: STATUS no improvement in best in 22 clusters for 5 generations
USER: GENES 16
USER: genes 0 Translation |==|  0.59593 0.51432 0.34387
USER: genes 1 Rotation |==|  0.54925 0.67579 0.58359 0.95791
USER: genes 2 Torsion [CB]-CA--N-[C] |==|  0.83806
USER: genes 3 Torsion [N]-C--CA-[N] |==|  0.46938
USER: genes 4 Torsion [C]-CA--N-[C] |==|  0.61111
USER: genes 5 Torsion [N]-C--CA-[N] |==|  0.09698
USER: genes 6 Torsion [C]-CA--CB-[OG] |==|  0.72743
USER: genes 7 Torsion [CA]-CB--OG-[HG] |==|  0.08862
USER: genes 8 Torsion [N]-CA--CB-[CG1] |==|  0.92761
USER: genes 9 Torsion [N]-CA--C-[N] |==|  0.39995
USER: genes 10 Torsion [C]-N--CA-[CB] |==|  0.87923
USER: genes 11 Torsion [N]-CA--CB-[OG] |==|  0.41323
USER: genes 12 Torsion [CA]-CB--OG-[HG] |==|  0.76333
USER: genes 13 Torsion [N]-CA--C-[N] |==|  0.83932
USER: genes 14 Torsion [C]-N--CA-[C] |==|  0.81177
USER: genes 15 Torsion [N]-CA--C-[O] |==|  0.96109
ROOT
ATOM      1  CA  VAL B 303      15.018   4.926  31.090  1.00 37.13 LIG 0.18  C 
ENDROOT
BRANCH 1 2
ATOM      2  N   VAL B 303      14.651   4.164  32.277  1.00 37.20 LIG-0.35  N 
ATOM      3  C   SER B 302      13.710   4.584  33.116  1.00 37.39 LIG 0.24  C 
ATOM      4 O    SER B 302      13.100   5.646  32.962  1.00 37.76 LIG-0.27  OA
ATOM      5 H    VAL B 303      15.092   3.433  32.379  1.00 37.20 LIG 0.16  HD
BRANCH 3 6
ATOM      6  CA  SER B 302      13.423   3.680  34.310  1.00 37.09 LIG 0.20  C 
BRANCH 6 7
ATOM      7  N   SER B 302      12.575   4.360  35.281  1.00 36.48 LIG-0.34  N 
ATOM      8 H    SER B 302      11.948   4.835  34.934  1.00 36.48 LIG 0.16  HD
ATOM      9  C   ALA B 301      12.777   4.239  36.589  1.00 36.26 LIG 0.26  C 
ATOM     10 O    ALA B 301      13.678   3.548  37.065  1.00 35.88 LIG-0.27  OA
BRANCH 9 11
ATOM     11  CA  ALA B 301      11.823   5.011  37.496  1.00 36.43 LIG 0.40  C 
ATOM     12  CB  ALA B 301      11.776   4.361  38.876  1.00 36.70 LIG 0.06  C 
ATOM     13  N   ALA B 301      10.450   5.054  36.912  1.00 36.51 LIG 0.61  N 
ENDBRANCH 9 11
ENDBRANCH 6 7
BRANCH 6 14
ATOM     14  CB  SER B 302      12.753   2.391  33.824  1.00 37.65 LIG 0.20  C 
BRANCH 14 15
ATOM     15 OG   SER B 302      11.347   2.457  33.978  1.00 38.63 LIG-0.40  OA
ATOM     16 HG   SER B 302      11.092   3.251  33.881  1.00 38.63 LIG 0.21  HD
ENDBRANCH 14 15
ENDBRANCH 6 14
ENDBRANCH 3 6
ENDBRANCH 1 2
BRANCH 1 17
ATOM     17  CB  VAL B 303      13.800   5.150  30.156  1.00 37.28 LIG 0.01  C 
ATOM     18  CG1 VAL B 303      12.781   4.045  30.359  1.00 36.92 LIG 0.01  C 
ATOM     19  CG2 VAL B 303      13.171   6.509  30.432  1.00 37.06 LIG 0.01  C 
ENDBRANCH 1 17
BRANCH 1 20
ATOM     20  C   VAL B 303      15.569   6.282  31.508  1.00 37.27 LIG 0.24  C 
ATOM     21 O    VAL B 303      15.109   6.874  32.486  1.00 36.92 LIG-0.27  OA
ATOM     22  N   SER B 304      16.561   6.769  30.771  1.00 37.37 LIG-0.34  N 
ATOM     23 H    SER B 304      16.902   6.364  30.094  1.00 37.37 LIG 0.16  HD
BRANCH 22 24
ATOM     24  CA  SER B 304      17.162   8.064  31.067  1.00 37.74 LIG 0.20  C 
BRANCH 24 25
ATOM     25  CB  SER B 304      16.075   9.093  31.387  1.00 37.88 LIG 0.20  C 
BRANCH 25 26
ATOM     26 OG   SER B 304      16.549  10.055  32.315  1.00 38.36 LIG-0.40  OA
ATOM     27 HG   SER B 304      16.450   9.763  33.097  1.00 38.36 LIG 0.21  HD
ENDBRANCH 25 26
ENDBRANCH 24 25
BRANCH 24 28
ATOM     28  C   SER B 304      18.109   7.920  32.254  1.00 37.93 LIG 0.24  C 
ATOM     29 O    SER B 304      19.297   8.226  32.148  1.00 38.21 LIG-0.27  OA
ATOM     30  N   ALA B 305      17.582   7.456  33.382  1.00 38.06 LIG-0.35  N 
ATOM     31 H    ALA B 305      16.756   7.235  33.472  1.00 38.06 LIG 0.16  HD
BRANCH 30 32
ATOM     32  CA  ALA B 305      18.388   7.281  34.585  1.00 38.30 LIG 0.16  C 
ATOM     33  CB  ALA B 305      17.480   6.969  35.774  1.00 38.13 LIG 0.04  C 
BRANCH 32 34
ATOM     34  C   ALA B 305      19.415   6.168  34.409  1.00 38.47 LIG 0.22  C 
ATOM     35 O    ALA B 305      19.281   5.394  33.439  1.00 38.58 LIG-0.29  OA
ENDBRANCH 32 34
ENDBRANCH 30 32
ENDBRANCH 24 28
ENDBRANCH 22 24
ENDBRANCH 1 20
TORSDOF 14
ENDMDL
MODEL 88
USER: ADFR SOLUTION from run 159
USER: SCORE 9.853606 LL:  -1.690 LR:  -9.302 RR:   0.000 FEB:  -5.126
USER: RMSD 8.477480
USER: SEED 158
USER: STATUS no improvement in best in 47 clusters for 5 generations
USER: GENES 16
USER: genes 0 Translation |==|  0.47025 0.48924 0.35444
USER: genes 1 Rotation |==|  0.49300 0.49525 0.00046 0.51970
USER: genes 2 Torsion [CB]-CA--N-[C] |==|  0.18889
USER: genes 3 Torsion [N]-C--CA-[N] |==|  0.54373
USER: genes 4 Torsion [C]-CA--N-[C] |==|  0.71157
USER: genes 5 Torsion [N]-C--CA-[N] |==|  0.30098
USER: genes 6 Torsion [C]-CA--CB-[OG] |==|  0.88594
USER: genes 7 Torsion [CA]-CB--OG-[HG] |==|  0.78457
USER: genes 8 Torsion [N]-CA--CB-[CG1] |==|  0.73143
USER: genes 9 Torsion [N]-CA--C-[N] |==|  0.14831
USER: genes 10 Torsion [C]-N--CA-[CB] |==|  0.15721
USER: genes 11 Torsion [N]-CA--CB-[OG] |==|  0.09051
USER: genes 12 Torsion [CA]-CB--OG-[HG] |==|  0.77481
USER: genes 13 Torsion [N]-CA--C-[N] |==|  0.08488
USER: genes 14 Torsion [C]-N--CA-[C] |==|  0.52325
USER: genes 15 Torsion [N]-CA--C-[O] |==|  0.51301
ROOT
ATOM      1  CA  VAL B 303      12.472   4.418  31.249  1.00 37.13 LIG 0.18  C 
ENDROOT
BRANCH 1 2
ATOM      2  N   VAL B 303      13.732   4.794  31.877  1.00 37.20 LIG-0.35  N 
ATOM      3  C   SER B 302      14.320   5.960  31.627  1.00 37.39 LIG 0.24  C 
ATOM      4 O    SER B 302      13.855   6.790  30.841  1.00 37.76 LIG-0.27  OA
ATOM      5 H    VAL B 303      14.052   4.202  32.413  1.00 37.20 LIG 0.16  HD
BRANCH 3 6
ATOM      6  CA  SER B 302      15.628   6.224  32.364  1.00 37.09 LIG 0.20  C 
BRANCH 6 7
ATOM      7  N   SER B 302      15.977   7.638  32.307  1.00 36.48 LIG-0.34  N 
ATOM      8 H    SER B 302      15.521   8.138  32.837  1.00 36.48 LIG 0.16  HD
ATOM      9  C   ALA B 301      16.927   8.089  31.494  1.00 36.26 LIG 0.26  C 
ATOM     10 O    ALA B 301      17.574   7.354  30.748  1.00 35.88 LIG-0.27  OA
BRANCH 9 11
ATOM     11  CA  ALA B 301      17.187   9.592  31.525  1.00 36.43 LIG 0.40  C 
ATOM     12  CB  ALA B 301      17.186  10.152  30.106  1.00 36.70 LIG 0.06  C 
ATOM     13  N   ALA B 301      18.491   9.894  32.186  1.00 36.51 LIG 0.61  N 
ENDBRANCH 9 11
ENDBRANCH 6 7
BRANCH 6 14
ATOM     14  CB  SER B 302      15.497   5.763  33.819  1.00 37.65 LIG 0.20  C 
BRANCH 14 15
ATOM     15 OG   SER B 302      14.231   6.109  34.351  1.00 38.63 LIG-0.40  OA
ATOM     16 HG   SER B 302      14.223   6.925  34.548  1.00 38.63 LIG 0.21  HD
ENDBRANCH 14 15
ENDBRANCH 6 14
ENDBRANCH 3 6
ENDBRANCH 1 2
BRANCH 1 17
ATOM     17  CB  VAL B 303      12.642   4.187  29.725  1.00 37.28 LIG 0.01  C 
ATOM     18  CG1 VAL B 303      12.249   5.438  28.963  1.00 36.92 LIG 0.01  C 
ATOM     19  CG2 VAL B 303      14.081   3.804  29.409  1.00 37.06 LIG 0.01  C 
ENDBRANCH 1 17
BRANCH 1 20
ATOM     20  C   VAL B 303      11.951   3.136  31.883  1.00 37.27 LIG 0.24  C 
ATOM     21 O    VAL B 303      11.666   2.160  31.187  1.00 36.92 LIG-0.27  OA
ATOM     22  N   SER B 304      11.837   3.136  33.206  1.00 37.37 LIG-0.34  N 
ATOM     23 H    SER B 304      12.043   3.803  33.708  1.00 37.37 LIG 0.16  HD
BRANCH 22 24
ATOM     24  CA  SER B 304      11.339   1.970  33.925  1.00 37.74 LIG 0.20  C 
BRANCH 24 25
ATOM     25  CB  SER B 304      12.190   0.741  33.599  1.00 37.88 LIG 0.20  C 
BRANCH 25 26
ATOM     26 OG   SER B 304      13.539   1.109  33.364  1.00 38.36 LIG-0.40  OA
ATOM     27 HG   SER B 304      13.620   1.391  32.577  1.00 38.36 LIG 0.21  HD
ENDBRANCH 25 26
ENDBRANCH 24 25
BRANCH 24 28
ATOM     28  C   SER B 304      11.379   2.249  35.425  1.00 37.93 LIG 0.24  C 
ATOM     29 O    SER B 304      11.558   1.332  36.227  1.00 38.21 LIG-0.27  OA
ATOM     30  N   ALA B 305      11.214   3.513  35.799  1.00 38.06 LIG-0.35  N 
ATOM     31 H    ALA B 305      11.085   4.164  35.252  1.00 38.06 LIG 0.16  HD
BRANCH 30 32
ATOM     32  CA  ALA B 305      11.239   3.901  37.204  1.00 38.30 LIG 0.16  C 
ATOM     33  CB  ALA B 305      12.640   3.684  37.775  1.00 38.13 LIG 0.04  C 
BRANCH 32 34
ATOM     34  C   ALA B 305      10.825   5.357  37.386  1.00 38.47 LIG 0.22  C 
ATOM     35 O    ALA B 305      10.889   5.847  38.533  1.00 38.58 LIG-0.29  OA
ENDBRANCH 32 34
ENDBRANCH 30 32
ENDBRANCH 24 28
ENDBRANCH 22 24
ENDBRANCH 1 20
TORSDOF 14
ENDMDL
MODEL 89
USER: ADFR SOLUTION from run 29
USER: SCORE 10.069965 LL:  -1.672 LR:  -9.301 RR:   0.000 FEB:  -5.125
USER: RMSD 6.377916
USER: SEED 28
USER: STATUS no improvement in best in 39 clusters for 5 generations
USER: GENES 16
USER: genes 0 Translation |==|  0.44362 0.49068 0.32231
USER: genes 1 Rotation |==|  0.52478 0.63319 0.06583 0.70771
USER: genes 2 Torsion [CB]-CA--N-[C] |==|  0.78836
USER: genes 3 Torsion [N]-C--CA-[N] |==|  0.28212
USER: genes 4 Torsion [C]-CA--N-[C] |==|  0.75190
USER: genes 5 Torsion [N]-C--CA-[N] |==|  0.13757
USER: genes 6 Torsion [C]-CA--CB-[OG] |==|  0.59566
USER: genes 7 Torsion [CA]-CB--OG-[HG] |==|  0.66777
USER: genes 8 Torsion [N]-CA--CB-[CG1] |==|  0.85388
USER: genes 9 Torsion [N]-CA--C-[N] |==|  0.16111
USER: genes 10 Torsion [C]-N--CA-[CB] |==|  0.87738
USER: genes 11 Torsion [N]-CA--CB-[OG] |==|  0.43854
USER: genes 12 Torsion [CA]-CB--OG-[HG] |==|  0.23799
USER: genes 13 Torsion [N]-CA--C-[N] |==|  0.87921
USER: genes 14 Torsion [C]-N--CA-[C] |==|  0.82384
USER: genes 15 Torsion [N]-CA--C-[O] |==|  0.58654
ROOT
ATOM      1  CA  VAL B 303      11.933   4.447  30.767  1.00 37.13 LIG 0.18  C 
ENDROOT
BRANCH 1 2
ATOM      2  N   VAL B 303      12.650   5.126  31.839  1.00 37.20 LIG-0.35  N 
ATOM      3  C   SER B 302      13.976   5.106  31.918  1.00 37.39 LIG 0.24  C 
ATOM      4 O    SER B 302      14.687   4.503  31.108  1.00 37.76 LIG-0.27  OA
ATOM      5 H    VAL B 303      12.143   5.532  32.403  1.00 37.20 LIG 0.16  HD
BRANCH 3 6
ATOM      6  CA  SER B 302      14.592   5.868  33.087  1.00 37.09 LIG 0.20  C 
BRANCH 6 7
ATOM      7  N   SER B 302      14.988   4.952  34.148  1.00 36.48 LIG-0.34  N 
ATOM      8 H    SER B 302      15.796   4.665  34.087  1.00 36.48 LIG 0.16  HD
ATOM      9  C   ALA B 301      14.150   4.607  35.121  1.00 36.26 LIG 0.26  C 
ATOM     10 O    ALA B 301      12.999   5.037  35.195  1.00 35.88 LIG-0.27  OA
BRANCH 9 11
ATOM     11  CA  ALA B 301      14.689   3.635  36.166  1.00 36.43 LIG 0.40  C 
ATOM     12  CB  ALA B 301      13.699   3.509  37.320  1.00 36.70 LIG 0.06  C 
ATOM     13  N   ALA B 301      16.014   4.088  36.684  1.00 36.51 LIG 0.61  N 
ENDBRANCH 9 11
ENDBRANCH 6 7
BRANCH 6 14
ATOM     14  CB  SER B 302      15.799   6.671  32.593  1.00 37.65 LIG 0.20  C 
BRANCH 14 15
ATOM     15 OG   SER B 302      16.810   6.733  33.582  1.00 38.63 LIG-0.40  OA
ATOM     16 HG   SER B 302      16.952   7.535  33.789  1.00 38.63 LIG 0.21  HD
ENDBRANCH 14 15
ENDBRANCH 6 14
ENDBRANCH 3 6
ENDBRANCH 1 2
BRANCH 1 17
ATOM     17  CB  VAL B 303      12.016   5.238  29.435  1.00 37.28 LIG 0.01  C 
ATOM     18  CG1 VAL B 303      11.576   6.673  29.656  1.00 36.92 LIG 0.01  C 
ATOM     19  CG2 VAL B 303      13.436   5.197  28.889  1.00 37.06 LIG 0.01  C 
ENDBRANCH 1 17
BRANCH 1 20
ATOM     20  C   VAL B 303      12.532   3.064  30.551  1.00 37.27 LIG 0.24  C 
ATOM     21 O    VAL B 303      12.992   2.741  29.454  1.00 36.92 LIG-0.27  OA
ATOM     22  N   SER B 304      12.537   2.253  31.602  1.00 37.37 LIG-0.34  N 
ATOM     23 H    SER B 304      12.232   2.466  32.378  1.00 37.37 LIG 0.16  HD
BRANCH 22 24
ATOM     24  CA  SER B 304      13.073   0.900  31.515  1.00 37.74 LIG 0.20  C 
BRANCH 24 25
ATOM     25  CB  SER B 304      12.593   0.220  30.230  1.00 37.88 LIG 0.20  C 
BRANCH 25 26
ATOM     26 OG   SER B 304      13.460  -0.843  29.868  1.00 38.36 LIG-0.40  OA
ATOM     27 HG   SER B 304      13.229  -1.543  30.272  1.00 38.36 LIG 0.21  HD
ENDBRANCH 25 26
ENDBRANCH 24 25
BRANCH 24 28
ATOM     28  C   SER B 304      14.597   0.961  31.534  1.00 37.93 LIG 0.24  C 
ATOM     29 O    SER B 304      15.247   0.168  32.216  1.00 38.21 LIG-0.27  OA
ATOM     30  N   ALA B 305      15.164   1.900  30.784  1.00 38.06 LIG-0.35  N 
ATOM     31 H    ALA B 305      14.725   2.462  30.304  1.00 38.06 LIG 0.16  HD
BRANCH 30 32
ATOM     32  CA  ALA B 305      16.613   2.050  30.717  1.00 38.30 LIG 0.16  C 
ATOM     33  CB  ALA B 305      16.974   3.115  29.682  1.00 38.13 LIG 0.04  C 
BRANCH 32 34
ATOM     34  C   ALA B 305      17.196   2.428  32.074  1.00 38.47 LIG 0.22  C 
ATOM     35 O    ALA B 305      18.222   3.139  32.096  1.00 38.58 LIG-0.29  OA
ENDBRANCH 32 34
ENDBRANCH 30 32
ENDBRANCH 24 28
ENDBRANCH 22 24
ENDBRANCH 1 20
TORSDOF 14
ENDMDL
MODEL 90
USER: ADFR SOLUTION from run 29
USER: SCORE 9.532261 LL:  -1.770 LR:  -9.290 RR:   0.000 FEB:  -5.114
USER: RMSD 8.868279
USER: SEED 28
USER: STATUS no improvement in best in 39 clusters for 5 generations
USER: GENES 16
USER: genes 0 Translation |==|  0.54387 0.54117 0.50491
USER: genes 1 Rotation |==|  0.39934 0.38933 0.02292 0.50315
USER: genes 2 Torsion [CB]-CA--N-[C] |==|  0.86111
USER: genes 3 Torsion [N]-C--CA-[N] |==|  0.10270
USER: genes 4 Torsion [C]-CA--N-[C] |==|  0.17335
USER: genes 5 Torsion [N]-C--CA-[N] |==|  0.42787
USER: genes 6 Torsion [C]-CA--CB-[OG] |==|  0.15802
USER: genes 7 Torsion [CA]-CB--OG-[HG] |==|  0.53865
USER: genes 8 Torsion [N]-CA--CB-[CG1] |==|  0.40829
USER: genes 9 Torsion [N]-CA--C-[N] |==|  0.39297
USER: genes 10 Torsion [C]-N--CA-[CB] |==|  0.41858
USER: genes 11 Torsion [N]-CA--CB-[OG] |==|  0.40691
USER: genes 12 Torsion [CA]-CB--OG-[HG] |==|  0.74424
USER: genes 13 Torsion [N]-CA--C-[N] |==|  0.85483
USER: genes 14 Torsion [C]-N--CA-[C] |==|  0.61941
USER: genes 15 Torsion [N]-CA--C-[O] |==|  0.59758
ROOT
ATOM      1  CA  VAL B 303      13.963   5.470  33.506  1.00 37.13 LIG 0.18  C 
ENDROOT
BRANCH 1 2
ATOM      2  N   VAL B 303      15.356   5.895  33.454  1.00 37.20 LIG-0.35  N 
ATOM      3  C   SER B 302      16.343   5.035  33.224  1.00 37.39 LIG 0.24  C 
ATOM      4 O    SER B 302      16.155   3.827  33.056  1.00 37.76 LIG-0.27  OA
ATOM      5 H    VAL B 303      15.475   6.737  33.585  1.00 37.20 LIG 0.16  HD
BRANCH 3 6
ATOM      6  CA  SER B 302      17.750   5.622  33.187  1.00 37.09 LIG 0.20  C 
BRANCH 6 7
ATOM      7  N   SER B 302      17.894   6.681  34.178  1.00 36.48 LIG-0.34  N 
ATOM      8 H    SER B 302      18.066   7.456  33.847  1.00 36.48 LIG 0.16  HD
ATOM      9  C   ALA B 301      17.765   6.441  35.479  1.00 36.26 LIG 0.26  C 
ATOM     10 O    ALA B 301      17.511   5.324  35.931  1.00 35.88 LIG-0.27  OA
BRANCH 9 11
ATOM     11  CA  ALA B 301      17.948   7.636  36.409  1.00 36.43 LIG 0.40  C 
ATOM     12  CB  ALA B 301      19.430   7.846  36.703  1.00 36.70 LIG 0.06  C 
ATOM     13  N   ALA B 301      17.204   7.436  37.688  1.00 36.51 LIG 0.61  N 
ENDBRANCH 9 11
ENDBRANCH 6 7
BRANCH 6 14
ATOM     14  CB  SER B 302      18.774   4.510  33.438  1.00 37.65 LIG 0.20  C 
BRANCH 14 15
ATOM     15 OG   SER B 302      18.632   3.464  32.494  1.00 38.63 LIG-0.40  OA
ATOM     16 HG   SER B 302      19.061   2.791  32.755  1.00 38.63 LIG 0.21  HD
ENDBRANCH 14 15
ENDBRANCH 6 14
ENDBRANCH 3 6
ENDBRANCH 1 2
BRANCH 1 17
ATOM     17  CB  VAL B 303      13.583   4.612  32.271  1.00 37.28 LIG 0.01  C 
ATOM     18  CG1 VAL B 303      12.553   3.569  32.662  1.00 36.92 LIG 0.01  C 
ATOM     19  CG2 VAL B 303      13.041   5.502  31.161  1.00 37.06 LIG 0.01  C 
ENDBRANCH 1 17
BRANCH 1 20
ATOM     20  C   VAL B 303      13.730   4.646  34.764  1.00 37.27 LIG 0.24  C 
ATOM     21 O    VAL B 303      14.588   3.860  35.171  1.00 36.92 LIG-0.27  OA
ATOM     22  N   SER B 304      12.572   4.833  35.386  1.00 37.37 LIG-0.34  N 
ATOM     23 H    SER B 304      11.968   5.386  35.124  1.00 37.37 LIG 0.16  HD
BRANCH 22 24
ATOM     24  CA  SER B 304      12.230   4.093  36.595  1.00 37.74 LIG 0.20  C 
BRANCH 24 25
ATOM     25  CB  SER B 304      11.298   4.923  37.480  1.00 37.88 LIG 0.20  C 
BRANCH 25 26
ATOM     26 OG   SER B 304      10.384   4.088  38.172  1.00 38.36 LIG-0.40  OA
ATOM     27 HG   SER B 304       9.679   4.011  37.722  1.00 38.36 LIG 0.21  HD
ENDBRANCH 25 26
ENDBRANCH 24 25
BRANCH 24 28
ATOM     28  C   SER B 304      11.551   2.783  36.207  1.00 37.93 LIG 0.24  C 
ATOM     29 O    SER B 304      11.958   1.710  36.655  1.00 38.21 LIG-0.27  OA
ATOM     30  N   ALA B 305      10.517   2.872  35.378  1.00 38.06 LIG-0.35  N 
ATOM     31 H    ALA B 305      10.222   3.613  35.055  1.00 38.06 LIG 0.16  HD
BRANCH 30 32
ATOM     32  CA  ALA B 305       9.784   1.689  34.942  1.00 38.30 LIG 0.16  C 
ATOM     33  CB  ALA B 305       8.486   1.563  35.739  1.00 38.13 LIG 0.04  C 
BRANCH 32 34
ATOM     34  C   ALA B 305       9.475   1.745  33.451  1.00 38.47 LIG 0.22  C 
ATOM     35 O    ALA B 305       8.393   1.261  33.057  1.00 38.58 LIG-0.29  OA
ENDBRANCH 32 34
ENDBRANCH 30 32
ENDBRANCH 24 28
ENDBRANCH 22 24
ENDBRANCH 1 20
TORSDOF 14
ENDMDL
MODEL 91
USER: ADFR SOLUTION from run 18
USER: SCORE 9.745672 LL:  -2.294 LR:  -9.291 RR:   0.000 FEB:  -5.115
USER: RMSD 6.745618
USER: SEED 17
USER: STATUS no improvement in best in 21 clusters for 5 generations
USER: GENES 16
USER: genes 0 Translation |==|  0.54340 0.49370 0.33617
USER: genes 1 Rotation |==|  0.72792 0.56139 0.82064 0.80244
USER: genes 2 Torsion [CB]-CA--N-[C] |==|  0.81667
USER: genes 3 Torsion [N]-C--CA-[N] |==|  0.17915
USER: genes 4 Torsion [C]-CA--N-[C] |==|  0.14438
USER: genes 5 Torsion [N]-C--CA-[N] |==|  0.27850
USER: genes 6 Torsion [C]-CA--CB-[OG] |==|  0.40123
USER: genes 7 Torsion [CA]-CB--OG-[HG] |==|  0.59346
USER: genes 8 Torsion [N]-CA--CB-[CG1] |==|  0.57678
USER: genes 9 Torsion [N]-CA--C-[N] |==|  0.09239
USER: genes 10 Torsion [C]-N--CA-[CB] |==|  0.88468
USER: genes 11 Torsion [N]-CA--CB-[OG] |==|  0.90364
USER: genes 12 Torsion [CA]-CB--OG-[HG] |==|  0.51256
USER: genes 13 Torsion [N]-CA--C-[N] |==|  0.85636
USER: genes 14 Torsion [C]-N--CA-[C] |==|  0.58754
USER: genes 15 Torsion [N]-CA--C-[O] |==|  0.53188
ROOT
ATOM      1  CA  VAL B 303      13.954   4.508  30.975  1.00 37.13 LIG 0.18  C 
ENDROOT
BRANCH 1 2
ATOM      2  N   VAL B 303      14.434   3.182  30.606  1.00 37.20 LIG-0.35  N 
ATOM      3  C   SER B 302      13.741   2.084  30.887  1.00 37.39 LIG 0.24  C 
ATOM      4 O    SER B 302      12.663   2.106  31.488  1.00 37.76 LIG-0.27  OA
ATOM      5 H    VAL B 303      15.191   3.180  30.199  1.00 37.20 LIG 0.16  HD
BRANCH 3 6
ATOM      6  CA  SER B 302      14.359   0.766  30.432  1.00 37.09 LIG 0.20  C 
BRANCH 6 7
ATOM      7  N   SER B 302      15.613   0.515  31.130  1.00 36.48 LIG-0.34  N 
ATOM      8 H    SER B 302      16.278   0.337  30.614  1.00 36.48 LIG 0.16  HD
ATOM      9  C   ALA B 301      15.695   0.565  32.456  1.00 36.26 LIG 0.26  C 
ATOM     10 O    ALA B 301      14.732   0.829  33.176  1.00 35.88 LIG-0.27  OA
BRANCH 9 11
ATOM     11  CA  ALA B 301      17.066   0.274  33.061  1.00 36.43 LIG 0.40  C 
ATOM     12  CB  ALA B 301      16.914  -0.611  34.294  1.00 36.70 LIG 0.06  C 
ATOM     13  N   ALA B 301      17.765   1.540  33.431  1.00 36.51 LIG 0.61  N 
ENDBRANCH 9 11
ENDBRANCH 6 7
BRANCH 6 14
ATOM     14  CB  SER B 302      13.368  -0.376  30.683  1.00 37.65 LIG 0.20  C 
BRANCH 14 15
ATOM     15 OG   SER B 302      13.449  -1.355  29.664  1.00 38.63 LIG-0.40  OA
ATOM     16 HG   SER B 302      12.688  -1.685  29.530  1.00 38.63 LIG 0.21  HD
ENDBRANCH 14 15
ENDBRANCH 6 14
ENDBRANCH 3 6
ENDBRANCH 1 2
BRANCH 1 17
ATOM     17  CB  VAL B 303      12.664   4.885  30.200  1.00 37.28 LIG 0.01  C 
ATOM     18  CG1 VAL B 303      12.568   6.391  30.052  1.00 36.92 LIG 0.01  C 
ATOM     19  CG2 VAL B 303      12.662   4.217  28.831  1.00 37.06 LIG 0.01  C 
ENDBRANCH 1 17
BRANCH 1 20
ATOM     20  C   VAL B 303      13.655   4.544  32.467  1.00 37.27 LIG 0.24  C 
ATOM     21 O    VAL B 303      12.731   5.230  32.908  1.00 36.92 LIG-0.27  OA
ATOM     22  N   SER B 304      14.430   3.795  33.242  1.00 37.37 LIG-0.34  N 
ATOM     23 H    SER B 304      15.070   3.300  32.950  1.00 37.37 LIG 0.16  HD
BRANCH 22 24
ATOM     24  CA  SER B 304      14.247   3.756  34.688  1.00 37.74 LIG 0.20  C 
BRANCH 24 25
ATOM     25  CB  SER B 304      13.970   5.161  35.227  1.00 37.88 LIG 0.20  C 
BRANCH 25 26
ATOM     26 OG   SER B 304      14.690   6.136  34.490  1.00 38.36 LIG-0.40  OA
ATOM     27 HG   SER B 304      14.575   6.892  34.838  1.00 38.36 LIG 0.21  HD
ENDBRANCH 25 26
ENDBRANCH 24 25
BRANCH 24 28
ATOM     28  C   SER B 304      13.082   2.830  35.023  1.00 37.93 LIG 0.24  C 
ATOM     29 O    SER B 304      13.217   1.928  35.851  1.00 38.21 LIG-0.27  OA
ATOM     30  N   ALA B 305      11.940   3.055  34.382  1.00 38.06 LIG-0.35  N 
ATOM     31 H    ALA B 305      11.830   3.678  33.800  1.00 38.06 LIG 0.16  HD
BRANCH 30 32
ATOM     32  CA  ALA B 305      10.756   2.239  34.625  1.00 38.30 LIG 0.16  C 
ATOM     33  CB  ALA B 305       9.935   2.847  35.761  1.00 38.13 LIG 0.04  C 
BRANCH 32 34
ATOM     34  C   ALA B 305       9.898   2.119  33.371  1.00 38.47 LIG 0.22  C 
ATOM     35 O    ALA B 305       8.752   1.636  33.487  1.00 38.58 LIG-0.29  OA
ENDBRANCH 32 34
ENDBRANCH 30 32
ENDBRANCH 24 28
ENDBRANCH 22 24
ENDBRANCH 1 20
TORSDOF 14
ENDMDL
MODEL 92
USER: ADFR SOLUTION from run 189
USER: SCORE 10.501817 LL:  -2.114 LR:  -9.275 RR:   0.000 FEB:  -5.099
USER: RMSD 6.107921
USER: SEED 188
USER: STATUS no improvement in best in 34 clusters for 5 generations
USER: GENES 16
USER: genes 0 Translation |==|  0.63309 0.55565 0.55632
USER: genes 1 Rotation |==|  0.12780 0.35389 0.79995 0.51227
USER: genes 2 Torsion [CB]-CA--N-[C] |==|  0.51126
USER: genes 3 Torsion [N]-C--CA-[N] |==|  0.01397
USER: genes 4 Torsion [C]-CA--N-[C] |==|  0.75439
USER: genes 5 Torsion [N]-C--CA-[N] |==|  0.78261
USER: genes 6 Torsion [C]-CA--CB-[OG] |==|  0.50203
USER: genes 7 Torsion [CA]-CB--OG-[HG] |==|  0.60911
USER: genes 8 Torsion [N]-CA--CB-[CG1] |==|  0.54889
USER: genes 9 Torsion [N]-CA--C-[N] |==|  0.46111
USER: genes 10 Torsion [C]-N--CA-[CB] |==|  0.88826
USER: genes 11 Torsion [N]-CA--CB-[OG] |==|  0.81686
USER: genes 12 Torsion [CA]-CB--OG-[HG] |==|  0.45339
USER: genes 13 Torsion [N]-CA--C-[N] |==|  0.89119
USER: genes 14 Torsion [C]-N--CA-[C] |==|  0.80535
USER: genes 15 Torsion [N]-CA--C-[O] |==|  0.92205
ROOT
ATOM      1  CA  VAL B 303      15.770   5.763  34.277  1.00 37.13 LIG 0.18  C 
ENDROOT
BRANCH 1 2
ATOM      2  N   VAL B 303      14.916   5.183  35.305  1.00 37.20 LIG-0.35  N 
ATOM      3  C   SER B 302      13.655   4.845  35.061  1.00 37.39 LIG 0.24  C 
ATOM      4 O    SER B 302      13.117   5.013  33.962  1.00 37.76 LIG-0.27  OA
ATOM      5 H    VAL B 303      15.299   5.082  36.069  1.00 37.20 LIG 0.16  HD
BRANCH 3 6
ATOM      6  CA  SER B 302      12.883   4.238  36.228  1.00 37.09 LIG 0.20  C 
BRANCH 6 7
ATOM      7  N   SER B 302      13.684   4.261  37.444  1.00 36.48 LIG-0.34  N 
ATOM      8 H    SER B 302      13.575   4.963  37.929  1.00 36.48 LIG 0.16  HD
ATOM      9  C   ALA B 301      14.508   3.265  37.756  1.00 36.26 LIG 0.26  C 
ATOM     10 O    ALA B 301      14.643   2.264  37.051  1.00 35.88 LIG-0.27  OA
BRANCH 9 11
ATOM     11  CA  ALA B 301      15.295   3.418  39.054  1.00 36.43 LIG 0.40  C 
ATOM     12  CB  ALA B 301      14.384   3.948  40.156  1.00 36.70 LIG 0.06  C 
ATOM     13  N   ALA B 301      16.453   4.341  38.870  1.00 36.51 LIG 0.61  N 
ENDBRANCH 9 11
ENDBRANCH 6 7
BRANCH 6 14
ATOM     14  CB  SER B 302      11.576   5.011  36.432  1.00 37.65 LIG 0.20  C 
BRANCH 14 15
ATOM     15 OG   SER B 302      10.838   4.486  37.520  1.00 38.63 LIG-0.40  OA
ATOM     16 HG   SER B 302      10.020   4.486  37.331  1.00 38.63 LIG 0.21  HD
ENDBRANCH 14 15
ENDBRANCH 6 14
ENDBRANCH 3 6
ENDBRANCH 1 2
BRANCH 1 17
ATOM     17  CB  VAL B 303      17.219   5.971  34.788  1.00 37.28 LIG 0.01  C 
ATOM     18  CG1 VAL B 303      17.953   6.946  33.887  1.00 36.92 LIG 0.01  C 
ATOM     19  CG2 VAL B 303      17.200   6.486  36.221  1.00 37.06 LIG 0.01  C 
ENDBRANCH 1 17
BRANCH 1 20
ATOM     20  C   VAL B 303      15.807   4.839  33.067  1.00 37.27 LIG 0.24  C 
ATOM     21 O    VAL B 303      15.386   3.684  33.144  1.00 36.92 LIG-0.27  OA
ATOM     22  N   SER B 304      16.301   5.353  31.947  1.00 37.37 LIG-0.34  N 
ATOM     23 H    SER B 304      16.587   6.161  31.872  1.00 37.37 LIG 0.16  HD
BRANCH 22 24
ATOM     24  CA  SER B 304      16.398   4.562  30.727  1.00 37.74 LIG 0.20  C 
BRANCH 24 25
ATOM     25  CB  SER B 304      16.850   3.136  31.052  1.00 37.88 LIG 0.20  C 
BRANCH 25 26
ATOM     26 OG   SER B 304      18.175   3.129  31.559  1.00 38.36 LIG-0.40  OA
ATOM     27 HG   SER B 304      18.325   2.396  31.941  1.00 38.36 LIG 0.21  HD
ENDBRANCH 25 26
ENDBRANCH 24 25
BRANCH 24 28
ATOM     28  C   SER B 304      15.038   4.532  30.036  1.00 37.93 LIG 0.24  C 
ATOM     29 O    SER B 304      14.957   4.602  28.809  1.00 38.21 LIG-0.27  OA
ATOM     30  N   ALA B 305      13.974   4.427  30.824  1.00 38.06 LIG-0.35  N 
ATOM     31 H    ALA B 305      14.013   4.379  31.681  1.00 38.06 LIG 0.16  HD
BRANCH 30 32
ATOM     32  CA  ALA B 305      12.622   4.383  30.277  1.00 38.30 LIG 0.16  C 
ATOM     33  CB  ALA B 305      11.638   3.964  31.368  1.00 38.13 LIG 0.04  C 
BRANCH 32 34
ATOM     34  C   ALA B 305      12.212   5.732  29.699  1.00 38.47 LIG 0.22  C 
ATOM     35 O    ALA B 305      12.729   6.760  30.184  1.00 38.58 LIG-0.29  OA
ENDBRANCH 32 34
ENDBRANCH 30 32
ENDBRANCH 24 28
ENDBRANCH 22 24
ENDBRANCH 1 20
TORSDOF 14
ENDMDL
MODEL 93
USER: ADFR SOLUTION from run 137
USER: SCORE 9.870362 LL:  -2.120 LR:  -9.275 RR:   0.000 FEB:  -5.099
USER: RMSD 5.597759
USER: SEED 136
USER: STATUS no improvement in best in 28 clusters for 5 generations
USER: GENES 16
USER: genes 0 Translation |==|  0.55562 0.50564 0.25994
USER: genes 1 Rotation |==|  0.67988 0.75122 0.76402 0.79125
USER: genes 2 Torsion [CB]-CA--N-[C] |==|  0.79393
USER: genes 3 Torsion [N]-C--CA-[N] |==|  0.38454
USER: genes 4 Torsion [C]-CA--N-[C] |==|  0.81165
USER: genes 5 Torsion [N]-C--CA-[N] |==|  0.15853
USER: genes 6 Torsion [C]-CA--CB-[OG] |==|  0.52164
USER: genes 7 Torsion [CA]-CB--OG-[HG] |==|  0.88539
USER: genes 8 Torsion [N]-CA--CB-[CG1] |==|  0.52213
USER: genes 9 Torsion [N]-CA--C-[N] |==|  0.12843
USER: genes 10 Torsion [C]-N--CA-[CB] |==|  0.19447
USER: genes 11 Torsion [N]-CA--CB-[OG] |==|  0.75838
USER: genes 12 Torsion [CA]-CB--OG-[HG] |==|  0.83773
USER: genes 13 Torsion [N]-CA--C-[N] |==|  0.45952
USER: genes 14 Torsion [C]-N--CA-[C] |==|  0.16027
USER: genes 15 Torsion [N]-CA--C-[O] |==|  0.70702
ROOT
ATOM      1  CA  VAL B 303      14.201   4.750  29.831  1.00 37.13 LIG 0.18  C 
ENDROOT
BRANCH 1 2
ATOM      2  N   VAL B 303      14.994   3.539  29.999  1.00 37.20 LIG-0.35  N 
ATOM      3  C   SER B 302      15.020   2.872  31.148  1.00 37.39 LIG 0.24  C 
ATOM      4 O    SER B 302      14.395   3.236  32.148  1.00 37.76 LIG-0.27  OA
ATOM      5 H    VAL B 303      15.434   3.303  29.298  1.00 37.20 LIG 0.16  HD
BRANCH 3 6
ATOM      6  CA  SER B 302      15.884   1.616  31.176  1.00 37.09 LIG 0.20  C 
BRANCH 6 7
ATOM      7  N   SER B 302      16.623   1.526  32.429  1.00 36.48 LIG-0.34  N 
ATOM      8 H    SER B 302      16.378   0.879  32.940  1.00 36.48 LIG 0.16  HD
ATOM      9  C   ALA B 301      17.592   2.384  32.731  1.00 36.26 LIG 0.26  C 
ATOM     10 O    ALA B 301      17.932   3.299  31.980  1.00 35.88 LIG-0.27  OA
BRANCH 9 11
ATOM     11  CA  ALA B 301      18.280   2.183  34.078  1.00 36.43 LIG 0.40  C 
ATOM     12  CB  ALA B 301      19.382   3.221  34.260  1.00 36.70 LIG 0.06  C 
ATOM     13  N   ALA B 301      18.857   0.810  34.182  1.00 36.51 LIG 0.61  N 
ENDBRANCH 9 11
ENDBRANCH 6 7
BRANCH 6 14
ATOM     14  CB  SER B 302      14.997   0.381  30.987  1.00 37.65 LIG 0.20  C 
BRANCH 14 15
ATOM     15 OG   SER B 302      15.734  -0.811  31.184  1.00 38.63 LIG-0.40  OA
ATOM     16 HG   SER B 302      16.491  -0.736  30.826  1.00 38.63 LIG 0.21  HD
ENDBRANCH 14 15
ENDBRANCH 6 14
ENDBRANCH 3 6
ENDBRANCH 1 2
BRANCH 1 17
ATOM     17  CB  VAL B 303      12.688   4.431  29.717  1.00 37.28 LIG 0.01  C 
ATOM     18  CG1 VAL B 303      11.919   5.685  29.349  1.00 36.92 LIG 0.01  C 
ATOM     19  CG2 VAL B 303      12.459   3.344  28.676  1.00 37.06 LIG 0.01  C 
ENDBRANCH 1 17
BRANCH 1 20
ATOM     20  C   VAL B 303      14.418   5.669  31.026  1.00 37.27 LIG 0.24  C 
ATOM     21 O    VAL B 303      13.462   6.198  31.595  1.00 36.92 LIG-0.27  OA
ATOM     22  N   SER B 304      15.676   5.849  31.411  1.00 37.37 LIG-0.34  N 
ATOM     23 H    SER B 304      16.354   5.478  31.033  1.00 37.37 LIG 0.16  HD
BRANCH 22 24
ATOM     24  CA  SER B 304      16.009   6.716  32.535  1.00 37.74 LIG 0.20  C 
BRANCH 24 25
ATOM     25  CB  SER B 304      15.548   6.082  33.849  1.00 37.88 LIG 0.20  C 
BRANCH 25 26
ATOM     26 OG   SER B 304      14.200   6.423  34.129  1.00 38.36 LIG-0.40  OA
ATOM     27 HG   SER B 304      14.125   7.259  34.170  1.00 38.36 LIG 0.21  HD
ENDBRANCH 25 26
ENDBRANCH 24 25
BRANCH 24 28
ATOM     28  C   SER B 304      17.518   6.941  32.566  1.00 37.93 LIG 0.24  C 
ATOM     29 O    SER B 304      18.271   6.227  31.904  1.00 38.21 LIG-0.27  OA
ATOM     30  N   ALA B 305      17.955   7.933  33.334  1.00 38.06 LIG-0.35  N 
ATOM     31 H    ALA B 305      17.443   8.439  33.804  1.00 38.06 LIG 0.16  HD
BRANCH 30 32
ATOM     32  CA  ALA B 305      19.376   8.247  33.439  1.00 38.30 LIG 0.16  C 
ATOM     33  CB  ALA B 305      20.117   7.074  34.078  1.00 38.13 LIG 0.04  C 
BRANCH 32 34
ATOM     34  C   ALA B 305      19.978   8.561  32.074  1.00 38.47 LIG 0.22  C 
ATOM     35 O    ALA B 305      20.708   7.699  31.543  1.00 38.58 LIG-0.29  OA
ENDBRANCH 32 34
ENDBRANCH 30 32
ENDBRANCH 24 28
ENDBRANCH 22 24
ENDBRANCH 1 20
TORSDOF 14
ENDMDL
MODEL 94
USER: ADFR SOLUTION from run 122
USER: SCORE 9.607026 LL:  -2.052 LR:  -9.263 RR:   0.000 FEB:  -5.086
USER: RMSD 8.466604
USER: SEED 121
USER: STATUS no improvement in best in 42 clusters for 5 generations
USER: GENES 16
USER: genes 0 Translation |==|  0.71806 0.63934 0.47655
USER: genes 1 Rotation |==|  0.28409 0.43606 0.94474 0.53872
USER: genes 2 Torsion [CB]-CA--N-[C] |==|  0.81111
USER: genes 3 Torsion [N]-C--CA-[N] |==|  0.05608
USER: genes 4 Torsion [C]-CA--N-[C] |==|  0.68182
USER: genes 5 Torsion [N]-C--CA-[N] |==|  0.21634
USER: genes 6 Torsion [C]-CA--CB-[OG] |==|  0.63305
USER: genes 7 Torsion [CA]-CB--OG-[HG] |==|  0.12741
USER: genes 8 Torsion [N]-CA--CB-[CG1] |==|  0.54530
USER: genes 9 Torsion [N]-CA--C-[N] |==|  0.14467
USER: genes 10 Torsion [C]-N--CA-[CB] |==|  0.47134
USER: genes 11 Torsion [N]-CA--CB-[OG] |==|  0.97249
USER: genes 12 Torsion [CA]-CB--OG-[HG] |==|  0.61535
USER: genes 13 Torsion [N]-CA--C-[N] |==|  0.46304
USER: genes 14 Torsion [C]-N--CA-[C] |==|  0.19058
USER: genes 15 Torsion [N]-CA--C-[O] |==|  0.04608
ROOT
ATOM      1  CA  VAL B 303      17.491   7.458  33.080  1.00 37.13 LIG 0.18  C 
ENDROOT
BRANCH 1 2
ATOM      2  N   VAL B 303      17.749   7.288  34.504  1.00 37.20 LIG-0.35  N 
ATOM      3  C   SER B 302      18.211   6.145  35.001  1.00 37.39 LIG 0.24  C 
ATOM      4 O    SER B 302      18.435   5.153  34.303  1.00 37.76 LIG-0.27  OA
ATOM      5 H    VAL B 303      17.578   7.983  34.981  1.00 37.20 LIG 0.16  HD
BRANCH 3 6
ATOM      6  CA  SER B 302      18.446   6.114  36.508  1.00 37.09 LIG 0.20  C 
BRANCH 6 7
ATOM      7  N   SER B 302      17.686   7.166  37.171  1.00 36.48 LIG-0.34  N 
ATOM      8 H    SER B 302      16.832   7.072  37.121  1.00 36.48 LIG 0.16  HD
ATOM      9  C   ALA B 301      18.287   8.174  37.793  1.00 36.26 LIG 0.26  C 
ATOM     10 O    ALA B 301      19.512   8.285  37.858  1.00 35.88 LIG-0.27  OA
BRANCH 9 11
ATOM     11  CA  ALA B 301      17.375   9.212  38.439  1.00 36.43 LIG 0.40  C 
ATOM     12  CB  ALA B 301      18.144  10.508  38.676  1.00 36.70 LIG 0.06  C 
ATOM     13  N   ALA B 301      16.825   8.709  39.732  1.00 36.51 LIG 0.61  N 
ENDBRANCH 9 11
ENDBRANCH 6 7
BRANCH 6 14
ATOM     14  CB  SER B 302      18.051   4.740  37.057  1.00 37.65 LIG 0.20  C 
BRANCH 14 15
ATOM     15 OG   SER B 302      17.231   4.865  38.205  1.00 38.63 LIG-0.40  OA
ATOM     16 HG   SER B 302      16.636   5.440  38.062  1.00 38.63 LIG 0.21  HD
ENDBRANCH 14 15
ENDBRANCH 6 14
ENDBRANCH 3 6
ENDBRANCH 1 2
BRANCH 1 17
ATOM     17  CB  VAL B 303      18.804   7.447  32.256  1.00 37.28 LIG 0.01  C 
ATOM     18  CG1 VAL B 303      18.554   8.015  30.872  1.00 36.92 LIG 0.01  C 
ATOM     19  CG2 VAL B 303      19.880   8.252  32.974  1.00 37.06 LIG 0.01  C 
ENDBRANCH 1 17
BRANCH 1 20
ATOM     20  C   VAL B 303      16.596   6.328  32.588  1.00 37.27 LIG 0.24  C 
ATOM     21 O    VAL B 303      16.920   5.648  31.613  1.00 36.92 LIG-0.27  OA
ATOM     22  N   SER B 304      15.476   6.123  33.271  1.00 37.37 LIG-0.34  N 
ATOM     23 H    SER B 304      15.241   6.579  33.961  1.00 37.37 LIG 0.16  HD
BRANCH 22 24
ATOM     24  CA  SER B 304      14.534   5.078  32.888  1.00 37.74 LIG 0.20  C 
BRANCH 24 25
ATOM     25  CB  SER B 304      13.475   4.892  33.977  1.00 37.88 LIG 0.20  C 
BRANCH 25 26
ATOM     26 OG   SER B 304      13.822   5.614  35.147  1.00 38.36 LIG-0.40  OA
ATOM     27 HG   SER B 304      13.657   5.146  35.825  1.00 38.36 LIG 0.21  HD
ENDBRANCH 25 26
ENDBRANCH 24 25
BRANCH 24 28
ATOM     28  C   SER B 304      13.865   5.461  31.571  1.00 37.93 LIG 0.24  C 
ATOM     29 O    SER B 304      13.964   6.606  31.129  1.00 38.21 LIG-0.27  OA
ATOM     30  N   ALA B 305      13.189   4.503  30.947  1.00 38.06 LIG-0.35  N 
ATOM     31 H    ALA B 305      13.109   3.700  31.244  1.00 38.06 LIG 0.16  HD
BRANCH 30 32
ATOM     32  CA  ALA B 305      12.513   4.749  29.678  1.00 38.30 LIG 0.16  C 
ATOM     33  CB  ALA B 305      11.587   5.957  29.813  1.00 38.13 LIG 0.04  C 
BRANCH 32 34
ATOM     34  C   ALA B 305      13.514   4.985  28.553  1.00 38.47 LIG 0.22  C 
ATOM     35 O    ALA B 305      14.699   4.640  28.739  1.00 38.58 LIG-0.29  OA
ENDBRANCH 32 34
ENDBRANCH 30 32
ENDBRANCH 24 28
ENDBRANCH 22 24
ENDBRANCH 1 20
TORSDOF 14
ENDMDL
MODEL 95
USER: ADFR SOLUTION from run 22
USER: SCORE 9.508546 LL:  -1.430 LR:  -9.259 RR:   0.000 FEB:  -5.083
USER: RMSD 8.505925
USER: SEED 21
USER: STATUS no improvement in best in 31 clusters for 5 generations
USER: GENES 16
USER: genes 0 Translation |==|  0.47338 0.51890 0.35582
USER: genes 1 Rotation |==|  0.60882 0.44316 0.98469 0.50158
USER: genes 2 Torsion [CB]-CA--N-[C] |==|  0.77108
USER: genes 3 Torsion [N]-C--CA-[N] |==|  0.18889
USER: genes 4 Torsion [C]-CA--N-[C] |==|  0.78883
USER: genes 5 Torsion [N]-C--CA-[N] |==|  0.76312
USER: genes 6 Torsion [C]-CA--CB-[OG] |==|  0.61295
USER: genes 7 Torsion [CA]-CB--OG-[HG] |==|  0.30898
USER: genes 8 Torsion [N]-CA--CB-[CG1] |==|  0.77757
USER: genes 9 Torsion [N]-CA--C-[N] |==|  0.21070
USER: genes 10 Torsion [C]-N--CA-[CB] |==|  0.50772
USER: genes 11 Torsion [N]-CA--CB-[OG] |==|  0.15981
USER: genes 12 Torsion [CA]-CB--OG-[HG] |==|  0.05891
USER: genes 13 Torsion [N]-CA--C-[N] |==|  0.37920
USER: genes 14 Torsion [C]-N--CA-[C] |==|  0.81877
USER: genes 15 Torsion [N]-CA--C-[O] |==|  0.20531
ROOT
ATOM      1  CA  VAL B 303      12.536   5.019  31.269  1.00 37.13 LIG 0.18  C 
ENDROOT
BRANCH 1 2
ATOM      2  N   VAL B 303      13.980   5.182  31.381  1.00 37.20 LIG-0.35  N 
ATOM      3  C   SER B 302      14.819   4.180  31.142  1.00 37.39 LIG 0.24  C 
ATOM      4 O    SER B 302      14.439   3.048  30.829  1.00 37.76 LIG-0.27  OA
ATOM      5 H    VAL B 303      14.231   5.972  31.611  1.00 37.20 LIG 0.16  HD
BRANCH 3 6
ATOM      6  CA  SER B 302      16.303   4.498  31.286  1.00 37.09 LIG 0.20  C 
BRANCH 6 7
ATOM      7  N   SER B 302      16.643   4.756  32.679  1.00 36.48 LIG-0.34  N 
ATOM      8 H    SER B 302      17.055   4.110  33.070  1.00 36.48 LIG 0.16  HD
ATOM      9  C   ALA B 301      16.331   5.904  33.272  1.00 36.26 LIG 0.26  C 
ATOM     10 O    ALA B 301      15.748   6.819  32.691  1.00 35.88 LIG-0.27  OA
BRANCH 9 11
ATOM     11  CA  ALA B 301      16.737   6.042  34.736  1.00 36.43 LIG 0.40  C 
ATOM     12  CB  ALA B 301      18.078   5.354  34.973  1.00 36.70 LIG 0.06  C 
ATOM     13  N   ALA B 301      15.702   5.452  35.635  1.00 36.51 LIG 0.61  N 
ENDBRANCH 9 11
ENDBRANCH 6 7
BRANCH 6 14
ATOM     14  CB  SER B 302      17.131   3.330  30.740  1.00 37.65 LIG 0.20  C 
BRANCH 14 15
ATOM     15 OG   SER B 302      18.252   3.069  31.565  1.00 38.63 LIG-0.40  OA
ATOM     16 HG   SER B 302      18.149   2.331  31.953  1.00 38.63 LIG 0.21  HD
ENDBRANCH 14 15
ENDBRANCH 6 14
ENDBRANCH 3 6
ENDBRANCH 1 2
BRANCH 1 17
ATOM     17  CB  VAL B 303      12.058   5.154  29.800  1.00 37.28 LIG 0.01  C 
ATOM     18  CG1 VAL B 303      11.959   6.618  29.419  1.00 36.92 LIG 0.01  C 
ATOM     19  CG2 VAL B 303      13.017   4.426  28.868  1.00 37.06 LIG 0.01  C 
ENDBRANCH 1 17
BRANCH 1 20
ATOM     20  C   VAL B 303      12.139   3.644  31.788  1.00 37.27 LIG 0.24  C 
ATOM     21 O    VAL B 303      11.853   2.734  31.007  1.00 36.92 LIG-0.27  OA
ATOM     22  N   SER B 304      12.133   3.489  33.107  1.00 37.37 LIG-0.34  N 
ATOM     23 H    SER B 304      12.342   4.108  33.666  1.00 37.37 LIG 0.16  HD
BRANCH 22 24
ATOM     24  CA  SER B 304      11.759   2.221  33.721  1.00 37.74 LIG 0.20  C 
BRANCH 24 25
ATOM     25  CB  SER B 304      11.772   2.346  35.247  1.00 37.88 LIG 0.20  C 
BRANCH 25 26
ATOM     26 OG   SER B 304      10.899   3.378  35.677  1.00 38.36 LIG-0.40  OA
ATOM     27 HG   SER B 304      10.332   3.533  35.077  1.00 38.36 LIG 0.21  HD
ENDBRANCH 25 26
ENDBRANCH 24 25
BRANCH 24 28
ATOM     28  C   SER B 304      10.366   1.822  33.244  1.00 37.93 LIG 0.24  C 
ATOM     29 O    SER B 304       9.462   2.657  33.181  1.00 38.21 LIG-0.27  OA
ATOM     30  N   ALA B 305      10.195   0.548  32.907  1.00 38.06 LIG-0.35  N 
ATOM     31 H    ALA B 305      10.814  -0.047  32.948  1.00 38.06 LIG 0.16  HD
BRANCH 30 32
ATOM     32  CA  ALA B 305       8.909   0.051  32.431  1.00 38.30 LIG 0.16  C 
ATOM     33  CB  ALA B 305       9.059  -1.393  31.955  1.00 38.13 LIG 0.04  C 
BRANCH 32 34
ATOM     34  C   ALA B 305       7.844   0.132  33.519  1.00 38.47 LIG 0.22  C 
ATOM     35 O    ALA B 305       7.383   1.257  33.806  1.00 38.58 LIG-0.29  OA
ENDBRANCH 32 34
ENDBRANCH 30 32
ENDBRANCH 24 28
ENDBRANCH 22 24
ENDBRANCH 1 20
TORSDOF 14
ENDMDL
MODEL 96
USER: ADFR SOLUTION from run 188
USER: SCORE 10.129996 LL:  -1.600 LR:  -9.252 RR:   0.000 FEB:  -5.076
USER: RMSD 8.193919
USER: SEED 187
USER: STATUS no improvement in best in 34 clusters for 5 generations
USER: GENES 16
USER: genes 0 Translation |==|  0.68527 0.63774 0.42753
USER: genes 1 Rotation |==|  0.33232 0.28973 0.92069 0.52638
USER: genes 2 Torsion [CB]-CA--N-[C] |==|  0.87778
USER: genes 3 Torsion [N]-C--CA-[N] |==|  0.95000
USER: genes 4 Torsion [C]-CA--N-[C] |==|  0.81809
USER: genes 5 Torsion [N]-C--CA-[N] |==|  0.12086
USER: genes 6 Torsion [C]-CA--CB-[OG] |==|  0.17849
USER: genes 7 Torsion [CA]-CB--OG-[HG] |==|  0.49726
USER: genes 8 Torsion [N]-CA--CB-[CG1] |==|  0.51289
USER: genes 9 Torsion [N]-CA--C-[N] |==|  0.87637
USER: genes 10 Torsion [C]-N--CA-[CB] |==|  0.55897
USER: genes 11 Torsion [N]-CA--CB-[OG] |==|  0.99136
USER: genes 12 Torsion [CA]-CB--OG-[HG] |==|  0.45954
USER: genes 13 Torsion [N]-CA--C-[N] |==|  0.34726
USER: genes 14 Torsion [C]-N--CA-[C] |==|  0.17213
USER: genes 15 Torsion [N]-CA--C-[O] |==|  0.21438
ROOT
ATOM      1  CA  VAL B 303      16.827   7.425  32.345  1.00 37.13 LIG 0.18  C 
ENDROOT
BRANCH 1 2
ATOM      2  N   VAL B 303      17.343   6.674  33.482  1.00 37.20 LIG-0.35  N 
ATOM      3  C   SER B 302      18.483   5.995  33.414  1.00 37.39 LIG 0.24  C 
ATOM      4 O    SER B 302      19.169   5.939  32.390  1.00 37.76 LIG-0.27  OA
ATOM      5 H    VAL B 303      16.850   6.712  34.186  1.00 37.20 LIG 0.16  HD
BRANCH 3 6
ATOM      6  CA  SER B 302      18.907   5.265  34.684  1.00 37.09 LIG 0.20  C 
BRANCH 6 7
ATOM      7  N   SER B 302      18.199   5.792  35.844  1.00 36.48 LIG-0.34  N 
ATOM      8 H    SER B 302      17.663   5.233  36.217  1.00 36.48 LIG 0.16  HD
ATOM      9  C   ALA B 301      18.386   7.038  36.267  1.00 36.26 LIG 0.26  C 
ATOM     10 O    ALA B 301      19.165   7.820  35.722  1.00 35.88 LIG-0.27  OA
BRANCH 9 11
ATOM     11  CA  ALA B 301      17.577   7.467  37.488  1.00 36.43 LIG 0.40  C 
ATOM     12  CB  ALA B 301      18.154   8.754  38.069  1.00 36.70 LIG 0.06  C 
ATOM     13  N   ALA B 301      17.577   6.399  38.530  1.00 36.51 LIG 0.61  N 
ENDBRANCH 9 11
ENDBRANCH 6 7
BRANCH 6 14
ATOM     14  CB  SER B 302      18.634   3.766  34.526  1.00 37.65 LIG 0.20  C 
BRANCH 14 15
ATOM     15 OG   SER B 302      19.429   3.209  33.495  1.00 38.63 LIG-0.40  OA
ATOM     16 HG   SER B 302      19.273   2.386  33.434  1.00 38.63 LIG 0.21  HD
ENDBRANCH 14 15
ENDBRANCH 6 14
ENDBRANCH 3 6
ENDBRANCH 1 2
BRANCH 1 17
ATOM     17  CB  VAL B 303      17.945   8.238  31.643  1.00 37.28 LIG 0.01  C 
ATOM     18  CG1 VAL B 303      17.351   9.093  30.539  1.00 36.92 LIG 0.01  C 
ATOM     19  CG2 VAL B 303      18.673   9.111  32.656  1.00 37.06 LIG 0.01  C 
ENDBRANCH 1 17
BRANCH 1 20
ATOM     20  C   VAL B 303      16.215   6.463  31.336  1.00 37.27 LIG 0.24  C 
ATOM     21 O    VAL B 303      15.133   6.713  30.803  1.00 36.92 LIG-0.27  OA
ATOM     22  N   SER B 304      16.915   5.367  31.067  1.00 37.37 LIG-0.34  N 
ATOM     23 H    SER B 304      17.677   5.182  31.420  1.00 37.37 LIG 0.16  HD
BRANCH 22 24
ATOM     24  CA  SER B 304      16.426   4.366  30.127  1.00 37.74 LIG 0.20  C 
BRANCH 24 25
ATOM     25  CB  SER B 304      17.108   3.020  30.382  1.00 37.88 LIG 0.20  C 
BRANCH 25 26
ATOM     26 OG   SER B 304      18.076   3.131  31.412  1.00 38.36 LIG-0.40  OA
ATOM     27 HG   SER B 304      18.294   2.364  31.676  1.00 38.36 LIG 0.21  HD
ENDBRANCH 25 26
ENDBRANCH 24 25
BRANCH 24 28
ATOM     28  C   SER B 304      14.915   4.223  30.284  1.00 37.93 LIG 0.24  C 
ATOM     29 O    SER B 304      14.421   3.969  31.383  1.00 38.21 LIG-0.27  OA
ATOM     30  N   ALA B 305      14.185   4.387  29.186  1.00 38.06 LIG-0.35  N 
ATOM     31 H    ALA B 305      14.515   4.563  28.411  1.00 38.06 LIG 0.16  HD
BRANCH 30 32
ATOM     32  CA  ALA B 305      12.731   4.281  29.214  1.00 38.30 LIG 0.16  C 
ATOM     33  CB  ALA B 305      12.325   2.887  29.691  1.00 38.13 LIG 0.04  C 
BRANCH 32 34
ATOM     34  C   ALA B 305      12.114   5.339  30.121  1.00 38.47 LIG 0.22  C 
ATOM     35 O    ALA B 305      12.033   6.508  29.688  1.00 38.58 LIG-0.29  OA
ENDBRANCH 32 34
ENDBRANCH 30 32
ENDBRANCH 24 28
ENDBRANCH 22 24
ENDBRANCH 1 20
TORSDOF 14
ENDMDL
MODEL 97
USER: ADFR SOLUTION from run 86
USER: SCORE 9.053714 LL:  -1.926 LR:  -9.248 RR:   0.000 FEB:  -5.072
USER: RMSD 6.395076
USER: SEED 85
USER: STATUS no improvement in best in 30 clusters for 5 generations
USER: GENES 16
USER: genes 0 Translation |==|  0.72088 0.60921 0.55787
USER: genes 1 Rotation |==|  0.16199 0.17333 0.54946 0.66306
USER: genes 2 Torsion [CB]-CA--N-[C] |==|  0.51667
USER: genes 3 Torsion [N]-C--CA-[N] |==|  0.99096
USER: genes 4 Torsion [C]-CA--N-[C] |==|  0.77529
USER: genes 5 Torsion [N]-C--CA-[N] |==|  0.71402
USER: genes 6 Torsion [C]-CA--CB-[OG] |==|  0.86321
USER: genes 7 Torsion [CA]-CB--OG-[HG] |==|  0.54153
USER: genes 8 Torsion [N]-CA--CB-[CG1] |==|  0.74397
USER: genes 9 Torsion [N]-CA--C-[N] |==|  0.24763
USER: genes 10 Torsion [C]-N--CA-[CB] |==|  0.16676
USER: genes 11 Torsion [N]-CA--CB-[OG] |==|  0.18110
USER: genes 12 Torsion [CA]-CB--OG-[HG] |==|  0.11035
USER: genes 13 Torsion [N]-CA--C-[N] |==|  0.33554
USER: genes 14 Torsion [C]-N--CA-[C] |==|  0.19248
USER: genes 15 Torsion [N]-CA--C-[O] |==|  0.93554
ROOT
ATOM      1  CA  VAL B 303      17.548   6.847  34.300  1.00 37.13 LIG 0.18  C 
ENDROOT
BRANCH 1 2
ATOM      2  N   VAL B 303      16.796   5.838  33.566  1.00 37.20 LIG-0.35  N 
ATOM      3  C   SER B 302      15.963   6.162  32.582  1.00 37.39 LIG 0.24  C 
ATOM      4 O    SER B 302      15.756   7.328  32.236  1.00 37.76 LIG-0.27  OA
ATOM      5 H    VAL B 303      16.940   5.030  33.824  1.00 37.20 LIG 0.16  HD
BRANCH 3 6
ATOM      6  CA  SER B 302      15.252   5.001  31.895  1.00 37.09 LIG 0.20  C 
BRANCH 6 7
ATOM      7  N   SER B 302      15.707   3.726  32.431  1.00 36.48 LIG-0.34  N 
ATOM      8 H    SER B 302      15.183   3.380  33.019  1.00 36.48 LIG 0.16  HD
ATOM      9  C   ALA B 301      16.843   3.164  32.027  1.00 36.26 LIG 0.26  C 
ATOM     10 O    ALA B 301      17.574   3.673  31.178  1.00 35.88 LIG-0.27  OA
BRANCH 9 11
ATOM     11  CA  ALA B 301      17.207   1.832  32.675  1.00 36.43 LIG 0.40  C 
ATOM     12  CB  ALA B 301      15.971   1.207  33.313  1.00 36.70 LIG 0.06  C 
ATOM     13  N   ALA B 301      18.270   2.014  33.708  1.00 36.51 LIG 0.61  N 
ENDBRANCH 9 11
ENDBRANCH 6 7
BRANCH 6 14
ATOM     14  CB  SER B 302      13.738   5.150  32.077  1.00 37.65 LIG 0.20  C 
BRANCH 14 15
ATOM     15 OG   SER B 302      13.410   5.394  33.433  1.00 38.63 LIG-0.40  OA
ATOM     16 HG   SER B 302      12.587   5.270  33.549  1.00 38.63 LIG 0.21  HD
ENDBRANCH 14 15
ENDBRANCH 6 14
ENDBRANCH 3 6
ENDBRANCH 1 2
BRANCH 1 17
ATOM     17  CB  VAL B 303      18.554   6.203  35.289  1.00 37.28 LIG 0.01  C 
ATOM     18  CG1 VAL B 303      17.909   6.040  36.652  1.00 36.92 LIG 0.01  C 
ATOM     19  CG2 VAL B 303      19.020   4.854  34.758  1.00 37.06 LIG 0.01  C 
ENDBRANCH 1 17
BRANCH 1 20
ATOM     20  C   VAL B 303      18.318   7.720  33.319  1.00 37.27 LIG 0.24  C 
ATOM     21 O    VAL B 303      19.465   7.424  32.979  1.00 36.92 LIG-0.27  OA
ATOM     22  N   SER B 304      17.683   8.790  32.856  1.00 37.37 LIG-0.34  N 
ATOM     23 H    SER B 304      16.878   9.004  33.072  1.00 37.37 LIG 0.16  HD
BRANCH 22 24
ATOM     24  CA  SER B 304      18.322   9.707  31.920  1.00 37.74 LIG 0.20  C 
BRANCH 24 25
ATOM     25  CB  SER B 304      18.714   8.970  30.638  1.00 37.88 LIG 0.20  C 
BRANCH 25 26
ATOM     26 OG   SER B 304      17.564   8.514  29.945  1.00 38.36 LIG-0.40  OA
ATOM     27 HG   SER B 304      16.963   9.100  29.984  1.00 38.36 LIG 0.21  HD
ENDBRANCH 25 26
ENDBRANCH 24 25
BRANCH 24 28
ATOM     28  C   SER B 304      17.358  10.844  31.593  1.00 37.93 LIG 0.24  C 
ATOM     29 O    SER B 304      16.259  10.608  31.090  1.00 38.21 LIG-0.27  OA
ATOM     30  N   ALA B 305      17.771  12.074  31.880  1.00 38.06 LIG-0.35  N 
ATOM     31 H    ALA B 305      18.536  12.256  32.228  1.00 38.06 LIG 0.16  HD
BRANCH 30 32
ATOM     32  CA  ALA B 305      16.934  13.239  31.617  1.00 38.30 LIG 0.16  C 
ATOM     33  CB  ALA B 305      16.468  13.223  30.162  1.00 38.13 LIG 0.04  C 
BRANCH 32 34
ATOM     34  C   ALA B 305      15.728  13.278  32.549  1.00 38.47 LIG 0.22  C 
ATOM     35 O    ALA B 305      15.344  12.204  33.057  1.00 38.58 LIG-0.29  OA
ENDBRANCH 32 34
ENDBRANCH 30 32
ENDBRANCH 24 28
ENDBRANCH 22 24
ENDBRANCH 1 20
TORSDOF 14
ENDMDL
MODEL 98
USER: ADFR SOLUTION from run 127
USER: SCORE 9.574718 LL:  -2.095 LR:  -9.235 RR:   0.000 FEB:  -5.059
USER: RMSD 8.323050
USER: SEED 126
USER: STATUS no improvement in best in 39 clusters for 5 generations
USER: GENES 16
USER: genes 0 Translation |==|  0.45570 0.44927 0.39691
USER: genes 1 Rotation |==|  0.64218 0.41632 0.03797 0.59648
USER: genes 2 Torsion [CB]-CA--N-[C] |==|  0.80496
USER: genes 3 Torsion [N]-C--CA-[N] |==|  0.36197
USER: genes 4 Torsion [C]-CA--N-[C] |==|  0.83355
USER: genes 5 Torsion [N]-C--CA-[N] |==|  0.99485
USER: genes 6 Torsion [C]-CA--CB-[OG] |==|  0.62841
USER: genes 7 Torsion [CA]-CB--OG-[HG] |==|  0.86514
USER: genes 8 Torsion [N]-CA--CB-[CG1] |==|  0.56952
USER: genes 9 Torsion [N]-CA--C-[N] |==|  0.10219
USER: genes 10 Torsion [C]-N--CA-[CB] |==|  0.46111
USER: genes 11 Torsion [N]-CA--CB-[OG] |==|  0.24926
USER: genes 12 Torsion [CA]-CB--OG-[HG] |==|  0.68579
USER: genes 13 Torsion [N]-CA--C-[N] |==|  0.43581
USER: genes 14 Torsion [C]-N--CA-[C] |==|  0.17581
USER: genes 15 Torsion [N]-CA--C-[O] |==|  0.07896
ROOT
ATOM      1  CA  VAL B 303      12.178   3.609  31.886  1.00 37.13 LIG 0.18  C 
ENDROOT
BRANCH 1 2
ATOM      2  N   VAL B 303      12.681   4.544  32.883  1.00 37.20 LIG-0.35  N 
ATOM      3  C   SER B 302      13.542   4.170  33.824  1.00 37.39 LIG 0.24  C 
ATOM      4 O    SER B 302      13.959   3.013  33.929  1.00 37.76 LIG-0.27  OA
ATOM      5 H    VAL B 303      12.375   5.344  32.806  1.00 37.20 LIG 0.16  HD
BRANCH 3 6
ATOM      6  CA  SER B 302      13.992   5.257  34.794  1.00 37.09 LIG 0.20  C 
BRANCH 6 7
ATOM      7  N   SER B 302      13.862   4.805  36.173  1.00 36.48 LIG-0.34  N 
ATOM      8 H    SER B 302      14.599   4.797  36.615  1.00 36.48 LIG 0.16  HD
ATOM      9  C   ALA B 301      12.688   4.442  36.679  1.00 36.26 LIG 0.26  C 
ATOM     10 O    ALA B 301      11.642   4.468  36.030  1.00 35.88 LIG-0.27  OA
BRANCH 9 11
ATOM     11  CA  ALA B 301      12.691   3.981  38.134  1.00 36.43 LIG 0.40  C 
ATOM     12  CB  ALA B 301      11.788   4.883  38.969  1.00 36.70 LIG 0.06  C 
ATOM     13  N   ALA B 301      14.075   3.993  38.694  1.00 36.51 LIG 0.61  N 
ENDBRANCH 9 11
ENDBRANCH 6 7
BRANCH 6 14
ATOM     14  CB  SER B 302      15.444   5.643  34.491  1.00 37.65 LIG 0.20  C 
BRANCH 14 15
ATOM     15 OG   SER B 302      16.211   5.712  35.679  1.00 38.63 LIG-0.40  OA
ATOM     16 HG   SER B 302      15.800   6.168  36.252  1.00 38.63 LIG 0.21  HD
ENDBRANCH 14 15
ENDBRANCH 6 14
ENDBRANCH 3 6
ENDBRANCH 1 2
BRANCH 1 17
ATOM     17  CB  VAL B 303      13.282   3.204  30.875  1.00 37.28 LIG 0.01  C 
ATOM     18  CG1 VAL B 303      12.652   2.772  29.564  1.00 36.92 LIG 0.01  C 
ATOM     19  CG2 VAL B 303      14.236   4.368  30.646  1.00 37.06 LIG 0.01  C 
ENDBRANCH 1 17
BRANCH 1 20
ATOM     20  C   VAL B 303      11.666   2.354  32.579  1.00 37.27 LIG 0.24  C 
ATOM     21 O    VAL B 303      11.830   1.243  32.071  1.00 36.92 LIG-0.27  OA
ATOM     22  N   SER B 304      11.056   2.530  33.745  1.00 37.37 LIG-0.34  N 
ATOM     23 H    SER B 304      10.945   3.297  34.120  1.00 37.37 LIG 0.16  HD
BRANCH 22 24
ATOM     24  CA  SER B 304      10.514   1.406  34.497  1.00 37.74 LIG 0.20  C 
BRANCH 24 25
ATOM     25  CB  SER B 304      10.187   1.833  35.930  1.00 37.88 LIG 0.20  C 
BRANCH 25 26
ATOM     26 OG   SER B 304       8.857   2.315  36.021  1.00 38.36 LIG-0.40  OA
ATOM     27 HG   SER B 304       8.868   3.137  36.196  1.00 38.36 LIG 0.21  HD
ENDBRANCH 25 26
ENDBRANCH 24 25
BRANCH 24 28
ATOM     28  C   SER B 304       9.253   0.898  33.804  1.00 37.93 LIG 0.24  C 
ATOM     29 O    SER B 304       8.609   1.636  33.057  1.00 38.21 LIG-0.27  OA
ATOM     30  N   ALA B 305       8.905  -0.360  34.051  1.00 38.06 LIG-0.35  N 
ATOM     31 H    ALA B 305       9.342  -0.887  34.571  1.00 38.06 LIG 0.16  HD
BRANCH 30 32
ATOM     32  CA  ALA B 305       7.722  -0.957  33.440  1.00 38.30 LIG 0.16  C 
ATOM     33  CB  ALA B 305       6.482  -0.150  33.821  1.00 38.13 LIG 0.04  C 
BRANCH 32 34
ATOM     34  C   ALA B 305       7.854  -1.023  31.923  1.00 38.47 LIG 0.22  C 
ATOM     35 O    ALA B 305       9.000  -1.114  31.436  1.00 38.58 LIG-0.29  OA
ENDBRANCH 32 34
ENDBRANCH 30 32
ENDBRANCH 24 28
ENDBRANCH 22 24
ENDBRANCH 1 20
TORSDOF 14
ENDMDL
MODEL 99
USER: ADFR SOLUTION from run 138
USER: SCORE 9.648993 LL:  -2.201 LR:  -9.228 RR:   0.000 FEB:  -5.051
USER: RMSD 7.464069
USER: SEED 137
USER: STATUS no improvement in best in 17 clusters for 5 generations
USER: GENES 16
USER: genes 0 Translation |==|  0.75652 0.70495 0.43308
USER: genes 1 Rotation |==|  0.31903 0.53572 0.76027 0.88501
USER: genes 2 Torsion [CB]-CA--N-[C] |==|  0.22626
USER: genes 3 Torsion [N]-C--CA-[N] |==|  0.10556
USER: genes 4 Torsion [C]-CA--N-[C] |==|  0.16783
USER: genes 5 Torsion [N]-C--CA-[N] |==|  0.88238
USER: genes 6 Torsion [C]-CA--CB-[OG] |==|  0.51193
USER: genes 7 Torsion [CA]-CB--OG-[HG] |==|  0.00650
USER: genes 8 Torsion [N]-CA--CB-[CG1] |==|  0.12895
USER: genes 9 Torsion [N]-CA--C-[N] |==|  0.34150
USER: genes 10 Torsion [C]-N--CA-[CB] |==|  0.49159
USER: genes 11 Torsion [N]-CA--CB-[OG] |==|  0.03884
USER: genes 12 Torsion [CA]-CB--OG-[HG] |==|  0.81018
USER: genes 13 Torsion [N]-CA--C-[N] |==|  0.46131
USER: genes 14 Torsion [C]-N--CA-[C] |==|  0.80204
USER: genes 15 Torsion [N]-CA--C-[O] |==|  0.30014
ROOT
ATOM      1  CA  VAL B 303      18.270   8.786  32.428  1.00 37.13 LIG 0.18  C 
ENDROOT
BRANCH 1 2
ATOM      2  N   VAL B 303      17.749   8.208  33.660  1.00 37.20 LIG-0.35  N 
ATOM      3  C   SER B 302      18.531   7.557  34.515  1.00 37.39 LIG 0.24  C 
ATOM      4 O    SER B 302      19.738   7.384  34.320  1.00 37.76 LIG-0.27  OA
ATOM      5 H    VAL B 303      16.905   8.325  33.778  1.00 37.20 LIG 0.16  HD
BRANCH 3 6
ATOM      6  CA  SER B 302      17.853   7.014  35.768  1.00 37.09 LIG 0.20  C 
BRANCH 6 7
ATOM      7  N   SER B 302      16.522   6.509  35.456  1.00 36.48 LIG-0.34  N 
ATOM      8 H    SER B 302      15.884   6.905  35.876  1.00 36.48 LIG 0.16  HD
ATOM      9  C   ALA B 301      16.338   5.516  34.592  1.00 36.26 LIG 0.26  C 
ATOM     10 O    ALA B 301      17.266   4.967  33.996  1.00 35.88 LIG-0.27  OA
BRANCH 9 11
ATOM     11  CA  ALA B 301      14.895   5.076  34.362  1.00 36.43 LIG 0.40  C 
ATOM     12  CB  ALA B 301      14.200   6.045  33.411  1.00 36.70 LIG 0.06  C 
ATOM     13  N   ALA B 301      14.146   5.011  35.652  1.00 36.51 LIG 0.61  N 
ENDBRANCH 9 11
ENDBRANCH 6 7
BRANCH 6 14
ATOM     14  CB  SER B 302      18.718   5.907  36.377  1.00 37.65 LIG 0.20  C 
BRANCH 14 15
ATOM     15 OG   SER B 302      18.074   5.310  37.488  1.00 38.63 LIG-0.40  OA
ATOM     16 HG   SER B 302      17.315   5.654  37.591  1.00 38.63 LIG 0.21  HD
ENDBRANCH 14 15
ENDBRANCH 6 14
ENDBRANCH 3 6
ENDBRANCH 1 2
BRANCH 1 17
ATOM     17  CB  VAL B 303      18.404   7.721  31.309  1.00 37.28 LIG 0.01  C 
ATOM     18  CG1 VAL B 303      17.142   6.883  31.236  1.00 36.92 LIG 0.01  C 
ATOM     19  CG2 VAL B 303      18.669   8.397  29.971  1.00 37.06 LIG 0.01  C 
ENDBRANCH 1 17
BRANCH 1 20
ATOM     20  C   VAL B 303      17.332   9.885  31.947  1.00 37.27 LIG 0.24  C 
ATOM     21 O    VAL B 303      16.141   9.648  31.735  1.00 36.92 LIG-0.27  OA
ATOM     22  N   SER B 304      17.867  11.089  31.785  1.00 37.37 LIG-0.34  N 
ATOM     23 H    SER B 304      18.692  11.275  31.940  1.00 37.37 LIG 0.16  HD
BRANCH 22 24
ATOM     24  CA  SER B 304      17.071  12.217  31.317  1.00 37.74 LIG 0.20  C 
BRANCH 24 25
ATOM     25  CB  SER B 304      17.918  13.492  31.294  1.00 37.88 LIG 0.20  C 
BRANCH 25 26
ATOM     26 OG   SER B 304      19.297  13.184  31.418  1.00 38.36 LIG-0.40  OA
ATOM     27 HG   SER B 304      19.451  12.888  32.189  1.00 38.36 LIG 0.21  HD
ENDBRANCH 25 26
ENDBRANCH 24 25
BRANCH 24 28
ATOM     28  C   SER B 304      16.545  11.916  29.917  1.00 37.93 LIG 0.24  C 
ATOM     29 O    SER B 304      17.008  10.982  29.262  1.00 38.21 LIG-0.27  OA
ATOM     30  N   ALA B 305      15.578  12.706  29.463  1.00 38.06 LIG-0.35  N 
ATOM     31 H    ALA B 305      15.245  13.363  29.907  1.00 38.06 LIG 0.16  HD
BRANCH 30 32
ATOM     32  CA  ALA B 305      14.992  12.511  28.142  1.00 38.30 LIG 0.16  C 
ATOM     33  CB  ALA B 305      13.709  13.331  28.021  1.00 38.13 LIG 0.04  C 
BRANCH 32 34
ATOM     34  C   ALA B 305      15.967  12.905  27.038  1.00 38.47 LIG 0.22  C 
ATOM     35 O    ALA B 305      16.482  11.994  26.357  1.00 38.58 LIG-0.29  OA
ENDBRANCH 32 34
ENDBRANCH 30 32
ENDBRANCH 24 28
ENDBRANCH 22 24
ENDBRANCH 1 20
TORSDOF 14
ENDMDL
MODEL 100
USER: ADFR SOLUTION from run 184
USER: SCORE 9.125631 LL:  -2.111 LR:  -9.227 RR:   0.000 FEB:  -5.051
USER: RMSD 8.240714
USER: SEED 183
USER: STATUS no improvement in best in 46 clusters for 5 generations
USER: GENES 16
USER: genes 0 Translation |==|  0.52536 0.46571 0.36183
USER: genes 1 Rotation |==|  0.67561 0.64543 0.05760 0.54788
USER: genes 2 Torsion [CB]-CA--N-[C] |==|  0.23136
USER: genes 3 Torsion [N]-C--CA-[N] |==|  0.37811
USER: genes 4 Torsion [C]-CA--N-[C] |==|  0.80597
USER: genes 5 Torsion [N]-C--CA-[N] |==|  0.18419
USER: genes 6 Torsion [C]-CA--CB-[OG] |==|  0.87499
USER: genes 7 Torsion [CA]-CB--OG-[HG] |==|  0.19579
USER: genes 8 Torsion [N]-CA--CB-[CG1] |==|  0.15782
USER: genes 9 Torsion [N]-CA--C-[N] |==|  0.93649
USER: genes 10 Torsion [C]-N--CA-[CB] |==|  0.45000
USER: genes 11 Torsion [N]-CA--CB-[OG] |==|  0.95515
USER: genes 12 Torsion [CA]-CB--OG-[HG] |==|  0.67441
USER: genes 13 Torsion [N]-CA--C-[N] |==|  0.96869
USER: genes 14 Torsion [C]-N--CA-[C] |==|  0.56469
USER: genes 15 Torsion [N]-CA--C-[O] |==|  0.42120
ROOT
ATOM      1  CA  VAL B 303      13.589   3.942  31.359  1.00 37.13 LIG 0.18  C 
ENDROOT
BRANCH 1 2
ATOM      2  N   VAL B 303      14.042   3.722  32.727  1.00 37.20 LIG-0.35  N 
ATOM      3  C   SER B 302      13.963   4.672  33.653  1.00 37.39 LIG 0.24  C 
ATOM      4 O    SER B 302      13.520   5.800  33.419  1.00 37.76 LIG-0.27  OA
ATOM      5 H    VAL B 303      14.358   2.936  32.874  1.00 37.20 LIG 0.16  HD
BRANCH 3 6
ATOM      6  CA  SER B 302      14.464   4.298  35.043  1.00 37.09 LIG 0.20  C 
BRANCH 6 7
ATOM      7  N   SER B 302      15.276   5.370  35.605  1.00 36.48 LIG-0.34  N 
ATOM      8 H    SER B 302      14.910   5.786  36.263  1.00 36.48 LIG 0.16  HD
ATOM      9  C   ALA B 301      16.479   5.661  35.121  1.00 36.26 LIG 0.26  C 
ATOM     10 O    ALA B 301      16.987   5.049  34.182  1.00 35.88 LIG-0.27  OA
BRANCH 9 11
ATOM     11  CA  ALA B 301      17.220   6.812  35.794  1.00 36.43 LIG 0.40  C 
ATOM     12  CB  ALA B 301      18.484   7.149  35.009  1.00 36.70 LIG 0.06  C 
ATOM     13  N   ALA B 301      17.578   6.466  37.202  1.00 36.51 LIG 0.61  N 
ENDBRANCH 9 11
ENDBRANCH 6 7
BRANCH 6 14
ATOM     14  CB  SER B 302      13.269   3.998  35.953  1.00 37.65 LIG 0.20  C 
BRANCH 14 15
ATOM     15 OG   SER B 302      12.255   4.974  35.802  1.00 38.63 LIG-0.40  OA
ATOM     16 HG   SER B 302      11.891   4.887  35.050  1.00 38.63 LIG 0.21  HD
ENDBRANCH 14 15
ENDBRANCH 6 14
ENDBRANCH 3 6
ENDBRANCH 1 2
BRANCH 1 17
ATOM     17  CB  VAL B 303      14.674   4.645  30.504  1.00 37.28 LIG 0.01  C 
ATOM     18  CG1 VAL B 303      15.954   3.831  30.518  1.00 36.92 LIG 0.01  C 
ATOM     19  CG2 VAL B 303      14.178   4.829  29.076  1.00 37.06 LIG 0.01  C 
ENDBRANCH 1 17
BRANCH 1 20
ATOM     20  C   VAL B 303      13.250   2.604  30.716  1.00 37.27 LIG 0.24  C 
ATOM     21 O    VAL B 303      12.484   2.545  29.752  1.00 36.92 LIG-0.27  OA
ATOM     22  N   SER B 304      13.829   1.532  31.243  1.00 37.37 LIG-0.34  N 
ATOM     23 H    SER B 304      14.376   1.556  31.906  1.00 37.37 LIG 0.16  HD
BRANCH 22 24
ATOM     24  CA  SER B 304      13.573   0.196  30.719  1.00 37.74 LIG 0.20  C 
BRANCH 24 25
ATOM     25  CB  SER B 304      14.664  -0.774  31.181  1.00 37.88 LIG 0.20  C 
BRANCH 25 26
ATOM     26 OG   SER B 304      15.796  -0.068  31.662  1.00 38.36 LIG-0.40  OA
ATOM     27 HG   SER B 304      16.461  -0.242  31.179  1.00 38.36 LIG 0.21  HD
ENDBRANCH 25 26
ENDBRANCH 24 25
BRANCH 24 28
ATOM     28  C   SER B 304      12.210  -0.284  31.208  1.00 37.93 LIG 0.24  C 
ATOM     29 O    SER B 304      11.693  -1.294  30.730  1.00 38.21 LIG-0.27  OA
ATOM     30  N   ALA B 305      11.631   0.440  32.160  1.00 38.06 LIG-0.35  N 
ATOM     31 H    ALA B 305      11.977   1.149  32.502  1.00 38.06 LIG 0.16  HD
BRANCH 30 32
ATOM     32  CA  ALA B 305      10.330   0.076  32.710  1.00 38.30 LIG 0.16  C 
ATOM     33  CB  ALA B 305      10.504  -1.016  33.765  1.00 38.13 LIG 0.04  C 
BRANCH 32 34
ATOM     34  C   ALA B 305       9.629   1.283  33.323  1.00 38.47 LIG 0.22  C 
ATOM     35 O    ALA B 305       8.380   1.291  33.337  1.00 38.58 LIG-0.29  OA
ENDBRANCH 32 34
ENDBRANCH 30 32
ENDBRANCH 24 28
ENDBRANCH 22 24
ENDBRANCH 1 20
TORSDOF 14
ENDMDL
MODEL 101
USER: ADFR SOLUTION from run 111
USER: SCORE 10.085093 LL:  -2.034 LR:  -9.222 RR:   0.000 FEB:  -5.045
USER: RMSD 6.215009
USER: SEED 110
USER: STATUS no improvement in best in 42 clusters for 5 generations
USER: GENES 16
USER: genes 0 Translation |==|  0.69611 0.64306 0.44961
USER: genes 1 Rotation |==|  0.23770 0.29183 0.65185 0.83883
USER: genes 2 Torsion [CB]-CA--N-[C] |==|  0.86899
USER: genes 3 Torsion [N]-C--CA-[N] |==|  0.92899
USER: genes 4 Torsion [C]-CA--N-[C] |==|  0.81519
USER: genes 5 Torsion [N]-C--CA-[N] |==|  0.63192
USER: genes 6 Torsion [C]-CA--CB-[OG] |==|  0.54213
USER: genes 7 Torsion [CA]-CB--OG-[HG] |==|  0.09327
USER: genes 8 Torsion [N]-CA--CB-[CG1] |==|  0.48465
USER: genes 9 Torsion [N]-CA--C-[N] |==|  0.29486
USER: genes 10 Torsion [C]-N--CA-[CB] |==|  0.53164
USER: genes 11 Torsion [N]-CA--CB-[OG] |==|  0.79738
USER: genes 12 Torsion [CA]-CB--OG-[HG] |==|  0.36368
USER: genes 13 Torsion [N]-CA--C-[N] |==|  0.37222
USER: genes 14 Torsion [C]-N--CA-[C] |==|  0.54500
USER: genes 15 Torsion [N]-CA--C-[O] |==|  0.94342
ROOT
ATOM      1  CA  VAL B 303      17.046   7.533  32.676  1.00 37.13 LIG 0.18  C 
ENDROOT
BRANCH 1 2
ATOM      2  N   VAL B 303      15.854   6.695  32.688  1.00 37.20 LIG-0.35  N 
ATOM      3  C   SER B 302      15.562   5.877  31.683  1.00 37.39 LIG 0.24  C 
ATOM      4 O    SER B 302      16.262   5.782  30.671  1.00 37.76 LIG-0.27  OA
ATOM      5 H    VAL B 303      15.369   6.779  33.393  1.00 37.20 LIG 0.16  HD
BRANCH 3 6
ATOM      6  CA  SER B 302      14.289   5.052  31.836  1.00 37.09 LIG 0.20  C 
BRANCH 6 7
ATOM      7  N   SER B 302      13.964   4.860  33.243  1.00 36.48 LIG-0.34  N 
ATOM      8 H    SER B 302      13.241   5.251  33.497  1.00 36.48 LIG 0.16  HD
ATOM      9  C   ALA B 301      14.738   4.137  34.046  1.00 36.26 LIG 0.26  C 
ATOM     10 O    ALA B 301      15.765   3.580  33.659  1.00 35.88 LIG-0.27  OA
BRANCH 9 11
ATOM     11  CA  ALA B 301      14.287   4.023  35.499  1.00 36.43 LIG 0.40  C 
ATOM     12  CB  ALA B 301      13.156   5.009  35.773  1.00 36.70 LIG 0.06  C 
ATOM     13  N   ALA B 301      15.423   4.286  36.432  1.00 36.51 LIG 0.61  N 
ENDBRANCH 9 11
ENDBRANCH 6 7
BRANCH 6 14
ATOM     14  CB  SER B 302      13.136   5.752  31.110  1.00 37.65 LIG 0.20  C 
BRANCH 14 15
ATOM     15 OG   SER B 302      11.885   5.220  31.506  1.00 38.63 LIG-0.40  OA
ATOM     16 HG   SER B 302      11.921   4.992  32.314  1.00 38.63 LIG 0.21  HD
ENDBRANCH 14 15
ENDBRANCH 6 14
ENDBRANCH 3 6
ENDBRANCH 1 2
BRANCH 1 17
ATOM     17  CB  VAL B 303      18.305   6.728  32.263  1.00 37.28 LIG 0.01  C 
ATOM     18  CG1 VAL B 303      19.496   7.659  32.130  1.00 36.92 LIG 0.01  C 
ATOM     19  CG2 VAL B 303      18.594   5.642  33.290  1.00 37.06 LIG 0.01  C 
ENDBRANCH 1 17
BRANCH 1 20
ATOM     20  C   VAL B 303      16.852   8.677  31.691  1.00 37.27 LIG 0.24  C 
ATOM     21 O    VAL B 303      16.889   8.475  30.476  1.00 36.92 LIG-0.27  OA
ATOM     22  N   SER B 304      16.636   9.878  32.216  1.00 37.37 LIG-0.34  N 
ATOM     23 H    SER B 304      16.595  10.035  33.060  1.00 37.37 LIG 0.16  HD
BRANCH 22 24
ATOM     24  CA  SER B 304      16.447  11.052  31.373  1.00 37.74 LIG 0.20  C 
BRANCH 24 25
ATOM     25  CB  SER B 304      16.500  12.327  32.218  1.00 37.88 LIG 0.20  C 
BRANCH 25 26
ATOM     26 OG   SER B 304      15.325  12.464  33.000  1.00 38.36 LIG-0.40  OA
ATOM     27 HG   SER B 304      15.535  12.628  33.796  1.00 38.36 LIG 0.21  HD
ENDBRANCH 25 26
ENDBRANCH 24 25
BRANCH 24 28
ATOM     28  C   SER B 304      17.539  11.088  30.308  1.00 37.93 LIG 0.24  C 
ATOM     29 O    SER B 304      18.716  10.885  30.611  1.00 38.21 LIG-0.27  OA
ATOM     30  N   ALA B 305      17.149  11.343  29.064  1.00 38.06 LIG-0.35  N 
ATOM     31 H    ALA B 305      16.332  11.489  28.837  1.00 38.06 LIG 0.16  HD
BRANCH 30 32
ATOM     32  CA  ALA B 305      18.102  11.397  27.961  1.00 38.30 LIG 0.16  C 
ATOM     33  CB  ALA B 305      18.549   9.982  27.597  1.00 38.13 LIG 0.04  C 
BRANCH 32 34
ATOM     34  C   ALA B 305      17.500  12.081  26.740  1.00 38.47 LIG 0.22  C 
ATOM     35 O    ALA B 305      16.255  12.147  26.657  1.00 38.58 LIG-0.29  OA
ENDBRANCH 32 34
ENDBRANCH 30 32
ENDBRANCH 24 28
ENDBRANCH 22 24
ENDBRANCH 1 20
TORSDOF 14
ENDMDL
MODEL 102
USER: ADFR SOLUTION from run 128
USER: SCORE 10.224019 LL:  -1.793 LR:  -9.223 RR:   0.000 FEB:  -5.047
USER: RMSD 8.580542
USER: SEED 127
USER: STATUS no improvement in best in 30 clusters for 5 generations
USER: GENES 16
USER: genes 0 Translation |==|  0.53982 0.57153 0.41944
USER: genes 1 Rotation |==|  0.39827 0.45422 0.02114 0.59083
USER: genes 2 Torsion [CB]-CA--N-[C] |==|  0.87123
USER: genes 3 Torsion [N]-C--CA-[N] |==|  0.93090
USER: genes 4 Torsion [C]-CA--N-[C] |==|  0.65558
USER: genes 5 Torsion [N]-C--CA-[N] |==|  0.31653
USER: genes 6 Torsion [C]-CA--CB-[OG] |==|  0.75585
USER: genes 7 Torsion [CA]-CB--OG-[HG] |==|  0.97940
USER: genes 8 Torsion [N]-CA--CB-[CG1] |==|  0.40591
USER: genes 9 Torsion [N]-CA--C-[N] |==|  0.35130
USER: genes 10 Torsion [C]-N--CA-[CB] |==|  0.77144
USER: genes 11 Torsion [N]-CA--CB-[OG] |==|  0.81171
USER: genes 12 Torsion [CA]-CB--OG-[HG] |==|  0.04515
USER: genes 13 Torsion [N]-CA--C-[N] |==|  0.18716
USER: genes 14 Torsion [C]-N--CA-[C] |==|  0.70592
USER: genes 15 Torsion [N]-CA--C-[O] |==|  0.11261
ROOT
ATOM      1  CA  VAL B 303      13.881   6.084  32.224  1.00 37.13 LIG 0.18  C 
ENDROOT
BRANCH 1 2
ATOM      2  N   VAL B 303      15.097   6.887  32.264  1.00 37.20 LIG-0.35  N 
ATOM      3  C   SER B 302      16.218   6.491  31.672  1.00 37.39 LIG 0.24  C 
ATOM      4 O    SER B 302      16.315   5.420  31.067  1.00 37.76 LIG-0.27  OA
ATOM      5 H    VAL B 303      15.020   7.626  32.699  1.00 37.20 LIG 0.16  HD
BRANCH 3 6
ATOM      6  CA  SER B 302      17.409   7.437  31.787  1.00 37.09 LIG 0.20  C 
BRANCH 6 7
ATOM      7  N   SER B 302      16.962   8.807  32.002  1.00 36.48 LIG-0.34  N 
ATOM      8 H    SER B 302      16.451   8.910  32.686  1.00 36.48 LIG 0.16  HD
ATOM      9  C   ALA B 301      17.328   9.796  31.193  1.00 36.26 LIG 0.26  C 
ATOM     10 O    ALA B 301      18.067   9.626  30.223  1.00 35.88 LIG-0.27  OA
BRANCH 9 11
ATOM     11  CA  ALA B 301      16.783  11.181  31.526  1.00 36.43 LIG 0.40  C 
ATOM     12  CB  ALA B 301      16.046  11.755  30.320  1.00 36.70 LIG 0.06  C 
ATOM     13  N   ALA B 301      17.883  12.105  31.932  1.00 36.51 LIG 0.61  N 
ENDBRANCH 9 11
ENDBRANCH 6 7
BRANCH 6 14
ATOM     14  CB  SER B 302      18.314   6.981  32.936  1.00 37.65 LIG 0.20  C 
BRANCH 14 15
ATOM     15 OG   SER B 302      17.902   7.551  34.165  1.00 38.63 LIG-0.40  OA
ATOM     16 HG   SER B 302      17.297   8.116  34.024  1.00 38.63 LIG 0.21  HD
ENDBRANCH 14 15
ENDBRANCH 6 14
ENDBRANCH 3 6
ENDBRANCH 1 2
BRANCH 1 17
ATOM     17  CB  VAL B 303      13.587   5.566  30.792  1.00 37.28 LIG 0.01  C 
ATOM     18  CG1 VAL B 303      12.942   4.195  30.859  1.00 36.92 LIG 0.01  C 
ATOM     19  CG2 VAL B 303      12.680   6.543  30.057  1.00 37.06 LIG 0.01  C 
ENDBRANCH 1 17
BRANCH 1 20
ATOM     20  C   VAL B 303      14.031   4.890  33.155  1.00 37.27 LIG 0.24  C 
ATOM     21 O    VAL B 303      15.001   4.135  33.061  1.00 36.92 LIG-0.27  OA
ATOM     22  N   SER B 304      13.075   4.724  34.061  1.00 37.37 LIG-0.34  N 
ATOM     23 H    SER B 304      12.398   5.248  34.150  1.00 37.37 LIG 0.16  HD
BRANCH 22 24
ATOM     24  CA  SER B 304      13.103   3.610  35.000  1.00 37.74 LIG 0.20  C 
BRANCH 24 25
ATOM     25  CB  SER B 304      12.542   2.347  34.343  1.00 37.88 LIG 0.20  C 
BRANCH 25 26
ATOM     26 OG   SER B 304      11.153   2.483  34.090  1.00 38.36 LIG-0.40  OA
ATOM     27 HG   SER B 304      10.938   3.294  34.137  1.00 38.36 LIG 0.21  HD
ENDBRANCH 25 26
ENDBRANCH 24 25
BRANCH 24 28
ATOM     28  C   SER B 304      14.540   3.368  35.451  1.00 37.93 LIG 0.24  C 
ATOM     29 O    SER B 304      15.133   2.338  35.127  1.00 38.21 LIG-0.27  OA
ATOM     30  N   ALA B 305      15.098   4.317  36.196  1.00 38.06 LIG-0.35  N 
ATOM     31 H    ALA B 305      14.697   5.040  36.432  1.00 38.06 LIG 0.16  HD
BRANCH 30 32
ATOM     32  CA  ALA B 305      16.468   4.199  36.680  1.00 38.30 LIG 0.16  C 
ATOM     33  CB  ALA B 305      17.225   5.498  36.408  1.00 38.13 LIG 0.04  C 
BRANCH 32 34
ATOM     34  C   ALA B 305      16.506   3.878  38.170  1.00 38.47 LIG 0.22  C 
ATOM     35 O    ALA B 305      15.676   3.058  38.615  1.00 38.58 LIG-0.29  OA
ENDBRANCH 32 34
ENDBRANCH 30 32
ENDBRANCH 24 28
ENDBRANCH 22 24
ENDBRANCH 1 20
TORSDOF 14
ENDMDL
MODEL 103
USER: ADFR SOLUTION from run 134
USER: SCORE 10.126784 LL:  -1.849 LR:  -9.219 RR:   0.000 FEB:  -5.042
USER: RMSD 4.465226
USER: SEED 133
USER: STATUS no improvement in best in 25 clusters for 5 generations
USER: GENES 16
USER: genes 0 Translation |==|  0.54922 0.52015 0.56831
USER: genes 1 Rotation |==|  0.11930 0.27725 0.65282 0.67916
USER: genes 2 Torsion [CB]-CA--N-[C] |==|  0.86529
USER: genes 3 Torsion [N]-C--CA-[N] |==|  0.92036
USER: genes 4 Torsion [C]-CA--N-[C] |==|  0.79617
USER: genes 5 Torsion [N]-C--CA-[N] |==|  0.20483
USER: genes 6 Torsion [C]-CA--CB-[OG] |==|  0.67027
USER: genes 7 Torsion [CA]-CB--OG-[HG] |==|  0.07944
USER: genes 8 Torsion [N]-CA--CB-[CG1] |==|  0.52376
USER: genes 9 Torsion [N]-CA--C-[N] |==|  0.39929
USER: genes 10 Torsion [C]-N--CA-[CB] |==|  0.53333
USER: genes 11 Torsion [N]-CA--CB-[OG] |==|  0.13917
USER: genes 12 Torsion [CA]-CB--OG-[HG] |==|  0.72136
USER: genes 13 Torsion [N]-CA--C-[N] |==|  0.27893
USER: genes 14 Torsion [C]-N--CA-[C] |==|  0.17944
USER: genes 15 Torsion [N]-CA--C-[O] |==|  0.75991
ROOT
ATOM      1  CA  VAL B 303      14.072   5.044  34.457  1.00 37.13 LIG 0.18  C 
ENDROOT
BRANCH 1 2
ATOM      2  N   VAL B 303      12.897   4.181  34.485  1.00 37.20 LIG-0.35  N 
ATOM      3  C   SER B 302      12.959   2.902  34.131  1.00 37.39 LIG 0.24  C 
ATOM      4 O    SER B 302      13.999   2.364  33.741  1.00 37.76 LIG-0.27  OA
ATOM      5 H    VAL B 303      12.177   4.571  34.747  1.00 37.20 LIG 0.16  HD
BRANCH 3 6
ATOM      6  CA  SER B 302      11.654   2.117  34.220  1.00 37.09 LIG 0.20  C 
BRANCH 6 7
ATOM      7  N   SER B 302      10.791   2.667  35.257  1.00 36.48 LIG-0.34  N 
ATOM      8 H    SER B 302      10.114   3.106  34.959  1.00 36.48 LIG 0.16  HD
ATOM      9  C   ALA B 301      11.051   2.490  36.548  1.00 36.26 LIG 0.26  C 
ATOM     10 O    ALA B 301      12.022   1.851  36.953  1.00 35.88 LIG-0.27  OA
BRANCH 9 11
ATOM     11  CA  ALA B 301      10.071   3.125  37.530  1.00 36.43 LIG 0.40  C 
ATOM     12  CB  ALA B 301      10.686   3.169  38.925  1.00 36.70 LIG 0.06  C 
ATOM     13  N   ALA B 301       8.786   2.366  37.568  1.00 36.51 LIG 0.61  N 
ENDBRANCH 9 11
ENDBRANCH 6 7
BRANCH 6 14
ATOM     14  CB  SER B 302      10.947   2.146  32.862  1.00 37.65 LIG 0.20  C 
BRANCH 14 15
ATOM     15 OG   SER B 302       9.680   2.770  32.960  1.00 38.63 LIG-0.40  OA
ATOM     16 HG   SER B 302       9.692   3.334  33.583  1.00 38.63 LIG 0.21  HD
ENDBRANCH 14 15
ENDBRANCH 6 14
ENDBRANCH 3 6
ENDBRANCH 1 2
BRANCH 1 17
ATOM     17  CB  VAL B 303      15.286   4.378  35.155  1.00 37.28 LIG 0.01  C 
ATOM     18  CG1 VAL B 303      16.418   5.379  35.292  1.00 36.92 LIG 0.01  C 
ATOM     19  CG2 VAL B 303      14.878   3.848  36.523  1.00 37.06 LIG 0.01  C 
ENDBRANCH 1 17
BRANCH 1 20
ATOM     20  C   VAL B 303      14.444   5.347  33.012  1.00 37.27 LIG 0.24  C 
ATOM     21 O    VAL B 303      14.304   4.494  32.134  1.00 36.92 LIG-0.27  OA
ATOM     22  N   SER B 304      14.910   6.566  32.765  1.00 37.37 LIG-0.34  N 
ATOM     23 H    SER B 304      15.002   7.177  33.363  1.00 37.37 LIG 0.16  HD
BRANCH 22 24
ATOM     24  CA  SER B 304      15.310   6.968  31.423  1.00 37.74 LIG 0.20  C 
BRANCH 24 25
ATOM     25  CB  SER B 304      16.075   8.293  31.472  1.00 37.88 LIG 0.20  C 
BRANCH 25 26
ATOM     26 OG   SER B 304      17.109   8.245  32.441  1.00 38.36 LIG-0.40  OA
ATOM     27 HG   SER B 304      16.855   8.633  33.141  1.00 38.36 LIG 0.21  HD
ENDBRANCH 25 26
ENDBRANCH 24 25
BRANCH 24 28
ATOM     28  C   SER B 304      16.191   5.882  30.813  1.00 37.93 LIG 0.24  C 
ATOM     29 O    SER B 304      17.381   5.796  31.117  1.00 38.21 LIG-0.27  OA
ATOM     30  N   ALA B 305      15.604   5.053  29.956  1.00 38.06 LIG-0.35  N 
ATOM     31 H    ALA B 305      14.776   5.100  29.732  1.00 38.06 LIG 0.16  HD
BRANCH 30 32
ATOM     32  CA  ALA B 305      16.343   3.971  29.315  1.00 38.30 LIG 0.16  C 
ATOM     33  CB  ALA B 305      17.537   4.543  28.552  1.00 38.13 LIG 0.04  C 
BRANCH 32 34
ATOM     34  C   ALA B 305      16.822   2.944  30.335  1.00 38.47 LIG 0.22  C 
ATOM     35 O    ALA B 305      17.914   3.149  30.905  1.00 38.58 LIG-0.29  OA
ENDBRANCH 32 34
ENDBRANCH 30 32
ENDBRANCH 24 28
ENDBRANCH 22 24
ENDBRANCH 1 20
TORSDOF 14
ENDMDL
MODEL 104
USER: ADFR SOLUTION from run 49
USER: SCORE 9.644259 LL:  -1.723 LR:  -9.216 RR:   0.000 FEB:  -5.040
USER: RMSD 3.766967
USER: SEED 48
USER: STATUS searching
USER: GENES 16
USER: genes 0 Translation |==|  0.52476 0.44907 0.28782
USER: genes 1 Rotation |==|  0.62924 0.64555 0.68524 0.92166
USER: genes 2 Torsion [CB]-CA--N-[C] |==|  0.87103
USER: genes 3 Torsion [N]-C--CA-[N] |==|  0.02514
USER: genes 4 Torsion [C]-CA--N-[C] |==|  0.76667
USER: genes 5 Torsion [N]-C--CA-[N] |==|  0.89714
USER: genes 6 Torsion [C]-CA--CB-[OG] |==|  0.64184
USER: genes 7 Torsion [CA]-CB--OG-[HG] |==|  0.56047
USER: genes 8 Torsion [N]-CA--CB-[CG1] |==|  0.46859
USER: genes 9 Torsion [N]-CA--C-[N] |==|  0.34578
USER: genes 10 Torsion [C]-N--CA-[CB] |==|  0.19009
USER: genes 11 Torsion [N]-CA--CB-[OG] |==|  0.71636
USER: genes 12 Torsion [CA]-CB--OG-[HG] |==|  0.79829
USER: genes 13 Torsion [N]-CA--C-[N] |==|  0.42991
USER: genes 14 Torsion [C]-N--CA-[C] |==|  0.51154
USER: genes 15 Torsion [N]-CA--C-[O] |==|  0.88737
ROOT
ATOM      1  CA  VAL B 303      13.576   3.605  30.249  1.00 37.13 LIG 0.18  C 
ENDROOT
BRANCH 1 2
ATOM      2  N   VAL B 303      13.454   2.319  30.924  1.00 37.20 LIG-0.35  N 
ATOM      3  C   SER B 302      12.346   1.966  31.566  1.00 37.39 LIG 0.24  C 
ATOM      4 O    SER B 302      11.358   2.702  31.652  1.00 37.76 LIG-0.27  OA
ATOM      5 H    VAL B 303      14.153   1.820  30.867  1.00 37.20 LIG 0.16  HD
BRANCH 3 6
ATOM      6  CA  SER B 302      12.355   0.587  32.216  1.00 37.09 LIG 0.20  C 
BRANCH 6 7
ATOM      7  N   SER B 302      13.690   0.005  32.174  1.00 36.48 LIG-0.34  N 
ATOM      8 H    SER B 302      14.152   0.122  32.890  1.00 36.48 LIG 0.16  HD
ATOM      9  C   ALA B 301      14.133  -0.647  31.103  1.00 36.26 LIG 0.26  C 
ATOM     10 O    ALA B 301      13.453  -0.809  30.090  1.00 35.88 LIG-0.27  OA
BRANCH 9 11
ATOM     11  CA  ALA B 301      15.553  -1.200  31.186  1.00 36.43 LIG 0.40  C 
ATOM     12  CB  ALA B 301      15.542  -2.561  31.875  1.00 36.70 LIG 0.06  C 
ATOM     13  N   ALA B 301      16.447  -0.265  31.931  1.00 36.51 LIG 0.61  N 
ENDBRANCH 9 11
ENDBRANCH 6 7
BRANCH 6 14
ATOM     14  CB  SER B 302      11.866   0.701  33.663  1.00 37.65 LIG 0.20  C 
BRANCH 14 15
ATOM     15 OG   SER B 302      12.769   0.076  34.558  1.00 38.63 LIG-0.40  OA
ATOM     16 HG   SER B 302      12.368  -0.117  35.271  1.00 38.63 LIG 0.21  HD
ENDBRANCH 14 15
ENDBRANCH 6 14
ENDBRANCH 3 6
ENDBRANCH 1 2
BRANCH 1 17
ATOM     17  CB  VAL B 303      12.326   3.918  29.387  1.00 37.28 LIG 0.01  C 
ATOM     18  CG1 VAL B 303      12.360   5.364  28.930  1.00 36.92 LIG 0.01  C 
ATOM     19  CG2 VAL B 303      12.269   2.983  28.187  1.00 37.06 LIG 0.01  C 
ENDBRANCH 1 17
BRANCH 1 20
ATOM     20  C   VAL B 303      13.744   4.707  31.286  1.00 37.27 LIG 0.24  C 
ATOM     21 O    VAL B 303      12.922   4.850  32.193  1.00 36.92 LIG-0.27  OA
ATOM     22  N   SER B 304      14.816   5.480  31.157  1.00 37.37 LIG-0.34  N 
ATOM     23 H    SER B 304      15.406   5.387  30.538  1.00 37.37 LIG 0.16  HD
BRANCH 22 24
ATOM     24  CA  SER B 304      15.078   6.576  32.081  1.00 37.74 LIG 0.20  C 
BRANCH 24 25
ATOM     25  CB  SER B 304      15.424   6.030  33.468  1.00 37.88 LIG 0.20  C 
BRANCH 25 26
ATOM     26 OG   SER B 304      14.314   6.136  34.345  1.00 38.36 LIG-0.40  OA
ATOM     27 HG   SER B 304      14.200   6.941  34.556  1.00 38.36 LIG 0.21  HD
ENDBRANCH 25 26
ENDBRANCH 24 25
BRANCH 24 28
ATOM     28  C   SER B 304      16.234   7.418  31.550  1.00 37.93 LIG 0.24  C 
ATOM     29 O    SER B 304      17.072   6.924  30.794  1.00 38.21 LIG-0.27  OA
ATOM     30  N   ALA B 305      16.276   8.686  31.943  1.00 38.06 LIG-0.35  N 
ATOM     31 H    ALA B 305      15.701   9.045  32.472  1.00 38.06 LIG 0.16  HD
BRANCH 30 32
ATOM     32  CA  ALA B 305      17.331   9.589  31.495  1.00 38.30 LIG 0.16  C 
ATOM     33  CB  ALA B 305      17.265   9.746  29.977  1.00 38.13 LIG 0.04  C 
BRANCH 32 34
ATOM     34  C   ALA B 305      17.215  10.954  32.164  1.00 38.47 LIG 0.22  C 
ATOM     35 O    ALA B 305      16.075  11.442  32.307  1.00 38.58 LIG-0.29  OA
ENDBRANCH 32 34
ENDBRANCH 30 32
ENDBRANCH 24 28
ENDBRANCH 22 24
ENDBRANCH 1 20
TORSDOF 14
ENDMDL
MODEL 105
USER: ADFR SOLUTION from run 150
USER: SCORE 9.714089 LL:  -1.538 LR:  -9.205 RR:   0.000 FEB:  -5.029
USER: RMSD 8.382031
USER: SEED 149
USER: STATUS no improvement in best in 28 clusters for 5 generations
USER: GENES 16
USER: genes 0 Translation |==|  0.48712 0.49025 0.35942
USER: genes 1 Rotation |==|  0.61631 0.45035 0.98189 0.54224
USER: genes 2 Torsion [CB]-CA--N-[C] |==|  0.77589
USER: genes 3 Torsion [N]-C--CA-[N] |==|  0.36709
USER: genes 4 Torsion [C]-CA--N-[C] |==|  0.82223
USER: genes 5 Torsion [N]-C--CA-[N] |==|  0.91762
USER: genes 6 Torsion [C]-CA--CB-[OG] |==|  0.58266
USER: genes 7 Torsion [CA]-CB--OG-[HG] |==|  0.25003
USER: genes 8 Torsion [N]-CA--CB-[CG1] |==|  0.68028
USER: genes 9 Torsion [N]-CA--C-[N] |==|  0.23717
USER: genes 10 Torsion [C]-N--CA-[CB] |==|  0.50389
USER: genes 11 Torsion [N]-CA--CB-[OG] |==|  0.14957
USER: genes 12 Torsion [CA]-CB--OG-[HG] |==|  0.09765
USER: genes 13 Torsion [N]-CA--C-[N] |==|  0.35749
USER: genes 14 Torsion [C]-N--CA-[C] |==|  0.81782
USER: genes 15 Torsion [N]-CA--C-[O] |==|  0.21808
ROOT
ATOM      1  CA  VAL B 303      12.814   4.438  31.323  1.00 37.13 LIG 0.18  C 
ENDROOT
BRANCH 1 2
ATOM      2  N   VAL B 303      14.270   4.391  31.358  1.00 37.20 LIG-0.35  N 
ATOM      3  C   SER B 302      14.941   3.270  31.114  1.00 37.39 LIG 0.24  C 
ATOM      4 O    SER B 302      14.385   2.198  30.861  1.00 37.76 LIG-0.27  OA
ATOM      5 H    VAL B 303      14.645   5.142  31.548  1.00 37.20 LIG 0.16  HD
BRANCH 3 6
ATOM      6  CA  SER B 302      16.462   3.371  31.175  1.00 37.09 LIG 0.20  C 
BRANCH 6 7
ATOM      7  N   SER B 302      17.019   2.287  31.974  1.00 36.48 LIG-0.34  N 
ATOM      8 H    SER B 302      17.521   1.744  31.535  1.00 36.48 LIG 0.16  HD
ATOM      9  C   ALA B 301      16.758   2.172  33.272  1.00 36.26 LIG 0.26  C 
ATOM     10 O    ALA B 301      16.042   2.967  33.883  1.00 35.88 LIG-0.27  OA
BRANCH 9 11
ATOM     11  CA  ALA B 301      17.398   0.988  33.990  1.00 36.43 LIG 0.40  C 
ATOM     12  CB  ALA B 301      18.744   1.401  34.579  1.00 36.70 LIG 0.06  C 
ATOM     13  N   ALA B 301      17.588  -0.162  33.057  1.00 36.51 LIG 0.61  N 
ENDBRANCH 9 11
ENDBRANCH 6 7
BRANCH 6 14
ATOM     14  CB  SER B 302      17.032   3.337  29.753  1.00 37.65 LIG 0.20  C 
BRANCH 14 15
ATOM     15 OG   SER B 302      18.326   2.761  29.737  1.00 38.63 LIG-0.40  OA
ATOM     16 HG   SER B 302      18.262   1.931  29.622  1.00 38.63 LIG 0.21  HD
ENDBRANCH 14 15
ENDBRANCH 6 14
ENDBRANCH 3 6
ENDBRANCH 1 2
BRANCH 1 17
ATOM     17  CB  VAL B 303      12.282   4.558  29.872  1.00 37.28 LIG 0.01  C 
ATOM     18  CG1 VAL B 303      11.575   5.887  29.685  1.00 36.92 LIG 0.01  C 
ATOM     19  CG2 VAL B 303      13.429   4.423  28.880  1.00 37.06 LIG 0.01  C 
ENDBRANCH 1 17
BRANCH 1 20
ATOM     20  C   VAL B 303      12.250   3.170  31.948  1.00 37.27 LIG 0.24  C 
ATOM     21 O    VAL B 303      11.953   2.201  31.247  1.00 36.92 LIG-0.27  OA
ATOM     22  N   SER B 304      12.111   3.174  33.269  1.00 37.37 LIG-0.34  N 
ATOM     23 H    SER B 304      12.325   3.836  33.774  1.00 37.37 LIG 0.16  HD
BRANCH 22 24
ATOM     24  CA  SER B 304      11.571   2.021  33.979  1.00 37.74 LIG 0.20  C 
BRANCH 24 25
ATOM     25  CB  SER B 304      11.491   2.311  35.480  1.00 37.88 LIG 0.20  C 
BRANCH 25 26
ATOM     26 OG   SER B 304      10.769   3.507  35.725  1.00 38.36 LIG-0.40  OA
ATOM     27 HG   SER B 304      10.149   3.581  35.163  1.00 38.36 LIG 0.21  HD
ENDBRANCH 25 26
ENDBRANCH 24 25
BRANCH 24 28
ATOM     28  C   SER B 304      10.181   1.702  33.436  1.00 37.93 LIG 0.24  C 
ATOM     29 O    SER B 304       9.325   2.583  33.350  1.00 38.21 LIG-0.27  OA
ATOM     30  N   ALA B 305       9.961   0.444  33.069  1.00 38.06 LIG-0.35  N 
ATOM     31 H    ALA B 305      10.547  -0.183  33.125  1.00 38.06 LIG 0.16  HD
BRANCH 30 32
ATOM     32  CA  ALA B 305       8.674   0.021  32.530  1.00 38.30 LIG 0.16  C 
ATOM     33  CB  ALA B 305       8.773  -1.418  32.026  1.00 38.13 LIG 0.04  C 
BRANCH 32 34
ATOM     34  C   ALA B 305       7.570   0.131  33.575  1.00 38.47 LIG 0.22  C 
ATOM     35 O    ALA B 305       7.091   1.261  33.807  1.00 38.58 LIG-0.29  OA
ENDBRANCH 32 34
ENDBRANCH 30 32
ENDBRANCH 24 28
ENDBRANCH 22 24
ENDBRANCH 1 20
TORSDOF 14
ENDMDL
MODEL 106
USER: ADFR SOLUTION from run 79
USER: SCORE 9.739232 LL:  -2.141 LR:  -9.213 RR:   0.000 FEB:  -5.036
USER: RMSD 9.532244
USER: SEED 78
USER: STATUS no improvement in best in 42 clusters for 5 generations
USER: GENES 16
USER: genes 0 Translation |==|  0.63251 0.63984 0.41106
USER: genes 1 Rotation |==|  0.24636 0.45773 0.10822 0.67432
USER: genes 2 Torsion [CB]-CA--N-[C] |==|  0.52882
USER: genes 3 Torsion [N]-C--CA-[N] |==|  0.35099
USER: genes 4 Torsion [C]-CA--N-[C] |==|  0.81214
USER: genes 5 Torsion [N]-C--CA-[N] |==|  0.08950
USER: genes 6 Torsion [C]-CA--CB-[OG] |==|  0.63348
USER: genes 7 Torsion [CA]-CB--OG-[HG] |==|  0.16895
USER: genes 8 Torsion [N]-CA--CB-[CG1] |==|  0.24005
USER: genes 9 Torsion [N]-CA--C-[N] |==|  0.37796
USER: genes 10 Torsion [C]-N--CA-[CB] |==|  0.52658
USER: genes 11 Torsion [N]-CA--CB-[OG] |==|  0.04008
USER: genes 12 Torsion [CA]-CB--OG-[HG] |==|  0.65383
USER: genes 13 Torsion [N]-CA--C-[N] |==|  0.81664
USER: genes 14 Torsion [C]-N--CA-[C] |==|  0.78542
USER: genes 15 Torsion [N]-CA--C-[O] |==|  0.17855
ROOT
ATOM      1  CA  VAL B 303      15.758   7.468  32.098  1.00 37.13 LIG 0.18  C 
ENDROOT
BRANCH 1 2
ATOM      2  N   VAL B 303      16.392   8.573  31.390  1.00 37.20 LIG-0.35  N 
ATOM      3  C   SER B 302      17.382   9.276  31.930  1.00 37.39 LIG 0.24  C 
ATOM      4 O    SER B 302      17.819   9.056  33.063  1.00 37.76 LIG-0.27  OA
ATOM      5 H    VAL B 303      16.070   8.723  30.607  1.00 37.20 LIG 0.16  HD
BRANCH 3 6
ATOM      6  CA  SER B 302      17.957  10.396  31.071  1.00 37.09 LIG 0.20  C 
BRANCH 6 7
ATOM      7  N   SER B 302      17.943  11.661  31.794  1.00 36.48 LIG-0.34  N 
ATOM      8 H    SER B 302      18.723  11.965  31.994  1.00 36.48 LIG 0.16  HD
ATOM      9  C   ALA B 301      16.806  12.273  32.108  1.00 36.26 LIG 0.26  C 
ATOM     10 O    ALA B 301      15.700  11.824  31.806  1.00 35.88 LIG-0.27  OA
BRANCH 9 11
ATOM     11  CA  ALA B 301      16.932  13.586  32.874  1.00 36.43 LIG 0.40  C 
ATOM     12  CB  ALA B 301      15.714  14.465  32.607  1.00 36.70 LIG 0.06  C 
ATOM     13  N   ALA B 301      18.175  14.315  32.482  1.00 36.51 LIG 0.61  N 
ENDBRANCH 9 11
ENDBRANCH 6 7
BRANCH 6 14
ATOM     14  CB  SER B 302      19.385  10.035  30.649  1.00 37.65 LIG 0.20  C 
BRANCH 14 15
ATOM     15 OG   SER B 302      20.271  11.116  30.873  1.00 38.63 LIG-0.40  OA
ATOM     16 HG   SER B 302      20.283  11.304  31.692  1.00 38.63 LIG 0.21  HD
ENDBRANCH 14 15
ENDBRANCH 6 14
ENDBRANCH 3 6
ENDBRANCH 1 2
BRANCH 1 17
ATOM     17  CB  VAL B 303      14.822   6.655  31.167  1.00 37.28 LIG 0.01  C 
ATOM     18  CG1 VAL B 303      15.614   5.589  30.435  1.00 36.92 LIG 0.01  C 
ATOM     19  CG2 VAL B 303      13.700   6.019  31.977  1.00 37.06 LIG 0.01  C 
ENDBRANCH 1 17
BRANCH 1 20
ATOM     20  C   VAL B 303      16.830   6.536  32.646  1.00 37.27 LIG 0.24  C 
ATOM     21 O    VAL B 303      17.801   6.218  31.957  1.00 36.92 LIG-0.27  OA
ATOM     22  N   SER B 304      16.659   6.107  33.891  1.00 37.37 LIG-0.34  N 
ATOM     23 H    SER B 304      15.995   6.329  34.391  1.00 37.37 LIG 0.16  HD
BRANCH 22 24
ATOM     24  CA  SER B 304      17.612   5.202  34.521  1.00 37.74 LIG 0.20  C 
BRANCH 24 25
ATOM     25  CB  SER B 304      17.057   4.686  35.851  1.00 37.88 LIG 0.20  C 
BRANCH 25 26
ATOM     26 OG   SER B 304      15.667   4.951  35.954  1.00 38.36 LIG-0.40  OA
ATOM     27 HG   SER B 304      15.516   5.384  36.658  1.00 38.36 LIG 0.21  HD
ENDBRANCH 25 26
ENDBRANCH 24 25
BRANCH 24 28
ATOM     28  C   SER B 304      17.889   4.031  33.583  1.00 37.93 LIG 0.24  C 
ATOM     29 O    SER B 304      19.007   3.874  33.090  1.00 38.21 LIG-0.27  OA
ATOM     30  N   ALA B 305      16.873   3.210  33.340  1.00 38.06 LIG-0.35  N 
ATOM     31 H    ALA B 305      16.087   3.307  33.675  1.00 38.06 LIG 0.16  HD
BRANCH 30 32
ATOM     32  CA  ALA B 305      17.019   2.053  32.465  1.00 38.30 LIG 0.16  C 
ATOM     33  CB  ALA B 305      15.894   1.056  32.735  1.00 38.13 LIG 0.04  C 
BRANCH 32 34
ATOM     34  C   ALA B 305      17.009   2.462  30.997  1.00 38.47 LIG 0.22  C 
ATOM     35 O    ALA B 305      17.939   3.185  30.582  1.00 38.58 LIG-0.29  OA
ENDBRANCH 32 34
ENDBRANCH 30 32
ENDBRANCH 24 28
ENDBRANCH 22 24
ENDBRANCH 1 20
TORSDOF 14
ENDMDL
MODEL 107
USER: ADFR SOLUTION from run 13
USER: SCORE 9.373443 LL:  -1.786 LR:  -9.200 RR:   0.000 FEB:  -5.024
USER: RMSD 4.237401
USER: SEED 909914
USER: STATUS no improvement in best in 29 clusters for 5 generations
USER: GENES 16
USER: genes 0 Translation |==|  0.62774 0.57490 0.45055
USER: genes 1 Rotation |==|  0.16571 0.19924 0.57464 0.70548
USER: genes 2 Torsion [CB]-CA--N-[C] |==|  0.26860
USER: genes 3 Torsion [N]-C--CA-[N] |==|  0.44349
USER: genes 4 Torsion [C]-CA--N-[C] |==|  0.58374
USER: genes 5 Torsion [N]-C--CA-[N] |==|  0.09815
USER: genes 6 Torsion [C]-CA--CB-[OG] |==|  0.36219
USER: genes 7 Torsion [CA]-CB--OG-[HG] |==|  0.13922
USER: genes 8 Torsion [N]-CA--CB-[CG1] |==|  0.14760
USER: genes 9 Torsion [N]-CA--C-[N] |==|  0.39748
USER: genes 10 Torsion [C]-N--CA-[CB] |==|  0.51667
USER: genes 11 Torsion [N]-CA--CB-[OG] |==|  0.91180
USER: genes 12 Torsion [CA]-CB--OG-[HG] |==|  0.09447
USER: genes 13 Torsion [N]-CA--C-[N] |==|  0.45172
USER: genes 14 Torsion [C]-N--CA-[C] |==|  0.85292
USER: genes 15 Torsion [N]-CA--C-[O] |==|  0.36374
ROOT
ATOM      1  CA  VAL B 303      15.662   6.153  32.690  1.00 37.13 LIG 0.18  C 
ENDROOT
BRANCH 1 2
ATOM      2  N   VAL B 303      14.723   5.210  32.095  1.00 37.20 LIG-0.35  N 
ATOM      3  C   SER B 302      13.603   4.852  32.714  1.00 37.39 LIG 0.24  C 
ATOM      4 O    SER B 302      13.289   5.274  33.830  1.00 37.76 LIG-0.27  OA
ATOM      5 H    VAL B 303      14.959   4.914  31.323  1.00 37.20 LIG 0.16  HD
BRANCH 3 6
ATOM      6  CA  SER B 302      12.710   3.866  31.969  1.00 37.09 LIG 0.20  C 
BRANCH 6 7
ATOM      7  N   SER B 302      11.803   3.193  32.889  1.00 36.48 LIG-0.34  N 
ATOM      8 H    SER B 302      11.579   3.662  33.574  1.00 36.48 LIG 0.16  HD
ATOM      9  C   ALA B 301      11.372   1.955  32.664  1.00 36.26 LIG 0.26  C 
ATOM     10 O    ALA B 301      11.699   1.304  31.672  1.00 35.88 LIG-0.27  OA
BRANCH 9 11
ATOM     11  CA  ALA B 301      10.433   1.364  33.711  1.00 36.43 LIG 0.40  C 
ATOM     12  CB  ALA B 301       9.596   0.250  33.090  1.00 36.70 LIG 0.06  C 
ATOM     13  N   ALA B 301       9.535   2.415  34.276  1.00 36.51 LIG 0.61  N 
ENDBRANCH 9 11
ENDBRANCH 6 7
BRANCH 6 14
ATOM     14  CB  SER B 302      11.921   4.609  30.886  1.00 37.65 LIG 0.20  C 
BRANCH 14 15
ATOM     15 OG   SER B 302      12.022   3.950  29.637  1.00 38.63 LIG-0.40  OA
ATOM     16 HG   SER B 302      11.844   3.135  29.735  1.00 38.63 LIG 0.21  HD
ENDBRANCH 14 15
ENDBRANCH 6 14
ENDBRANCH 3 6
ENDBRANCH 1 2
BRANCH 1 17
ATOM     17  CB  VAL B 303      16.822   5.423  33.416  1.00 37.28 LIG 0.01  C 
ATOM     18  CG1 VAL B 303      17.478   4.429  32.476  1.00 36.92 LIG 0.01  C 
ATOM     19  CG2 VAL B 303      17.845   6.433  33.917  1.00 37.06 LIG 0.01  C 
ENDBRANCH 1 17
BRANCH 1 20
ATOM     20  C   VAL B 303      16.248   7.041  31.602  1.00 37.27 LIG 0.24  C 
ATOM     21 O    VAL B 303      16.491   6.587  30.482  1.00 36.92 LIG-0.27  OA
ATOM     22  N   SER B 304      16.465   8.309  31.927  1.00 37.37 LIG-0.34  N 
ATOM     23 H    SER B 304      16.289   8.646  32.699  1.00 37.37 LIG 0.16  HD
BRANCH 22 24
ATOM     24  CA  SER B 304      17.034   9.252  30.972  1.00 37.74 LIG 0.20  C 
BRANCH 24 25
ATOM     25  CB  SER B 304      17.312  10.595  31.652  1.00 37.88 LIG 0.20  C 
BRANCH 25 26
ATOM     26 OG   SER B 304      16.369  10.844  32.682  1.00 38.36 LIG-0.40  OA
ATOM     27 HG   SER B 304      16.154  10.118  33.047  1.00 38.36 LIG 0.21  HD
ENDBRANCH 25 26
ENDBRANCH 24 25
BRANCH 24 28
ATOM     28  C   SER B 304      18.329   8.677  30.407  1.00 37.93 LIG 0.24  C 
ATOM     29 O    SER B 304      18.904   7.751  30.980  1.00 38.21 LIG-0.27  OA
ATOM     30  N   ALA B 305      18.783   9.224  29.285  1.00 38.06 LIG-0.35  N 
ATOM     31 H    ALA B 305      18.394   9.872  28.875  1.00 38.06 LIG 0.16  HD
BRANCH 30 32
ATOM     32  CA  ALA B 305      20.008   8.753  28.648  1.00 38.30 LIG 0.16  C 
ATOM     33  CB  ALA B 305      20.346   9.647  27.456  1.00 38.13 LIG 0.04  C 
BRANCH 32 34
ATOM     34  C   ALA B 305      21.173   8.735  29.631  1.00 38.47 LIG 0.22  C 
ATOM     35 O    ALA B 305      21.867   7.699  29.700  1.00 38.58 LIG-0.29  OA
ENDBRANCH 32 34
ENDBRANCH 30 32
ENDBRANCH 24 28
ENDBRANCH 22 24
ENDBRANCH 1 20
TORSDOF 14
ENDMDL
MODEL 108
USER: ADFR SOLUTION from run 10
USER: SCORE 9.316399 LL:  -1.407 LR:  -9.187 RR:   0.000 FEB:  -5.010
USER: RMSD 9.162384
USER: SEED 165458
USER: STATUS no improvement in best in 26 clusters for 5 generations
USER: GENES 16
USER: genes 0 Translation |==|  0.50498 0.51556 0.35460
USER: genes 1 Rotation |==|  0.42513 0.59305 0.01565 0.53385
USER: genes 2 Torsion [CB]-CA--N-[C] |==|  0.87061
USER: genes 3 Torsion [N]-C--CA-[N] |==|  0.90292
USER: genes 4 Torsion [C]-CA--N-[C] |==|  0.72181
USER: genes 5 Torsion [N]-C--CA-[N] |==|  0.29492
USER: genes 6 Torsion [C]-CA--CB-[OG] |==|  0.27196
USER: genes 7 Torsion [CA]-CB--OG-[HG] |==|  0.55965
USER: genes 8 Torsion [N]-CA--CB-[CG1] |==|  0.35409
USER: genes 9 Torsion [N]-CA--C-[N] |==|  0.35000
USER: genes 10 Torsion [C]-N--CA-[CB] |==|  0.16842
USER: genes 11 Torsion [N]-CA--CB-[OG] |==|  0.09882
USER: genes 12 Torsion [CA]-CB--OG-[HG] |==|  0.54830
USER: genes 13 Torsion [N]-CA--C-[N] |==|  0.57584
USER: genes 14 Torsion [C]-N--CA-[C] |==|  0.14116
USER: genes 15 Torsion [N]-CA--C-[O] |==|  0.04960
ROOT
ATOM      1  CA  VAL B 303      13.176   4.951  31.251  1.00 37.13 LIG 0.18  C 
ENDROOT
BRANCH 1 2
ATOM      2  N   VAL B 303      14.566   5.203  31.609  1.00 37.20 LIG-0.35  N 
ATOM      3  C   SER B 302      15.572   4.803  30.839  1.00 37.39 LIG 0.24  C 
ATOM      4 O    SER B 302      15.404   4.181  29.786  1.00 37.76 LIG-0.27  OA
ATOM      5 H    VAL B 303      14.670   5.627  32.351  1.00 37.20 LIG 0.16  HD
BRANCH 3 6
ATOM      6  CA  SER B 302      16.973   5.145  31.333  1.00 37.09 LIG 0.20  C 
BRANCH 6 7
ATOM      7  N   SER B 302      16.982   6.435  32.010  1.00 36.48 LIG-0.34  N 
ATOM      8 H    SER B 302      16.698   6.412  32.822  1.00 36.48 LIG 0.16  HD
ATOM      9  C   ALA B 301      17.399   7.540  31.401  1.00 36.26 LIG 0.26  C 
ATOM     10 O    ALA B 301      17.808   7.550  30.240  1.00 35.88 LIG-0.27  OA
BRANCH 9 11
ATOM     11  CA  ALA B 301      17.348   8.826  32.221  1.00 36.43 LIG 0.40  C 
ATOM     12  CB  ALA B 301      16.696   9.939  31.406  1.00 36.70 LIG 0.06  C 
ATOM     13  N   ALA B 301      18.718   9.245  32.642  1.00 36.51 LIG 0.61  N 
ENDBRANCH 9 11
ENDBRANCH 6 7
BRANCH 6 14
ATOM     14  CB  SER B 302      17.466   4.042  32.274  1.00 37.65 LIG 0.20  C 
BRANCH 14 15
ATOM     15 OG   SER B 302      18.302   3.124  31.592  1.00 38.63 LIG-0.40  OA
ATOM     16 HG   SER B 302      18.322   2.397  32.012  1.00 38.63 LIG 0.21  HD
ENDBRANCH 14 15
ENDBRANCH 6 14
ENDBRANCH 3 6
ENDBRANCH 1 2
BRANCH 1 17
ATOM     17  CB  VAL B 303      12.896   5.306  29.768  1.00 37.28 LIG 0.01  C 
ATOM     18  CG1 VAL B 303      12.244   4.129  29.067  1.00 36.92 LIG 0.01  C 
ATOM     19  CG2 VAL B 303      12.001   6.535  29.683  1.00 37.06 LIG 0.01  C 
ENDBRANCH 1 17
BRANCH 1 20
ATOM     20  C   VAL B 303      12.854   3.480  31.471  1.00 37.27 LIG 0.24  C 
ATOM     21 O    VAL B 303      13.548   2.600  30.959  1.00 36.92 LIG-0.27  OA
ATOM     22  N   SER B 304      11.806   3.213  32.242  1.00 37.37 LIG-0.34  N 
ATOM     23 H    SER B 304      11.318   3.814  32.617  1.00 37.37 LIG 0.16  HD
BRANCH 22 24
ATOM     24  CA  SER B 304      11.393   1.842  32.515  1.00 37.74 LIG 0.20  C 
BRANCH 24 25
ATOM     25  CB  SER B 304      12.516   1.080  33.222  1.00 37.88 LIG 0.20  C 
BRANCH 25 26
ATOM     26 OG   SER B 304      13.226   1.931  34.107  1.00 38.36 LIG-0.40  OA
ATOM     27 HG   SER B 304      13.965   1.581  34.300  1.00 38.36 LIG 0.21  HD
ENDBRANCH 25 26
ENDBRANCH 24 25
BRANCH 24 28
ATOM     28  C   SER B 304      10.144   1.858  33.391  1.00 37.93 LIG 0.24  C 
ATOM     29 O    SER B 304       9.364   2.811  33.353  1.00 38.21 LIG-0.27  OA
ATOM     30  N   ALA B 305       9.955   0.804  34.177  1.00 38.06 LIG-0.35  N 
ATOM     31 H    ALA B 305      10.491   0.133  34.217  1.00 38.06 LIG 0.16  HD
BRANCH 30 32
ATOM     32  CA  ALA B 305       8.794   0.704  35.053  1.00 38.30 LIG 0.16  C 
ATOM     33  CB  ALA B 305       8.930   1.699  36.206  1.00 38.13 LIG 0.04  C 
BRANCH 32 34
ATOM     34  C   ALA B 305       7.499   0.966  34.292  1.00 38.47 LIG 0.22  C 
ATOM     35 O    ALA B 305       7.524   0.885  33.046  1.00 38.58 LIG-0.29  OA
ENDBRANCH 32 34
ENDBRANCH 30 32
ENDBRANCH 24 28
ENDBRANCH 22 24
ENDBRANCH 1 20
TORSDOF 14
ENDMDL
MODEL 109
USER: ADFR SOLUTION from run 25
USER: SCORE 9.750555 LL:  -1.638 LR:  -9.183 RR:   0.000 FEB:  -5.007
USER: RMSD 7.445529
USER: SEED 24
USER: STATUS no improvement in best in 22 clusters for 5 generations
USER: GENES 16
USER: genes 0 Translation |==|  0.50017 0.52002 0.35200
USER: genes 1 Rotation |==|  0.57688 0.33515 0.96044 0.57010
USER: genes 2 Torsion [CB]-CA--N-[C] |==|  0.76941
USER: genes 3 Torsion [N]-C--CA-[N] |==|  0.38533
USER: genes 4 Torsion [C]-CA--N-[C] |==|  0.82811
USER: genes 5 Torsion [N]-C--CA-[N] |==|  0.22611
USER: genes 6 Torsion [C]-CA--CB-[OG] |==|  0.59361
USER: genes 7 Torsion [CA]-CB--OG-[HG] |==|  0.11481
USER: genes 8 Torsion [N]-CA--CB-[CG1] |==|  0.14444
USER: genes 9 Torsion [N]-CA--C-[N] |==|  0.24198
USER: genes 10 Torsion [C]-N--CA-[CB] |==|  0.23134
USER: genes 11 Torsion [N]-CA--CB-[OG] |==|  0.83370
USER: genes 12 Torsion [CA]-CB--OG-[HG] |==|  0.18165
USER: genes 13 Torsion [N]-CA--C-[N] |==|  0.89273
USER: genes 14 Torsion [C]-N--CA-[C] |==|  0.57264
USER: genes 15 Torsion [N]-CA--C-[O] |==|  0.01566
ROOT
ATOM      1  CA  VAL B 303      13.079   5.041  31.212  1.00 37.13 LIG 0.18  C 
ENDROOT
BRANCH 1 2
ATOM      2  N   VAL B 303      14.459   4.603  31.378  1.00 37.20 LIG-0.35  N 
ATOM      3  C   SER B 302      14.919   3.501  30.795  1.00 37.39 LIG 0.24  C 
ATOM      4 O    SER B 302      14.214   2.769  30.094  1.00 37.76 LIG-0.27  OA
ATOM      5 H    VAL B 303      14.936   5.115  31.877  1.00 37.20 LIG 0.16  HD
BRANCH 3 6
ATOM      6  CA  SER B 302      16.386   3.170  31.047  1.00 37.09 LIG 0.20  C 
BRANCH 6 7
ATOM      7  N   SER B 302      16.561   1.742  31.273  1.00 36.48 LIG-0.34  N 
ATOM      8 H    SER B 302      17.062   1.349  30.694  1.00 36.48 LIG 0.16  HD
ATOM      9  C   ALA B 301      15.984   1.121  32.297  1.00 36.26 LIG 0.26  C 
ATOM     10 O    ALA B 301      15.276   1.704  33.119  1.00 35.88 LIG-0.27  OA
BRANCH 9 11
ATOM     11  CA  ALA B 301      16.243  -0.378  32.414  1.00 36.43 LIG 0.40  C 
ATOM     12  CB  ALA B 301      15.130  -1.038  33.222  1.00 36.70 LIG 0.06  C 
ATOM     13  N   ALA B 301      17.561  -0.643  33.062  1.00 36.51 LIG 0.61  N 
ENDBRANCH 9 11
ENDBRANCH 6 7
BRANCH 6 14
ATOM     14  CB  SER B 302      17.225   3.631  29.852  1.00 37.65 LIG 0.20  C 
BRANCH 14 15
ATOM     15 OG   SER B 302      18.321   2.761  29.632  1.00 38.63 LIG-0.40  OA
ATOM     16 HG   SER B 302      18.071   1.965  29.731  1.00 38.63 LIG 0.21  HD
ENDBRANCH 14 15
ENDBRANCH 6 14
ENDBRANCH 3 6
ENDBRANCH 1 2
BRANCH 1 17
ATOM     17  CB  VAL B 303      12.887   5.840  29.897  1.00 37.28 LIG 0.01  C 
ATOM     18  CG1 VAL B 303      13.437   5.049  28.725  1.00 36.92 LIG 0.01  C 
ATOM     19  CG2 VAL B 303      11.412   6.151  29.682  1.00 37.06 LIG 0.01  C 
ENDBRANCH 1 17
BRANCH 1 20
ATOM     20  C   VAL B 303      12.160   3.828  31.184  1.00 37.27 LIG 0.24  C 
ATOM     21 O    VAL B 303      11.854   3.294  30.116  1.00 36.92 LIG-0.27  OA
ATOM     22  N   SER B 304      11.730   3.385  32.360  1.00 37.37 LIG-0.34  N 
ATOM     23 H    SER B 304      11.944   3.737  33.115  1.00 37.37 LIG 0.16  HD
BRANCH 22 24
ATOM     24  CA  SER B 304      10.837   2.238  32.460  1.00 37.74 LIG 0.20  C 
BRANCH 24 25
ATOM     25  CB  SER B 304      11.639   0.935  32.414  1.00 37.88 LIG 0.20  C 
BRANCH 25 26
ATOM     26 OG   SER B 304      12.367   0.832  31.202  1.00 38.36 LIG-0.40  OA
ATOM     27 HG   SER B 304      12.950   1.437  31.173  1.00 38.36 LIG 0.21  HD
ENDBRANCH 25 26
ENDBRANCH 24 25
BRANCH 24 28
ATOM     28  C   SER B 304      10.054   2.322  33.767  1.00 37.93 LIG 0.24  C 
ATOM     29 O    SER B 304       8.869   1.991  33.809  1.00 38.21 LIG-0.27  OA
ATOM     30  N   ALA B 305      10.718   2.762  34.830  1.00 38.06 LIG-0.35  N 
ATOM     31 H    ALA B 305      11.544   2.999  34.817  1.00 38.06 LIG 0.16  HD
BRANCH 30 32
ATOM     32  CA  ALA B 305      10.076   2.879  36.135  1.00 38.30 LIG 0.16  C 
ATOM     33  CB  ALA B 305      10.114   1.530  36.852  1.00 38.13 LIG 0.04  C 
BRANCH 32 34
ATOM     34  C   ALA B 305      10.751   3.942  36.993  1.00 38.47 LIG 0.22  C 
ATOM     35 O    ALA B 305      11.653   4.632  36.472  1.00 38.58 LIG-0.29  OA
ENDBRANCH 32 34
ENDBRANCH 30 32
ENDBRANCH 24 28
ENDBRANCH 22 24
ENDBRANCH 1 20
TORSDOF 14
ENDMDL
MODEL 110
USER: ADFR SOLUTION from run 195
USER: SCORE 9.144166 LL:  -2.298 LR:  -9.177 RR:   0.000 FEB:  -5.001
USER: RMSD 5.896278
USER: SEED 194
USER: STATUS searching
USER: GENES 16
USER: genes 0 Translation |==|  0.61955 0.62126 0.41326
USER: genes 1 Rotation |==|  0.75034 0.67681 0.10498 0.50574
USER: genes 2 Torsion [CB]-CA--N-[C] |==|  0.52821
USER: genes 3 Torsion [N]-C--CA-[N] |==|  0.53889
USER: genes 4 Torsion [C]-CA--N-[C] |==|  0.74176
USER: genes 5 Torsion [N]-C--CA-[N] |==|  0.54947
USER: genes 6 Torsion [C]-CA--CB-[OG] |==|  0.31597
USER: genes 7 Torsion [CA]-CB--OG-[HG] |==|  0.14465
USER: genes 8 Torsion [N]-CA--CB-[CG1] |==|  0.70410
USER: genes 9 Torsion [N]-CA--C-[N] |==|  0.78639
USER: genes 10 Torsion [C]-N--CA-[CB] |==|  0.51392
USER: genes 11 Torsion [N]-CA--CB-[OG] |==|  0.10292
USER: genes 12 Torsion [CA]-CB--OG-[HG] |==|  0.32670
USER: genes 13 Torsion [N]-CA--C-[N] |==|  0.28506
USER: genes 14 Torsion [C]-N--CA-[C] |==|  0.17592
USER: genes 15 Torsion [N]-CA--C-[O] |==|  0.15989
ROOT
ATOM      1  CA  VAL B 303      15.496   7.091  32.131  1.00 37.13 LIG 0.18  C 
ENDROOT
BRANCH 1 2
ATOM      2  N   VAL B 303      15.504   6.482  33.455  1.00 37.20 LIG-0.35  N 
ATOM      3  C   SER B 302      14.510   5.707  33.875  1.00 37.39 LIG 0.24  C 
ATOM      4 O    SER B 302      13.513   5.465  33.190  1.00 37.76 LIG-0.27  OA
ATOM      5 H    VAL B 303      16.199   6.667  33.926  1.00 37.20 LIG 0.16  HD
BRANCH 3 6
ATOM      6  CA  SER B 302      14.658   5.127  35.278  1.00 37.09 LIG 0.20  C 
BRANCH 6 7
ATOM      7  N   SER B 302      13.697   4.055  35.498  1.00 36.48 LIG-0.34  N 
ATOM      8 H    SER B 302      13.966   3.278  35.245  1.00 36.48 LIG 0.16  HD
ATOM      9  C   ALA B 301      12.508   4.285  36.047  1.00 36.26 LIG 0.26  C 
ATOM     10 O    ALA B 301      12.145   5.404  36.409  1.00 35.88 LIG-0.27  OA
BRANCH 9 11
ATOM     11  CA  ALA B 301      11.593   3.076  36.213  1.00 36.43 LIG 0.40  C 
ATOM     12  CB  ALA B 301      11.683   2.181  34.981  1.00 36.70 LIG 0.06  C 
ATOM     13  N   ALA B 301      10.178   3.502  36.424  1.00 36.51 LIG 0.61  N 
ENDBRANCH 9 11
ENDBRANCH 6 7
BRANCH 6 14
ATOM     14  CB  SER B 302      16.088   4.613  35.470  1.00 37.65 LIG 0.20  C 
BRANCH 14 15
ATOM     15 OG   SER B 302      16.779   5.376  36.442  1.00 38.63 LIG-0.40  OA
ATOM     16 HG   SER B 302      16.321   5.415  37.145  1.00 38.63 LIG 0.21  HD
ENDBRANCH 14 15
ENDBRANCH 6 14
ENDBRANCH 3 6
ENDBRANCH 1 2
BRANCH 1 17
ATOM     17  CB  VAL B 303      16.866   7.732  31.789  1.00 37.28 LIG 0.01  C 
ATOM     18  CG1 VAL B 303      16.764   9.244  31.860  1.00 36.92 LIG 0.01  C 
ATOM     19  CG2 VAL B 303      17.935   7.226  32.747  1.00 37.06 LIG 0.01  C 
ENDBRANCH 1 17
BRANCH 1 20
ATOM     20  C   VAL B 303      15.177   6.032  31.086  1.00 37.27 LIG 0.24  C 
ATOM     21 O    VAL B 303      14.058   5.968  30.574  1.00 36.92 LIG-0.27  OA
ATOM     22  N   SER B 304      16.165   5.206  30.762  1.00 37.37 LIG-0.34  N 
ATOM     23 H    SER B 304      16.955   5.244  31.099  1.00 37.37 LIG 0.16  HD
BRANCH 22 24
ATOM     24  CA  SER B 304      15.977   4.143  29.782  1.00 37.74 LIG 0.20  C 
BRANCH 24 25
ATOM     25  CB  SER B 304      17.232   3.272  29.695  1.00 37.88 LIG 0.20  C 
BRANCH 25 26
ATOM     26 OG   SER B 304      17.824   3.109  30.973  1.00 38.36 LIG-0.40  OA
ATOM     27 HG   SER B 304      17.814   2.296  31.185  1.00 38.36 LIG 0.21  HD
ENDBRANCH 25 26
ENDBRANCH 24 25
BRANCH 24 28
ATOM     28  C   SER B 304      14.779   3.290  30.189  1.00 37.93 LIG 0.24  C 
ATOM     29 O    SER B 304      14.880   2.459  31.092  1.00 38.21 LIG-0.27  OA
ATOM     30  N   ALA B 305      13.648   3.498  29.524  1.00 38.06 LIG-0.35  N 
ATOM     31 H    ALA B 305      13.562   4.073  28.890  1.00 38.06 LIG 0.16  HD
BRANCH 30 32
ATOM     32  CA  ALA B 305      12.435   2.748  29.828  1.00 38.30 LIG 0.16  C 
ATOM     33  CB  ALA B 305      12.696   1.253  29.653  1.00 38.13 LIG 0.04  C 
BRANCH 32 34
ATOM     34  C   ALA B 305      11.950   3.027  31.246  1.00 38.47 LIG 0.22  C 
ATOM     35 O    ALA B 305      11.701   4.210  31.559  1.00 38.58 LIG-0.29  OA
ENDBRANCH 32 34
ENDBRANCH 30 32
ENDBRANCH 24 28
ENDBRANCH 22 24
ENDBRANCH 1 20
TORSDOF 14
ENDMDL
MODEL 111
USER: ADFR SOLUTION from run 116
USER: SCORE 9.205334 LL:  -2.197 LR:  -9.182 RR:   0.000 FEB:  -5.006
USER: RMSD 7.541671
USER: SEED 115
USER: STATUS no improvement in best in 40 clusters for 5 generations
USER: GENES 16
USER: genes 0 Translation |==|  0.75651 0.62827 0.46894
USER: genes 1 Rotation |==|  0.75842 0.60165 0.40577 0.90498
USER: genes 2 Torsion [CB]-CA--N-[C] |==|  0.37552
USER: genes 3 Torsion [N]-C--CA-[N] |==|  0.86932
USER: genes 4 Torsion [C]-CA--N-[C] |==|  0.79782
USER: genes 5 Torsion [N]-C--CA-[N] |==|  0.32979
USER: genes 6 Torsion [C]-CA--CB-[OG] |==|  0.45824
USER: genes 7 Torsion [CA]-CB--OG-[HG] |==|  0.57788
USER: genes 8 Torsion [N]-CA--CB-[CG1] |==|  0.51241
USER: genes 9 Torsion [N]-CA--C-[N] |==|  0.86113
USER: genes 10 Torsion [C]-N--CA-[CB] |==|  0.17438
USER: genes 11 Torsion [N]-CA--CB-[OG] |==|  0.36665
USER: genes 12 Torsion [CA]-CB--OG-[HG] |==|  0.73484
USER: genes 13 Torsion [N]-CA--C-[N] |==|  0.85832
USER: genes 14 Torsion [C]-N--CA-[C] |==|  0.71431
USER: genes 15 Torsion [N]-CA--C-[O] |==|  0.67306
ROOT
ATOM      1  CA  VAL B 303      18.269   7.233  32.966  1.00 37.13 LIG 0.18  C 
ENDROOT
BRANCH 1 2
ATOM      2  N   VAL B 303      17.151   6.637  33.686  1.00 37.20 LIG-0.35  N 
ATOM      3  C   SER B 302      16.663   5.445  33.360  1.00 37.39 LIG 0.24  C 
ATOM      4 O    SER B 302      17.106   4.773  32.424  1.00 37.76 LIG-0.27  OA
ATOM      5 H    VAL B 303      16.844   7.121  34.328  1.00 37.20 LIG 0.16  HD
BRANCH 3 6
ATOM      6  CA  SER B 302      15.499   4.941  34.207  1.00 37.09 LIG 0.20  C 
BRANCH 6 7
ATOM      7  N   SER B 302      15.781   5.113  35.626  1.00 36.48 LIG-0.34  N 
ATOM      8 H    SER B 302      15.333   5.743  36.003  1.00 36.48 LIG 0.16  HD
ATOM      9  C   ALA B 301      16.662   4.345  36.260  1.00 36.26 LIG 0.26  C 
ATOM     10 O    ALA B 301      17.286   3.443  35.702  1.00 35.88 LIG-0.27  OA
BRANCH 9 11
ATOM     11  CA  ALA B 301      16.868   4.636  37.744  1.00 36.43 LIG 0.40  C 
ATOM     12  CB  ALA B 301      18.323   5.017  38.002  1.00 36.70 LIG 0.06  C 
ATOM     13  N   ALA B 301      16.501   3.452  38.576  1.00 36.51 LIG 0.61  N 
ENDBRANCH 9 11
ENDBRANCH 6 7
BRANCH 6 14
ATOM     14  CB  SER B 302      14.222   5.693  33.818  1.00 37.65 LIG 0.20  C 
BRANCH 14 15
ATOM     15 OG   SER B 302      13.072   5.036  34.318  1.00 38.63 LIG-0.40  OA
ATOM     16 HG   SER B 302      12.417   5.199  33.819  1.00 38.63 LIG 0.21  HD
ENDBRANCH 14 15
ENDBRANCH 6 14
ENDBRANCH 3 6
ENDBRANCH 1 2
BRANCH 1 17
ATOM     17  CB  VAL B 303      18.012   8.729  32.649  1.00 37.28 LIG 0.01  C 
ATOM     18  CG1 VAL B 303      19.145   9.284  31.807  1.00 36.92 LIG 0.01  C 
ATOM     19  CG2 VAL B 303      16.683   8.890  31.923  1.00 37.06 LIG 0.01  C 
ENDBRANCH 1 17
BRANCH 1 20
ATOM     20  C   VAL B 303      19.532   7.122  33.808  1.00 37.27 LIG 0.24  C 
ATOM     21 O    VAL B 303      20.576   6.680  33.324  1.00 36.92 LIG-0.27  OA
ATOM     22  N   SER B 304      19.441   7.534  35.067  1.00 37.37 LIG-0.34  N 
ATOM     23 H    SER B 304      18.725   7.857  35.418  1.00 37.37 LIG 0.16  HD
BRANCH 22 24
ATOM     24  CA  SER B 304      20.580   7.466  35.974  1.00 37.74 LIG 0.20  C 
BRANCH 24 25
ATOM     25  CB  SER B 304      21.717   8.357  35.466  1.00 37.88 LIG 0.20  C 
BRANCH 25 26
ATOM     26 OG   SER B 304      22.223   9.173  36.510  1.00 38.36 LIG-0.40  OA
ATOM     27 HG   SER B 304      21.851   9.926  36.483  1.00 38.36 LIG 0.21  HD
ENDBRANCH 25 26
ENDBRANCH 24 25
BRANCH 24 28
ATOM     28  C   SER B 304      20.145   7.919  37.364  1.00 37.93 LIG 0.24  C 
ATOM     29 O    SER B 304      20.389   7.227  38.353  1.00 38.21 LIG-0.27  OA
ATOM     30  N   ALA B 305      19.504   9.081  37.438  1.00 38.06 LIG-0.35  N 
ATOM     31 H    ALA B 305      19.324   9.574  36.757  1.00 38.06 LIG 0.16  HD
BRANCH 30 32
ATOM     32  CA  ALA B 305      19.045   9.619  38.713  1.00 38.30 LIG 0.16  C 
ATOM     33  CB  ALA B 305      19.386  11.106  38.798  1.00 38.13 LIG 0.04  C 
BRANCH 32 34
ATOM     34  C   ALA B 305      17.544   9.419  38.893  1.00 38.47 LIG 0.22  C 
ATOM     35 O    ALA B 305      16.825  10.435  38.996  1.00 38.58 LIG-0.29  OA
ENDBRANCH 32 34
ENDBRANCH 30 32
ENDBRANCH 24 28
ENDBRANCH 22 24
ENDBRANCH 1 20
TORSDOF 14
ENDMDL
MODEL 112
USER: ADFR SOLUTION from run 28
USER: SCORE 10.082912 LL:  -1.861 LR:  -9.177 RR:   0.000 FEB:  -5.001
USER: RMSD 7.921393
USER: SEED 27
USER: STATUS no improvement in best in 28 clusters for 5 generations
USER: GENES 16
USER: genes 0 Translation |==|  0.63456 0.59179 0.47507
USER: genes 1 Rotation |==|  0.34042 0.45474 0.96177 0.59622
USER: genes 2 Torsion [CB]-CA--N-[C] |==|  0.88558
USER: genes 3 Torsion [N]-C--CA-[N] |==|  0.97450
USER: genes 4 Torsion [C]-CA--N-[C] |==|  0.75093
USER: genes 5 Torsion [N]-C--CA-[N] |==|  0.11739
USER: genes 6 Torsion [C]-CA--CB-[OG] |==|  0.64693
USER: genes 7 Torsion [CA]-CB--OG-[HG] |==|  0.12351
USER: genes 8 Torsion [N]-CA--CB-[CG1] |==|  0.36070
USER: genes 9 Torsion [N]-CA--C-[N] |==|  0.85971
USER: genes 10 Torsion [C]-N--CA-[CB] |==|  0.78783
USER: genes 11 Torsion [N]-CA--CB-[OG] |==|  0.08213
USER: genes 12 Torsion [CA]-CB--OG-[HG] |==|  0.19521
USER: genes 13 Torsion [N]-CA--C-[N] |==|  0.15021
USER: genes 14 Torsion [C]-N--CA-[C] |==|  0.14034
USER: genes 15 Torsion [N]-CA--C-[O] |==|  0.11761
ROOT
ATOM      1  CA  VAL B 303      15.800   6.495  33.058  1.00 37.13 LIG 0.18  C 
ENDROOT
BRANCH 1 2
ATOM      2  N   VAL B 303      16.375   6.182  34.360  1.00 37.20 LIG-0.35  N 
ATOM      3  C   SER B 302      17.166   5.129  34.542  1.00 37.39 LIG 0.24  C 
ATOM      4 O    SER B 302      17.452   4.342  33.636  1.00 37.76 LIG-0.27  OA
ATOM      5 H    VAL B 303      16.159   6.731  34.985  1.00 37.20 LIG 0.16  HD
BRANCH 3 6
ATOM      6  CA  SER B 302      17.705   4.930  35.954  1.00 37.09 LIG 0.20  C 
BRANCH 6 7
ATOM      7  N   SER B 302      17.403   6.085  36.790  1.00 36.48 LIG-0.34  N 
ATOM      8 H    SER B 302      16.654   6.034  37.210  1.00 36.48 LIG 0.16  HD
ATOM      9  C   ALA B 301      18.234   7.119  36.879  1.00 36.26 LIG 0.26  C 
ATOM     10 O    ALA B 301      19.305   7.168  36.275  1.00 35.88 LIG-0.27  OA
BRANCH 9 11
ATOM     11  CA  ALA B 301      17.793   8.266  37.782  1.00 36.43 LIG 0.40  C 
ATOM     12  CB  ALA B 301      18.983   9.167  38.098  1.00 36.70 LIG 0.06  C 
ATOM     13  N   ALA B 301      17.201   7.749  39.051  1.00 36.51 LIG 0.61  N 
ENDBRANCH 9 11
ENDBRANCH 6 7
BRANCH 6 14
ATOM     14  CB  SER B 302      17.100   3.659  36.557  1.00 37.65 LIG 0.20  C 
BRANCH 14 15
ATOM     15 OG   SER B 302      16.507   3.923  37.815  1.00 38.63 LIG-0.40  OA
ATOM     16 HG   SER B 302      16.055   4.630  37.770  1.00 38.63 LIG 0.21  HD
ENDBRANCH 14 15
ENDBRANCH 6 14
ENDBRANCH 3 6
ENDBRANCH 1 2
BRANCH 1 17
ATOM     17  CB  VAL B 303      16.826   6.285  31.915  1.00 37.28 LIG 0.01  C 
ATOM     18  CG1 VAL B 303      16.214   5.436  30.817  1.00 36.92 LIG 0.01  C 
ATOM     19  CG2 VAL B 303      17.274   7.630  31.359  1.00 37.06 LIG 0.01  C 
ENDBRANCH 1 17
BRANCH 1 20
ATOM     20  C   VAL B 303      14.597   5.597  32.806  1.00 37.27 LIG 0.24  C 
ATOM     21 O    VAL B 303      13.520   6.074  32.442  1.00 36.92 LIG-0.27  OA
ATOM     22  N   SER B 304      14.783   4.295  32.988  1.00 37.37 LIG-0.34  N 
ATOM     23 H    SER B 304      15.530   3.944  33.229  1.00 37.37 LIG 0.16  HD
BRANCH 22 24
ATOM     24  CA  SER B 304      13.702   3.338  32.788  1.00 37.74 LIG 0.20  C 
BRANCH 24 25
ATOM     25  CB  SER B 304      12.732   3.377  33.971  1.00 37.88 LIG 0.20  C 
BRANCH 25 26
ATOM     26 OG   SER B 304      12.702   4.668  34.557  1.00 38.36 LIG-0.40  OA
ATOM     27 HG   SER B 304      12.321   5.204  34.034  1.00 38.36 LIG 0.21  HD
ENDBRANCH 25 26
ENDBRANCH 24 25
BRANCH 24 28
ATOM     28  C   SER B 304      12.962   3.676  31.497  1.00 37.93 LIG 0.24  C 
ATOM     29 O    SER B 304      11.742   3.846  31.501  1.00 38.21 LIG-0.27  OA
ATOM     30  N   ALA B 305      13.700   3.775  30.397  1.00 38.06 LIG-0.35  N 
ATOM     31 H    ALA B 305      14.552   3.658  30.378  1.00 38.06 LIG 0.16  HD
BRANCH 30 32
ATOM     32  CA  ALA B 305      13.105   4.100  29.106  1.00 38.30 LIG 0.16  C 
ATOM     33  CB  ALA B 305      12.292   2.911  28.599  1.00 38.13 LIG 0.04  C 
BRANCH 32 34
ATOM     34  C   ALA B 305      12.216   5.335  29.199  1.00 38.47 LIG 0.22  C 
ATOM     35 O    ALA B 305      12.627   6.306  29.869  1.00 38.58 LIG-0.29  OA
ENDBRANCH 32 34
ENDBRANCH 30 32
ENDBRANCH 24 28
ENDBRANCH 22 24
ENDBRANCH 1 20
TORSDOF 14
ENDMDL
MODEL 113
USER: ADFR SOLUTION from run 61
USER: SCORE 9.713692 LL:  -2.235 LR:  -9.168 RR:   0.000 FEB:  -4.992
USER: RMSD 7.710724
USER: SEED 60
USER: STATUS no improvement in best in 24 clusters for 5 generations
USER: GENES 16
USER: genes 0 Translation |==|  0.74615 0.71364 0.43048
USER: genes 1 Rotation |==|  0.30229 0.28154 0.71335 0.84303
USER: genes 2 Torsion [CB]-CA--N-[C] |==|  0.86572
USER: genes 3 Torsion [N]-C--CA-[N] |==|  0.84310
USER: genes 4 Torsion [C]-CA--N-[C] |==|  0.74522
USER: genes 5 Torsion [N]-C--CA-[N] |==|  0.41244
USER: genes 6 Torsion [C]-CA--CB-[OG] |==|  0.72435
USER: genes 7 Torsion [CA]-CB--OG-[HG] |==|  0.19242
USER: genes 8 Torsion [N]-CA--CB-[CG1] |==|  0.49340
USER: genes 9 Torsion [N]-CA--C-[N] |==|  0.41256
USER: genes 10 Torsion [C]-N--CA-[CB] |==|  0.26024
USER: genes 11 Torsion [N]-CA--CB-[OG] |==|  0.98440
USER: genes 12 Torsion [CA]-CB--OG-[HG] |==|  0.38586
USER: genes 13 Torsion [N]-CA--C-[N] |==|  0.03915
USER: genes 14 Torsion [C]-N--CA-[C] |==|  0.60827
USER: genes 15 Torsion [N]-CA--C-[O] |==|  0.05085
ROOT
ATOM      1  CA  VAL B 303      18.060   8.962  32.389  1.00 37.13 LIG 0.18  C 
ENDROOT
BRANCH 1 2
ATOM      2  N   VAL B 303      17.173   7.811  32.504  1.00 37.20 LIG-0.35  N 
ATOM      3  C   SER B 302      16.909   7.024  31.466  1.00 37.39 LIG 0.24  C 
ATOM      4 O    SER B 302      17.376   7.220  30.340  1.00 37.76 LIG-0.27  OA
ATOM      5 H    VAL B 303      16.845   7.693  33.290  1.00 37.20 LIG 0.16  HD
BRANCH 3 6
ATOM      6  CA  SER B 302      15.973   5.850  31.734  1.00 37.09 LIG 0.20  C 
BRANCH 6 7
ATOM      7  N   SER B 302      16.489   5.014  32.810  1.00 36.48 LIG-0.34  N 
ATOM      8 H    SER B 302      16.241   5.256  33.597  1.00 36.48 LIG 0.16  HD
ATOM      9  C   ALA B 301      17.275   3.970  32.567  1.00 36.26 LIG 0.26  C 
ATOM     10 O    ALA B 301      17.611   3.637  31.430  1.00 35.88 LIG-0.27  OA
BRANCH 9 11
ATOM     11  CA  ALA B 301      17.752   3.184  33.784  1.00 36.43 LIG 0.40  C 
ATOM     12  CB  ALA B 301      19.068   3.762  34.295  1.00 36.70 LIG 0.06  C 
ATOM     13  N   ALA B 301      17.932   1.740  33.449  1.00 36.51 LIG 0.61  N 
ENDBRANCH 9 11
ENDBRANCH 6 7
BRANCH 6 14
ATOM     14  CB  SER B 302      14.580   6.379  32.086  1.00 37.65 LIG 0.20  C 
BRANCH 14 15
ATOM     15 OG   SER B 302      14.374   6.382  33.487  1.00 38.63 LIG-0.40  OA
ATOM     16 HG   SER B 302      14.862   6.967  33.841  1.00 38.63 LIG 0.21  HD
ENDBRANCH 14 15
ENDBRANCH 6 14
ENDBRANCH 3 6
ENDBRANCH 1 2
BRANCH 1 17
ATOM     17  CB  VAL B 303      19.385   8.593  31.675  1.00 37.28 LIG 0.01  C 
ATOM     18  CG1 VAL B 303      20.254   9.827  31.523  1.00 36.92 LIG 0.01  C 
ATOM     19  CG2 VAL B 303      20.123   7.519  32.461  1.00 37.06 LIG 0.01  C 
ENDBRANCH 1 17
BRANCH 1 20
ATOM     20  C   VAL B 303      17.366  10.060  31.595  1.00 37.27 LIG 0.24  C 
ATOM     21 O    VAL B 303      16.552   9.781  30.713  1.00 36.92 LIG-0.27  OA
ATOM     22  N   SER B 304      17.680  11.310  31.916  1.00 37.37 LIG-0.34  N 
ATOM     23 H    SER B 304      18.236  11.523  32.537  1.00 37.37 LIG 0.16  HD
BRANCH 22 24
ATOM     24  CA  SER B 304      17.089  12.445  31.219  1.00 37.74 LIG 0.20  C 
BRANCH 24 25
ATOM     25  CB  SER B 304      15.851  12.943  31.967  1.00 37.88 LIG 0.20  C 
BRANCH 25 26
ATOM     26 OG   SER B 304      15.542  12.089  33.057  1.00 38.36 LIG-0.40  OA
ATOM     27 HG   SER B 304      15.317  12.553  33.721  1.00 38.36 LIG 0.21  HD
ENDBRANCH 25 26
ENDBRANCH 24 25
BRANCH 24 28
ATOM     28  C   SER B 304      18.121  13.565  31.116  1.00 37.93 LIG 0.24  C 
ATOM     29 O    SER B 304      17.777  14.706  30.804  1.00 38.21 LIG-0.27  OA
ATOM     30  N   ALA B 305      19.381  13.238  31.381  1.00 38.06 LIG-0.35  N 
ATOM     31 H    ALA B 305      19.637  12.447  31.598  1.00 38.06 LIG 0.16  HD
BRANCH 30 32
ATOM     32  CA  ALA B 305      20.453  14.226  31.321  1.00 38.30 LIG 0.16  C 
ATOM     33  CB  ALA B 305      20.739  14.761  32.724  1.00 38.13 LIG 0.04  C 
BRANCH 32 34
ATOM     34  C   ALA B 305      21.723  13.632  30.723  1.00 38.47 LIG 0.22  C 
ATOM     35 O    ALA B 305      21.622  12.578  30.061  1.00 38.58 LIG-0.29  OA
ENDBRANCH 32 34
ENDBRANCH 30 32
ENDBRANCH 24 28
ENDBRANCH 22 24
ENDBRANCH 1 20
TORSDOF 14
ENDMDL
MODEL 114
USER: ADFR SOLUTION from run 170
USER: SCORE 9.866936 LL:  -2.777 LR:  -9.159 RR:   0.000 FEB:  -4.983
USER: RMSD 5.339045
USER: SEED 169
USER: STATUS no improvement in best in 21 clusters for 5 generations
USER: GENES 16
USER: genes 0 Translation |==|  0.58342 0.57582 0.46923
USER: genes 1 Rotation |==|  0.12008 0.18004 0.51575 0.55513
USER: genes 2 Torsion [CB]-CA--N-[C] |==|  0.48889
USER: genes 3 Torsion [N]-C--CA-[N] |==|  0.90042
USER: genes 4 Torsion [C]-CA--N-[C] |==|  0.83441
USER: genes 5 Torsion [N]-C--CA-[N] |==|  0.68381
USER: genes 6 Torsion [C]-CA--CB-[OG] |==|  0.78468
USER: genes 7 Torsion [CA]-CB--OG-[HG] |==|  0.24134
USER: genes 8 Torsion [N]-CA--CB-[CG1] |==|  0.86565
USER: genes 9 Torsion [N]-CA--C-[N] |==|  0.40900
USER: genes 10 Torsion [C]-N--CA-[CB] |==|  0.44657
USER: genes 11 Torsion [N]-CA--CB-[OG] |==|  0.07250
USER: genes 12 Torsion [CA]-CB--OG-[HG] |==|  0.03478
USER: genes 13 Torsion [N]-CA--C-[N] |==|  0.92707
USER: genes 14 Torsion [C]-N--CA-[C] |==|  0.83986
USER: genes 15 Torsion [N]-CA--C-[O] |==|  0.89397
ROOT
ATOM      1  CA  VAL B 303      14.764   6.171  32.970  1.00 37.13 LIG 0.18  C 
ENDROOT
BRANCH 1 2
ATOM      2  N   VAL B 303      14.156   5.057  32.255  1.00 37.20 LIG-0.35  N 
ATOM      3  C   SER B 302      13.618   5.209  31.049  1.00 37.39 LIG 0.24  C 
ATOM      4 O    SER B 302      13.579   6.295  30.464  1.00 37.76 LIG-0.27  OA
ATOM      5 H    VAL B 303      14.179   4.309  32.678  1.00 37.20 LIG 0.16  HD
BRANCH 3 6
ATOM      6  CA  SER B 302      13.027   3.954  30.415  1.00 37.09 LIG 0.20  C 
BRANCH 6 7
ATOM      7  N   SER B 302      13.821   2.781  30.755  1.00 36.48 LIG-0.34  N 
ATOM      8 H    SER B 302      13.388   2.168  31.175  1.00 36.48 LIG 0.16  HD
ATOM      9  C   ALA B 301      15.107   2.690  30.429  1.00 36.26 LIG 0.26  C 
ATOM     10 O    ALA B 301      15.706   3.576  29.820  1.00 35.88 LIG-0.27  OA
BRANCH 9 11
ATOM     11  CA  ALA B 301      15.824   1.412  30.852  1.00 36.43 LIG 0.40  C 
ATOM     12  CB  ALA B 301      14.818   0.410  31.411  1.00 36.70 LIG 0.06  C 
ATOM     13  N   ALA B 301      16.870   1.701  31.877  1.00 36.51 LIG 0.61  N 
ENDBRANCH 9 11
ENDBRANCH 6 7
BRANCH 6 14
ATOM     14  CB  SER B 302      11.580   3.777  30.885  1.00 37.65 LIG 0.20  C 
BRANCH 14 15
ATOM     15 OG   SER B 302      11.531   3.255  32.201  1.00 38.63 LIG-0.40  OA
ATOM     16 HG   SER B 302      11.570   3.886  32.754  1.00 38.63 LIG 0.21  HD
ENDBRANCH 14 15
ENDBRANCH 6 14
ENDBRANCH 3 6
ENDBRANCH 1 2
BRANCH 1 17
ATOM     17  CB  VAL B 303      15.227   5.754  34.390  1.00 37.28 LIG 0.01  C 
ATOM     18  CG1 VAL B 303      14.115   5.004  35.099  1.00 36.92 LIG 0.01  C 
ATOM     19  CG2 VAL B 303      16.476   4.888  34.301  1.00 37.06 LIG 0.01  C 
ENDBRANCH 1 17
BRANCH 1 20
ATOM     20  C   VAL B 303      15.971   6.676  32.192  1.00 37.27 LIG 0.24  C 
ATOM     21 O    VAL B 303      16.657   5.902  31.522  1.00 36.92 LIG-0.27  OA
ATOM     22  N   SER B 304      16.224   7.977  32.273  1.00 37.37 LIG-0.34  N 
ATOM     23 H    SER B 304      15.749   8.534  32.725  1.00 37.37 LIG 0.16  HD
BRANCH 22 24
ATOM     24  CA  SER B 304      17.359   8.575  31.581  1.00 37.74 LIG 0.20  C 
BRANCH 24 25
ATOM     25  CB  SER B 304      17.158  10.086  31.438  1.00 37.88 LIG 0.20  C 
BRANCH 25 26
ATOM     26 OG   SER B 304      16.314  10.582  32.464  1.00 38.36 LIG-0.40  OA
ATOM     27 HG   SER B 304      16.217   9.994  33.056  1.00 38.36 LIG 0.21  HD
ENDBRANCH 25 26
ENDBRANCH 24 25
BRANCH 24 28
ATOM     28  C   SER B 304      18.635   8.291  32.367  1.00 37.93 LIG 0.24  C 
ATOM     29 O    SER B 304      19.726   8.254  31.798  1.00 38.21 LIG-0.27  OA
ATOM     30  N   ALA B 305      18.496   8.092  33.674  1.00 38.06 LIG-0.35  N 
ATOM     31 H    ALA B 305      17.741   8.112  34.085  1.00 38.06 LIG 0.16  HD
BRANCH 30 32
ATOM     32  CA  ALA B 305      19.645   7.819  34.530  1.00 38.30 LIG 0.16  C 
ATOM     33  CB  ALA B 305      19.179   7.625  35.972  1.00 38.13 LIG 0.04  C 
BRANCH 32 34
ATOM     34  C   ALA B 305      20.406   6.584  34.060  1.00 38.47 LIG 0.22  C 
ATOM     35 O    ALA B 305      19.746   5.617  33.626  1.00 38.58 LIG-0.29  OA
ENDBRANCH 32 34
ENDBRANCH 30 32
ENDBRANCH 24 28
ENDBRANCH 22 24
ENDBRANCH 1 20
TORSDOF 14
ENDMDL
MODEL 115
USER: ADFR SOLUTION from run 55
USER: SCORE 9.403218 LL:  -2.112 LR:  -9.157 RR:   0.000 FEB:  -4.981
USER: RMSD 4.365941
USER: SEED 54
USER: STATUS no improvement in best in 13 clusters for 5 generations
USER: GENES 16
USER: genes 0 Translation |==|  0.50694 0.45292 0.40762
USER: genes 1 Rotation |==|  0.54860 0.55523 0.50796 0.99449
USER: genes 2 Torsion [CB]-CA--N-[C] |==|  0.24417
USER: genes 3 Torsion [N]-C--CA-[N] |==|  0.97861
USER: genes 4 Torsion [C]-CA--N-[C] |==|  0.73889
USER: genes 5 Torsion [N]-C--CA-[N] |==|  0.37054
USER: genes 6 Torsion [C]-CA--CB-[OG] |==|  0.57949
USER: genes 7 Torsion [CA]-CB--OG-[HG] |==|  0.52530
USER: genes 8 Torsion [N]-CA--CB-[CG1] |==|  0.11925
USER: genes 9 Torsion [N]-CA--C-[N] |==|  0.33621
USER: genes 10 Torsion [C]-N--CA-[CB] |==|  0.20514
USER: genes 11 Torsion [N]-CA--CB-[OG] |==|  0.87435
USER: genes 12 Torsion [CA]-CB--OG-[HG] |==|  0.49944
USER: genes 13 Torsion [N]-CA--C-[N] |==|  0.80437
USER: genes 14 Torsion [C]-N--CA-[C] |==|  0.53192
USER: genes 15 Torsion [N]-CA--C-[O] |==|  0.95863
ROOT
ATOM      1  CA  VAL B 303      13.216   3.683  32.046  1.00 37.13 LIG 0.18  C 
ENDROOT
BRANCH 1 2
ATOM      2  N   VAL B 303      12.131   3.230  32.909  1.00 37.20 LIG-0.35  N 
ATOM      3  C   SER B 302      11.689   1.977  32.880  1.00 37.39 LIG 0.24  C 
ATOM      4 O    SER B 302      12.148   1.122  32.117  1.00 37.76 LIG-0.27  OA
ATOM      5 H    VAL B 303      11.812   3.838  33.426  1.00 37.20 LIG 0.16  HD
BRANCH 3 6
ATOM      6  CA  SER B 302      10.557   1.642  33.845  1.00 37.09 LIG 0.20  C 
BRANCH 6 7
ATOM      7  N   SER B 302      10.304   2.755  34.751  1.00 36.48 LIG-0.34  N 
ATOM      8 H    SER B 302       9.764   3.349  34.443  1.00 36.48 LIG 0.16  HD
ATOM      9  C   ALA B 301      10.875   2.821  35.950  1.00 36.26 LIG 0.26  C 
ATOM     10 O    ALA B 301      11.639   1.955  36.375  1.00 35.88 LIG-0.27  OA
BRANCH 9 11
ATOM     11  CA  ALA B 301      10.532   4.043  36.796  1.00 36.43 LIG 0.40  C 
ATOM     12  CB  ALA B 301      11.708   5.015  36.809  1.00 36.70 LIG 0.06  C 
ATOM     13  N   ALA B 301      10.191   3.646  38.194  1.00 36.51 LIG 0.61  N 
ENDBRANCH 9 11
ENDBRANCH 6 7
BRANCH 6 14
ATOM     14  CB  SER B 302       9.293   1.301  33.050  1.00 37.65 LIG 0.20  C 
BRANCH 14 15
ATOM     15 OG   SER B 302       8.126   1.617  33.786  1.00 38.63 LIG-0.40  OA
ATOM     16 HG   SER B 302       7.452   1.310  33.390  1.00 38.63 LIG 0.21  HD
ENDBRANCH 14 15
ENDBRANCH 6 14
ENDBRANCH 3 6
ENDBRANCH 1 2
BRANCH 1 17
ATOM     17  CB  VAL B 303      12.687   4.173  30.674  1.00 37.28 LIG 0.01  C 
ATOM     18  CG1 VAL B 303      11.442   5.017  30.868  1.00 36.92 LIG 0.01  C 
ATOM     19  CG2 VAL B 303      13.763   4.973  29.953  1.00 37.06 LIG 0.01  C 
ENDBRANCH 1 17
BRANCH 1 20
ATOM     20  C   VAL B 303      13.957   4.828  32.722  1.00 37.27 LIG 0.24  C 
ATOM     21 O    VAL B 303      13.363   5.859  33.044  1.00 36.92 LIG-0.27  OA
ATOM     22  N   SER B 304      15.253   4.643  32.944  1.00 37.37 LIG-0.34  N 
ATOM     23 H    SER B 304      15.680   3.926  32.737  1.00 37.37 LIG 0.16  HD
BRANCH 22 24
ATOM     24  CA  SER B 304      16.070   5.673  33.574  1.00 37.74 LIG 0.20  C 
BRANCH 24 25
ATOM     25  CB  SER B 304      15.760   5.757  35.070  1.00 37.88 LIG 0.20  C 
BRANCH 25 26
ATOM     26 OG   SER B 304      14.360   5.739  35.297  1.00 38.36 LIG-0.40  OA
ATOM     27 HG   SER B 304      14.209   5.783  36.122  1.00 38.36 LIG 0.21  HD
ENDBRANCH 25 26
ENDBRANCH 24 25
BRANCH 24 28
ATOM     28  C   SER B 304      17.545   5.342  33.365  1.00 37.93 LIG 0.24  C 
ATOM     29 O    SER B 304      18.238   6.023  32.609  1.00 38.21 LIG-0.27  OA
ATOM     30  N   ALA B 305      18.021   4.299  34.037  1.00 38.06 LIG-0.35  N 
ATOM     31 H    ALA B 305      17.549   3.813  34.567  1.00 38.06 LIG 0.16  HD
BRANCH 30 32
ATOM     32  CA  ALA B 305      19.416   3.892  33.924  1.00 38.30 LIG 0.16  C 
ATOM     33  CB  ALA B 305      20.314   4.933  34.590  1.00 38.13 LIG 0.04  C 
BRANCH 32 34
ATOM     34  C   ALA B 305      19.649   2.524  34.556  1.00 38.47 LIG 0.22  C 
ATOM     35 O    ALA B 305      18.764   2.068  35.310  1.00 38.58 LIG-0.29  OA
ENDBRANCH 32 34
ENDBRANCH 30 32
ENDBRANCH 24 28
ENDBRANCH 22 24
ENDBRANCH 1 20
TORSDOF 14
ENDMDL
MODEL 116
USER: ADFR SOLUTION from run 8
USER: SCORE 9.443475 LL:  -1.269 LR:  -9.148 RR:   0.000 FEB:  -4.972
USER: RMSD 8.431945
USER: SEED 674008
USER: STATUS no improvement in best in 25 clusters for 5 generations
USER: GENES 16
USER: genes 0 Translation |==|  0.48693 0.47844 0.33720
USER: genes 1 Rotation |==|  0.43911 0.62907 0.09133 0.75024
USER: genes 2 Torsion [CB]-CA--N-[C] |==|  0.83699
USER: genes 3 Torsion [N]-C--CA-[N] |==|  0.21745
USER: genes 4 Torsion [C]-CA--N-[C] |==|  0.77778
USER: genes 5 Torsion [N]-C--CA-[N] |==|  0.23410
USER: genes 6 Torsion [C]-CA--CB-[OG] |==|  0.46892
USER: genes 7 Torsion [CA]-CB--OG-[HG] |==|  0.04419
USER: genes 8 Torsion [N]-CA--CB-[CG1] |==|  0.92529
USER: genes 9 Torsion [N]-CA--C-[N] |==|  0.41450
USER: genes 10 Torsion [C]-N--CA-[CB] |==|  0.18334
USER: genes 11 Torsion [N]-CA--CB-[OG] |==|  0.54206
USER: genes 12 Torsion [CA]-CB--OG-[HG] |==|  0.23851
USER: genes 13 Torsion [N]-CA--C-[N] |==|  0.85946
USER: genes 14 Torsion [C]-N--CA-[C] |==|  0.59505
USER: genes 15 Torsion [N]-CA--C-[O] |==|  0.94869
ROOT
ATOM      1  CA  VAL B 303      12.810   4.199  30.990  1.00 37.13 LIG 0.18  C 
ENDROOT
BRANCH 1 2
ATOM      2  N   VAL B 303      13.512   5.211  31.770  1.00 37.20 LIG-0.35  N 
ATOM      3  C   SER B 302      14.620   5.795  31.324  1.00 37.39 LIG 0.24  C 
ATOM      4 O    SER B 302      15.137   5.513  30.240  1.00 37.76 LIG-0.27  OA
ATOM      5 H    VAL B 303      13.149   5.390  32.528  1.00 37.20 LIG 0.16  HD
BRANCH 3 6
ATOM      6  CA  SER B 302      15.241   6.844  32.241  1.00 37.09 LIG 0.20  C 
BRANCH 6 7
ATOM      7  N   SER B 302      15.985   6.209  33.322  1.00 36.48 LIG-0.34  N 
ATOM      8 H    SER B 302      16.836   6.181  33.199  1.00 36.48 LIG 0.16  HD
ATOM      9  C   ALA B 301      15.374   5.723  34.397  1.00 36.26 LIG 0.26  C 
ATOM     10 O    ALA B 301      14.154   5.781  34.557  1.00 35.88 LIG-0.27  OA
BRANCH 9 11
ATOM     11  CA  ALA B 301      16.269   5.077  35.451  1.00 36.43 LIG 0.40  C 
ATOM     12  CB  ALA B 301      15.475   4.047  36.249  1.00 36.70 LIG 0.06  C 
ATOM     13  N   ALA B 301      16.833   6.105  36.374  1.00 36.51 LIG 0.61  N 
ENDBRANCH 9 11
ENDBRANCH 6 7
BRANCH 6 14
ATOM     14  CB  SER B 302      16.159   7.757  31.423  1.00 37.65 LIG 0.20  C 
BRANCH 14 15
ATOM     15 OG   SER B 302      16.553   8.890  32.175  1.00 38.63 LIG-0.40  OA
ATOM     16 HG   SER B 302      16.397   8.755  32.989  1.00 38.63 LIG 0.21  HD
ENDBRANCH 14 15
ENDBRANCH 6 14
ENDBRANCH 3 6
ENDBRANCH 1 2
BRANCH 1 17
ATOM     17  CB  VAL B 303      12.369   4.748  29.609  1.00 37.28 LIG 0.01  C 
ATOM     18  CG1 VAL B 303      12.176   6.251  29.684  1.00 36.92 LIG 0.01  C 
ATOM     19  CG2 VAL B 303      13.406   4.399  28.550  1.00 37.06 LIG 0.01  C 
ENDBRANCH 1 17
BRANCH 1 20
ATOM     20  C   VAL B 303      13.725   3.003  30.771  1.00 37.27 LIG 0.24  C 
ATOM     21 O    VAL B 303      14.947   3.148  30.702  1.00 36.92 LIG-0.27  OA
ATOM     22  N   SER B 304      13.134   1.818  30.672  1.00 37.37 LIG-0.34  N 
ATOM     23 H    SER B 304      12.285   1.696  30.730  1.00 37.37 LIG 0.16  HD
BRANCH 22 24
ATOM     24  CA  SER B 304      13.905   0.601  30.449  1.00 37.74 LIG 0.20  C 
BRANCH 24 25
ATOM     25  CB  SER B 304      14.792   0.305  31.661  1.00 37.88 LIG 0.20  C 
BRANCH 25 26
ATOM     26 OG   SER B 304      15.786  -0.654  31.337  1.00 38.36 LIG-0.40  OA
ATOM     27 HG   SER B 304      16.452  -0.265  31.003  1.00 38.36 LIG 0.21  HD
ENDBRANCH 25 26
ENDBRANCH 24 25
BRANCH 24 28
ATOM     28  C   SER B 304      12.948  -0.563  30.208  1.00 37.93 LIG 0.24  C 
ATOM     29 O    SER B 304      13.095  -1.302  29.233  1.00 38.21 LIG-0.27  OA
ATOM     30  N   ALA B 305      11.972  -0.725  31.095  1.00 38.06 LIG-0.35  N 
ATOM     31 H    ALA B 305      11.855  -0.217  31.778  1.00 38.06 LIG 0.16  HD
BRANCH 30 32
ATOM     32  CA  ALA B 305      11.002  -1.807  30.971  1.00 38.30 LIG 0.16  C 
ATOM     33  CB  ALA B 305      11.484  -3.025  31.757  1.00 38.13 LIG 0.04  C 
BRANCH 32 34
ATOM     34  C   ALA B 305       9.626  -1.379  31.470  1.00 38.47 LIG 0.22  C 
ATOM     35 O    ALA B 305       9.557  -0.377  32.213  1.00 38.58 LIG-0.29  OA
ENDBRANCH 32 34
ENDBRANCH 30 32
ENDBRANCH 24 28
ENDBRANCH 22 24
ENDBRANCH 1 20
TORSDOF 14
ENDMDL
MODEL 117
USER: ADFR SOLUTION from run 187
USER: SCORE 10.328079 LL:  -2.145 LR:  -9.153 RR:   0.000 FEB:  -4.977
USER: RMSD 4.252474
USER: SEED 186
USER: STATUS no improvement in best in 28 clusters for 5 generations
USER: GENES 16
USER: genes 0 Translation |==|  0.56229 0.51541 0.32641
USER: genes 1 Rotation |==|  0.62540 0.69293 0.56428 0.93923
USER: genes 2 Torsion [CB]-CA--N-[C] |==|  0.78744
USER: genes 3 Torsion [N]-C--CA-[N] |==|  0.10669
USER: genes 4 Torsion [C]-CA--N-[C] |==|  0.14664
USER: genes 5 Torsion [N]-C--CA-[N] |==|  0.34819
USER: genes 6 Torsion [C]-CA--CB-[OG] |==|  0.14628
USER: genes 7 Torsion [CA]-CB--OG-[HG] |==|  0.00638
USER: genes 8 Torsion [N]-CA--CB-[CG1] |==|  0.65859
USER: genes 9 Torsion [N]-CA--C-[N] |==|  0.15952
USER: genes 10 Torsion [C]-N--CA-[CB] |==|  0.53889
USER: genes 11 Torsion [N]-CA--CB-[OG] |==|  0.94230
USER: genes 12 Torsion [CA]-CB--OG-[HG] |==|  0.93910
USER: genes 13 Torsion [N]-CA--C-[N] |==|  0.35106
USER: genes 14 Torsion [C]-N--CA-[C] |==|  0.53055
USER: genes 15 Torsion [N]-CA--C-[O] |==|  0.75568
ROOT
ATOM      1  CA  VAL B 303      14.336   4.948  30.828  1.00 37.13 LIG 0.18  C 
ENDROOT
BRANCH 1 2
ATOM      2  N   VAL B 303      13.995   3.966  31.849  1.00 37.20 LIG-0.35  N 
ATOM      3  C   SER B 302      13.576   4.328  33.057  1.00 37.39 LIG 0.24  C 
ATOM      4 O    SER B 302      13.466   5.507  33.403  1.00 37.76 LIG-0.27  OA
ATOM      5 H    VAL B 303      14.087   3.148  31.600  1.00 37.20 LIG 0.16  HD
BRANCH 3 6
ATOM      6  CA  SER B 302      13.244   3.193  34.021  1.00 37.09 LIG 0.20  C 
BRANCH 6 7
ATOM      7  N   SER B 302      14.191   2.096  33.873  1.00 36.48 LIG-0.34  N 
ATOM      8 H    SER B 302      13.827   1.328  33.743  1.00 36.48 LIG 0.16  HD
ATOM      9  C   ALA B 301      15.504   2.294  33.938  1.00 36.26 LIG 0.26  C 
ATOM     10 O    ALA B 301      16.004   3.405  34.118  1.00 35.88 LIG-0.27  OA
BRANCH 9 11
ATOM     11  CA  ALA B 301      16.384   1.059  33.776  1.00 36.43 LIG 0.40  C 
ATOM     12  CB  ALA B 301      17.108   0.759  35.085  1.00 36.70 LIG 0.06  C 
ATOM     13  N   ALA B 301      17.381   1.254  32.682  1.00 36.51 LIG 0.61  N 
ENDBRANCH 9 11
ENDBRANCH 6 7
BRANCH 6 14
ATOM     14  CB  SER B 302      13.257   3.724  35.458  1.00 37.65 LIG 0.20  C 
BRANCH 14 15
ATOM     15 OG   SER B 302      12.428   4.864  35.588  1.00 38.63 LIG-0.40  OA
ATOM     16 HG   SER B 302      12.053   5.024  34.853  1.00 38.63 LIG 0.21  HD
ENDBRANCH 14 15
ENDBRANCH 6 14
ENDBRANCH 3 6
ENDBRANCH 1 2
BRANCH 1 17
ATOM     17  CB  VAL B 303      13.069   5.569  30.186  1.00 37.28 LIG 0.01  C 
ATOM     18  CG1 VAL B 303      13.088   5.354  28.685  1.00 36.92 LIG 0.01  C 
ATOM     19  CG2 VAL B 303      11.817   4.951  30.794  1.00 37.06 LIG 0.01  C 
ENDBRANCH 1 17
BRANCH 1 20
ATOM     20  C   VAL B 303      15.164   6.063  31.453  1.00 37.27 LIG 0.24  C 
ATOM     21 O    VAL B 303      14.786   7.234  31.397  1.00 36.92 LIG-0.27  OA
ATOM     22  N   SER B 304      16.288   5.696  32.057  1.00 37.37 LIG-0.34  N 
ATOM     23 H    SER B 304      16.560   4.882  32.116  1.00 37.37 LIG 0.16  HD
BRANCH 22 24
ATOM     24  CA  SER B 304      17.169   6.675  32.682  1.00 37.74 LIG 0.20  C 
BRANCH 24 25
ATOM     25  CB  SER B 304      18.530   6.046  32.988  1.00 37.88 LIG 0.20  C 
BRANCH 25 26
ATOM     26 OG   SER B 304      18.433   4.632  33.039  1.00 38.36 LIG-0.40  OA
ATOM     27 HG   SER B 304      17.637   4.411  33.191  1.00 38.36 LIG 0.21  HD
ENDBRANCH 25 26
ENDBRANCH 24 25
BRANCH 24 28
ATOM     28  C   SER B 304      17.345   7.865  31.743  1.00 37.93 LIG 0.24  C 
ATOM     29 O    SER B 304      17.714   7.696  30.580  1.00 38.21 LIG-0.27  OA
ATOM     30  N   ALA B 305      17.079   9.065  32.247  1.00 38.06 LIG-0.35  N 
ATOM     31 H    ALA B 305      16.823   9.200  33.057  1.00 38.06 LIG 0.16  HD
BRANCH 30 32
ATOM     32  CA  ALA B 305      17.206  10.275  31.444  1.00 38.30 LIG 0.16  C 
ATOM     33  CB  ALA B 305      16.117  10.298  30.372  1.00 38.13 LIG 0.04  C 
BRANCH 32 34
ATOM     34  C   ALA B 305      17.111  11.528  32.307  1.00 38.47 LIG 0.22  C 
ATOM     35 O    ALA B 305      15.978  12.005  32.526  1.00 38.58 LIG-0.29  OA
ENDBRANCH 32 34
ENDBRANCH 30 32
ENDBRANCH 24 28
ENDBRANCH 22 24
ENDBRANCH 1 20
TORSDOF 14
ENDMDL
MODEL 118
USER: ADFR SOLUTION from run 129
USER: SCORE 9.757900 LL:  -1.732 LR:  -9.147 RR:   0.000 FEB:  -4.971
USER: RMSD 4.051570
USER: SEED 128
USER: STATUS no improvement in best in 29 clusters for 5 generations
USER: GENES 16
USER: genes 0 Translation |==|  0.59486 0.51828 0.34607
USER: genes 1 Rotation |==|  0.58386 0.61716 0.61198 0.96551
USER: genes 2 Torsion [CB]-CA--N-[C] |==|  0.82395
USER: genes 3 Torsion [N]-C--CA-[N] |==|  0.43016
USER: genes 4 Torsion [C]-CA--N-[C] |==|  0.81177
USER: genes 5 Torsion [N]-C--CA-[N] |==|  0.99188
USER: genes 6 Torsion [C]-CA--CB-[OG] |==|  0.70346
USER: genes 7 Torsion [CA]-CB--OG-[HG] |==|  0.11434
USER: genes 8 Torsion [N]-CA--CB-[CG1] |==|  0.91680
USER: genes 9 Torsion [N]-CA--C-[N] |==|  0.47138
USER: genes 10 Torsion [C]-N--CA-[CB] |==|  0.24172
USER: genes 11 Torsion [N]-CA--CB-[OG] |==|  0.78851
USER: genes 12 Torsion [CA]-CB--OG-[HG] |==|  0.01122
USER: genes 13 Torsion [N]-CA--C-[N] |==|  0.84318
USER: genes 14 Torsion [C]-N--CA-[C] |==|  0.51323
USER: genes 15 Torsion [N]-CA--C-[O] |==|  0.02351
ROOT
ATOM      1  CA  VAL B 303      14.996   5.006  31.123  1.00 37.13 LIG 0.18  C 
ENDROOT
BRANCH 1 2
ATOM      2  N   VAL B 303      14.427   4.017  32.029  1.00 37.20 LIG-0.35  N 
ATOM      3  C   SER B 302      13.370   4.287  32.788  1.00 37.39 LIG 0.24  C 
ATOM      4 O    SER B 302      12.813   5.388  32.793  1.00 37.76 LIG-0.27  OA
ATOM      5 H    VAL B 303      14.832   3.258  32.025  1.00 37.20 LIG 0.16  HD
BRANCH 3 6
ATOM      6  CA  SER B 302      12.876   3.153  33.680  1.00 37.09 LIG 0.20  C 
BRANCH 6 7
ATOM      7  N   SER B 302      12.163   3.679  34.837  1.00 36.48 LIG-0.34  N 
ATOM      8 H    SER B 302      11.320   3.509  34.843  1.00 36.48 LIG 0.16  HD
ATOM      9  C   ALA B 301      12.788   4.363  35.790  1.00 36.26 LIG 0.26  C 
ATOM     10 O    ALA B 301      13.998   4.589  35.766  1.00 35.88 LIG-0.27  OA
BRANCH 9 11
ATOM     11  CA  ALA B 301      11.923   4.865  36.942  1.00 36.43 LIG 0.40  C 
ATOM     12  CB  ALA B 301      12.396   4.250  38.256  1.00 36.70 LIG 0.06  C 
ATOM     13  N   ALA B 301      10.486   4.529  36.716  1.00 36.51 LIG 0.61  N 
ENDBRANCH 9 11
ENDBRANCH 6 7
BRANCH 6 14
ATOM     14  CB  SER B 302      11.969   2.224  32.868  1.00 37.65 LIG 0.20  C 
BRANCH 14 15
ATOM     15 OG   SER B 302      10.611   2.391  33.232  1.00 38.63 LIG-0.40  OA
ATOM     16 HG   SER B 302      10.447   3.208  33.338  1.00 38.63 LIG 0.21  HD
ENDBRANCH 14 15
ENDBRANCH 6 14
ENDBRANCH 3 6
ENDBRANCH 1 2
BRANCH 1 17
ATOM     17  CB  VAL B 303      13.990   5.409  30.014  1.00 37.28 LIG 0.01  C 
ATOM     18  CG1 VAL B 303      13.066   4.246  29.704  1.00 36.92 LIG 0.01  C 
ATOM     19  CG2 VAL B 303      13.185   6.624  30.452  1.00 37.06 LIG 0.01  C 
ENDBRANCH 1 17
BRANCH 1 20
ATOM     20  C   VAL B 303      15.381   6.252  31.909  1.00 37.27 LIG 0.24  C 
ATOM     21 O    VAL B 303      15.038   6.386  33.085  1.00 36.92 LIG-0.27  OA
ATOM     22  N   SER B 304      16.104   7.158  31.262  1.00 37.37 LIG-0.34  N 
ATOM     23 H    SER B 304      16.363   7.075  30.446  1.00 37.37 LIG 0.16  HD
BRANCH 22 24
ATOM     24  CA  SER B 304      16.523   8.397  31.906  1.00 37.74 LIG 0.20  C 
BRANCH 24 25
ATOM     25  CB  SER B 304      17.844   8.188  32.650  1.00 37.88 LIG 0.20  C 
BRANCH 25 26
ATOM     26 OG   SER B 304      17.633   7.484  33.864  1.00 38.36 LIG-0.40  OA
ATOM     27 HG   SER B 304      16.825   7.263  33.923  1.00 38.36 LIG 0.21  HD
ENDBRANCH 25 26
ENDBRANCH 24 25
BRANCH 24 28
ATOM     28  C   SER B 304      16.689   9.483  30.847  1.00 37.93 LIG 0.24  C 
ATOM     29 O    SER B 304      16.067  10.543  30.936  1.00 38.21 LIG-0.27  OA
ATOM     30  N   ALA B 305      17.526   9.220  29.850  1.00 38.06 LIG-0.35  N 
ATOM     31 H    ALA B 305      17.965   8.484  29.773  1.00 38.06 LIG 0.16  HD
BRANCH 30 32
ATOM     32  CA  ALA B 305      17.770  10.184  28.784  1.00 38.30 LIG 0.16  C 
ATOM     33  CB  ALA B 305      18.401  11.448  29.366  1.00 38.13 LIG 0.04  C 
BRANCH 32 34
ATOM     34  C   ALA B 305      18.675   9.602  27.704  1.00 38.47 LIG 0.22  C 
ATOM     35 O    ALA B 305      18.952   8.386  27.763  1.00 38.58 LIG-0.29  OA
ENDBRANCH 32 34
ENDBRANCH 30 32
ENDBRANCH 24 28
ENDBRANCH 22 24
ENDBRANCH 1 20
TORSDOF 14
ENDMDL
MODEL 119
USER: ADFR SOLUTION from run 31
USER: SCORE 9.628575 LL:  -2.075 LR:  -9.151 RR:   0.000 FEB:  -4.975
USER: RMSD 4.903257
USER: SEED 30
USER: STATUS no improvement in best in 26 clusters for 5 generations
USER: GENES 16
USER: genes 0 Translation |==|  0.53122 0.51752 0.31537
USER: genes 1 Rotation |==|  0.72837 0.77401 0.65973 0.81185
USER: genes 2 Torsion [CB]-CA--N-[C] |==|  0.21141
USER: genes 3 Torsion [N]-C--CA-[N] |==|  0.99627
USER: genes 4 Torsion [C]-CA--N-[C] |==|  0.78649
USER: genes 5 Torsion [N]-C--CA-[N] |==|  0.24964
USER: genes 6 Torsion [C]-CA--CB-[OG] |==|  0.32414
USER: genes 7 Torsion [CA]-CB--OG-[HG] |==|  0.55995
USER: genes 8 Torsion [N]-CA--CB-[CG1] |==|  0.67323
USER: genes 9 Torsion [N]-CA--C-[N] |==|  0.93532
USER: genes 10 Torsion [C]-N--CA-[CB] |==|  0.51667
USER: genes 11 Torsion [N]-CA--CB-[OG] |==|  0.78518
USER: genes 12 Torsion [CA]-CB--OG-[HG] |==|  0.79243
USER: genes 13 Torsion [N]-CA--C-[N] |==|  0.29039
USER: genes 14 Torsion [C]-N--CA-[C] |==|  0.52207
USER: genes 15 Torsion [N]-CA--C-[O] |==|  0.91513
ROOT
ATOM      1  CA  VAL B 303      13.707   4.991  30.663  1.00 37.13 LIG 0.18  C 
ENDROOT
BRANCH 1 2
ATOM      2  N   VAL B 303      14.087   3.605  30.904  1.00 37.20 LIG-0.35  N 
ATOM      3  C   SER B 302      13.765   2.632  30.057  1.00 37.39 LIG 0.24  C 
ATOM      4 O    SER B 302      13.115   2.829  29.027  1.00 37.76 LIG-0.27  OA
ATOM      5 H    VAL B 303      14.529   3.479  31.631  1.00 37.20 LIG 0.16  HD
BRANCH 3 6
ATOM      6  CA  SER B 302      14.237   1.232  30.432  1.00 37.09 LIG 0.20  C 
BRANCH 6 7
ATOM      7  N   SER B 302      14.998   1.258  31.674  1.00 36.48 LIG-0.34  N 
ATOM      8 H    SER B 302      14.565   0.978  32.362  1.00 36.48 LIG 0.16  HD
ATOM      9  C   ALA B 301      16.256   1.685  31.712  1.00 36.26 LIG 0.26  C 
ATOM     10 O    ALA B 301      16.860   2.075  30.713  1.00 35.88 LIG-0.27  OA
BRANCH 9 11
ATOM     11  CA  ALA B 301      16.936   1.669  33.078  1.00 36.43 LIG 0.40  C 
ATOM     12  CB  ALA B 301      17.950   2.806  33.169  1.00 36.70 LIG 0.06  C 
ATOM     13  N   ALA B 301      17.619   0.364  33.319  1.00 36.51 LIG 0.61  N 
ENDBRANCH 9 11
ENDBRANCH 6 7
BRANCH 6 14
ATOM     14  CB  SER B 302      13.025   0.303  30.565  1.00 37.65 LIG 0.20  C 
BRANCH 14 15
ATOM     15 OG   SER B 302      13.069  -0.734  29.602  1.00 38.63 LIG-0.40  OA
ATOM     16 HG   SER B 302      12.296  -1.042  29.487  1.00 38.63 LIG 0.21  HD
ENDBRANCH 14 15
ENDBRANCH 6 14
ENDBRANCH 3 6
ENDBRANCH 1 2
BRANCH 1 17
ATOM     17  CB  VAL B 303      12.206   5.233  30.965  1.00 37.28 LIG 0.01  C 
ATOM     18  CG1 VAL B 303      11.484   5.663  29.702  1.00 36.92 LIG 0.01  C 
ATOM     19  CG2 VAL B 303      11.575   3.968  31.532  1.00 37.06 LIG 0.01  C 
ENDBRANCH 1 17
BRANCH 1 20
ATOM     20  C   VAL B 303      14.539   5.907  31.550  1.00 37.27 LIG 0.24  C 
ATOM     21 O    VAL B 303      14.709   7.090  31.250  1.00 36.92 LIG-0.27  OA
ATOM     22  N   SER B 304      15.047   5.362  32.649  1.00 37.37 LIG-0.34  N 
ATOM     23 H    SER B 304      14.928   4.542  32.880  1.00 37.37 LIG 0.16  HD
BRANCH 22 24
ATOM     24  CA  SER B 304      15.870   6.136  33.570  1.00 37.74 LIG 0.20  C 
BRANCH 24 25
ATOM     25  CB  SER B 304      16.442   5.229  34.662  1.00 37.88 LIG 0.20  C 
BRANCH 25 26
ATOM     26 OG   SER B 304      15.457   4.931  35.638  1.00 38.36 LIG-0.40  OA
ATOM     27 HG   SER B 304      15.334   5.604  36.127  1.00 38.36 LIG 0.21  HD
ENDBRANCH 25 26
ENDBRANCH 24 25
BRANCH 24 28
ATOM     28  C   SER B 304      17.006   6.798  32.795  1.00 37.93 LIG 0.24  C 
ATOM     29 O    SER B 304      17.972   6.137  32.414  1.00 38.21 LIG-0.27  OA
ATOM     30  N   ALA B 305      16.886   8.101  32.563  1.00 38.06 LIG-0.35  N 
ATOM     31 H    ALA B 305      16.220   8.577  32.824  1.00 38.06 LIG 0.16  HD
BRANCH 30 32
ATOM     32  CA  ALA B 305      17.906   8.841  31.828  1.00 38.30 LIG 0.16  C 
ATOM     33  CB  ALA B 305      17.953   8.353  30.380  1.00 38.13 LIG 0.04  C 
BRANCH 32 34
ATOM     34  C   ALA B 305      17.637  10.341  31.862  1.00 38.47 LIG 0.22  C 
ATOM     35 O    ALA B 305      16.450  10.723  31.930  1.00 38.58 LIG-0.29  OA
ENDBRANCH 32 34
ENDBRANCH 30 32
ENDBRANCH 24 28
ENDBRANCH 22 24
ENDBRANCH 1 20
TORSDOF 14
ENDMDL
MODEL 120
USER: ADFR SOLUTION from run 198
USER: SCORE 8.918508 LL:  -2.461 LR:  -9.138 RR:   0.000 FEB:  -4.962
USER: RMSD 7.903503
USER: SEED 197
USER: STATUS no improvement in best in 33 clusters for 5 generations
USER: GENES 16
USER: genes 0 Translation |==|  0.62967 0.62261 0.41147
USER: genes 1 Rotation |==|  0.66913 0.73020 0.08964 0.50234
USER: genes 2 Torsion [CB]-CA--N-[C] |==|  0.45246
USER: genes 3 Torsion [N]-C--CA-[N] |==|  0.17840
USER: genes 4 Torsion [C]-CA--N-[C] |==|  0.76667
USER: genes 5 Torsion [N]-C--CA-[N] |==|  0.60552
USER: genes 6 Torsion [C]-CA--CB-[OG] |==|  0.55568
USER: genes 7 Torsion [CA]-CB--OG-[HG] |==|  0.18892
USER: genes 8 Torsion [N]-CA--CB-[CG1] |==|  0.61629
USER: genes 9 Torsion [N]-CA--C-[N] |==|  0.86732
USER: genes 10 Torsion [C]-N--CA-[CB] |==|  0.52341
USER: genes 11 Torsion [N]-CA--CB-[OG] |==|  0.04711
USER: genes 12 Torsion [CA]-CB--OG-[HG] |==|  0.36467
USER: genes 13 Torsion [N]-CA--C-[N] |==|  0.83254
USER: genes 14 Torsion [C]-N--CA-[C] |==|  0.16049
USER: genes 15 Torsion [N]-CA--C-[O] |==|  0.15480
ROOT
ATOM      1  CA  VAL B 303      15.701   7.119  32.104  1.00 37.13 LIG 0.18  C 
ENDROOT
BRANCH 1 2
ATOM      2  N   VAL B 303      16.224   6.378  33.244  1.00 37.20 LIG-0.35  N 
ATOM      3  C   SER B 302      15.424   5.750  34.100  1.00 37.39 LIG 0.24  C 
ATOM      4 O    SER B 302      14.194   5.765  34.000  1.00 37.76 LIG-0.27  OA
ATOM      5 H    VAL B 303      17.082   6.385  33.309  1.00 37.20 LIG 0.16  HD
BRANCH 3 6
ATOM      6  CA  SER B 302      16.111   5.005  35.239  1.00 37.09 LIG 0.20  C 
BRANCH 6 7
ATOM      7  N   SER B 302      16.819   5.934  36.111  1.00 36.48 LIG-0.34  N 
ATOM      8 H    SER B 302      16.376   6.176  36.807  1.00 36.48 LIG 0.16  HD
ATOM      9  C   ALA B 301      18.048   6.355  35.829  1.00 36.26 LIG 0.26  C 
ATOM     10 O    ALA B 301      18.667   5.990  34.829  1.00 35.88 LIG-0.27  OA
BRANCH 9 11
ATOM     11  CA  ALA B 301      18.672   7.333  36.819  1.00 36.43 LIG 0.40  C 
ATOM     12  CB  ALA B 301      17.581   8.001  37.650  1.00 36.70 LIG 0.06  C 
ATOM     13  N   ALA B 301      19.474   8.373  36.110  1.00 36.51 LIG 0.61  N 
ENDBRANCH 9 11
ENDBRANCH 6 7
BRANCH 6 14
ATOM     14  CB  SER B 302      15.067   4.215  36.034  1.00 37.65 LIG 0.20  C 
BRANCH 14 15
ATOM     15 OG   SER B 302      15.547   3.892  37.327  1.00 38.63 LIG-0.40  OA
ATOM     16 HG   SER B 302      15.620   4.593  37.782  1.00 38.63 LIG 0.21  HD
ENDBRANCH 14 15
ENDBRANCH 6 14
ENDBRANCH 3 6
ENDBRANCH 1 2
BRANCH 1 17
ATOM     17  CB  VAL B 303      16.759   8.091  31.520  1.00 37.28 LIG 0.01  C 
ATOM     18  CG1 VAL B 303      16.110   9.418  31.175  1.00 36.92 LIG 0.01  C 
ATOM     19  CG2 VAL B 303      17.889   8.297  32.520  1.00 37.06 LIG 0.01  C 
ENDBRANCH 1 17
BRANCH 1 20
ATOM     20  C   VAL B 303      15.280   6.143  31.014  1.00 37.27 LIG 0.24  C 
ATOM     21 O    VAL B 303      14.187   6.257  30.455  1.00 36.92 LIG-0.27  OA
ATOM     22  N   SER B 304      16.151   5.190  30.706  1.00 37.37 LIG-0.34  N 
ATOM     23 H    SER B 304      16.923   5.104  31.077  1.00 37.37 LIG 0.16  HD
BRANCH 22 24
ATOM     24  CA  SER B 304      15.856   4.191  29.686  1.00 37.74 LIG 0.20  C 
BRANCH 24 25
ATOM     25  CB  SER B 304      16.932   3.102  29.682  1.00 37.88 LIG 0.20  C 
BRANCH 25 26
ATOM     26 OG   SER B 304      17.686   3.133  30.882  1.00 38.36 LIG-0.40  OA
ATOM     27 HG   SER B 304      17.739   2.357  31.200  1.00 38.36 LIG 0.21  HD
ENDBRANCH 25 26
ENDBRANCH 24 25
BRANCH 24 28
ATOM     28  C   SER B 304      14.490   3.572  29.969  1.00 37.93 LIG 0.24  C 
ATOM     29 O    SER B 304      13.581   3.657  29.143  1.00 38.21 LIG-0.27  OA
ATOM     30  N   ALA B 305      14.349   2.950  31.135  1.00 38.06 LIG-0.35  N 
ATOM     31 H    ALA B 305      14.973   2.884  31.723  1.00 38.06 LIG 0.16  HD
BRANCH 30 32
ATOM     32  CA  ALA B 305      13.092   2.315  31.513  1.00 38.30 LIG 0.16  C 
ATOM     33  CB  ALA B 305      11.998   3.374  31.644  1.00 38.13 LIG 0.04  C 
BRANCH 32 34
ATOM     34  C   ALA B 305      12.674   1.260  30.495  1.00 38.47 LIG 0.22  C 
ATOM     35 O    ALA B 305      13.481   0.344  30.234  1.00 38.58 LIG-0.29  OA
ENDBRANCH 32 34
ENDBRANCH 30 32
ENDBRANCH 24 28
ENDBRANCH 22 24
ENDBRANCH 1 20
TORSDOF 14
ENDMDL
MODEL 121
USER: ADFR SOLUTION from run 199
USER: SCORE 10.469736 LL:  -2.001 LR:  -9.133 RR:   0.000 FEB:  -4.957
USER: RMSD 6.699802
USER: SEED 198
USER: STATUS no improvement in best in 33 clusters for 5 generations
USER: GENES 16
USER: genes 0 Translation |==|  0.77462 0.57520 0.53107
USER: genes 1 Rotation |==|  0.28941 0.25722 0.80043 0.73759
USER: genes 2 Torsion [CB]-CA--N-[C] |==|  0.80554
USER: genes 3 Torsion [N]-C--CA-[N] |==|  0.46538
USER: genes 4 Torsion [C]-CA--N-[C] |==|  0.75787
USER: genes 5 Torsion [N]-C--CA-[N] |==|  0.14406
USER: genes 6 Torsion [C]-CA--CB-[OG] |==|  0.88346
USER: genes 7 Torsion [CA]-CB--OG-[HG] |==|  0.80722
USER: genes 8 Torsion [N]-CA--CB-[CG1] |==|  0.52526
USER: genes 9 Torsion [N]-CA--C-[N] |==|  0.20135
USER: genes 10 Torsion [C]-N--CA-[CB] |==|  0.86079
USER: genes 11 Torsion [N]-CA--CB-[OG] |==|  0.78814
USER: genes 12 Torsion [CA]-CB--OG-[HG] |==|  0.13023
USER: genes 13 Torsion [N]-CA--C-[N] |==|  0.35127
USER: genes 14 Torsion [C]-N--CA-[C] |==|  0.62947
USER: genes 15 Torsion [N]-CA--C-[O] |==|  0.89338
ROOT
ATOM      1  CA  VAL B 303      18.636   6.159  33.898  1.00 37.13 LIG 0.18  C 
ENDROOT
BRANCH 1 2
ATOM      2  N   VAL B 303      18.276   4.815  34.331  1.00 37.20 LIG-0.35  N 
ATOM      3  C   SER B 302      18.157   3.809  33.470  1.00 37.39 LIG 0.24  C 
ATOM      4 O    SER B 302      18.325   3.945  32.254  1.00 37.76 LIG-0.27  OA
ATOM      5 H    VAL B 303      18.150   4.736  35.178  1.00 37.20 LIG 0.16  HD
BRANCH 3 6
ATOM      6  CA  SER B 302      17.786   2.455  34.065  1.00 37.09 LIG 0.20  C 
BRANCH 6 7
ATOM      7  N   SER B 302      17.402   1.519  33.017  1.00 36.48 LIG-0.34  N 
ATOM      8 H    SER B 302      18.046   1.030  32.723  1.00 36.48 LIG 0.16  HD
ATOM      9  C   ALA B 301      16.152   1.446  32.570  1.00 36.26 LIG 0.26  C 
ATOM     10 O    ALA B 301      15.243   2.150  33.010  1.00 35.88 LIG-0.27  OA
BRANCH 9 11
ATOM     11  CA  ALA B 301      15.886   0.428  31.465  1.00 36.43 LIG 0.40  C 
ATOM     12  CB  ALA B 301      14.390   0.351  31.177  1.00 36.70 LIG 0.06  C 
ATOM     13  N   ALA B 301      16.396  -0.921  31.848  1.00 36.51 LIG 0.61  N 
ENDBRANCH 9 11
ENDBRANCH 6 7
BRANCH 6 14
ATOM     14  CB  SER B 302      18.971   1.908  34.866  1.00 37.65 LIG 0.20  C 
BRANCH 14 15
ATOM     15 OG   SER B 302      20.192   2.124  34.182  1.00 38.63 LIG-0.40  OA
ATOM     16 HG   SER B 302      20.222   1.635  33.499  1.00 38.63 LIG 0.21  HD
ENDBRANCH 14 15
ENDBRANCH 6 14
ENDBRANCH 3 6
ENDBRANCH 1 2
BRANCH 1 17
ATOM     17  CB  VAL B 303      20.112   6.231  33.429  1.00 37.28 LIG 0.01  C 
ATOM     18  CG1 VAL B 303      20.514   7.676  33.201  1.00 36.92 LIG 0.01  C 
ATOM     19  CG2 VAL B 303      21.023   5.584  34.463  1.00 37.06 LIG 0.01  C 
ENDBRANCH 1 17
BRANCH 1 20
ATOM     20  C   VAL B 303      17.736   6.579  32.745  1.00 37.27 LIG 0.24  C 
ATOM     21 O    VAL B 303      18.172   6.636  31.594  1.00 36.92 LIG-0.27  OA
ATOM     22  N   SER B 304      16.476   6.864  33.053  1.00 37.37 LIG-0.34  N 
ATOM     23 H    SER B 304      16.151   6.817  33.848  1.00 37.37 LIG 0.16  HD
BRANCH 22 24
ATOM     24  CA  SER B 304      15.522   7.289  32.036  1.00 37.74 LIG 0.20  C 
BRANCH 24 25
ATOM     25  CB  SER B 304      16.111   8.427  31.199  1.00 37.88 LIG 0.20  C 
BRANCH 25 26
ATOM     26 OG   SER B 304      16.075   9.651  31.915  1.00 38.36 LIG-0.40  OA
ATOM     27 HG   SER B 304      16.365   9.528  32.694  1.00 38.36 LIG 0.21  HD
ENDBRANCH 25 26
ENDBRANCH 24 25
BRANCH 24 28
ATOM     28  C   SER B 304      15.183   6.104  31.137  1.00 37.93 LIG 0.24  C 
ATOM     29 O    SER B 304      16.077   5.458  30.588  1.00 38.21 LIG-0.27  OA
ATOM     30  N   ALA B 305      13.894   5.819  30.990  1.00 38.06 LIG-0.35  N 
ATOM     31 H    ALA B 305      13.258   6.261  31.364  1.00 38.06 LIG 0.16  HD
BRANCH 30 32
ATOM     32  CA  ALA B 305      13.449   4.705  30.161  1.00 38.30 LIG 0.16  C 
ATOM     33  CB  ALA B 305      13.006   3.544  31.050  1.00 38.13 LIG 0.04  C 
BRANCH 32 34
ATOM     34  C   ALA B 305      12.306   5.119  29.241  1.00 38.47 LIG 0.22  C 
ATOM     35 O    ALA B 305      11.443   5.901  29.691  1.00 38.58 LIG-0.29  OA
ENDBRANCH 32 34
ENDBRANCH 30 32
ENDBRANCH 24 28
ENDBRANCH 22 24
ENDBRANCH 1 20
TORSDOF 14
ENDMDL
MODEL 122
USER: ADFR SOLUTION from run 97
USER: SCORE 9.783448 LL:  -1.733 LR:  -9.117 RR:   0.000 FEB:  -4.941
USER: RMSD 5.510553
USER: SEED 96
USER: STATUS no improvement in best in 24 clusters for 5 generations
USER: GENES 16
USER: genes 0 Translation |==|  0.45767 0.50138 0.37737
USER: genes 1 Rotation |==|  0.61174 0.67737 0.09016 0.69515
USER: genes 2 Torsion [CB]-CA--N-[C] |==|  0.78292
USER: genes 3 Torsion [N]-C--CA-[N] |==|  0.07778
USER: genes 4 Torsion [C]-CA--N-[C] |==|  0.15050
USER: genes 5 Torsion [N]-C--CA-[N] |==|  0.08030
USER: genes 6 Torsion [C]-CA--CB-[OG] |==|  0.49317
USER: genes 7 Torsion [CA]-CB--OG-[HG] |==|  0.97453
USER: genes 8 Torsion [N]-CA--CB-[CG1] |==|  0.18934
USER: genes 9 Torsion [N]-CA--C-[N] |==|  0.11671
USER: genes 10 Torsion [C]-N--CA-[CB] |==|  0.87379
USER: genes 11 Torsion [N]-CA--CB-[OG] |==|  0.49694
USER: genes 12 Torsion [CA]-CB--OG-[HG] |==|  0.96507
USER: genes 13 Torsion [N]-CA--C-[N] |==|  0.87984
USER: genes 14 Torsion [C]-N--CA-[C] |==|  0.77700
USER: genes 15 Torsion [N]-CA--C-[O] |==|  0.66391
ROOT
ATOM      1  CA  VAL B 303      12.218   4.664  31.593  1.00 37.13 LIG 0.18  C 
ENDROOT
BRANCH 1 2
ATOM      2  N   VAL B 303      12.702   4.884  32.950  1.00 37.20 LIG-0.35  N 
ATOM      3  C   SER B 302      13.963   4.644  33.292  1.00 37.39 LIG 0.24  C 
ATOM      4 O    SER B 302      14.800   4.205  32.498  1.00 37.76 LIG-0.27  OA
ATOM      5 H    VAL B 303      12.106   5.179  33.495  1.00 37.20 LIG 0.16  HD
BRANCH 3 6
ATOM      6  CA  SER B 302      14.332   4.930  34.743  1.00 37.09 LIG 0.20  C 
BRANCH 6 7
ATOM      7  N   SER B 302      13.170   4.781  35.610  1.00 36.48 LIG-0.34  N 
ATOM      8 H    SER B 302      13.001   5.468  36.100  1.00 36.48 LIG 0.16  HD
ATOM      9  C   ALA B 301      12.448   3.665  35.623  1.00 36.26 LIG 0.26  C 
ATOM     10 O    ALA B 301      12.702   2.696  34.908  1.00 35.88 LIG-0.27  OA
BRANCH 9 11
ATOM     11  CA  ALA B 301      11.262   3.637  36.583  1.00 36.43 LIG 0.40  C 
ATOM     12  CB  ALA B 301      10.165   2.733  36.029  1.00 36.70 LIG 0.06  C 
ATOM     13  N   ALA B 301      10.721   5.011  36.803  1.00 36.51 LIG 0.61  N 
ENDBRANCH 9 11
ENDBRANCH 6 7
BRANCH 6 14
ATOM     14  CB  SER B 302      15.453   3.983  35.182  1.00 37.65 LIG 0.20  C 
BRANCH 14 15
ATOM     15 OG   SER B 302      15.862   4.256  36.509  1.00 38.63 LIG-0.40  OA
ATOM     16 HG   SER B 302      15.503   4.969  36.772  1.00 38.63 LIG 0.21  HD
ENDBRANCH 14 15
ENDBRANCH 6 14
ENDBRANCH 3 6
ENDBRANCH 1 2
BRANCH 1 17
ATOM     17  CB  VAL B 303      12.643   5.813  30.642  1.00 37.28 LIG 0.01  C 
ATOM     18  CG1 VAL B 303      14.145   5.786  30.434  1.00 36.92 LIG 0.01  C 
ATOM     19  CG2 VAL B 303      11.921   5.682  29.307  1.00 37.06 LIG 0.01  C 
ENDBRANCH 1 17
BRANCH 1 20
ATOM     20  C   VAL B 303      12.781   3.354  31.059  1.00 37.27 LIG 0.24  C 
ATOM     21 O    VAL B 303      13.205   3.275  29.905  1.00 36.92 LIG-0.27  OA
ATOM     22  N   SER B 304      12.795   2.330  31.904  1.00 37.37 LIG-0.34  N 
ATOM     23 H    SER B 304      12.515   2.371  32.716  1.00 37.37 LIG 0.16  HD
BRANCH 22 24
ATOM     24  CA  SER B 304      13.300   1.022  31.504  1.00 37.74 LIG 0.20  C 
BRANCH 24 25
ATOM     25  CB  SER B 304      12.747   0.637  30.130  1.00 37.88 LIG 0.20  C 
BRANCH 25 26
ATOM     26 OG   SER B 304      13.251  -0.623  29.718  1.00 38.36 LIG-0.40  OA
ATOM     27 HG   SER B 304      13.888  -0.848  30.218  1.00 38.36 LIG 0.21  HD
ENDBRANCH 25 26
ENDBRANCH 24 25
BRANCH 24 28
ATOM     28  C   SER B 304      14.824   1.063  31.460  1.00 37.93 LIG 0.24  C 
ATOM     29 O    SER B 304      15.489   0.135  31.921  1.00 38.21 LIG-0.27  OA
ATOM     30  N   ALA B 305      15.374   2.137  30.904  1.00 38.06 LIG-0.35  N 
ATOM     31 H    ALA B 305      14.924   2.795  30.580  1.00 38.06 LIG 0.16  HD
BRANCH 30 32
ATOM     32  CA  ALA B 305      16.821   2.285  30.799  1.00 38.30 LIG 0.16  C 
ATOM     33  CB  ALA B 305      17.160   3.271  29.682  1.00 38.13 LIG 0.04  C 
BRANCH 32 34
ATOM     34  C   ALA B 305      17.428   2.762  32.114  1.00 38.47 LIG 0.22  C 
ATOM     35 O    ALA B 305      18.066   3.835  32.111  1.00 38.58 LIG-0.29  OA
ENDBRANCH 32 34
ENDBRANCH 30 32
ENDBRANCH 24 28
ENDBRANCH 22 24
ENDBRANCH 1 20
TORSDOF 14
ENDMDL
MODEL 123
USER: ADFR SOLUTION from run 36
USER: SCORE 9.970810 LL:  -1.606 LR:  -9.122 RR:   0.000 FEB:  -4.946
USER: RMSD 2.822700
USER: SEED 35
USER: STATUS no improvement in best in 19 clusters for 5 generations
USER: GENES 16
USER: genes 0 Translation |==|  0.57569 0.51556 0.33332
USER: genes 1 Rotation |==|  0.58863 0.64548 0.55210 0.96719
USER: genes 2 Torsion [CB]-CA--N-[C] |==|  0.77122
USER: genes 3 Torsion [N]-C--CA-[N] |==|  0.97630
USER: genes 4 Torsion [C]-CA--N-[C] |==|  0.77887
USER: genes 5 Torsion [N]-C--CA-[N] |==|  0.37965
USER: genes 6 Torsion [C]-CA--CB-[OG] |==|  0.17638
USER: genes 7 Torsion [CA]-CB--OG-[HG] |==|  0.55221
USER: genes 8 Torsion [N]-CA--CB-[CG1] |==|  0.67517
USER: genes 9 Torsion [N]-CA--C-[N] |==|  0.19511
USER: genes 10 Torsion [C]-N--CA-[CB] |==|  0.53337
USER: genes 11 Torsion [N]-CA--CB-[OG] |==|  0.97743
USER: genes 12 Torsion [CA]-CB--OG-[HG] |==|  0.61151
USER: genes 13 Torsion [N]-CA--C-[N] |==|  0.35084
USER: genes 14 Torsion [C]-N--CA-[C] |==|  0.51576
USER: genes 15 Torsion [N]-CA--C-[O] |==|  0.83967
ROOT
ATOM      1  CA  VAL B 303      14.608   4.951  30.932  1.00 37.13 LIG 0.18  C 
ENDROOT
BRANCH 1 2
ATOM      2  N   VAL B 303      13.996   4.151  31.985  1.00 37.20 LIG-0.35  N 
ATOM      3  C   SER B 302      13.456   4.707  33.064  1.00 37.39 LIG 0.24  C 
ATOM      4 O    SER B 302      13.450   5.926  33.258  1.00 37.76 LIG-0.27  OA
ATOM      5 H    VAL B 303      14.017   3.303  31.844  1.00 37.20 LIG 0.16  HD
BRANCH 3 6
ATOM      6  CA  SER B 302      12.842   3.748  34.079  1.00 37.09 LIG 0.20  C 
BRANCH 6 7
ATOM      7  N   SER B 302      12.800   2.392  33.548  1.00 36.48 LIG-0.34  N 
ATOM      8 H    SER B 302      13.429   1.879  33.832  1.00 36.48 LIG 0.16  HD
ATOM      9  C   ALA B 301      11.856   2.006  32.696  1.00 36.26 LIG 0.26  C 
ATOM     10 O    ALA B 301      10.959   2.755  32.307  1.00 35.88 LIG-0.27  OA
BRANCH 9 11
ATOM     11  CA  ALA B 301      11.932   0.562  32.210  1.00 36.43 LIG 0.40  C 
ATOM     12  CB  ALA B 301      12.525   0.515  30.805  1.00 36.70 LIG 0.06  C 
ATOM     13  N   ALA B 301      10.580  -0.072  32.208  1.00 36.51 LIG 0.61  N 
ENDBRANCH 9 11
ENDBRANCH 6 7
BRANCH 6 14
ATOM     14  CB  SER B 302      13.654   3.791  35.377  1.00 37.65 LIG 0.20  C 
BRANCH 14 15
ATOM     15 OG   SER B 302      13.595   5.074  35.974  1.00 38.63 LIG-0.40  OA
ATOM     16 HG   SER B 302      14.228   5.158  36.519  1.00 38.63 LIG 0.21  HD
ENDBRANCH 14 15
ENDBRANCH 6 14
ENDBRANCH 3 6
ENDBRANCH 1 2
BRANCH 1 17
ATOM     17  CB  VAL B 303      13.547   5.504  29.946  1.00 37.28 LIG 0.01  C 
ATOM     18  CG1 VAL B 303      13.783   4.939  28.558  1.00 36.92 LIG 0.01  C 
ATOM     19  CG2 VAL B 303      12.147   5.152  30.430  1.00 37.06 LIG 0.01  C 
ENDBRANCH 1 17
BRANCH 1 20
ATOM     20  C   VAL B 303      15.354   6.123  31.554  1.00 37.27 LIG 0.24  C 
ATOM     21 O    VAL B 303      14.930   7.274  31.436  1.00 36.92 LIG-0.27  OA
ATOM     22  N   SER B 304      16.461   5.828  32.225  1.00 37.37 LIG-0.34  N 
ATOM     23 H    SER B 304      16.765   5.030  32.328  1.00 37.37 LIG 0.16  HD
BRANCH 22 24
ATOM     24  CA  SER B 304      17.267   6.867  32.854  1.00 37.74 LIG 0.20  C 
BRANCH 24 25
ATOM     25  CB  SER B 304      18.618   6.298  33.294  1.00 37.88 LIG 0.20  C 
BRANCH 25 26
ATOM     26 OG   SER B 304      18.646   4.888  33.142  1.00 38.36 LIG-0.40  OA
ATOM     27 HG   SER B 304      19.041   4.543  33.798  1.00 38.36 LIG 0.21  HD
ENDBRANCH 25 26
ENDBRANCH 24 25
BRANCH 24 28
ATOM     28  C   SER B 304      17.481   8.008  31.864  1.00 37.93 LIG 0.24  C 
ATOM     29 O    SER B 304      17.940   7.786  30.743  1.00 38.21 LIG-0.27  OA
ATOM     30  N   ALA B 305      17.145   9.225  32.278  1.00 38.06 LIG-0.35  N 
ATOM     31 H    ALA B 305      16.825   9.397  33.057  1.00 38.06 LIG 0.16  HD
BRANCH 30 32
ATOM     32  CA  ALA B 305      17.298  10.392  31.417  1.00 38.30 LIG 0.16  C 
ATOM     33  CB  ALA B 305      16.386  10.257  30.198  1.00 38.13 LIG 0.04  C 
BRANCH 32 34
ATOM     34  C   ALA B 305      16.976  11.681  32.165  1.00 38.47 LIG 0.22  C 
ATOM     35 O    ALA B 305      15.845  11.793  32.682  1.00 38.58 LIG-0.29  OA
ENDBRANCH 32 34
ENDBRANCH 30 32
ENDBRANCH 24 28
ENDBRANCH 22 24
ENDBRANCH 1 20
TORSDOF 14
ENDMDL
MODEL 124
USER: ADFR SOLUTION from run 87
USER: SCORE 10.408800 LL:  -2.219 LR:  -9.122 RR:   0.000 FEB:  -4.946
USER: RMSD 7.703663
USER: SEED 86
USER: STATUS no improvement in best in 25 clusters for 5 generations
USER: GENES 16
USER: genes 0 Translation |==|  0.49231 0.50700 0.34587
USER: genes 1 Rotation |==|  0.59061 0.40110 0.97692 0.56750
USER: genes 2 Torsion [CB]-CA--N-[C] |==|  0.78274
USER: genes 3 Torsion [N]-C--CA-[N] |==|  0.38574
USER: genes 4 Torsion [C]-CA--N-[C] |==|  0.82754
USER: genes 5 Torsion [N]-C--CA-[N] |==|  0.20138
USER: genes 6 Torsion [C]-CA--CB-[OG] |==|  0.58274
USER: genes 7 Torsion [CA]-CB--OG-[HG] |==|  0.23953
USER: genes 8 Torsion [N]-CA--CB-[CG1] |==|  0.68255
USER: genes 9 Torsion [N]-CA--C-[N] |==|  0.21359
USER: genes 10 Torsion [C]-N--CA-[CB] |==|  0.79444
USER: genes 11 Torsion [N]-CA--CB-[OG] |==|  0.72254
USER: genes 12 Torsion [CA]-CB--OG-[HG] |==|  0.17456
USER: genes 13 Torsion [N]-CA--C-[N] |==|  0.11775
USER: genes 14 Torsion [C]-N--CA-[C] |==|  0.15879
USER: genes 15 Torsion [N]-CA--C-[O] |==|  0.49576
ROOT
ATOM      1  CA  VAL B 303      12.919   4.778  31.120  1.00 37.13 LIG 0.18  C 
ENDROOT
BRANCH 1 2
ATOM      2  N   VAL B 303      14.340   4.490  31.275  1.00 37.20 LIG-0.35  N 
ATOM      3  C   SER B 302      14.871   3.344  30.864  1.00 37.39 LIG 0.24  C 
ATOM      4 O    SER B 302      14.205   2.445  30.343  1.00 37.76 LIG-0.27  OA
ATOM      5 H    VAL B 303      14.790   5.120  31.649  1.00 37.20 LIG 0.16  HD
BRANCH 3 6
ATOM      6  CA  SER B 302      16.373   3.184  31.079  1.00 37.09 LIG 0.20  C 
BRANCH 6 7
ATOM      7  N   SER B 302      16.688   1.836  31.533  1.00 36.48 LIG-0.34  N 
ATOM      8 H    SER B 302      17.194   1.391  30.999  1.00 36.48 LIG 0.16  HD
ATOM      9  C   ALA B 301      16.220   1.360  32.683  1.00 36.26 LIG 0.26  C 
ATOM     10 O    ALA B 301      15.503   2.018  33.437  1.00 35.88 LIG-0.27  OA
BRANCH 9 11
ATOM     11  CA  ALA B 301      16.620  -0.069  33.036  1.00 36.43 LIG 0.40  C 
ATOM     12  CB  ALA B 301      15.746  -0.589  34.174  1.00 36.70 LIG 0.06  C 
ATOM     13  N   ALA B 301      18.058  -0.139  33.432  1.00 36.51 LIG 0.61  N 
ENDBRANCH 9 11
ENDBRANCH 6 7
BRANCH 6 14
ATOM     14  CB  SER B 302      17.112   3.498  29.775  1.00 37.65 LIG 0.20  C 
BRANCH 14 15
ATOM     15 OG   SER B 302      18.317   2.761  29.682  1.00 38.63 LIG-0.40  OA
ATOM     16 HG   SER B 302      18.160   2.006  29.350  1.00 38.63 LIG 0.21  HD
ENDBRANCH 14 15
ENDBRANCH 6 14
ENDBRANCH 3 6
ENDBRANCH 1 2
BRANCH 1 17
ATOM     17  CB  VAL B 303      12.577   5.199  29.668  1.00 37.28 LIG 0.01  C 
ATOM     18  CG1 VAL B 303      12.117   6.644  29.641  1.00 36.92 LIG 0.01  C 
ATOM     19  CG2 VAL B 303      13.791   5.012  28.768  1.00 37.06 LIG 0.01  C 
ENDBRANCH 1 17
BRANCH 1 20
ATOM     20  C   VAL B 303      12.109   3.538  31.473  1.00 37.27 LIG 0.24  C 
ATOM     21 O    VAL B 303      11.623   2.830  30.589  1.00 36.92 LIG-0.27  OA
ATOM     22  N   SER B 304      11.973   3.271  32.767  1.00 37.37 LIG-0.34  N 
ATOM     23 H    SER B 304      12.316   3.746  33.396  1.00 37.37 LIG 0.16  HD
BRANCH 22 24
ATOM     24  CA  SER B 304      11.210   2.118  33.228  1.00 37.74 LIG 0.20  C 
BRANCH 24 25
ATOM     25  CB  SER B 304       9.710   2.372  33.060  1.00 37.88 LIG 0.20  C 
BRANCH 25 26
ATOM     26 OG   SER B 304       9.123   2.761  34.291  1.00 38.36 LIG-0.40  OA
ATOM     27 HG   SER B 304       9.461   3.487  34.545  1.00 38.36 LIG 0.21  HD
ENDBRANCH 25 26
ENDBRANCH 24 25
BRANCH 24 28
ATOM     28  C   SER B 304      11.622   0.887  32.425  1.00 37.93 LIG 0.24  C 
ATOM     29 O    SER B 304      10.774   0.092  32.019  1.00 38.21 LIG-0.27  OA
ATOM     30  N   ALA B 305      12.922   0.735  32.196  1.00 38.06 LIG-0.35  N 
ATOM     31 H    ALA B 305      13.526   1.279  32.475  1.00 38.06 LIG 0.16  HD
BRANCH 30 32
ATOM     32  CA  ALA B 305      13.434  -0.399  31.435  1.00 38.30 LIG 0.16  C 
ATOM     33  CB  ALA B 305      13.157  -1.697  32.193  1.00 38.13 LIG 0.04  C 
BRANCH 32 34
ATOM     34  C   ALA B 305      12.809  -0.465  30.047  1.00 38.47 LIG 0.22  C 
ATOM     35 O    ALA B 305      13.182  -1.374  29.277  1.00 38.58 LIG-0.29  OA
ENDBRANCH 32 34
ENDBRANCH 30 32
ENDBRANCH 24 28
ENDBRANCH 22 24
ENDBRANCH 1 20
TORSDOF 14
ENDMDL
MODEL 125
USER: ADFR SOLUTION from run 183
USER: SCORE 9.134322 LL:  -2.048 LR:  -9.124 RR:   0.000 FEB:  -4.948
USER: RMSD 8.601736
USER: SEED 182
USER: STATUS no improvement in best in 39 clusters for 5 generations
USER: GENES 16
USER: genes 0 Translation |==|  0.51652 0.52133 0.39277
USER: genes 1 Rotation |==|  0.68968 0.54682 0.96016 0.50886
USER: genes 2 Torsion [CB]-CA--N-[C] |==|  0.87149
USER: genes 3 Torsion [N]-C--CA-[N] |==|  0.10655
USER: genes 4 Torsion [C]-CA--N-[C] |==|  0.76551
USER: genes 5 Torsion [N]-C--CA-[N] |==|  0.48465
USER: genes 6 Torsion [C]-CA--CB-[OG] |==|  0.79191
USER: genes 7 Torsion [CA]-CB--OG-[HG] |==|  0.32758
USER: genes 8 Torsion [N]-CA--CB-[CG1] |==|  0.38551
USER: genes 9 Torsion [N]-CA--C-[N] |==|  0.37216
USER: genes 10 Torsion [C]-N--CA-[CB] |==|  0.43836
USER: genes 11 Torsion [N]-CA--CB-[OG] |==|  0.91351
USER: genes 12 Torsion [CA]-CB--OG-[HG] |==|  0.73538
USER: genes 13 Torsion [N]-CA--C-[N] |==|  0.95486
USER: genes 14 Torsion [C]-N--CA-[C] |==|  0.18489
USER: genes 15 Torsion [N]-CA--C-[O] |==|  0.33551
ROOT
ATOM      1  CA  VAL B 303      13.410   5.068  31.824  1.00 37.13 LIG 0.18  C 
ENDROOT
BRANCH 1 2
ATOM      2  N   VAL B 303      14.771   5.302  31.359  1.00 37.20 LIG-0.35  N 
ATOM      3  C   SER B 302      15.405   4.432  30.581  1.00 37.39 LIG 0.24  C 
ATOM      4 O    SER B 302      14.900   3.368  30.214  1.00 37.76 LIG-0.27  OA
ATOM      5 H    VAL B 303      15.116   6.042  31.631  1.00 37.20 LIG 0.16  HD
BRANCH 3 6
ATOM      6  CA  SER B 302      16.822   4.813  30.163  1.00 37.09 LIG 0.20  C 
BRANCH 6 7
ATOM      7  N   SER B 302      17.527   5.463  31.260  1.00 36.48 LIG-0.34  N 
ATOM      8 H    SER B 302      18.019   4.936  31.728  1.00 36.48 LIG 0.16  HD
ATOM      9  C   ALA B 301      17.401   6.765  31.495  1.00 36.26 LIG 0.26  C 
ATOM     10 O    ALA B 301      16.696   7.504  30.807  1.00 35.88 LIG-0.27  OA
BRANCH 9 11
ATOM     11  CA  ALA B 301      18.187   7.318  32.680  1.00 36.43 LIG 0.40  C 
ATOM     12  CB  ALA B 301      17.682   6.695  33.977  1.00 36.70 LIG 0.06  C 
ATOM     13  N   ALA B 301      18.067   8.804  32.754  1.00 36.51 LIG 0.61  N 
ENDBRANCH 9 11
ENDBRANCH 6 7
BRANCH 6 14
ATOM     14  CB  SER B 302      17.575   3.558  29.710  1.00 37.65 LIG 0.20  C 
BRANCH 14 15
ATOM     15 OG   SER B 302      17.950   2.761  30.819  1.00 38.63 LIG-0.40  OA
ATOM     16 HG   SER B 302      17.577   2.011  30.764  1.00 38.63 LIG 0.21  HD
ENDBRANCH 14 15
ENDBRANCH 6 14
ENDBRANCH 3 6
ENDBRANCH 1 2
BRANCH 1 17
ATOM     17  CB  VAL B 303      12.487   4.593  30.671  1.00 37.28 LIG 0.01  C 
ATOM     18  CG1 VAL B 303      11.573   3.486  31.161  1.00 36.92 LIG 0.01  C 
ATOM     19  CG2 VAL B 303      11.668   5.761  30.140  1.00 37.06 LIG 0.01  C 
ENDBRANCH 1 17
BRANCH 1 20
ATOM     20  C   VAL B 303      13.420   4.003  32.911  1.00 37.27 LIG 0.24  C 
ATOM     21 O    VAL B 303      14.076   2.969  32.774  1.00 36.92 LIG-0.27  OA
ATOM     22  N   SER B 304      12.702   4.261  33.998  1.00 37.37 LIG-0.34  N 
ATOM     23 H    SER B 304      12.249   4.983  34.116  1.00 37.37 LIG 0.16  HD
BRANCH 22 24
ATOM     24  CA  SER B 304      12.626   3.313  35.102  1.00 37.74 LIG 0.20  C 
BRANCH 24 25
ATOM     25  CB  SER B 304      12.230   4.031  36.394  1.00 37.88 LIG 0.20  C 
BRANCH 25 26
ATOM     26 OG   SER B 304      12.716   5.363  36.400  1.00 38.36 LIG-0.40  OA
ATOM     27 HG   SER B 304      13.450   5.393  36.807  1.00 38.36 LIG 0.21  HD
ENDBRANCH 25 26
ENDBRANCH 24 25
BRANCH 24 28
ATOM     28  C   SER B 304      11.598   2.235  34.769  1.00 37.93 LIG 0.24  C 
ATOM     29 O    SER B 304      11.571   1.179  35.402  1.00 38.21 LIG-0.27  OA
ATOM     30  N   ALA B 305      10.754   2.504  33.779  1.00 38.06 LIG-0.35  N 
ATOM     31 H    ALA B 305      10.761   3.235  33.327  1.00 38.06 LIG 0.16  HD
BRANCH 30 32
ATOM     32  CA  ALA B 305       9.724   1.554  33.376  1.00 38.30 LIG 0.16  C 
ATOM     33  CB  ALA B 305      10.367   0.210  33.035  1.00 38.13 LIG 0.04  C 
BRANCH 32 34
ATOM     34  C   ALA B 305       8.680   1.367  34.471  1.00 38.47 LIG 0.22  C 
ATOM     35 O    ALA B 305       7.491   1.636  34.201  1.00 38.58 LIG-0.29  OA
ENDBRANCH 32 34
ENDBRANCH 30 32
ENDBRANCH 24 28
ENDBRANCH 22 24
ENDBRANCH 1 20
TORSDOF 14
ENDMDL
MODEL 126
USER: ADFR SOLUTION from run 16
USER: SCORE 10.071234 LL:  -2.490 LR:  -9.109 RR:   0.000 FEB:  -4.933
USER: RMSD 5.621545
USER: SEED 845691
USER: STATUS no improvement in best in 38 clusters for 5 generations
USER: GENES 16
USER: genes 0 Translation |==|  0.49211 0.48040 0.33548
USER: genes 1 Rotation |==|  0.74582 0.70609 0.32409 0.84081
USER: genes 2 Torsion [CB]-CA--N-[C] |==|  0.48365
USER: genes 3 Torsion [N]-C--CA-[N] |==|  0.92806
USER: genes 4 Torsion [C]-CA--N-[C] |==|  0.74318
USER: genes 5 Torsion [N]-C--CA-[N] |==|  0.71703
USER: genes 6 Torsion [C]-CA--CB-[OG] |==|  0.71218
USER: genes 7 Torsion [CA]-CB--OG-[HG] |==|  0.05148
USER: genes 8 Torsion [N]-CA--CB-[CG1] |==|  0.30939
USER: genes 9 Torsion [N]-CA--C-[N] |==|  0.37446
USER: genes 10 Torsion [C]-N--CA-[CB] |==|  0.78032
USER: genes 11 Torsion [N]-CA--CB-[OG] |==|  0.76087
USER: genes 12 Torsion [CA]-CB--OG-[HG] |==|  0.14610
USER: genes 13 Torsion [N]-CA--C-[N] |==|  0.13333
USER: genes 14 Torsion [C]-N--CA-[C] |==|  0.53600
USER: genes 15 Torsion [N]-CA--C-[O] |==|  0.96073
ROOT
ATOM      1  CA  VAL B 303      12.915   4.239  30.964  1.00 37.13 LIG 0.18  C 
ENDROOT
BRANCH 1 2
ATOM      2  N   VAL B 303      12.303   3.619  32.133  1.00 37.20 LIG-0.35  N 
ATOM      3  C   SER B 302      12.266   2.299  32.287  1.00 37.39 LIG 0.24  C 
ATOM      4 O    SER B 302      12.727   1.514  31.454  1.00 37.76 LIG-0.27  OA
ATOM      5 H    VAL B 303      11.976   4.176  32.700  1.00 37.20 LIG 0.16  HD
BRANCH 3 6
ATOM      6  CA  SER B 302      11.605   1.791  33.563  1.00 37.09 LIG 0.20  C 
BRANCH 6 7
ATOM      7  N   SER B 302      11.683   2.791  34.620  1.00 36.48 LIG-0.34  N 
ATOM      8 H    SER B 302      11.035   3.357  34.622  1.00 36.48 LIG 0.16  HD
ATOM      9  C   ALA B 301      12.685   2.806  35.494  1.00 36.26 LIG 0.26  C 
ATOM     10 O    ALA B 301      13.599   1.982  35.477  1.00 35.88 LIG-0.27  OA
BRANCH 9 11
ATOM     11  CA  ALA B 301      12.651   3.912  36.544  1.00 36.43 LIG 0.40  C 
ATOM     12  CB  ALA B 301      11.236   4.470  36.668  1.00 36.70 LIG 0.06  C 
ATOM     13  N   ALA B 301      13.597   5.011  36.193  1.00 36.51 LIG 0.61  N 
ENDBRANCH 9 11
ENDBRANCH 6 7
BRANCH 6 14
ATOM     14  CB  SER B 302      10.145   1.431  33.273  1.00 37.65 LIG 0.20  C 
BRANCH 14 15
ATOM     15 OG   SER B 302       9.266   2.425  33.767  1.00 38.63 LIG-0.40  OA
ATOM     16 HG   SER B 302       9.693   3.137  33.899  1.00 38.63 LIG 0.21  HD
ENDBRANCH 14 15
ENDBRANCH 6 14
ENDBRANCH 3 6
ENDBRANCH 1 2
BRANCH 1 17
ATOM     17  CB  VAL B 303      12.698   5.774  30.954  1.00 37.28 LIG 0.01  C 
ATOM     18  CG1 VAL B 303      14.018   6.487  31.182  1.00 36.92 LIG 0.01  C 
ATOM     19  CG2 VAL B 303      12.084   6.208  29.630  1.00 37.06 LIG 0.01  C 
ENDBRANCH 1 17
BRANCH 1 20
ATOM     20  C   VAL B 303      14.411   3.957  30.965  1.00 37.27 LIG 0.24  C 
ATOM     21 O    VAL B 303      15.074   4.073  31.997  1.00 36.92 LIG-0.27  OA
ATOM     22  N   SER B 304      14.940   3.576  29.808  1.00 37.37 LIG-0.34  N 
ATOM     23 H    SER B 304      14.491   3.477  29.081  1.00 37.37 LIG 0.16  HD
BRANCH 22 24
ATOM     24  CA  SER B 304      16.364   3.289  29.682  1.00 37.74 LIG 0.20  C 
BRANCH 24 25
ATOM     25  CB  SER B 304      17.160   4.590  29.565  1.00 37.88 LIG 0.20  C 
BRANCH 25 26
ATOM     26 OG   SER B 304      17.221   5.026  28.217  1.00 38.36 LIG-0.40  OA
ATOM     27 HG   SER B 304      16.445   5.061  27.898  1.00 38.36 LIG 0.21  HD
ENDBRANCH 25 26
ENDBRANCH 24 25
BRANCH 24 28
ATOM     28  C   SER B 304      16.829   2.501  30.904  1.00 37.93 LIG 0.24  C 
ATOM     29 O    SER B 304      17.846   2.834  31.513  1.00 38.21 LIG-0.27  OA
ATOM     30  N   ALA B 305      16.083   1.461  31.260  1.00 38.06 LIG-0.35  N 
ATOM     31 H    ALA B 305      15.372   1.215  30.844  1.00 38.06 LIG 0.16  HD
BRANCH 30 32
ATOM     32  CA  ALA B 305      16.424   0.638  32.414  1.00 38.30 LIG 0.16  C 
ATOM     33  CB  ALA B 305      16.173   1.423  33.700  1.00 38.13 LIG 0.04  C 
BRANCH 32 34
ATOM     34  C   ALA B 305      15.620  -0.657  32.431  1.00 38.47 LIG 0.22  C 
ATOM     35 O    ALA B 305      14.628  -0.741  31.677  1.00 38.58 LIG-0.29  OA
ENDBRANCH 32 34
ENDBRANCH 30 32
ENDBRANCH 24 28
ENDBRANCH 22 24
ENDBRANCH 1 20
TORSDOF 14
ENDMDL
MODEL 127
USER: ADFR SOLUTION from run 67
USER: SCORE 10.150445 LL:  -1.973 LR:  -9.105 RR:   0.000 FEB:  -4.929
USER: RMSD 8.303973
USER: SEED 66
USER: STATUS no improvement in best in 40 clusters for 5 generations
USER: GENES 16
USER: genes 0 Translation |==|  0.67265 0.72595 0.33425
USER: genes 1 Rotation |==|  0.76615 0.80473 0.27214 0.68542
USER: genes 2 Torsion [CB]-CA--N-[C] |==|  0.51667
USER: genes 3 Torsion [N]-C--CA-[N] |==|  0.93798
USER: genes 4 Torsion [C]-CA--N-[C] |==|  0.76759
USER: genes 5 Torsion [N]-C--CA-[N] |==|  0.69121
USER: genes 6 Torsion [C]-CA--CB-[OG] |==|  0.75625
USER: genes 7 Torsion [CA]-CB--OG-[HG] |==|  0.10940
USER: genes 8 Torsion [N]-CA--CB-[CG1] |==|  0.26174
USER: genes 9 Torsion [N]-CA--C-[N] |==|  0.45728
USER: genes 10 Torsion [C]-N--CA-[CB] |==|  0.50586
USER: genes 11 Torsion [N]-CA--CB-[OG] |==|  0.39631
USER: genes 12 Torsion [CA]-CB--OG-[HG] |==|  0.83811
USER: genes 13 Torsion [N]-CA--C-[N] |==|  0.44850
USER: genes 14 Torsion [C]-N--CA-[C] |==|  0.17284
USER: genes 15 Torsion [N]-CA--C-[O] |==|  0.18588
ROOT
ATOM      1  CA  VAL B 303      16.571   9.212  30.946  1.00 37.13 LIG 0.18  C 
ENDROOT
BRANCH 1 2
ATOM      2  N   VAL B 303      16.489   8.176  31.968  1.00 37.20 LIG-0.35  N 
ATOM      3  C   SER B 302      16.360   6.891  31.655  1.00 37.39 LIG 0.24  C 
ATOM      4 O    SER B 302      16.285   6.489  30.491  1.00 37.76 LIG-0.27  OA
ATOM      5 H    VAL B 303      16.531   8.471  32.775  1.00 37.20 LIG 0.16  HD
BRANCH 3 6
ATOM      6  CA  SER B 302      16.298   5.918  32.827  1.00 37.09 LIG 0.20  C 
BRANCH 6 7
ATOM      7  N   SER B 302      16.903   6.502  34.017  1.00 36.48 LIG-0.34  N 
ATOM      8 H    SER B 302      16.342   6.866  34.559  1.00 36.48 LIG 0.16  HD
ATOM      9  C   ALA B 301      18.215   6.462  34.224  1.00 36.26 LIG 0.26  C 
ATOM     10 O    ALA B 301      19.000   5.930  33.439  1.00 35.88 LIG-0.27  OA
BRANCH 9 11
ATOM     11  CA  ALA B 301      18.719   7.119  35.506  1.00 36.43 LIG 0.40  C 
ATOM     12  CB  ALA B 301      17.541   7.465  36.411  1.00 36.70 LIG 0.06  C 
ATOM     13  N   ALA B 301      19.501   8.354  35.201  1.00 36.51 LIG 0.61  N 
ENDBRANCH 9 11
ENDBRANCH 6 7
BRANCH 6 14
ATOM     14  CB  SER B 302      14.839   5.538  33.099  1.00 37.65 LIG 0.20  C 
BRANCH 14 15
ATOM     15 OG   SER B 302      14.230   6.457  33.987  1.00 38.63 LIG-0.40  OA
ATOM     16 HG   SER B 302      14.487   7.236  33.805  1.00 38.63 LIG 0.21  HD
ENDBRANCH 14 15
ENDBRANCH 6 14
ENDBRANCH 3 6
ENDBRANCH 1 2
BRANCH 1 17
ATOM     17  CB  VAL B 303      16.867  10.602  31.564  1.00 37.28 LIG 0.01  C 
ATOM     18  CG1 VAL B 303      18.359  10.872  31.546  1.00 36.92 LIG 0.01  C 
ATOM     19  CG2 VAL B 303      16.122  11.686  30.796  1.00 37.06 LIG 0.01  C 
ENDBRANCH 1 17
BRANCH 1 20
ATOM     20  C   VAL B 303      17.682   8.868  29.963  1.00 37.27 LIG 0.24  C 
ATOM     21 O    VAL B 303      18.523   8.009  30.238  1.00 36.92 LIG-0.27  OA
ATOM     22  N   SER B 304      17.679   9.531  28.813  1.00 37.37 LIG-0.34  N 
ATOM     23 H    SER B 304      17.094  10.123  28.599  1.00 37.37 LIG 0.16  HD
BRANCH 22 24
ATOM     24  CA  SER B 304      18.699   9.296  27.799  1.00 37.74 LIG 0.20  C 
BRANCH 24 25
ATOM     25  CB  SER B 304      18.485  10.229  26.604  1.00 37.88 LIG 0.20  C 
BRANCH 25 26
ATOM     26 OG   SER B 304      19.726  10.669  26.078  1.00 38.36 LIG-0.40  OA
ATOM     27 HG   SER B 304      20.161  11.064  26.679  1.00 38.36 LIG 0.21  HD
ENDBRANCH 25 26
ENDBRANCH 24 25
BRANCH 24 28
ATOM     28  C   SER B 304      20.078   9.537  28.406  1.00 37.93 LIG 0.24  C 
ATOM     29 O    SER B 304      20.199  10.185  29.446  1.00 38.21 LIG-0.27  OA
ATOM     30  N   ALA B 305      21.113   9.014  27.758  1.00 38.06 LIG-0.35  N 
ATOM     31 H    ALA B 305      21.046   8.561  27.030  1.00 38.06 LIG 0.16  HD
BRANCH 30 32
ATOM     32  CA  ALA B 305      22.478   9.172  28.247  1.00 38.30 LIG 0.16  C 
ATOM     33  CB  ALA B 305      22.829  10.657  28.323  1.00 38.13 LIG 0.04  C 
BRANCH 32 34
ATOM     34  C   ALA B 305      22.657   8.526  29.615  1.00 38.47 LIG 0.22  C 
ATOM     35 O    ALA B 305      22.573   7.282  29.692  1.00 38.58 LIG-0.29  OA
ENDBRANCH 32 34
ENDBRANCH 30 32
ENDBRANCH 24 28
ENDBRANCH 22 24
ENDBRANCH 1 20
TORSDOF 14
ENDMDL
MODEL 128
USER: ADFR SOLUTION from run 192
USER: SCORE 9.857525 LL:  -2.760 LR:  -9.102 RR:   0.000 FEB:  -4.925
USER: RMSD 7.686026
USER: SEED 191
USER: STATUS no improvement in best in 48 clusters for 5 generations
USER: GENES 16
USER: genes 0 Translation |==|  0.47681 0.51486 0.38459
USER: genes 1 Rotation |==|  0.66499 0.56063 0.03680 0.56746
USER: genes 2 Torsion [CB]-CA--N-[C] |==|  0.83818
USER: genes 3 Torsion [N]-C--CA-[N] |==|  0.11111
USER: genes 4 Torsion [C]-CA--N-[C] |==|  0.13928
USER: genes 5 Torsion [N]-C--CA-[N] |==|  0.46166
USER: genes 6 Torsion [C]-CA--CB-[OG] |==|  0.56592
USER: genes 7 Torsion [CA]-CB--OG-[HG] |==|  0.88647
USER: genes 8 Torsion [N]-CA--CB-[CG1] |==|  0.55303
USER: genes 9 Torsion [N]-CA--C-[N] |==|  0.14212
USER: genes 10 Torsion [C]-N--CA-[CB] |==|  0.19439
USER: genes 11 Torsion [N]-CA--CB-[OG] |==|  0.73630
USER: genes 12 Torsion [CA]-CB--OG-[HG] |==|  0.10032
USER: genes 13 Torsion [N]-CA--C-[N] |==|  0.55307
USER: genes 14 Torsion [C]-N--CA-[C] |==|  0.16819
USER: genes 15 Torsion [N]-CA--C-[O] |==|  0.00948
ROOT
ATOM      1  CA  VAL B 303      12.605   4.937  31.701  1.00 37.13 LIG 0.18  C 
ENDROOT
BRANCH 1 2
ATOM      2  N   VAL B 303      13.076   5.189  33.057  1.00 37.20 LIG-0.35  N 
ATOM      3  C   SER B 302      14.142   4.571  33.555  1.00 37.39 LIG 0.24  C 
ATOM      4 O    SER B 302      14.792   3.737  32.918  1.00 37.76 LIG-0.27  OA
ATOM      5 H    VAL B 303      12.607   5.763  33.494  1.00 37.20 LIG 0.16  HD
BRANCH 3 6
ATOM      6  CA  SER B 302      14.525   4.941  34.984  1.00 37.09 LIG 0.20  C 
BRANCH 6 7
ATOM      7  N   SER B 302      13.338   5.089  35.816  1.00 36.48 LIG-0.34  N 
ATOM      8 H    SER B 302      13.311   5.819  36.269  1.00 36.48 LIG 0.16  HD
ATOM      9  C   ALA B 301      12.391   4.157  35.851  1.00 36.26 LIG 0.26  C 
ATOM     10 O    ALA B 301      12.446   3.122  35.187  1.00 35.88 LIG-0.27  OA
BRANCH 9 11
ATOM     11  CA  ALA B 301      11.204   4.432  36.770  1.00 36.43 LIG 0.40  C 
ATOM     12  CB  ALA B 301      11.629   4.286  38.228  1.00 36.70 LIG 0.06  C 
ATOM     13  N   ALA B 301      10.075   3.500  36.477  1.00 36.51 LIG 0.61  N 
ENDBRANCH 9 11
ENDBRANCH 6 7
BRANCH 6 14
ATOM     14  CB  SER B 302      15.451   3.864  35.558  1.00 37.65 LIG 0.20  C 
BRANCH 14 15
ATOM     15 OG   SER B 302      15.401   3.850  36.973  1.00 38.63 LIG-0.40  OA
ATOM     16 HG   SER B 302      15.384   4.639  37.261  1.00 38.63 LIG 0.21  HD
ENDBRANCH 14 15
ENDBRANCH 6 14
ENDBRANCH 3 6
ENDBRANCH 1 2
BRANCH 1 17
ATOM     17  CB  VAL B 303      13.703   5.245  30.650  1.00 37.28 LIG 0.01  C 
ATOM     18  CG1 VAL B 303      13.074   5.432  29.282  1.00 36.92 LIG 0.01  C 
ATOM     19  CG2 VAL B 303      14.478   6.492  31.052  1.00 37.06 LIG 0.01  C 
ENDBRANCH 1 17
BRANCH 1 20
ATOM     20  C   VAL B 303      12.198   3.476  31.568  1.00 37.27 LIG 0.24  C 
ATOM     21 O    VAL B 303      12.640   2.780  30.652  1.00 36.92 LIG-0.27  OA
ATOM     22  N   SER B 304      11.362   3.010  32.488  1.00 37.37 LIG-0.34  N 
ATOM     23 H    SER B 304      11.053   3.478  33.140  1.00 37.37 LIG 0.16  HD
BRANCH 22 24
ATOM     24  CA  SER B 304      10.891   1.631  32.458  1.00 37.74 LIG 0.20  C 
BRANCH 24 25
ATOM     25  CB  SER B 304      12.033   0.673  32.805  1.00 37.88 LIG 0.20  C 
BRANCH 25 26
ATOM     26 OG   SER B 304      12.658   0.186  31.629  1.00 38.36 LIG-0.40  OA
ATOM     27 HG   SER B 304      12.677   0.794  31.049  1.00 38.36 LIG 0.21  HD
ENDBRANCH 25 26
ENDBRANCH 24 25
BRANCH 24 28
ATOM     28  C   SER B 304       9.751   1.467  33.459  1.00 37.93 LIG 0.24  C 
ATOM     29 O    SER B 304       9.134   2.449  33.872  1.00 38.21 LIG-0.27  OA
ATOM     30  N   ALA B 305       9.473   0.226  33.844  1.00 38.06 LIG-0.35  N 
ATOM     31 H    ALA B 305       9.895  -0.470  33.567  1.00 38.06 LIG 0.16  HD
BRANCH 30 32
ATOM     32  CA  ALA B 305       8.400  -0.055  34.792  1.00 38.30 LIG 0.16  C 
ATOM     33  CB  ALA B 305       8.695   0.632  36.124  1.00 38.13 LIG 0.04  C 
BRANCH 32 34
ATOM     34  C   ALA B 305       7.050   0.408  34.257  1.00 38.47 LIG 0.22  C 
ATOM     35 O    ALA B 305       7.008   0.886  33.104  1.00 38.58 LIG-0.29  OA
ENDBRANCH 32 34
ENDBRANCH 30 32
ENDBRANCH 24 28
ENDBRANCH 22 24
ENDBRANCH 1 20
TORSDOF 14
ENDMDL
MODEL 129
USER: ADFR SOLUTION from run 123
USER: SCORE 9.737341 LL:  -2.600 LR:  -9.104 RR:   0.000 FEB:  -4.928
USER: RMSD 7.901853
USER: SEED 122
USER: STATUS no improvement in best in 25 clusters for 5 generations
USER: GENES 16
USER: genes 0 Translation |==|  0.59453 0.43992 0.29158
USER: genes 1 Rotation |==|  0.74710 0.26897 0.13190 0.50832
USER: genes 2 Torsion [CB]-CA--N-[C] |==|  0.47224
USER: genes 3 Torsion [N]-C--CA-[N] |==|  0.88636
USER: genes 4 Torsion [C]-CA--N-[C] |==|  0.84735
USER: genes 5 Torsion [N]-C--CA-[N] |==|  0.49471
USER: genes 6 Torsion [C]-CA--CB-[OG] |==|  0.58829
USER: genes 7 Torsion [CA]-CB--OG-[HG] |==|  0.91643
USER: genes 8 Torsion [N]-CA--CB-[CG1] |==|  0.83383
USER: genes 9 Torsion [N]-CA--C-[N] |==|  0.55631
USER: genes 10 Torsion [C]-N--CA-[CB] |==|  0.51396
USER: genes 11 Torsion [N]-CA--CB-[OG] |==|  0.90111
USER: genes 12 Torsion [CA]-CB--OG-[HG] |==|  0.50167
USER: genes 13 Torsion [N]-CA--C-[N] |==|  0.37778
USER: genes 14 Torsion [C]-N--CA-[C] |==|  0.52111
USER: genes 15 Torsion [N]-CA--C-[O] |==|  0.00181
ROOT
ATOM      1  CA  VAL B 303      14.989   3.419  30.306  1.00 37.13 LIG 0.18  C 
ENDROOT
BRANCH 1 2
ATOM      2  N   VAL B 303      15.253   4.625  31.081  1.00 37.20 LIG-0.35  N 
ATOM      3  C   SER B 302      14.516   5.722  30.942  1.00 37.39 LIG 0.24  C 
ATOM      4 O    SER B 302      13.579   5.804  30.144  1.00 37.76 LIG-0.27  OA
ATOM      5 H    VAL B 303      15.916   4.559  31.625  1.00 37.20 LIG 0.16  HD
BRANCH 3 6
ATOM      6  CA  SER B 302      14.900   6.905  31.826  1.00 37.09 LIG 0.20  C 
BRANCH 6 7
ATOM      7  N   SER B 302      15.236   6.457  33.171  1.00 36.48 LIG-0.34  N 
ATOM      8 H    SER B 302      16.012   6.705  33.444  1.00 36.48 LIG 0.16  HD
ATOM      9  C   ALA B 301      14.393   5.725  33.893  1.00 36.26 LIG 0.26  C 
ATOM     10 O    ALA B 301      13.283   5.386  33.484  1.00 35.88 LIG-0.27  OA
BRANCH 9 11
ATOM     11  CA  ALA B 301      14.872   5.315  35.282  1.00 36.43 LIG 0.40  C 
ATOM     12  CB  ALA B 301      16.142   4.478  35.170  1.00 36.70 LIG 0.06  C 
ATOM     13  N   ALA B 301      13.819   4.540  36.003  1.00 36.51 LIG 0.61  N 
ENDBRANCH 9 11
ENDBRANCH 6 7
BRANCH 6 14
ATOM     14  CB  SER B 302      16.082   7.649  31.197  1.00 37.65 LIG 0.20  C 
BRANCH 14 15
ATOM     15 OG   SER B 302      16.911   8.222  32.192  1.00 38.63 LIG-0.40  OA
ATOM     16 HG   SER B 302      16.447   8.418  32.865  1.00 38.63 LIG 0.21  HD
ENDBRANCH 14 15
ENDBRANCH 6 14
ENDBRANCH 3 6
ENDBRANCH 1 2
BRANCH 1 17
ATOM     17  CB  VAL B 303      16.126   2.377  30.466  1.00 37.28 LIG 0.01  C 
ATOM     18  CG1 VAL B 303      17.442   2.967  29.994  1.00 36.92 LIG 0.01  C 
ATOM     19  CG2 VAL B 303      16.233   1.938  31.920  1.00 37.06 LIG 0.01  C 
ENDBRANCH 1 17
BRANCH 1 20
ATOM     20  C   VAL B 303      13.683   2.792  30.771  1.00 37.27 LIG 0.24  C 
ATOM     21 O    VAL B 303      12.843   3.462  31.376  1.00 36.92 LIG-0.27  OA
ATOM     22  N   SER B 304      13.507   1.509  30.479  1.00 37.37 LIG-0.34  N 
ATOM     23 H    SER B 304      14.076   1.030  30.047  1.00 37.37 LIG 0.16  HD
BRANCH 22 24
ATOM     24  CA  SER B 304      12.301   0.797  30.883  1.00 37.74 LIG 0.20  C 
BRANCH 24 25
ATOM     25  CB  SER B 304      12.416  -0.688  30.529  1.00 37.88 LIG 0.20  C 
BRANCH 25 26
ATOM     26 OG   SER B 304      13.122  -0.863  29.311  1.00 38.36 LIG-0.40  OA
ATOM     27 HG   SER B 304      13.168  -1.682  29.129  1.00 38.36 LIG 0.21  HD
ENDBRANCH 25 26
ENDBRANCH 24 25
BRANCH 24 28
ATOM     28  C   SER B 304      12.099   0.959  32.387  1.00 37.93 LIG 0.24  C 
ATOM     29 O    SER B 304      13.050   0.843  33.161  1.00 38.21 LIG-0.27  OA
ATOM     30  N   ALA B 305      10.865   1.229  32.796  1.00 38.06 LIG-0.35  N 
ATOM     31 H    ALA B 305      10.191   1.311  32.268  1.00 38.06 LIG 0.16  HD
BRANCH 30 32
ATOM     32  CA  ALA B 305      10.552   1.411  34.209  1.00 38.30 LIG 0.16  C 
ATOM     33  CB  ALA B 305      11.254   2.663  34.734  1.00 38.13 LIG 0.04  C 
BRANCH 32 34
ATOM     34  C   ALA B 305       9.049   1.525  34.435  1.00 38.47 LIG 0.22  C 
ATOM     35 O    ALA B 305       8.298   1.440  33.441  1.00 38.58 LIG-0.29  OA
ENDBRANCH 32 34
ENDBRANCH 30 32
ENDBRANCH 24 28
ENDBRANCH 22 24
ENDBRANCH 1 20
TORSDOF 14
ENDMDL
MODEL 130
USER: ADFR SOLUTION from run 164
USER: SCORE 9.672529 LL:  -2.011 LR:  -9.093 RR:   0.000 FEB:  -4.917
USER: RMSD 4.624003
USER: SEED 163
USER: STATUS no improvement in best in 18 clusters for 5 generations
USER: GENES 16
USER: genes 0 Translation |==|  0.49516 0.46132 0.37119
USER: genes 1 Rotation |==|  0.73219 0.66928 0.32002 0.86748
USER: genes 2 Torsion [CB]-CA--N-[C] |==|  0.48506
USER: genes 3 Torsion [N]-C--CA-[N] |==|  0.93996
USER: genes 4 Torsion [C]-CA--N-[C] |==|  0.76249
USER: genes 5 Torsion [N]-C--CA-[N] |==|  0.07604
USER: genes 6 Torsion [C]-CA--CB-[OG] |==|  0.77549
USER: genes 7 Torsion [CA]-CB--OG-[HG] |==|  0.95858
USER: genes 8 Torsion [N]-CA--CB-[CG1] |==|  0.26152
USER: genes 9 Torsion [N]-CA--C-[N] |==|  0.45293
USER: genes 10 Torsion [C]-N--CA-[CB] |==|  0.51787
USER: genes 11 Torsion [N]-CA--CB-[OG] |==|  0.56994
USER: genes 12 Torsion [CA]-CB--OG-[HG] |==|  0.16914
USER: genes 13 Torsion [N]-CA--C-[N] |==|  0.34765
USER: genes 14 Torsion [C]-N--CA-[C] |==|  0.51884
USER: genes 15 Torsion [N]-CA--C-[O] |==|  0.08573
ROOT
ATOM      1  CA  VAL B 303      12.977   3.853  31.500  1.00 37.13 LIG 0.18  C 
ENDROOT
BRANCH 1 2
ATOM      2  N   VAL B 303      12.215   3.422  32.666  1.00 37.20 LIG-0.35  N 
ATOM      3  C   SER B 302      12.127   2.142  33.011  1.00 37.39 LIG 0.24  C 
ATOM      4 O    SER B 302      12.662   1.236  32.367  1.00 37.76 LIG-0.27  OA
ATOM      5 H    VAL B 303      11.838   4.062  33.099  1.00 37.20 LIG 0.16  HD
BRANCH 3 6
ATOM      6  CA  SER B 302      11.306   1.839  34.260  1.00 37.09 LIG 0.20  C 
BRANCH 6 7
ATOM      7  N   SER B 302      11.200   3.019  35.108  1.00 36.48 LIG-0.34  N 
ATOM      8 H    SER B 302      10.489   3.487  34.978  1.00 36.48 LIG 0.16  HD
ATOM      9  C   ALA B 301      12.138   3.325  35.999  1.00 36.26 LIG 0.26  C 
ATOM     10 O    ALA B 301      13.144   2.637  36.173  1.00 35.88 LIG-0.27  OA
BRANCH 9 11
ATOM     11  CA  ALA B 301      11.908   4.593  36.816  1.00 36.43 LIG 0.40  C 
ATOM     12  CB  ALA B 301      12.531   4.440  38.200  1.00 36.70 LIG 0.06  C 
ATOM     13  N   ALA B 301      10.450   4.885  36.948  1.00 36.51 LIG 0.61  N 
ENDBRANCH 9 11
ENDBRANCH 6 7
BRANCH 6 14
ATOM     14  CB  SER B 302       9.915   1.347  33.849  1.00 37.65 LIG 0.20  C 
BRANCH 14 15
ATOM     15 OG   SER B 302       9.067   2.432  33.520  1.00 38.63 LIG-0.40  OA
ATOM     16 HG   SER B 302       9.405   3.148  33.800  1.00 38.63 LIG 0.21  HD
ENDBRANCH 14 15
ENDBRANCH 6 14
ENDBRANCH 3 6
ENDBRANCH 1 2
BRANCH 1 17
ATOM     17  CB  VAL B 303      12.812   5.372  31.239  1.00 37.28 LIG 0.01  C 
ATOM     18  CG1 VAL B 303      13.942   6.138  31.901  1.00 36.92 LIG 0.01  C 
ATOM     19  CG2 VAL B 303      12.790   5.648  29.742  1.00 37.06 LIG 0.01  C 
ENDBRANCH 1 17
BRANCH 1 20
ATOM     20  C   VAL B 303      14.453   3.552  31.718  1.00 37.27 LIG 0.24  C 
ATOM     21 O    VAL B 303      14.886   3.308  32.846  1.00 36.92 LIG-0.27  OA
ATOM     22  N   SER B 304      15.223   3.558  30.637  1.00 37.37 LIG-0.34  N 
ATOM     23 H    SER B 304      14.936   3.713  29.841  1.00 37.37 LIG 0.16  HD
BRANCH 22 24
ATOM     24  CA  SER B 304      16.655   3.296  30.722  1.00 37.74 LIG 0.20  C 
BRANCH 24 25
ATOM     25  CB  SER B 304      17.318   3.522  29.362  1.00 37.88 LIG 0.20  C 
BRANCH 25 26
ATOM     26 OG   SER B 304      18.510   2.761  29.248  1.00 38.36 LIG-0.40  OA
ATOM     27 HG   SER B 304      18.328   1.944  29.316  1.00 38.36 LIG 0.21  HD
ENDBRANCH 25 26
ENDBRANCH 24 25
BRANCH 24 28
ATOM     28  C   SER B 304      17.275   4.221  31.765  1.00 37.93 LIG 0.24  C 
ATOM     29 O    SER B 304      17.125   5.441  31.687  1.00 38.21 LIG-0.27  OA
ATOM     30  N   ALA B 305      17.968   3.641  32.738  1.00 38.06 LIG-0.35  N 
ATOM     31 H    ALA B 305      18.084   2.792  32.805  1.00 38.06 LIG 0.16  HD
BRANCH 30 32
ATOM     32  CA  ALA B 305      18.601   4.423  33.794  1.00 38.30 LIG 0.16  C 
ATOM     33  CB  ALA B 305      17.530   5.122  34.630  1.00 38.13 LIG 0.04  C 
BRANCH 32 34
ATOM     34  C   ALA B 305      19.469   3.546  34.690  1.00 38.47 LIG 0.22  C 
ATOM     35 O    ALA B 305      20.017   2.547  34.180  1.00 38.58 LIG-0.29  OA
ENDBRANCH 32 34
ENDBRANCH 30 32
ENDBRANCH 24 28
ENDBRANCH 22 24
ENDBRANCH 1 20
TORSDOF 14
ENDMDL
MODEL 131
USER: ADFR SOLUTION from run 154
USER: SCORE 9.259844 LL:  -1.993 LR:  -9.086 RR:   0.000 FEB:  -4.910
USER: RMSD 7.436518
USER: SEED 153
USER: STATUS no improvement in best in 22 clusters for 5 generations
USER: GENES 16
USER: genes 0 Translation |==|  0.64840 0.49365 0.35790
USER: genes 1 Rotation |==|  0.69284 0.53964 0.11978 0.75822
USER: genes 2 Torsion [CB]-CA--N-[C] |==|  0.79282
USER: genes 3 Torsion [N]-C--CA-[N] |==|  0.21897
USER: genes 4 Torsion [C]-CA--N-[C] |==|  0.79418
USER: genes 5 Torsion [N]-C--CA-[N] |==|  0.41120
USER: genes 6 Torsion [C]-CA--CB-[OG] |==|  0.69070
USER: genes 7 Torsion [CA]-CB--OG-[HG] |==|  0.81056
USER: genes 8 Torsion [N]-CA--CB-[CG1] |==|  0.58145
USER: genes 9 Torsion [N]-CA--C-[N] |==|  0.21484
USER: genes 10 Torsion [C]-N--CA-[CB] |==|  0.23217
USER: genes 11 Torsion [N]-CA--CB-[OG] |==|  0.64644
USER: genes 12 Torsion [CA]-CB--OG-[HG] |==|  0.12162
USER: genes 13 Torsion [N]-CA--C-[N] |==|  0.32227
USER: genes 14 Torsion [C]-N--CA-[C] |==|  0.17093
USER: genes 15 Torsion [N]-CA--C-[O] |==|  0.24117
ROOT
ATOM      1  CA  VAL B 303      16.080   4.507  31.301  1.00 37.13 LIG 0.18  C 
ENDROOT
BRANCH 1 2
ATOM      2  N   VAL B 303      15.733   5.197  32.536  1.00 37.20 LIG-0.35  N 
ATOM      3  C   SER B 302      16.583   5.283  33.554  1.00 37.39 LIG 0.24  C 
ATOM      4 O    SER B 302      17.708   4.775  33.532  1.00 37.76 LIG-0.27  OA
ATOM      5 H    VAL B 303      14.942   5.536  32.543  1.00 37.20 LIG 0.16  HD
BRANCH 3 6
ATOM      6  CA  SER B 302      16.089   6.044  34.780  1.00 37.09 LIG 0.20  C 
BRANCH 6 7
ATOM      7  N   SER B 302      15.200   5.212  35.580  1.00 36.48 LIG-0.34  N 
ATOM      8 H    SER B 302      15.548   4.918  36.310  1.00 36.48 LIG 0.16  HD
ATOM      9  C   ALA B 301      13.957   4.945  35.192  1.00 36.26 LIG 0.26  C 
ATOM     10 O    ALA B 301      13.475   5.382  34.147  1.00 35.88 LIG-0.27  OA
BRANCH 9 11
ATOM     11  CA  ALA B 301      13.134   4.055  36.118  1.00 36.43 LIG 0.40  C 
ATOM     12  CB  ALA B 301      13.314   2.591  35.729  1.00 36.70 LIG 0.06  C 
ATOM     13  N   ALA B 301      11.687   4.418  36.061  1.00 36.51 LIG 0.61  N 
ENDBRANCH 9 11
ENDBRANCH 6 7
BRANCH 6 14
ATOM     14  CB  SER B 302      17.290   6.502  35.614  1.00 37.65 LIG 0.20  C 
BRANCH 14 15
ATOM     15 OG   SER B 302      17.350   5.806  36.846  1.00 38.63 LIG-0.40  OA
ATOM     16 HG   SER B 302      16.704   6.037  37.330  1.00 38.63 LIG 0.21  HD
ENDBRANCH 14 15
ENDBRANCH 6 14
ENDBRANCH 3 6
ENDBRANCH 1 2
BRANCH 1 17
ATOM     17  CB  VAL B 303      17.065   5.340  30.440  1.00 37.28 LIG 0.01  C 
ATOM     18  CG1 VAL B 303      16.862   5.027  28.969  1.00 36.92 LIG 0.01  C 
ATOM     19  CG2 VAL B 303      16.860   6.826  30.699  1.00 37.06 LIG 0.01  C 
ENDBRANCH 1 17
BRANCH 1 20
ATOM     20  C   VAL B 303      16.729   3.170  31.631  1.00 37.27 LIG 0.24  C 
ATOM     21 O    VAL B 303      17.951   3.029  31.558  1.00 36.92 LIG-0.27  OA
ATOM     22  N   SER B 304      15.911   2.193  32.004  1.00 37.37 LIG-0.34  N 
ATOM     23 H    SER B 304      15.058   2.278  32.072  1.00 37.37 LIG 0.16  HD
BRANCH 22 24
ATOM     24  CA  SER B 304      16.415   0.866  32.334  1.00 37.74 LIG 0.20  C 
BRANCH 24 25
ATOM     25  CB  SER B 304      16.897   0.826  33.785  1.00 37.88 LIG 0.20  C 
BRANCH 25 26
ATOM     26 OG   SER B 304      18.223   0.329  33.863  1.00 38.36 LIG-0.40  OA
ATOM     27 HG   SER B 304      18.690   0.680  33.260  1.00 38.36 LIG 0.21  HD
ENDBRANCH 25 26
ENDBRANCH 24 25
BRANCH 24 28
ATOM     28  C   SER B 304      15.304  -0.160  32.126  1.00 37.93 LIG 0.24  C 
ATOM     29 O    SER B 304      14.280  -0.121  32.809  1.00 38.21 LIG-0.27  OA
ATOM     30  N   ALA B 305      15.507  -1.073  31.182  1.00 38.06 LIG-0.35  N 
ATOM     31 H    ALA B 305      16.216  -1.115  30.698  1.00 38.06 LIG 0.16  HD
BRANCH 30 32
ATOM     32  CA  ALA B 305      14.513  -2.099  30.889  1.00 38.30 LIG 0.16  C 
ATOM     33  CB  ALA B 305      14.269  -2.951  32.133  1.00 38.13 LIG 0.04  C 
BRANCH 32 34
ATOM     34  C   ALA B 305      13.201  -1.484  30.415  1.00 38.47 LIG 0.22  C 
ATOM     35 O    ALA B 305      13.075  -1.237  29.197  1.00 38.58 LIG-0.29  OA
ENDBRANCH 32 34
ENDBRANCH 30 32
ENDBRANCH 24 28
ENDBRANCH 22 24
ENDBRANCH 1 20
TORSDOF 14
ENDMDL
MODEL 132
USER: ADFR SOLUTION from run 101
USER: SCORE 9.148046 LL:  -1.703 LR:  -9.087 RR:   0.000 FEB:  -4.911
USER: RMSD 5.008006
USER: SEED 100
USER: STATUS searching
USER: GENES 16
USER: genes 0 Translation |==|  0.72231 0.56044 0.47099
USER: genes 1 Rotation |==|  0.37661 0.46488 0.46936 0.98229
USER: genes 2 Torsion [CB]-CA--N-[C] |==|  0.19144
USER: genes 3 Torsion [N]-C--CA-[N] |==|  0.33889
USER: genes 4 Torsion [C]-CA--N-[C] |==|  0.83054
USER: genes 5 Torsion [N]-C--CA-[N] |==|  0.55581
USER: genes 6 Torsion [C]-CA--CB-[OG] |==|  0.46648
USER: genes 7 Torsion [CA]-CB--OG-[HG] |==|  0.57689
USER: genes 8 Torsion [N]-CA--CB-[CG1] |==|  0.75491
USER: genes 9 Torsion [N]-CA--C-[N] |==|  0.85503
USER: genes 10 Torsion [C]-N--CA-[CB] |==|  0.19434
USER: genes 11 Torsion [N]-CA--CB-[OG] |==|  0.68509
USER: genes 12 Torsion [CA]-CB--OG-[HG] |==|  0.84425
USER: genes 13 Torsion [N]-CA--C-[N] |==|  0.50685
USER: genes 14 Torsion [C]-N--CA-[C] |==|  0.19639
USER: genes 15 Torsion [N]-CA--C-[O] |==|  0.89130
ROOT
ATOM      1  CA  VAL B 303      17.577   5.860  32.997  1.00 37.13 LIG 0.18  C 
ENDROOT
BRANCH 1 2
ATOM      2  N   VAL B 303      16.221   6.061  33.492  1.00 37.20 LIG-0.35  N 
ATOM      3  C   SER B 302      15.406   5.040  33.737  1.00 37.39 LIG 0.24  C 
ATOM      4 O    SER B 302      15.729   3.864  33.548  1.00 37.76 LIG-0.27  OA
ATOM      5 H    VAL B 303      16.004   6.885  33.608  1.00 37.20 LIG 0.16  HD
BRANCH 3 6
ATOM      6  CA  SER B 302      14.020   5.398  34.262  1.00 37.09 LIG 0.20  C 
BRANCH 6 7
ATOM      7  N   SER B 302      12.983   4.875  33.382  1.00 36.48 LIG-0.34  N 
ATOM      8 H    SER B 302      12.450   4.313  33.756  1.00 36.48 LIG 0.16  HD
ATOM      9  C   ALA B 301      12.891   5.253  32.111  1.00 36.26 LIG 0.26  C 
ATOM     10 O    ALA B 301      13.661   6.065  31.598  1.00 35.88 LIG-0.27  OA
BRANCH 9 11
ATOM     11  CA  ALA B 301      11.765   4.623  31.297  1.00 36.43 LIG 0.40  C 
ATOM     12  CB  ALA B 301      11.598   3.157  31.686  1.00 36.70 LIG 0.06  C 
ATOM     13  N   ALA B 301      12.041   4.728  29.834  1.00 36.51 LIG 0.61  N 
ENDBRANCH 9 11
ENDBRANCH 6 7
BRANCH 6 14
ATOM     14  CB  SER B 302      13.852   4.841  35.679  1.00 37.65 LIG 0.20  C 
BRANCH 14 15
ATOM     15 OG   SER B 302      12.701   5.378  36.305  1.00 38.63 LIG-0.40  OA
ATOM     16 HG   SER B 302      12.812   5.386  37.138  1.00 38.63 LIG 0.21  HD
ENDBRANCH 14 15
ENDBRANCH 6 14
ENDBRANCH 3 6
ENDBRANCH 1 2
BRANCH 1 17
ATOM     17  CB  VAL B 303      17.580   5.327  31.541  1.00 37.28 LIG 0.01  C 
ATOM     18  CG1 VAL B 303      17.517   3.811  31.543  1.00 36.92 LIG 0.01  C 
ATOM     19  CG2 VAL B 303      16.401   5.905  30.769  1.00 37.06 LIG 0.01  C 
ENDBRANCH 1 17
BRANCH 1 20
ATOM     20  C   VAL B 303      18.332   7.181  33.035  1.00 37.27 LIG 0.24  C 
ATOM     21 O    VAL B 303      19.434   7.261  33.580  1.00 36.92 LIG-0.27  OA
ATOM     22  N   SER B 304      17.743   8.215  32.446  1.00 37.37 LIG-0.34  N 
ATOM     23 H    SER B 304      16.981   8.175  32.050  1.00 37.37 LIG 0.16  HD
BRANCH 22 24
ATOM     24  CA  SER B 304      18.364   9.534  32.428  1.00 37.74 LIG 0.20  C 
BRANCH 24 25
ATOM     25  CB  SER B 304      19.592   9.531  31.515  1.00 37.88 LIG 0.20  C 
BRANCH 25 26
ATOM     26 OG   SER B 304      20.780   9.720  32.266  1.00 38.36 LIG-0.40  OA
ATOM     27 HG   SER B 304      20.721  10.432  32.709  1.00 38.36 LIG 0.21  HD
ENDBRANCH 25 26
ENDBRANCH 24 25
BRANCH 24 28
ATOM     28  C   SER B 304      17.350  10.561  31.933  1.00 37.93 LIG 0.24  C 
ATOM     29 O    SER B 304      16.195  10.223  31.668  1.00 38.21 LIG-0.27  OA
ATOM     30  N   ALA B 305      17.781  11.811  31.811  1.00 38.06 LIG-0.35  N 
ATOM     31 H    ALA B 305      18.584  12.063  31.989  1.00 38.06 LIG 0.16  HD
BRANCH 30 32
ATOM     32  CA  ALA B 305      16.901  12.880  31.353  1.00 38.30 LIG 0.16  C 
ATOM     33  CB  ALA B 305      16.214  12.462  30.054  1.00 38.13 LIG 0.04  C 
BRANCH 32 34
ATOM     34  C   ALA B 305      15.854  13.228  32.405  1.00 38.47 LIG 0.22  C 
ATOM     35 O    ALA B 305      15.344  12.292  33.057  1.00 38.58 LIG-0.29  OA
ENDBRANCH 32 34
ENDBRANCH 30 32
ENDBRANCH 24 28
ENDBRANCH 22 24
ENDBRANCH 1 20
TORSDOF 14
ENDMDL
MODEL 133
USER: ADFR SOLUTION from run 4
USER: SCORE 9.468549 LL:  -1.811 LR:  -9.076 RR:   0.000 FEB:  -4.900
USER: RMSD 8.721208
USER: SEED 415467
USER: STATUS no improvement in best in 17 clusters for 5 generations
USER: GENES 16
USER: genes 0 Translation |==|  0.50830 0.51950 0.35400
USER: genes 1 Rotation |==|  0.44190 0.42042 0.98995 0.51549
USER: genes 2 Torsion [CB]-CA--N-[C] |==|  0.17222
USER: genes 3 Torsion [N]-C--CA-[N] |==|  0.48109
USER: genes 4 Torsion [C]-CA--N-[C] |==|  0.68117
USER: genes 5 Torsion [N]-C--CA-[N] |==|  0.22195
USER: genes 6 Torsion [C]-CA--CB-[OG] |==|  0.54925
USER: genes 7 Torsion [CA]-CB--OG-[HG] |==|  0.41545
USER: genes 8 Torsion [N]-CA--CB-[CG1] |==|  0.15916
USER: genes 9 Torsion [N]-CA--C-[N] |==|  0.17593
USER: genes 10 Torsion [C]-N--CA-[CB] |==|  0.20155
USER: genes 11 Torsion [N]-CA--CB-[OG] |==|  0.05344
USER: genes 12 Torsion [CA]-CB--OG-[HG] |==|  0.61181
USER: genes 13 Torsion [N]-CA--C-[N] |==|  0.87163
USER: genes 14 Torsion [C]-N--CA-[C] |==|  0.57824
USER: genes 15 Torsion [N]-CA--C-[O] |==|  0.05917
ROOT
ATOM      1  CA  VAL B 303      13.243   5.031  31.242  1.00 37.13 LIG 0.18  C 
ENDROOT
BRANCH 1 2
ATOM      2  N   VAL B 303      14.321   4.953  32.220  1.00 37.20 LIG-0.35  N 
ATOM      3  C   SER B 302      15.136   5.977  32.448  1.00 37.39 LIG 0.24  C 
ATOM      4 O    SER B 302      15.051   7.049  31.842  1.00 37.76 LIG-0.27  OA
ATOM      5 H    VAL B 303      14.376   4.197  32.627  1.00 37.20 LIG 0.16  HD
BRANCH 3 6
ATOM      6  CA  SER B 302      16.211   5.758  33.507  1.00 37.09 LIG 0.20  C 
BRANCH 6 7
ATOM      7  N   SER B 302      17.132   6.886  33.549  1.00 36.48 LIG-0.34  N 
ATOM      8 H    SER B 302      16.776   7.626  33.803  1.00 36.48 LIG 0.16  HD
ATOM      9  C   ALA B 301      18.413   6.753  33.216  1.00 36.26 LIG 0.26  C 
ATOM     10 O    ALA B 301      18.904   5.682  32.862  1.00 35.88 LIG-0.27  OA
BRANCH 9 11
ATOM     11  CA  ALA B 301      19.267   8.015  33.296  1.00 36.43 LIG 0.40  C 
ATOM     12  CB  ALA B 301      20.504   7.863  32.416  1.00 36.70 LIG 0.06  C 
ATOM     13  N   ALA B 301      19.680   8.292  34.703  1.00 36.51 LIG 0.61  N 
ENDBRANCH 9 11
ENDBRANCH 6 7
BRANCH 6 14
ATOM     14  CB  SER B 302      15.548   5.556  34.873  1.00 37.65 LIG 0.20  C 
BRANCH 14 15
ATOM     15 OG   SER B 302      16.476   5.752  35.924  1.00 38.63 LIG-0.40  OA
ATOM     16 HG   SER B 302      16.075   6.048  36.601  1.00 38.63 LIG 0.21  HD
ENDBRANCH 14 15
ENDBRANCH 6 14
ENDBRANCH 3 6
ENDBRANCH 1 2
BRANCH 1 17
ATOM     17  CB  VAL B 303      13.788   5.270  29.810  1.00 37.28 LIG 0.01  C 
ATOM     18  CG1 VAL B 303      14.760   4.169  29.434  1.00 36.92 LIG 0.01  C 
ATOM     19  CG2 VAL B 303      12.638   5.326  28.814  1.00 37.06 LIG 0.01  C 
ENDBRANCH 1 17
BRANCH 1 20
ATOM     20  C   VAL B 303      12.453   3.730  31.253  1.00 37.27 LIG 0.24  C 
ATOM     21 O    VAL B 303      12.424   3.003  30.258  1.00 36.92 LIG-0.27  OA
ATOM     22  N   SER B 304      11.821   3.432  32.381  1.00 37.37 LIG-0.34  N 
ATOM     23 H    SER B 304      11.840   3.921  33.089  1.00 37.37 LIG 0.16  HD
BRANCH 22 24
ATOM     24  CA  SER B 304      11.022   2.219  32.508  1.00 37.74 LIG 0.20  C 
BRANCH 24 25
ATOM     25  CB  SER B 304      11.932   0.991  32.587  1.00 37.88 LIG 0.20  C 
BRANCH 25 26
ATOM     26 OG   SER B 304      13.250   1.361  32.957  1.00 38.36 LIG-0.40  OA
ATOM     27 HG   SER B 304      13.803   0.913  32.510  1.00 38.36 LIG 0.21  HD
ENDBRANCH 25 26
ENDBRANCH 24 25
BRANCH 24 28
ATOM     28  C   SER B 304      10.162   2.312  33.764  1.00 37.93 LIG 0.24  C 
ATOM     29 O    SER B 304       8.968   2.012  33.729  1.00 38.21 LIG-0.27  OA
ATOM     30  N   ALA B 305      10.768   2.725  34.872  1.00 38.06 LIG-0.35  N 
ATOM     31 H    ALA B 305      11.600   2.941  34.912  1.00 38.06 LIG 0.16  HD
BRANCH 30 32
ATOM     32  CA  ALA B 305      10.049   2.847  36.135  1.00 38.30 LIG 0.16  C 
ATOM     33  CB  ALA B 305      10.052   1.503  36.862  1.00 38.13 LIG 0.04  C 
BRANCH 32 34
ATOM     34  C   ALA B 305      10.667   3.920  37.024  1.00 38.47 LIG 0.22  C 
ATOM     35 O    ALA B 305      11.371   4.798  36.483  1.00 38.58 LIG-0.29  OA
ENDBRANCH 32 34
ENDBRANCH 30 32
ENDBRANCH 24 28
ENDBRANCH 22 24
ENDBRANCH 1 20
TORSDOF 14
ENDMDL
MODEL 134
USER: ADFR SOLUTION from run 51
USER: SCORE 9.083218 LL:  -1.822 LR:  -9.084 RR:   0.000 FEB:  -4.907
USER: RMSD 8.958370
USER: SEED 50
USER: STATUS no improvement in best in 30 clusters for 5 generations
USER: GENES 16
USER: genes 0 Translation |==|  0.63523 0.47464 0.29824
USER: genes 1 Rotation |==|  0.29520 0.65062 0.89434 0.67281
USER: genes 2 Torsion [CB]-CA--N-[C] |==|  0.42867
USER: genes 3 Torsion [N]-C--CA-[N] |==|  0.40910
USER: genes 4 Torsion [C]-CA--N-[C] |==|  0.79633
USER: genes 5 Torsion [N]-C--CA-[N] |==|  0.31008
USER: genes 6 Torsion [C]-CA--CB-[OG] |==|  0.38876
USER: genes 7 Torsion [CA]-CB--OG-[HG] |==|  0.39045
USER: genes 8 Torsion [N]-CA--CB-[CG1] |==|  0.81172
USER: genes 9 Torsion [N]-CA--C-[N] |==|  0.04422
USER: genes 10 Torsion [C]-N--CA-[CB] |==|  0.85095
USER: genes 11 Torsion [N]-CA--CB-[OG] |==|  0.87741
USER: genes 12 Torsion [CA]-CB--OG-[HG] |==|  0.85750
USER: genes 13 Torsion [N]-CA--C-[N] |==|  0.34444
USER: genes 14 Torsion [C]-N--CA-[C] |==|  0.52619
USER: genes 15 Torsion [N]-CA--C-[O] |==|  0.24897
ROOT
ATOM      1  CA  VAL B 303      15.813   4.122  30.406  1.00 37.13 LIG 0.18  C 
ENDROOT
BRANCH 1 2
ATOM      2  N   VAL B 303      16.268   4.405  31.761  1.00 37.20 LIG-0.35  N 
ATOM      3  C   SER B 302      16.341   5.646  32.231  1.00 37.39 LIG 0.24  C 
ATOM      4 O    SER B 302      16.049   6.637  31.555  1.00 37.76 LIG-0.27  OA
ATOM      5 H    VAL B 303      16.480   3.708  32.217  1.00 37.20 LIG 0.16  HD
BRANCH 3 6
ATOM      6  CA  SER B 302      16.824   5.792  33.670  1.00 37.09 LIG 0.20  C 
BRANCH 6 7
ATOM      7  N   SER B 302      17.574   7.029  33.840  1.00 36.48 LIG-0.34  N 
ATOM      8 H    SER B 302      17.156   7.642  34.275  1.00 36.48 LIG 0.16  HD
ATOM      9  C   ALA B 301      18.803   7.172  33.354  1.00 36.26 LIG 0.26  C 
ATOM     10 O    ALA B 301      19.387   6.278  32.741  1.00 35.88 LIG-0.27  OA
BRANCH 9 11
ATOM     11  CA  ALA B 301      19.475   8.521  33.594  1.00 36.43 LIG 0.40  C 
ATOM     12  CB  ALA B 301      19.966   9.101  32.272  1.00 36.70 LIG 0.06  C 
ATOM     13  N   ALA B 301      20.620   8.385  34.542  1.00 36.51 LIG 0.61  N 
ENDBRANCH 9 11
ENDBRANCH 6 7
BRANCH 6 14
ATOM     14  CB  SER B 302      15.620   5.761  34.617  1.00 37.65 LIG 0.20  C 
BRANCH 14 15
ATOM     15 OG   SER B 302      15.910   5.016  35.786  1.00 38.63 LIG-0.40  OA
ATOM     16 HG   SER B 302      15.571   5.397  36.453  1.00 38.63 LIG 0.21  HD
ENDBRANCH 14 15
ENDBRANCH 6 14
ENDBRANCH 3 6
ENDBRANCH 1 2
BRANCH 1 17
ATOM     17  CB  VAL B 303      16.391   2.784  29.877  1.00 37.28 LIG 0.01  C 
ATOM     18  CG1 VAL B 303      17.890   2.906  29.682  1.00 36.92 LIG 0.01  C 
ATOM     19  CG2 VAL B 303      16.074   1.656  30.850  1.00 37.06 LIG 0.01  C 
ENDBRANCH 1 17
BRANCH 1 20
ATOM     20  C   VAL B 303      14.293   4.040  30.387  1.00 37.27 LIG 0.24  C 
ATOM     21 O    VAL B 303      13.702   3.522  29.438  1.00 36.92 LIG-0.27  OA
ATOM     22  N   SER B 304      13.662   4.541  31.442  1.00 37.37 LIG-0.34  N 
ATOM     23 H    SER B 304      14.058   4.895  32.118  1.00 37.37 LIG 0.16  HD
BRANCH 22 24
ATOM     24  CA  SER B 304      12.207   4.530  31.532  1.00 37.74 LIG 0.20  C 
BRANCH 24 25
ATOM     25  CB  SER B 304      11.592   5.179  30.290  1.00 37.88 LIG 0.20  C 
BRANCH 25 26
ATOM     26 OG   SER B 304      12.280   6.373  29.951  1.00 38.36 LIG-0.40  OA
ATOM     27 HG   SER B 304      12.336   6.866  30.629  1.00 38.36 LIG 0.21  HD
ENDBRANCH 25 26
ENDBRANCH 24 25
BRANCH 24 28
ATOM     28  C   SER B 304      11.722   3.089  31.661  1.00 37.93 LIG 0.24  C 
ATOM     29 O    SER B 304      12.031   2.247  30.817  1.00 38.21 LIG-0.27  OA
ATOM     30  N   ALA B 305      10.965   2.809  32.716  1.00 38.06 LIG-0.35  N 
ATOM     31 H    ALA B 305      10.738   3.385  33.312  1.00 38.06 LIG 0.16  HD
BRANCH 30 32
ATOM     32  CA  ALA B 305      10.448   1.465  32.948  1.00 38.30 LIG 0.16  C 
ATOM     33  CB  ALA B 305      11.602   0.517  33.272  1.00 38.13 LIG 0.04  C 
BRANCH 32 34
ATOM     34  C   ALA B 305       9.429   1.449  34.081  1.00 38.47 LIG 0.22  C 
ATOM     35 O    ALA B 305       8.228   1.636  33.794  1.00 38.58 LIG-0.29  OA
ENDBRANCH 32 34
ENDBRANCH 30 32
ENDBRANCH 24 28
ENDBRANCH 22 24
ENDBRANCH 1 20
TORSDOF 14
ENDMDL
MODEL 135
USER: ADFR SOLUTION from run 65
USER: SCORE 9.789616 LL:  -2.319 LR:  -9.071 RR:   0.000 FEB:  -4.895
USER: RMSD 6.879738
USER: SEED 64
USER: STATUS no improvement in best in 24 clusters for 5 generations
USER: GENES 16
USER: genes 0 Translation |==|  0.70945 0.45058 0.41036
USER: genes 1 Rotation |==|  0.47364 0.52091 0.89992 0.79821
USER: genes 2 Torsion [CB]-CA--N-[C] |==|  0.49524
USER: genes 3 Torsion [N]-C--CA-[N] |==|  0.95630
USER: genes 4 Torsion [C]-CA--N-[C] |==|  0.78355
USER: genes 5 Torsion [N]-C--CA-[N] |==|  0.70962
USER: genes 6 Torsion [C]-CA--CB-[OG] |==|  0.77074
USER: genes 7 Torsion [CA]-CB--OG-[HG] |==|  0.01215
USER: genes 8 Torsion [N]-CA--CB-[CG1] |==|  0.17508
USER: genes 9 Torsion [N]-CA--C-[N] |==|  0.88605
USER: genes 10 Torsion [C]-N--CA-[CB] |==|  0.87700
USER: genes 11 Torsion [N]-CA--CB-[OG] |==|  0.30776
USER: genes 12 Torsion [CA]-CB--OG-[HG] |==|  0.18593
USER: genes 13 Torsion [N]-CA--C-[N] |==|  0.87784
USER: genes 14 Torsion [C]-N--CA-[C] |==|  0.71647
USER: genes 15 Torsion [N]-CA--C-[O] |==|  0.20235
ROOT
ATOM      1  CA  VAL B 303      17.316   3.635  32.087  1.00 37.13 LIG 0.18  C 
ENDROOT
BRANCH 1 2
ATOM      2  N   VAL B 303      17.905   2.594  32.920  1.00 37.20 LIG-0.35  N 
ATOM      3  C   SER B 302      18.117   2.773  34.220  1.00 37.39 LIG 0.24  C 
ATOM      4 O    SER B 302      17.850   3.827  34.804  1.00 37.76 LIG-0.27  OA
ATOM      5 H    VAL B 303      18.097   1.869  32.499  1.00 37.20 LIG 0.16  HD
BRANCH 3 6
ATOM      6  CA  SER B 302      18.729   1.594  34.969  1.00 37.09 LIG 0.20  C 
BRANCH 6 7
ATOM      7  N   SER B 302      18.623   0.372  34.183  1.00 36.48 LIG-0.34  N 
ATOM      8 H    SER B 302      19.351   0.138  33.790  1.00 36.48 LIG 0.16  HD
ATOM      9  C   ALA B 301      17.483  -0.307  34.099  1.00 36.26 LIG 0.26  C 
ATOM     10 O    ALA B 301      16.454   0.042  34.678  1.00 35.88 LIG-0.27  OA
BRANCH 9 11
ATOM     11  CA  ALA B 301      17.506  -1.565  33.237  1.00 36.43 LIG 0.40  C 
ATOM     12  CB  ALA B 301      18.947  -2.002  32.991  1.00 36.70 LIG 0.06  C 
ATOM     13  N   ALA B 301      16.821  -1.330  31.932  1.00 36.51 LIG 0.61  N 
ENDBRANCH 9 11
ENDBRANCH 6 7
BRANCH 6 14
ATOM     14  CB  SER B 302      20.195   1.900  35.291  1.00 37.65 LIG 0.20  C 
BRANCH 14 15
ATOM     15 OG   SER B 302      21.030   1.618  34.182  1.00 38.63 LIG-0.40  OA
ATOM     16 HG   SER B 302      20.557   1.389  33.526  1.00 38.63 LIG 0.21  HD
ENDBRANCH 14 15
ENDBRANCH 6 14
ENDBRANCH 3 6
ENDBRANCH 1 2
BRANCH 1 17
ATOM     17  CB  VAL B 303      17.216   3.192  30.605  1.00 37.28 LIG 0.01  C 
ATOM     18  CG1 VAL B 303      16.290   1.996  30.483  1.00 36.92 LIG 0.01  C 
ATOM     19  CG2 VAL B 303      16.711   4.343  29.746  1.00 37.06 LIG 0.01  C 
ENDBRANCH 1 17
BRANCH 1 20
ATOM     20  C   VAL B 303      15.919   3.963  32.595  1.00 37.27 LIG 0.24  C 
ATOM     21 O    VAL B 303      15.521   5.128  32.638  1.00 36.92 LIG-0.27  OA
ATOM     22  N   SER B 304      15.171   2.932  32.971  1.00 37.37 LIG-0.34  N 
ATOM     23 H    SER B 304      15.428   2.112  32.937  1.00 37.37 LIG 0.16  HD
BRANCH 22 24
ATOM     24  CA  SER B 304      13.821   3.121  33.486  1.00 37.74 LIG 0.20  C 
BRANCH 24 25
ATOM     25  CB  SER B 304      13.790   4.281  34.484  1.00 37.88 LIG 0.20  C 
BRANCH 25 26
ATOM     26 OG   SER B 304      13.077   5.386  33.953  1.00 38.36 LIG-0.40  OA
ATOM     27 HG   SER B 304      12.266   5.183  33.872  1.00 38.36 LIG 0.21  HD
ENDBRANCH 25 26
ENDBRANCH 24 25
BRANCH 24 28
ATOM     28  C   SER B 304      12.875   3.410  32.324  1.00 37.93 LIG 0.24  C 
ATOM     29 O    SER B 304      11.773   2.863  32.262  1.00 38.21 LIG-0.27  OA
ATOM     30  N   ALA B 305      13.305   4.269  31.406  1.00 38.06 LIG-0.35  N 
ATOM     31 H    ALA B 305      14.072   4.657  31.433  1.00 38.06 LIG 0.16  HD
BRANCH 30 32
ATOM     32  CA  ALA B 305      12.487   4.628  30.254  1.00 38.30 LIG 0.16  C 
ATOM     33  CB  ALA B 305      12.546   6.138  30.028  1.00 38.13 LIG 0.04  C 
BRANCH 32 34
ATOM     34  C   ALA B 305      12.946   3.897  28.997  1.00 38.47 LIG 0.22  C 
ATOM     35 O    ALA B 305      12.699   2.676  28.905  1.00 38.58 LIG-0.29  OA
ENDBRANCH 32 34
ENDBRANCH 30 32
ENDBRANCH 24 28
ENDBRANCH 22 24
ENDBRANCH 1 20
TORSDOF 14
ENDMDL
MODEL 136
USER: ADFR SOLUTION from run 47
USER: SCORE 8.912659 LL:  -1.971 LR:  -9.075 RR:   0.000 FEB:  -4.898
USER: RMSD 4.288082
USER: SEED 46
USER: STATUS no improvement in best in 19 clusters for 5 generations
USER: GENES 16
USER: genes 0 Translation |==|  0.56302 0.49347 0.34875
USER: genes 1 Rotation |==|  0.54438 0.76312 0.39212 0.90885
USER: genes 2 Torsion [CB]-CA--N-[C] |==|  0.87763
USER: genes 3 Torsion [N]-C--CA-[N] |==|  0.83028
USER: genes 4 Torsion [C]-CA--N-[C] |==|  0.66490
USER: genes 5 Torsion [N]-C--CA-[N] |==|  0.49636
USER: genes 6 Torsion [C]-CA--CB-[OG] |==|  0.24802
USER: genes 7 Torsion [CA]-CB--OG-[HG] |==|  0.19180
USER: genes 8 Torsion [N]-CA--CB-[CG1] |==|  0.51050
USER: genes 9 Torsion [N]-CA--C-[N] |==|  0.86165
USER: genes 10 Torsion [C]-N--CA-[CB] |==|  0.36744
USER: genes 11 Torsion [N]-CA--CB-[OG] |==|  0.15271
USER: genes 12 Torsion [CA]-CB--OG-[HG] |==|  0.11194
USER: genes 13 Torsion [N]-CA--C-[N] |==|  0.86223
USER: genes 14 Torsion [C]-N--CA-[C] |==|  0.17410
USER: genes 15 Torsion [N]-CA--C-[O] |==|  0.79975
ROOT
ATOM      1  CA  VAL B 303      14.351   4.504  31.163  1.00 37.13 LIG 0.18  C 
ENDROOT
BRANCH 1 2
ATOM      2  N   VAL B 303      14.337   4.348  32.612  1.00 37.20 LIG-0.35  N 
ATOM      3  C   SER B 302      14.048   5.360  33.423  1.00 37.39 LIG 0.24  C 
ATOM      4 O    SER B 302      13.791   6.495  33.013  1.00 37.76 LIG-0.27  OA
ATOM      5 H    VAL B 303      14.529   3.555  32.886  1.00 37.20 LIG 0.16  HD
BRANCH 3 6
ATOM      6  CA  SER B 302      14.060   5.049  34.916  1.00 37.09 LIG 0.20  C 
BRANCH 6 7
ATOM      7  N   SER B 302      13.070   4.030  35.239  1.00 36.48 LIG-0.34  N 
ATOM      8 H    SER B 302      13.184   3.282  34.831  1.00 36.48 LIG 0.16  HD
ATOM      9  C   ALA B 301      12.084   4.264  36.099  1.00 36.26 LIG 0.26  C 
ATOM     10 O    ALA B 301      11.944   5.340  36.680  1.00 35.88 LIG-0.27  OA
BRANCH 9 11
ATOM     11  CA  ALA B 301      11.111   3.114  36.343  1.00 36.43 LIG 0.40  C 
ATOM     12  CB  ALA B 301      10.437   2.716  35.033  1.00 36.70 LIG 0.06  C 
ATOM     13  N   ALA B 301      10.075   3.495  37.348  1.00 36.51 LIG 0.61  N 
ENDBRANCH 9 11
ENDBRANCH 6 7
BRANCH 6 14
ATOM     14  CB  SER B 302      15.461   4.587  35.330  1.00 37.65 LIG 0.20  C 
BRANCH 14 15
ATOM     15 OG   SER B 302      16.269   5.686  35.709  1.00 38.63 LIG-0.40  OA
ATOM     16 HG   SER B 302      15.984   6.008  36.431  1.00 38.63 LIG 0.21  HD
ENDBRANCH 14 15
ENDBRANCH 6 14
ENDBRANCH 3 6
ENDBRANCH 1 2
BRANCH 1 17
ATOM     17  CB  VAL B 303      13.127   5.314  30.664  1.00 37.28 LIG 0.01  C 
ATOM     18  CG1 VAL B 303      13.128   5.375  29.149  1.00 36.92 LIG 0.01  C 
ATOM     19  CG2 VAL B 303      11.838   4.681  31.169  1.00 37.06 LIG 0.01  C 
ENDBRANCH 1 17
BRANCH 1 20
ATOM     20  C   VAL B 303      15.622   5.229  30.743  1.00 37.27 LIG 0.24  C 
ATOM     21 O    VAL B 303      16.329   4.787  29.836  1.00 36.92 LIG-0.27  OA
ATOM     22  N   SER B 304      15.905   6.350  31.396  1.00 37.37 LIG-0.34  N 
ATOM     23 H    SER B 304      15.417   6.680  32.023  1.00 37.37 LIG 0.16  HD
BRANCH 22 24
ATOM     24  CA  SER B 304      17.101   7.126  31.091  1.00 37.74 LIG 0.20  C 
BRANCH 24 25
ATOM     25  CB  SER B 304      16.749   8.607  30.939  1.00 37.88 LIG 0.20  C 
BRANCH 25 26
ATOM     26 OG   SER B 304      16.076   9.087  32.092  1.00 38.36 LIG-0.40  OA
ATOM     27 HG   SER B 304      16.433   8.762  32.780  1.00 38.36 LIG 0.21  HD
ENDBRANCH 25 26
ENDBRANCH 24 25
BRANCH 24 28
ATOM     28  C   SER B 304      18.119   6.944  32.213  1.00 37.93 LIG 0.24  C 
ATOM     29 O    SER B 304      19.287   6.652  31.957  1.00 38.21 LIG-0.27  OA
ATOM     30  N   ALA B 305      17.675   7.120  33.453  1.00 38.06 LIG-0.35  N 
ATOM     31 H    ALA B 305      16.862   7.322  33.648  1.00 38.06 LIG 0.16  HD
BRANCH 30 32
ATOM     32  CA  ALA B 305      18.557   6.979  34.605  1.00 38.30 LIG 0.16  C 
ATOM     33  CB  ALA B 305      19.148   5.571  34.634  1.00 38.13 LIG 0.04  C 
BRANCH 32 34
ATOM     34  C   ALA B 305      19.677   8.012  34.577  1.00 38.47 LIG 0.22  C 
ATOM     35 O    ALA B 305      20.588   7.867  33.734  1.00 38.58 LIG-0.29  OA
ENDBRANCH 32 34
ENDBRANCH 30 32
ENDBRANCH 24 28
ENDBRANCH 22 24
ENDBRANCH 1 20
TORSDOF 14
ENDMDL
MODEL 137
USER: ADFR SOLUTION from run 113
USER: SCORE 10.049721 LL:  -2.647 LR:  -9.066 RR:   0.000 FEB:  -4.890
USER: RMSD 5.208598
USER: SEED 112
USER: STATUS no improvement in best in 10 clusters for 5 generations
USER: GENES 16
USER: genes 0 Translation |==|  0.62656 0.54204 0.33498
USER: genes 1 Rotation |==|  0.70671 0.77290 0.54456 0.86168
USER: genes 2 Torsion [CB]-CA--N-[C] |==|  0.48428
USER: genes 3 Torsion [N]-C--CA-[N] |==|  0.91684
USER: genes 4 Torsion [C]-CA--N-[C] |==|  0.83453
USER: genes 5 Torsion [N]-C--CA-[N] |==|  0.45434
USER: genes 6 Torsion [C]-CA--CB-[OG] |==|  0.38755
USER: genes 7 Torsion [CA]-CB--OG-[HG] |==|  0.82325
USER: genes 8 Torsion [N]-CA--CB-[CG1] |==|  0.76107
USER: genes 9 Torsion [N]-CA--C-[N] |==|  0.84630
USER: genes 10 Torsion [C]-N--CA-[CB] |==|  0.78849
USER: genes 11 Torsion [N]-CA--CB-[OG] |==|  0.01579
USER: genes 12 Torsion [CA]-CB--OG-[HG] |==|  0.76032
USER: genes 13 Torsion [N]-CA--C-[N] |==|  0.18889
USER: genes 14 Torsion [C]-N--CA-[C] |==|  0.63026
USER: genes 15 Torsion [N]-CA--C-[O] |==|  0.82047
ROOT
ATOM      1  CA  VAL B 303      15.638   5.487  30.957  1.00 37.13 LIG 0.18  C 
ENDROOT
BRANCH 1 2
ATOM      2  N   VAL B 303      15.639   4.247  31.722  1.00 37.20 LIG-0.35  N 
ATOM      3  C   SER B 302      16.624   3.360  31.618  1.00 37.39 LIG 0.24  C 
ATOM      4 O    SER B 302      17.587   3.514  30.862  1.00 37.76 LIG-0.27  OA
ATOM      5 H    VAL B 303      14.957   4.147  32.236  1.00 37.20 LIG 0.16  HD
BRANCH 3 6
ATOM      6  CA  SER B 302      16.499   2.113  32.486  1.00 37.09 LIG 0.20  C 
BRANCH 6 7
ATOM      7  N   SER B 302      15.771   2.409  33.714  1.00 36.48 LIG-0.34  N 
ATOM      8 H    SER B 302      15.053   1.948  33.821  1.00 36.48 LIG 0.16  HD
ATOM      9  C   ALA B 301      16.204   3.321  34.578  1.00 36.26 LIG 0.26  C 
ATOM     10 O    ALA B 301      17.240   3.965  34.409  1.00 35.88 LIG-0.27  OA
BRANCH 9 11
ATOM     11  CA  ALA B 301      15.344   3.539  35.819  1.00 36.43 LIG 0.40  C 
ATOM     12  CB  ALA B 301      14.091   4.329  35.453  1.00 36.70 LIG 0.06  C 
ATOM     13  N   ALA B 301      16.107   4.266  36.877  1.00 36.51 LIG 0.61  N 
ENDBRANCH 9 11
ENDBRANCH 6 7
BRANCH 6 14
ATOM     14  CB  SER B 302      15.789   1.009  31.695  1.00 37.65 LIG 0.20  C 
BRANCH 14 15
ATOM     15 OG   SER B 302      16.388  -0.252  31.931  1.00 38.63 LIG-0.40  OA
ATOM     16 HG   SER B 302      17.179  -0.244  31.650  1.00 38.63 LIG 0.21  HD
ENDBRANCH 14 15
ENDBRANCH 6 14
ENDBRANCH 3 6
ENDBRANCH 1 2
BRANCH 1 17
ATOM     17  CB  VAL B 303      14.318   6.277  31.152  1.00 37.28 LIG 0.01  C 
ATOM     18  CG1 VAL B 303      13.270   5.787  30.170  1.00 36.92 LIG 0.01  C 
ATOM     19  CG2 VAL B 303      13.819   6.120  32.582  1.00 37.06 LIG 0.01  C 
ENDBRANCH 1 17
BRANCH 1 20
ATOM     20  C   VAL B 303      16.801   6.361  31.405  1.00 37.27 LIG 0.24  C 
ATOM     21 O    VAL B 303      17.623   6.782  30.589  1.00 36.92 LIG-0.27  OA
ATOM     22  N   SER B 304      16.862   6.643  32.701  1.00 37.37 LIG-0.34  N 
ATOM     23 H    SER B 304      16.290   6.369  33.282  1.00 37.37 LIG 0.16  HD
BRANCH 22 24
ATOM     24  CA  SER B 304      17.936   7.462  33.250  1.00 37.74 LIG 0.20  C 
BRANCH 24 25
ATOM     25  CB  SER B 304      19.228   6.647  33.349  1.00 37.88 LIG 0.20  C 
BRANCH 25 26
ATOM     26 OG   SER B 304      19.063   5.366  32.762  1.00 38.36 LIG-0.40  OA
ATOM     27 HG   SER B 304      18.746   4.835  33.331  1.00 38.36 LIG 0.21  HD
ENDBRANCH 25 26
ENDBRANCH 24 25
BRANCH 24 28
ATOM     28  C   SER B 304      18.154   8.675  32.352  1.00 37.93 LIG 0.24  C 
ATOM     29 O    SER B 304      19.190   8.790  31.695  1.00 38.21 LIG-0.27  OA
ATOM     30  N   ALA B 305      17.178   9.577  32.323  1.00 38.06 LIG-0.35  N 
ATOM     31 H    ALA B 305      16.451   9.512  32.777  1.00 38.06 LIG 0.16  HD
BRANCH 30 32
ATOM     32  CA  ALA B 305      17.271  10.775  31.496  1.00 38.30 LIG 0.16  C 
ATOM     33  CB  ALA B 305      16.372  10.626  30.270  1.00 38.13 LIG 0.04  C 
BRANCH 32 34
ATOM     34  C   ALA B 305      16.879  12.022  32.280  1.00 38.47 LIG 0.22  C 
ATOM     35 O    ALA B 305      15.700  12.116  32.682  1.00 38.58 LIG-0.29  OA
ENDBRANCH 32 34
ENDBRANCH 30 32
ENDBRANCH 24 28
ENDBRANCH 22 24
ENDBRANCH 1 20
TORSDOF 14
ENDMDL
MODEL 138
USER: ADFR SOLUTION from run 18
USER: SCORE 9.323931 LL:  -1.886 LR:  -9.074 RR:   0.000 FEB:  -4.898
USER: RMSD 9.713613
USER: SEED 17
USER: STATUS no improvement in best in 21 clusters for 5 generations
USER: GENES 16
USER: genes 0 Translation |==|  0.65402 0.58586 0.32500
USER: genes 1 Rotation |==|  0.27149 0.74028 0.87395 0.51462
USER: genes 2 Torsion [CB]-CA--N-[C] |==|  0.21327
USER: genes 3 Torsion [N]-C--CA-[N] |==|  0.40440
USER: genes 4 Torsion [C]-CA--N-[C] |==|  0.84424
USER: genes 5 Torsion [N]-C--CA-[N] |==|  0.20231
USER: genes 6 Torsion [C]-CA--CB-[OG] |==|  0.30047
USER: genes 7 Torsion [CA]-CB--OG-[HG] |==|  0.92200
USER: genes 8 Torsion [N]-CA--CB-[CG1] |==|  0.11239
USER: genes 9 Torsion [N]-CA--C-[N] |==|  0.83207
USER: genes 10 Torsion [C]-N--CA-[CB] |==|  0.20837
USER: genes 11 Torsion [N]-CA--CB-[OG] |==|  0.61929
USER: genes 12 Torsion [CA]-CB--OG-[HG] |==|  0.94180
USER: genes 13 Torsion [N]-CA--C-[N] |==|  0.49602
USER: genes 14 Torsion [C]-N--CA-[C] |==|  0.73823
USER: genes 15 Torsion [N]-CA--C-[O] |==|  0.99400
ROOT
ATOM      1  CA  VAL B 303      16.194   6.375  30.807  1.00 37.13 LIG 0.18  C 
ENDROOT
BRANCH 1 2
ATOM      2  N   VAL B 303      16.618   7.517  31.607  1.00 37.20 LIG-0.35  N 
ATOM      3  C   SER B 302      17.586   8.333  31.204  1.00 37.39 LIG 0.24  C 
ATOM      4 O    SER B 302      18.200   8.175  30.145  1.00 37.76 LIG-0.27  OA
ATOM      5 H    VAL B 303      16.190   7.610  32.347  1.00 37.20 LIG 0.16  HD
BRANCH 3 6
ATOM      6  CA  SER B 302      17.917   9.493  32.137  1.00 37.09 LIG 0.20  C 
BRANCH 6 7
ATOM      7  N   SER B 302      19.342   9.797  32.097  1.00 36.48 LIG-0.34  N 
ATOM      8 H    SER B 302      19.526  10.612  31.893  1.00 36.48 LIG 0.16  HD
ATOM      9  C   ALA B 301      20.260   8.873  32.360  1.00 36.26 LIG 0.26  C 
ATOM     10 O    ALA B 301      19.974   7.713  32.658  1.00 35.88 LIG-0.27  OA
BRANCH 9 11
ATOM     11  CA  ALA B 301      21.716   9.320  32.275  1.00 36.43 LIG 0.40  C 
ATOM     12  CB  ALA B 301      22.635   8.103  32.245  1.00 36.70 LIG 0.06  C 
ATOM     13  N   ALA B 301      22.074  10.194  33.432  1.00 36.51 LIG 0.61  N 
ENDBRANCH 9 11
ENDBRANCH 6 7
BRANCH 6 14
ATOM     14  CB  SER B 302      17.096  10.722  31.735  1.00 37.65 LIG 0.20  C 
BRANCH 14 15
ATOM     15 OG   SER B 302      16.076  10.986  32.682  1.00 38.63 LIG-0.40  OA
ATOM     16 HG   SER B 302      15.848  10.269  33.056  1.00 38.63 LIG 0.21  HD
ENDBRANCH 14 15
ENDBRANCH 6 14
ENDBRANCH 3 6
ENDBRANCH 1 2
BRANCH 1 17
ATOM     17  CB  VAL B 303      17.200   5.200  30.912  1.00 37.28 LIG 0.01  C 
ATOM     18  CG1 VAL B 303      17.688   5.060  32.341  1.00 36.92 LIG 0.01  C 
ATOM     19  CG2 VAL B 303      16.545   3.906  30.447  1.00 37.06 LIG 0.01  C 
ENDBRANCH 1 17
BRANCH 1 20
ATOM     20  C   VAL B 303      14.831   5.896  31.288  1.00 37.27 LIG 0.24  C 
ATOM     21 O    VAL B 303      13.863   5.883  30.526  1.00 36.92 LIG-0.27  OA
ATOM     22  N   SER B 304      14.759   5.492  32.551  1.00 37.37 LIG-0.34  N 
ATOM     23 H    SER B 304      15.427   5.483  33.093  1.00 37.37 LIG 0.16  HD
BRANCH 22 24
ATOM     24  CA  SER B 304      13.506   5.023  33.128  1.00 37.74 LIG 0.20  C 
BRANCH 24 25
ATOM     25  CB  SER B 304      13.180   3.617  32.619  1.00 37.88 LIG 0.20  C 
BRANCH 25 26
ATOM     26 OG   SER B 304      11.805   3.507  32.286  1.00 38.36 LIG-0.40  OA
ATOM     27 HG   SER B 304      11.372   4.108  32.682  1.00 38.36 LIG 0.21  HD
ENDBRANCH 25 26
ENDBRANCH 24 25
BRANCH 24 28
ATOM     28  C   SER B 304      13.626   5.011  34.649  1.00 37.93 LIG 0.24  C 
ATOM     29 O    SER B 304      14.678   5.341  35.197  1.00 38.21 LIG-0.27  OA
ATOM     30  N   ALA B 305      12.548   4.632  35.328  1.00 38.06 LIG-0.35  N 
ATOM     31 H    ALA B 305      11.807   4.397  34.961  1.00 38.06 LIG 0.16  HD
BRANCH 30 32
ATOM     32  CA  ALA B 305      12.542   4.588  36.786  1.00 38.30 LIG 0.16  C 
ATOM     33  CB  ALA B 305      11.170   5.011  37.309  1.00 38.13 LIG 0.04  C 
BRANCH 32 34
ATOM     34  C   ALA B 305      12.886   3.195  37.300  1.00 38.47 LIG 0.22  C 
ATOM     35 O    ALA B 305      13.082   2.291  36.461  1.00 38.58 LIG-0.29  OA
ENDBRANCH 32 34
ENDBRANCH 30 32
ENDBRANCH 24 28
ENDBRANCH 22 24
ENDBRANCH 1 20
TORSDOF 14
ENDMDL
MODEL 139
USER: ADFR SOLUTION from run 93
USER: SCORE 9.304211 LL:  -1.800 LR:  -9.069 RR:   0.000 FEB:  -4.893
USER: RMSD 4.820700
USER: SEED 92
USER: STATUS no improvement in best in 20 clusters for 5 generations
USER: GENES 16
USER: genes 0 Translation |==|  0.66732 0.49797 0.34708
USER: genes 1 Rotation |==|  0.37031 0.46827 0.64920 0.95816
USER: genes 2 Torsion [CB]-CA--N-[C] |==|  0.85981
USER: genes 3 Torsion [N]-C--CA-[N] |==|  0.08889
USER: genes 4 Torsion [C]-CA--N-[C] |==|  0.14959
USER: genes 5 Torsion [N]-C--CA-[N] |==|  0.76435
USER: genes 6 Torsion [C]-CA--CB-[OG] |==|  0.49395
USER: genes 7 Torsion [CA]-CB--OG-[HG] |==|  0.16071
USER: genes 8 Torsion [N]-CA--CB-[CG1] |==|  0.40882
USER: genes 9 Torsion [N]-CA--C-[N] |==|  0.39901
USER: genes 10 Torsion [C]-N--CA-[CB] |==|  0.29286
USER: genes 11 Torsion [N]-CA--CB-[OG] |==|  0.59004
USER: genes 12 Torsion [CA]-CB--OG-[HG] |==|  0.37861
USER: genes 13 Torsion [N]-CA--C-[N] |==|  0.36807
USER: genes 14 Torsion [C]-N--CA-[C] |==|  0.52168
USER: genes 15 Torsion [N]-CA--C-[O] |==|  0.01894
ROOT
ATOM      1  CA  VAL B 303      16.463   4.595  31.138  1.00 37.13 LIG 0.18  C 
ENDROOT
BRANCH 1 2
ATOM      2  N   VAL B 303      15.386   3.972  31.897  1.00 37.20 LIG-0.35  N 
ATOM      3  C   SER B 302      14.167   3.821  31.389  1.00 37.39 LIG 0.24  C 
ATOM      4 O    SER B 302      13.860   4.209  30.258  1.00 37.76 LIG-0.27  OA
ATOM      5 H    VAL B 303      15.610   3.717  32.687  1.00 37.20 LIG 0.16  HD
BRANCH 3 6
ATOM      6  CA  SER B 302      13.143   3.143  32.292  1.00 37.09 LIG 0.20  C 
BRANCH 6 7
ATOM      7  N   SER B 302      13.404   3.450  33.692  1.00 36.48 LIG-0.34  N 
ATOM      8 H    SER B 302      13.478   2.759  34.199  1.00 36.48 LIG 0.16  HD
ATOM      9  C   ALA B 301      13.515   4.703  34.122  1.00 36.26 LIG 0.26  C 
ATOM     10 O    ALA B 301      13.412   5.677  33.377  1.00 35.88 LIG-0.27  OA
BRANCH 9 11
ATOM     11  CA  ALA B 301      13.781   4.885  35.613  1.00 36.43 LIG 0.40  C 
ATOM     12  CB  ALA B 301      14.710   3.784  36.116  1.00 36.70 LIG 0.06  C 
ATOM     13  N   ALA B 301      12.506   4.863  36.390  1.00 36.51 LIG 0.61  N 
ENDBRANCH 9 11
ENDBRANCH 6 7
BRANCH 6 14
ATOM     14  CB  SER B 302      11.734   3.598  31.897  1.00 37.65 LIG 0.20  C 
BRANCH 14 15
ATOM     15 OG   SER B 302      10.750   2.949  32.682  1.00 38.63 LIG-0.40  OA
ATOM     16 HG   SER B 302      10.891   3.108  33.495  1.00 38.63 LIG 0.21  HD
ENDBRANCH 14 15
ENDBRANCH 6 14
ENDBRANCH 3 6
ENDBRANCH 1 2
BRANCH 1 17
ATOM     17  CB  VAL B 303      16.607   3.965  29.728  1.00 37.28 LIG 0.01  C 
ATOM     18  CG1 VAL B 303      17.064   5.016  28.735  1.00 36.92 LIG 0.01  C 
ATOM     19  CG2 VAL B 303      17.595   2.808  29.769  1.00 37.06 LIG 0.01  C 
ENDBRANCH 1 17
BRANCH 1 20
ATOM     20  C   VAL B 303      16.180   6.082  30.982  1.00 37.27 LIG 0.24  C 
ATOM     21 O    VAL B 303      15.027   6.492  30.833  1.00 36.92 LIG-0.27  OA
ATOM     22  N   SER B 304      17.232   6.892  31.027  1.00 37.37 LIG-0.34  N 
ATOM     23 H    SER B 304      18.041   6.625  31.143  1.00 37.37 LIG 0.16  HD
BRANCH 22 24
ATOM     24  CA  SER B 304      17.087   8.334  30.878  1.00 37.74 LIG 0.20  C 
BRANCH 24 25
ATOM     25  CB  SER B 304      17.257   9.028  32.232  1.00 37.88 LIG 0.20  C 
BRANCH 25 26
ATOM     26 OG   SER B 304      16.450  10.192  32.307  1.00 38.36 LIG-0.40  OA
ATOM     27 HG   SER B 304      16.072  10.223  33.057  1.00 38.36 LIG 0.21  HD
ENDBRANCH 25 26
ENDBRANCH 24 25
BRANCH 24 28
ATOM     28  C   SER B 304      18.136   8.847  29.896  1.00 37.93 LIG 0.24  C 
ATOM     29 O    SER B 304      19.313   8.499  29.999  1.00 38.21 LIG-0.27  OA
ATOM     30  N   ALA B 305      17.708   9.669  28.944  1.00 38.06 LIG-0.35  N 
ATOM     31 H    ALA B 305      16.891   9.923  28.860  1.00 38.06 LIG 0.16  HD
BRANCH 30 32
ATOM     32  CA  ALA B 305      18.617  10.218  27.945  1.00 38.30 LIG 0.16  C 
ATOM     33  CB  ALA B 305      19.147   9.093  27.057  1.00 38.13 LIG 0.04  C 
BRANCH 32 34
ATOM     34  C   ALA B 305      17.929  11.275  27.088  1.00 38.47 LIG 0.22  C 
ATOM     35 O    ALA B 305      16.776  11.630  27.408  1.00 38.58 LIG-0.29  OA
ENDBRANCH 32 34
ENDBRANCH 30 32
ENDBRANCH 24 28
ENDBRANCH 22 24
ENDBRANCH 1 20
TORSDOF 14
ENDMDL
MODEL 140
USER: ADFR SOLUTION from run 3
USER: SCORE 10.289196 LL:  -1.979 LR:  -9.073 RR:   0.000 FEB:  -4.897
USER: RMSD 5.972681
USER: SEED 25335
USER: STATUS searching
USER: GENES 16
USER: genes 0 Translation |==|  0.69667 0.59260 0.51884
USER: genes 1 Rotation |==|  0.13910 0.20919 0.52890 0.68533
USER: genes 2 Torsion [CB]-CA--N-[C] |==|  0.52222
USER: genes 3 Torsion [N]-C--CA-[N] |==|  0.92880
USER: genes 4 Torsion [C]-CA--N-[C] |==|  0.81944
USER: genes 5 Torsion [N]-C--CA-[N] |==|  0.76502
USER: genes 6 Torsion [C]-CA--CB-[OG] |==|  0.87326
USER: genes 7 Torsion [CA]-CB--OG-[HG] |==|  0.51283
USER: genes 8 Torsion [N]-CA--CB-[CG1] |==|  0.77544
USER: genes 9 Torsion [N]-CA--C-[N] |==|  0.30688
USER: genes 10 Torsion [C]-N--CA-[CB] |==|  0.86438
USER: genes 11 Torsion [N]-CA--CB-[OG] |==|  0.57966
USER: genes 12 Torsion [CA]-CB--OG-[HG] |==|  0.14534
USER: genes 13 Torsion [N]-CA--C-[N] |==|  0.37629
USER: genes 14 Torsion [C]-N--CA-[C] |==|  0.76966
USER: genes 15 Torsion [N]-CA--C-[O] |==|  0.33181
ROOT
ATOM      1  CA  VAL B 303      17.058   6.511  33.715  1.00 37.13 LIG 0.18  C 
ENDROOT
BRANCH 1 2
ATOM      2  N   VAL B 303      16.101   5.719  32.952  1.00 37.20 LIG-0.35  N 
ATOM      3  C   SER B 302      15.342   6.260  32.005  1.00 37.39 LIG 0.24  C 
ATOM      4 O    SER B 302      15.379   7.460  31.719  1.00 37.76 LIG-0.27  OA
ATOM      5 H    VAL B 303      16.076   4.888  33.168  1.00 37.20 LIG 0.16  HD
BRANCH 3 6
ATOM      6  CA  SER B 302      14.394   5.310  31.280  1.00 37.09 LIG 0.20  C 
BRANCH 6 7
ATOM      7  N   SER B 302      14.899   3.944  31.324  1.00 36.48 LIG-0.34  N 
ATOM      8 H    SER B 302      14.406   3.397  31.769  1.00 36.48 LIG 0.16  HD
ATOM      9  C   ALA B 301      16.030   3.598  30.718  1.00 36.26 LIG 0.26  C 
ATOM     10 O    ALA B 301      16.717   4.396  30.079  1.00 35.88 LIG-0.27  OA
BRANCH 9 11
ATOM     11  CA  ALA B 301      16.450   2.137  30.849  1.00 36.43 LIG 0.40  C 
ATOM     12  CB  ALA B 301      15.220   1.236  30.809  1.00 36.70 LIG 0.06  C 
ATOM     13  N   ALA B 301      17.201   1.910  32.118  1.00 36.51 LIG 0.61  N 
ENDBRANCH 9 11
ENDBRANCH 6 7
BRANCH 6 14
ATOM     14  CB  SER B 302      13.004   5.389  31.920  1.00 37.65 LIG 0.20  C 
BRANCH 14 15
ATOM     15 OG   SER B 302      13.091   5.351  33.333  1.00 38.63 LIG-0.40  OA
ATOM     16 HG   SER B 302      12.318   5.331  33.661  1.00 38.63 LIG 0.21  HD
ENDBRANCH 14 15
ENDBRANCH 6 14
ENDBRANCH 3 6
ENDBRANCH 1 2
BRANCH 1 17
ATOM     17  CB  VAL B 303      17.953   5.617  34.611  1.00 37.28 LIG 0.01  C 
ATOM     18  CG1 VAL B 303      17.212   5.250  35.883  1.00 36.92 LIG 0.01  C 
ATOM     19  CG2 VAL B 303      18.363   4.360  33.854  1.00 37.06 LIG 0.01  C 
ENDBRANCH 1 17
BRANCH 1 20
ATOM     20  C   VAL B 303      17.948   7.291  32.758  1.00 37.27 LIG 0.24  C 
ATOM     21 O    VAL B 303      18.771   6.710  32.048  1.00 36.92 LIG-0.27  OA
ATOM     22  N   SER B 304      17.777   8.608  32.732  1.00 37.37 LIG-0.34  N 
ATOM     23 H    SER B 304      17.199   9.028  33.211  1.00 37.37 LIG 0.16  HD
BRANCH 22 24
ATOM     24  CA  SER B 304      18.579   9.461  31.865  1.00 37.74 LIG 0.20  C 
BRANCH 24 25
ATOM     25  CB  SER B 304      20.065   9.124  32.014  1.00 37.88 LIG 0.20  C 
BRANCH 25 26
ATOM     26 OG   SER B 304      20.870  10.261  31.751  1.00 38.36 LIG-0.40  OA
ATOM     27 HG   SER B 304      20.606  10.906  32.221  1.00 38.36 LIG 0.21  HD
ENDBRANCH 25 26
ENDBRANCH 24 25
BRANCH 24 28
ATOM     28  C   SER B 304      18.142   9.261  30.417  1.00 37.93 LIG 0.24  C 
ATOM     29 O    SER B 304      17.944   8.129  29.974  1.00 38.21 LIG-0.27  OA
ATOM     30  N   ALA B 305      17.991  10.359  29.684  1.00 38.06 LIG-0.35  N 
ATOM     31 H    ALA B 305      18.127  11.155  29.978  1.00 38.06 LIG 0.16  HD
BRANCH 30 32
ATOM     32  CA  ALA B 305      17.570  10.292  28.289  1.00 38.30 LIG 0.16  C 
ATOM     33  CB  ALA B 305      16.899  11.605  27.889  1.00 38.13 LIG 0.04  C 
BRANCH 32 34
ATOM     34  C   ALA B 305      18.750  10.010  27.366  1.00 38.47 LIG 0.22  C 
ATOM     35 O    ALA B 305      18.718   8.971  26.674  1.00 38.58 LIG-0.29  OA
ENDBRANCH 32 34
ENDBRANCH 30 32
ENDBRANCH 24 28
ENDBRANCH 22 24
ENDBRANCH 1 20
TORSDOF 14
ENDMDL
MODEL 141
USER: ADFR SOLUTION from run 51
USER: SCORE 9.833135 LL:  -2.218 LR:  -9.061 RR:   0.000 FEB:  -4.884
USER: RMSD 7.999520
USER: SEED 50
USER: STATUS no improvement in best in 30 clusters for 5 generations
USER: GENES 16
USER: genes 0 Translation |==|  0.61641 0.45964 0.27517
USER: genes 1 Rotation |==|  0.23769 0.71157 0.86925 0.50941
USER: genes 2 Torsion [CB]-CA--N-[C] |==|  0.49805
USER: genes 3 Torsion [N]-C--CA-[N] |==|  0.86836
USER: genes 4 Torsion [C]-CA--N-[C] |==|  0.84260
USER: genes 5 Torsion [N]-C--CA-[N] |==|  0.45763
USER: genes 6 Torsion [C]-CA--CB-[OG] |==|  0.62060
USER: genes 7 Torsion [CA]-CB--OG-[HG] |==|  0.80446
USER: genes 8 Torsion [N]-CA--CB-[CG1] |==|  0.76351
USER: genes 9 Torsion [N]-CA--C-[N] |==|  0.82087
USER: genes 10 Torsion [C]-N--CA-[CB] |==|  0.84748
USER: genes 11 Torsion [N]-CA--CB-[OG] |==|  0.92223
USER: genes 12 Torsion [CA]-CB--OG-[HG] |==|  0.68003
USER: genes 13 Torsion [N]-CA--C-[N] |==|  0.35000
USER: genes 14 Torsion [C]-N--CA-[C] |==|  0.16933
USER: genes 15 Torsion [N]-CA--C-[O] |==|  0.74274
ROOT
ATOM      1  CA  VAL B 303      15.432   3.819  30.060  1.00 37.13 LIG 0.18  C 
ENDROOT
BRANCH 1 2
ATOM      2  N   VAL B 303      15.617   4.947  30.963  1.00 37.20 LIG-0.35  N 
ATOM      3  C   SER B 302      14.763   5.965  30.997  1.00 37.39 LIG 0.24  C 
ATOM      4 O    SER B 302      13.774   6.035  30.262  1.00 37.76 LIG-0.27  OA
ATOM      5 H    VAL B 303      16.316   4.892  31.461  1.00 37.20 LIG 0.16  HD
BRANCH 3 6
ATOM      6  CA  SER B 302      15.076   7.071  31.999  1.00 37.09 LIG 0.20  C 
BRANCH 6 7
ATOM      7  N   SER B 302      15.393   6.510  33.305  1.00 36.48 LIG-0.34  N 
ATOM      8 H    SER B 302      16.161   6.741  33.615  1.00 36.48 LIG 0.16  HD
ATOM      9  C   ALA B 301      14.546   5.709  33.945  1.00 36.26 LIG 0.26  C 
ATOM     10 O    ALA B 301      13.447   5.396  33.487  1.00 35.88 LIG-0.27  OA
BRANCH 9 11
ATOM     11  CA  ALA B 301      15.004   5.183  35.301  1.00 36.43 LIG 0.40  C 
ATOM     12  CB  ALA B 301      16.076   4.114  35.111  1.00 36.70 LIG 0.06  C 
ATOM     13  N   ALA B 301      13.856   4.616  36.069  1.00 36.51 LIG 0.61  N 
ENDBRANCH 9 11
ENDBRANCH 6 7
BRANCH 6 14
ATOM     14  CB  SER B 302      16.245   7.915  31.480  1.00 37.65 LIG 0.20  C 
BRANCH 14 15
ATOM     15 OG   SER B 302      17.169   8.197  32.515  1.00 38.63 LIG-0.40  OA
ATOM     16 HG   SER B 302      16.825   8.740  33.057  1.00 38.63 LIG 0.21  HD
ENDBRANCH 14 15
ENDBRANCH 6 14
ENDBRANCH 3 6
ENDBRANCH 1 2
BRANCH 1 17
ATOM     17  CB  VAL B 303      16.573   2.778  30.205  1.00 37.28 LIG 0.01  C 
ATOM     18  CG1 VAL B 303      17.753   3.177  29.339  1.00 36.92 LIG 0.01  C 
ATOM     19  CG2 VAL B 303      16.999   2.668  31.663  1.00 37.06 LIG 0.01  C 
ENDBRANCH 1 17
BRANCH 1 20
ATOM     20  C   VAL B 303      14.106   3.136  30.365  1.00 37.27 LIG 0.24  C 
ATOM     21 O    VAL B 303      13.201   3.116  29.529  1.00 36.92 LIG-0.27  OA
ATOM     22  N   SER B 304      13.996   2.567  31.559  1.00 37.37 LIG-0.34  N 
ATOM     23 H    SER B 304      14.622   2.560  32.149  1.00 37.37 LIG 0.16  HD
BRANCH 22 24
ATOM     24  CA  SER B 304      12.771   1.893  31.970  1.00 37.74 LIG 0.20  C 
BRANCH 24 25
ATOM     25  CB  SER B 304      11.574   2.838  31.835  1.00 37.88 LIG 0.20  C 
BRANCH 25 26
ATOM     26 OG   SER B 304      11.978   4.189  31.984  1.00 38.36 LIG-0.40  OA
ATOM     27 HG   SER B 304      11.625   4.512  32.675  1.00 38.36 LIG 0.21  HD
ENDBRANCH 25 26
ENDBRANCH 24 25
BRANCH 24 28
ATOM     28  C   SER B 304      12.560   0.658  31.099  1.00 37.93 LIG 0.24  C 
ATOM     29 O    SER B 304      12.553   0.751  29.871  1.00 38.21 LIG-0.27  OA
ATOM     30  N   ALA B 305      12.390  -0.496  31.736  1.00 38.06 LIG-0.35  N 
ATOM     31 H    ALA B 305      12.389  -0.577  32.592  1.00 38.06 LIG 0.16  HD
BRANCH 30 32
ATOM     32  CA  ALA B 305      12.186  -1.744  31.010  1.00 38.30 LIG 0.16  C 
ATOM     33  CB  ALA B 305      10.916  -1.649  30.166  1.00 38.13 LIG 0.04  C 
BRANCH 32 34
ATOM     34  C   ALA B 305      13.379  -2.070  30.118  1.00 38.47 LIG 0.22  C 
ATOM     35 O    ALA B 305      13.349  -1.680  28.932  1.00 38.58 LIG-0.29  OA
ENDBRANCH 32 34
ENDBRANCH 30 32
ENDBRANCH 24 28
ENDBRANCH 22 24
ENDBRANCH 1 20
TORSDOF 14
ENDMDL
MODEL 142
USER: ADFR SOLUTION from run 48
USER: SCORE 10.166517 LL:  -2.397 LR:  -9.051 RR:   0.000 FEB:  -4.875
USER: RMSD 7.598270
USER: SEED 47
USER: STATUS no improvement in best in 22 clusters for 5 generations
USER: GENES 16
USER: genes 0 Translation |==|  0.60979 0.58996 0.41714
USER: genes 1 Rotation |==|  0.41462 0.27406 0.90156 0.67439
USER: genes 2 Torsion [CB]-CA--N-[C] |==|  0.20556
USER: genes 3 Torsion [N]-C--CA-[N] |==|  0.01242
USER: genes 4 Torsion [C]-CA--N-[C] |==|  0.20899
USER: genes 5 Torsion [N]-C--CA-[N] |==|  0.84884
USER: genes 6 Torsion [C]-CA--CB-[OG] |==|  0.54905
USER: genes 7 Torsion [CA]-CB--OG-[HG] |==|  0.30413
USER: genes 8 Torsion [N]-CA--CB-[CG1] |==|  0.73172
USER: genes 9 Torsion [N]-CA--C-[N] |==|  0.04986
USER: genes 10 Torsion [C]-N--CA-[CB] |==|  0.15878
USER: genes 11 Torsion [N]-CA--CB-[OG] |==|  0.19148
USER: genes 12 Torsion [CA]-CB--OG-[HG] |==|  0.13483
USER: genes 13 Torsion [N]-CA--C-[N] |==|  0.19922
USER: genes 14 Torsion [C]-N--CA-[C] |==|  0.64312
USER: genes 15 Torsion [N]-CA--C-[O] |==|  0.22246
ROOT
ATOM      1  CA  VAL B 303      15.298   6.458  32.189  1.00 37.13 LIG 0.18  C 
ENDROOT
BRANCH 1 2
ATOM      2  N   VAL B 303      15.895   5.238  32.718  1.00 37.20 LIG-0.35  N 
ATOM      3  C   SER B 302      16.875   5.269  33.614  1.00 37.39 LIG 0.24  C 
ATOM      4 O    SER B 302      17.356   6.321  34.046  1.00 37.76 LIG-0.27  OA
ATOM      5 H    VAL B 303      15.559   4.512  32.401  1.00 37.20 LIG 0.16  HD
BRANCH 3 6
ATOM      6  CA  SER B 302      17.397   3.916  34.087  1.00 37.09 LIG 0.20  C 
BRANCH 6 7
ATOM      7  N   SER B 302      16.757   2.831  33.354  1.00 36.48 LIG-0.34  N 
ATOM      8 H    SER B 302      16.158   2.405  33.801  1.00 36.48 LIG 0.16  HD
ATOM      9  C   ALA B 301      17.089   2.546  32.099  1.00 36.26 LIG 0.26  C 
ATOM     10 O    ALA B 301      17.944   3.175  31.475  1.00 35.88 LIG-0.27  OA
BRANCH 9 11
ATOM     11  CA  ALA B 301      16.348   1.381  31.450  1.00 36.43 LIG 0.40  C 
ATOM     12  CB  ALA B 301      14.877   1.739  31.262  1.00 36.70 LIG 0.06  C 
ATOM     13  N   ALA B 301      16.465   0.146  32.281  1.00 36.51 LIG 0.61  N 
ENDBRANCH 9 11
ENDBRANCH 6 7
BRANCH 6 14
ATOM     14  CB  SER B 302      18.917   3.863  33.904  1.00 37.65 LIG 0.20  C 
BRANCH 14 15
ATOM     15 OG   SER B 302      19.388   2.528  33.941  1.00 38.63 LIG-0.40  OA
ATOM     16 HG   SER B 302      19.638   2.298  33.173  1.00 38.63 LIG 0.21  HD
ENDBRANCH 14 15
ENDBRANCH 6 14
ENDBRANCH 3 6
ENDBRANCH 1 2
BRANCH 1 17
ATOM     17  CB  VAL B 303      16.243   7.168  31.186  1.00 37.28 LIG 0.01  C 
ATOM     18  CG1 VAL B 303      17.021   8.263  31.890  1.00 36.92 LIG 0.01  C 
ATOM     19  CG2 VAL B 303      17.197   6.159  30.561  1.00 37.06 LIG 0.01  C 
ENDBRANCH 1 17
BRANCH 1 20
ATOM     20  C   VAL B 303      13.996   6.118  31.478  1.00 37.27 LIG 0.24  C 
ATOM     21 O    VAL B 303      13.493   6.907  30.675  1.00 36.92 LIG-0.27  OA
ATOM     22  N   SER B 304      13.457   4.940  31.763  1.00 37.37 LIG-0.34  N 
ATOM     23 H    SER B 304      13.800   4.372  32.310  1.00 37.37 LIG 0.16  HD
BRANCH 22 24
ATOM     24  CA  SER B 304      12.205   4.509  31.154  1.00 37.74 LIG 0.20  C 
BRANCH 24 25
ATOM     25  CB  SER B 304      12.325   4.520  29.628  1.00 37.88 LIG 0.20  C 
BRANCH 25 26
ATOM     26 OG   SER B 304      13.208   3.502  29.184  1.00 38.36 LIG-0.40  OA
ATOM     27 HG   SER B 304      13.007   2.775  29.554  1.00 38.36 LIG 0.21  HD
ENDBRANCH 25 26
ENDBRANCH 24 25
BRANCH 24 28
ATOM     28  C   SER B 304      11.866   3.102  31.639  1.00 37.93 LIG 0.24  C 
ATOM     29 O    SER B 304      11.963   2.138  30.880  1.00 38.21 LIG-0.27  OA
ATOM     30  N   ALA B 305      11.471   2.989  32.903  1.00 38.06 LIG-0.35  N 
ATOM     31 H    ALA B 305      11.395   3.652  33.444  1.00 38.06 LIG 0.16  HD
BRANCH 30 32
ATOM     32  CA  ALA B 305      11.127   1.695  33.480  1.00 38.30 LIG 0.16  C 
ATOM     33  CB  ALA B 305      12.194   1.281  34.492  1.00 38.13 LIG 0.04  C 
BRANCH 32 34
ATOM     34  C   ALA B 305       9.759   1.733  34.153  1.00 38.47 LIG 0.22  C 
ATOM     35 O    ALA B 305       8.746   1.637  33.430  1.00 38.58 LIG-0.29  OA
ENDBRANCH 32 34
ENDBRANCH 30 32
ENDBRANCH 24 28
ENDBRANCH 22 24
ENDBRANCH 1 20
TORSDOF 14
ENDMDL
MODEL 143
USER: ADFR SOLUTION from run 64
USER: SCORE 9.635589 LL:  -2.056 LR:  -9.051 RR:   0.000 FEB:  -4.875
USER: RMSD 3.454883
USER: SEED 63
USER: STATUS no improvement in best in 14 clusters for 5 generations
USER: GENES 16
USER: genes 0 Translation |==|  0.51951 0.49439 0.27711
USER: genes 1 Rotation |==|  0.68494 0.73134 0.64138 0.87722
USER: genes 2 Torsion [CB]-CA--N-[C] |==|  0.17373
USER: genes 3 Torsion [N]-C--CA-[N] |==|  0.11653
USER: genes 4 Torsion [C]-CA--N-[C] |==|  0.15307
USER: genes 5 Torsion [N]-C--CA-[N] |==|  0.23776
USER: genes 6 Torsion [C]-CA--CB-[OG] |==|  0.27582
USER: genes 7 Torsion [CA]-CB--OG-[HG] |==|  0.81298
USER: genes 8 Torsion [N]-CA--CB-[CG1] |==|  0.13014
USER: genes 9 Torsion [N]-CA--C-[N] |==|  0.92943
USER: genes 10 Torsion [C]-N--CA-[CB] |==|  0.53889
USER: genes 11 Torsion [N]-CA--CB-[OG] |==|  0.77235
USER: genes 12 Torsion [CA]-CB--OG-[HG] |==|  0.64664
USER: genes 13 Torsion [N]-CA--C-[N] |==|  0.31227
USER: genes 14 Torsion [C]-N--CA-[C] |==|  0.49756
USER: genes 15 Torsion [N]-CA--C-[O] |==|  0.06707
ROOT
ATOM      1  CA  VAL B 303      13.470   4.522  30.089  1.00 37.13 LIG 0.18  C 
ENDROOT
BRANCH 1 2
ATOM      2  N   VAL B 303      13.578   3.200  30.692  1.00 37.20 LIG-0.35  N 
ATOM      3  C   SER B 302      13.103   2.115  30.090  1.00 37.39 LIG 0.24  C 
ATOM      4 O    SER B 302      12.528   2.151  28.999  1.00 37.76 LIG-0.27  OA
ATOM      5 H    VAL B 303      13.971   3.190  31.457  1.00 37.20 LIG 0.16  HD
BRANCH 3 6
ATOM      6  CA  SER B 302      13.297   0.796  30.832  1.00 37.09 LIG 0.20  C 
BRANCH 6 7
ATOM      7  N   SER B 302      13.028   0.960  32.254  1.00 36.48 LIG-0.34  N 
ATOM      8 H    SER B 302      13.672   0.714  32.769  1.00 36.48 LIG 0.16  HD
ATOM      9  C   ALA B 301      11.874   1.453  32.694  1.00 36.26 LIG 0.26  C 
ATOM     10 O    ALA B 301      10.968   1.807  31.940  1.00 35.88 LIG-0.27  OA
BRANCH 9 11
ATOM     11  CA  ALA B 301      11.719   1.565  34.208  1.00 36.43 LIG 0.40  C 
ATOM     12  CB  ALA B 301      10.244   1.479  34.588  1.00 36.70 LIG 0.06  C 
ATOM     13  N   ALA B 301      12.296   2.847  34.711  1.00 36.51 LIG 0.61  N 
ENDBRANCH 9 11
ENDBRANCH 6 7
BRANCH 6 14
ATOM     14  CB  SER B 302      12.373  -0.268  30.231  1.00 37.65 LIG 0.20  C 
BRANCH 14 15
ATOM     15 OG   SER B 302      13.075  -1.102  29.328  1.00 38.63 LIG-0.40  OA
ATOM     16 HG   SER B 302      13.304  -0.656  28.654  1.00 38.63 LIG 0.21  HD
ENDBRANCH 14 15
ENDBRANCH 6 14
ENDBRANCH 3 6
ENDBRANCH 1 2
BRANCH 1 17
ATOM     17  CB  VAL B 303      11.990   4.948  29.907  1.00 37.28 LIG 0.01  C 
ATOM     18  CG1 VAL B 303      11.212   4.676  31.181  1.00 36.92 LIG 0.01  C 
ATOM     19  CG2 VAL B 303      11.910   6.423  29.541  1.00 37.06 LIG 0.01  C 
ENDBRANCH 1 17
BRANCH 1 20
ATOM     20  C   VAL B 303      14.167   5.544  30.977  1.00 37.27 LIG 0.24  C 
ATOM     21 O    VAL B 303      14.605   6.594  30.504  1.00 36.92 LIG-0.27  OA
ATOM     22  N   SER B 304      14.258   5.240  32.266  1.00 37.37 LIG-0.34  N 
ATOM     23 H    SER B 304      13.947   4.518  32.615  1.00 37.37 LIG 0.16  HD
BRANCH 22 24
ATOM     24  CA  SER B 304      14.914   6.134  33.213  1.00 37.74 LIG 0.20  C 
BRANCH 24 25
ATOM     25  CB  SER B 304      15.186   5.406  34.531  1.00 37.88 LIG 0.20  C 
BRANCH 25 26
ATOM     26 OG   SER B 304      14.028   5.392  35.349  1.00 38.36 LIG-0.40  OA
ATOM     27 HG   SER B 304      14.218   5.691  36.110  1.00 38.36 LIG 0.21  HD
ENDBRANCH 25 26
ENDBRANCH 24 25
BRANCH 24 28
ATOM     28  C   SER B 304      16.226   6.630  32.611  1.00 37.93 LIG 0.24  C 
ATOM     29 O    SER B 304      17.162   5.852  32.425  1.00 38.21 LIG-0.27  OA
ATOM     30  N   ALA B 305      16.290   7.922  32.307  1.00 38.06 LIG-0.35  N 
ATOM     31 H    ALA B 305      15.646   8.478  32.433  1.00 38.06 LIG 0.16  HD
BRANCH 30 32
ATOM     32  CA  ALA B 305      17.490   8.508  31.721  1.00 38.30 LIG 0.16  C 
ATOM     33  CB  ALA B 305      17.840   7.780  30.424  1.00 38.13 LIG 0.04  C 
BRANCH 32 34
ATOM     34  C   ALA B 305      17.303   9.996  31.446  1.00 38.47 LIG 0.22  C 
ATOM     35 O    ALA B 305      16.450  10.614  32.116  1.00 38.58 LIG-0.29  OA
ENDBRANCH 32 34
ENDBRANCH 30 32
ENDBRANCH 24 28
ENDBRANCH 22 24
ENDBRANCH 1 20
TORSDOF 14
ENDMDL
MODEL 144
USER: ADFR SOLUTION from run 69
USER: SCORE 9.417013 LL:  -1.870 LR:  -9.053 RR:   0.000 FEB:  -4.876
USER: RMSD 5.299781
USER: SEED 68
USER: STATUS no improvement in best in 30 clusters for 5 generations
USER: GENES 16
USER: genes 0 Translation |==|  0.70355 0.49040 0.33849
USER: genes 1 Rotation |==|  0.56260 0.72727 0.70638 0.88967
USER: genes 2 Torsion [CB]-CA--N-[C] |==|  0.79999
USER: genes 3 Torsion [N]-C--CA-[N] |==|  0.87497
USER: genes 4 Torsion [C]-CA--N-[C] |==|  0.79097
USER: genes 5 Torsion [N]-C--CA-[N] |==|  0.08312
USER: genes 6 Torsion [C]-CA--CB-[OG] |==|  0.69005
USER: genes 7 Torsion [CA]-CB--OG-[HG] |==|  0.09257
USER: genes 8 Torsion [N]-CA--CB-[CG1] |==|  0.58880
USER: genes 9 Torsion [N]-CA--C-[N] |==|  0.11848
USER: genes 10 Torsion [C]-N--CA-[CB] |==|  0.51335
USER: genes 11 Torsion [N]-CA--CB-[OG] |==|  0.58100
USER: genes 12 Torsion [CA]-CB--OG-[HG] |==|  0.68278
USER: genes 13 Torsion [N]-CA--C-[N] |==|  0.36126
USER: genes 14 Torsion [C]-N--CA-[C] |==|  0.59608
USER: genes 15 Torsion [N]-CA--C-[O] |==|  0.76372
ROOT
ATOM      1  CA  VAL B 303      17.197   4.442  31.009  1.00 37.13 LIG 0.18  C 
ENDROOT
BRANCH 1 2
ATOM      2  N   VAL B 303      17.569   3.437  31.998  1.00 37.20 LIG-0.35  N 
ATOM      3  C   SER B 302      16.990   3.382  33.193  1.00 37.39 LIG 0.24  C 
ATOM      4 O    SER B 302      16.119   4.178  33.553  1.00 37.76 LIG-0.27  OA
ATOM      5 H    VAL B 303      18.185   2.896  31.739  1.00 37.20 LIG 0.16  HD
BRANCH 3 6
ATOM      6  CA  SER B 302      17.471   2.272  34.121  1.00 37.09 LIG 0.20  C 
BRANCH 6 7
ATOM      7  N   SER B 302      17.575   1.007  33.404  1.00 36.48 LIG-0.34  N 
ATOM      8 H    SER B 302      18.380   0.770  33.217  1.00 36.48 LIG 0.16  HD
ATOM      9  C   ALA B 301      16.498   0.299  33.079  1.00 36.26 LIG 0.26  C 
ATOM     10 O    ALA B 301      15.354   0.654  33.364  1.00 35.88 LIG-0.27  OA
BRANCH 9 11
ATOM     11  CA  ALA B 301      16.746  -1.002  32.322  1.00 36.43 LIG 0.40  C 
ATOM     12  CB  ALA B 301      15.632  -2.000  32.622  1.00 36.70 LIG 0.06  C 
ATOM     13  N   ALA B 301      18.066  -1.592  32.693  1.00 36.51 LIG 0.61  N 
ENDBRANCH 9 11
ENDBRANCH 6 7
BRANCH 6 14
ATOM     14  CB  SER B 302      18.825   2.660  34.722  1.00 37.65 LIG 0.20  C 
BRANCH 14 15
ATOM     15 OG   SER B 302      19.860   1.831  34.226  1.00 38.63 LIG-0.40  OA
ATOM     16 HG   SER B 302      19.690   1.615  33.432  1.00 38.63 LIG 0.21  HD
ENDBRANCH 14 15
ENDBRANCH 6 14
ENDBRANCH 3 6
ENDBRANCH 1 2
BRANCH 1 17
ATOM     17  CB  VAL B 303      15.798   4.157  30.405  1.00 37.28 LIG 0.01  C 
ATOM     18  CG1 VAL B 303      15.749   4.630  28.964  1.00 36.92 LIG 0.01  C 
ATOM     19  CG2 VAL B 303      15.485   2.669  30.485  1.00 37.06 LIG 0.01  C 
ENDBRANCH 1 17
BRANCH 1 20
ATOM     20  C   VAL B 303      17.175   5.815  31.665  1.00 37.27 LIG 0.24  C 
ATOM     21 O    VAL B 303      16.262   6.610  31.432  1.00 36.92 LIG-0.27  OA
ATOM     22  N   SER B 304      18.176   6.090  32.493  1.00 37.37 LIG-0.34  N 
ATOM     23 H    SER B 304      18.814   5.543  32.677  1.00 37.37 LIG 0.16  HD
BRANCH 22 24
ATOM     24  CA  SER B 304      18.269   7.377  33.171  1.00 37.74 LIG 0.20  C 
BRANCH 24 25
ATOM     25  CB  SER B 304      19.574   7.466  33.966  1.00 37.88 LIG 0.20  C 
BRANCH 25 26
ATOM     26 OG   SER B 304      19.422   8.310  35.095  1.00 38.36 LIG-0.40  OA
ATOM     27 HG   SER B 304      19.904   8.991  35.003  1.00 38.36 LIG 0.21  HD
ENDBRANCH 25 26
ENDBRANCH 24 25
BRANCH 24 28
ATOM     28  C   SER B 304      18.213   8.497  32.136  1.00 37.93 LIG 0.24  C 
ATOM     29 O    SER B 304      18.942   8.469  31.144  1.00 38.21 LIG-0.27  OA
ATOM     30  N   ALA B 305      17.347   9.477  32.367  1.00 38.06 LIG-0.35  N 
ATOM     31 H    ALA B 305      16.833   9.512  33.056  1.00 38.06 LIG 0.16  HD
BRANCH 30 32
ATOM     32  CA  ALA B 305      17.199  10.597  31.445  1.00 38.30 LIG 0.16  C 
ATOM     33  CB  ALA B 305      16.089  10.296  30.440  1.00 38.13 LIG 0.04  C 
BRANCH 32 34
ATOM     34  C   ALA B 305      16.890  11.892  32.188  1.00 38.47 LIG 0.22  C 
ATOM     35 O    ALA B 305      15.698  12.134  32.474  1.00 38.58 LIG-0.29  OA
ENDBRANCH 32 34
ENDBRANCH 30 32
ENDBRANCH 24 28
ENDBRANCH 22 24
ENDBRANCH 1 20
TORSDOF 14
ENDMDL
MODEL 145
USER: ADFR SOLUTION from run 163
USER: SCORE 9.353558 LL:  -1.587 LR:  -9.036 RR:   0.000 FEB:  -4.859
USER: RMSD 2.967683
USER: SEED 162
USER: STATUS no improvement in best in 30 clusters for 5 generations
USER: GENES 16
USER: genes 0 Translation |==|  0.49574 0.47037 0.33990
USER: genes 1 Rotation |==|  0.54202 0.55971 0.49379 0.99460
USER: genes 2 Torsion [CB]-CA--N-[C] |==|  0.26423
USER: genes 3 Torsion [N]-C--CA-[N] |==|  0.44223
USER: genes 4 Torsion [C]-CA--N-[C] |==|  0.56111
USER: genes 5 Torsion [N]-C--CA-[N] |==|  0.56140
USER: genes 6 Torsion [C]-CA--CB-[OG] |==|  0.38093
USER: genes 7 Torsion [CA]-CB--OG-[HG] |==|  0.91222
USER: genes 8 Torsion [N]-CA--CB-[CG1] |==|  0.17427
USER: genes 9 Torsion [N]-CA--C-[N] |==|  0.37121
USER: genes 10 Torsion [C]-N--CA-[CB] |==|  0.84977
USER: genes 11 Torsion [N]-CA--CB-[OG] |==|  0.51404
USER: genes 12 Torsion [CA]-CB--OG-[HG] |==|  0.79336
USER: genes 13 Torsion [N]-CA--C-[N] |==|  0.37282
USER: genes 14 Torsion [C]-N--CA-[C] |==|  0.62037
USER: genes 15 Torsion [N]-CA--C-[O] |==|  0.96259
ROOT
ATOM      1  CA  VAL B 303      12.989   4.036  31.031  1.00 37.13 LIG 0.18  C 
ENDROOT
BRANCH 1 2
ATOM      2  N   VAL B 303      11.903   3.668  31.931  1.00 37.20 LIG-0.35  N 
ATOM      3  C   SER B 302      11.492   2.411  32.055  1.00 37.39 LIG 0.24  C 
ATOM      4 O    SER B 302      11.982   1.478  31.412  1.00 37.76 LIG-0.27  OA
ATOM      5 H    VAL B 303      11.563   4.328  32.364  1.00 37.20 LIG 0.16  HD
BRANCH 3 6
ATOM      6  CA  SER B 302      10.355   2.171  33.042  1.00 37.09 LIG 0.20  C 
BRANCH 6 7
ATOM      7  N   SER B 302       9.674   0.916  32.751  1.00 36.48 LIG-0.34  N 
ATOM      8 H    SER B 302      10.144   0.353  32.301  1.00 36.48 LIG 0.16  HD
ATOM      9  C   ALA B 301       8.430   0.685  33.160  1.00 36.26 LIG 0.26  C 
ATOM     10 O    ALA B 301       7.778   1.503  33.810  1.00 35.88 LIG-0.27  OA
BRANCH 9 11
ATOM     11  CA  ALA B 301       7.832  -0.666  32.780  1.00 36.43 LIG 0.40  C 
ATOM     12  CB  ALA B 301       8.312  -1.077  31.392  1.00 36.70 LIG 0.06  C 
ATOM     13  N   ALA B 301       6.341  -0.615  32.804  1.00 36.51 LIG 0.61  N 
ENDBRANCH 9 11
ENDBRANCH 6 7
BRANCH 6 14
ATOM     14  CB  SER B 302      10.911   2.160  34.470  1.00 37.65 LIG 0.20  C 
BRANCH 14 15
ATOM     15 OG   SER B 302      10.071   2.884  35.350  1.00 38.63 LIG-0.40  OA
ATOM     16 HG   SER B 302       9.701   3.512  34.932  1.00 38.63 LIG 0.21  HD
ENDBRANCH 14 15
ENDBRANCH 6 14
ENDBRANCH 3 6
ENDBRANCH 1 2
BRANCH 1 17
ATOM     17  CB  VAL B 303      12.453   4.509  29.654  1.00 37.28 LIG 0.01  C 
ATOM     18  CG1 VAL B 303      11.613   5.760  29.826  1.00 36.92 LIG 0.01  C 
ATOM     19  CG2 VAL B 303      13.613   4.775  28.704  1.00 37.06 LIG 0.01  C 
ENDBRANCH 1 17
BRANCH 1 20
ATOM     20  C   VAL B 303      13.803   5.163  31.651  1.00 37.27 LIG 0.24  C 
ATOM     21 O    VAL B 303      13.245   6.136  32.162  1.00 36.92 LIG-0.27  OA
ATOM     22  N   SER B 304      15.123   5.026  31.615  1.00 37.37 LIG-0.34  N 
ATOM     23 H    SER B 304      15.529   4.348  31.275  1.00 37.37 LIG 0.16  HD
BRANCH 22 24
ATOM     24  CA  SER B 304      16.008   6.044  32.167  1.00 37.74 LIG 0.20  C 
BRANCH 24 25
ATOM     25  CB  SER B 304      15.689   7.412  31.558  1.00 37.88 LIG 0.20  C 
BRANCH 25 26
ATOM     26 OG   SER B 304      16.617   8.390  31.999  1.00 38.36 LIG-0.40  OA
ATOM     27 HG   SER B 304      16.450   8.595  32.796  1.00 38.36 LIG 0.21  HD
ENDBRANCH 25 26
ENDBRANCH 24 25
BRANCH 24 28
ATOM     28  C   SER B 304      15.833   6.096  33.682  1.00 37.93 LIG 0.24  C 
ATOM     29 O    SER B 304      14.707   6.097  34.183  1.00 38.21 LIG-0.27  OA
ATOM     30  N   ALA B 305      16.945   6.137  34.408  1.00 38.06 LIG-0.35  N 
ATOM     31 H    ALA B 305      17.737   6.139  34.074  1.00 38.06 LIG 0.16  HD
BRANCH 30 32
ATOM     32  CA  ALA B 305      16.903   6.182  35.865  1.00 38.30 LIG 0.16  C 
ATOM     33  CB  ALA B 305      17.195   4.794  36.433  1.00 38.13 LIG 0.04  C 
BRANCH 32 34
ATOM     34  C   ALA B 305      17.902   7.190  36.419  1.00 38.47 LIG 0.22  C 
ATOM     35 O    ALA B 305      18.775   7.637  35.646  1.00 38.58 LIG-0.29  OA
ENDBRANCH 32 34
ENDBRANCH 30 32
ENDBRANCH 24 28
ENDBRANCH 22 24
ENDBRANCH 1 20
TORSDOF 14
ENDMDL
MODEL 146
USER: ADFR SOLUTION from run 3
USER: SCORE 10.016980 LL:  -1.888 LR:  -9.044 RR:   0.000 FEB:  -4.868
USER: RMSD 9.812235
USER: SEED 25335
USER: STATUS searching
USER: GENES 16
USER: genes 0 Translation |==|  0.76416 0.64931 0.43433
USER: genes 1 Rotation |==|  0.11805 0.82013 0.50193 0.54031
USER: genes 2 Torsion [CB]-CA--N-[C] |==|  0.52296
USER: genes 3 Torsion [N]-C--CA-[N] |==|  0.95091
USER: genes 4 Torsion [C]-CA--N-[C] |==|  0.78797
USER: genes 5 Torsion [N]-C--CA-[N] |==|  0.06986
USER: genes 6 Torsion [C]-CA--CB-[OG] |==|  0.80346
USER: genes 7 Torsion [CA]-CB--OG-[HG] |==|  0.85764
USER: genes 8 Torsion [N]-CA--CB-[CG1] |==|  0.43447
USER: genes 9 Torsion [N]-CA--C-[N] |==|  0.40927
USER: genes 10 Torsion [C]-N--CA-[CB] |==|  0.52808
USER: genes 11 Torsion [N]-CA--CB-[OG] |==|  0.99838
USER: genes 12 Torsion [CA]-CB--OG-[HG] |==|  0.46863
USER: genes 13 Torsion [N]-CA--C-[N] |==|  0.38334
USER: genes 14 Torsion [C]-N--CA-[C] |==|  0.73659
USER: genes 15 Torsion [N]-CA--C-[O] |==|  0.89990
ROOT
ATOM      1  CA  VAL B 303      18.424   7.660  32.447  1.00 37.13 LIG 0.18  C 
ENDROOT
BRANCH 1 2
ATOM      2  N   VAL B 303      18.520   9.028  31.955  1.00 37.20 LIG-0.35  N 
ATOM      3  C   SER B 302      18.686   9.299  30.665  1.00 37.39 LIG 0.24  C 
ATOM      4 O    SER B 302      18.788   8.421  29.803  1.00 37.76 LIG-0.27  OA
ATOM      5 H    VAL B 303      18.459   9.630  32.567  1.00 37.20 LIG 0.16  HD
BRANCH 3 6
ATOM      6  CA  SER B 302      18.758  10.776  30.293  1.00 37.09 LIG 0.20  C 
BRANCH 6 7
ATOM      7  N   SER B 302      18.221  11.605  31.363  1.00 36.48 LIG-0.34  N 
ATOM      8 H    SER B 302      18.818  12.005  31.837  1.00 36.48 LIG 0.16  HD
ATOM      9  C   ALA B 301      16.913  11.718  31.569  1.00 36.26 LIG 0.26  C 
ATOM     10 O    ALA B 301      16.075  11.143  30.873  1.00 35.88 LIG-0.27  OA
BRANCH 9 11
ATOM     11  CA  ALA B 301      16.484  12.611  32.729  1.00 36.43 LIG 0.40  C 
ATOM     12  CB  ALA B 301      15.164  13.301  32.395  1.00 36.70 LIG 0.06  C 
ATOM     13  N   ALA B 301      17.527  13.637  33.027  1.00 36.51 LIG 0.61  N 
ENDBRANCH 9 11
ENDBRANCH 6 7
BRANCH 6 14
ATOM     14  CB  SER B 302      20.212  11.158  29.997  1.00 37.65 LIG 0.20  C 
BRANCH 14 15
ATOM     15 OG   SER B 302      20.987  11.170  31.182  1.00 38.63 LIG-0.40  OA
ATOM     16 HG   SER B 302      20.602  11.638  31.764  1.00 38.63 LIG 0.21  HD
ENDBRANCH 14 15
ENDBRANCH 6 14
ENDBRANCH 3 6
ENDBRANCH 1 2
BRANCH 1 17
ATOM     17  CB  VAL B 303      18.029   7.618  33.946  1.00 37.28 LIG 0.01  C 
ATOM     18  CG1 VAL B 303      17.385   6.284  34.276  1.00 36.92 LIG 0.01  C 
ATOM     19  CG2 VAL B 303      19.256   7.845  34.818  1.00 37.06 LIG 0.01  C 
ENDBRANCH 1 17
BRANCH 1 20
ATOM     20  C   VAL B 303      17.375   6.903  31.643  1.00 37.27 LIG 0.24  C 
ATOM     21 O    VAL B 303      16.389   7.486  31.190  1.00 36.92 LIG-0.27  OA
ATOM     22  N   SER B 304      17.594   5.607  31.459  1.00 37.37 LIG-0.34  N 
ATOM     23 H    SER B 304      18.283   5.187  31.757  1.00 37.37 LIG 0.16  HD
BRANCH 22 24
ATOM     24  CA  SER B 304      16.655   4.776  30.716  1.00 37.74 LIG 0.20  C 
BRANCH 24 25
ATOM     25  CB  SER B 304      17.018   3.297  30.868  1.00 37.88 LIG 0.20  C 
BRANCH 25 26
ATOM     26 OG   SER B 304      18.173   3.141  31.676  1.00 38.36 LIG-0.40  OA
ATOM     27 HG   SER B 304      18.268   2.331  31.876  1.00 38.36 LIG 0.21  HD
ENDBRANCH 25 26
ENDBRANCH 24 25
BRANCH 24 28
ATOM     28  C   SER B 304      15.243   5.022  31.239  1.00 37.93 LIG 0.24  C 
ATOM     29 O    SER B 304      15.032   5.124  32.448  1.00 38.21 LIG-0.27  OA
ATOM     30  N   ALA B 305      14.280   5.118  30.329  1.00 38.06 LIG-0.35  N 
ATOM     31 H    ALA B 305      14.410   5.047  29.482  1.00 38.06 LIG 0.16  HD
BRANCH 30 32
ATOM     32  CA  ALA B 305      12.893   5.358  30.709  1.00 38.30 LIG 0.16  C 
ATOM     33  CB  ALA B 305      12.228   6.274  29.682  1.00 38.13 LIG 0.04  C 
BRANCH 32 34
ATOM     34  C   ALA B 305      12.114   4.053  30.822  1.00 38.47 LIG 0.22  C 
ATOM     35 O    ALA B 305      12.382   3.137  30.017  1.00 38.58 LIG-0.29  OA
ENDBRANCH 32 34
ENDBRANCH 30 32
ENDBRANCH 24 28
ENDBRANCH 22 24
ENDBRANCH 1 20
TORSDOF 14
ENDMDL
MODEL 147
USER: ADFR SOLUTION from run 131
USER: SCORE 9.745488 LL:  -1.602 LR:  -9.040 RR:   0.000 FEB:  -4.864
USER: RMSD 5.669227
USER: SEED 130
USER: STATUS no improvement in best in 23 clusters for 5 generations
USER: GENES 16
USER: genes 0 Translation |==|  0.62364 0.55212 0.62508
USER: genes 1 Rotation |==|  0.12296 0.31506 0.74005 0.62654
USER: genes 2 Torsion [CB]-CA--N-[C] |==|  0.55430
USER: genes 3 Torsion [N]-C--CA-[N] |==|  0.28222
USER: genes 4 Torsion [C]-CA--N-[C] |==|  0.74905
USER: genes 5 Torsion [N]-C--CA-[N] |==|  0.92325
USER: genes 6 Torsion [C]-CA--CB-[OG] |==|  0.63704
USER: genes 7 Torsion [CA]-CB--OG-[HG] |==|  0.20441
USER: genes 8 Torsion [N]-CA--CB-[CG1] |==|  0.26270
USER: genes 9 Torsion [N]-CA--C-[N] |==|  0.41366
USER: genes 10 Torsion [C]-N--CA-[CB] |==|  0.55000
USER: genes 11 Torsion [N]-CA--CB-[OG] |==|  0.89709
USER: genes 12 Torsion [CA]-CB--OG-[HG] |==|  0.08155
USER: genes 13 Torsion [N]-CA--C-[N] |==|  0.34129
USER: genes 14 Torsion [C]-N--CA-[C] |==|  0.19214
USER: genes 15 Torsion [N]-CA--C-[O] |==|  0.12108
ROOT
ATOM      1  CA  VAL B 303      15.579   5.691  35.308  1.00 37.13 LIG 0.18  C 
ENDROOT
BRANCH 1 2
ATOM      2  N   VAL B 303      14.549   4.852  35.908  1.00 37.20 LIG-0.35  N 
ATOM      3  C   SER B 302      13.366   4.675  35.330  1.00 37.39 LIG 0.24  C 
ATOM      4 O    SER B 302      13.052   5.215  34.265  1.00 37.76 LIG-0.27  OA
ATOM      5 H    VAL B 303      14.776   4.491  36.654  1.00 37.20 LIG 0.16  HD
BRANCH 3 6
ATOM      6  CA  SER B 302      12.389   3.762  36.064  1.00 37.09 LIG 0.20  C 
BRANCH 6 7
ATOM      7  N   SER B 302      11.390   4.544  36.781  1.00 36.48 LIG-0.34  N 
ATOM      8 H    SER B 302      10.686   4.726  36.323  1.00 36.48 LIG 0.16  HD
ATOM      9  C   ALA B 301      11.578   4.932  38.038  1.00 36.26 LIG 0.26  C 
ATOM     10 O    ALA B 301      12.593   4.654  38.679  1.00 35.88 LIG-0.27  OA
BRANCH 9 11
ATOM     11  CA  ALA B 301      10.458   5.753  38.669  1.00 36.43 LIG 0.40  C 
ATOM     12  CB  ALA B 301       9.506   4.836  39.432  1.00 36.70 LIG 0.06  C 
ATOM     13  N   ALA B 301       9.702   6.511  37.629  1.00 36.51 LIG 0.61  N 
ENDBRANCH 9 11
ENDBRANCH 6 7
BRANCH 6 14
ATOM     14  CB  SER B 302      11.715   2.822  35.060  1.00 37.65 LIG 0.20  C 
BRANCH 14 15
ATOM     15 OG   SER B 302      10.309   2.821  35.227  1.00 38.63 LIG-0.40  OA
ATOM     16 HG   SER B 302       9.991   3.540  34.932  1.00 38.63 LIG 0.21  HD
ENDBRANCH 14 15
ENDBRANCH 6 14
ENDBRANCH 3 6
ENDBRANCH 1 2
BRANCH 1 17
ATOM     17  CB  VAL B 303      16.984   5.366  35.878  1.00 37.28 LIG 0.01  C 
ATOM     18  CG1 VAL B 303      17.691   4.370  34.979  1.00 36.92 LIG 0.01  C 
ATOM     19  CG2 VAL B 303      17.805   6.641  36.007  1.00 37.06 LIG 0.01  C 
ENDBRANCH 1 17
BRANCH 1 20
ATOM     20  C   VAL B 303      15.600   5.471  33.802  1.00 37.27 LIG 0.24  C 
ATOM     21 O    VAL B 303      15.288   4.380  33.321  1.00 36.92 LIG-0.27  OA
ATOM     22  N   SER B 304      15.957   6.512  33.058  1.00 37.37 LIG-0.34  N 
ATOM     23 H    SER B 304      16.164   7.283  33.376  1.00 37.37 LIG 0.16  HD
BRANCH 22 24
ATOM     24  CA  SER B 304      16.025   6.419  31.605  1.00 37.74 LIG 0.20  C 
BRANCH 24 25
ATOM     25  CB  SER B 304      16.865   7.566  31.038  1.00 37.88 LIG 0.20  C 
BRANCH 25 26
ATOM     26 OG   SER B 304      16.649   8.760  31.771  1.00 38.36 LIG-0.40  OA
ATOM     27 HG   SER B 304      16.450   8.570  32.565  1.00 38.36 LIG 0.21  HD
ENDBRANCH 25 26
ENDBRANCH 24 25
BRANCH 24 28
ATOM     28  C   SER B 304      16.642   5.079  31.215  1.00 37.93 LIG 0.24  C 
ATOM     29 O    SER B 304      17.758   4.760  31.627  1.00 38.21 LIG-0.27  OA
ATOM     30  N   ALA B 305      15.915   4.298  30.423  1.00 38.06 LIG-0.35  N 
ATOM     31 H    ALA B 305      15.136   4.507  30.125  1.00 38.06 LIG 0.16  HD
BRANCH 30 32
ATOM     32  CA  ALA B 305      16.398   2.992  29.989  1.00 38.30 LIG 0.16  C 
ATOM     33  CB  ALA B 305      17.785   3.136  29.366  1.00 38.13 LIG 0.04  C 
BRANCH 32 34
ATOM     34  C   ALA B 305      16.450   2.005  31.150  1.00 38.47 LIG 0.22  C 
ATOM     35 O    ALA B 305      15.483   1.976  31.940  1.00 38.58 LIG-0.29  OA
ENDBRANCH 32 34
ENDBRANCH 30 32
ENDBRANCH 24 28
ENDBRANCH 22 24
ENDBRANCH 1 20
TORSDOF 14
ENDMDL
MODEL 148
USER: ADFR SOLUTION from run 1
USER: SCORE 9.055805 LL:  -1.603 LR:  -9.043 RR:   0.000 FEB:  -4.867
USER: RMSD 8.559577
USER: SEED 616368
USER: STATUS no improvement in best in 28 clusters for 5 generations
USER: GENES 16
USER: genes 0 Translation |==|  0.68766 0.68297 0.40015
USER: genes 1 Rotation |==|  0.52833 0.73143 0.08464 0.65203
USER: genes 2 Torsion [CB]-CA--N-[C] |==|  0.77183
USER: genes 3 Torsion [N]-C--CA-[N] |==|  0.10237
USER: genes 4 Torsion [C]-CA--N-[C] |==|  0.15079
USER: genes 5 Torsion [N]-C--CA-[N] |==|  0.15558
USER: genes 6 Torsion [C]-CA--CB-[OG] |==|  0.49729
USER: genes 7 Torsion [CA]-CB--OG-[HG] |==|  0.86577
USER: genes 8 Torsion [N]-CA--CB-[CG1] |==|  0.82075
USER: genes 9 Torsion [N]-CA--C-[N] |==|  0.19444
USER: genes 10 Torsion [C]-N--CA-[CB] |==|  0.46094
USER: genes 11 Torsion [N]-CA--CB-[OG] |==|  0.72129
USER: genes 12 Torsion [CA]-CB--OG-[HG] |==|  0.61312
USER: genes 13 Torsion [N]-CA--C-[N] |==|  0.90066
USER: genes 14 Torsion [C]-N--CA-[C] |==|  0.59159
USER: genes 15 Torsion [N]-CA--C-[O] |==|  0.99865
ROOT
ATOM      1  CA  VAL B 303      16.875   8.341  31.934  1.00 37.13 LIG 0.18  C 
ENDROOT
BRANCH 1 2
ATOM      2  N   VAL B 303      17.878   8.479  32.983  1.00 37.20 LIG-0.35  N 
ATOM      3  C   SER B 302      19.156   8.180  32.773  1.00 37.39 LIG 0.24  C 
ATOM      4 O    SER B 302      19.577   7.754  31.694  1.00 37.76 LIG-0.27  OA
ATOM      5 H    VAL B 303      17.570   8.765  33.733  1.00 37.20 LIG 0.16  HD
BRANCH 3 6
ATOM      6  CA  SER B 302      20.096   8.383  33.957  1.00 37.09 LIG 0.20  C 
BRANCH 6 7
ATOM      7  N   SER B 302      19.436   8.027  35.207  1.00 36.48 LIG-0.34  N 
ATOM      8 H    SER B 302      19.448   8.646  35.804  1.00 36.48 LIG 0.16  HD
ATOM      9  C   ALA B 301      18.870   6.837  35.382  1.00 36.26 LIG 0.26  C 
ATOM     10 O    ALA B 301      18.857   5.968  34.511  1.00 35.88 LIG-0.27  OA
BRANCH 9 11
ATOM     11  CA  ALA B 301      18.221   6.590  36.741  1.00 36.43 LIG 0.40  C 
ATOM     12  CB  ALA B 301      17.568   5.211  36.763  1.00 36.70 LIG 0.06  C 
ATOM     13  N   ALA B 301      17.199   7.636  37.042  1.00 36.51 LIG 0.61  N 
ENDBRANCH 9 11
ENDBRANCH 6 7
BRANCH 6 14
ATOM     14  CB  SER B 302      21.358   7.537  33.757  1.00 37.65 LIG 0.20  C 
BRANCH 14 15
ATOM     15 OG   SER B 302      22.266   7.717  34.828  1.00 38.63 LIG-0.40  OA
ATOM     16 HG   SER B 302      22.366   8.537  34.977  1.00 38.63 LIG 0.21  HD
ENDBRANCH 14 15
ENDBRANCH 6 14
ENDBRANCH 3 6
ENDBRANCH 1 2
BRANCH 1 17
ATOM     17  CB  VAL B 303      16.868   9.569  30.987  1.00 37.28 LIG 0.01  C 
ATOM     18  CG1 VAL B 303      16.450  10.811  31.751  1.00 36.92 LIG 0.01  C 
ATOM     19  CG2 VAL B 303      18.247   9.764  30.371  1.00 37.06 LIG 0.01  C 
ENDBRANCH 1 17
BRANCH 1 20
ATOM     20  C   VAL B 303      17.166   7.093  31.114  1.00 37.27 LIG 0.24  C 
ATOM     21 O    VAL B 303      17.576   7.182  29.955  1.00 36.92 LIG-0.27  OA
ATOM     22  N   SER B 304      16.965   5.928  31.718  1.00 37.37 LIG-0.34  N 
ATOM     23 H    SER B 304      16.691   5.847  32.530  1.00 37.37 LIG 0.16  HD
BRANCH 22 24
ATOM     24  CA  SER B 304      17.198   4.664  31.030  1.00 37.74 LIG 0.20  C 
BRANCH 24 25
ATOM     25  CB  SER B 304      17.229   3.510  32.035  1.00 37.88 LIG 0.20  C 
BRANCH 25 26
ATOM     26 OG   SER B 304      18.565   3.136  32.332  1.00 38.36 LIG-0.40  OA
ATOM     27 HG   SER B 304      18.618   2.298  32.375  1.00 38.36 LIG 0.21  HD
ENDBRANCH 25 26
ENDBRANCH 24 25
BRANCH 24 28
ATOM     28  C   SER B 304      16.088   4.435  30.009  1.00 37.93 LIG 0.24  C 
ATOM     29 O    SER B 304      16.331   3.890  28.932  1.00 38.21 LIG-0.27  OA
ATOM     30  N   ALA B 305      14.872   4.849  30.349  1.00 38.06 LIG-0.35  N 
ATOM     31 H    ALA B 305      14.686   5.233  31.095  1.00 38.06 LIG 0.16  HD
BRANCH 30 32
ATOM     32  CA  ALA B 305      13.731   4.678  29.457  1.00 38.30 LIG 0.16  C 
ATOM     33  CB  ALA B 305      13.041   3.347  29.751  1.00 38.13 LIG 0.04  C 
BRANCH 32 34
ATOM     34  C   ALA B 305      12.735   5.823  29.603  1.00 38.47 LIG 0.22  C 
ATOM     35 O    ALA B 305      12.991   6.722  30.431  1.00 38.58 LIG-0.29  OA
ENDBRANCH 32 34
ENDBRANCH 30 32
ENDBRANCH 24 28
ENDBRANCH 22 24
ENDBRANCH 1 20
TORSDOF 14
ENDMDL
MODEL 149
USER: ADFR SOLUTION from run 98
USER: SCORE 10.077035 LL:  -2.210 LR:  -9.029 RR:   0.000 FEB:  -4.853
USER: RMSD 3.608131
USER: SEED 97
USER: STATUS no improvement in best in 25 clusters for 5 generations
USER: GENES 16
USER: genes 0 Translation |==|  0.48361 0.38402 0.52089
USER: genes 1 Rotation |==|  0.36717 0.53597 0.43503 0.97628
USER: genes 2 Torsion [CB]-CA--N-[C] |==|  0.23773
USER: genes 3 Torsion [N]-C--CA-[N] |==|  0.36239
USER: genes 4 Torsion [C]-CA--N-[C] |==|  0.85383
USER: genes 5 Torsion [N]-C--CA-[N] |==|  0.24504
USER: genes 6 Torsion [C]-CA--CB-[OG] |==|  0.55765
USER: genes 7 Torsion [CA]-CB--OG-[HG] |==|  0.81871
USER: genes 8 Torsion [N]-CA--CB-[CG1] |==|  0.18628
USER: genes 9 Torsion [N]-CA--C-[N] |==|  0.91127
USER: genes 10 Torsion [C]-N--CA-[CB] |==|  0.87222
USER: genes 11 Torsion [N]-CA--CB-[OG] |==|  0.89699
USER: genes 12 Torsion [CA]-CB--OG-[HG] |==|  0.68650
USER: genes 13 Torsion [N]-CA--C-[N] |==|  0.88161
USER: genes 14 Torsion [C]-N--CA-[C] |==|  0.76394
USER: genes 15 Torsion [N]-CA--C-[O] |==|  0.06781
ROOT
ATOM      1  CA  VAL B 303      12.743   2.287  33.745  1.00 37.13 LIG 0.18  C 
ENDROOT
BRANCH 1 2
ATOM      2  N   VAL B 303      11.615   2.758  34.539  1.00 37.20 LIG-0.35  N 
ATOM      3  C   SER B 302      10.883   1.930  35.276  1.00 37.39 LIG 0.24  C 
ATOM      4 O    SER B 302      11.093   0.715  35.328  1.00 37.76 LIG-0.27  OA
ATOM      5 H    VAL B 303      11.472   3.605  34.485  1.00 37.20 LIG 0.16  HD
BRANCH 3 6
ATOM      6  CA  SER B 302       9.740   2.563  36.063  1.00 37.09 LIG 0.20  C 
BRANCH 6 7
ATOM      7  N   SER B 302       8.498   1.832  35.849  1.00 36.48 LIG-0.34  N 
ATOM      8 H    SER B 302       8.100   1.589  36.572  1.00 36.48 LIG 0.16  HD
ATOM      9  C   ALA B 301       8.042   1.575  34.627  1.00 36.26 LIG 0.26  C 
ATOM     10 O    ALA B 301       8.625   1.938  33.606  1.00 35.88 LIG-0.27  OA
BRANCH 9 11
ATOM     11  CA  ALA B 301       6.734   0.793  34.544  1.00 36.43 LIG 0.40  C 
ATOM     12  CB  ALA B 301       6.705  -0.038  33.265  1.00 36.70 LIG 0.06  C 
ATOM     13  N   ALA B 301       5.559   1.714  34.573  1.00 36.51 LIG 0.61  N 
ENDBRANCH 9 11
ENDBRANCH 6 7
BRANCH 6 14
ATOM     14  CB  SER B 302      10.098   2.587  37.552  1.00 37.65 LIG 0.20  C 
BRANCH 14 15
ATOM     15 OG   SER B 302       8.938   2.711  38.354  1.00 38.63 LIG-0.40  OA
ATOM     16 HG   SER B 302       8.578   3.457  38.214  1.00 38.63 LIG 0.21  HD
ENDBRANCH 14 15
ENDBRANCH 6 14
ENDBRANCH 3 6
ENDBRANCH 1 2
BRANCH 1 17
ATOM     17  CB  VAL B 303      12.289   1.780  32.352  1.00 37.28 LIG 0.01  C 
ATOM     18  CG1 VAL B 303      11.768   2.937  31.522  1.00 36.92 LIG 0.01  C 
ATOM     19  CG2 VAL B 303      13.449   1.096  31.640  1.00 37.06 LIG 0.01  C 
ENDBRANCH 1 17
BRANCH 1 20
ATOM     20  C   VAL B 303      13.737   3.424  33.551  1.00 37.27 LIG 0.24  C 
ATOM     21 O    VAL B 303      14.944   3.196  33.452  1.00 36.92 LIG-0.27  OA
ATOM     22  N   SER B 304      13.227   4.649  33.486  1.00 37.37 LIG-0.34  N 
ATOM     23 H    SER B 304      12.387   4.825  33.540  1.00 37.37 LIG 0.16  HD
BRANCH 22 24
ATOM     24  CA  SER B 304      14.080   5.818  33.313  1.00 37.74 LIG 0.20  C 
BRANCH 24 25
ATOM     25  CB  SER B 304      15.280   5.745  34.260  1.00 37.88 LIG 0.20  C 
BRANCH 25 26
ATOM     26 OG   SER B 304      14.905   5.186  35.509  1.00 38.36 LIG-0.40  OA
ATOM     27 HG   SER B 304      14.963   5.772  36.107  1.00 38.36 LIG 0.21  HD
ENDBRANCH 25 26
ENDBRANCH 24 25
BRANCH 24 28
ATOM     28  C   SER B 304      14.562   5.881  31.867  1.00 37.93 LIG 0.24  C 
ATOM     29 O    SER B 304      14.584   6.952  31.260  1.00 38.21 LIG-0.27  OA
ATOM     30  N   ALA B 305      14.948   4.734  31.318  1.00 38.06 LIG-0.35  N 
ATOM     31 H    ALA B 305      14.936   3.978  31.727  1.00 38.06 LIG 0.16  HD
BRANCH 30 32
ATOM     32  CA  ALA B 305      15.433   4.671  29.945  1.00 38.30 LIG 0.16  C 
ATOM     33  CB  ALA B 305      16.387   3.488  29.788  1.00 38.13 LIG 0.04  C 
BRANCH 32 34
ATOM     34  C   ALA B 305      14.281   4.543  28.954  1.00 38.47 LIG 0.22  C 
ATOM     35 O    ALA B 305      13.158   4.962  29.303  1.00 38.58 LIG-0.29  OA
ENDBRANCH 32 34
ENDBRANCH 30 32
ENDBRANCH 24 28
ENDBRANCH 22 24
ENDBRANCH 1 20
TORSDOF 14
ENDMDL
MODEL 150
USER: ADFR SOLUTION from run 41
USER: SCORE 10.184193 LL:  -2.059 LR:  -9.031 RR:   0.000 FEB:  -4.855
USER: RMSD 7.326945
USER: SEED 40
USER: STATUS searching
USER: GENES 16
USER: genes 0 Translation |==|  0.40864 0.41282 0.39986
USER: genes 1 Rotation |==|  0.78584 0.62560 0.21658 0.76868
USER: genes 2 Torsion [CB]-CA--N-[C] |==|  0.51226
USER: genes 3 Torsion [N]-C--CA-[N] |==|  0.96667
USER: genes 4 Torsion [C]-CA--N-[C] |==|  0.81108
USER: genes 5 Torsion [N]-C--CA-[N] |==|  0.23457
USER: genes 6 Torsion [C]-CA--CB-[OG] |==|  0.06527
USER: genes 7 Torsion [CA]-CB--OG-[HG] |==|  0.52440
USER: genes 8 Torsion [N]-CA--CB-[CG1] |==|  0.22766
USER: genes 9 Torsion [N]-CA--C-[N] |==|  0.45487
USER: genes 10 Torsion [C]-N--CA-[CB] |==|  0.88635
USER: genes 11 Torsion [N]-CA--CB-[OG] |==|  0.70070
USER: genes 12 Torsion [CA]-CB--OG-[HG] |==|  0.74739
USER: genes 13 Torsion [N]-CA--C-[N] |==|  0.85823
USER: genes 14 Torsion [C]-N--CA-[C] |==|  0.80688
USER: genes 15 Torsion [N]-CA--C-[O] |==|  0.96989
ROOT
ATOM      1  CA  VAL B 303      11.225   2.871  31.930  1.00 37.13 LIG 0.18  C 
ENDROOT
BRANCH 1 2
ATOM      2  N   VAL B 303      10.442   2.754  33.154  1.00 37.20 LIG-0.35  N 
ATOM      3  C   SER B 302       9.807   1.632  33.475  1.00 37.39 LIG 0.24  C 
ATOM      4 O    SER B 302       9.821   0.626  32.761  1.00 37.76 LIG-0.27  OA
ATOM      5 H    VAL B 303      10.431   3.466  33.637  1.00 37.20 LIG 0.16  HD
BRANCH 3 6
ATOM      6  CA  SER B 302       9.036   1.650  34.791  1.00 37.09 LIG 0.20  C 
BRANCH 6 7
ATOM      7  N   SER B 302       9.384   2.826  35.577  1.00 36.48 LIG-0.34  N 
ATOM      8 H    SER B 302       8.748   3.399  35.661  1.00 36.48 LIG 0.16  HD
ATOM      9  C   ALA B 301      10.592   2.976  36.111  1.00 36.26 LIG 0.26  C 
ATOM     10 O    ALA B 301      11.486   2.140  35.986  1.00 35.88 LIG-0.27  OA
BRANCH 9 11
ATOM     11  CA  ALA B 301      10.827   4.258  36.905  1.00 36.43 LIG 0.40  C 
ATOM     12  CB  ALA B 301      12.312   4.610  36.897  1.00 36.70 LIG 0.06  C 
ATOM     13  N   ALA B 301      10.352   4.109  38.312  1.00 36.51 LIG 0.61  N 
ENDBRANCH 9 11
ENDBRANCH 6 7
BRANCH 6 14
ATOM     14  CB  SER B 302       7.532   1.625  34.501  1.00 37.65 LIG 0.20  C 
BRANCH 14 15
ATOM     15 OG   SER B 302       7.268   1.067  33.226  1.00 38.63 LIG-0.40  OA
ATOM     16 HG   SER B 302       6.456   1.172  33.037  1.00 38.63 LIG 0.21  HD
ENDBRANCH 14 15
ENDBRANCH 6 14
ENDBRANCH 3 6
ENDBRANCH 1 2
BRANCH 1 17
ATOM     17  CB  VAL B 303      11.951   4.238  31.844  1.00 37.28 LIG 0.01  C 
ATOM     18  CG1 VAL B 303      13.233   4.197  32.654  1.00 36.92 LIG 0.01  C 
ATOM     19  CG2 VAL B 303      12.251   4.582  30.392  1.00 37.06 LIG 0.01  C 
ENDBRANCH 1 17
BRANCH 1 20
ATOM     20  C   VAL B 303      12.267   1.761  31.886  1.00 37.27 LIG 0.24  C 
ATOM     21 O    VAL B 303      12.550   1.124  32.902  1.00 36.92 LIG-0.27  OA
ATOM     22  N   SER B 304      12.828   1.525  30.707  1.00 37.37 LIG-0.34  N 
ATOM     23 H    SER B 304      12.633   1.951  29.986  1.00 37.37 LIG 0.16  HD
BRANCH 22 24
ATOM     24  CA  SER B 304      13.847   0.495  30.543  1.00 37.74 LIG 0.20  C 
BRANCH 24 25
ATOM     25  CB  SER B 304      14.813   0.510  31.730  1.00 37.88 LIG 0.20  C 
BRANCH 25 26
ATOM     26 OG   SER B 304      16.074   1.034  31.348  1.00 38.36 LIG-0.40  OA
ATOM     27 HG   SER B 304      16.573   0.407  31.095  1.00 38.36 LIG 0.21  HD
ENDBRANCH 25 26
ENDBRANCH 24 25
BRANCH 24 28
ATOM     28  C   SER B 304      13.172  -0.869  30.439  1.00 37.93 LIG 0.24  C 
ATOM     29 O    SER B 304      13.447  -1.635  29.514  1.00 38.21 LIG-0.27  OA
ATOM     30  N   ALA B 305      12.291  -1.171  31.386  1.00 38.06 LIG-0.35  N 
ATOM     31 H    ALA B 305      12.085  -0.646  32.036  1.00 38.06 LIG 0.16  HD
BRANCH 30 32
ATOM     32  CA  ALA B 305      11.587  -2.448  31.395  1.00 38.30 LIG 0.16  C 
ATOM     33  CB  ALA B 305      10.868  -2.632  32.730  1.00 38.13 LIG 0.04  C 
BRANCH 32 34
ATOM     34  C   ALA B 305      10.585  -2.538  30.249  1.00 38.47 LIG 0.22  C 
ATOM     35 O    ALA B 305      10.336  -1.498  29.604  1.00 38.58 LIG-0.29  OA
ENDBRANCH 32 34
ENDBRANCH 30 32
ENDBRANCH 24 28
ENDBRANCH 22 24
ENDBRANCH 1 20
TORSDOF 14
ENDMDL
MODEL 151
USER: ADFR SOLUTION from run 117
USER: SCORE 9.082295 LL:  -1.893 LR:  -9.031 RR:   0.000 FEB:  -4.855
USER: RMSD 7.465900
USER: SEED 116
USER: STATUS no improvement in best in 40 clusters for 5 generations
USER: GENES 16
USER: genes 0 Translation |==|  0.64988 0.49064 0.35831
USER: genes 1 Rotation |==|  0.36120 0.40697 0.91735 0.71885
USER: genes 2 Torsion [CB]-CA--N-[C] |==|  0.17339
USER: genes 3 Torsion [N]-C--CA-[N] |==|  0.18514
USER: genes 4 Torsion [C]-CA--N-[C] |==|  0.76970
USER: genes 5 Torsion [N]-C--CA-[N] |==|  0.04511
USER: genes 6 Torsion [C]-CA--CB-[OG] |==|  0.67949
USER: genes 7 Torsion [CA]-CB--OG-[HG] |==|  0.17979
USER: genes 8 Torsion [N]-CA--CB-[CG1] |==|  0.11590
USER: genes 9 Torsion [N]-CA--C-[N] |==|  0.26810
USER: genes 10 Torsion [C]-N--CA-[CB] |==|  0.80555
USER: genes 11 Torsion [N]-CA--CB-[OG] |==|  0.83070
USER: genes 12 Torsion [CA]-CB--OG-[HG] |==|  0.25849
USER: genes 13 Torsion [N]-CA--C-[N] |==|  0.25549
USER: genes 14 Torsion [C]-N--CA-[C] |==|  0.57271
USER: genes 15 Torsion [N]-CA--C-[O] |==|  0.29278
ROOT
ATOM      1  CA  VAL B 303      16.110   4.447  31.307  1.00 37.13 LIG 0.18  C 
ENDROOT
BRANCH 1 2
ATOM      2  N   VAL B 303      16.442   3.489  32.354  1.00 37.20 LIG-0.35  N 
ATOM      3  C   SER B 302      17.635   3.478  32.941  1.00 37.39 LIG 0.24  C 
ATOM      4 O    SER B 302      18.541   4.257  32.632  1.00 37.76 LIG-0.27  OA
ATOM      5 H    VAL B 303      15.807   2.945  32.551  1.00 37.20 LIG 0.16  HD
BRANCH 3 6
ATOM      6  CA  SER B 302      17.839   2.428  34.028  1.00 37.09 LIG 0.20  C 
BRANCH 6 7
ATOM      7  N   SER B 302      17.819   1.086  33.460  1.00 36.48 LIG-0.34  N 
ATOM      8 H    SER B 302      18.597   0.757  33.300  1.00 36.48 LIG 0.16  HD
ATOM      9  C   ALA B 301      16.678   0.447  33.220  1.00 36.26 LIG 0.26  C 
ATOM     10 O    ALA B 301      15.574   0.935  33.465  1.00 35.88 LIG-0.27  OA
BRANCH 9 11
ATOM     11  CA  ALA B 301      16.798  -0.949  32.617  1.00 36.43 LIG 0.40  C 
ATOM     12  CB  ALA B 301      15.807  -1.894  33.289  1.00 36.70 LIG 0.06  C 
ATOM     13  N   ALA B 301      18.185  -1.479  32.771  1.00 36.51 LIG 0.61  N 
ENDBRANCH 9 11
ENDBRANCH 6 7
BRANCH 6 14
ATOM     14  CB  SER B 302      19.167   2.688  34.745  1.00 37.65 LIG 0.20  C 
BRANCH 14 15
ATOM     15 OG   SER B 302      20.077   1.623  34.533  1.00 38.63 LIG-0.40  OA
ATOM     16 HG   SER B 302      20.277   1.583  33.719  1.00 38.63 LIG 0.21  HD
ENDBRANCH 14 15
ENDBRANCH 6 14
ENDBRANCH 3 6
ENDBRANCH 1 2
BRANCH 1 17
ATOM     17  CB  VAL B 303      17.018   4.269  30.062  1.00 37.28 LIG 0.01  C 
ATOM     18  CG1 VAL B 303      17.207   2.794  29.764  1.00 36.92 LIG 0.01  C 
ATOM     19  CG2 VAL B 303      16.406   4.978  28.862  1.00 37.06 LIG 0.01  C 
ENDBRANCH 1 17
BRANCH 1 20
ATOM     20  C   VAL B 303      14.660   4.255  30.885  1.00 37.27 LIG 0.24  C 
ATOM     21 O    VAL B 303      14.351   3.387  30.067  1.00 36.92 LIG-0.27  OA
ATOM     22  N   SER B 304      13.769   5.060  31.452  1.00 37.37 LIG-0.34  N 
ATOM     23 H    SER B 304      13.965   5.662  32.034  1.00 37.37 LIG 0.16  HD
BRANCH 22 24
ATOM     24  CA  SER B 304      12.352   4.979  31.120  1.00 37.74 LIG 0.20  C 
BRANCH 24 25
ATOM     25  CB  SER B 304      12.111   5.482  29.695  1.00 37.88 LIG 0.20  C 
BRANCH 25 26
ATOM     26 OG   SER B 304      12.504   6.839  29.565  1.00 38.36 LIG-0.40  OA
ATOM     27 HG   SER B 304      13.299   6.875  29.294  1.00 38.36 LIG 0.21  HD
ENDBRANCH 25 26
ENDBRANCH 24 25
BRANCH 24 28
ATOM     28  C   SER B 304      11.887   3.531  31.246  1.00 37.93 LIG 0.24  C 
ATOM     29 O    SER B 304      11.980   2.758  30.292  1.00 38.21 LIG-0.27  OA
ATOM     30  N   ALA B 305      11.390   3.167  32.424  1.00 38.06 LIG-0.35  N 
ATOM     31 H    ALA B 305      11.317   3.694  33.098  1.00 38.06 LIG 0.16  HD
BRANCH 30 32
ATOM     32  CA  ALA B 305      10.920   1.807  32.665  1.00 38.30 LIG 0.16  C 
ATOM     33  CB  ALA B 305      12.099   0.915  33.052  1.00 38.13 LIG 0.04  C 
BRANCH 32 34
ATOM     34  C   ALA B 305       9.861   1.772  33.760  1.00 38.47 LIG 0.22  C 
ATOM     35 O    ALA B 305       8.671   1.602  33.421  1.00 38.58 LIG-0.29  OA
ENDBRANCH 32 34
ENDBRANCH 30 32
ENDBRANCH 24 28
ENDBRANCH 22 24
ENDBRANCH 1 20
TORSDOF 14
ENDMDL
MODEL 152
USER: ADFR SOLUTION from run 7
USER: SCORE 9.337470 LL:  -1.590 LR:  -9.032 RR:   0.000 FEB:  -4.856
USER: RMSD 9.443379
USER: SEED 297515
USER: STATUS no improvement in best in 16 clusters for 5 generations
USER: GENES 16
USER: genes 0 Translation |==|  0.58909 0.55186 0.39864
USER: genes 1 Rotation |==|  0.37628 0.59545 0.09633 0.75027
USER: genes 2 Torsion [CB]-CA--N-[C] |==|  0.84992
USER: genes 3 Torsion [N]-C--CA-[N] |==|  0.36573
USER: genes 4 Torsion [C]-CA--N-[C] |==|  0.72895
USER: genes 5 Torsion [N]-C--CA-[N] |==|  0.29264
USER: genes 6 Torsion [C]-CA--CB-[OG] |==|  0.40894
USER: genes 7 Torsion [CA]-CB--OG-[HG] |==|  0.18860
USER: genes 8 Torsion [N]-CA--CB-[CG1] |==|  0.33761
USER: genes 9 Torsion [N]-CA--C-[N] |==|  0.41664
USER: genes 10 Torsion [C]-N--CA-[CB] |==|  0.18342
USER: genes 11 Torsion [N]-CA--CB-[OG] |==|  0.41715
USER: genes 12 Torsion [CA]-CB--OG-[HG] |==|  0.24670
USER: genes 13 Torsion [N]-CA--C-[N] |==|  0.41319
USER: genes 14 Torsion [C]-N--CA-[C] |==|  0.16782
USER: genes 15 Torsion [N]-CA--C-[O] |==|  0.16895
ROOT
ATOM      1  CA  VAL B 303      14.879   5.686  31.912  1.00 37.13 LIG 0.18  C 
ENDROOT
BRANCH 1 2
ATOM      2  N   VAL B 303      15.563   6.902  32.333  1.00 37.20 LIG-0.35  N 
ATOM      3  C   SER B 302      16.472   7.496  31.567  1.00 37.39 LIG 0.24  C 
ATOM      4 O    SER B 302      16.810   7.057  30.464  1.00 37.76 LIG-0.27  OA
ATOM      5 H    VAL B 303      15.328   7.191  33.108  1.00 37.20 LIG 0.16  HD
BRANCH 3 6
ATOM      6  CA  SER B 302      17.099   8.767  32.131  1.00 37.09 LIG 0.20  C 
BRANCH 6 7
ATOM      7  N   SER B 302      18.550   8.723  32.014  1.00 36.48 LIG-0.34  N 
ATOM      8 H    SER B 302      18.851   8.953  31.242  1.00 36.48 LIG 0.16  HD
ATOM      9  C   ALA B 301      19.322   8.354  33.032  1.00 36.26 LIG 0.26  C 
ATOM     10 O    ALA B 301      18.870   8.037  34.132  1.00 35.88 LIG-0.27  OA
BRANCH 9 11
ATOM     11  CA  ALA B 301      20.825   8.344  32.773  1.00 36.43 LIG 0.40  C 
ATOM     12  CB  ALA B 301      21.434   7.043  33.288  1.00 36.70 LIG 0.06  C 
ATOM     13  N   ALA B 301      21.489   9.507  33.432  1.00 36.51 LIG 0.61  N 
ENDBRANCH 9 11
ENDBRANCH 6 7
BRANCH 6 14
ATOM     14  CB  SER B 302      16.537   9.985  31.391  1.00 37.65 LIG 0.20  C 
BRANCH 14 15
ATOM     15 OG   SER B 302      16.450  11.108  32.249  1.00 38.63 LIG-0.40  OA
ATOM     16 HG   SER B 302      17.223  11.365  32.454  1.00 38.63 LIG 0.21  HD
ENDBRANCH 14 15
ENDBRANCH 6 14
ENDBRANCH 3 6
ENDBRANCH 1 2
BRANCH 1 17
ATOM     17  CB  VAL B 303      14.207   5.861  30.525  1.00 37.28 LIG 0.01  C 
ATOM     18  CG1 VAL B 303      14.751   4.833  29.551  1.00 36.92 LIG 0.01  C 
ATOM     19  CG2 VAL B 303      12.696   5.723  30.653  1.00 37.06 LIG 0.01  C 
ENDBRANCH 1 17
BRANCH 1 20
ATOM     20  C   VAL B 303      15.881   4.543  31.829  1.00 37.27 LIG 0.24  C 
ATOM     21 O    VAL B 303      17.064   4.760  31.561  1.00 36.92 LIG-0.27  OA
ATOM     22  N   SER B 304      15.408   3.325  32.069  1.00 37.37 LIG-0.34  N 
ATOM     23 H    SER B 304      14.589   3.157  32.270  1.00 37.37 LIG 0.16  HD
BRANCH 22 24
ATOM     24  CA  SER B 304      16.269   2.150  32.008  1.00 37.74 LIG 0.20  C 
BRANCH 24 25
ATOM     25  CB  SER B 304      17.319   2.203  33.119  1.00 37.88 LIG 0.20  C 
BRANCH 25 26
ATOM     26 OG   SER B 304      17.687   0.896  33.529  1.00 38.36 LIG-0.40  OA
ATOM     27 HG   SER B 304      18.325   0.623  33.055  1.00 38.36 LIG 0.21  HD
ENDBRANCH 25 26
ENDBRANCH 24 25
BRANCH 24 28
ATOM     28  C   SER B 304      15.416   0.894  32.156  1.00 37.93 LIG 0.24  C 
ATOM     29 O    SER B 304      14.387   0.912  32.832  1.00 38.21 LIG-0.27  OA
ATOM     30  N   ALA B 305      15.844  -0.193  31.522  1.00 38.06 LIG-0.35  N 
ATOM     31 H    ALA B 305      16.561  -0.222  31.048  1.00 38.06 LIG 0.16  HD
BRANCH 30 32
ATOM     32  CA  ALA B 305      15.109  -1.451  31.585  1.00 38.30 LIG 0.16  C 
ATOM     33  CB  ALA B 305      15.040  -1.937  33.032  1.00 38.13 LIG 0.04  C 
BRANCH 32 34
ATOM     34  C   ALA B 305      13.701  -1.301  31.020  1.00 38.47 LIG 0.22  C 
ATOM     35 O    ALA B 305      13.581  -0.958  29.825  1.00 38.58 LIG-0.29  OA
ENDBRANCH 32 34
ENDBRANCH 30 32
ENDBRANCH 24 28
ENDBRANCH 22 24
ENDBRANCH 1 20
TORSDOF 14
ENDMDL
MODEL 153
USER: ADFR SOLUTION from run 1
USER: SCORE 10.189673 LL:  -1.693 LR:  -9.011 RR:   0.000 FEB:  -4.834
USER: RMSD 3.526218
USER: SEED 616368
USER: STATUS no improvement in best in 28 clusters for 5 generations
USER: GENES 16
USER: genes 0 Translation |==|  0.54618 0.41929 0.29778
USER: genes 1 Rotation |==|  0.62916 0.65754 0.46500 0.95527
USER: genes 2 Torsion [CB]-CA--N-[C] |==|  0.88332
USER: genes 3 Torsion [N]-C--CA-[N] |==|  0.40031
USER: genes 4 Torsion [C]-CA--N-[C] |==|  0.81611
USER: genes 5 Torsion [N]-C--CA-[N] |==|  0.01334
USER: genes 6 Torsion [C]-CA--CB-[OG] |==|  0.68849
USER: genes 7 Torsion [CA]-CB--OG-[HG] |==|  0.15232
USER: genes 8 Torsion [N]-CA--CB-[CG1] |==|  0.43326
USER: genes 9 Torsion [N]-CA--C-[N] |==|  0.85891
USER: genes 10 Torsion [C]-N--CA-[CB] |==|  0.86330
USER: genes 11 Torsion [N]-CA--CB-[OG] |==|  0.43287
USER: genes 12 Torsion [CA]-CB--OG-[HG] |==|  0.12940
USER: genes 13 Torsion [N]-CA--C-[N] |==|  0.36246
USER: genes 14 Torsion [C]-N--CA-[C] |==|  0.82732
USER: genes 15 Torsion [N]-CA--C-[O] |==|  0.26370
ROOT
ATOM      1  CA  VAL B 303      14.010   3.002  30.399  1.00 37.13 LIG 0.18  C 
ENDROOT
BRANCH 1 2
ATOM      2  N   VAL B 303      13.291   2.386  31.507  1.00 37.20 LIG-0.35  N 
ATOM      3  C   SER B 302      12.457   3.081  32.273  1.00 37.39 LIG 0.24  C 
ATOM      4 O    SER B 302      12.247   4.287  32.114  1.00 37.76 LIG-0.27  OA
ATOM      5 H    VAL B 303      13.454   1.548  31.614  1.00 37.20 LIG 0.16  HD
BRANCH 3 6
ATOM      6  CA  SER B 302      11.764   2.305  33.388  1.00 37.09 LIG 0.20  C 
BRANCH 6 7
ATOM      7  N   SER B 302      11.605   3.136  34.574  1.00 36.48 LIG-0.34  N 
ATOM      8 H    SER B 302      10.789   3.320  34.772  1.00 36.48 LIG 0.16  HD
ATOM      9  C   ALA B 301      12.653   3.560  35.274  1.00 36.26 LIG 0.26  C 
ATOM     10 O    ALA B 301      13.814   3.278  34.977  1.00 35.88 LIG-0.27  OA
BRANCH 9 11
ATOM     11  CA  ALA B 301      12.348   4.431  36.489  1.00 36.43 LIG 0.40  C 
ATOM     12  CB  ALA B 301      13.017   3.847  37.730  1.00 36.70 LIG 0.06  C 
ATOM     13  N   ALA B 301      10.876   4.537  36.713  1.00 36.51 LIG 0.61  N 
ENDBRANCH 9 11
ENDBRANCH 6 7
BRANCH 6 14
ATOM     14  CB  SER B 302      10.402   1.808  32.895  1.00 37.65 LIG 0.20  C 
BRANCH 14 15
ATOM     15 OG   SER B 302       9.345   2.465  33.570  1.00 38.63 LIG-0.40  OA
ATOM     16 HG   SER B 302       9.435   3.297  33.491  1.00 38.63 LIG 0.21  HD
ENDBRANCH 14 15
ENDBRANCH 6 14
ENDBRANCH 3 6
ENDBRANCH 1 2
BRANCH 1 17
ATOM     17  CB  VAL B 303      13.101   3.964  29.592  1.00 37.28 LIG 0.01  C 
ATOM     18  CG1 VAL B 303      13.947   4.997  28.872  1.00 36.92 LIG 0.01  C 
ATOM     19  CG2 VAL B 303      12.260   3.179  28.595  1.00 37.06 LIG 0.01  C 
ENDBRANCH 1 17
BRANCH 1 20
ATOM     20  C   VAL B 303      15.197   3.788  30.938  1.00 37.27 LIG 0.24  C 
ATOM     21 O    VAL B 303      16.324   3.629  30.467  1.00 36.92 LIG-0.27  OA
ATOM     22  N   SER B 304      14.941   4.643  31.921  1.00 37.37 LIG-0.34  N 
ATOM     23 H    SER B 304      14.159   4.776  32.253  1.00 37.37 LIG 0.16  HD
BRANCH 22 24
ATOM     24  CA  SER B 304      15.998   5.444  32.526  1.00 37.74 LIG 0.20  C 
BRANCH 24 25
ATOM     25  CB  SER B 304      17.187   4.557  32.902  1.00 37.88 LIG 0.20  C 
BRANCH 25 26
ATOM     26 OG   SER B 304      18.384   5.315  32.961  1.00 38.36 LIG-0.40  OA
ATOM     27 HG   SER B 304      18.248   6.021  33.396  1.00 38.36 LIG 0.21  HD
ENDBRANCH 25 26
ENDBRANCH 24 25
BRANCH 24 28
ATOM     28  C   SER B 304      16.442   6.520  31.540  1.00 37.93 LIG 0.24  C 
ATOM     29 O    SER B 304      16.717   6.226  30.375  1.00 38.21 LIG-0.27  OA
ATOM     30  N   ALA B 305      16.510   7.762  32.005  1.00 38.06 LIG-0.35  N 
ATOM     31 H    ALA B 305      16.323   7.982  32.815  1.00 38.06 LIG 0.16  HD
BRANCH 30 32
ATOM     32  CA  ALA B 305      16.915   8.875  31.154  1.00 38.30 LIG 0.16  C 
ATOM     33  CB  ALA B 305      16.801  10.186  31.930  1.00 38.13 LIG 0.04  C 
BRANCH 32 34
ATOM     34  C   ALA B 305      18.341   8.694  30.646  1.00 38.47 LIG 0.22  C 
ATOM     35 O    ALA B 305      18.503   8.172  29.523  1.00 38.58 LIG-0.29  OA
ENDBRANCH 32 34
ENDBRANCH 30 32
ENDBRANCH 24 28
ENDBRANCH 22 24
ENDBRANCH 1 20
TORSDOF 14
ENDMDL
MODEL 154
USER: ADFR SOLUTION from run 71
USER: SCORE 9.661807 LL:  -2.091 LR:  -8.997 RR:   0.000 FEB:  -4.821
USER: RMSD 8.302775
USER: SEED 70
USER: STATUS no improvement in best in 29 clusters for 5 generations
USER: GENES 16
USER: genes 0 Translation |==|  0.61877 0.42142 0.30434
USER: genes 1 Rotation |==|  0.80303 0.32263 0.15575 0.59058
USER: genes 2 Torsion [CB]-CA--N-[C] |==|  0.20550
USER: genes 3 Torsion [N]-C--CA-[N] |==|  0.14229
USER: genes 4 Torsion [C]-CA--N-[C] |==|  0.76207
USER: genes 5 Torsion [N]-C--CA-[N] |==|  0.53483
USER: genes 6 Torsion [C]-CA--CB-[OG] |==|  0.70230
USER: genes 7 Torsion [CA]-CB--OG-[HG] |==|  0.80133
USER: genes 8 Torsion [N]-CA--CB-[CG1] |==|  0.72070
USER: genes 9 Torsion [N]-CA--C-[N] |==|  0.58787
USER: genes 10 Torsion [C]-N--CA-[CB] |==|  0.16420
USER: genes 11 Torsion [N]-CA--CB-[OG] |==|  0.24601
USER: genes 12 Torsion [CA]-CB--OG-[HG] |==|  0.51950
USER: genes 13 Torsion [N]-CA--C-[N] |==|  0.07222
USER: genes 14 Torsion [C]-N--CA-[C] |==|  0.59588
USER: genes 15 Torsion [N]-CA--C-[O] |==|  0.13969
ROOT
ATOM      1  CA  VAL B 303      15.480   3.045  30.497  1.00 37.13 LIG 0.18  C 
ENDROOT
BRANCH 1 2
ATOM      2  N   VAL B 303      15.136   4.266  31.214  1.00 37.20 LIG-0.35  N 
ATOM      3  C   SER B 302      15.586   5.456  30.828  1.00 37.39 LIG 0.24  C 
ATOM      4 O    SER B 302      16.332   5.607  29.858  1.00 37.76 LIG-0.27  OA
ATOM      5 H    VAL B 303      14.624   4.145  31.895  1.00 37.20 LIG 0.16  HD
BRANCH 3 6
ATOM      6  CA  SER B 302      15.135   6.648  31.666  1.00 37.09 LIG 0.20  C 
BRANCH 6 7
ATOM      7  N   SER B 302      15.387   6.409  33.081  1.00 36.48 LIG-0.34  N 
ATOM      8 H    SER B 302      16.135   6.724  33.367  1.00 36.48 LIG 0.16  HD
ATOM      9  C   ALA B 301      14.516   5.758  33.845  1.00 36.26 LIG 0.26  C 
ATOM     10 O    ALA B 301      13.447   5.323  33.417  1.00 35.88 LIG-0.27  OA
BRANCH 9 11
ATOM     11  CA  ALA B 301      14.906   5.569  35.307  1.00 36.43 LIG 0.40  C 
ATOM     12  CB  ALA B 301      16.355   5.099  35.404  1.00 36.70 LIG 0.06  C 
ATOM     13  N   ALA B 301      14.010   4.580  35.975  1.00 36.51 LIG 0.61  N 
ENDBRANCH 9 11
ENDBRANCH 6 7
BRANCH 6 14
ATOM     14  CB  SER B 302      15.869   7.908  31.195  1.00 37.65 LIG 0.20  C 
BRANCH 14 15
ATOM     15 OG   SER B 302      16.851   8.307  32.134  1.00 38.63 LIG-0.40  OA
ATOM     16 HG   SER B 302      16.475   8.619  32.818  1.00 38.63 LIG 0.21  HD
ENDBRANCH 14 15
ENDBRANCH 6 14
ENDBRANCH 3 6
ENDBRANCH 1 2
BRANCH 1 17
ATOM     17  CB  VAL B 303      16.946   2.619  30.767  1.00 37.28 LIG 0.01  C 
ATOM     18  CG1 VAL B 303      17.829   3.033  29.605  1.00 36.92 LIG 0.01  C 
ATOM     19  CG2 VAL B 303      17.445   3.247  32.061  1.00 37.06 LIG 0.01  C 
ENDBRANCH 1 17
BRANCH 1 20
ATOM     20  C   VAL B 303      14.555   1.919  30.938  1.00 37.27 LIG 0.24  C 
ATOM     21 O    VAL B 303      13.392   2.154  31.272  1.00 36.92 LIG-0.27  OA
ATOM     22  N   SER B 304      15.069   0.695  30.930  1.00 37.37 LIG-0.34  N 
ATOM     23 H    SER B 304      15.874   0.512  30.688  1.00 37.37 LIG 0.16  HD
BRANCH 22 24
ATOM     24  CA  SER B 304      14.284  -0.462  31.343  1.00 37.74 LIG 0.20  C 
BRANCH 24 25
ATOM     25  CB  SER B 304      13.037  -0.598  30.466  1.00 37.88 LIG 0.20  C 
BRANCH 25 26
ATOM     26 OG   SER B 304      13.312  -1.378  29.314  1.00 38.36 LIG-0.40  OA
ATOM     27 HG   SER B 304      12.648  -1.362  28.800  1.00 38.36 LIG 0.21  HD
ENDBRANCH 25 26
ENDBRANCH 24 25
BRANCH 24 28
ATOM     28  C   SER B 304      15.141  -1.719  31.228  1.00 37.93 LIG 0.24  C 
ATOM     29 O    SER B 304      14.617  -2.819  31.052  1.00 38.21 LIG-0.27  OA
ATOM     30  N   ALA B 305      16.456  -1.553  31.325  1.00 38.06 LIG-0.35  N 
ATOM     31 H    ALA B 305      16.836  -0.792  31.451  1.00 38.06 LIG 0.16  HD
BRANCH 30 32
ATOM     32  CA  ALA B 305      17.376  -2.680  31.225  1.00 38.30 LIG 0.16  C 
ATOM     33  CB  ALA B 305      17.832  -2.846  29.776  1.00 38.13 LIG 0.04  C 
BRANCH 32 34
ATOM     34  C   ALA B 305      18.586  -2.492  32.132  1.00 38.47 LIG 0.22  C 
ATOM     35 O    ALA B 305      18.383  -2.194  33.328  1.00 38.58 LIG-0.29  OA
ENDBRANCH 32 34
ENDBRANCH 30 32
ENDBRANCH 24 28
ENDBRANCH 22 24
ENDBRANCH 1 20
TORSDOF 14
ENDMDL
MODEL 155
USER: ADFR SOLUTION from run 51
USER: SCORE 9.579099 LL:  -2.216 LR:  -8.996 RR:   0.000 FEB:  -4.820
USER: RMSD 7.765315
USER: SEED 50
USER: STATUS no improvement in best in 30 clusters for 5 generations
USER: GENES 16
USER: genes 0 Translation |==|  0.62760 0.48561 0.28298
USER: genes 1 Rotation |==|  0.27821 0.71063 0.87063 0.63812
USER: genes 2 Torsion [CB]-CA--N-[C] |==|  0.49444
USER: genes 3 Torsion [N]-C--CA-[N] |==|  0.87417
USER: genes 4 Torsion [C]-CA--N-[C] |==|  0.82507
USER: genes 5 Torsion [N]-C--CA-[N] |==|  0.42595
USER: genes 6 Torsion [C]-CA--CB-[OG] |==|  0.37772
USER: genes 7 Torsion [CA]-CB--OG-[HG] |==|  0.02971
USER: genes 8 Torsion [N]-CA--CB-[CG1] |==|  0.80283
USER: genes 9 Torsion [N]-CA--C-[N] |==|  0.96976
USER: genes 10 Torsion [C]-N--CA-[CB] |==|  0.86577
USER: genes 11 Torsion [N]-CA--CB-[OG] |==|  0.89817
USER: genes 12 Torsion [CA]-CB--OG-[HG] |==|  0.35512
USER: genes 13 Torsion [N]-CA--C-[N] |==|  0.35254
USER: genes 14 Torsion [C]-N--CA-[C] |==|  0.53189
USER: genes 15 Torsion [N]-CA--C-[O] |==|  0.24142
ROOT
ATOM      1  CA  VAL B 303      15.659   4.345  30.177  1.00 37.13 LIG 0.18  C 
ENDROOT
BRANCH 1 2
ATOM      2  N   VAL B 303      16.156   5.012  31.373  1.00 37.20 LIG-0.35  N 
ATOM      3  C   SER B 302      15.831   6.268  31.661  1.00 37.39 LIG 0.24  C 
ATOM      4 O    SER B 302      15.108   6.956  30.936  1.00 37.76 LIG-0.27  OA
ATOM      5 H    VAL B 303      16.668   4.525  31.864  1.00 37.20 LIG 0.16  HD
BRANCH 3 6
ATOM      6  CA  SER B 302      16.415   6.834  32.951  1.00 37.09 LIG 0.20  C 
BRANCH 6 7
ATOM      7  N   SER B 302      16.279   5.878  34.043  1.00 36.48 LIG-0.34  N 
ATOM      8 H    SER B 302      17.025   5.602  34.369  1.00 36.48 LIG 0.16  HD
ATOM      9  C   ALA B 301      15.087   5.484  34.479  1.00 36.26 LIG 0.26  C 
ATOM     10 O    ALA B 301      14.030   5.898  34.004  1.00 35.88 LIG-0.27  OA
BRANCH 9 11
ATOM     11  CA  ALA B 301      15.085   4.473  35.623  1.00 36.43 LIG 0.40  C 
ATOM     12  CB  ALA B 301      15.216   3.058  35.068  1.00 36.70 LIG 0.06  C 
ATOM     13  N   ALA B 301      13.835   4.584  36.431  1.00 36.51 LIG 0.61  N 
ENDBRANCH 9 11
ENDBRANCH 6 7
BRANCH 6 14
ATOM     14  CB  SER B 302      17.889   7.189  32.731  1.00 37.65 LIG 0.20  C 
BRANCH 14 15
ATOM     15 OG   SER B 302      18.199   8.450  33.297  1.00 38.63 LIG-0.40  OA
ATOM     16 HG   SER B 302      17.559   8.707  33.776  1.00 38.63 LIG 0.21  HD
ENDBRANCH 14 15
ENDBRANCH 6 14
ENDBRANCH 3 6
ENDBRANCH 1 2
BRANCH 1 17
ATOM     17  CB  VAL B 303      16.224   2.906  30.049  1.00 37.28 LIG 0.01  C 
ATOM     18  CG1 VAL B 303      17.700   2.958  29.700  1.00 36.92 LIG 0.01  C 
ATOM     19  CG2 VAL B 303      16.012   2.142  31.349  1.00 37.06 LIG 0.01  C 
ENDBRANCH 1 17
BRANCH 1 20
ATOM     20  C   VAL B 303      14.139   4.269  30.232  1.00 37.27 LIG 0.24  C 
ATOM     21 O    VAL B 303      13.490   3.919  29.244  1.00 36.92 LIG-0.27  OA
ATOM     22  N   SER B 304      13.574   4.589  31.390  1.00 37.37 LIG-0.34  N 
ATOM     23 H    SER B 304      14.012   4.823  32.092  1.00 37.37 LIG 0.16  HD
BRANCH 22 24
ATOM     24  CA  SER B 304      12.126   4.566  31.560  1.00 37.74 LIG 0.20  C 
BRANCH 24 25
ATOM     25  CB  SER B 304      11.443   5.304  30.407  1.00 37.88 LIG 0.20  C 
BRANCH 25 26
ATOM     26 OG   SER B 304      12.206   6.431  30.007  1.00 38.36 LIG-0.40  OA
ATOM     27 HG   SER B 304      12.335   6.402  29.177  1.00 38.36 LIG 0.21  HD
ENDBRANCH 25 26
ENDBRANCH 24 25
BRANCH 24 28
ATOM     28  C   SER B 304      11.648   3.117  31.607  1.00 37.93 LIG 0.24  C 
ATOM     29 O    SER B 304      11.955   2.328  30.713  1.00 38.21 LIG-0.27  OA
ATOM     30  N   ALA B 305      10.901   2.771  32.649  1.00 38.06 LIG-0.35  N 
ATOM     31 H    ALA B 305      10.677   3.311  33.280  1.00 38.06 LIG 0.16  HD
BRANCH 30 32
ATOM     32  CA  ALA B 305      10.392   1.414  32.805  1.00 38.30 LIG 0.16  C 
ATOM     33  CB  ALA B 305      11.546   0.462  33.115  1.00 38.13 LIG 0.04  C 
BRANCH 32 34
ATOM     34  C   ALA B 305       9.345   1.336  33.911  1.00 38.47 LIG 0.22  C 
ATOM     35 O    ALA B 305       8.156   1.577  33.611  1.00 38.58 LIG-0.29  OA
ENDBRANCH 32 34
ENDBRANCH 30 32
ENDBRANCH 24 28
ENDBRANCH 22 24
ENDBRANCH 1 20
TORSDOF 14
ENDMDL
MODEL 156
USER: ADFR SOLUTION from run 9
USER: SCORE 9.481144 LL:  -2.948 LR:  -8.993 RR:   0.000 FEB:  -4.817
USER: RMSD 5.239646
USER: SEED 395505
USER: STATUS no improvement in best in 32 clusters for 5 generations
USER: GENES 16
USER: genes 0 Translation |==|  0.49368 0.47443 0.35544
USER: genes 1 Rotation |==|  0.69687 0.67696 0.37269 0.90462
USER: genes 2 Torsion [CB]-CA--N-[C] |==|  0.42657
USER: genes 3 Torsion [N]-C--CA-[N] |==|  0.94450
USER: genes 4 Torsion [C]-CA--N-[C] |==|  0.78589
USER: genes 5 Torsion [N]-C--CA-[N] |==|  0.05982
USER: genes 6 Torsion [C]-CA--CB-[OG] |==|  0.70521
USER: genes 7 Torsion [CA]-CB--OG-[HG] |==|  0.08449
USER: genes 8 Torsion [N]-CA--CB-[CG1] |==|  0.34973
USER: genes 9 Torsion [N]-CA--C-[N] |==|  0.90148
USER: genes 10 Torsion [C]-N--CA-[CB] |==|  0.51158
USER: genes 11 Torsion [N]-CA--CB-[OG] |==|  0.96660
USER: genes 12 Torsion [CA]-CB--OG-[HG] |==|  0.53052
USER: genes 13 Torsion [N]-CA--C-[N] |==|  0.88450
USER: genes 14 Torsion [C]-N--CA-[C] |==|  0.67111
USER: genes 15 Torsion [N]-CA--C-[O] |==|  0.03882
ROOT
ATOM      1  CA  VAL B 303      12.947   4.118  31.264  1.00 37.13 LIG 0.18  C 
ENDROOT
BRANCH 1 2
ATOM      2  N   VAL B 303      12.229   3.592  32.417  1.00 37.20 LIG-0.35  N 
ATOM      3  C   SER B 302      12.126   2.286  32.643  1.00 37.39 LIG 0.24  C 
ATOM      4 O    SER B 302      12.611   1.436  31.891  1.00 37.76 LIG-0.27  OA
ATOM      5 H    VAL B 303      11.886   4.194  32.927  1.00 37.20 LIG 0.16  HD
BRANCH 3 6
ATOM      6  CA  SER B 302      11.356   1.879  33.894  1.00 37.09 LIG 0.20  C 
BRANCH 6 7
ATOM      7  N   SER B 302      11.282   2.986  34.838  1.00 36.48 LIG-0.34  N 
ATOM      8 H    SER B 302      10.522   3.389  34.855  1.00 36.48 LIG 0.16  HD
ATOM      9  C   ALA B 301      12.318   3.324  35.599  1.00 36.26 LIG 0.26  C 
ATOM     10 O    ALA B 301      13.395   2.728  35.565  1.00 35.88 LIG-0.27  OA
BRANCH 9 11
ATOM     11  CA  ALA B 301      12.110   4.508  36.539  1.00 36.43 LIG 0.40  C 
ATOM     12  CB  ALA B 301      12.838   4.261  37.857  1.00 36.70 LIG 0.06  C 
ATOM     13  N   ALA B 301      10.658   4.733  36.800  1.00 36.51 LIG 0.61  N 
ENDBRANCH 9 11
ENDBRANCH 6 7
BRANCH 6 14
ATOM     14  CB  SER B 302       9.950   1.416  33.499  1.00 37.65 LIG 0.20  C 
BRANCH 14 15
ATOM     15 OG   SER B 302       8.978   2.386  33.845  1.00 38.63 LIG-0.40  OA
ATOM     16 HG   SER B 302       9.320   3.152  33.807  1.00 38.63 LIG 0.21  HD
ENDBRANCH 14 15
ENDBRANCH 6 14
ENDBRANCH 3 6
ENDBRANCH 1 2
BRANCH 1 17
ATOM     17  CB  VAL B 303      12.410   5.511  30.844  1.00 37.28 LIG 0.01  C 
ATOM     18  CG1 VAL B 303      13.549   6.511  30.786  1.00 36.92 LIG 0.01  C 
ATOM     19  CG2 VAL B 303      11.716   5.419  29.491  1.00 37.06 LIG 0.01  C 
ENDBRANCH 1 17
BRANCH 1 20
ATOM     20  C   VAL B 303      14.426   4.247  31.602  1.00 37.27 LIG 0.24  C 
ATOM     21 O    VAL B 303      15.288   4.041  30.745  1.00 36.92 LIG-0.27  OA
ATOM     22  N   SER B 304      14.718   4.597  32.848  1.00 37.37 LIG-0.34  N 
ATOM     23 H    SER B 304      14.130   4.757  33.455  1.00 37.37 LIG 0.16  HD
BRANCH 22 24
ATOM     24  CA  SER B 304      16.099   4.741  33.293  1.00 37.74 LIG 0.20  C 
BRANCH 24 25
ATOM     25  CB  SER B 304      16.145   5.049  34.791  1.00 37.88 LIG 0.20  C 
BRANCH 25 26
ATOM     26 OG   SER B 304      14.856   5.382  35.279  1.00 38.36 LIG-0.40  OA
ATOM     27 HG   SER B 304      14.921   5.691  36.057  1.00 38.36 LIG 0.21  HD
ENDBRANCH 25 26
ENDBRANCH 24 25
BRANCH 24 28
ATOM     28  C   SER B 304      16.858   3.449  33.004  1.00 37.93 LIG 0.24  C 
ATOM     29 O    SER B 304      18.007   3.484  32.561  1.00 38.21 LIG-0.27  OA
ATOM     30  N   ALA B 305      16.216   2.313  33.255  1.00 38.06 LIG-0.35  N 
ATOM     31 H    ALA B 305      15.414   2.272  33.562  1.00 38.06 LIG 0.16  HD
BRANCH 30 32
ATOM     32  CA  ALA B 305      16.842   1.016  33.024  1.00 38.30 LIG 0.16  C 
ATOM     33  CB  ALA B 305      16.919   0.239  34.337  1.00 38.13 LIG 0.04  C 
BRANCH 32 34
ATOM     34  C   ALA B 305      16.075   0.206  31.985  1.00 38.47 LIG 0.22  C 
ATOM     35 O    ALA B 305      15.225   0.800  31.289  1.00 38.58 LIG-0.29  OA
ENDBRANCH 32 34
ENDBRANCH 30 32
ENDBRANCH 24 28
ENDBRANCH 22 24
ENDBRANCH 1 20
TORSDOF 14
ENDMDL
MODEL 157
USER: ADFR SOLUTION from run 199
USER: SCORE 9.038510 LL:  -2.473 LR:  -8.994 RR:   0.000 FEB:  -4.817
USER: RMSD 5.613946
USER: SEED 198
USER: STATUS no improvement in best in 33 clusters for 5 generations
USER: GENES 16
USER: genes 0 Translation |==|  0.68556 0.58025 0.59503
USER: genes 1 Rotation |==|  0.13106 0.24283 0.68811 0.61117
USER: genes 2 Torsion [CB]-CA--N-[C] |==|  0.47222
USER: genes 3 Torsion [N]-C--CA-[N] |==|  0.35706
USER: genes 4 Torsion [C]-CA--N-[C] |==|  0.73593
USER: genes 5 Torsion [N]-C--CA-[N] |==|  0.25044
USER: genes 6 Torsion [C]-CA--CB-[OG] |==|  0.71405
USER: genes 7 Torsion [CA]-CB--OG-[HG] |==|  0.07506
USER: genes 8 Torsion [N]-CA--CB-[CG1] |==|  0.48884
USER: genes 9 Torsion [N]-CA--C-[N] |==|  0.26634
USER: genes 10 Torsion [C]-N--CA-[CB] |==|  0.82868
USER: genes 11 Torsion [N]-CA--CB-[OG] |==|  0.89707
USER: genes 12 Torsion [CA]-CB--OG-[HG] |==|  0.16428
USER: genes 13 Torsion [N]-CA--C-[N] |==|  0.05521
USER: genes 14 Torsion [C]-N--CA-[C] |==|  0.14328
USER: genes 15 Torsion [N]-CA--C-[O] |==|  0.13774
ROOT
ATOM      1  CA  VAL B 303      16.833   6.261  34.857  1.00 37.13 LIG 0.18  C 
ENDROOT
BRANCH 1 2
ATOM      2  N   VAL B 303      15.913   5.146  35.046  1.00 37.20 LIG-0.35  N 
ATOM      3  C   SER B 302      14.672   5.174  34.573  1.00 37.39 LIG 0.24  C 
ATOM      4 O    SER B 302      14.209   6.142  33.963  1.00 37.76 LIG-0.27  OA
ATOM      5 H    VAL B 303      16.244   4.483  35.482  1.00 37.20 LIG 0.16  HD
BRANCH 3 6
ATOM      6  CA  SER B 302      13.825   3.933  34.835  1.00 37.09 LIG 0.20  C 
BRANCH 6 7
ATOM      7  N   SER B 302      12.547   4.297  35.431  1.00 36.48 LIG-0.34  N 
ATOM      8 H    SER B 302      11.939   4.516  34.864  1.00 36.48 LIG 0.16  HD
ATOM      9  C   ALA B 301      12.362   4.282  36.748  1.00 36.26 LIG 0.26  C 
ATOM     10 O    ALA B 301      13.244   3.957  37.543  1.00 35.88 LIG-0.27  OA
BRANCH 9 11
ATOM     11  CA  ALA B 301      10.978   4.693  37.242  1.00 36.43 LIG 0.40  C 
ATOM     12  CB  ALA B 301      11.092   5.374  38.603  1.00 36.70 LIG 0.06  C 
ATOM     13  N   ALA B 301      10.075   3.509  37.345  1.00 36.51 LIG 0.61  N 
ENDBRANCH 9 11
ENDBRANCH 6 7
BRANCH 6 14
ATOM     14  CB  SER B 302      13.607   3.177  33.520  1.00 37.65 LIG 0.20  C 
BRANCH 14 15
ATOM     15 OG   SER B 302      12.307   3.405  33.010  1.00 38.63 LIG-0.40  OA
ATOM     16 HG   SER B 302      12.028   4.152  33.276  1.00 38.63 LIG 0.21  HD
ENDBRANCH 14 15
ENDBRANCH 6 14
ENDBRANCH 3 6
ENDBRANCH 1 2
BRANCH 1 17
ATOM     17  CB  VAL B 303      18.119   6.090  35.707  1.00 37.28 LIG 0.01  C 
ATOM     18  CG1 VAL B 303      19.090   7.216  35.410  1.00 36.92 LIG 0.01  C 
ATOM     19  CG2 VAL B 303      17.769   6.069  37.189  1.00 37.06 LIG 0.01  C 
ENDBRANCH 1 17
BRANCH 1 20
ATOM     20  C   VAL B 303      17.225   6.353  33.390  1.00 37.27 LIG 0.24  C 
ATOM     21 O    VAL B 303      18.135   5.655  32.936  1.00 36.92 LIG-0.27  OA
ATOM     22  N   SER B 304      16.532   7.206  32.645  1.00 37.37 LIG-0.34  N 
ATOM     23 H    SER B 304      15.887   7.691  32.942  1.00 37.37 LIG 0.16  HD
BRANCH 22 24
ATOM     24  CA  SER B 304      16.824   7.390  31.229  1.00 37.74 LIG 0.20  C 
BRANCH 24 25
ATOM     25  CB  SER B 304      18.250   7.913  31.043  1.00 37.88 LIG 0.20  C 
BRANCH 25 26
ATOM     26 OG   SER B 304      18.590   8.828  32.072  1.00 38.36 LIG-0.40  OA
ATOM     27 HG   SER B 304      18.527   8.447  32.819  1.00 38.36 LIG 0.21  HD
ENDBRANCH 25 26
ENDBRANCH 24 25
BRANCH 24 28
ATOM     28  C   SER B 304      16.660   6.057  30.504  1.00 37.93 LIG 0.24  C 
ATOM     29 O    SER B 304      17.190   5.871  29.408  1.00 38.21 LIG-0.27  OA
ATOM     30  N   ALA B 305      15.929   5.133  31.118  1.00 38.06 LIG-0.35  N 
ATOM     31 H    ALA B 305      15.550   5.248  31.881  1.00 38.06 LIG 0.16  HD
BRANCH 30 32
ATOM     32  CA  ALA B 305      15.708   3.818  30.525  1.00 38.30 LIG 0.16  C 
ATOM     33  CB  ALA B 305      14.787   3.947  29.313  1.00 38.13 LIG 0.04  C 
BRANCH 32 34
ATOM     34  C   ALA B 305      17.022   3.167  30.112  1.00 38.47 LIG 0.22  C 
ATOM     35 O    ALA B 305      17.950   3.135  30.947  1.00 38.58 LIG-0.29  OA
ENDBRANCH 32 34
ENDBRANCH 30 32
ENDBRANCH 24 28
ENDBRANCH 22 24
ENDBRANCH 1 20
TORSDOF 14
ENDMDL
MODEL 158
USER: ADFR SOLUTION from run 122
USER: SCORE 9.933794 LL:  -1.691 LR:  -8.982 RR:   0.000 FEB:  -4.806
USER: RMSD 7.208383
USER: SEED 121
USER: STATUS no improvement in best in 42 clusters for 5 generations
USER: GENES 16
USER: genes 0 Translation |==|  0.61091 0.57037 0.34261
USER: genes 1 Rotation |==|  0.23744 0.54173 0.92222 0.53238
USER: genes 2 Torsion [CB]-CA--N-[C] |==|  0.86111
USER: genes 3 Torsion [N]-C--CA-[N] |==|  0.33001
USER: genes 4 Torsion [C]-CA--N-[C] |==|  0.85715
USER: genes 5 Torsion [N]-C--CA-[N] |==|  0.01881
USER: genes 6 Torsion [C]-CA--CB-[OG] |==|  0.54895
USER: genes 7 Torsion [CA]-CB--OG-[HG] |==|  0.07426
USER: genes 8 Torsion [N]-CA--CB-[CG1] |==|  0.41362
USER: genes 9 Torsion [N]-CA--C-[N] |==|  0.94218
USER: genes 10 Torsion [C]-N--CA-[CB] |==|  0.85199
USER: genes 11 Torsion [N]-CA--CB-[OG] |==|  0.89982
USER: genes 12 Torsion [CA]-CB--OG-[HG] |==|  0.89658
USER: genes 13 Torsion [N]-CA--C-[N] |==|  0.37539
USER: genes 14 Torsion [C]-N--CA-[C] |==|  0.78025
USER: genes 15 Torsion [N]-CA--C-[O] |==|  0.51722
ROOT
ATOM      1  CA  VAL B 303      15.321   6.061  31.071  1.00 37.13 LIG 0.18  C 
ENDROOT
BRANCH 1 2
ATOM      2  N   VAL B 303      15.344   6.432  32.480  1.00 37.20 LIG-0.35  N 
ATOM      3  C   SER B 302      15.814   5.611  33.413  1.00 37.39 LIG 0.24  C 
ATOM      4 O    SER B 302      16.244   4.482  33.158  1.00 37.76 LIG-0.27  OA
ATOM      5 H    VAL B 303      15.031   7.215  32.646  1.00 37.20 LIG 0.16  HD
BRANCH 3 6
ATOM      6  CA  SER B 302      15.786   6.135  34.845  1.00 37.09 LIG 0.20  C 
BRANCH 6 7
ATOM      7  N   SER B 302      14.949   5.291  35.688  1.00 36.48 LIG-0.34  N 
ATOM      8 H    SER B 302      15.328   5.025  36.413  1.00 36.48 LIG 0.16  HD
ATOM      9  C   ALA B 301      13.706   4.973  35.341  1.00 36.26 LIG 0.26  C 
ATOM     10 O    ALA B 301      13.180   5.370  34.301  1.00 35.88 LIG-0.27  OA
BRANCH 9 11
ATOM     11  CA  ALA B 301      12.941   4.076  36.309  1.00 36.43 LIG 0.40  C 
ATOM     12  CB  ALA B 301      11.589   4.700  36.640  1.00 36.70 LIG 0.06  C 
ATOM     13  N   ALA B 301      13.718   3.860  37.565  1.00 36.51 LIG 0.61  N 
ENDBRANCH 9 11
ENDBRANCH 6 7
BRANCH 6 14
ATOM     14  CB  SER B 302      17.215   6.192  35.395  1.00 37.65 LIG 0.20  C 
BRANCH 14 15
ATOM     15 OG   SER B 302      17.214   6.279  36.808  1.00 38.63 LIG-0.40  OA
ATOM     16 HG   SER B 302      16.513   5.929  37.111  1.00 38.63 LIG 0.21  HD
ENDBRANCH 14 15
ENDBRANCH 6 14
ENDBRANCH 3 6
ENDBRANCH 1 2
BRANCH 1 17
ATOM     17  CB  VAL B 303      16.698   5.526  30.599  1.00 37.28 LIG 0.01  C 
ATOM     18  CG1 VAL B 303      16.507   4.497  29.502  1.00 36.92 LIG 0.01  C 
ATOM     19  CG2 VAL B 303      17.564   6.676  30.103  1.00 37.06 LIG 0.01  C 
ENDBRANCH 1 17
BRANCH 1 20
ATOM     20  C   VAL B 303      14.274   4.979  30.848  1.00 37.27 LIG 0.24  C 
ATOM     21 O    VAL B 303      13.813   4.772  29.724  1.00 36.92 LIG-0.27  OA
ATOM     22  N   SER B 304      13.907   4.282  31.917  1.00 37.37 LIG-0.34  N 
ATOM     23 H    SER B 304      14.227   4.405  32.705  1.00 37.37 LIG 0.16  HD
BRANCH 22 24
ATOM     24  CA  SER B 304      12.904   3.228  31.829  1.00 37.74 LIG 0.20  C 
BRANCH 24 25
ATOM     25  CB  SER B 304      11.628   3.762  31.174  1.00 37.88 LIG 0.20  C 
BRANCH 25 26
ATOM     26 OG   SER B 304      11.387   5.106  31.557  1.00 38.36 LIG-0.40  OA
ATOM     27 HG   SER B 304      11.605   5.211  32.362  1.00 38.36 LIG 0.21  HD
ENDBRANCH 25 26
ENDBRANCH 24 25
BRANCH 24 28
ATOM     28  C   SER B 304      13.463   2.068  31.012  1.00 37.93 LIG 0.24  C 
ATOM     29 O    SER B 304      14.068   2.278  29.959  1.00 38.21 LIG-0.27  OA
ATOM     30  N   ALA B 305      13.263   0.847  31.497  1.00 38.06 LIG-0.35  N 
ATOM     31 H    ALA B 305      12.841   0.684  32.228  1.00 38.06 LIG 0.16  HD
BRANCH 30 32
ATOM     32  CA  ALA B 305      13.757  -0.338  30.807  1.00 38.30 LIG 0.16  C 
ATOM     33  CB  ALA B 305      13.859  -1.503  31.790  1.00 38.13 LIG 0.04  C 
BRANCH 32 34
ATOM     34  C   ALA B 305      12.852  -0.721  29.641  1.00 38.47 LIG 0.22  C 
ATOM     35 O    ALA B 305      13.092  -1.786  29.036  1.00 38.58 LIG-0.29  OA
ENDBRANCH 32 34
ENDBRANCH 30 32
ENDBRANCH 24 28
ENDBRANCH 22 24
ENDBRANCH 1 20
TORSDOF 14
ENDMDL
MODEL 159
USER: ADFR SOLUTION from run 130
USER: SCORE 9.974013 LL:  -1.739 LR:  -8.967 RR:   0.000 FEB:  -4.791
USER: RMSD 5.533988
USER: SEED 129
USER: STATUS no improvement in best in 19 clusters for 5 generations
USER: GENES 16
USER: genes 0 Translation |==|  0.47146 0.46682 0.34168
USER: genes 1 Rotation |==|  0.79397 0.59878 0.31047 0.84337
USER: genes 2 Torsion [CB]-CA--N-[C] |==|  0.52778
USER: genes 3 Torsion [N]-C--CA-[N] |==|  0.42812
USER: genes 4 Torsion [C]-CA--N-[C] |==|  0.56015
USER: genes 5 Torsion [N]-C--CA-[N] |==|  0.59398
USER: genes 6 Torsion [C]-CA--CB-[OG] |==|  0.45665
USER: genes 7 Torsion [CA]-CB--OG-[HG] |==|  0.65790
USER: genes 8 Torsion [N]-CA--CB-[CG1] |==|  0.36935
USER: genes 9 Torsion [N]-CA--C-[N] |==|  0.39282
USER: genes 10 Torsion [C]-N--CA-[CB] |==|  0.86329
USER: genes 11 Torsion [N]-CA--CB-[OG] |==|  0.62307
USER: genes 12 Torsion [CA]-CB--OG-[HG] |==|  0.76313
USER: genes 13 Torsion [N]-CA--C-[N] |==|  0.37283
USER: genes 14 Torsion [C]-N--CA-[C] |==|  0.17163
USER: genes 15 Torsion [N]-CA--C-[O] |==|  0.08081
ROOT
ATOM      1  CA  VAL B 303      12.497   3.964  31.057  1.00 37.13 LIG 0.18  C 
ENDROOT
BRANCH 1 2
ATOM      2  N   VAL B 303      11.378   3.682  31.947  1.00 37.20 LIG-0.35  N 
ATOM      3  C   SER B 302      11.066   2.443  32.310  1.00 37.39 LIG 0.24  C 
ATOM      4 O    SER B 302      11.684   1.452  31.910  1.00 37.76 LIG-0.27  OA
ATOM      5 H    VAL B 303      10.948   4.380  32.208  1.00 37.20 LIG 0.16  HD
BRANCH 3 6
ATOM      6  CA  SER B 302       9.877   2.298  33.253  1.00 37.09 LIG 0.20  C 
BRANCH 6 7
ATOM      7  N   SER B 302       9.257   0.987  33.107  1.00 36.48 LIG-0.34  N 
ATOM      8 H    SER B 302       9.771   0.388  32.766  1.00 36.48 LIG 0.16  HD
ATOM      9  C   ALA B 301       8.000   0.764  33.477  1.00 36.26 LIG 0.26  C 
ATOM     10 O    ALA B 301       7.284   1.636  33.970  1.00 35.88 LIG-0.27  OA
BRANCH 9 11
ATOM     11  CA  ALA B 301       7.472  -0.650  33.262  1.00 36.43 LIG 0.40  C 
ATOM     12  CB  ALA B 301       8.256  -1.335  32.146  1.00 36.70 LIG 0.06  C 
ATOM     13  N   ALA B 301       6.019  -0.631  32.918  1.00 36.51 LIG 0.61  N 
ENDBRANCH 9 11
ENDBRANCH 6 7
BRANCH 6 14
ATOM     14  CB  SER B 302      10.342   2.513  34.697  1.00 37.65 LIG 0.20  C 
BRANCH 14 15
ATOM     15 OG   SER B 302       9.241   2.741  35.559  1.00 38.63 LIG-0.40  OA
ATOM     16 HG   SER B 302       9.342   3.476  35.953  1.00 38.63 LIG 0.21  HD
ENDBRANCH 14 15
ENDBRANCH 6 14
ENDBRANCH 3 6
ENDBRANCH 1 2
BRANCH 1 17
ATOM     17  CB  VAL B 303      12.803   5.483  30.988  1.00 37.28 LIG 0.01  C 
ATOM     18  CG1 VAL B 303      14.293   5.720  31.145  1.00 36.92 LIG 0.01  C 
ATOM     19  CG2 VAL B 303      12.312   6.056  29.666  1.00 37.06 LIG 0.01  C 
ENDBRANCH 1 17
BRANCH 1 20
ATOM     20  C   VAL B 303      13.738   3.238  31.558  1.00 37.27 LIG 0.24  C 
ATOM     21 O    VAL B 303      13.970   3.146  32.765  1.00 36.92 LIG-0.27  OA
ATOM     22  N   SER B 304      14.530   2.714  30.630  1.00 37.37 LIG-0.34  N 
ATOM     23 H    SER B 304      14.377   2.758  29.784  1.00 37.37 LIG 0.16  HD
BRANCH 22 24
ATOM     24  CA  SER B 304      15.753   2.005  30.986  1.00 37.74 LIG 0.20  C 
BRANCH 24 25
ATOM     25  CB  SER B 304      16.579   2.835  31.972  1.00 37.88 LIG 0.20  C 
BRANCH 25 26
ATOM     26 OG   SER B 304      17.951   2.830  31.610  1.00 38.36 LIG-0.40  OA
ATOM     27 HG   SER B 304      18.323   2.148  31.932  1.00 38.36 LIG 0.21  HD
ENDBRANCH 25 26
ENDBRANCH 24 25
BRANCH 24 28
ATOM     28  C   SER B 304      15.392   0.662  31.612  1.00 37.93 LIG 0.24  C 
ATOM     29 O    SER B 304      14.511   0.587  32.470  1.00 38.21 LIG-0.27  OA
ATOM     30  N   ALA B 305      16.070  -0.396  31.182  1.00 38.06 LIG-0.35  N 
ATOM     31 H    ALA B 305      16.689  -0.360  30.586  1.00 38.06 LIG 0.16  HD
BRANCH 30 32
ATOM     32  CA  ALA B 305      15.809  -1.733  31.702  1.00 38.30 LIG 0.16  C 
ATOM     33  CB  ALA B 305      16.058  -1.759  33.209  1.00 38.13 LIG 0.04  C 
BRANCH 32 34
ATOM     34  C   ALA B 305      14.380  -2.175  31.405  1.00 38.47 LIG 0.22  C 
ATOM     35 O    ALA B 305      13.825  -1.719  30.384  1.00 38.58 LIG-0.29  OA
ENDBRANCH 32 34
ENDBRANCH 30 32
ENDBRANCH 24 28
ENDBRANCH 22 24
ENDBRANCH 1 20
TORSDOF 14
ENDMDL
MODEL 160
USER: ADFR SOLUTION from run 115
USER: SCORE 9.766444 LL:  -2.531 LR:  -8.956 RR:   0.000 FEB:  -4.779
USER: RMSD 6.953468
USER: SEED 114
USER: STATUS no improvement in best in 34 clusters for 5 generations
USER: GENES 16
USER: genes 0 Translation |==|  0.47082 0.51708 0.37583
USER: genes 1 Rotation |==|  0.61235 0.60315 0.04181 0.62962
USER: genes 2 Torsion [CB]-CA--N-[C] |==|  0.88284
USER: genes 3 Torsion [N]-C--CA-[N] |==|  0.09444
USER: genes 4 Torsion [C]-CA--N-[C] |==|  0.14052
USER: genes 5 Torsion [N]-C--CA-[N] |==|  0.81367
USER: genes 6 Torsion [C]-CA--CB-[OG] |==|  0.58242
USER: genes 7 Torsion [CA]-CB--OG-[HG] |==|  0.94221
USER: genes 8 Torsion [N]-CA--CB-[CG1] |==|  0.34416
USER: genes 9 Torsion [N]-CA--C-[N] |==|  0.88796
USER: genes 10 Torsion [C]-N--CA-[CB] |==|  0.51186
USER: genes 11 Torsion [N]-CA--CB-[OG] |==|  0.81811
USER: genes 12 Torsion [CA]-CB--OG-[HG] |==|  0.59370
USER: genes 13 Torsion [N]-CA--C-[N] |==|  0.92425
USER: genes 14 Torsion [C]-N--CA-[C] |==|  0.63952
USER: genes 15 Torsion [N]-CA--C-[O] |==|  0.25832
ROOT
ATOM      1  CA  VAL B 303      12.484   4.982  31.569  1.00 37.13 LIG 0.18  C 
ENDROOT
BRANCH 1 2
ATOM      2  N   VAL B 303      13.099   5.341  32.841  1.00 37.20 LIG-0.35  N 
ATOM      3  C   SER B 302      14.418   5.375  32.997  1.00 37.39 LIG 0.24  C 
ATOM      4 O    SER B 302      15.207   5.090  32.092  1.00 37.76 LIG-0.27  OA
ATOM      5 H    VAL B 303      12.538   5.525  33.467  1.00 37.20 LIG 0.16  HD
BRANCH 3 6
ATOM      6  CA  SER B 302      14.921   5.778  34.379  1.00 37.09 LIG 0.20  C 
BRANCH 6 7
ATOM      7  N   SER B 302      14.018   5.299  35.417  1.00 36.48 LIG-0.34  N 
ATOM      8 H    SER B 302      13.775   5.900  35.982  1.00 36.48 LIG 0.16  HD
ATOM      9  C   ALA B 301      13.618   4.032  35.464  1.00 36.26 LIG 0.26  C 
ATOM     10 O    ALA B 301      13.973   3.189  34.640  1.00 35.88 LIG-0.27  OA
BRANCH 9 11
ATOM     11  CA  ALA B 301      12.680   3.660  36.608  1.00 36.43 LIG 0.40  C 
ATOM     12  CB  ALA B 301      11.465   4.583  36.606  1.00 36.70 LIG 0.06  C 
ATOM     13  N   ALA B 301      13.379   3.750  37.923  1.00 36.51 LIG 0.61  N 
ENDBRANCH 9 11
ENDBRANCH 6 7
BRANCH 6 14
ATOM     14  CB  SER B 302      16.330   5.217  34.593  1.00 37.65 LIG 0.20  C 
BRANCH 14 15
ATOM     15 OG   SER B 302      16.572   4.954  35.963  1.00 38.63 LIG-0.40  OA
ATOM     16 HG   SER B 302      16.038   5.401  36.433  1.00 38.63 LIG 0.21  HD
ENDBRANCH 14 15
ENDBRANCH 6 14
ENDBRANCH 3 6
ENDBRANCH 1 2
BRANCH 1 17
ATOM     17  CB  VAL B 303      13.220   5.640  30.374  1.00 37.28 LIG 0.01  C 
ATOM     18  CG1 VAL B 303      13.669   4.575  29.391  1.00 36.92 LIG 0.01  C 
ATOM     19  CG2 VAL B 303      12.307   6.645  29.685  1.00 37.06 LIG 0.01  C 
ENDBRANCH 1 17
BRANCH 1 20
ATOM     20  C   VAL B 303      12.524   3.470  31.395  1.00 37.27 LIG 0.24  C 
ATOM     21 O    VAL B 303      11.565   2.867  30.909  1.00 36.92 LIG-0.27  OA
ATOM     22  N   SER B 304      13.638   2.860  31.783  1.00 37.37 LIG-0.34  N 
ATOM     23 H    SER B 304      14.320   3.267  32.112  1.00 37.37 LIG 0.16  HD
BRANCH 22 24
ATOM     24  CA  SER B 304      13.788   1.414  31.677  1.00 37.74 LIG 0.20  C 
BRANCH 24 25
ATOM     25  CB  SER B 304      15.119   0.972  32.290  1.00 37.88 LIG 0.20  C 
BRANCH 25 26
ATOM     26 OG   SER B 304      16.213   1.484  31.546  1.00 38.36 LIG-0.40  OA
ATOM     27 HG   SER B 304      16.845   0.931  31.560  1.00 38.36 LIG 0.21  HD
ENDBRANCH 25 26
ENDBRANCH 24 25
BRANCH 24 28
ATOM     28  C   SER B 304      12.630   0.733  32.399  1.00 37.93 LIG 0.24  C 
ATOM     29 O    SER B 304      12.251  -0.388  32.057  1.00 38.21 LIG-0.27  OA
ATOM     30  N   ALA B 305      12.073   1.408  33.398  1.00 38.06 LIG-0.35  N 
ATOM     31 H    ALA B 305      12.324   2.192  33.648  1.00 38.06 LIG 0.16  HD
BRANCH 30 32
ATOM     32  CA  ALA B 305      10.963   0.856  34.167  1.00 38.30 LIG 0.16  C 
ATOM     33  CB  ALA B 305      11.444   0.472  35.565  1.00 38.13 LIG 0.04  C 
BRANCH 32 34
ATOM     34  C   ALA B 305       9.810   1.848  34.268  1.00 38.47 LIG 0.22  C 
ATOM     35 O    ALA B 305       8.901   1.781  33.415  1.00 38.58 LIG-0.29  OA
ENDBRANCH 32 34
ENDBRANCH 30 32
ENDBRANCH 24 28
ENDBRANCH 22 24
ENDBRANCH 1 20
TORSDOF 14
ENDMDL
MODEL 161
USER: ADFR SOLUTION from run 159
USER: SCORE 9.297328 LL:  -2.123 LR:  -8.962 RR:   0.000 FEB:  -4.786
USER: RMSD 5.698831
USER: SEED 158
USER: STATUS no improvement in best in 47 clusters for 5 generations
USER: GENES 16
USER: genes 0 Translation |==|  0.69752 0.59554 0.37548
USER: genes 1 Rotation |==|  0.36924 0.68530 0.53846 0.94394
USER: genes 2 Torsion [CB]-CA--N-[C] |==|  0.22692
USER: genes 3 Torsion [N]-C--CA-[N] |==|  0.35757
USER: genes 4 Torsion [C]-CA--N-[C] |==|  0.84317
USER: genes 5 Torsion [N]-C--CA-[N] |==|  0.28572
USER: genes 6 Torsion [C]-CA--CB-[OG] |==|  0.63933
USER: genes 7 Torsion [CA]-CB--OG-[HG] |==|  0.84383
USER: genes 8 Torsion [N]-CA--CB-[CG1] |==|  0.73867
USER: genes 9 Torsion [N]-CA--C-[N] |==|  0.28185
USER: genes 10 Torsion [C]-N--CA-[CB] |==|  0.50556
USER: genes 11 Torsion [N]-CA--CB-[OG] |==|  0.17759
USER: genes 12 Torsion [CA]-CB--OG-[HG] |==|  0.03664
USER: genes 13 Torsion [N]-CA--C-[N] |==|  0.37473
USER: genes 14 Torsion [C]-N--CA-[C] |==|  0.73445
USER: genes 15 Torsion [N]-CA--C-[O] |==|  0.19019
ROOT
ATOM      1  CA  VAL B 303      17.075   6.571  31.564  1.00 37.13 LIG 0.18  C 
ENDROOT
BRANCH 1 2
ATOM      2  N   VAL B 303      16.672   6.768  32.951  1.00 37.20 LIG-0.35  N 
ATOM      3  C   SER B 302      16.682   5.773  33.832  1.00 37.39 LIG 0.24  C 
ATOM      4 O    SER B 302      17.013   4.621  33.538  1.00 37.76 LIG-0.27  OA
ATOM      5 H    VAL B 303      16.433   7.572  33.140  1.00 37.20 LIG 0.16  HD
BRANCH 3 6
ATOM      6  CA  SER B 302      16.246   6.127  35.250  1.00 37.09 LIG 0.20  C 
BRANCH 6 7
ATOM      7  N   SER B 302      15.219   5.206  35.719  1.00 36.48 LIG-0.34  N 
ATOM      8 H    SER B 302      15.415   4.799  36.451  1.00 36.48 LIG 0.16  HD
ATOM      9  C   ALA B 301      14.084   5.028  35.051  1.00 36.26 LIG 0.26  C 
ATOM     10 O    ALA B 301      13.821   5.627  34.008  1.00 35.88 LIG-0.27  OA
BRANCH 9 11
ATOM     11  CA  ALA B 301      13.097   4.029  35.647  1.00 36.43 LIG 0.40  C 
ATOM     12  CB  ALA B 301      12.540   3.128  34.549  1.00 36.70 LIG 0.06  C 
ATOM     13  N   ALA B 301      11.977   4.733  36.339  1.00 36.51 LIG 0.61  N 
ENDBRANCH 9 11
ENDBRANCH 6 7
BRANCH 6 14
ATOM     14  CB  SER B 302      17.462   6.093  36.181  1.00 37.65 LIG 0.20  C 
BRANCH 14 15
ATOM     15 OG   SER B 302      17.200   5.316  37.335  1.00 38.63 LIG-0.40  OA
ATOM     16 HG   SER B 302      16.519   5.615  37.725  1.00 38.63 LIG 0.21  HD
ENDBRANCH 14 15
ENDBRANCH 6 14
ENDBRANCH 3 6
ENDBRANCH 1 2
BRANCH 1 17
ATOM     17  CB  VAL B 303      15.924   5.972  30.715  1.00 37.28 LIG 0.01  C 
ATOM     18  CG1 VAL B 303      16.046   4.461  30.665  1.00 36.92 LIG 0.01  C 
ATOM     19  CG2 VAL B 303      14.577   6.376  31.299  1.00 37.06 LIG 0.01  C 
ENDBRANCH 1 17
BRANCH 1 20
ATOM     20  C   VAL B 303      17.485   7.906  30.960  1.00 37.27 LIG 0.24  C 
ATOM     21 O    VAL B 303      16.634   8.720  30.594  1.00 36.92 LIG-0.27  OA
ATOM     22  N   SER B 304      18.789   8.136  30.865  1.00 37.37 LIG-0.34  N 
ATOM     23 H    SER B 304      19.396   7.586  31.126  1.00 37.37 LIG 0.16  HD
BRANCH 22 24
ATOM     24  CA  SER B 304      19.302   9.375  30.293  1.00 37.74 LIG 0.20  C 
BRANCH 24 25
ATOM     25  CB  SER B 304      20.832   9.352  30.262  1.00 37.88 LIG 0.20  C 
BRANCH 25 26
ATOM     26 OG   SER B 304      21.305   8.324  29.407  1.00 38.36 LIG-0.40  OA
ATOM     27 HG   SER B 304      20.670   8.036  28.938  1.00 38.36 LIG 0.21  HD
ENDBRANCH 25 26
ENDBRANCH 24 25
BRANCH 24 28
ATOM     28  C   SER B 304      18.756   9.540  28.878  1.00 37.93 LIG 0.24  C 
ATOM     29 O    SER B 304      18.750   8.590  28.094  1.00 38.21 LIG-0.27  OA
ATOM     30  N   ALA B 305      18.296  10.744  28.555  1.00 38.06 LIG-0.35  N 
ATOM     31 H    ALA B 305      18.296  11.417  29.089  1.00 38.06 LIG 0.16  HD
BRANCH 30 32
ATOM     32  CA  ALA B 305      17.744  11.020  27.233  1.00 38.30 LIG 0.16  C 
ATOM     33  CB  ALA B 305      16.554  11.970  27.359  1.00 38.13 LIG 0.04  C 
BRANCH 32 34
ATOM     34  C   ALA B 305      18.794  11.623  26.307  1.00 38.47 LIG 0.22  C 
ATOM     35 O    ALA B 305      19.740  10.895  25.939  1.00 38.58 LIG-0.29  OA
ENDBRANCH 32 34
ENDBRANCH 30 32
ENDBRANCH 24 28
ENDBRANCH 22 24
ENDBRANCH 1 20
TORSDOF 14
ENDMDL
MODEL 162
USER: ADFR SOLUTION from run 131
USER: SCORE 10.008321 LL:  -2.513 LR:  -8.961 RR:   0.000 FEB:  -4.784
USER: RMSD 5.687963
USER: SEED 130
USER: STATUS no improvement in best in 23 clusters for 5 generations
USER: GENES 16
USER: genes 0 Translation |==|  0.62978 0.56095 0.60818
USER: genes 1 Rotation |==|  0.12379 0.31125 0.74721 0.60829
USER: genes 2 Torsion [CB]-CA--N-[C] |==|  0.53889
USER: genes 3 Torsion [N]-C--CA-[N] |==|  0.29162
USER: genes 4 Torsion [C]-CA--N-[C] |==|  0.73031
USER: genes 5 Torsion [N]-C--CA-[N] |==|  0.94088
USER: genes 6 Torsion [C]-CA--CB-[OG] |==|  0.63184
USER: genes 7 Torsion [CA]-CB--OG-[HG] |==|  0.30025
USER: genes 8 Torsion [N]-CA--CB-[CG1] |==|  0.35056
USER: genes 9 Torsion [N]-CA--C-[N] |==|  0.38174
USER: genes 10 Torsion [C]-N--CA-[CB] |==|  0.81535
USER: genes 11 Torsion [N]-CA--CB-[OG] |==|  0.24563
USER: genes 12 Torsion [CA]-CB--OG-[HG] |==|  0.89802
USER: genes 13 Torsion [N]-CA--C-[N] |==|  0.10987
USER: genes 14 Torsion [C]-N--CA-[C] |==|  0.15180
USER: genes 15 Torsion [N]-CA--C-[O] |==|  0.10785
ROOT
ATOM      1  CA  VAL B 303      15.703   5.870  35.055  1.00 37.13 LIG 0.18  C 
ENDROOT
BRANCH 1 2
ATOM      2  N   VAL B 303      14.715   5.011  35.695  1.00 37.20 LIG-0.35  N 
ATOM      3  C   SER B 302      13.507   4.823  35.174  1.00 37.39 LIG 0.24  C 
ATOM      4 O    SER B 302      13.135   5.368  34.131  1.00 37.76 LIG-0.27  OA
ATOM      5 H    VAL B 303      14.983   4.647  36.426  1.00 37.20 LIG 0.16  HD
BRANCH 3 6
ATOM      6  CA  SER B 302      12.581   3.889  35.946  1.00 37.09 LIG 0.20  C 
BRANCH 6 7
ATOM      7  N   SER B 302      11.558   4.648  36.654  1.00 36.48 LIG-0.34  N 
ATOM      8 H    SER B 302      10.879   4.865  36.173  1.00 36.48 LIG 0.16  HD
ATOM      9  C   ALA B 301      11.689   4.964  37.939  1.00 36.26 LIG 0.26  C 
ATOM     10 O    ALA B 301      12.666   4.636  38.612  1.00 35.88 LIG-0.27  OA
BRANCH 9 11
ATOM     11  CA  ALA B 301      10.549   5.767  38.558  1.00 36.43 LIG 0.40  C 
ATOM     12  CB  ALA B 301       9.633   4.843  39.356  1.00 36.70 LIG 0.06  C 
ATOM     13  N   ALA B 301       9.760   6.473  37.505  1.00 36.51 LIG 0.61  N 
ENDBRANCH 9 11
ENDBRANCH 6 7
BRANCH 6 14
ATOM     14  CB  SER B 302      11.935   2.894  34.976  1.00 37.65 LIG 0.20  C 
BRANCH 14 15
ATOM     15 OG   SER B 302      10.539   2.806  35.191  1.00 38.63 LIG-0.40  OA
ATOM     16 HG   SER B 302      10.133   3.178  34.557  1.00 38.63 LIG 0.21  HD
ENDBRANCH 14 15
ENDBRANCH 6 14
ENDBRANCH 3 6
ENDBRANCH 1 2
BRANCH 1 17
ATOM     17  CB  VAL B 303      17.118   5.656  35.651  1.00 37.28 LIG 0.01  C 
ATOM     18  CG1 VAL B 303      18.107   5.345  34.543  1.00 36.92 LIG 0.01  C 
ATOM     19  CG2 VAL B 303      17.556   6.895  36.420  1.00 37.06 LIG 0.01  C 
ENDBRANCH 1 17
BRANCH 1 20
ATOM     20  C   VAL B 303      15.750   5.566  33.564  1.00 37.27 LIG 0.24  C 
ATOM     21 O    VAL B 303      15.713   4.403  33.157  1.00 36.92 LIG-0.27  OA
ATOM     22  N   SER B 304      15.821   6.612  32.750  1.00 37.37 LIG-0.34  N 
ATOM     23 H    SER B 304      15.835   7.430  33.015  1.00 37.37 LIG 0.16  HD
BRANCH 22 24
ATOM     24  CA  SER B 304      15.883   6.446  31.303  1.00 37.74 LIG 0.20  C 
BRANCH 24 25
ATOM     25  CB  SER B 304      17.198   5.775  30.901  1.00 37.88 LIG 0.20  C 
BRANCH 25 26
ATOM     26 OG   SER B 304      17.070   4.363  30.915  1.00 38.36 LIG-0.40  OA
ATOM     27 HG   SER B 304      16.573   4.133  31.553  1.00 38.36 LIG 0.21  HD
ENDBRANCH 25 26
ENDBRANCH 24 25
BRANCH 24 28
ATOM     28  C   SER B 304      14.703   5.595  30.843  1.00 37.93 LIG 0.24  C 
ATOM     29 O    SER B 304      14.848   4.747  29.962  1.00 38.21 LIG-0.27  OA
ATOM     30  N   ALA B 305      13.538   5.822  31.440  1.00 38.06 LIG-0.35  N 
ATOM     31 H    ALA B 305      13.420   6.411  32.055  1.00 38.06 LIG 0.16  HD
BRANCH 30 32
ATOM     32  CA  ALA B 305      12.341   5.066  31.089  1.00 38.30 LIG 0.16  C 
ATOM     33  CB  ALA B 305      11.910   5.415  29.665  1.00 38.13 LIG 0.04  C 
BRANCH 32 34
ATOM     34  C   ALA B 305      12.577   3.565  31.207  1.00 38.47 LIG 0.22  C 
ATOM     35 O    ALA B 305      13.271   3.152  32.160  1.00 38.58 LIG-0.29  OA
ENDBRANCH 32 34
ENDBRANCH 30 32
ENDBRANCH 24 28
ENDBRANCH 22 24
ENDBRANCH 1 20
TORSDOF 14
ENDMDL
MODEL 163
USER: ADFR SOLUTION from run 137
USER: SCORE 10.511882 LL:  -2.471 LR:  -8.962 RR:   0.000 FEB:  -4.786
USER: RMSD 6.039550
USER: SEED 136
USER: STATUS no improvement in best in 28 clusters for 5 generations
USER: GENES 16
USER: genes 0 Translation |==|  0.55723 0.50909 0.25558
USER: genes 1 Rotation |==|  0.70541 0.79018 0.69698 0.79120
USER: genes 2 Torsion [CB]-CA--N-[C] |==|  0.79444
USER: genes 3 Torsion [N]-C--CA-[N] |==|  0.42552
USER: genes 4 Torsion [C]-CA--N-[C] |==|  0.82455
USER: genes 5 Torsion [N]-C--CA-[N] |==|  0.15802
USER: genes 6 Torsion [C]-CA--CB-[OG] |==|  0.49124
USER: genes 7 Torsion [CA]-CB--OG-[HG] |==|  0.84622
USER: genes 8 Torsion [N]-CA--CB-[CG1] |==|  0.52007
USER: genes 9 Torsion [N]-CA--C-[N] |==|  0.16325
USER: genes 10 Torsion [C]-N--CA-[CB] |==|  0.87768
USER: genes 11 Torsion [N]-CA--CB-[OG] |==|  0.51027
USER: genes 12 Torsion [CA]-CB--OG-[HG] |==|  0.73390
USER: genes 13 Torsion [N]-CA--C-[N] |==|  0.85146
USER: genes 14 Torsion [C]-N--CA-[C] |==|  0.48237
USER: genes 15 Torsion [N]-CA--C-[O] |==|  0.99188
ROOT
ATOM      1  CA  VAL B 303      14.234   4.820  29.766  1.00 37.13 LIG 0.18  C 
ENDROOT
BRANCH 1 2
ATOM      2  N   VAL B 303      14.879   3.527  29.957  1.00 37.20 LIG-0.35  N 
ATOM      3  C   SER B 302      15.100   3.028  31.169  1.00 37.39 LIG 0.24  C 
ATOM      4 O    SER B 302      14.795   3.623  32.206  1.00 37.76 LIG-0.27  OA
ATOM      5 H    VAL B 303      15.097   3.128  29.228  1.00 37.20 LIG 0.16  HD
BRANCH 3 6
ATOM      6  CA  SER B 302      15.773   1.660  31.218  1.00 37.09 LIG 0.20  C 
BRANCH 6 7
ATOM      7  N   SER B 302      16.515   1.494  32.462  1.00 36.48 LIG-0.34  N 
ATOM      8 H    SER B 302      16.226   0.861  32.966  1.00 36.48 LIG 0.16  HD
ATOM      9  C   ALA B 301      17.549   2.272  32.766  1.00 36.26 LIG 0.26  C 
ATOM     10 O    ALA B 301      17.952   3.169  32.025  1.00 35.88 LIG-0.27  OA
BRANCH 9 11
ATOM     11  CA  ALA B 301      18.233   1.998  34.102  1.00 36.43 LIG 0.40  C 
ATOM     12  CB  ALA B 301      19.416   2.943  34.285  1.00 36.70 LIG 0.06  C 
ATOM     13  N   ALA B 301      18.700   0.583  34.182  1.00 36.51 LIG 0.61  N 
ENDBRANCH 9 11
ENDBRANCH 6 7
BRANCH 6 14
ATOM     14  CB  SER B 302      14.713   0.564  31.076  1.00 37.65 LIG 0.20  C 
BRANCH 14 15
ATOM     15 OG   SER B 302      15.308  -0.721  31.046  1.00 38.63 LIG-0.40  OA
ATOM     16 HG   SER B 302      15.881  -0.750  30.432  1.00 38.63 LIG 0.21  HD
ENDBRANCH 14 15
ENDBRANCH 6 14
ENDBRANCH 3 6
ENDBRANCH 1 2
BRANCH 1 17
ATOM     17  CB  VAL B 303      12.712   4.747  30.054  1.00 37.28 LIG 0.01  C 
ATOM     18  CG1 VAL B 303      12.048   6.057  29.675  1.00 36.92 LIG 0.01  C 
ATOM     19  CG2 VAL B 303      12.087   3.593  29.282  1.00 37.06 LIG 0.01  C 
ENDBRANCH 1 17
BRANCH 1 20
ATOM     20  C   VAL B 303      14.860   5.844  30.702  1.00 37.27 LIG 0.24  C 
ATOM     21 O    VAL B 303      14.174   6.437  31.536  1.00 36.92 LIG-0.27  OA
ATOM     22  N   SER B 304      16.166   6.043  30.571  1.00 37.37 LIG-0.34  N 
ATOM     23 H    SER B 304      16.663   5.628  30.004  1.00 37.37 LIG 0.16  HD
BRANCH 22 24
ATOM     24  CA  SER B 304      16.876   7.006  31.404  1.00 37.74 LIG 0.20  C 
BRANCH 24 25
ATOM     25  CB  SER B 304      16.075   8.306  31.511  1.00 37.88 LIG 0.20  C 
BRANCH 25 26
ATOM     26 OG   SER B 304      16.793   9.282  32.249  1.00 38.36 LIG-0.40  OA
ATOM     27 HG   SER B 304      16.543   9.267  33.051  1.00 38.36 LIG 0.21  HD
ENDBRANCH 25 26
ENDBRANCH 24 25
BRANCH 24 28
ATOM     28  C   SER B 304      17.090   6.410  32.792  1.00 37.93 LIG 0.24  C 
ATOM     29 O    SER B 304      18.217   6.369  33.288  1.00 38.21 LIG-0.27  OA
ATOM     30  N   ALA B 305      16.010   5.953  33.416  1.00 38.06 LIG-0.35  N 
ATOM     31 H    ALA B 305      15.218   5.972  33.082  1.00 38.06 LIG 0.16  HD
BRANCH 30 32
ATOM     32  CA  ALA B 305      16.091   5.367  34.749  1.00 38.30 LIG 0.16  C 
ATOM     33  CB  ALA B 305      16.832   6.319  35.687  1.00 38.13 LIG 0.04  C 
BRANCH 32 34
ATOM     34  C   ALA B 305      14.705   5.063  35.307  1.00 38.47 LIG 0.22  C 
ATOM     35 O    ALA B 305      13.713   5.386  34.622  1.00 38.58 LIG-0.29  OA
ENDBRANCH 32 34
ENDBRANCH 30 32
ENDBRANCH 24 28
ENDBRANCH 22 24
ENDBRANCH 1 20
TORSDOF 14
ENDMDL
MODEL 164
USER: ADFR SOLUTION from run 77
USER: SCORE 9.416254 LL:  -1.779 LR:  -8.956 RR:   0.000 FEB:  -4.780
USER: RMSD 4.755252
USER: SEED 76
USER: STATUS no improvement in best in 18 clusters for 5 generations
USER: GENES 16
USER: genes 0 Translation |==|  0.63809 0.61070 0.45351
USER: genes 1 Rotation |==|  0.17911 0.18323 0.51595 0.71548
USER: genes 2 Torsion [CB]-CA--N-[C] |==|  0.25097
USER: genes 3 Torsion [N]-C--CA-[N] |==|  0.44114
USER: genes 4 Torsion [C]-CA--N-[C] |==|  0.66523
USER: genes 5 Torsion [N]-C--CA-[N] |==|  0.54962
USER: genes 6 Torsion [C]-CA--CB-[OG] |==|  0.35474
USER: genes 7 Torsion [CA]-CB--OG-[HG] |==|  0.63515
USER: genes 8 Torsion [N]-CA--CB-[CG1] |==|  0.75281
USER: genes 9 Torsion [N]-CA--C-[N] |==|  0.49273
USER: genes 10 Torsion [C]-N--CA-[CB] |==|  0.86658
USER: genes 11 Torsion [N]-CA--CB-[OG] |==|  0.87418
USER: genes 12 Torsion [CA]-CB--OG-[HG] |==|  0.90104
USER: genes 13 Torsion [N]-CA--C-[N] |==|  0.36507
USER: genes 14 Torsion [C]-N--CA-[C] |==|  0.17826
USER: genes 15 Torsion [N]-CA--C-[O] |==|  0.02445
ROOT
ATOM      1  CA  VAL B 303      15.871   6.878  32.735  1.00 37.13 LIG 0.18  C 
ENDROOT
BRANCH 1 2
ATOM      2  N   VAL B 303      15.023   6.110  31.832  1.00 37.20 LIG-0.35  N 
ATOM      3  C   SER B 302      13.872   5.580  32.232  1.00 37.39 LIG 0.24  C 
ATOM      4 O    SER B 302      13.453   5.684  33.388  1.00 37.76 LIG-0.27  OA
ATOM      5 H    VAL B 303      15.332   6.035  31.033  1.00 37.20 LIG 0.16  HD
BRANCH 3 6
ATOM      6  CA  SER B 302      13.083   4.812  31.177  1.00 37.09 LIG 0.20  C 
BRANCH 6 7
ATOM      7  N   SER B 302      12.148   3.887  31.804  1.00 36.48 LIG-0.34  N 
ATOM      8 H    SER B 302      11.570   4.261  32.319  1.00 36.48 LIG 0.16  HD
ATOM      9  C   ALA B 301      12.206   2.578  31.580  1.00 36.26 LIG 0.26  C 
ATOM     10 O    ALA B 301      13.037   2.064  30.832  1.00 35.88 LIG-0.27  OA
BRANCH 9 11
ATOM     11  CA  ALA B 301      11.172   1.721  32.305  1.00 36.43 LIG 0.40  C 
ATOM     12  CB  ALA B 301      10.986   2.225  33.732  1.00 36.70 LIG 0.06  C 
ATOM     13  N   ALA B 301      11.589   0.287  32.326  1.00 36.51 LIG 0.61  N 
ENDBRANCH 9 11
ENDBRANCH 6 7
BRANCH 6 14
ATOM     14  CB  SER B 302      12.337   5.801  30.277  1.00 37.65 LIG 0.20  C 
BRANCH 14 15
ATOM     15 OG   SER B 302      12.608   5.551  28.910  1.00 38.63 LIG-0.40  OA
ATOM     16 HG   SER B 302      12.814   6.271  28.528  1.00 38.63 LIG 0.21  HD
ENDBRANCH 14 15
ENDBRANCH 6 14
ENDBRANCH 3 6
ENDBRANCH 1 2
BRANCH 1 17
ATOM     17  CB  VAL B 303      16.898   5.971  33.462  1.00 37.28 LIG 0.01  C 
ATOM     18  CG1 VAL B 303      16.299   5.438  34.749  1.00 36.92 LIG 0.01  C 
ATOM     19  CG2 VAL B 303      17.317   4.822  32.556  1.00 37.06 LIG 0.01  C 
ENDBRANCH 1 17
BRANCH 1 20
ATOM     20  C   VAL B 303      16.628   7.936  31.944  1.00 37.27 LIG 0.24  C 
ATOM     21 O    VAL B 303      16.502   8.017  30.721  1.00 36.92 LIG-0.27  OA
ATOM     22  N   SER B 304      17.405   8.753  32.645  1.00 37.37 LIG-0.34  N 
ATOM     23 H    SER B 304      17.494   8.719  33.499  1.00 37.37 LIG 0.16  HD
BRANCH 22 24
ATOM     24  CA  SER B 304      18.187   9.799  31.997  1.00 37.74 LIG 0.20  C 
BRANCH 24 25
ATOM     25  CB  SER B 304      18.944   9.229  30.795  1.00 37.88 LIG 0.20  C 
BRANCH 25 26
ATOM     26 OG   SER B 304      19.563   7.997  31.126  1.00 38.36 LIG-0.40  OA
ATOM     27 HG   SER B 304      19.831   8.022  31.921  1.00 38.36 LIG 0.21  HD
ENDBRANCH 25 26
ENDBRANCH 24 25
BRANCH 24 28
ATOM     28  C   SER B 304      17.254  10.917  31.542  1.00 37.93 LIG 0.24  C 
ATOM     29 O    SER B 304      16.227  10.658  30.913  1.00 38.21 LIG-0.27  OA
ATOM     30  N   ALA B 305      17.611  12.156  31.862  1.00 38.06 LIG-0.35  N 
ATOM     31 H    ALA B 305      18.325  12.353  32.298  1.00 38.06 LIG 0.16  HD
BRANCH 30 32
ATOM     32  CA  ALA B 305      16.795  13.305  31.487  1.00 38.30 LIG 0.16  C 
ATOM     33  CB  ALA B 305      16.614  13.337  29.970  1.00 38.13 LIG 0.04  C 
BRANCH 32 34
ATOM     34  C   ALA B 305      15.433  13.267  32.171  1.00 38.47 LIG 0.22  C 
ATOM     35 O    ALA B 305      15.245  12.407  33.057  1.00 38.58 LIG-0.29  OA
ENDBRANCH 32 34
ENDBRANCH 30 32
ENDBRANCH 24 28
ENDBRANCH 22 24
ENDBRANCH 1 20
TORSDOF 14
ENDMDL
