MODEL 1
USER: ADFR SOLUTION from run 10
USER: SCORE 21.799800 LL:  -5.564 LR: -18.744 RR:   0.000 FEB: -11.585
USER: RMSD 9.291416
USER: SEED 923201
USER: STATUS 1 or 2 clusters left
USER: GENES 26
USER: genes 0 Translation |==|  0.42000 0.30743 0.33902
USER: genes 1 Rotation |==|  0.75936 0.51653 0.12487 0.70429
USER: genes 2 Torsion [C]-N--CA-[CB] |==|  0.50172
USER: genes 3 Torsion [N]-CA--CB-[CG] |==|  0.80441
USER: genes 4 Torsion [CA]-CB--CG-[CD1] |==|  0.10910
USER: genes 5 Torsion [N]-CA--C-[N] |==|  0.38333
USER: genes 6 Torsion [C]-N--CA-[C] |==|  0.62780
USER: genes 7 Torsion [N]-CA--C-[N] |==|  0.73209
USER: genes 8 Torsion [C]-N--CA-[CB] |==|  0.79150
USER: genes 9 Torsion [N]-CA--C-[O] |==|  0.56792
USER: genes 10 Torsion [N]-CA--CB-[CG] |==|  0.04179
USER: genes 11 Torsion [CA]-CB--CG-[CD2] |==|  0.19960
USER: genes 12 Torsion [CE1]-CZ--OH-[HH] |==|  0.37542
USER: genes 13 Torsion [N]-C--CA-[N] |==|  0.91993
USER: genes 14 Torsion [C]-CA--CB-[CG] |==|  0.11011
USER: genes 15 Torsion [CA]-CB--CG-[CD] |==|  0.70707
USER: genes 16 Torsion [CB]-CG--CD-[OE1] |==|  0.91950
USER: genes 17 Torsion [C]-CA--N-[C] |==|  0.82812
USER: genes 18 Torsion [N]-C--CA-[N] |==|  0.37373
USER: genes 19 Torsion [C]-CA--CB-[CG] |==|  0.17935
USER: genes 20 Torsion [CA]-CB--CG-[ND2] |==|  0.02640
USER: genes 21 Torsion [C]-CA--N-[C] |==|  0.20994
USER: genes 22 Torsion [N]-C--CA-[N] |==|  0.87416
USER: genes 23 Torsion [C]-CA--CB-[CG2] |==|  0.28887
USER: genes 24 Torsion [CA]-CB--OG1-[HG1] |==|  0.62772
USER: genes 25 Torsion [C]-CA--N-[H1] |==|  0.70092
ROOT
ATOM      1  C   GLU Q   3      13.346 -18.045  10.230  1.00 28.90 LIG 0.24  C 
ATOM      2 O    GLU Q   3      14.069 -18.727   9.494  1.00 28.99 LIG-0.27  OA
ATOM      3  N   PHE Q   4      13.121 -16.751  10.006  1.00 26.46 LIG-0.35  N 
ATOM      4 H    PHE Q   4      12.562 -16.289  10.468  1.00 26.46 LIG 0.16  HD
ENDROOT
BRANCH 3 5
ATOM      5  CA  PHE Q   4      13.788 -15.979   8.966  1.00 24.91 LIG 0.18  C 
BRANCH 5 6
ATOM      6  CB  PHE Q   4      13.345 -14.511   8.949  1.00 23.71 LIG 0.07  C 
BRANCH 6 7
ATOM      7  CG  PHE Q   4      11.924 -14.315   8.462  1.00 27.82 LIG-0.06  A 
ATOM      8  CD1 PHE Q   4      10.914 -15.198   8.819  1.00 28.27 LIG 0.01  A 
ATOM      9  CE1 PHE Q   4       9.606 -15.012   8.359  1.00 33.51 LIG 0.00  A 
ATOM     10  CZ  PHE Q   4       9.305 -13.914   7.573  1.00 29.48 LIG 0.00  A 
ATOM     11  CE2 PHE Q   4      10.276 -13.013   7.247  1.00 30.45 LIG 0.00  A 
ATOM     12  CD2 PHE Q   4      11.606 -13.222   7.669  1.00 30.03 LIG 0.01  A 
ENDBRANCH 6 7
ENDBRANCH 5 6
BRANCH 5 13
ATOM     13  C   PHE Q   4      15.299 -16.039   9.170  1.00 24.46 LIG 0.24  C 
ATOM     14 O    PHE Q   4      15.806 -15.905  10.286  1.00 21.72 LIG-0.27  OA
ATOM     15  N   TYR Q   5      15.991 -16.202   8.045  1.00 25.68 LIG-0.35  N 
ATOM     16 H    TYR Q   5      15.607 -16.287   7.280  1.00 25.68 LIG 0.16  HD
BRANCH 15 17
ATOM     17  CA  TYR Q   5      17.451 -16.259   7.953  1.00 24.76 LIG 0.18  C 
BRANCH 17 18
ATOM     18  C   TYR Q   5      17.846 -15.373   6.808  1.00 23.71 LIG 0.24  C 
ATOM     19  N   ALA Q   6      18.043 -15.984   5.649  1.00 23.95 LIG-0.34  N 
ATOM     20 H    ALA Q   6      17.984 -16.834   5.531  1.00 23.95 LIG 0.16  HD
ATOM     21 O    TYR Q   5      17.906 -14.145   6.938  1.00 22.91 LIG-0.27  OA
BRANCH 19 22
ATOM     22  CA  ALA Q   6      18.386 -15.227   4.460  1.00 23.91 LIG 0.18  C 
ATOM     23  CB  ALA Q   6      17.160 -14.513   3.933  1.00 25.24 LIG 0.04  C 
BRANCH 22 24
ATOM     24  C   ALA Q   6      19.532 -14.241   4.650  1.00 23.52 LIG 0.20  C 
ATOM     25 O    ALA Q   6      19.667 -13.253   3.946  1.00 23.09 LIG-0.65  OA
ATOM     26 OXT  ALA Q   6      20.371 -14.476   5.526  1.00 23.23 LIG-0.65  OA
ENDBRANCH 22 24
ENDBRANCH 19 22
ENDBRANCH 17 18
BRANCH 17 27
ATOM     27  CB  TYR Q   5      17.913 -17.712   7.691  1.00 25.21 LIG 0.07  C 
BRANCH 27 28
ATOM     28  CG  TYR Q   5      16.823 -18.669   7.235  1.00 26.66 LIG-0.06  A 
ATOM     29  CD1 TYR Q   5      16.313 -19.654   8.067  1.00 25.58 LIG 0.01  A 
ATOM     30  CE1 TYR Q   5      15.315 -20.537   7.615  1.00 26.73 LIG 0.04  A 
ATOM     31  CZ  TYR Q   5      14.818 -20.420   6.324  1.00 25.10 LIG 0.07  A 
ATOM     32  CE2 TYR Q   5      15.281 -19.435   5.500  1.00 24.98 LIG 0.04  A 
ATOM     33  CD2 TYR Q   5      16.287 -18.567   5.948  1.00 25.59 LIG 0.01  A 
BRANCH 31 34
ATOM     34 OH   TYR Q   5      13.833 -21.276   5.860  1.00 28.49 LIG-0.36  OA
ATOM     35 HH   TYR Q   5      13.245 -20.834   5.453  1.00 28.49 LIG 0.22  HD
ENDBRANCH 31 34
ENDBRANCH 27 28
ENDBRANCH 17 27
ENDBRANCH 15 17
ENDBRANCH 5 13
ENDBRANCH 3 5
BRANCH 1 36
ATOM     36  CA  GLU Q   3      12.604 -18.678  11.412  1.00 29.75 LIG 0.18  C 
BRANCH 36 37
ATOM     37  CB  GLU Q   3      11.307 -19.364  10.956  1.00 29.86 LIG 0.04  C 
BRANCH 37 38
ATOM     38  CG  GLU Q   3      11.297 -20.144   9.651  1.00 30.70 LIG 0.12  C 
BRANCH 38 39
ATOM     39  CD  GLU Q   3      10.568 -19.383   8.553  1.00 35.33 LIG 0.17  C 
ATOM     40 OE1  GLU Q   3       9.656 -18.609   8.930  1.00 35.34 LIG-0.65  OA
ATOM     41 OE2  GLU Q   3      10.886 -19.570   7.344  1.00 35.74 LIG-0.65  OA
ENDBRANCH 38 39
ENDBRANCH 37 38
ENDBRANCH 36 37
BRANCH 36 42
ATOM     42  N   GLU Q   3      12.351 -17.658  12.434  1.00 32.75 LIG-0.35  N 
ATOM     43  C   ASN Q   2      13.351 -17.022  13.050  1.00 36.04 LIG 0.24  C 
ATOM     44 O    ASN Q   2      14.543 -17.285  12.821  1.00 34.76 LIG-0.27  OA
ATOM     45 H    GLU Q   3      11.519 -17.514  12.594  1.00 32.75 LIG 0.16  HD
BRANCH 43 46
ATOM     46  CA  ASN Q   2      12.954 -15.897  14.029  1.00 38.34 LIG 0.18  C 
BRANCH 46 47
ATOM     47  CB  ASN Q   2      13.062 -14.512  13.371  1.00 38.76 LIG 0.14  C 
BRANCH 47 48
ATOM     48  CG  ASN Q   2      12.075 -14.327  12.210  1.00 42.06 LIG 0.22  C 
ATOM     49  ND2 ASN Q   2      11.156 -15.271  12.062  1.00 46.27 LIG-0.37  N 
ATOM     50 22HD ASN Q   2      11.143 -15.946  12.594  1.00 46.27 LIG 0.16  HD
ATOM     51 21HD ASN Q   2      10.573 -15.208  11.432  1.00 46.27 LIG 0.16  HD
ATOM     52 OD1  ASN Q   2      12.131 -13.342  11.470  1.00 44.45 LIG-0.27  OA
ENDBRANCH 47 48
ENDBRANCH 46 47
BRANCH 46 53
ATOM     53  N   ASN Q   2      13.670 -15.936  15.307  1.00 39.54 LIG-0.34  N 
ATOM     54  C   THR Q   1      14.931 -15.556  15.480  1.00 41.49 LIG 0.25  C 
ATOM     55 O    THR Q   1      15.591 -14.997  14.602  1.00 41.78 LIG-0.27  OA
ATOM     56 H    ASN Q   2      13.187 -16.234  15.953  1.00 39.54 LIG 0.16  HD
BRANCH 54 57
ATOM     57  CA  THR Q   1      15.532 -15.799  16.871  1.00 43.16 LIG 0.30  C 
BRANCH 57 58
ATOM     58  CB  THR Q   1      15.927 -17.282  17.090  1.00 43.89 LIG 0.15  C 
ATOM     59  CG2 THR Q   1      17.431 -17.446  16.982  1.00 45.05 LIG 0.04  C 
BRANCH 58 60
ATOM     60 OG1  THR Q   1      15.606 -17.712  18.427  1.00 46.29 LIG-0.39  OA
ATOM     61 HG1  THR Q   1      16.257 -18.133  18.750  1.00 46.29 LIG 0.21  HD
ENDBRANCH 58 60
ENDBRANCH 57 58
BRANCH 57 62
ATOM     62  N   THR Q   1      14.586 -15.378  17.958  1.00 43.28 LIG-0.06  N 
ATOM     63 H2   THR Q   1      13.780 -15.230  17.610  1.00 43.28 LIG 0.28  HD
ATOM     64 H1   THR Q   1      14.886 -14.631  18.340  1.00 43.28 LIG 0.28  HD
ATOM     65 H3   THR Q   1      14.531 -16.022  18.569  1.00 43.28 LIG 0.28  HD
ENDBRANCH 57 62
ENDBRANCH 54 57
ENDBRANCH 46 53
ENDBRANCH 43 46
ENDBRANCH 36 42
ENDBRANCH 1 36
TORSDOF 24
ENDMDL
MODEL 2
USER: ADFR SOLUTION from run 152
USER: SCORE 21.389514 LL:  -5.188 LR: -17.925 RR:   0.000 FEB: -10.766
USER: RMSD 4.415719
USER: SEED 151
USER: STATUS no improvement in best in 6 clusters for 5 generations
USER: GENES 26
USER: genes 0 Translation |==|  0.49916 0.47211 0.59980
USER: genes 1 Rotation |==|  0.48929 0.58158 0.65207 0.96915
USER: genes 2 Torsion [C]-N--CA-[CB] |==|  0.43909
USER: genes 3 Torsion [N]-CA--CB-[CG] |==|  0.79336
USER: genes 4 Torsion [CA]-CB--CG-[CD1] |==|  0.72657
USER: genes 5 Torsion [N]-CA--C-[N] |==|  0.48006
USER: genes 6 Torsion [C]-N--CA-[C] |==|  0.59624
USER: genes 7 Torsion [N]-CA--C-[N] |==|  0.45815
USER: genes 8 Torsion [C]-N--CA-[CB] |==|  0.19199
USER: genes 9 Torsion [N]-CA--C-[O] |==|  0.50393
USER: genes 10 Torsion [N]-CA--CB-[CG] |==|  0.15252
USER: genes 11 Torsion [CA]-CB--CG-[CD2] |==|  0.23645
USER: genes 12 Torsion [CE1]-CZ--OH-[HH] |==|  0.61788
USER: genes 13 Torsion [N]-C--CA-[N] |==|  0.20648
USER: genes 14 Torsion [C]-CA--CB-[CG] |==|  0.71803
USER: genes 15 Torsion [CA]-CB--CG-[CD] |==|  0.76369
USER: genes 16 Torsion [CB]-CG--CD-[OE1] |==|  0.26707
USER: genes 17 Torsion [C]-CA--N-[C] |==|  0.77760
USER: genes 18 Torsion [N]-C--CA-[N] |==|  0.44582
USER: genes 19 Torsion [C]-CA--CB-[CG] |==|  0.48621
USER: genes 20 Torsion [CA]-CB--CG-[ND2] |==|  0.44151
USER: genes 21 Torsion [C]-CA--N-[C] |==|  0.67064
USER: genes 22 Torsion [N]-C--CA-[N] |==|  0.80179
USER: genes 23 Torsion [C]-CA--CB-[CG2] |==|  0.29883
USER: genes 24 Torsion [CA]-CB--OG1-[HG1] |==|  0.80505
USER: genes 25 Torsion [C]-CA--N-[H1] |==|  0.72413
ROOT
ATOM      1  C   GLU Q   3      14.890 -14.711  17.076  1.00 28.90 LIG 0.24  C 
ATOM      2 O    GLU Q   3      15.035 -13.759  16.299  1.00 28.99 LIG-0.27  OA
ATOM      3  N   PHE Q   4      14.947 -15.978  16.666  1.00 26.46 LIG-0.35  N 
ATOM      4 H    PHE Q   4      14.922 -16.644  17.210  1.00 26.46 LIG 0.16  HD
ENDROOT
BRANCH 3 5
ATOM      5  CA  PHE Q   4      15.057 -16.376  15.269  1.00 24.91 LIG 0.18  C 
BRANCH 5 6
ATOM      6  CB  PHE Q   4      15.630 -17.788  15.104  1.00 23.71 LIG 0.07  C 
BRANCH 6 7
ATOM      7  CG  PHE Q   4      17.120 -17.870  15.363  1.00 27.82 LIG-0.06  A 
ATOM      8  CD1 PHE Q   4      18.032 -17.862  14.316  1.00 28.27 LIG 0.01  A 
ATOM      9  CE1 PHE Q   4      19.406 -17.945  14.564  1.00 33.51 LIG 0.00  A 
ATOM     10  CZ  PHE Q   4      19.867 -17.992  15.867  1.00 29.48 LIG 0.00  A 
ATOM     11  CE2 PHE Q   4      18.987 -17.959  16.910  1.00 30.45 LIG 0.00  A 
ATOM     12  CD2 PHE Q   4      17.599 -17.924  16.664  1.00 30.03 LIG 0.01  A 
ENDBRANCH 6 7
ENDBRANCH 5 6
BRANCH 5 13
ATOM     13  C   PHE Q   4      13.683 -16.318  14.608  1.00 24.46 LIG 0.24  C 
ATOM     14 O    PHE Q   4      12.656 -16.137  15.267  1.00 21.72 LIG-0.27  OA
ATOM     15  N   TYR Q   5      13.706 -16.519  13.292  1.00 25.68 LIG-0.35  N 
ATOM     16 H    TYR Q   5      14.439 -16.648  12.862  1.00 25.68 LIG 0.16  HD
BRANCH 15 17
ATOM     17  CA  TYR Q   5      12.529 -16.548  12.423  1.00 24.76 LIG 0.18  C 
BRANCH 17 18
ATOM     18  C   TYR Q   5      12.808 -17.564  11.355  1.00 23.71 LIG 0.24  C 
ATOM     19  N   ALA Q   6      11.757 -17.966  10.653  1.00 23.95 LIG-0.34  N 
ATOM     20 H    ALA Q   6      10.950 -17.702  10.792  1.00 23.95 LIG 0.16  HD
ATOM     21 O    TYR Q   5      13.960 -17.938  11.109  1.00 22.91 LIG-0.27  OA
BRANCH 19 22
ATOM     22  CA  ALA Q   6      11.909 -18.912   9.565  1.00 23.91 LIG 0.18  C 
ATOM     23  CB  ALA Q   6      12.280 -20.273  10.114  1.00 25.24 LIG 0.04  C 
BRANCH 22 24
ATOM     24  C   ALA Q   6      10.694 -19.023   8.652  1.00 23.52 LIG 0.20  C 
ATOM     25 O    ALA Q   6      10.655 -19.794   7.707  1.00 23.09 LIG-0.65  OA
ATOM     26 OXT  ALA Q   6       9.732 -18.277   8.861  1.00 23.23 LIG-0.65  OA
ENDBRANCH 22 24
ENDBRANCH 19 22
ENDBRANCH 17 18
BRANCH 17 27
ATOM     27  CB  TYR Q   5      12.297 -15.155  11.791  1.00 25.21 LIG 0.07  C 
BRANCH 27 28
ATOM     28  CG  TYR Q   5      13.484 -14.578  11.036  1.00 26.66 LIG-0.06  A 
ATOM     29  CD1 TYR Q   5      14.392 -13.721  11.637  1.00 25.58 LIG 0.01  A 
ATOM     30  CE1 TYR Q   5      15.474 -13.188  10.912  1.00 26.73 LIG 0.04  A 
ATOM     31  CZ  TYR Q   5      15.650 -13.530   9.577  1.00 25.10 LIG 0.07  A 
ATOM     32  CE2 TYR Q   5      14.787 -14.401   8.976  1.00 24.98 LIG 0.04  A 
ATOM     33  CD2 TYR Q   5      13.701 -14.917   9.698  1.00 25.59 LIG 0.01  A 
BRANCH 31 34
ATOM     34 OH   TYR Q   5      16.710 -13.021   8.845  1.00 28.49 LIG-0.36  OA
ATOM     35 HH   TYR Q   5      16.442 -12.798   8.081  1.00 28.49 LIG 0.22  HD
ENDBRANCH 31 34
ENDBRANCH 27 28
ENDBRANCH 17 27
ENDBRANCH 15 17
ENDBRANCH 5 13
ENDBRANCH 3 5
BRANCH 1 36
ATOM     36  CA  GLU Q   3      14.705 -14.481  18.579  1.00 29.75 LIG 0.18  C 
BRANCH 36 37
ATOM     37  CB  GLU Q   3      14.203 -13.058  18.871  1.00 29.86 LIG 0.04  C 
BRANCH 37 38
ATOM     38  CG  GLU Q   3      15.187 -12.007  19.358  1.00 30.70 LIG 0.12  C 
BRANCH 38 39
ATOM     39  CD  GLU Q   3      15.370 -12.072  20.867  1.00 35.33 LIG 0.17  C 
ATOM     40 OE1  GLU Q   3      16.356 -12.731  21.276  1.00 35.34 LIG-0.65  OA
ATOM     41 OE2  GLU Q   3      14.538 -11.496  21.624  1.00 35.74 LIG-0.65  OA
ENDBRANCH 38 39
ENDBRANCH 37 38
ENDBRANCH 36 37
BRANCH 36 42
ATOM     42  N   GLU Q   3      15.962 -14.769  19.277  1.00 32.75 LIG-0.35  N 
ATOM     43  C   ASN Q   2      16.332 -16.020  19.563  1.00 36.04 LIG 0.24  C 
ATOM     44 O    ASN Q   2      15.619 -17.000  19.290  1.00 34.76 LIG-0.27  OA
ATOM     45 H    GLU Q   3      16.424 -14.073  19.478  1.00 32.75 LIG 0.16  HD
BRANCH 43 46
ATOM     46  CA  ASN Q   2      17.724 -16.198  20.205  1.00 38.34 LIG 0.18  C 
BRANCH 46 47
ATOM     47  CB  ASN Q   2      18.850 -15.953  19.187  1.00 38.76 LIG 0.14  C 
BRANCH 47 48
ATOM     48  CG  ASN Q   2      20.246 -16.002  19.821  1.00 42.06 LIG 0.22  C 
ATOM     49  ND2 ASN Q   2      21.260 -16.233  18.998  1.00 46.27 LIG-0.37  N 
ATOM     50 22HD ASN Q   2      21.114 -16.357  18.160  1.00 46.27 LIG 0.16  HD
ATOM     51 21HD ASN Q   2      22.064 -16.260  19.303  1.00 46.27 LIG 0.16  HD
ATOM     52 OD1  ASN Q   2      20.411 -15.820  21.030  1.00 44.45 LIG-0.27  OA
ENDBRANCH 47 48
ENDBRANCH 46 47
BRANCH 46 53
ATOM     53  N   ASN Q   2      17.905 -17.475  20.900  1.00 39.54 LIG-0.34  N 
ATOM     54  C   THR Q   1      18.161 -17.601  22.197  1.00 41.49 LIG 0.25  C 
ATOM     55 O    THR Q   1      18.135 -16.653  22.982  1.00 41.78 LIG-0.27  OA
ATOM     56 H    ASN Q   2      17.828 -18.154  20.378  1.00 39.54 LIG 0.16  HD
BRANCH 54 57
ATOM     57  CA  THR Q   1      18.445 -19.023  22.701  1.00 43.16 LIG 0.30  C 
BRANCH 57 58
ATOM     58  CB  THR Q   1      19.534 -19.738  21.861  1.00 43.89 LIG 0.15  C 
ATOM     59  CG2 THR Q   1      20.823 -19.844  22.653  1.00 45.05 LIG 0.04  C 
BRANCH 58 60
ATOM     60 OG1  THR Q   1      19.161 -21.101  21.582  1.00 46.29 LIG-0.39  OA
ATOM     61 HG1  THR Q   1      19.198 -21.553  22.290  1.00 46.29 LIG 0.21  HD
ENDBRANCH 58 60
ENDBRANCH 57 58
BRANCH 57 62
ATOM     62  N   THR Q   1      17.200 -19.862  22.705  1.00 43.28 LIG-0.06  N 
ATOM     63 H2   THR Q   1      16.599 -19.506  22.153  1.00 43.28 LIG 0.28  HD
ATOM     64 H1   THR Q   1      16.863 -19.890  23.529  1.00 43.28 LIG 0.28  HD
ATOM     65 H3   THR Q   1      17.396 -20.687  22.436  1.00 43.28 LIG 0.28  HD
ENDBRANCH 57 62
ENDBRANCH 54 57
ENDBRANCH 46 53
ENDBRANCH 43 46
ENDBRANCH 36 42
ENDBRANCH 1 36
TORSDOF 24
ENDMDL
MODEL 3
USER: ADFR SOLUTION from run 61
USER: SCORE 21.714294 LL:  -6.086 LR: -17.836 RR:   0.000 FEB: -10.676
USER: RMSD 10.314674
USER: SEED 60
USER: STATUS no improvement in best in 3 clusters for 5 generations
USER: GENES 26
USER: genes 0 Translation |==|  0.39118 0.27252 0.37407
USER: genes 1 Rotation |==|  0.81260 0.14489 0.64359 0.57458
USER: genes 2 Torsion [C]-N--CA-[CB] |==|  0.48889
USER: genes 3 Torsion [N]-CA--CB-[CG] |==|  0.62141
USER: genes 4 Torsion [CA]-CB--CG-[CD1] |==|  0.86058
USER: genes 5 Torsion [N]-CA--C-[N] |==|  0.88454
USER: genes 6 Torsion [C]-N--CA-[C] |==|  0.63576
USER: genes 7 Torsion [N]-CA--C-[N] |==|  0.05166
USER: genes 8 Torsion [C]-N--CA-[CB] |==|  0.19847
USER: genes 9 Torsion [N]-CA--C-[O] |==|  0.60152
USER: genes 10 Torsion [N]-CA--CB-[CG] |==|  0.10796
USER: genes 11 Torsion [CA]-CB--CG-[CD2] |==|  0.17262
USER: genes 12 Torsion [CE1]-CZ--OH-[HH] |==|  0.44928
USER: genes 13 Torsion [N]-C--CA-[N] |==|  0.03868
USER: genes 14 Torsion [C]-CA--CB-[CG] |==|  0.43326
USER: genes 15 Torsion [CA]-CB--CG-[CD] |==|  0.23427
USER: genes 16 Torsion [CB]-CG--CD-[OE1] |==|  0.37484
USER: genes 17 Torsion [C]-CA--N-[C] |==|  0.78642
USER: genes 18 Torsion [N]-C--CA-[N] |==|  0.31727
USER: genes 19 Torsion [C]-CA--CB-[CG] |==|  0.67369
USER: genes 20 Torsion [CA]-CB--CG-[ND2] |==|  0.12455
USER: genes 21 Torsion [C]-CA--N-[C] |==|  0.68912
USER: genes 22 Torsion [N]-C--CA-[N] |==|  0.75099
USER: genes 23 Torsion [C]-CA--CB-[CG2] |==|  0.30940
USER: genes 24 Torsion [CA]-CB--OG1-[HG1] |==|  0.39584
USER: genes 25 Torsion [C]-CA--N-[H1] |==|  0.59441
ROOT
ATOM      1  C   GLU Q   3      12.784 -18.752  11.150  1.00 28.90 LIG 0.24  C 
ATOM      2 O    GLU Q   3      11.918 -19.104  11.960  1.00 28.99 LIG-0.27  OA
ATOM      3  N   PHE Q   4      13.858 -18.052  11.516  1.00 26.46 LIG-0.35  N 
ATOM      4 H    PHE Q   4      14.500 -17.869  10.974  1.00 26.46 LIG 0.16  HD
ENDROOT
BRANCH 3 5
ATOM      5  CA  PHE Q   4      14.064 -17.522  12.857  1.00 24.91 LIG 0.18  C 
BRANCH 5 6
ATOM      6  CB  PHE Q   4      15.429 -16.843  13.016  1.00 23.71 LIG 0.07  C 
BRANCH 6 7
ATOM      7  CG  PHE Q   4      16.136 -17.201  14.308  1.00 27.82 LIG-0.06  A 
ATOM      8  CD1 PHE Q   4      15.485 -17.109  15.531  1.00 28.27 LIG 0.01  A 
ATOM      9  CE1 PHE Q   4      16.148 -17.435  16.719  1.00 33.51 LIG 0.00  A 
ATOM     10  CZ  PHE Q   4      17.452 -17.895  16.674  1.00 29.48 LIG 0.00  A 
ATOM     11  CE2 PHE Q   4      18.093 -18.031  15.477  1.00 30.45 LIG 0.00  A 
ATOM     12  CD2 PHE Q   4      17.445 -17.659  14.281  1.00 30.03 LIG 0.01  A 
ENDBRANCH 6 7
ENDBRANCH 5 6
BRANCH 5 13
ATOM     13  C   PHE Q   4      12.967 -16.515  13.187  1.00 24.46 LIG 0.24  C 
ATOM     14 O    PHE Q   4      12.406 -16.508  14.285  1.00 21.72 LIG-0.27  OA
ATOM     15  N   TYR Q   5      12.660 -15.700  12.181  1.00 25.68 LIG-0.35  N 
ATOM     16 H    TYR Q   5      13.067 -15.734  11.424  1.00 25.68 LIG 0.16  HD
BRANCH 15 17
ATOM     17  CA  TYR Q   5      11.623 -14.667  12.219  1.00 24.76 LIG 0.18  C 
BRANCH 17 18
ATOM     18  C   TYR Q   5      10.795 -14.842  10.979  1.00 23.71 LIG 0.24  C 
ATOM     19  N   ALA Q   6      10.897 -16.021  10.382  1.00 23.95 LIG-0.34  N 
ATOM     20 H    ALA Q   6      11.414 -16.656  10.644  1.00 23.95 LIG 0.16  HD
ATOM     21 O    TYR Q   5      10.018 -13.961  10.596  1.00 22.91 LIG-0.27  OA
BRANCH 19 22
ATOM     22  CA  ALA Q   6      10.111 -16.324   9.200  1.00 23.91 LIG 0.18  C 
ATOM     23  CB  ALA Q   6      10.635 -15.538   8.018  1.00 25.24 LIG 0.04  C 
BRANCH 22 24
ATOM     24  C   ALA Q   6      10.035 -17.806   8.857  1.00 23.52 LIG 0.20  C 
ATOM     25 O    ALA Q   6      10.031 -18.211   7.706  1.00 23.09 LIG-0.65  OA
ATOM     26 OXT  ALA Q   6       9.936 -18.619   9.783  1.00 23.23 LIG-0.65  OA
ENDBRANCH 22 24
ENDBRANCH 19 22
ENDBRANCH 17 18
BRANCH 17 27
ATOM     27  CB  TYR Q   5      12.271 -13.262  12.237  1.00 25.21 LIG 0.07  C 
BRANCH 27 28
ATOM     28  CG  TYR Q   5      13.501 -13.101  11.357  1.00 26.66 LIG-0.06  A 
ATOM     29  CD1 TYR Q   5      14.748 -12.804  11.884  1.00 25.58 LIG 0.01  A 
ATOM     30  CE1 TYR Q   5      15.868 -12.644  11.047  1.00 26.73 LIG 0.04  A 
ATOM     31  CZ  TYR Q   5      15.735 -12.798   9.673  1.00 25.10 LIG 0.07  A 
ATOM     32  CE2 TYR Q   5      14.522 -13.126   9.137  1.00 24.98 LIG 0.04  A 
ATOM     33  CD2 TYR Q   5      13.405 -13.268   9.973  1.00 25.59 LIG 0.01  A 
BRANCH 31 34
ATOM     34 OH   TYR Q   5      16.824 -12.650   8.831  1.00 28.49 LIG-0.36  OA
ATOM     35 HH   TYR Q   5      16.657 -13.007   8.089  1.00 28.49 LIG 0.22  HD
ENDBRANCH 31 34
ENDBRANCH 27 28
ENDBRANCH 17 27
ENDBRANCH 15 17
ENDBRANCH 5 13
ENDBRANCH 3 5
BRANCH 1 36
ATOM     36  CA  GLU Q   3      12.704 -19.170   9.679  1.00 29.75 LIG 0.18  C 
BRANCH 36 37
ATOM     37  CB  GLU Q   3      12.201 -20.616   9.534  1.00 29.86 LIG 0.04  C 
BRANCH 37 38
ATOM     38  CG  GLU Q   3      11.536 -21.046   8.236  1.00 30.70 LIG 0.12  C 
BRANCH 38 39
ATOM     39  CD  GLU Q   3      12.564 -21.459   7.193  1.00 35.33 LIG 0.17  C 
ATOM     40 OE1  GLU Q   3      12.318 -22.516   6.565  1.00 35.34 LIG-0.65  OA
ATOM     41 OE2  GLU Q   3      13.598 -20.754   7.020  1.00 35.74 LIG-0.65  OA
ENDBRANCH 38 39
ENDBRANCH 37 38
ENDBRANCH 36 37
BRANCH 36 42
ATOM     42  N   GLU Q   3      14.011 -18.982   9.043  1.00 32.75 LIG-0.35  N 
ATOM     43  C   ASN Q   2      14.446 -17.771   8.685  1.00 36.04 LIG 0.24  C 
ATOM     44 O    ASN Q   2      13.756 -16.749   8.834  1.00 34.76 LIG-0.27  OA
ATOM     45 H    GLU Q   3      14.458 -19.707   8.926  1.00 32.75 LIG 0.16  HD
BRANCH 43 46
ATOM     46  CA  ASN Q   2      15.881 -17.692   8.122  1.00 38.34 LIG 0.18  C 
BRANCH 46 47
ATOM     47  CB  ASN Q   2      16.781 -16.803   8.995  1.00 38.76 LIG 0.14  C 
BRANCH 47 48
ATOM     48  CG  ASN Q   2      17.306 -15.571   8.246  1.00 42.06 LIG 0.22  C 
ATOM     49  ND2 ASN Q   2      16.424 -14.905   7.513  1.00 46.27 LIG-0.37  N 
ATOM     50 22HD ASN Q   2      15.610 -15.178   7.468  1.00 46.27 LIG 0.16  HD
ATOM     51 21HD ASN Q   2      16.666 -14.201   7.082  1.00 46.27 LIG 0.16  HD
ATOM     52 OD1  ASN Q   2      18.484 -15.216   8.338  1.00 44.45 LIG-0.27  OA
ENDBRANCH 47 48
ENDBRANCH 46 47
BRANCH 46 53
ATOM     53  N   ASN Q   2      15.950 -17.297   6.713  1.00 39.54 LIG-0.34  N 
ATOM     54  C   THR Q   1      16.337 -18.092   5.722  1.00 41.49 LIG 0.25  C 
ATOM     55 O    THR Q   1      16.547 -19.297   5.870  1.00 41.78 LIG-0.27  OA
ATOM     56 H    ASN Q   2      15.711 -16.481   6.581  1.00 39.54 LIG 0.16  HD
BRANCH 54 57
ATOM     57  CA  THR Q   1      16.464 -17.444   4.336  1.00 43.16 LIG 0.30  C 
BRANCH 57 58
ATOM     58  CB  THR Q   1      16.916 -15.963   4.419  1.00 43.89 LIG 0.15  C 
ATOM     59  CG2 THR Q   1      18.319 -15.812   3.866  1.00 45.05 LIG 0.04  C 
BRANCH 58 60
ATOM     60 OG1  THR Q   1      16.098 -15.124   3.581  1.00 46.29 LIG-0.39  OA
ATOM     61 HG1  THR Q   1      15.969 -14.387   3.962  1.00 46.29 LIG 0.21  HD
ENDBRANCH 58 60
ENDBRANCH 57 58
BRANCH 57 62
ATOM     62  N   THR Q   1      15.171 -17.520   3.576  1.00 43.28 LIG-0.06  N 
ATOM     63 H2   THR Q   1      14.697 -18.216   3.865  1.00 43.28 LIG 0.28  HD
ATOM     64 H1   THR Q   1      15.343 -17.619   2.708  1.00 43.28 LIG 0.28  HD
ATOM     65 H3   THR Q   1      14.707 -16.772   3.704  1.00 43.28 LIG 0.28  HD
ENDBRANCH 57 62
ENDBRANCH 54 57
ENDBRANCH 46 53
ENDBRANCH 43 46
ENDBRANCH 36 42
ENDBRANCH 1 36
TORSDOF 24
ENDMDL
MODEL 4
USER: ADFR SOLUTION from run 10
USER: SCORE 20.180532 LL:  -4.982 LR: -17.718 RR:   0.000 FEB: -10.559
USER: RMSD 9.717115
USER: SEED 923201
USER: STATUS 1 or 2 clusters left
USER: GENES 26
USER: genes 0 Translation |==|  0.42073 0.30607 0.33971
USER: genes 1 Rotation |==|  0.75905 0.51629 0.12542 0.70571
USER: genes 2 Torsion [C]-N--CA-[CB] |==|  0.50014
USER: genes 3 Torsion [N]-CA--CB-[CG] |==|  0.80605
USER: genes 4 Torsion [CA]-CB--CG-[CD1] |==|  0.10852
USER: genes 5 Torsion [N]-CA--C-[N] |==|  0.38224
USER: genes 6 Torsion [C]-N--CA-[C] |==|  0.62940
USER: genes 7 Torsion [N]-CA--C-[N] |==|  0.73224
USER: genes 8 Torsion [C]-N--CA-[CB] |==|  0.79443
USER: genes 9 Torsion [N]-CA--C-[O] |==|  0.55478
USER: genes 10 Torsion [N]-CA--CB-[CG] |==|  0.66267
USER: genes 11 Torsion [CA]-CB--CG-[CD2] |==|  0.56769
USER: genes 12 Torsion [CE1]-CZ--OH-[HH] |==|  0.38818
USER: genes 13 Torsion [N]-C--CA-[N] |==|  0.91972
USER: genes 14 Torsion [C]-CA--CB-[CG] |==|  0.10238
USER: genes 15 Torsion [CA]-CB--CG-[CD] |==|  0.70656
USER: genes 16 Torsion [CB]-CG--CD-[OE1] |==|  0.92869
USER: genes 17 Torsion [C]-CA--N-[C] |==|  0.82837
USER: genes 18 Torsion [N]-C--CA-[N] |==|  0.37332
USER: genes 19 Torsion [C]-CA--CB-[CG] |==|  0.17986
USER: genes 20 Torsion [CA]-CB--CG-[ND2] |==|  0.02652
USER: genes 21 Torsion [C]-CA--N-[C] |==|  0.20997
USER: genes 22 Torsion [N]-C--CA-[N] |==|  0.87444
USER: genes 23 Torsion [C]-CA--CB-[CG2] |==|  0.28900
USER: genes 24 Torsion [CA]-CB--OG1-[HG1] |==|  0.62766
USER: genes 25 Torsion [C]-CA--N-[H1] |==|  0.70090
ROOT
ATOM      1  C   GLU Q   3      13.360 -18.073  10.248  1.00 28.90 LIG 0.24  C 
ATOM      2 O    GLU Q   3      14.087 -18.754   9.515  1.00 28.99 LIG-0.27  OA
ATOM      3  N   PHE Q   4      13.129 -16.780  10.019  1.00 26.46 LIG-0.35  N 
ATOM      4 H    PHE Q   4      12.567 -16.319  10.479  1.00 26.46 LIG 0.16  HD
ENDROOT
BRANCH 3 5
ATOM      5  CA  PHE Q   4      13.794 -16.009   8.976  1.00 24.91 LIG 0.18  C 
BRANCH 5 6
ATOM      6  CB  PHE Q   4      13.334 -14.548   8.944  1.00 23.71 LIG 0.07  C 
BRANCH 6 7
ATOM      7  CG  PHE Q   4      11.909 -14.373   8.460  1.00 27.82 LIG-0.06  A 
ATOM      8  CD1 PHE Q   4      10.911 -15.266   8.828  1.00 28.27 LIG 0.01  A 
ATOM      9  CE1 PHE Q   4       9.599 -15.101   8.370  1.00 33.51 LIG 0.00  A 
ATOM     10  CZ  PHE Q   4       9.281 -14.013   7.577  1.00 29.48 LIG 0.00  A 
ATOM     11  CE2 PHE Q   4      10.240 -13.103   7.240  1.00 30.45 LIG 0.00  A 
ATOM     12  CD2 PHE Q   4      11.573 -13.292   7.659  1.00 30.03 LIG 0.01  A 
ENDBRANCH 6 7
ENDBRANCH 5 6
BRANCH 5 13
ATOM     13  C   PHE Q   4      15.303 -16.050   9.190  1.00 24.46 LIG 0.24  C 
ATOM     14 O    PHE Q   4      15.803 -15.893  10.306  1.00 21.72 LIG-0.27  OA
ATOM     15  N   TYR Q   5      16.005 -16.223   8.071  1.00 25.68 LIG-0.35  N 
ATOM     16 H    TYR Q   5      15.626 -16.324   7.306  1.00 25.68 LIG 0.16  HD
BRANCH 15 17
ATOM     17  CA  TYR Q   5      17.465 -16.265   7.989  1.00 24.76 LIG 0.18  C 
BRANCH 17 18
ATOM     18  C   TYR Q   5      17.858 -15.381   6.842  1.00 23.71 LIG 0.24  C 
ATOM     19  N   ALA Q   6      18.068 -15.997   5.687  1.00 23.95 LIG-0.34  N 
ATOM     20 H    ALA Q   6      18.018 -16.848   5.573  1.00 23.95 LIG 0.16  HD
ATOM     21 O    TYR Q   5      17.906 -14.152   6.965  1.00 22.91 LIG-0.27  OA
BRANCH 19 22
ATOM     22  CA  ALA Q   6      18.410 -15.242   4.496  1.00 23.91 LIG 0.18  C 
ATOM     23  CB  ALA Q   6      17.186 -14.521   3.973  1.00 25.24 LIG 0.04  C 
BRANCH 22 24
ATOM     24  C   ALA Q   6      19.562 -14.262   4.680  1.00 23.52 LIG 0.20  C 
ATOM     25 O    ALA Q   6      19.748 -13.323   3.923  1.00 23.09 LIG-0.65  OA
ATOM     26 OXT  ALA Q   6      20.353 -14.453   5.610  1.00 23.23 LIG-0.65  OA
ENDBRANCH 22 24
ENDBRANCH 19 22
ENDBRANCH 17 18
BRANCH 17 27
ATOM     27  CB  TYR Q   5      17.944 -17.715   7.737  1.00 25.21 LIG 0.07  C 
BRANCH 27 28
ATOM     28  CG  TYR Q   5      18.886 -18.280   8.789  1.00 26.66 LIG-0.06  A 
ATOM     29  CD1 TYR Q   5      18.898 -17.811  10.094  1.00 25.58 LIG 0.01  A 
ATOM     30  CE1 TYR Q   5      19.790 -18.340  11.045  1.00 26.73 LIG 0.04  A 
ATOM     31  CZ  TYR Q   5      20.667 -19.355  10.684  1.00 25.10 LIG 0.07  A 
ATOM     32  CE2 TYR Q   5      20.647 -19.855   9.414  1.00 24.98 LIG 0.04  A 
ATOM     33  CD2 TYR Q   5      19.767 -19.314   8.465  1.00 25.59 LIG 0.01  A 
BRANCH 31 34
ATOM     34 OH   TYR Q   5      21.551 -19.893  11.605  1.00 28.49 LIG-0.36  OA
ATOM     35 HH   TYR Q   5      21.594 -20.725  11.500  1.00 28.49 LIG 0.22  HD
ENDBRANCH 31 34
ENDBRANCH 27 28
ENDBRANCH 17 27
ENDBRANCH 15 17
ENDBRANCH 5 13
ENDBRANCH 3 5
BRANCH 1 36
ATOM     36  CA  GLU Q   3      12.621 -18.704  11.432  1.00 29.75 LIG 0.18  C 
BRANCH 36 37
ATOM     37  CB  GLU Q   3      11.326 -19.397  10.978  1.00 29.86 LIG 0.04  C 
BRANCH 37 38
ATOM     38  CG  GLU Q   3      11.301 -20.127   9.645  1.00 30.70 LIG 0.12  C 
BRANCH 38 39
ATOM     39  CD  GLU Q   3      10.531 -19.342   8.593  1.00 35.33 LIG 0.17  C 
ATOM     40 OE1  GLU Q   3       9.656 -18.554   9.025  1.00 35.34 LIG-0.65  OA
ATOM     41 OE2  GLU Q   3      10.782 -19.524   7.368  1.00 35.74 LIG-0.65  OA
ENDBRANCH 38 39
ENDBRANCH 37 38
ENDBRANCH 36 37
BRANCH 36 42
ATOM     42  N   GLU Q   3      12.363 -17.682  12.451  1.00 32.75 LIG-0.35  N 
ATOM     43  C   ASN Q   2      13.361 -17.038  13.063  1.00 36.04 LIG 0.24  C 
ATOM     44 O    ASN Q   2      14.554 -17.296  12.834  1.00 34.76 LIG-0.27  OA
ATOM     45 H    GLU Q   3      11.530 -17.541  12.611  1.00 32.75 LIG 0.16  HD
BRANCH 43 46
ATOM     46  CA  ASN Q   2      12.959 -15.912  14.039  1.00 38.34 LIG 0.18  C 
BRANCH 46 47
ATOM     47  CB  ASN Q   2      13.064 -14.529  13.376  1.00 38.76 LIG 0.14  C 
BRANCH 47 48
ATOM     48  CG  ASN Q   2      12.074 -14.349  12.217  1.00 42.06 LIG 0.22  C 
ATOM     49  ND2 ASN Q   2      11.156 -15.294  12.073  1.00 46.27 LIG-0.37  N 
ATOM     50 22HD ASN Q   2      11.145 -15.968  12.607  1.00 46.27 LIG 0.16  HD
ATOM     51 21HD ASN Q   2      10.571 -15.234  11.445  1.00 46.27 LIG 0.16  HD
ATOM     52 OD1  ASN Q   2      12.127 -13.366  11.473  1.00 44.45 LIG-0.27  OA
ENDBRANCH 47 48
ENDBRANCH 46 47
BRANCH 46 53
ATOM     53  N   ASN Q   2      13.674 -15.944  15.318  1.00 39.54 LIG-0.34  N 
ATOM     54  C   THR Q   1      14.933 -15.560  15.490  1.00 41.49 LIG 0.25  C 
ATOM     55 O    THR Q   1      15.592 -15.002  14.612  1.00 41.78 LIG-0.27  OA
ATOM     56 H    ASN Q   2      13.191 -16.242  15.964  1.00 39.54 LIG 0.16  HD
BRANCH 54 57
ATOM     57  CA  THR Q   1      15.534 -15.797  16.883  1.00 43.16 LIG 0.30  C 
BRANCH 57 58
ATOM     58  CB  THR Q   1      15.936 -17.277  17.106  1.00 43.89 LIG 0.15  C 
ATOM     59  CG2 THR Q   1      17.441 -17.434  17.001  1.00 45.05 LIG 0.04  C 
BRANCH 58 60
ATOM     60 OG1  THR Q   1      15.614 -17.706  18.443  1.00 46.29 LIG-0.39  OA
ATOM     61 HG1  THR Q   1      16.267 -18.124  18.768  1.00 46.29 LIG 0.21  HD
ENDBRANCH 58 60
ENDBRANCH 57 58
BRANCH 57 62
ATOM     62  N   THR Q   1      14.585 -15.378  17.968  1.00 43.28 LIG-0.06  N 
ATOM     63 H2   THR Q   1      13.778 -15.234  17.618  1.00 43.28 LIG 0.28  HD
ATOM     64 H1   THR Q   1      14.880 -14.629  18.349  1.00 43.28 LIG 0.28  HD
ATOM     65 H3   THR Q   1      14.531 -16.021  18.580  1.00 43.28 LIG 0.28  HD
ENDBRANCH 57 62
ENDBRANCH 54 57
ENDBRANCH 46 53
ENDBRANCH 43 46
ENDBRANCH 36 42
ENDBRANCH 1 36
TORSDOF 24
ENDMDL
MODEL 5
USER: ADFR SOLUTION from run 77
USER: SCORE 20.920697 LL:  -5.555 LR: -17.584 RR:   0.000 FEB: -10.425
USER: RMSD 8.417043
USER: SEED 76
USER: STATUS no improvement in best in 6 clusters for 5 generations
USER: GENES 26
USER: genes 0 Translation |==|  0.41941 0.38574 0.47058
USER: genes 1 Rotation |==|  0.25500 0.54257 0.06623 0.50208
USER: genes 2 Torsion [C]-N--CA-[CB] |==|  0.37378
USER: genes 3 Torsion [N]-CA--CB-[CG] |==|  0.09593
USER: genes 4 Torsion [CA]-CB--CG-[CD1] |==|  0.77285
USER: genes 5 Torsion [N]-CA--C-[N] |==|  0.39829
USER: genes 6 Torsion [C]-N--CA-[C] |==|  0.19950
USER: genes 7 Torsion [N]-CA--C-[N] |==|  0.02240
USER: genes 8 Torsion [C]-N--CA-[CB] |==|  0.50509
USER: genes 9 Torsion [N]-CA--C-[O] |==|  0.88060
USER: genes 10 Torsion [N]-CA--CB-[CG] |==|  0.52724
USER: genes 11 Torsion [CA]-CB--CG-[CD2] |==|  0.55085
USER: genes 12 Torsion [CE1]-CZ--OH-[HH] |==|  0.81187
USER: genes 13 Torsion [N]-C--CA-[N] |==|  0.93991
USER: genes 14 Torsion [C]-CA--CB-[CG] |==|  0.41259
USER: genes 15 Torsion [CA]-CB--CG-[CD] |==|  0.19646
USER: genes 16 Torsion [CB]-CG--CD-[OE1] |==|  0.05094
USER: genes 17 Torsion [C]-CA--N-[C] |==|  0.81945
USER: genes 18 Torsion [N]-C--CA-[N] |==|  0.48104
USER: genes 19 Torsion [C]-CA--CB-[CG] |==|  0.68027
USER: genes 20 Torsion [CA]-CB--CG-[ND2] |==|  0.77380
USER: genes 21 Torsion [C]-CA--N-[C] |==|  0.59481
USER: genes 22 Torsion [N]-C--CA-[N] |==|  0.16554
USER: genes 23 Torsion [C]-CA--CB-[CG2] |==|  0.34515
USER: genes 24 Torsion [CA]-CB--OG1-[HG1] |==|  0.75739
USER: genes 25 Torsion [C]-CA--N-[H1] |==|  0.67437
ROOT
ATOM      1  C   GLU Q   3      13.335 -16.460  13.684  1.00 28.90 LIG 0.24  C 
ATOM      2 O    GLU Q   3      12.345 -17.096  14.063  1.00 28.99 LIG-0.27  OA
ATOM      3  N   PHE Q   4      13.233 -15.259  13.114  1.00 26.46 LIG-0.35  N 
ATOM      4 H    PHE Q   4      13.918 -14.778  12.916  1.00 26.46 LIG 0.16  HD
ENDROOT
BRANCH 3 5
ATOM      5  CA  PHE Q   4      11.966 -14.630  12.765  1.00 24.91 LIG 0.18  C 
BRANCH 5 6
ATOM      6  CB  PHE Q   4      11.906 -13.157  13.184  1.00 23.71 LIG 0.07  C 
BRANCH 6 7
ATOM      7  CG  PHE Q   4      13.238 -12.444  13.078  1.00 27.82 LIG-0.06  A 
ATOM      8  CD1 PHE Q   4      14.193 -12.555  14.080  1.00 28.27 LIG 0.01  A 
ATOM      9  CE1 PHE Q   4      15.418 -11.887  13.977  1.00 33.51 LIG 0.00  A 
ATOM     10  CZ  PHE Q   4      15.700 -11.141  12.847  1.00 29.48 LIG 0.00  A 
ATOM     11  CE2 PHE Q   4      14.790 -11.055  11.834  1.00 30.45 LIG 0.00  A 
ATOM     12  CD2 PHE Q   4      13.535 -11.687  11.955  1.00 30.03 LIG 0.01  A 
ENDBRANCH 6 7
ENDBRANCH 5 6
BRANCH 5 13
ATOM     13  C   PHE Q   4      11.741 -14.727  11.259  1.00 24.46 LIG 0.24  C 
ATOM     14 O    PHE Q   4      12.667 -14.590  10.457  1.00 21.72 LIG-0.27  OA
ATOM     15  N   TYR Q   5      10.471 -14.926  10.912  1.00 25.68 LIG-0.35  N 
ATOM     16 H    TYR Q   5       9.846 -15.013  11.497  1.00 25.68 LIG 0.16  HD
BRANCH 15 17
ATOM     17  CA  TYR Q   5       9.977 -15.023   9.538  1.00 24.76 LIG 0.18  C 
BRANCH 17 18
ATOM     18  C   TYR Q   5      10.454 -16.341   9.001  1.00 23.71 LIG 0.24  C 
ATOM     19  N   ALA Q   6      11.026 -17.148   9.883  1.00 23.95 LIG-0.34  N 
ATOM     20 H    ALA Q   6      11.156 -16.951  10.711  1.00 23.95 LIG 0.16  HD
ATOM     21 O    TYR Q   5      10.253 -16.666   7.826  1.00 22.91 LIG-0.27  OA
BRANCH 19 22
ATOM     22  CA  ALA Q   6      11.488 -18.467   9.492  1.00 23.91 LIG 0.18  C 
ATOM     23  CB  ALA Q   6      12.056 -19.192  10.693  1.00 25.24 LIG 0.04  C 
BRANCH 22 24
ATOM     24  C   ALA Q   6      10.433 -19.326   8.806  1.00 23.52 LIG 0.20  C 
ATOM     25 O    ALA Q   6       9.281 -19.389   9.206  1.00 23.09 LIG-0.65  OA
ATOM     26 OXT  ALA Q   6      10.772 -20.008   7.833  1.00 23.23 LIG-0.65  OA
ENDBRANCH 22 24
ENDBRANCH 19 22
ENDBRANCH 17 18
BRANCH 17 27
ATOM     27  CB  TYR Q   5      10.539 -13.861   8.685  1.00 25.21 LIG 0.07  C 
BRANCH 27 28
ATOM     28  CG  TYR Q   5       9.922 -13.711   7.303  1.00 26.66 LIG-0.06  A 
ATOM     29  CD1 TYR Q   5       8.698 -14.275   6.980  1.00 25.58 LIG 0.01  A 
ATOM     30  CE1 TYR Q   5       8.155 -14.136   5.689  1.00 26.73 LIG 0.04  A 
ATOM     31  CZ  TYR Q   5       8.843 -13.414   4.722  1.00 25.10 LIG 0.07  A 
ATOM     32  CE2 TYR Q   5      10.034 -12.821   5.030  1.00 24.98 LIG 0.04  A 
ATOM     33  CD2 TYR Q   5      10.579 -12.976   6.313  1.00 25.59 LIG 0.01  A 
BRANCH 31 34
ATOM     34 OH   TYR Q   5       8.326 -13.261   3.446  1.00 28.49 LIG-0.36  OA
ATOM     35 HH   TYR Q   5       8.324 -14.003   3.053  1.00 28.49 LIG 0.22  HD
ENDBRANCH 31 34
ENDBRANCH 27 28
ENDBRANCH 17 27
ENDBRANCH 15 17
ENDBRANCH 5 13
ENDBRANCH 3 5
BRANCH 1 36
ATOM     36  CA  GLU Q   3      14.752 -16.993  13.916  1.00 29.75 LIG 0.18  C 
BRANCH 36 37
ATOM     37  CB  GLU Q   3      15.170 -16.847  15.388  1.00 29.86 LIG 0.04  C 
BRANCH 37 38
ATOM     38  CG  GLU Q   3      16.118 -17.869  15.996  1.00 30.70 LIG 0.12  C 
BRANCH 38 39
ATOM     39  CD  GLU Q   3      17.527 -17.723  15.440  1.00 35.33 LIG 0.17  C 
ATOM     40 OE1  GLU Q   3      17.790 -16.629  14.885  1.00 35.34 LIG-0.65  OA
ATOM     41 OE2  GLU Q   3      18.342 -18.683  15.540  1.00 35.74 LIG-0.65  OA
ENDBRANCH 38 39
ENDBRANCH 37 38
ENDBRANCH 36 37
BRANCH 36 42
ATOM     42  N   GLU Q   3      15.686 -16.312  13.014  1.00 32.75 LIG-0.35  N 
ATOM     43  C   ASN Q   2      15.610 -16.460  11.689  1.00 36.04 LIG 0.24  C 
ATOM     44 O    ASN Q   2      14.776 -17.207  11.152  1.00 34.76 LIG-0.27  OA
ATOM     45 H    GLU Q   3      16.271 -15.823  13.411  1.00 32.75 LIG 0.16  HD
BRANCH 43 46
ATOM     46  CA  ASN Q   2      16.582 -15.610  10.844  1.00 38.34 LIG 0.18  C 
BRANCH 46 47
ATOM     47  CB  ASN Q   2      16.372 -14.106  11.085  1.00 38.76 LIG 0.14  C 
BRANCH 47 48
ATOM     48  CG  ASN Q   2      15.872 -13.367   9.836  1.00 42.06 LIG 0.22  C 
ATOM     49  ND2 ASN Q   2      16.793 -13.028   8.944  1.00 46.27 LIG-0.37  N 
ATOM     50 22HD ASN Q   2      17.620 -13.214   9.088  1.00 46.27 LIG 0.16  HD
ATOM     51 21HD ASN Q   2      16.563 -12.622   8.221  1.00 46.27 LIG 0.16  HD
ATOM     52 OD1  ASN Q   2      14.675 -13.120   9.670  1.00 44.45 LIG-0.27  OA
ENDBRANCH 47 48
ENDBRANCH 46 47
BRANCH 46 53
ATOM     53  N   ASN Q   2      16.566 -15.925   9.413  1.00 39.54 LIG-0.34  N 
ATOM     54  C   THR Q   1      17.626 -15.873   8.614  1.00 41.49 LIG 0.25  C 
ATOM     55 O    THR Q   1      18.771 -15.686   9.028  1.00 41.78 LIG-0.27  OA
ATOM     56 H    ASN Q   2      15.787 -16.154   9.129  1.00 39.54 LIG 0.16  HD
BRANCH 54 57
ATOM     57  CA  THR Q   1      17.368 -16.116   7.121  1.00 43.16 LIG 0.30  C 
BRANCH 57 58
ATOM     58  CB  THR Q   1      18.674 -16.088   6.287  1.00 43.89 LIG 0.15  C 
ATOM     59  CG2 THR Q   1      18.824 -17.378   5.505  1.00 45.05 LIG 0.04  C 
BRANCH 58 60
ATOM     60 OG1  THR Q   1      18.627 -15.054   5.284  1.00 46.29 LIG-0.39  OA
ATOM     61 HG1  THR Q   1      18.267 -15.356   4.587  1.00 46.29 LIG 0.21  HD
ENDBRANCH 58 60
ENDBRANCH 57 58
BRANCH 57 62
ATOM     62  N   THR Q   1      16.406 -15.108   6.560  1.00 43.28 LIG-0.06  N 
ATOM     63 H2   THR Q   1      16.188 -14.521   7.192  1.00 43.28 LIG 0.28  HD
ATOM     64 H1   THR Q   1      15.672 -15.524   6.275  1.00 43.28 LIG 0.28  HD
ATOM     65 H3   THR Q   1      16.787 -14.681   5.879  1.00 43.28 LIG 0.28  HD
ENDBRANCH 57 62
ENDBRANCH 54 57
ENDBRANCH 46 53
ENDBRANCH 43 46
ENDBRANCH 36 42
ENDBRANCH 1 36
TORSDOF 24
ENDMDL
MODEL 6
USER: ADFR SOLUTION from run 199
USER: SCORE 20.849825 LL:  -5.221 LR: -17.518 RR:   0.000 FEB: -10.358
USER: RMSD 9.258336
USER: SEED 198
USER: STATUS no improvement in best in 4 clusters for 5 generations
USER: GENES 26
USER: genes 0 Translation |==|  0.55720 0.39193 0.40945
USER: genes 1 Rotation |==|  0.17140 0.69234 0.21436 0.65309
USER: genes 2 Torsion [C]-N--CA-[CB] |==|  0.52583
USER: genes 3 Torsion [N]-CA--CB-[CG] |==|  0.19282
USER: genes 4 Torsion [CA]-CB--CG-[CD1] |==|  0.26652
USER: genes 5 Torsion [N]-CA--C-[N] |==|  0.86942
USER: genes 6 Torsion [C]-N--CA-[C] |==|  0.79749
USER: genes 7 Torsion [N]-CA--C-[N] |==|  0.33959
USER: genes 8 Torsion [C]-N--CA-[CB] |==|  0.31746
USER: genes 9 Torsion [N]-CA--C-[O] |==|  0.42104
USER: genes 10 Torsion [N]-CA--CB-[CG] |==|  0.56772
USER: genes 11 Torsion [CA]-CB--CG-[CD2] |==|  0.98184
USER: genes 12 Torsion [CE1]-CZ--OH-[HH] |==|  0.19928
USER: genes 13 Torsion [N]-C--CA-[N] |==|  0.37528
USER: genes 14 Torsion [C]-CA--CB-[CG] |==|  0.17640
USER: genes 15 Torsion [CA]-CB--CG-[CD] |==|  0.21505
USER: genes 16 Torsion [CB]-CG--CD-[OE1] |==|  0.74458
USER: genes 17 Torsion [C]-CA--N-[C] |==|  0.52595
USER: genes 18 Torsion [N]-C--CA-[N] |==|  0.42531
USER: genes 19 Torsion [C]-CA--CB-[CG] |==|  0.60832
USER: genes 20 Torsion [CA]-CB--CG-[ND2] |==|  0.80073
USER: genes 21 Torsion [C]-CA--N-[C] |==|  0.68226
USER: genes 22 Torsion [N]-C--CA-[N] |==|  0.22853
USER: genes 23 Torsion [C]-CA--CB-[CG2] |==|  0.40725
USER: genes 24 Torsion [CA]-CB--OG1-[HG1] |==|  0.89348
USER: genes 25 Torsion [C]-CA--N-[H1] |==|  0.97028
ROOT
ATOM      1  C   GLU Q   3      16.021 -16.334  12.079  1.00 28.90 LIG 0.24  C 
ATOM      2 O    GLU Q   3      15.415 -17.413  12.086  1.00 28.99 LIG-0.27  OA
ATOM      3  N   PHE Q   4      15.624 -15.290  12.805  1.00 26.46 LIG-0.35  N 
ATOM      4 H    PHE Q   4      16.080 -14.563  12.864  1.00 26.46 LIG 0.16  HD
ENDROOT
BRANCH 3 5
ATOM      5  CA  PHE Q   4      14.386 -15.258  13.573  1.00 24.91 LIG 0.18  C 
BRANCH 5 6
ATOM      6  CB  PHE Q   4      14.072 -13.862  14.123  1.00 23.71 LIG 0.07  C 
BRANCH 6 7
ATOM      7  CG  PHE Q   4      13.691 -12.862  13.051  1.00 27.82 LIG-0.06  A 
ATOM      8  CD1 PHE Q   4      12.360 -12.604  12.750  1.00 28.27 LIG 0.01  A 
ATOM      9  CE1 PHE Q   4      12.018 -11.683  11.753  1.00 33.51 LIG 0.00  A 
ATOM     10  CZ  PHE Q   4      13.014 -10.990  11.089  1.00 29.48 LIG 0.00  A 
ATOM     11  CE2 PHE Q   4      14.325 -11.200  11.400  1.00 30.45 LIG 0.00  A 
ATOM     12  CD2 PHE Q   4      14.677 -12.162  12.370  1.00 30.03 LIG 0.01  A 
ENDBRANCH 6 7
ENDBRANCH 5 6
BRANCH 5 13
ATOM     13  C   PHE Q   4      13.226 -15.719  12.697  1.00 24.46 LIG 0.24  C 
ATOM     14 O    PHE Q   4      12.424 -16.573  13.083  1.00 21.72 LIG-0.27  OA
ATOM     15  N   TYR Q   5      13.197 -15.153  11.493  1.00 25.68 LIG-0.35  N 
ATOM     16 H    TYR Q   5      13.775 -14.564  11.251  1.00 25.68 LIG 0.16  HD
BRANCH 15 17
ATOM     17  CA  TYR Q   5      12.213 -15.441  10.448  1.00 24.76 LIG 0.18  C 
BRANCH 17 18
ATOM     18  C   TYR Q   5      12.545 -16.801   9.908  1.00 23.71 LIG 0.24  C 
ATOM     19  N   ALA Q   6      11.576 -17.703   9.983  1.00 23.95 LIG-0.34  N 
ATOM     20 H    ALA Q   6      10.804 -17.559  10.336  1.00 23.95 LIG 0.16  HD
ATOM     21 O    TYR Q   5      13.631 -17.029   9.365  1.00 22.91 LIG-0.27  OA
BRANCH 19 22
ATOM     22  CA  ALA Q   6      11.764 -19.040   9.454  1.00 23.91 LIG 0.18  C 
ATOM     23  CB  ALA Q   6      11.741 -20.049  10.582  1.00 25.24 LIG 0.04  C 
BRANCH 22 24
ATOM     24  C   ALA Q   6      10.767 -19.435   8.371  1.00 23.52 LIG 0.20  C 
ATOM     25 O    ALA Q   6      11.040 -20.237   7.492  1.00 23.09 LIG-0.65  OA
ATOM     26 OXT  ALA Q   6       9.657 -18.891   8.367  1.00 23.23 LIG-0.65  OA
ENDBRANCH 22 24
ENDBRANCH 19 22
ENDBRANCH 17 18
BRANCH 17 27
ATOM     27  CB  TYR Q   5      12.301 -14.381   9.324  1.00 25.21 LIG 0.07  C 
BRANCH 27 28
ATOM     28  CG  TYR Q   5      11.033 -14.195   8.506  1.00 26.66 LIG-0.06  A 
ATOM     29  CD1 TYR Q   5      10.917 -13.203   7.544  1.00 25.58 LIG 0.01  A 
ATOM     30  CE1 TYR Q   5       9.727 -13.041   6.811  1.00 26.73 LIG 0.04  A 
ATOM     31  CZ  TYR Q   5       8.651 -13.889   7.039  1.00 25.10 LIG 0.07  A 
ATOM     32  CE2 TYR Q   5       8.756 -14.894   7.957  1.00 24.98 LIG 0.04  A 
ATOM     33  CD2 TYR Q   5       9.939 -15.043   8.696  1.00 25.59 LIG 0.01  A 
BRANCH 31 34
ATOM     34 OH   TYR Q   5       7.472 -13.750   6.326  1.00 28.49 LIG-0.36  OA
ATOM     35 HH   TYR Q   5       7.591 -14.002   5.534  1.00 28.49 LIG 0.22  HD
ENDBRANCH 31 34
ENDBRANCH 27 28
ENDBRANCH 17 27
ENDBRANCH 15 17
ENDBRANCH 5 13
ENDBRANCH 3 5
BRANCH 1 36
ATOM     36  CA  GLU Q   3      17.318 -16.164  11.281  1.00 29.75 LIG 0.18  C 
BRANCH 36 37
ATOM     37  CB  GLU Q   3      17.028 -15.868   9.800  1.00 29.86 LIG 0.04  C 
BRANCH 37 38
ATOM     38  CG  GLU Q   3      16.298 -14.588   9.426  1.00 30.70 LIG 0.12  C 
BRANCH 38 39
ATOM     39  CD  GLU Q   3      17.224 -13.382   9.482  1.00 35.33 LIG 0.17  C 
ATOM     40 OE1  GLU Q   3      17.257 -12.762  10.572  1.00 35.34 LIG-0.65  OA
ATOM     41 OE2  GLU Q   3      17.885 -13.052   8.457  1.00 35.74 LIG-0.65  OA
ENDBRANCH 38 39
ENDBRANCH 37 38
ENDBRANCH 36 37
BRANCH 36 42
ATOM     42  N   GLU Q   3      18.156 -17.356  11.445  1.00 32.75 LIG-0.35  N 
ATOM     43  C   ASN Q   2      19.416 -17.390  11.005  1.00 36.04 LIG 0.24  C 
ATOM     44 O    ASN Q   2      19.933 -16.435  10.401  1.00 34.76 LIG-0.27  OA
ATOM     45 H    GLU Q   3      17.767 -18.012  11.841  1.00 32.75 LIG 0.16  HD
BRANCH 43 46
ATOM     46  CA  ASN Q   2      20.226 -18.662  11.330  1.00 38.34 LIG 0.18  C 
BRANCH 46 47
ATOM     47  CB  ASN Q   2      20.756 -18.638  12.773  1.00 38.76 LIG 0.14  C 
BRANCH 47 48
ATOM     48  CG  ASN Q   2      22.176 -19.209  12.894  1.00 42.06 LIG 0.22  C 
ATOM     49  ND2 ASN Q   2      22.299 -20.521  12.748  1.00 46.27 LIG-0.37  N 
ATOM     50 22HD ASN Q   2      21.602 -21.005  12.606  1.00 46.27 LIG 0.16  HD
ATOM     51 21HD ASN Q   2      23.075 -20.889  12.797  1.00 46.27 LIG 0.16  HD
ATOM     52 OD1  ASN Q   2      23.148 -18.478  13.100  1.00 44.45 LIG-0.27  OA
ENDBRANCH 47 48
ENDBRANCH 46 47
BRANCH 46 53
ATOM     53  N   ASN Q   2      21.299 -18.950  10.375  1.00 39.54 LIG-0.34  N 
ATOM     54  C   THR Q   1      21.333 -20.008   9.572  1.00 41.49 LIG 0.25  C 
ATOM     55 O    THR Q   1      20.388 -20.789   9.449  1.00 41.78 LIG-0.27  OA
ATOM     56 H    ASN Q   2      21.921 -18.357  10.380  1.00 39.54 LIG 0.16  HD
BRANCH 54 57
ATOM     57  CA  THR Q   1      22.609 -20.192   8.740  1.00 43.16 LIG 0.30  C 
BRANCH 57 58
ATOM     58  CB  THR Q   1      22.355 -21.012   7.448  1.00 43.89 LIG 0.15  C 
ATOM     59  CG2 THR Q   1      23.259 -20.525   6.332  1.00 45.05 LIG 0.04  C 
BRANCH 58 60
ATOM     60 OG1  THR Q   1      22.713 -22.395   7.634  1.00 46.29 LIG-0.39  OA
ATOM     61 HG1  THR Q   1      23.409 -22.444   8.103  1.00 46.29 LIG 0.21  HD
ENDBRANCH 58 60
ENDBRANCH 57 58
BRANCH 57 62
ATOM     62  N   THR Q   1      23.693 -20.858   9.538  1.00 43.28 LIG-0.06  N 
ATOM     63 H2   THR Q   1      23.818 -21.686   9.237  1.00 43.28 LIG 0.28  HD
ATOM     64 H1   THR Q   1      23.455 -20.887  10.395  1.00 43.28 LIG 0.28  HD
ATOM     65 H3   THR Q   1      24.449 -20.396   9.455  1.00 43.28 LIG 0.28  HD
ENDBRANCH 57 62
ENDBRANCH 54 57
ENDBRANCH 46 53
ENDBRANCH 43 46
ENDBRANCH 36 42
ENDBRANCH 1 36
TORSDOF 24
ENDMDL
MODEL 7
USER: ADFR SOLUTION from run 22
USER: SCORE 21.707961 LL:  -7.718 LR: -17.429 RR:   0.000 FEB: -10.270
USER: RMSD 8.884575
USER: SEED 21
USER: STATUS no improvement in best in 2 clusters for 5 generations
USER: GENES 26
USER: genes 0 Translation |==|  0.42599 0.38206 0.45321
USER: genes 1 Rotation |==|  0.84001 0.40716 0.84648 0.57566
USER: genes 2 Torsion [C]-N--CA-[CB] |==|  0.37590
USER: genes 3 Torsion [N]-CA--CB-[CG] |==|  0.08425
USER: genes 4 Torsion [CA]-CB--CG-[CD1] |==|  0.69835
USER: genes 5 Torsion [N]-CA--C-[N] |==|  0.04302
USER: genes 6 Torsion [C]-N--CA-[C] |==|  0.52779
USER: genes 7 Torsion [N]-CA--C-[N] |==|  0.07432
USER: genes 8 Torsion [C]-N--CA-[CB] |==|  0.53576
USER: genes 9 Torsion [N]-CA--C-[O] |==|  0.84116
USER: genes 10 Torsion [N]-CA--CB-[CG] |==|  0.52057
USER: genes 11 Torsion [CA]-CB--CG-[CD2] |==|  0.52925
USER: genes 12 Torsion [CE1]-CZ--OH-[HH] |==|  0.77741
USER: genes 13 Torsion [N]-C--CA-[N] |==|  0.84552
USER: genes 14 Torsion [C]-CA--CB-[CG] |==|  0.64141
USER: genes 15 Torsion [CA]-CB--CG-[CD] |==|  0.21581
USER: genes 16 Torsion [CB]-CG--CD-[OE1] |==|  0.38104
USER: genes 17 Torsion [C]-CA--N-[C] |==|  0.61409
USER: genes 18 Torsion [N]-C--CA-[N] |==|  0.08432
USER: genes 19 Torsion [C]-CA--CB-[CG] |==|  0.46599
USER: genes 20 Torsion [CA]-CB--CG-[ND2] |==|  0.85332
USER: genes 21 Torsion [C]-CA--N-[C] |==|  0.16625
USER: genes 22 Torsion [N]-C--CA-[N] |==|  0.12195
USER: genes 23 Torsion [C]-CA--CB-[CG2] |==|  0.21372
USER: genes 24 Torsion [CA]-CB--OG1-[HG1] |==|  0.01024
USER: genes 25 Torsion [C]-CA--N-[H1] |==|  0.17204
ROOT
ATOM      1  C   GLU Q   3      13.463 -16.534  13.228  1.00 28.90 LIG 0.24  C 
ATOM      2 O    GLU Q   3      12.643 -16.885  14.085  1.00 28.99 LIG-0.27  OA
ATOM      3  N   PHE Q   4      13.497 -15.294  12.741  1.00 26.46 LIG-0.35  N 
ATOM      4 H    PHE Q   4      14.110 -15.022  12.202  1.00 26.46 LIG 0.16  HD
ENDROOT
BRANCH 3 5
ATOM      5  CA  PHE Q   4      12.514 -14.268  13.062  1.00 24.91 LIG 0.18  C 
BRANCH 5 6
ATOM      6  CB  PHE Q   4      13.159 -12.913  13.375  1.00 23.71 LIG 0.07  C 
BRANCH 6 7
ATOM      7  CG  PHE Q   4      14.461 -12.678  12.636  1.00 27.82 LIG-0.06  A 
ATOM      8  CD1 PHE Q   4      15.678 -12.695  13.304  1.00 28.27 LIG 0.01  A 
ATOM      9  CE1 PHE Q   4      16.874 -12.470  12.615  1.00 33.51 LIG 0.00  A 
ATOM     10  CZ  PHE Q   4      16.851 -12.271  11.246  1.00 29.48 LIG 0.00  A 
ATOM     11  CE2 PHE Q   4      15.668 -12.293  10.567  1.00 30.45 LIG 0.00  A 
ATOM     12  CD2 PHE Q   4      14.455 -12.471  11.265  1.00 30.03 LIG 0.01  A 
ENDBRANCH 6 7
ENDBRANCH 5 6
BRANCH 5 13
ATOM     13  C   PHE Q   4      11.547 -14.099  11.894  1.00 24.46 LIG 0.24  C 
ATOM     14 O    PHE Q   4      10.783 -13.134  11.821  1.00 21.72 LIG-0.27  OA
ATOM     15  N   TYR Q   5      11.583 -15.096  11.012  1.00 25.68 LIG-0.35  N 
ATOM     16 H    TYR Q   5      12.125 -15.759  11.094  1.00 25.68 LIG 0.16  HD
BRANCH 15 17
ATOM     17  CA  TYR Q   5      10.739 -15.200   9.821  1.00 24.76 LIG 0.18  C 
BRANCH 17 18
ATOM     18  C   TYR Q   5      10.943 -16.581   9.268  1.00 23.71 LIG 0.24  C 
ATOM     19  N   ALA Q   6      11.301 -17.506  10.148  1.00 23.95 LIG-0.34  N 
ATOM     20 H    ALA Q   6      11.442 -17.354  10.983  1.00 23.95 LIG 0.16  HD
ATOM     21 O    TYR Q   5      10.715 -16.837   8.081  1.00 22.91 LIG-0.27  OA
BRANCH 19 22
ATOM     22  CA  ALA Q   6      11.485 -18.885   9.740  1.00 23.91 LIG 0.18  C 
ATOM     23  CB  ALA Q   6      11.577 -19.776  10.960  1.00 25.24 LIG 0.04  C 
BRANCH 22 24
ATOM     24  C   ALA Q   6      10.419 -19.407   8.784  1.00 23.52 LIG 0.20  C 
ATOM     25 O    ALA Q   6       9.230 -19.396   9.062  1.00 23.09 LIG-0.65  OA
ATOM     26 OXT  ALA Q   6      10.781 -19.889   7.706  1.00 23.23 LIG-0.65  OA
ENDBRANCH 22 24
ENDBRANCH 19 22
ENDBRANCH 17 18
BRANCH 17 27
ATOM     27  CB  TYR Q   5      11.155 -14.137   8.777  1.00 25.21 LIG 0.07  C 
BRANCH 27 28
ATOM     28  CG  TYR Q   5      10.242 -14.024   7.566  1.00 26.66 LIG-0.06  A 
ATOM     29  CD1 TYR Q   5       9.005 -14.646   7.517  1.00 25.58 LIG 0.01  A 
ATOM     30  CE1 TYR Q   5       8.185 -14.539   6.378  1.00 26.73 LIG 0.04  A 
ATOM     31  CZ  TYR Q   5       8.608 -13.790   5.287  1.00 25.10 LIG 0.07  A 
ATOM     32  CE2 TYR Q   5       9.808 -13.140   5.329  1.00 24.98 LIG 0.04  A 
ATOM     33  CD2 TYR Q   5      10.629 -13.263   6.460  1.00 25.59 LIG 0.01  A 
BRANCH 31 34
ATOM     34 OH   TYR Q   5       7.816 -13.668   4.158  1.00 28.49 LIG-0.36  OA
ATOM     35 HH   TYR Q   5       7.897 -14.355   3.682  1.00 28.49 LIG 0.22  HD
ENDBRANCH 31 34
ENDBRANCH 27 28
ENDBRANCH 17 27
ENDBRANCH 15 17
ENDBRANCH 5 13
ENDBRANCH 3 5
BRANCH 1 36
ATOM     36  CA  GLU Q   3      14.541 -17.500  12.726  1.00 29.75 LIG 0.18  C 
BRANCH 36 37
ATOM     37  CB  GLU Q   3      15.933 -17.103  13.245  1.00 29.86 LIG 0.04  C 
BRANCH 37 38
ATOM     38  CG  GLU Q   3      17.084 -16.971  12.261  1.00 30.70 LIG 0.12  C 
BRANCH 38 39
ATOM     39  CD  GLU Q   3      17.009 -15.662  11.488  1.00 35.33 LIG 0.17  C 
ATOM     40 OE1  GLU Q   3      18.093 -15.048  11.338  1.00 35.34 LIG-0.65  OA
ATOM     41 OE2  GLU Q   3      15.894 -15.251  11.060  1.00 35.74 LIG-0.65  OA
ENDBRANCH 38 39
ENDBRANCH 37 38
ENDBRANCH 36 37
BRANCH 36 42
ATOM     42  N   GLU Q   3      14.503 -17.560  11.262  1.00 32.75 LIG-0.35  N 
ATOM     43  C   ASN Q   2      14.645 -18.715  10.607  1.00 36.04 LIG 0.24  C 
ATOM     44 O    ASN Q   2      14.855 -19.789  11.195  1.00 34.76 LIG-0.27  OA
ATOM     45 H    GLU Q   3      14.384 -16.801  10.878  1.00 32.75 LIG 0.16  HD
BRANCH 43 46
ATOM     46  CA  ASN Q   2      14.482 -18.663   9.073  1.00 38.34 LIG 0.18  C 
BRANCH 46 47
ATOM     47  CB  ASN Q   2      15.186 -19.846   8.390  1.00 38.76 LIG 0.14  C 
BRANCH 47 48
ATOM     48  CG  ASN Q   2      14.799 -19.996   6.912  1.00 42.06 LIG 0.22  C 
ATOM     49  ND2 ASN Q   2      13.502 -20.050   6.645  1.00 46.27 LIG-0.37  N 
ATOM     50 22HD ASN Q   2      12.929 -20.013   7.285  1.00 46.27 LIG 0.16  HD
ATOM     51 21HD ASN Q   2      13.233 -20.123   5.831  1.00 46.27 LIG 0.16  HD
ATOM     52 OD1  ASN Q   2      15.655 -20.046   6.026  1.00 44.45 LIG-0.27  OA
ENDBRANCH 47 48
ENDBRANCH 46 47
BRANCH 46 53
ATOM     53  N   ASN Q   2      14.882 -17.388   8.472  1.00 39.54 LIG-0.34  N 
ATOM     54  C   THR Q   1      16.099 -16.862   8.552  1.00 41.49 LIG 0.25  C 
ATOM     55 O    THR Q   1      17.062 -17.466   9.027  1.00 41.78 LIG-0.27  OA
ATOM     56 H    ASN Q   2      14.240 -17.000   8.050  1.00 39.54 LIG 0.16  HD
BRANCH 54 57
ATOM     57  CA  THR Q   1      16.275 -15.456   7.964  1.00 43.16 LIG 0.30  C 
BRANCH 57 58
ATOM     58  CB  THR Q   1      17.613 -14.802   8.394  1.00 43.89 LIG 0.15  C 
ATOM     59  CG2 THR Q   1      18.763 -15.388   7.597  1.00 45.05 LIG 0.04  C 
BRANCH 58 60
ATOM     60 OG1  THR Q   1      17.628 -13.396   8.081  1.00 46.29 LIG-0.39  OA
ATOM     61 HG1  THR Q   1      16.882 -13.171   7.764  1.00 46.29 LIG 0.21  HD
ENDBRANCH 58 60
ENDBRANCH 57 58
BRANCH 57 62
ATOM     62  N   THR Q   1      15.141 -14.552   8.353  1.00 43.28 LIG-0.06  N 
ATOM     63 H2   THR Q   1      15.254 -13.754   7.976  1.00 43.28 LIG 0.28  HD
ATOM     64 H1   THR Q   1      15.123 -14.462   9.239  1.00 43.28 LIG 0.28  HD
ATOM     65 H3   THR Q   1      14.372 -14.904   8.075  1.00 43.28 LIG 0.28  HD
ENDBRANCH 57 62
ENDBRANCH 54 57
ENDBRANCH 46 53
ENDBRANCH 43 46
ENDBRANCH 36 42
ENDBRANCH 1 36
TORSDOF 24
ENDMDL
MODEL 8
USER: ADFR SOLUTION from run 176
USER: SCORE 21.701823 LL:  -5.762 LR: -17.338 RR:   0.000 FEB: -10.178
USER: RMSD 4.819402
USER: SEED 175
USER: STATUS no improvement in best in 16 clusters for 5 generations
USER: GENES 26
USER: genes 0 Translation |==|  0.46720 0.47500 0.58292
USER: genes 1 Rotation |==|  0.48327 0.60681 0.76862 0.90762
USER: genes 2 Torsion [C]-N--CA-[CB] |==|  0.49444
USER: genes 3 Torsion [N]-CA--CB-[CG] |==|  0.52497
USER: genes 4 Torsion [CA]-CB--CG-[CD1] |==|  0.21905
USER: genes 5 Torsion [N]-CA--C-[N] |==|  0.41560
USER: genes 6 Torsion [C]-N--CA-[C] |==|  0.66152
USER: genes 7 Torsion [N]-CA--C-[N] |==|  0.35037
USER: genes 8 Torsion [C]-N--CA-[CB] |==|  0.29636
USER: genes 9 Torsion [N]-CA--C-[O] |==|  0.47740
USER: genes 10 Torsion [N]-CA--CB-[CG] |==|  0.01784
USER: genes 11 Torsion [CA]-CB--CG-[CD2] |==|  0.29549
USER: genes 12 Torsion [CE1]-CZ--OH-[HH] |==|  0.42204
USER: genes 13 Torsion [N]-C--CA-[N] |==|  0.13907
USER: genes 14 Torsion [C]-CA--CB-[CG] |==|  0.70002
USER: genes 15 Torsion [CA]-CB--CG-[CD] |==|  0.74311
USER: genes 16 Torsion [CB]-CG--CD-[OE1] |==|  0.85439
USER: genes 17 Torsion [C]-CA--N-[C] |==|  0.75927
USER: genes 18 Torsion [N]-C--CA-[N] |==|  0.42794
USER: genes 19 Torsion [C]-CA--CB-[CG] |==|  0.77914
USER: genes 20 Torsion [CA]-CB--CG-[ND2] |==|  0.18144
USER: genes 21 Torsion [C]-CA--N-[C] |==|  0.70424
USER: genes 22 Torsion [N]-C--CA-[N] |==|  0.76474
USER: genes 23 Torsion [C]-CA--CB-[CG2] |==|  0.28987
USER: genes 24 Torsion [CA]-CB--OG1-[HG1] |==|  0.67108
USER: genes 25 Torsion [C]-CA--N-[H1] |==|  0.02472
ROOT
ATOM      1  C   GLU Q   3      14.266 -14.652  16.633  1.00 28.90 LIG 0.24  C 
ATOM      2 O    GLU Q   3      13.814 -13.769  15.895  1.00 28.99 LIG-0.27  OA
ATOM      3  N   PHE Q   4      14.886 -15.731  16.154  1.00 26.46 LIG-0.35  N 
ATOM      4 H    PHE Q   4      15.269 -16.311  16.661  1.00 26.46 LIG 0.16  HD
ENDROOT
BRANCH 3 5
ATOM      5  CA  PHE Q   4      14.985 -16.048  14.735  1.00 24.91 LIG 0.18  C 
BRANCH 5 6
ATOM      6  CB  PHE Q   4      15.795 -17.323  14.474  1.00 23.71 LIG 0.07  C 
BRANCH 6 7
ATOM      7  CG  PHE Q   4      16.097 -17.557  13.008  1.00 27.82 LIG-0.06  A 
ATOM      8  CD1 PHE Q   4      17.118 -16.869  12.366  1.00 28.27 LIG 0.01  A 
ATOM      9  CE1 PHE Q   4      17.385 -17.087  11.010  1.00 33.51 LIG 0.00  A 
ATOM     10  CZ  PHE Q   4      16.654 -18.029  10.310  1.00 29.48 LIG 0.00  A 
ATOM     11  CE2 PHE Q   4      15.675 -18.745  10.935  1.00 30.45 LIG 0.00  A 
ATOM     12  CD2 PHE Q   4      15.370 -18.494  12.289  1.00 30.03 LIG 0.01  A 
ENDBRANCH 6 7
ENDBRANCH 5 6
BRANCH 5 13
ATOM     13  C   PHE Q   4      13.589 -16.218  14.147  1.00 24.46 LIG 0.24  C 
ATOM     14 O    PHE Q   4      12.656 -16.669  14.816  1.00 21.72 LIG-0.27  OA
ATOM     15  N   TYR Q   5      13.496 -15.879  12.863  1.00 25.68 LIG-0.35  N 
ATOM     16 H    TYR Q   5      14.168 -15.572  12.422  1.00 25.68 LIG 0.16  HD
BRANCH 15 17
ATOM     17  CA  TYR Q   5      12.283 -15.976  12.049  1.00 24.76 LIG 0.18  C 
BRANCH 17 18
ATOM     18  C   TYR Q   5      12.613 -16.870  10.890  1.00 23.71 LIG 0.24  C 
ATOM     19  N   ALA Q   6      11.803 -17.904  10.711  1.00 23.95 LIG-0.34  N 
ATOM     20 H    ALA Q   6      11.138 -18.095  11.223  1.00 23.95 LIG 0.16  HD
ATOM     21 O    TYR Q   5      13.541 -16.604  10.117  1.00 22.91 LIG-0.27  OA
BRANCH 19 22
ATOM     22  CA  ALA Q   6      11.995 -18.813   9.598  1.00 23.91 LIG 0.18  C 
ATOM     23  CB  ALA Q   6      12.557 -20.127  10.096  1.00 25.24 LIG 0.04  C 
BRANCH 22 24
ATOM     24  C   ALA Q   6      10.746 -19.056   8.760  1.00 23.52 LIG 0.20  C 
ATOM     25 O    ALA Q   6      10.774 -19.676   7.709  1.00 23.09 LIG-0.65  OA
ATOM     26 OXT  ALA Q   6       9.677 -18.572   9.146  1.00 23.23 LIG-0.65  OA
ENDBRANCH 22 24
ENDBRANCH 19 22
ENDBRANCH 17 18
BRANCH 17 27
ATOM     27  CB  TYR Q   5      11.865 -14.575  11.544  1.00 25.21 LIG 0.07  C 
BRANCH 27 28
ATOM     28  CG  TYR Q   5      12.846 -13.454  11.851  1.00 26.66 LIG-0.06  A 
ATOM     29  CD1 TYR Q   5      13.003 -12.944  13.131  1.00 25.58 LIG 0.01  A 
ATOM     30  CE1 TYR Q   5      13.906 -11.896  13.386  1.00 26.73 LIG 0.04  A 
ATOM     31  CZ  TYR Q   5      14.664 -11.365  12.350  1.00 25.10 LIG 0.07  A 
ATOM     32  CE2 TYR Q   5      14.550 -11.876  11.090  1.00 24.98 LIG 0.04  A 
ATOM     33  CD2 TYR Q   5      13.637 -12.911  10.836  1.00 25.59 LIG 0.01  A 
BRANCH 31 34
ATOM     34 OH   TYR Q   5      15.562 -10.336  12.580  1.00 28.49 LIG-0.36  OA
ATOM     35 HH   TYR Q   5      16.185 -10.377  12.018  1.00 28.49 LIG 0.22  HD
ENDBRANCH 31 34
ENDBRANCH 27 28
ENDBRANCH 17 27
ENDBRANCH 15 17
ENDBRANCH 5 13
ENDBRANCH 3 5
BRANCH 1 36
ATOM     36  CA  GLU Q   3      14.201 -14.517  18.157  1.00 29.75 LIG 0.18  C 
BRANCH 36 37
ATOM     37  CB  GLU Q   3      13.590 -13.169  18.574  1.00 29.86 LIG 0.04  C 
BRANCH 37 38
ATOM     38  CG  GLU Q   3      14.489 -12.099  19.173  1.00 30.70 LIG 0.12  C 
BRANCH 38 39
ATOM     39  CD  GLU Q   3      14.519 -12.183  20.692  1.00 35.33 LIG 0.17  C 
ATOM     40 OE1  GLU Q   3      13.404 -12.190  21.266  1.00 35.34 LIG-0.65  OA
ATOM     41 OE2  GLU Q   3      15.629 -12.222  21.295  1.00 35.74 LIG-0.65  OA
ENDBRANCH 38 39
ENDBRANCH 37 38
ENDBRANCH 36 37
BRANCH 36 42
ATOM     42  N   GLU Q   3      15.539 -14.707  18.725  1.00 32.75 LIG-0.35  N 
ATOM     43  C   ASN Q   2      16.005 -15.923  19.025  1.00 36.04 LIG 0.24  C 
ATOM     44 O    ASN Q   2      15.320 -16.949  18.877  1.00 34.76 LIG-0.27  OA
ATOM     45 H    GLU Q   3      15.982 -13.980  18.842  1.00 32.75 LIG 0.16  HD
BRANCH 43 46
ATOM     46  CA  ASN Q   2      17.465 -16.000  19.517  1.00 38.34 LIG 0.18  C 
BRANCH 46 47
ATOM     47  CB  ASN Q   2      18.459 -15.912  18.347  1.00 38.76 LIG 0.14  C 
BRANCH 47 48
ATOM     48  CG  ASN Q   2      18.618 -17.243  17.601  1.00 42.06 LIG 0.22  C 
ATOM     49  ND2 ASN Q   2      17.548 -17.690  16.958  1.00 46.27 LIG-0.37  N 
ATOM     50 22HD ASN Q   2      16.813 -17.244  16.984  1.00 46.27 LIG 0.16  HD
ATOM     51 21HD ASN Q   2      17.588 -18.426  16.515  1.00 46.27 LIG 0.16  HD
ATOM     52 OD1  ASN Q   2      19.691 -17.851  17.590  1.00 44.45 LIG-0.27  OA
ENDBRANCH 47 48
ENDBRANCH 46 47
BRANCH 46 53
ATOM     53  N   ASN Q   2      17.750 -17.156  20.370  1.00 39.54 LIG-0.34  N 
ATOM     54  C   THR Q   1      17.935 -17.100  21.684  1.00 41.49 LIG 0.25  C 
ATOM     55 O    THR Q   1      17.747 -16.078  22.346  1.00 41.78 LIG-0.27  OA
ATOM     56 H    ASN Q   2      17.787 -17.895  19.932  1.00 39.54 LIG 0.16  HD
BRANCH 54 57
ATOM     57  CA  THR Q   1      18.351 -18.408  22.372  1.00 43.16 LIG 0.30  C 
BRANCH 57 58
ATOM     58  CB  THR Q   1      19.335 -19.238  21.508  1.00 43.89 LIG 0.15  C 
ATOM     59  CG2 THR Q   1      20.743 -19.118  22.057  1.00 45.05 LIG 0.04  C 
BRANCH 58 60
ATOM     60 OG1  THR Q   1      19.030 -20.644  21.582  1.00 46.29 LIG-0.39  OA
ATOM     61 HG1  THR Q   1      19.684 -21.056  21.912  1.00 46.29 LIG 0.21  HD
ENDBRANCH 58 60
ENDBRANCH 57 58
BRANCH 57 62
ATOM     62  N   THR Q   1      17.157 -19.255  22.706  1.00 43.28 LIG-0.06  N 
ATOM     63 H2   THR Q   1      17.282 -20.080  22.397  1.00 43.28 LIG 0.28  HD
ATOM     64 H1   THR Q   1      16.430 -18.905  22.329  1.00 43.28 LIG 0.28  HD
ATOM     65 H3   THR Q   1      17.050 -19.283  23.589  1.00 43.28 LIG 0.28  HD
ENDBRANCH 57 62
ENDBRANCH 54 57
ENDBRANCH 46 53
ENDBRANCH 43 46
ENDBRANCH 36 42
ENDBRANCH 1 36
TORSDOF 24
ENDMDL
MODEL 9
USER: ADFR SOLUTION from run 98
USER: SCORE 20.367649 LL:  -4.641 LR: -17.198 RR:   0.000 FEB: -10.039
USER: RMSD 11.784807
USER: SEED 97
USER: STATUS no improvement in best in 1 clusters for 5 generations
USER: GENES 26
USER: genes 0 Translation |==|  0.36684 0.37053 0.39723
USER: genes 1 Rotation |==|  0.87556 0.21696 0.60364 0.63454
USER: genes 2 Torsion [C]-N--CA-[CB] |==|  0.76375
USER: genes 3 Torsion [N]-CA--CB-[CG] |==|  0.55609
USER: genes 4 Torsion [CA]-CB--CG-[CD1] |==|  0.71927
USER: genes 5 Torsion [N]-CA--C-[N] |==|  0.24807
USER: genes 6 Torsion [C]-N--CA-[C] |==|  0.78081
USER: genes 7 Torsion [N]-CA--C-[N] |==|  0.37214
USER: genes 8 Torsion [C]-N--CA-[CB] |==|  0.82856
USER: genes 9 Torsion [N]-CA--C-[O] |==|  0.56446
USER: genes 10 Torsion [N]-CA--CB-[CG] |==|  0.28934
USER: genes 11 Torsion [CA]-CB--CG-[CD2] |==|  0.25743
USER: genes 12 Torsion [CE1]-CZ--OH-[HH] |==|  0.95589
USER: genes 13 Torsion [N]-C--CA-[N] |==|  0.93171
USER: genes 14 Torsion [C]-CA--CB-[CG] |==|  0.38170
USER: genes 15 Torsion [CA]-CB--CG-[CD] |==|  0.12284
USER: genes 16 Torsion [CB]-CG--CD-[OE1] |==|  0.80332
USER: genes 17 Torsion [C]-CA--N-[C] |==|  0.77083
USER: genes 18 Torsion [N]-C--CA-[N] |==|  0.33430
USER: genes 19 Torsion [C]-CA--CB-[CG] |==|  0.22224
USER: genes 20 Torsion [CA]-CB--CG-[ND2] |==|  0.16866
USER: genes 21 Torsion [C]-CA--N-[C] |==|  0.47778
USER: genes 22 Torsion [N]-C--CA-[N] |==|  0.70099
USER: genes 23 Torsion [C]-CA--CB-[CG2] |==|  0.16921
USER: genes 24 Torsion [CA]-CB--OG1-[HG1] |==|  0.18618
USER: genes 25 Torsion [C]-CA--N-[H1] |==|  0.72448
ROOT
ATOM      1  C   GLU Q   3      12.309 -16.768  11.758  1.00 28.90 LIG 0.24  C 
ATOM      2 O    GLU Q   3      11.930 -17.210  12.849  1.00 28.99 LIG-0.27  OA
ATOM      3  N   PHE Q   4      13.206 -15.786  11.662  1.00 26.46 LIG-0.35  N 
ATOM      4 H    PHE Q   4      13.531 -15.524  10.909  1.00 26.46 LIG 0.16  HD
ENDROOT
BRANCH 3 5
ATOM      5  CA  PHE Q   4      13.732 -15.051  12.805  1.00 24.91 LIG 0.18  C 
BRANCH 5 6
ATOM      6  CB  PHE Q   4      12.831 -13.882  13.216  1.00 23.71 LIG 0.07  C 
BRANCH 6 7
ATOM      7  CG  PHE Q   4      13.544 -12.831  14.043  1.00 27.82 LIG-0.06  A 
ATOM      8  CD1 PHE Q   4      13.395 -12.782  15.423  1.00 28.27 LIG 0.01  A 
ATOM      9  CE1 PHE Q   4      14.051 -11.804  16.178  1.00 33.51 LIG 0.00  A 
ATOM     10  CZ  PHE Q   4      14.891 -10.902  15.551  1.00 29.48 LIG 0.00  A 
ATOM     11  CE2 PHE Q   4      15.082 -10.962  14.201  1.00 30.45 LIG 0.00  A 
ATOM     12  CD2 PHE Q   4      14.385 -11.915  13.430  1.00 30.03 LIG 0.01  A 
ENDBRANCH 6 7
ENDBRANCH 5 6
BRANCH 5 13
ATOM     13  C   PHE Q   4      13.895 -15.995  13.992  1.00 24.46 LIG 0.24  C 
ATOM     14 O    PHE Q   4      13.003 -16.137  14.831  1.00 21.72 LIG-0.27  OA
ATOM     15  N   TYR Q   5      15.081 -16.596  14.048  1.00 25.68 LIG-0.35  N 
ATOM     16 H    TYR Q   5      15.685 -16.472  13.448  1.00 25.68 LIG 0.16  HD
BRANCH 15 17
ATOM     17  CA  TYR Q   5      15.509 -17.522  15.098  1.00 24.76 LIG 0.18  C 
BRANCH 17 18
ATOM     18  C   TYR Q   5      15.904 -16.681  16.277  1.00 23.71 LIG 0.24  C 
ATOM     19  N   ALA Q   6      15.438 -17.081  17.451  1.00 23.95 LIG-0.34  N 
ATOM     20 H    ALA Q   6      14.918 -17.758  17.563  1.00 23.95 LIG 0.16  HD
ATOM     21 O    TYR Q   5      16.676 -15.724  16.153  1.00 22.91 LIG-0.27  OA
BRANCH 19 22
ATOM     22  CA  ALA Q   6      15.788 -16.374  18.669  1.00 23.91 LIG 0.18  C 
ATOM     23  CB  ALA Q   6      17.285 -16.434  18.886  1.00 25.24 LIG 0.04  C 
BRANCH 22 24
ATOM     24  C   ALA Q   6      15.303 -14.931  18.720  1.00 23.52 LIG 0.20  C 
ATOM     25 O    ALA Q   6      15.831 -14.089  19.430  1.00 23.09 LIG-0.65  OA
ATOM     26 OXT  ALA Q   6      14.317 -14.618  18.045  1.00 23.23 LIG-0.65  OA
ENDBRANCH 22 24
ENDBRANCH 19 22
ENDBRANCH 17 18
BRANCH 17 27
ATOM     27  CB  TYR Q   5      16.713 -18.363  14.611  1.00 25.21 LIG 0.07  C 
BRANCH 27 28
ATOM     28  CG  TYR Q   5      18.064 -17.952  15.175  1.00 26.66 LIG-0.06  A 
ATOM     29  CD1 TYR Q   5      18.837 -16.964  14.585  1.00 25.58 LIG 0.01  A 
ATOM     30  CE1 TYR Q   5      20.092 -16.613  15.118  1.00 26.73 LIG 0.04  A 
ATOM     31  CZ  TYR Q   5      20.564 -17.250  16.258  1.00 25.10 LIG 0.07  A 
ATOM     32  CE2 TYR Q   5      19.803 -18.200  16.874  1.00 24.98 LIG 0.04  A 
ATOM     33  CD2 TYR Q   5      18.560 -18.559  16.331  1.00 25.59 LIG 0.01  A 
BRANCH 31 34
ATOM     34 OH   TYR Q   5      21.794 -16.917  16.801  1.00 28.49 LIG-0.36  OA
ATOM     35 HH   TYR Q   5      22.242 -16.483  16.238  1.00 28.49 LIG 0.22  HD
ENDBRANCH 31 34
ENDBRANCH 27 28
ENDBRANCH 17 27
ENDBRANCH 15 17
ENDBRANCH 5 13
ENDBRANCH 3 5
BRANCH 1 36
ATOM     36  CA  GLU Q   3      11.817 -17.381  10.443  1.00 29.75 LIG 0.18  C 
BRANCH 36 37
ATOM     37  CB  GLU Q   3      12.540 -18.703  10.137  1.00 29.86 LIG 0.04  C 
BRANCH 37 38
ATOM     38  CG  GLU Q   3      11.740 -19.884   9.613  1.00 30.70 LIG 0.12  C 
BRANCH 38 39
ATOM     39  CD  GLU Q   3      10.760 -19.457   8.530  1.00 35.33 LIG 0.17  C 
ATOM     40 OE1  GLU Q   3       9.777 -18.778   8.913  1.00 35.34 LIG-0.65  OA
ATOM     41 OE2  GLU Q   3      10.958 -19.809   7.333  1.00 35.74 LIG-0.65  OA
ENDBRANCH 38 39
ENDBRANCH 37 38
ENDBRANCH 36 37
BRANCH 36 42
ATOM     42  N   GLU Q   3      11.977 -16.409   9.358  1.00 32.75 LIG-0.35  N 
ATOM     43  C   ASN Q   2      11.073 -15.450   9.140  1.00 36.04 LIG 0.24  C 
ATOM     44 O    ASN Q   2      10.035 -15.354   9.815  1.00 34.76 LIG-0.27  OA
ATOM     45 H    GLU Q   3      12.690 -16.513   8.889  1.00 32.75 LIG 0.16  HD
BRANCH 43 46
ATOM     46  CA  ASN Q   2      11.407 -14.426   8.035  1.00 38.34 LIG 0.18  C 
BRANCH 46 47
ATOM     47  CB  ASN Q   2      11.653 -13.026   8.621  1.00 38.76 LIG 0.14  C 
BRANCH 47 48
ATOM     48  CG  ASN Q   2      13.062 -12.867   9.209  1.00 42.06 LIG 0.22  C 
ATOM     49  ND2 ASN Q   2      14.074 -13.030   8.368  1.00 46.27 LIG-0.37  N 
ATOM     50 22HD ASN Q   2      13.922 -13.226   7.545  1.00 46.27 LIG 0.16  HD
ATOM     51 21HD ASN Q   2      14.883 -12.941   8.646  1.00 46.27 LIG 0.16  HD
ATOM     52 OD1  ASN Q   2      13.235 -12.587  10.398  1.00 44.45 LIG-0.27  OA
ENDBRANCH 47 48
ENDBRANCH 46 47
BRANCH 46 53
ATOM     53  N   ASN Q   2      10.429 -14.381   6.945  1.00 39.54 LIG-0.34  N 
ATOM     54  C   THR Q   1      10.426 -13.480   5.969  1.00 41.49 LIG 0.25  C 
ATOM     55 O    THR Q   1      11.335 -12.666   5.802  1.00 41.78 LIG-0.27  OA
ATOM     56 H    ASN Q   2       9.842 -15.007   6.995  1.00 39.54 LIG 0.16  HD
BRANCH 54 57
ATOM     57  CA  THR Q   1       9.238 -13.531   4.998  1.00 43.16 LIG 0.30  C 
BRANCH 57 58
ATOM     58  CB  THR Q   1       8.068 -14.387   5.545  1.00 43.89 LIG 0.15  C 
ATOM     59  CG2 THR Q   1       7.551 -13.800   6.844  1.00 45.05 LIG 0.04  C 
BRANCH 58 60
ATOM     60 OG1  THR Q   1       6.938 -14.353   4.652  1.00 46.29 LIG-0.39  OA
ATOM     61 HG1  THR Q   1       7.136 -14.743   3.934  1.00 46.29 LIG 0.21  HD
ENDBRANCH 58 60
ENDBRANCH 57 58
BRANCH 57 62
ATOM     62  N   THR Q   1       9.650 -14.063   3.656  1.00 43.28 LIG-0.06  N 
ATOM     63 H2   THR Q   1      10.405 -14.527   3.739  1.00 43.28 LIG 0.28  HD
ATOM     64 H1   THR Q   1       9.779 -13.385   3.094  1.00 43.28 LIG 0.28  HD
ATOM     65 H3   THR Q   1       9.010 -14.594   3.338  1.00 43.28 LIG 0.28  HD
ENDBRANCH 57 62
ENDBRANCH 54 57
ENDBRANCH 46 53
ENDBRANCH 43 46
ENDBRANCH 36 42
ENDBRANCH 1 36
TORSDOF 24
ENDMDL
MODEL 10
USER: ADFR SOLUTION from run 113
USER: SCORE 20.265384 LL:  -5.667 LR: -17.203 RR:   0.000 FEB: -10.044
USER: RMSD 11.095929
USER: SEED 112
USER: STATUS no improvement in best in 6 clusters for 5 generations
USER: GENES 26
USER: genes 0 Translation |==|  0.29212 0.33328 0.28583
USER: genes 1 Rotation |==|  0.73165 0.28717 0.88193 0.57190
USER: genes 2 Torsion [C]-N--CA-[CB] |==|  0.93136
USER: genes 3 Torsion [N]-CA--CB-[CG] |==|  0.73517
USER: genes 4 Torsion [CA]-CB--CG-[CD1] |==|  0.91286
USER: genes 5 Torsion [N]-CA--C-[N] |==|  0.07060
USER: genes 6 Torsion [C]-N--CA-[C] |==|  0.68894
USER: genes 7 Torsion [N]-CA--C-[N] |==|  0.33206
USER: genes 8 Torsion [C]-N--CA-[CB] |==|  0.23760
USER: genes 9 Torsion [N]-CA--C-[O] |==|  0.11353
USER: genes 10 Torsion [N]-CA--CB-[CG] |==|  0.42919
USER: genes 11 Torsion [CA]-CB--CG-[CD2] |==|  0.11234
USER: genes 12 Torsion [CE1]-CZ--OH-[HH] |==|  0.79204
USER: genes 13 Torsion [N]-C--CA-[N] |==|  0.06165
USER: genes 14 Torsion [C]-CA--CB-[CG] |==|  0.46594
USER: genes 15 Torsion [CA]-CB--CG-[CD] |==|  0.90445
USER: genes 16 Torsion [CB]-CG--CD-[OE1] |==|  0.90124
USER: genes 17 Torsion [C]-CA--N-[C] |==|  0.18096
USER: genes 18 Torsion [N]-C--CA-[N] |==|  0.19512
USER: genes 19 Torsion [C]-CA--CB-[CG] |==|  0.56531
USER: genes 20 Torsion [CA]-CB--CG-[ND2] |==|  0.31841
USER: genes 21 Torsion [C]-CA--N-[C] |==|  0.68571
USER: genes 22 Torsion [N]-C--CA-[N] |==|  0.68764
USER: genes 23 Torsion [C]-CA--CB-[CG2] |==|  0.20811
USER: genes 24 Torsion [CA]-CB--OG1-[HG1] |==|  0.24589
USER: genes 25 Torsion [C]-CA--N-[H1] |==|  0.30087
ROOT
ATOM      1  C   GLU Q   3      10.852 -17.522   8.834  1.00 28.90 LIG 0.24  C 
ATOM      2 O    GLU Q   3       9.655 -17.625   9.127  1.00 28.99 LIG-0.27  OA
ATOM      3  N   PHE Q   4      11.487 -16.350   8.835  1.00 26.46 LIG-0.35  N 
ATOM      4 H    PHE Q   4      12.334 -16.279   8.706  1.00 26.46 LIG 0.16  HD
ENDROOT
BRANCH 3 5
ATOM      5  CA  PHE Q   4      10.827 -15.069   9.051  1.00 24.91 LIG 0.18  C 
BRANCH 5 6
ATOM      6  CB  PHE Q   4       9.339 -15.106   8.683  1.00 23.71 LIG 0.07  C 
BRANCH 6 7
ATOM      7  CG  PHE Q   4       9.052 -14.618   7.277  1.00 27.82 LIG-0.06  A 
ATOM      8  CD1 PHE Q   4       9.839 -13.641   6.682  1.00 28.27 LIG 0.01  A 
ATOM      9  CE1 PHE Q   4       9.562 -13.191   5.387  1.00 33.51 LIG 0.00  A 
ATOM     10  CZ  PHE Q   4       8.519 -13.754   4.673  1.00 29.48 LIG 0.00  A 
ATOM     11  CE2 PHE Q   4       7.761 -14.744   5.227  1.00 30.45 LIG 0.00  A 
ATOM     12  CD2 PHE Q   4       8.007 -15.167   6.550  1.00 30.03 LIG 0.01  A 
ENDBRANCH 6 7
ENDBRANCH 5 6
BRANCH 5 13
ATOM     13  C   PHE Q   4      10.966 -14.659  10.513  1.00 24.46 LIG 0.24  C 
ATOM     14 O    PHE Q   4      10.174 -13.876  11.043  1.00 21.72 LIG-0.27  OA
ATOM     15  N   TYR Q   5      12.026 -15.184  11.125  1.00 25.68 LIG-0.35  N 
ATOM     16 H    TYR Q   5      12.563 -15.723  10.725  1.00 25.68 LIG 0.16  HD
BRANCH 15 17
ATOM     17  CA  TYR Q   5      12.411 -14.928  12.514  1.00 24.76 LIG 0.18  C 
BRANCH 17 18
ATOM     18  C   TYR Q   5      13.690 -14.145  12.468  1.00 23.71 LIG 0.24  C 
ATOM     19  N   ALA Q   6      13.649 -12.944  13.027  1.00 23.95 LIG-0.34  N 
ATOM     20 H    ALA Q   6      12.946 -12.594  13.377  1.00 23.95 LIG 0.16  HD
ATOM     21 O    TYR Q   5      14.725 -14.633  12.002  1.00 22.91 LIG-0.27  OA
BRANCH 19 22
ATOM     22  CA  ALA Q   6      14.836 -12.111  13.083  1.00 23.91 LIG 0.18  C 
ATOM     23  CB  ALA Q   6      14.974 -11.323  11.798  1.00 25.24 LIG 0.04  C 
BRANCH 22 24
ATOM     24  C   ALA Q   6      14.893 -11.176  14.285  1.00 23.52 LIG 0.20  C 
ATOM     25 O    ALA Q   6      14.549 -11.527  15.402  1.00 23.09 LIG-0.65  OA
ATOM     26 OXT  ALA Q   6      15.268 -10.013  14.107  1.00 23.23 LIG-0.65  OA
ENDBRANCH 22 24
ENDBRANCH 19 22
ENDBRANCH 17 18
BRANCH 17 27
ATOM     27  CB  TYR Q   5      12.626 -16.265  13.263  1.00 25.21 LIG 0.07  C 
BRANCH 27 28
ATOM     28  CG  TYR Q   5      13.571 -16.198  14.453  1.00 26.66 LIG-0.06  A 
ATOM     29  CD1 TYR Q   5      14.502 -17.193  14.710  1.00 25.58 LIG 0.01  A 
ATOM     30  CE1 TYR Q   5      15.354 -17.116  15.827  1.00 26.73 LIG 0.04  A 
ATOM     31  CZ  TYR Q   5      15.279 -16.024  16.682  1.00 25.10 LIG 0.07  A 
ATOM     32  CE2 TYR Q   5      14.394 -15.016  16.427  1.00 24.98 LIG 0.04  A 
ATOM     33  CD2 TYR Q   5      13.535 -15.105  15.322  1.00 25.59 LIG 0.01  A 
BRANCH 31 34
ATOM     34 OH   TYR Q   5      16.111 -15.925  17.785  1.00 28.49 LIG-0.36  OA
ATOM     35 HH   TYR Q   5      15.849 -16.454  18.383  1.00 28.49 LIG 0.22  HD
ENDBRANCH 31 34
ENDBRANCH 27 28
ENDBRANCH 17 27
ENDBRANCH 15 17
ENDBRANCH 5 13
ENDBRANCH 3 5
BRANCH 1 36
ATOM     36  CA  GLU Q   3      11.697 -18.761   8.521  1.00 29.75 LIG 0.18  C 
BRANCH 36 37
ATOM     37  CB  GLU Q   3      11.200 -19.989   9.299  1.00 29.86 LIG 0.04  C 
BRANCH 37 38
ATOM     38  CG  GLU Q   3      11.717 -21.368   8.922  1.00 30.70 LIG 0.12  C 
BRANCH 38 39
ATOM     39  CD  GLU Q   3      11.960 -21.482   7.424  1.00 35.33 LIG 0.17  C 
ATOM     40 OE1  GLU Q   3      11.155 -20.865   6.687  1.00 35.34 LIG-0.65  OA
ATOM     41 OE2  GLU Q   3      12.918 -22.186   6.997  1.00 35.74 LIG-0.65  OA
ENDBRANCH 38 39
ENDBRANCH 37 38
ENDBRANCH 36 37
BRANCH 36 42
ATOM     42  N   GLU Q   3      13.108 -18.475   8.798  1.00 32.75 LIG-0.35  N 
ATOM     43  C   ASN Q   2      13.540 -18.226  10.037  1.00 36.04 LIG 0.24  C 
ATOM     44 O    ASN Q   2      12.770 -18.183  11.010  1.00 34.76 LIG-0.27  OA
ATOM     45 H    GLU Q   3      13.616 -18.484   8.104  1.00 32.75 LIG 0.16  HD
BRANCH 43 46
ATOM     46  CA  ASN Q   2      15.063 -18.043  10.212  1.00 38.34 LIG 0.18  C 
BRANCH 46 47
ATOM     47  CB  ASN Q   2      15.482 -18.191  11.684  1.00 38.76 LIG 0.14  C 
BRANCH 47 48
ATOM     48  CG  ASN Q   2      16.805 -17.480  12.000  1.00 42.06 LIG 0.22  C 
ATOM     49  ND2 ASN Q   2      16.738 -16.454  12.837  1.00 46.27 LIG-0.37  N 
ATOM     50 22HD ASN Q   2      15.979 -16.213  13.162  1.00 46.27 LIG 0.16  HD
ATOM     51 21HD ASN Q   2      17.453 -16.029  13.054  1.00 46.27 LIG 0.16  HD
ATOM     52 OD1  ASN Q   2      17.872 -17.859  11.509  1.00 44.45 LIG-0.27  OA
ENDBRANCH 47 48
ENDBRANCH 46 47
BRANCH 46 53
ATOM     53  N   ASN Q   2      15.589 -16.805   9.632  1.00 39.54 LIG-0.34  N 
ATOM     54  C   THR Q   1      16.412 -16.748   8.591  1.00 41.49 LIG 0.25  C 
ATOM     55 O    THR Q   1      16.710 -17.733   7.915  1.00 41.78 LIG-0.27  OA
ATOM     56 H    ASN Q   2      15.309 -16.100  10.036  1.00 39.54 LIG 0.16  HD
BRANCH 54 57
ATOM     57  CA  THR Q   1      16.949 -15.358   8.222  1.00 43.16 LIG 0.30  C 
BRANCH 57 58
ATOM     58  CB  THR Q   1      16.620 -14.295   9.301  1.00 43.89 LIG 0.15  C 
ATOM     59  CG2 THR Q   1      17.518 -14.480  10.509  1.00 45.05 LIG 0.04  C 
BRANCH 58 60
ATOM     60 OG1  THR Q   1      16.911 -12.967   8.826  1.00 46.29 LIG-0.39  OA
ATOM     61 HG1  THR Q   1      16.238 -12.655   8.432  1.00 46.29 LIG 0.21  HD
ENDBRANCH 58 60
ENDBRANCH 57 58
BRANCH 57 62
ATOM     62  N   THR Q   1      16.409 -14.896   6.899  1.00 43.28 LIG-0.06  N 
ATOM     63 H2   THR Q   1      17.078 -14.595   6.394  1.00 43.28 LIG 0.28  HD
ATOM     64 H1   THR Q   1      15.819 -14.242   7.030  1.00 43.28 LIG 0.28  HD
ATOM     65 H3   THR Q   1      16.011 -15.577   6.486  1.00 43.28 LIG 0.28  HD
ENDBRANCH 57 62
ENDBRANCH 54 57
ENDBRANCH 46 53
ENDBRANCH 43 46
ENDBRANCH 36 42
ENDBRANCH 1 36
TORSDOF 24
ENDMDL
MODEL 11
USER: ADFR SOLUTION from run 73
USER: SCORE 20.563973 LL:  -5.182 LR: -17.168 RR:   0.000 FEB: -10.009
USER: RMSD 3.640111
USER: SEED 72
USER: STATUS no improvement in best in 5 clusters for 5 generations
USER: GENES 26
USER: genes 0 Translation |==|  0.44342 0.45796 0.56218
USER: genes 1 Rotation |==|  0.40969 0.76104 0.90621 0.59323
USER: genes 2 Torsion [C]-N--CA-[CB] |==|  0.76873
USER: genes 3 Torsion [N]-CA--CB-[CG] |==|  0.92018
USER: genes 4 Torsion [CA]-CB--CG-[CD1] |==|  0.74179
USER: genes 5 Torsion [N]-CA--C-[N] |==|  0.28077
USER: genes 6 Torsion [C]-N--CA-[C] |==|  0.73610
USER: genes 7 Torsion [N]-CA--C-[N] |==|  0.33338
USER: genes 8 Torsion [C]-N--CA-[CB] |==|  0.35899
USER: genes 9 Torsion [N]-CA--C-[O] |==|  0.41854
USER: genes 10 Torsion [N]-CA--CB-[CG] |==|  0.47211
USER: genes 11 Torsion [CA]-CB--CG-[CD2] |==|  0.11929
USER: genes 12 Torsion [CE1]-CZ--OH-[HH] |==|  0.81242
USER: genes 13 Torsion [N]-C--CA-[N] |==|  0.16187
USER: genes 14 Torsion [C]-CA--CB-[CG] |==|  0.58488
USER: genes 15 Torsion [CA]-CB--CG-[CD] |==|  0.86920
USER: genes 16 Torsion [CB]-CG--CD-[OE1] |==|  0.81104
USER: genes 17 Torsion [C]-CA--N-[C] |==|  0.75966
USER: genes 18 Torsion [N]-C--CA-[N] |==|  0.21334
USER: genes 19 Torsion [C]-CA--CB-[CG] |==|  0.36169
USER: genes 20 Torsion [CA]-CB--CG-[ND2] |==|  0.43367
USER: genes 21 Torsion [C]-CA--N-[C] |==|  0.49444
USER: genes 22 Torsion [N]-C--CA-[N] |==|  0.79218
USER: genes 23 Torsion [C]-CA--CB-[CG2] |==|  0.39752
USER: genes 24 Torsion [CA]-CB--OG1-[HG1] |==|  0.17621
USER: genes 25 Torsion [C]-CA--N-[H1] |==|  0.66625
ROOT
ATOM      1  C   GLU Q   3      13.803 -14.997  16.088  1.00 28.90 LIG 0.24  C 
ATOM      2 O    GLU Q   3      12.767 -15.655  15.937  1.00 28.99 LIG-0.27  OA
ATOM      3  N   PHE Q   4      14.859 -15.140  15.288  1.00 26.46 LIG-0.35  N 
ATOM      4 H    PHE Q   4      15.554 -14.635  15.339  1.00 26.46 LIG 0.16  HD
ENDROOT
BRANCH 3 5
ATOM      5  CA  PHE Q   4      14.959 -16.156  14.248  1.00 24.91 LIG 0.18  C 
BRANCH 5 6
ATOM      6  CB  PHE Q   4      15.427 -17.510  14.793  1.00 23.71 LIG 0.07  C 
BRANCH 6 7
ATOM      7  CG  PHE Q   4      16.311 -17.396  16.019  1.00 27.82 LIG-0.06  A 
ATOM      8  CD1 PHE Q   4      17.694 -17.351  15.905  1.00 28.27 LIG 0.01  A 
ATOM      9  CE1 PHE Q   4      18.502 -17.253  17.043  1.00 33.51 LIG 0.00  A 
ATOM     10  CZ  PHE Q   4      17.918 -17.156  18.293  1.00 29.48 LIG 0.00  A 
ATOM     11  CE2 PHE Q   4      16.560 -17.156  18.420  1.00 30.45 LIG 0.00  A 
ATOM     12  CD2 PHE Q   4      15.742 -17.304  17.280  1.00 30.03 LIG 0.01  A 
ENDBRANCH 6 7
ENDBRANCH 5 6
BRANCH 5 13
ATOM     13  C   PHE Q   4      13.604 -16.334  13.572  1.00 24.46 LIG 0.24  C 
ATOM     14 O    PHE Q   4      12.717 -17.027  14.075  1.00 21.72 LIG-0.27  OA
ATOM     15  N   TYR Q   5      13.500 -15.718  12.396  1.00 25.68 LIG-0.35  N 
ATOM     16 H    TYR Q   5      14.140 -15.247  12.069  1.00 25.68 LIG 0.16  HD
BRANCH 15 17
ATOM     17  CA  TYR Q   5      12.324 -15.755  11.526  1.00 24.76 LIG 0.18  C 
BRANCH 17 18
ATOM     18  C   TYR Q   5      12.558 -16.855  10.532  1.00 23.71 LIG 0.24  C 
ATOM     19  N   ALA Q   6      11.666 -17.836  10.538  1.00 23.95 LIG-0.34  N 
ATOM     20 H    ALA Q   6      11.000 -17.884  11.081  1.00 23.95 LIG 0.16  HD
ATOM     21 O    TYR Q   5      13.486 -16.798   9.717  1.00 22.91 LIG-0.27  OA
BRANCH 19 22
ATOM     22  CA  ALA Q   6      11.763 -18.932   9.593  1.00 23.91 LIG 0.18  C 
ATOM     23  CB  ALA Q   6      11.680 -20.254  10.327  1.00 25.24 LIG 0.04  C 
BRANCH 22 24
ATOM     24  C   ALA Q   6      10.736 -18.887   8.468  1.00 23.52 LIG 0.20  C 
ATOM     25 O    ALA Q   6      10.957 -19.355   7.363  1.00 23.09 LIG-0.65  OA
ATOM     26 OXT  ALA Q   6       9.658 -18.321   8.679  1.00 23.23 LIG-0.65  OA
ENDBRANCH 22 24
ENDBRANCH 19 22
ENDBRANCH 17 18
BRANCH 17 27
ATOM     27  CB  TYR Q   5      12.156 -14.400  10.797  1.00 25.21 LIG 0.07  C 
BRANCH 27 28
ATOM     28  CG  TYR Q   5      11.116 -14.384   9.687  1.00 26.66 LIG-0.06  A 
ATOM     29  CD1 TYR Q   5      11.355 -13.775   8.465  1.00 25.58 LIG 0.01  A 
ATOM     30  CE1 TYR Q   5      10.370 -13.760   7.460  1.00 26.73 LIG 0.04  A 
ATOM     31  CZ  TYR Q   5       9.143 -14.371   7.681  1.00 25.10 LIG 0.07  A 
ATOM     32  CE2 TYR Q   5       8.900 -15.006   8.865  1.00 24.98 LIG 0.04  A 
ATOM     33  CD2 TYR Q   5       9.879 -15.005   9.871  1.00 25.59 LIG 0.01  A 
BRANCH 31 34
ATOM     34 OH   TYR Q   5       8.161 -14.371   6.705  1.00 28.49 LIG-0.36  OA
ATOM     35 HH   TYR Q   5       7.880 -13.588   6.589  1.00 28.49 LIG 0.22  HD
ENDBRANCH 31 34
ENDBRANCH 27 28
ENDBRANCH 17 27
ENDBRANCH 15 17
ENDBRANCH 5 13
ENDBRANCH 3 5
BRANCH 1 36
ATOM     36  CA  GLU Q   3      13.901 -13.919  17.172  1.00 29.75 LIG 0.18  C 
BRANCH 36 37
ATOM     37  CB  GLU Q   3      12.646 -13.900  18.059  1.00 29.86 LIG 0.04  C 
BRANCH 37 38
ATOM     38  CG  GLU Q   3      12.195 -12.589  18.681  1.00 30.70 LIG 0.12  C 
BRANCH 38 39
ATOM     39  CD  GLU Q   3      13.357 -11.848  19.326  1.00 35.33 LIG 0.17  C 
ATOM     40 OE1  GLU Q   3      13.853 -12.382  20.346  1.00 35.34 LIG-0.65  OA
ATOM     41 OE2  GLU Q   3      13.751 -10.752  18.835  1.00 35.74 LIG-0.65  OA
ENDBRANCH 38 39
ENDBRANCH 37 38
ENDBRANCH 36 37
BRANCH 36 42
ATOM     42  N   GLU Q   3      14.145 -12.615  16.546  1.00 32.75 LIG-0.35  N 
ATOM     43  C   ASN Q   2      15.381 -12.199  16.257  1.00 36.04 LIG 0.24  C 
ATOM     44 O    ASN Q   2      16.388 -12.871  16.536  1.00 34.76 LIG-0.27  OA
ATOM     45 H    GLU Q   3      13.435 -12.159  16.387  1.00 32.75 LIG 0.16  HD
BRANCH 43 46
ATOM     46  CA  ASN Q   2      15.498 -10.857  15.505  1.00 38.34 LIG 0.18  C 
BRANCH 46 47
ATOM     47  CB  ASN Q   2      16.821 -10.761  14.727  1.00 38.76 LIG 0.14  C 
BRANCH 47 48
ATOM     48  CG  ASN Q   2      16.621 -10.334  13.266  1.00 42.06 LIG 0.22  C 
ATOM     49  ND2 ASN Q   2      17.659  -9.762  12.672  1.00 46.27 LIG-0.37  N 
ATOM     50 22HD ASN Q   2      18.390  -9.639  13.107  1.00 46.27 LIG 0.16  HD
ATOM     51 21HD ASN Q   2      17.602  -9.515  11.850  1.00 46.27 LIG 0.16  HD
ATOM     52 OD1  ASN Q   2      15.554 -10.530  12.678  1.00 44.45 LIG-0.27  OA
ENDBRANCH 47 48
ENDBRANCH 46 47
BRANCH 46 53
ATOM     53  N   ASN Q   2      15.292  -9.677  16.350  1.00 39.54 LIG-0.34  N 
ATOM     54  C   THR Q   1      15.383  -8.420  15.929  1.00 41.49 LIG 0.25  C 
ATOM     55 O    THR Q   1      15.514  -8.116  14.743  1.00 41.78 LIG-0.27  OA
ATOM     56 H    ASN Q   2      15.102  -9.877  17.164  1.00 39.54 LIG 0.16  HD
BRANCH 54 57
ATOM     57  CA  THR Q   1      15.259  -7.331  17.003  1.00 43.16 LIG 0.30  C 
BRANCH 57 58
ATOM     58  CB  THR Q   1      16.153  -7.618  18.237  1.00 43.89 LIG 0.15  C 
ATOM     59  CG2 THR Q   1      16.729  -6.325  18.780  1.00 45.05 LIG 0.04  C 
BRANCH 58 60
ATOM     60 OG1  THR Q   1      15.378  -8.160  19.324  1.00 46.29 LIG-0.39  OA
ATOM     61 HG1  THR Q   1      15.056  -8.902  19.096  1.00 46.29 LIG 0.21  HD
ENDBRANCH 58 60
ENDBRANCH 57 58
BRANCH 57 62
ATOM     62  N   THR Q   1      13.837  -7.166  17.456  1.00 43.28 LIG-0.06  N 
ATOM     63 H2   THR Q   1      13.316  -7.736  17.012  1.00 43.28 LIG 0.28  HD
ATOM     64 H1   THR Q   1      13.569  -6.333  17.295  1.00 43.28 LIG 0.28  HD
ATOM     65 H3   THR Q   1      13.782  -7.333  18.328  1.00 43.28 LIG 0.28  HD
ENDBRANCH 57 62
ENDBRANCH 54 57
ENDBRANCH 46 53
ENDBRANCH 43 46
ENDBRANCH 36 42
ENDBRANCH 1 36
TORSDOF 24
ENDMDL
MODEL 12
USER: ADFR SOLUTION from run 100
USER: SCORE 21.984015 LL:  -6.026 LR: -17.056 RR:   0.000 FEB:  -9.897
USER: RMSD 10.081052
USER: SEED 99
USER: STATUS no improvement in best in 2 clusters for 5 generations
USER: GENES 26
USER: genes 0 Translation |==|  0.42160 0.34130 0.43581
USER: genes 1 Rotation |==|  0.06780 0.32754 0.64316 0.61385
USER: genes 2 Torsion [C]-N--CA-[CB] |==|  0.88889
USER: genes 3 Torsion [N]-CA--CB-[CG] |==|  0.46989
USER: genes 4 Torsion [CA]-CB--CG-[CD1] |==|  0.14789
USER: genes 5 Torsion [N]-CA--C-[N] |==|  0.34216
USER: genes 6 Torsion [C]-N--CA-[C] |==|  0.54839
USER: genes 7 Torsion [N]-CA--C-[N] |==|  0.52091
USER: genes 8 Torsion [C]-N--CA-[CB] |==|  0.85032
USER: genes 9 Torsion [N]-CA--C-[O] |==|  0.42325
USER: genes 10 Torsion [N]-CA--CB-[CG] |==|  0.78876
USER: genes 11 Torsion [CA]-CB--CG-[CD2] |==|  0.84302
USER: genes 12 Torsion [CE1]-CZ--OH-[HH] |==|  0.92060
USER: genes 13 Torsion [N]-C--CA-[N] |==|  0.34900
USER: genes 14 Torsion [C]-CA--CB-[CG] |==|  0.44905
USER: genes 15 Torsion [CA]-CB--CG-[CD] |==|  0.15119
USER: genes 16 Torsion [CB]-CG--CD-[OE1] |==|  0.65400
USER: genes 17 Torsion [C]-CA--N-[C] |==|  0.78641
USER: genes 18 Torsion [N]-C--CA-[N] |==|  0.88777
USER: genes 19 Torsion [C]-CA--CB-[CG] |==|  0.37543
USER: genes 20 Torsion [CA]-CB--CG-[ND2] |==|  0.58161
USER: genes 21 Torsion [C]-CA--N-[C] |==|  0.86530
USER: genes 22 Torsion [N]-C--CA-[N] |==|  0.99755
USER: genes 23 Torsion [C]-CA--CB-[CG2] |==|  0.26284
USER: genes 24 Torsion [CA]-CB--OG1-[HG1] |==|  0.18038
USER: genes 25 Torsion [C]-CA--N-[H1] |==|  0.12667
ROOT
ATOM      1  C   GLU Q   3      13.377 -17.360  12.771  1.00 28.90 LIG 0.24  C 
ATOM      2 O    GLU Q   3      14.578 -17.244  12.497  1.00 28.99 LIG-0.27  OA
ATOM      3  N   PHE Q   4      12.904 -17.142  13.998  1.00 26.46 LIG-0.35  N 
ATOM      4 H    PHE Q   4      12.063 -17.148  14.180  1.00 26.46 LIG 0.16  HD
ENDROOT
BRANCH 3 5
ATOM      5  CA  PHE Q   4      13.744 -16.875  15.158  1.00 24.91 LIG 0.18  C 
BRANCH 5 6
ATOM      6  CB  PHE Q   4      15.010 -17.739  15.177  1.00 23.71 LIG 0.07  C 
BRANCH 6 7
ATOM      7  CG  PHE Q   4      16.022 -17.306  16.218  1.00 27.82 LIG-0.06  A 
ATOM      8  CD1 PHE Q   4      15.661 -17.157  17.550  1.00 28.27 LIG 0.01  A 
ATOM      9  CE1 PHE Q   4      16.600 -16.750  18.504  1.00 33.51 LIG 0.00  A 
ATOM     10  CZ  PHE Q   4      17.914 -16.535  18.125  1.00 29.48 LIG 0.00  A 
ATOM     11  CE2 PHE Q   4      18.295 -16.717  16.828  1.00 30.45 LIG 0.00  A 
ATOM     12  CD2 PHE Q   4      17.341 -17.081  15.855  1.00 30.03 LIG 0.01  A 
ENDBRANCH 6 7
ENDBRANCH 5 6
BRANCH 5 13
ATOM     13  C   PHE Q   4      14.146 -15.404  15.173  1.00 24.46 LIG 0.24  C 
ATOM     14 O    PHE Q   4      14.766 -14.894  14.238  1.00 21.72 LIG-0.27  OA
ATOM     15  N   TYR Q   5      13.806 -14.761  16.288  1.00 25.68 LIG-0.35  N 
ATOM     16 H    TYR Q   5      13.378 -15.148  16.926  1.00 25.68 LIG 0.16  HD
BRANCH 15 17
ATOM     17  CA  TYR Q   5      14.101 -13.356  16.575  1.00 24.76 LIG 0.18  C 
BRANCH 17 18
ATOM     18  C   TYR Q   5      13.937 -13.176  18.056  1.00 23.71 LIG 0.24  C 
ATOM     19  N   ALA Q   6      14.011 -11.928  18.496  1.00 23.95 LIG-0.34  N 
ATOM     20 H    ALA Q   6      14.168 -11.245  17.996  1.00 23.95 LIG 0.16  HD
ATOM     21 O    TYR Q   5      13.678 -14.133  18.795  1.00 22.91 LIG-0.27  OA
BRANCH 19 22
ATOM     22  CA  ALA Q   6      13.825 -11.624  19.902  1.00 23.91 LIG 0.18  C 
ATOM     23  CB  ALA Q   6      12.512 -12.202  20.384  1.00 25.24 LIG 0.04  C 
BRANCH 22 24
ATOM     24  C   ALA Q   6      14.966 -12.082  20.802  1.00 23.52 LIG 0.20  C 
ATOM     25 O    ALA Q   6      15.234 -11.523  21.853  1.00 23.09 LIG-0.65  OA
ATOM     26 OXT  ALA Q   6      15.664 -13.031  20.429  1.00 23.23 LIG-0.65  OA
ENDBRANCH 22 24
ENDBRANCH 19 22
ENDBRANCH 17 18
BRANCH 17 27
ATOM     27  CB  TYR Q   5      13.118 -12.437  15.811  1.00 25.21 LIG 0.07  C 
BRANCH 27 28
ATOM     28  CG  TYR Q   5      13.397 -12.282  14.324  1.00 26.66 LIG-0.06  A 
ATOM     29  CD1 TYR Q   5      12.439 -12.569  13.363  1.00 25.58 LIG 0.01  A 
ATOM     30  CE1 TYR Q   5      12.727 -12.433  11.992  1.00 26.73 LIG 0.04  A 
ATOM     31  CZ  TYR Q   5      13.980 -11.993  11.587  1.00 25.10 LIG 0.07  A 
ATOM     32  CE2 TYR Q   5      14.925 -11.672  12.518  1.00 24.98 LIG 0.04  A 
ATOM     33  CD2 TYR Q   5      14.640 -11.824  13.883  1.00 25.59 LIG 0.01  A 
BRANCH 31 34
ATOM     34 OH   TYR Q   5      14.283 -11.848  10.243  1.00 28.49 LIG-0.36  OA
ATOM     35 HH   TYR Q   5      13.827 -12.390   9.792  1.00 28.49 LIG 0.22  HD
ENDBRANCH 31 34
ENDBRANCH 27 28
ENDBRANCH 17 27
ENDBRANCH 15 17
ENDBRANCH 5 13
ENDBRANCH 3 5
BRANCH 1 36
ATOM     36  CA  GLU Q   3      12.349 -17.693  11.686  1.00 29.75 LIG 0.18  C 
BRANCH 36 37
ATOM     37  CB  GLU Q   3      12.464 -19.159  11.238  1.00 29.86 LIG 0.04  C 
BRANCH 37 38
ATOM     38  CG  GLU Q   3      11.301 -19.805  10.501  1.00 30.70 LIG 0.12  C 
BRANCH 38 39
ATOM     39  CD  GLU Q   3      10.897 -18.995   9.277  1.00 35.33 LIG 0.17  C 
ATOM     40 OE1  GLU Q   3       9.695 -18.642   9.222  1.00 35.34 LIG-0.65  OA
ATOM     41 OE2  GLU Q   3      11.756 -18.736   8.387  1.00 35.74 LIG-0.65  OA
ENDBRANCH 38 39
ENDBRANCH 37 38
ENDBRANCH 36 37
BRANCH 36 42
ATOM     42  N   GLU Q   3      12.504 -16.766  10.561  1.00 32.75 LIG-0.35  N 
ATOM     43  C   ASN Q   2      12.048 -15.512  10.621  1.00 36.04 LIG 0.24  C 
ATOM     44 O    ASN Q   2      11.437 -15.077  11.610  1.00 34.76 LIG-0.27  OA
ATOM     45 H    GLU Q   3      12.906 -17.100   9.878  1.00 32.75 LIG 0.16  HD
BRANCH 43 46
ATOM     46  CA  ASN Q   2      12.366 -14.605   9.414  1.00 38.34 LIG 0.18  C 
BRANCH 46 47
ATOM     47  CB  ASN Q   2      11.307 -14.747   8.308  1.00 38.76 LIG 0.14  C 
BRANCH 47 48
ATOM     48  CG  ASN Q   2      10.861 -13.395   7.735  1.00 42.06 LIG 0.22  C 
ATOM     49  ND2 ASN Q   2       9.620 -13.332   7.270  1.00 46.27 LIG-0.37  N 
ATOM     50 22HD ASN Q   2       9.118 -14.030   7.290  1.00 46.27 LIG 0.16  HD
ATOM     51 21HD ASN Q   2       9.318 -12.594   6.949  1.00 46.27 LIG 0.16  HD
ATOM     52 OD1  ASN Q   2      11.615 -12.419   7.725  1.00 44.45 LIG-0.27  OA
ENDBRANCH 47 48
ENDBRANCH 46 47
BRANCH 46 53
ATOM     53  N   ASN Q   2      13.719 -14.772   8.878  1.00 39.54 LIG-0.34  N 
ATOM     54  C   THR Q   1      14.827 -14.782   9.611  1.00 41.49 LIG 0.25  C 
ATOM     55 O    THR Q   1      14.818 -14.791  10.842  1.00 41.78 LIG-0.27  OA
ATOM     56 H    ASN Q   2      13.732 -14.866   8.023  1.00 39.54 LIG 0.16  HD
BRANCH 54 57
ATOM     57  CA  THR Q   1      16.154 -14.840   8.841  1.00 43.16 LIG 0.30  C 
BRANCH 57 58
ATOM     58  CB  THR Q   1      17.074 -13.635   9.166  1.00 43.89 LIG 0.15  C 
ATOM     59  CG2 THR Q   1      18.050 -14.003  10.267  1.00 45.05 LIG 0.04  C 
BRANCH 58 60
ATOM     60 OG1  THR Q   1      17.904 -13.298   8.038  1.00 46.29 LIG-0.39  OA
ATOM     61 HG1  THR Q   1      17.421 -13.031   7.404  1.00 46.29 LIG 0.21  HD
ENDBRANCH 58 60
ENDBRANCH 57 58
BRANCH 57 62
ATOM     62  N   THR Q   1      15.925 -14.896   7.358  1.00 43.28 LIG-0.06  N 
ATOM     63 H2   THR Q   1      16.687 -14.719   6.933  1.00 43.28 LIG 0.28  HD
ATOM     64 H1   THR Q   1      15.311 -14.293   7.129  1.00 43.28 LIG 0.28  HD
ATOM     65 H3   THR Q   1      15.642 -15.709   7.132  1.00 43.28 LIG 0.28  HD
ENDBRANCH 57 62
ENDBRANCH 54 57
ENDBRANCH 46 53
ENDBRANCH 43 46
ENDBRANCH 36 42
ENDBRANCH 1 36
TORSDOF 24
ENDMDL
MODEL 13
USER: ADFR SOLUTION from run 54
USER: SCORE 22.031571 LL:  -5.828 LR: -17.026 RR:   0.000 FEB:  -9.867
USER: RMSD 7.318445
USER: SEED 53
USER: STATUS no improvement in best in 5 clusters for 5 generations
USER: GENES 26
USER: genes 0 Translation |==|  0.42479 0.44605 0.51358
USER: genes 1 Rotation |==|  0.40767 0.32669 0.05618 0.62025
USER: genes 2 Torsion [C]-N--CA-[CB] |==|  0.52539
USER: genes 3 Torsion [N]-CA--CB-[CG] |==|  0.57641
USER: genes 4 Torsion [CA]-CB--CG-[CD1] |==|  0.20953
USER: genes 5 Torsion [N]-CA--C-[N] |==|  0.45311
USER: genes 6 Torsion [C]-N--CA-[C] |==|  0.81037
USER: genes 7 Torsion [N]-CA--C-[N] |==|  0.43343
USER: genes 8 Torsion [C]-N--CA-[CB] |==|  0.81592
USER: genes 9 Torsion [N]-CA--C-[O] |==|  0.08127
USER: genes 10 Torsion [N]-CA--CB-[CG] |==|  0.31355
USER: genes 11 Torsion [CA]-CB--CG-[CD2] |==|  0.80395
USER: genes 12 Torsion [CE1]-CZ--OH-[HH] |==|  0.65014
USER: genes 13 Torsion [N]-C--CA-[N] |==|  0.94698
USER: genes 14 Torsion [C]-CA--CB-[CG] |==|  0.49989
USER: genes 15 Torsion [CA]-CB--CG-[CD] |==|  0.24375
USER: genes 16 Torsion [CB]-CG--CD-[OE1] |==|  0.97660
USER: genes 17 Torsion [C]-CA--N-[C] |==|  0.74045
USER: genes 18 Torsion [N]-C--CA-[N] |==|  0.84563
USER: genes 19 Torsion [C]-CA--CB-[CG] |==|  0.64804
USER: genes 20 Torsion [CA]-CB--CG-[ND2] |==|  0.80804
USER: genes 21 Torsion [C]-CA--N-[C] |==|  0.75655
USER: genes 22 Torsion [N]-C--CA-[N] |==|  0.49625
USER: genes 23 Torsion [C]-CA--CB-[CG2] |==|  0.24112
USER: genes 24 Torsion [CA]-CB--OG1-[HG1] |==|  0.61522
USER: genes 25 Torsion [C]-CA--N-[H1] |==|  0.11412
ROOT
ATOM      1  C   GLU Q   3      13.439 -15.239  14.812  1.00 28.90 LIG 0.24  C 
ATOM      2 O    GLU Q   3      12.977 -16.315  15.208  1.00 28.99 LIG-0.27  OA
ATOM      3  N   PHE Q   4      13.188 -14.761  13.594  1.00 26.46 LIG-0.35  N 
ATOM      4 H    PHE Q   4      13.443 -13.980  13.338  1.00 26.46 LIG 0.16  HD
ENDROOT
BRANCH 3 5
ATOM      5  CA  PHE Q   4      12.461 -15.497  12.567  1.00 24.91 LIG 0.18  C 
BRANCH 5 6
ATOM      6  CB  PHE Q   4      12.512 -14.803  11.201  1.00 23.71 LIG 0.07  C 
BRANCH 6 7
ATOM      7  CG  PHE Q   4      11.316 -15.109  10.323  1.00 27.82 LIG-0.06  A 
ATOM      8  CD1 PHE Q   4      10.081 -14.521  10.561  1.00 28.27 LIG 0.01  A 
ATOM      9  CE1 PHE Q   4       8.981 -14.815   9.749  1.00 33.51 LIG 0.00  A 
ATOM     10  CZ  PHE Q   4       9.132 -15.668   8.670  1.00 29.48 LIG 0.00  A 
ATOM     11  CE2 PHE Q   4      10.349 -16.222   8.396  1.00 30.45 LIG 0.00  A 
ATOM     12  CD2 PHE Q   4      11.449 -15.966   9.240  1.00 30.03 LIG 0.01  A 
ENDBRANCH 6 7
ENDBRANCH 5 6
BRANCH 5 13
ATOM     13  C   PHE Q   4      13.041 -16.901  12.433  1.00 24.46 LIG 0.24  C 
ATOM     14 O    PHE Q   4      14.167 -17.178  12.853  1.00 21.72 LIG-0.27  OA
ATOM     15  N   TYR Q   5      12.246 -17.757  11.795  1.00 25.68 LIG-0.35  N 
ATOM     16 H    TYR Q   5      11.467 -17.531  11.509  1.00 25.68 LIG 0.16  HD
BRANCH 15 17
ATOM     17  CA  TYR Q   5      12.572 -19.154  11.502  1.00 24.76 LIG 0.18  C 
BRANCH 17 18
ATOM     18  C   TYR Q   5      13.677 -19.134  10.488  1.00 23.71 LIG 0.24  C 
ATOM     19  N   ALA Q   6      14.442 -20.216  10.449  1.00 23.95 LIG-0.34  N 
ATOM     20 H    ALA Q   6      14.356 -20.892  10.974  1.00 23.95 LIG 0.16  HD
ATOM     21 O    TYR Q   5      13.807 -18.193   9.697  1.00 22.91 LIG-0.27  OA
BRANCH 19 22
ATOM     22  CA  ALA Q   6      15.516 -20.331   9.480  1.00 23.91 LIG 0.18  C 
ATOM     23  CB  ALA Q   6      14.942 -20.406   8.082  1.00 25.24 LIG 0.04  C 
BRANCH 22 24
ATOM     24  C   ALA Q   6      16.561 -19.225   9.564  1.00 23.52 LIG 0.20  C 
ATOM     25 O    ALA Q   6      16.824 -18.652  10.609  1.00 23.09 LIG-0.65  OA
ATOM     26 OXT  ALA Q   6      17.132 -18.876   8.525  1.00 23.23 LIG-0.65  OA
ENDBRANCH 22 24
ENDBRANCH 19 22
ENDBRANCH 17 18
BRANCH 17 27
ATOM     27  CB  TYR Q   5      11.332 -19.883  10.931  1.00 25.21 LIG 0.07  C 
BRANCH 27 28
ATOM     28  CG  TYR Q   5      11.444 -20.313   9.477  1.00 26.66 LIG-0.06  A 
ATOM     29  CD1 TYR Q   5      11.548 -21.646   9.110  1.00 25.58 LIG 0.01  A 
ATOM     30  CE1 TYR Q   5      11.666 -22.017   7.758  1.00 26.73 LIG 0.04  A 
ATOM     31  CZ  TYR Q   5      11.667 -21.042   6.768  1.00 25.10 LIG 0.07  A 
ATOM     32  CE2 TYR Q   5      11.531 -19.727   7.106  1.00 24.98 LIG 0.04  A 
ATOM     33  CD2 TYR Q   5      11.429 -19.360   8.456  1.00 25.59 LIG 0.01  A 
BRANCH 31 34
ATOM     34 OH   TYR Q   5      11.779 -21.385   5.431  1.00 28.49 LIG-0.36  OA
ATOM     35 HH   TYR Q   5      12.417 -20.963   5.085  1.00 28.49 LIG 0.22  HD
ENDBRANCH 31 34
ENDBRANCH 27 28
ENDBRANCH 17 27
ENDBRANCH 15 17
ENDBRANCH 5 13
ENDBRANCH 3 5
BRANCH 1 36
ATOM     36  CA  GLU Q   3      14.278 -14.352  15.739  1.00 29.75 LIG 0.18  C 
BRANCH 36 37
ATOM     37  CB  GLU Q   3      13.407 -13.689  16.818  1.00 29.86 LIG 0.04  C 
BRANCH 37 38
ATOM     38  CG  GLU Q   3      14.058 -12.769  17.838  1.00 30.70 LIG 0.12  C 
BRANCH 38 39
ATOM     39  CD  GLU Q   3      14.126 -11.335  17.331  1.00 35.33 LIG 0.17  C 
ATOM     40 OE1  GLU Q   3      13.805 -11.158  16.132  1.00 35.34 LIG-0.65  OA
ATOM     41 OE2  GLU Q   3      14.509 -10.414  18.108  1.00 35.74 LIG-0.65  OA
ENDBRANCH 38 39
ENDBRANCH 37 38
ENDBRANCH 36 37
BRANCH 36 42
ATOM     42  N   GLU Q   3      15.006 -13.360  14.942  1.00 32.75 LIG-0.35  N 
ATOM     43  C   ASN Q   2      16.253 -13.583  14.519  1.00 36.04 LIG 0.24  C 
ATOM     44 O    ASN Q   2      16.875 -14.618  14.809  1.00 34.76 LIG-0.27  OA
ATOM     45 H    GLU Q   3      14.564 -12.641  14.778  1.00 32.75 LIG 0.16  HD
BRANCH 43 46
ATOM     46  CA  ASN Q   2      16.873 -12.508  13.601  1.00 38.34 LIG 0.18  C 
BRANCH 46 47
ATOM     47  CB  ASN Q   2      17.201 -11.224  14.380  1.00 38.76 LIG 0.14  C 
BRANCH 47 48
ATOM     48  CG  ASN Q   2      16.586  -9.969  13.745  1.00 42.06 LIG 0.22  C 
ATOM     49  ND2 ASN Q   2      17.095  -9.588  12.581  1.00 46.27 LIG-0.37  N 
ATOM     50 22HD ASN Q   2      17.742 -10.031  12.229  1.00 46.27 LIG 0.16  HD
ATOM     51 21HD ASN Q   2      16.777  -8.897  12.178  1.00 46.27 LIG 0.16  HD
ATOM     52 OD1  ASN Q   2      15.658  -9.363  14.286  1.00 44.45 LIG-0.27  OA
ENDBRANCH 47 48
ENDBRANCH 46 47
BRANCH 46 53
ATOM     53  N   ASN Q   2      16.081 -12.215  12.403  1.00 39.54 LIG-0.34  N 
ATOM     54  C   THR Q   1      16.181 -12.870  11.252  1.00 41.49 LIG 0.25  C 
ATOM     55 O    THR Q   1      16.856 -13.891  11.116  1.00 41.78 LIG-0.27  OA
ATOM     56 H    ASN Q   2      15.532 -11.563  12.516  1.00 39.54 LIG 0.16  HD
BRANCH 54 57
ATOM     57  CA  THR Q   1      15.354 -12.321  10.081  1.00 43.16 LIG 0.30  C 
BRANCH 57 58
ATOM     58  CB  THR Q   1      13.837 -12.285  10.398  1.00 43.89 LIG 0.15  C 
ATOM     59  CG2 THR Q   1      13.479 -10.987  11.096  1.00 45.05 LIG 0.04  C 
BRANCH 58 60
ATOM     60 OG1  THR Q   1      13.055 -12.280   9.189  1.00 46.29 LIG-0.39  OA
ATOM     61 HG1  THR Q   1      12.416 -11.741   9.270  1.00 46.29 LIG 0.21  HD
ENDBRANCH 58 60
ENDBRANCH 57 58
BRANCH 57 62
ATOM     62  N   THR Q   1      15.575 -13.123   8.831  1.00 43.28 LIG-0.06  N 
ATOM     63 H2   THR Q   1      14.908 -12.975   8.261  1.00 43.28 LIG 0.28  HD
ATOM     64 H1   THR Q   1      15.603 -13.990   9.035  1.00 43.28 LIG 0.28  HD
ATOM     65 H3   THR Q   1      16.345 -12.882   8.455  1.00 43.28 LIG 0.28  HD
ENDBRANCH 57 62
ENDBRANCH 54 57
ENDBRANCH 46 53
ENDBRANCH 43 46
ENDBRANCH 36 42
ENDBRANCH 1 36
TORSDOF 24
ENDMDL
MODEL 14
USER: ADFR SOLUTION from run 179
USER: SCORE 21.292313 LL:  -6.219 LR: -17.020 RR:   0.000 FEB:  -9.861
USER: RMSD 7.416457
USER: SEED 178
USER: STATUS no improvement in best in 2 clusters for 5 generations
USER: GENES 26
USER: genes 0 Translation |==|  0.50402 0.54447 0.38310
USER: genes 1 Rotation |==|  0.37847 0.27516 0.09384 0.64038
USER: genes 2 Torsion [C]-N--CA-[CB] |==|  0.46311
USER: genes 3 Torsion [N]-CA--CB-[CG] |==|  0.64160
USER: genes 4 Torsion [CA]-CB--CG-[CD1] |==|  0.95902
USER: genes 5 Torsion [N]-CA--C-[N] |==|  0.35002
USER: genes 6 Torsion [C]-N--CA-[C] |==|  0.65379
USER: genes 7 Torsion [N]-CA--C-[N] |==|  0.89071
USER: genes 8 Torsion [C]-N--CA-[CB] |==|  0.21768
USER: genes 9 Torsion [N]-CA--C-[O] |==|  0.74835
USER: genes 10 Torsion [N]-CA--CB-[CG] |==|  0.04648
USER: genes 11 Torsion [CA]-CB--CG-[CD2] |==|  0.63955
USER: genes 12 Torsion [CE1]-CZ--OH-[HH] |==|  0.40201
USER: genes 13 Torsion [N]-C--CA-[N] |==|  0.40235
USER: genes 14 Torsion [C]-CA--CB-[CG] |==|  0.02898
USER: genes 15 Torsion [CA]-CB--CG-[CD] |==|  0.31683
USER: genes 16 Torsion [CB]-CG--CD-[OE1] |==|  0.68424
USER: genes 17 Torsion [C]-CA--N-[C] |==|  0.60099
USER: genes 18 Torsion [N]-C--CA-[N] |==|  0.06959
USER: genes 19 Torsion [C]-CA--CB-[CG] |==|  0.44569
USER: genes 20 Torsion [CA]-CB--CG-[ND2] |==|  0.68777
USER: genes 21 Torsion [C]-CA--N-[C] |==|  0.70499
USER: genes 22 Torsion [N]-C--CA-[N] |==|  0.46509
USER: genes 23 Torsion [C]-CA--CB-[CG2] |==|  0.28473
USER: genes 24 Torsion [CA]-CB--OG1-[HG1] |==|  0.46767
USER: genes 25 Torsion [C]-CA--N-[H1] |==|  0.08565
ROOT
ATOM      1  C   GLU Q   3      14.984 -13.245  11.387  1.00 28.90 LIG 0.24  C 
ATOM      2 O    GLU Q   3      14.692 -14.225  12.083  1.00 28.99 LIG-0.27  OA
ATOM      3  N   PHE Q   4      14.563 -13.114  10.130  1.00 26.46 LIG-0.35  N 
ATOM      4 H    PHE Q   4      14.698 -12.403   9.665  1.00 26.46 LIG 0.16  HD
ENDROOT
BRANCH 3 5
ATOM      5  CA  PHE Q   4      13.833 -14.147   9.406  1.00 24.91 LIG 0.18  C 
BRANCH 5 6
ATOM      6  CB  PHE Q   4      13.196 -13.621   8.115  1.00 23.71 LIG 0.07  C 
BRANCH 6 7
ATOM      7  CG  PHE Q   4      11.725 -13.957   7.985  1.00 27.82 LIG-0.06  A 
ATOM      8  CD1 PHE Q   4      11.134 -14.917   8.797  1.00 28.27 LIG 0.01  A 
ATOM      9  CE1 PHE Q   4       9.776 -15.226   8.665  1.00 33.51 LIG 0.00  A 
ATOM     10  CZ  PHE Q   4       9.002 -14.540   7.747  1.00 29.48 LIG 0.00  A 
ATOM     11  CE2 PHE Q   4       9.556 -13.565   6.971  1.00 30.45 LIG 0.00  A 
ATOM     12  CD2 PHE Q   4      10.935 -13.283   7.066  1.00 30.03 LIG 0.01  A 
ENDBRANCH 6 7
ENDBRANCH 5 6
BRANCH 5 13
ATOM     13  C   PHE Q   4      14.775 -15.297   9.062  1.00 24.46 LIG 0.24  C 
ATOM     14 O    PHE Q   4      15.814 -15.113   8.425  1.00 21.72 LIG-0.27  OA
ATOM     15  N   TYR Q   5      14.346 -16.489   9.472  1.00 25.68 LIG-0.35  N 
ATOM     16 H    TYR Q   5      13.613 -16.585   9.910  1.00 25.68 LIG 0.16  HD
BRANCH 15 17
ATOM     17  CA  TYR Q   5      15.039 -17.759   9.244  1.00 24.76 LIG 0.18  C 
BRANCH 17 18
ATOM     18  C   TYR Q   5      14.060 -18.666   8.558  1.00 23.71 LIG 0.24  C 
ATOM     19  N   ALA Q   6      12.809 -18.596   8.991  1.00 23.95 LIG-0.34  N 
ATOM     20 H    ALA Q   6      12.546 -18.094   9.639  1.00 23.95 LIG 0.16  HD
ATOM     21 O    TYR Q   5      14.400 -19.372   7.603  1.00 22.91 LIG-0.27  OA
BRANCH 19 22
ATOM     22  CA  ALA Q   6      11.765 -19.393   8.376  1.00 23.91 LIG 0.18  C 
ATOM     23  CB  ALA Q   6      11.841 -20.819   8.877  1.00 25.24 LIG 0.04  C 
BRANCH 22 24
ATOM     24  C   ALA Q   6      10.357 -18.841   8.564  1.00 23.52 LIG 0.20  C 
ATOM     25 O    ALA Q   6       9.653 -19.157   9.509  1.00 23.09 LIG-0.65  OA
ATOM     26 OXT  ALA Q   6       9.907 -18.074   7.706  1.00 23.23 LIG-0.65  OA
ENDBRANCH 22 24
ENDBRANCH 19 22
ENDBRANCH 17 18
BRANCH 17 27
ATOM     27  CB  TYR Q   5      15.485 -18.373  10.592  1.00 25.21 LIG 0.07  C 
BRANCH 27 28
ATOM     28  CG  TYR Q   5      14.804 -17.799  11.825  1.00 26.66 LIG-0.06  A 
ATOM     29  CD1 TYR Q   5      13.425 -17.696  11.922  1.00 25.58 LIG 0.01  A 
ATOM     30  CE1 TYR Q   5      12.820 -17.146  13.068  1.00 26.73 LIG 0.04  A 
ATOM     31  CZ  TYR Q   5      13.606 -16.711  14.127  1.00 25.10 LIG 0.07  A 
ATOM     32  CE2 TYR Q   5      14.964 -16.836  14.065  1.00 24.98 LIG 0.04  A 
ATOM     33  CD2 TYR Q   5      15.565 -17.369  12.915  1.00 25.59 LIG 0.01  A 
BRANCH 31 34
ATOM     34 OH   TYR Q   5      13.031 -16.171  15.265  1.00 28.49 LIG-0.36  OA
ATOM     35 HH   TYR Q   5      13.481 -16.393  15.939  1.00 28.49 LIG 0.22  HD
ENDBRANCH 31 34
ENDBRANCH 27 28
ENDBRANCH 17 27
ENDBRANCH 15 17
ENDBRANCH 5 13
ENDBRANCH 3 5
BRANCH 1 36
ATOM     36  CA  GLU Q   3      15.797 -12.082  11.965  1.00 29.75 LIG 0.18  C 
BRANCH 36 37
ATOM     37  CB  GLU Q   3      17.303 -12.280  11.728  1.00 29.86 LIG 0.04  C 
BRANCH 37 38
ATOM     38  CG  GLU Q   3      17.770 -13.388  10.798  1.00 30.70 LIG 0.12  C 
BRANCH 38 39
ATOM     39  CD  GLU Q   3      18.441 -12.825   9.553  1.00 35.33 LIG 0.17  C 
ATOM     40 OE1  GLU Q   3      17.843 -13.021   8.468  1.00 35.34 LIG-0.65  OA
ATOM     41 OE2  GLU Q   3      19.546 -12.220   9.656  1.00 35.74 LIG-0.65  OA
ENDBRANCH 38 39
ENDBRANCH 37 38
ENDBRANCH 36 37
BRANCH 36 42
ATOM     42  N   GLU Q   3      15.485 -11.925  13.389  1.00 32.75 LIG-0.35  N 
ATOM     43  C   ASN Q   2      15.423 -10.720  13.962  1.00 36.04 LIG 0.24  C 
ATOM     44 O    ASN Q   2      15.662  -9.676  13.334  1.00 34.76 LIG-0.27  OA
ATOM     45 H    GLU Q   3      15.351 -12.664  13.807  1.00 32.75 LIG 0.16  HD
BRANCH 43 46
ATOM     46  CA  ASN Q   2      14.983 -10.682  15.441  1.00 38.34 LIG 0.18  C 
BRANCH 46 47
ATOM     47  CB  ASN Q   2      15.574  -9.466  16.172  1.00 38.76 LIG 0.14  C 
BRANCH 47 48
ATOM     48  CG  ASN Q   2      14.813  -9.119  17.459  1.00 42.06 LIG 0.22  C 
ATOM     49  ND2 ASN Q   2      14.142  -7.976  17.457  1.00 46.27 LIG-0.37  N 
ATOM     50 22HD ASN Q   2      14.158  -7.469  16.763  1.00 46.27 LIG 0.16  HD
ATOM     51 21HD ASN Q   2      13.690  -7.741  18.151  1.00 46.27 LIG 0.16  HD
ATOM     52 OD1  ASN Q   2      14.817  -9.876  18.433  1.00 44.45 LIG-0.27  OA
ENDBRANCH 47 48
ENDBRANCH 46 47
BRANCH 46 53
ATOM     53  N   ASN Q   2      15.244 -11.923  16.175  1.00 39.54 LIG-0.34  N 
ATOM     54  C   THR Q   1      14.314 -12.800  16.534  1.00 41.49 LIG 0.25  C 
ATOM     55 O    THR Q   1      13.142 -12.727  16.161  1.00 41.78 LIG-0.27  OA
ATOM     56 H    ASN Q   2      16.077 -12.035  16.358  1.00 39.54 LIG 0.16  HD
BRANCH 54 57
ATOM     57  CA  THR Q   1      14.780 -13.969  17.411  1.00 43.16 LIG 0.30  C 
BRANCH 57 58
ATOM     58  CB  THR Q   1      15.676 -14.967  16.633  1.00 43.89 LIG 0.15  C 
ATOM     59  CG2 THR Q   1      17.134 -14.751  16.991  1.00 45.05 LIG 0.04  C 
BRANCH 58 60
ATOM     60 OG1  THR Q   1      15.399 -16.325  17.023  1.00 46.29 LIG-0.39  OA
ATOM     61 HG1  THR Q   1      15.773 -16.853  16.486  1.00 46.29 LIG 0.21  HD
ENDBRANCH 58 60
ENDBRANCH 57 58
BRANCH 57 62
ATOM     62  N   THR Q   1      13.615 -14.713  17.999  1.00 43.28 LIG-0.06  N 
ATOM     63 H2   THR Q   1      13.840 -15.565  18.127  1.00 43.28 LIG 0.28  HD
ATOM     64 H1   THR Q   1      12.923 -14.670  17.440  1.00 43.28 LIG 0.28  HD
ATOM     65 H3   THR Q   1      13.391 -14.346  18.778  1.00 43.28 LIG 0.28  HD
ENDBRANCH 57 62
ENDBRANCH 54 57
ENDBRANCH 46 53
ENDBRANCH 43 46
ENDBRANCH 36 42
ENDBRANCH 1 36
TORSDOF 24
ENDMDL
MODEL 15
USER: ADFR SOLUTION from run 176
USER: SCORE 21.168899 LL:  -5.567 LR: -16.987 RR:   0.000 FEB:  -9.828
USER: RMSD 4.294638
USER: SEED 175
USER: STATUS no improvement in best in 16 clusters for 5 generations
USER: GENES 26
USER: genes 0 Translation |==|  0.46723 0.47500 0.58289
USER: genes 1 Rotation |==|  0.48326 0.60656 0.76864 0.90767
USER: genes 2 Torsion [C]-N--CA-[CB] |==|  0.49450
USER: genes 3 Torsion [N]-CA--CB-[CG] |==|  0.52608
USER: genes 4 Torsion [CA]-CB--CG-[CD1] |==|  0.21888
USER: genes 5 Torsion [N]-CA--C-[N] |==|  0.41682
USER: genes 6 Torsion [C]-N--CA-[C] |==|  0.66249
USER: genes 7 Torsion [N]-CA--C-[N] |==|  0.35377
USER: genes 8 Torsion [C]-N--CA-[CB] |==|  0.29686
USER: genes 9 Torsion [N]-CA--C-[O] |==|  0.47037
USER: genes 10 Torsion [N]-CA--CB-[CG] |==|  0.42228
USER: genes 11 Torsion [CA]-CB--CG-[CD2] |==|  0.21782
USER: genes 12 Torsion [CE1]-CZ--OH-[HH] |==|  0.28554
USER: genes 13 Torsion [N]-C--CA-[N] |==|  0.13919
USER: genes 14 Torsion [C]-CA--CB-[CG] |==|  0.70004
USER: genes 15 Torsion [CA]-CB--CG-[CD] |==|  0.74276
USER: genes 16 Torsion [CB]-CG--CD-[OE1] |==|  0.85439
USER: genes 17 Torsion [C]-CA--N-[C] |==|  0.75927
USER: genes 18 Torsion [N]-C--CA-[N] |==|  0.42794
USER: genes 19 Torsion [C]-CA--CB-[CG] |==|  0.77914
USER: genes 20 Torsion [CA]-CB--CG-[ND2] |==|  0.18144
USER: genes 21 Torsion [C]-CA--N-[C] |==|  0.70424
USER: genes 22 Torsion [N]-C--CA-[N] |==|  0.76474
USER: genes 23 Torsion [C]-CA--CB-[CG2] |==|  0.28987
USER: genes 24 Torsion [CA]-CB--OG1-[HG1] |==|  0.67108
USER: genes 25 Torsion [C]-CA--N-[H1] |==|  0.02472
ROOT
ATOM      1  C   GLU Q   3      14.267 -14.652  16.632  1.00 28.90 LIG 0.24  C 
ATOM      2 O    GLU Q   3      13.815 -13.768  15.894  1.00 28.99 LIG-0.27  OA
ATOM      3  N   PHE Q   4      14.887 -15.731  16.153  1.00 26.46 LIG-0.35  N 
ATOM      4 H    PHE Q   4      15.269 -16.311  16.660  1.00 26.46 LIG 0.16  HD
ENDROOT
BRANCH 3 5
ATOM      5  CA  PHE Q   4      14.988 -16.047  14.734  1.00 24.91 LIG 0.18  C 
BRANCH 5 6
ATOM      6  CB  PHE Q   4      15.797 -17.322  14.473  1.00 23.71 LIG 0.07  C 
BRANCH 6 7
ATOM      7  CG  PHE Q   4      16.109 -17.551  13.008  1.00 27.82 LIG-0.06  A 
ATOM      8  CD1 PHE Q   4      17.134 -16.860  12.376  1.00 28.27 LIG 0.01  A 
ATOM      9  CE1 PHE Q   4      17.410 -17.073  11.021  1.00 33.51 LIG 0.00  A 
ATOM     10  CZ  PHE Q   4      16.683 -18.012  10.312  1.00 29.48 LIG 0.00  A 
ATOM     11  CE2 PHE Q   4      15.700 -18.730  10.928  1.00 30.45 LIG 0.00  A 
ATOM     12  CD2 PHE Q   4      15.386 -18.485  12.281  1.00 30.03 LIG 0.01  A 
ENDBRANCH 6 7
ENDBRANCH 5 6
BRANCH 5 13
ATOM     13  C   PHE Q   4      13.591 -16.216  14.145  1.00 24.46 LIG 0.24  C 
ATOM     14 O    PHE Q   4      12.656 -16.659  14.815  1.00 21.72 LIG-0.27  OA
ATOM     15  N   TYR Q   5      13.503 -15.885  12.858  1.00 25.68 LIG-0.35  N 
ATOM     16 H    TYR Q   5      14.176 -15.583  12.417  1.00 25.68 LIG 0.16  HD
BRANCH 15 17
ATOM     17  CA  TYR Q   5      12.291 -15.984  12.043  1.00 24.76 LIG 0.18  C 
BRANCH 17 18
ATOM     18  C   TYR Q   5      12.617 -16.893  10.895  1.00 23.71 LIG 0.24  C 
ATOM     19  N   ALA Q   6      11.786 -17.909  10.711  1.00 23.95 LIG-0.34  N 
ATOM     20 H    ALA Q   6      11.110 -18.081  11.214  1.00 23.95 LIG 0.16  HD
ATOM     21 O    TYR Q   5      13.562 -16.654  10.135  1.00 22.91 LIG-0.27  OA
BRANCH 19 22
ATOM     22  CA  ALA Q   6      11.974 -18.830   9.606  1.00 23.91 LIG 0.18  C 
ATOM     23  CB  ALA Q   6      12.493 -20.155  10.123  1.00 25.24 LIG 0.04  C 
BRANCH 22 24
ATOM     24  C   ALA Q   6      10.733 -19.047   8.749  1.00 23.52 LIG 0.20  C 
ATOM     25 O    ALA Q   6      10.772 -19.636   7.680  1.00 23.09 LIG-0.65  OA
ATOM     26 OXT  ALA Q   6       9.660 -18.574   9.138  1.00 23.23 LIG-0.65  OA
ENDBRANCH 22 24
ENDBRANCH 19 22
ENDBRANCH 17 18
BRANCH 17 27
ATOM     27  CB  TYR Q   5      11.883 -14.585  11.521  1.00 25.21 LIG 0.07  C 
BRANCH 27 28
ATOM     28  CG  TYR Q   5      11.119 -14.580  10.206  1.00 26.66 LIG-0.06  A 
ATOM     29  CD1 TYR Q   5      11.734 -14.282   9.000  1.00 25.58 LIG 0.01  A 
ATOM     30  CE1 TYR Q   5      11.002 -14.268   7.798  1.00 26.73 LIG 0.04  A 
ATOM     31  CZ  TYR Q   5       9.646 -14.569   7.808  1.00 25.10 LIG 0.07  A 
ATOM     32  CE2 TYR Q   5       9.029 -14.899   8.980  1.00 24.98 LIG 0.04  A 
ATOM     33  CD2 TYR Q   5       9.759 -14.896  10.179  1.00 25.59 LIG 0.01  A 
BRANCH 31 34
ATOM     34 OH   TYR Q   5       8.907 -14.565   6.637  1.00 28.49 LIG-0.36  OA
ATOM     35 HH   TYR Q   5       8.778 -15.355   6.384  1.00 28.49 LIG 0.22  HD
ENDBRANCH 31 34
ENDBRANCH 27 28
ENDBRANCH 17 27
ENDBRANCH 15 17
ENDBRANCH 5 13
ENDBRANCH 3 5
BRANCH 1 36
ATOM     36  CA  GLU Q   3      14.200 -14.518  18.157  1.00 29.75 LIG 0.18  C 
BRANCH 36 37
ATOM     37  CB  GLU Q   3      13.588 -13.171  18.573  1.00 29.86 LIG 0.04  C 
BRANCH 37 38
ATOM     38  CG  GLU Q   3      14.486 -12.100  19.173  1.00 30.70 LIG 0.12  C 
BRANCH 38 39
ATOM     39  CD  GLU Q   3      14.512 -12.183  20.693  1.00 35.33 LIG 0.17  C 
ATOM     40 OE1  GLU Q   3      13.396 -12.189  21.264  1.00 35.34 LIG-0.65  OA
ATOM     41 OE2  GLU Q   3      15.621 -12.221  21.299  1.00 35.74 LIG-0.65  OA
ENDBRANCH 38 39
ENDBRANCH 37 38
ENDBRANCH 36 37
BRANCH 36 42
ATOM     42  N   GLU Q   3      15.538 -14.707  18.725  1.00 32.75 LIG-0.35  N 
ATOM     43  C   ASN Q   2      16.004 -15.923  19.025  1.00 36.04 LIG 0.24  C 
ATOM     44 O    ASN Q   2      15.321 -16.949  18.877  1.00 34.76 LIG-0.27  OA
ATOM     45 H    GLU Q   3      15.981 -13.980  18.843  1.00 32.75 LIG 0.16  HD
BRANCH 43 46
ATOM     46  CA  ASN Q   2      17.464 -15.999  19.518  1.00 38.34 LIG 0.18  C 
BRANCH 46 47
ATOM     47  CB  ASN Q   2      18.459 -15.909  18.350  1.00 38.76 LIG 0.14  C 
BRANCH 47 48
ATOM     48  CG  ASN Q   2      18.620 -17.240  17.602  1.00 42.06 LIG 0.22  C 
ATOM     49  ND2 ASN Q   2      17.550 -17.687  16.959  1.00 46.27 LIG-0.37  N 
ATOM     50 22HD ASN Q   2      16.815 -17.242  16.984  1.00 46.27 LIG 0.16  HD
ATOM     51 21HD ASN Q   2      17.591 -18.424  16.515  1.00 46.27 LIG 0.16  HD
ATOM     52 OD1  ASN Q   2      19.693 -17.848  17.592  1.00 44.45 LIG-0.27  OA
ENDBRANCH 47 48
ENDBRANCH 46 47
BRANCH 46 53
ATOM     53  N   ASN Q   2      17.749 -17.156  20.371  1.00 39.54 LIG-0.34  N 
ATOM     54  C   THR Q   1      17.933 -17.100  21.685  1.00 41.49 LIG 0.25  C 
ATOM     55 O    THR Q   1      17.744 -16.079  22.348  1.00 41.78 LIG-0.27  OA
ATOM     56 H    ASN Q   2      17.787 -17.894  19.932  1.00 39.54 LIG 0.16  HD
BRANCH 54 57
ATOM     57  CA  THR Q   1      18.349 -18.408  22.372  1.00 43.16 LIG 0.30  C 
BRANCH 57 58
ATOM     58  CB  THR Q   1      19.335 -19.237  21.509  1.00 43.89 LIG 0.15  C 
ATOM     59  CG2 THR Q   1      20.743 -19.116  22.060  1.00 45.05 LIG 0.04  C 
BRANCH 58 60
ATOM     60 OG1  THR Q   1      19.031 -20.643  21.583  1.00 46.29 LIG-0.39  OA
ATOM     61 HG1  THR Q   1      19.685 -21.055  21.912  1.00 46.29 LIG 0.21  HD
ENDBRANCH 58 60
ENDBRANCH 57 58
BRANCH 57 62
ATOM     62  N   THR Q   1      17.156 -19.256  22.705  1.00 43.28 LIG-0.06  N 
ATOM     63 H2   THR Q   1      17.282 -20.081  22.396  1.00 43.28 LIG 0.28  HD
ATOM     64 H1   THR Q   1      16.428 -18.906  22.328  1.00 43.28 LIG 0.28  HD
ATOM     65 H3   THR Q   1      17.048 -19.284  23.588  1.00 43.28 LIG 0.28  HD
ENDBRANCH 57 62
ENDBRANCH 54 57
ENDBRANCH 46 53
ENDBRANCH 43 46
ENDBRANCH 36 42
ENDBRANCH 1 36
TORSDOF 24
ENDMDL
MODEL 16
USER: ADFR SOLUTION from run 84
USER: SCORE 22.008420 LL:  -6.122 LR: -16.957 RR:   0.000 FEB:  -9.798
USER: RMSD 8.057475
USER: SEED 83
USER: STATUS no improvement in best in 2 clusters for 5 generations
USER: GENES 26
USER: genes 0 Translation |==|  0.48246 0.54337 0.32959
USER: genes 1 Rotation |==|  0.45327 0.85091 0.47163 0.85196
USER: genes 2 Torsion [C]-N--CA-[CB] |==|  0.14115
USER: genes 3 Torsion [N]-CA--CB-[CG] |==|  0.62374
USER: genes 4 Torsion [CA]-CB--CG-[CD1] |==|  0.78115
USER: genes 5 Torsion [N]-CA--C-[N] |==|  0.69716
USER: genes 6 Torsion [C]-N--CA-[C] |==|  0.67222
USER: genes 7 Torsion [N]-CA--C-[N] |==|  0.03432
USER: genes 8 Torsion [C]-N--CA-[CB] |==|  0.20545
USER: genes 9 Torsion [N]-CA--C-[O] |==|  0.53879
USER: genes 10 Torsion [N]-CA--CB-[CG] |==|  0.21281
USER: genes 11 Torsion [CA]-CB--CG-[CD2] |==|  0.82564
USER: genes 12 Torsion [CE1]-CZ--OH-[HH] |==|  0.54630
USER: genes 13 Torsion [N]-C--CA-[N] |==|  0.88160
USER: genes 14 Torsion [C]-CA--CB-[CG] |==|  0.40863
USER: genes 15 Torsion [CA]-CB--CG-[CD] |==|  0.12646
USER: genes 16 Torsion [CB]-CG--CD-[OE1] |==|  0.60934
USER: genes 17 Torsion [C]-CA--N-[C] |==|  0.81636
USER: genes 18 Torsion [N]-C--CA-[N] |==|  0.89257
USER: genes 19 Torsion [C]-CA--CB-[CG] |==|  0.10821
USER: genes 20 Torsion [CA]-CB--CG-[ND2] |==|  0.76865
USER: genes 21 Torsion [C]-CA--N-[C] |==|  0.77561
USER: genes 22 Torsion [N]-C--CA-[N] |==|  0.32691
USER: genes 23 Torsion [C]-CA--CB-[CG2] |==|  0.42500
USER: genes 24 Torsion [CA]-CB--OG1-[HG1] |==|  0.74918
USER: genes 25 Torsion [C]-CA--N-[H1] |==|  0.55057
ROOT
ATOM      1  C   GLU Q   3      14.564 -13.268   9.983  1.00 28.90 LIG 0.24  C 
ATOM      2 O    GLU Q   3      13.980 -12.856   8.973  1.00 28.99 LIG-0.27  OA
ATOM      3  N   PHE Q   4      14.069 -14.245  10.742  1.00 26.46 LIG-0.35  N 
ATOM      4 H    PHE Q   4      14.503 -14.588  11.401  1.00 26.46 LIG 0.16  HD
ENDROOT
BRANCH 3 5
ATOM      5  CA  PHE Q   4      12.753 -14.838  10.547  1.00 24.91 LIG 0.18  C 
BRANCH 5 6
ATOM      6  CB  PHE Q   4      12.516 -15.278   9.097  1.00 23.71 LIG 0.07  C 
BRANCH 6 7
ATOM      7  CG  PHE Q   4      11.152 -14.890   8.563  1.00 27.82 LIG-0.06  A 
ATOM      8  CD1 PHE Q   4      10.019 -15.622   8.891  1.00 28.27 LIG 0.01  A 
ATOM      9  CE1 PHE Q   4       8.764 -15.260   8.387  1.00 33.51 LIG 0.00  A 
ATOM     10  CZ  PHE Q   4       8.643 -14.138   7.588  1.00 29.48 LIG 0.00  A 
ATOM     11  CE2 PHE Q   4       9.740 -13.384   7.289  1.00 30.45 LIG 0.00  A 
ATOM     12  CD2 PHE Q   4      11.014 -13.771   7.755  1.00 30.03 LIG 0.01  A 
ENDBRANCH 6 7
ENDBRANCH 5 6
BRANCH 5 13
ATOM     13  C   PHE Q   4      12.591 -16.045  11.464  1.00 24.46 LIG 0.24  C 
ATOM     14 O    PHE Q   4      12.505 -15.920  12.688  1.00 21.72 LIG-0.27  OA
ATOM     15  N   TYR Q   5      12.597 -17.215  10.828  1.00 25.68 LIG-0.35  N 
ATOM     16 H    TYR Q   5      12.664 -17.269   9.972  1.00 25.68 LIG 0.16  HD
BRANCH 15 17
ATOM     17  CA  TYR Q   5      12.492 -18.526  11.470  1.00 24.76 LIG 0.18  C 
BRANCH 17 18
ATOM     18  C   TYR Q   5      13.763 -19.260  11.159  1.00 23.71 LIG 0.24  C 
ATOM     19  N   ALA Q   6      14.740 -18.527  10.644  1.00 23.95 LIG-0.34  N 
ATOM     20 H    ALA Q   6      14.675 -17.689  10.463  1.00 23.95 LIG 0.16  HD
ATOM     21 O    TYR Q   5      13.899 -20.456  11.439  1.00 22.91 LIG-0.27  OA
BRANCH 19 22
ATOM     22  CA  ALA Q   6      16.031 -19.117  10.343  1.00 23.91 LIG 0.18  C 
ATOM     23  CB  ALA Q   6      15.926 -19.981   9.104  1.00 25.24 LIG 0.04  C 
BRANCH 22 24
ATOM     24  C   ALA Q   6      17.164 -18.110  10.190  1.00 23.52 LIG 0.20  C 
ATOM     25 O    ALA Q   6      18.241 -18.407   9.699  1.00 23.09 LIG-0.65  OA
ATOM     26 OXT  ALA Q   6      16.991 -16.962  10.615  1.00 23.23 LIG-0.65  OA
ENDBRANCH 22 24
ENDBRANCH 19 22
ENDBRANCH 17 18
BRANCH 17 27
ATOM     27  CB  TYR Q   5      11.275 -19.299  10.911  1.00 25.21 LIG 0.07  C 
BRANCH 27 28
ATOM     28  CG  TYR Q   5      11.470 -19.908   9.531  1.00 26.66 LIG-0.06  A 
ATOM     29  CD1 TYR Q   5      11.405 -21.276   9.315  1.00 25.58 LIG 0.01  A 
ATOM     30  CE1 TYR Q   5      11.606 -21.816   8.031  1.00 26.73 LIG 0.04  A 
ATOM     31  CZ  TYR Q   5      11.859 -20.974   6.956  1.00 25.10 LIG 0.07  A 
ATOM     32  CE2 TYR Q   5      11.892 -19.622   7.141  1.00 24.98 LIG 0.04  A 
ATOM     33  CD2 TYR Q   5      11.708 -19.088   8.425  1.00 25.59 LIG 0.01  A 
BRANCH 31 34
ATOM     34 OH   TYR Q   5      12.055 -21.483   5.683  1.00 28.49 LIG-0.36  OA
ATOM     35 HH   TYR Q   5      12.415 -20.899   5.199  1.00 28.49 LIG 0.22  HD
ENDBRANCH 31 34
ENDBRANCH 27 28
ENDBRANCH 17 27
ENDBRANCH 15 17
ENDBRANCH 5 13
ENDBRANCH 3 5
BRANCH 1 36
ATOM     36  CA  GLU Q   3      15.938 -12.719  10.378  1.00 29.75 LIG 0.18  C 
BRANCH 36 37
ATOM     37  CB  GLU Q   3      17.071 -13.614   9.852  1.00 29.86 LIG 0.04  C 
BRANCH 37 38
ATOM     38  CG  GLU Q   3      18.393 -12.981   9.447  1.00 30.70 LIG 0.12  C 
BRANCH 38 39
ATOM     39  CD  GLU Q   3      18.867 -11.971  10.482  1.00 35.33 LIG 0.17  C 
ATOM     40 OE1  GLU Q   3      19.393 -10.925  10.031  1.00 35.34 LIG-0.65  OA
ATOM     41 OE2  GLU Q   3      18.736 -12.227  11.712  1.00 35.74 LIG-0.65  OA
ENDBRANCH 38 39
ENDBRANCH 37 38
ENDBRANCH 36 37
BRANCH 36 42
ATOM     42  N   GLU Q   3      16.002 -12.559  11.834  1.00 32.75 LIG-0.35  N 
ATOM     43  C   ASN Q   2      15.239 -11.668  12.473  1.00 36.04 LIG 0.24  C 
ATOM     44 O    ASN Q   2      14.466 -10.905  11.871  1.00 34.76 LIG-0.27  OA
ATOM     45 H    GLU Q   3      16.563 -13.079  12.225  1.00 32.75 LIG 0.16  HD
BRANCH 43 46
ATOM     46  CA  ASN Q   2      15.322 -11.669  14.014  1.00 38.34 LIG 0.18  C 
BRANCH 46 47
ATOM     47  CB  ASN Q   2      16.442 -10.744  14.518  1.00 38.76 LIG 0.14  C 
BRANCH 47 48
ATOM     48  CG  ASN Q   2      16.553  -9.447  13.706  1.00 42.06 LIG 0.22  C 
ATOM     49  ND2 ASN Q   2      17.252  -9.514  12.581  1.00 46.27 LIG-0.37  N 
ATOM     50 22HD ASN Q   2      17.623 -10.254  12.348  1.00 46.27 LIG 0.16  HD
ATOM     51 21HD ASN Q   2      17.336  -8.817  12.084  1.00 46.27 LIG 0.16  HD
ATOM     52 OD1  ASN Q   2      16.006  -8.406  14.077  1.00 44.45 LIG-0.27  OA
ENDBRANCH 47 48
ENDBRANCH 46 47
BRANCH 46 53
ATOM     53  N   ASN Q   2      15.427 -13.004  14.608  1.00 39.54 LIG-0.34  N 
ATOM     54  C   THR Q   1      14.403 -13.824  14.813  1.00 41.49 LIG 0.25  C 
ATOM     55 O    THR Q   1      13.267 -13.599  14.393  1.00 41.78 LIG-0.27  OA
ATOM     56 H    ASN Q   2      16.234 -13.215  14.818  1.00 39.54 LIG 0.16  HD
BRANCH 54 57
ATOM     57  CA  THR Q   1      14.710 -15.125  15.567  1.00 43.16 LIG 0.30  C 
BRANCH 57 58
ATOM     58  CB  THR Q   1      14.386 -16.384  14.722  1.00 43.89 LIG 0.15  C 
ATOM     59  CG2 THR Q   1      15.260 -17.545  15.155  1.00 45.05 LIG 0.04  C 
BRANCH 58 60
ATOM     60 OG1  THR Q   1      13.037 -16.832  14.957  1.00 46.29 LIG-0.39  OA
ATOM     61 HG1  THR Q   1      13.031 -17.385  15.590  1.00 46.29 LIG 0.21  HD
ENDBRANCH 58 60
ENDBRANCH 57 58
BRANCH 57 62
ATOM     62  N   THR Q   1      13.958 -15.198  16.864  1.00 43.28 LIG-0.06  N 
ATOM     63 H2   THR Q   1      13.977 -14.403  17.264  1.00 43.28 LIG 0.28  HD
ATOM     64 H1   THR Q   1      14.336 -15.805  17.394  1.00 43.28 LIG 0.28  HD
ATOM     65 H3   THR Q   1      13.113 -15.429  16.705  1.00 43.28 LIG 0.28  HD
ENDBRANCH 57 62
ENDBRANCH 54 57
ENDBRANCH 46 53
ENDBRANCH 43 46
ENDBRANCH 36 42
ENDBRANCH 1 36
TORSDOF 24
ENDMDL
MODEL 17
USER: ADFR SOLUTION from run 189
USER: SCORE 21.476475 LL:  -6.432 LR: -16.837 RR:   0.000 FEB:  -9.678
USER: RMSD 8.900229
USER: SEED 188
USER: STATUS no improvement in best in 8 clusters for 5 generations
USER: GENES 26
USER: genes 0 Translation |==|  0.44958 0.35827 0.31248
USER: genes 1 Rotation |==|  0.71342 0.56532 0.06469 0.60339
USER: genes 2 Torsion [C]-N--CA-[CB] |==|  0.46841
USER: genes 3 Torsion [N]-CA--CB-[CG] |==|  0.95552
USER: genes 4 Torsion [CA]-CB--CG-[CD1] |==|  0.37850
USER: genes 5 Torsion [N]-CA--C-[N] |==|  0.28399
USER: genes 6 Torsion [C]-N--CA-[C] |==|  0.61295
USER: genes 7 Torsion [N]-CA--C-[N] |==|  0.15270
USER: genes 8 Torsion [C]-N--CA-[CB] |==|  0.25934
USER: genes 9 Torsion [N]-CA--C-[O] |==|  0.57487
USER: genes 10 Torsion [N]-CA--CB-[CG] |==|  0.09366
USER: genes 11 Torsion [CA]-CB--CG-[CD2] |==|  0.64829
USER: genes 12 Torsion [CE1]-CZ--OH-[HH] |==|  0.82724
USER: genes 13 Torsion [N]-C--CA-[N] |==|  0.96730
USER: genes 14 Torsion [C]-CA--CB-[CG] |==|  0.97160
USER: genes 15 Torsion [CA]-CB--CG-[CD] |==|  0.39598
USER: genes 16 Torsion [CB]-CG--CD-[OE1] |==|  0.23086
USER: genes 17 Torsion [C]-CA--N-[C] |==|  0.77619
USER: genes 18 Torsion [N]-C--CA-[N] |==|  0.40231
USER: genes 19 Torsion [C]-CA--CB-[CG] |==|  0.82463
USER: genes 20 Torsion [CA]-CB--CG-[ND2] |==|  0.47735
USER: genes 21 Torsion [C]-CA--N-[C] |==|  0.79612
USER: genes 22 Torsion [N]-C--CA-[N] |==|  0.40063
USER: genes 23 Torsion [C]-CA--CB-[CG2] |==|  0.02751
USER: genes 24 Torsion [CA]-CB--OG1-[HG1] |==|  0.81125
USER: genes 25 Torsion [C]-CA--N-[H1] |==|  0.45758
ROOT
ATOM      1  C   GLU Q   3      13.923 -17.016   9.534  1.00 28.90 LIG 0.24  C 
ATOM      2 O    GLU Q   3      14.120 -17.580   8.451  1.00 28.99 LIG-0.27  OA
ATOM      3  N   PHE Q   4      14.083 -15.702   9.691  1.00 26.46 LIG-0.35  N 
ATOM      4 H    PHE Q   4      13.876 -15.292  10.418  1.00 26.46 LIG 0.16  HD
ENDROOT
BRANCH 3 5
ATOM      5  CA  PHE Q   4      14.621 -14.821   8.662  1.00 24.91 LIG 0.18  C 
BRANCH 5 6
ATOM      6  CB  PHE Q   4      14.437 -13.338   9.005  1.00 23.71 LIG 0.07  C 
BRANCH 6 7
ATOM      7  CG  PHE Q   4      13.425 -13.093  10.106  1.00 27.82 LIG-0.06  A 
ATOM      8  CD1 PHE Q   4      13.681 -12.187  11.127  1.00 28.27 LIG 0.01  A 
ATOM      9  CE1 PHE Q   4      12.744 -11.973  12.143  1.00 33.51 LIG 0.00  A 
ATOM     10  CZ  PHE Q   4      11.531 -12.637  12.110  1.00 29.48 LIG 0.00  A 
ATOM     11  CE2 PHE Q   4      11.246 -13.500  11.092  1.00 30.45 LIG 0.00  A 
ATOM     12  CD2 PHE Q   4      12.207 -13.755  10.091  1.00 30.03 LIG 0.01  A 
ENDBRANCH 6 7
ENDBRANCH 5 6
BRANCH 5 13
ATOM     13  C   PHE Q   4      16.106 -15.105   8.467  1.00 24.46 LIG 0.24  C 
ATOM     14 O    PHE Q   4      16.957 -14.655   9.237  1.00 21.72 LIG-0.27  OA
ATOM     15  N   TYR Q   5      16.382 -15.831   7.385  1.00 25.68 LIG-0.35  N 
ATOM     16 H    TYR Q   5      15.765 -16.126   6.864  1.00 25.68 LIG 0.16  HD
BRANCH 15 17
ATOM     17  CA  TYR Q   5      17.724 -16.217   6.947  1.00 24.76 LIG 0.18  C 
BRANCH 17 18
ATOM     18  C   TYR Q   5      17.748 -16.072   5.454  1.00 23.71 LIG 0.24  C 
ATOM     19  N   ALA Q   6      17.400 -14.882   4.985  1.00 23.95 LIG-0.34  N 
ATOM     20 H    ALA Q   6      17.147 -14.221   5.475  1.00 23.95 LIG 0.16  HD
ATOM     21 O    TYR Q   5      18.138 -16.992   4.726  1.00 22.91 LIG-0.27  OA
BRANCH 19 22
ATOM     22  CA  ALA Q   6      17.427 -14.609   3.561  1.00 23.91 LIG 0.18  C 
ATOM     23  CB  ALA Q   6      16.062 -14.870   2.961  1.00 25.24 LIG 0.04  C 
BRANCH 22 24
ATOM     24  C   ALA Q   6      17.906 -13.209   3.197  1.00 23.52 LIG 0.20  C 
ATOM     25 O    ALA Q   6      17.559 -12.646   2.171  1.00 23.09 LIG-0.65  OA
ATOM     26 OXT  ALA Q   6      18.703 -12.645   3.954  1.00 23.23 LIG-0.65  OA
ENDBRANCH 22 24
ENDBRANCH 19 22
ENDBRANCH 17 18
BRANCH 17 27
ATOM     27  CB  TYR Q   5      18.017 -17.682   7.350  1.00 25.21 LIG 0.07  C 
BRANCH 27 28
ATOM     28  CG  TYR Q   5      16.816 -18.614   7.327  1.00 26.66 LIG-0.06  A 
ATOM     29  CD1 TYR Q   5      16.017 -18.757   6.203  1.00 25.58 LIG 0.01  A 
ATOM     30  CE1 TYR Q   5      14.901 -19.615   6.212  1.00 26.73 LIG 0.04  A 
ATOM     31  CZ  TYR Q   5      14.595 -20.343   7.355  1.00 25.10 LIG 0.07  A 
ATOM     32  CE2 TYR Q   5      15.390 -20.243   8.461  1.00 24.98 LIG 0.04  A 
ATOM     33  CD2 TYR Q   5      16.492 -19.375   8.453  1.00 25.59 LIG 0.01  A 
BRANCH 31 34
ATOM     34 OH   TYR Q   5      13.505 -21.195   7.385  1.00 28.49 LIG-0.36  OA
ATOM     35 HH   TYR Q   5      12.800 -20.754   7.268  1.00 28.49 LIG 0.22  HD
ENDBRANCH 31 34
ENDBRANCH 27 28
ENDBRANCH 17 27
ENDBRANCH 15 17
ENDBRANCH 5 13
ENDBRANCH 3 5
BRANCH 1 36
ATOM     36  CA  GLU Q   3      13.408 -17.796  10.748  1.00 29.75 LIG 0.18  C 
BRANCH 36 37
ATOM     37  CB  GLU Q   3      11.993 -18.344  10.502  1.00 29.86 LIG 0.04  C 
BRANCH 37 38
ATOM     38  CG  GLU Q   3      11.218 -17.879   9.279  1.00 30.70 LIG 0.12  C 
BRANCH 38 39
ATOM     39  CD  GLU Q   3      10.399 -19.012   8.675  1.00 35.33 LIG 0.17  C 
ATOM     40 OE1  GLU Q   3       9.284 -19.229   9.206  1.00 35.34 LIG-0.65  OA
ATOM     41 OE2  GLU Q   3      10.869 -19.677   7.709  1.00 35.74 LIG-0.65  OA
ENDBRANCH 38 39
ENDBRANCH 37 38
ENDBRANCH 36 37
BRANCH 36 42
ATOM     42  N   GLU Q   3      13.463 -16.942  11.938  1.00 32.75 LIG-0.35  N 
ATOM     43  C   ASN Q   2      14.600 -16.756  12.613  1.00 36.04 LIG 0.24  C 
ATOM     44 O    ASN Q   2      15.659 -17.323  12.295  1.00 34.76 LIG-0.27  OA
ATOM     45 H    GLU Q   3      12.712 -16.583  12.153  1.00 32.75 LIG 0.16  HD
BRANCH 43 46
ATOM     46  CA  ASN Q   2      14.550 -15.753  13.785  1.00 38.34 LIG 0.18  C 
BRANCH 46 47
ATOM     47  CB  ASN Q   2      14.841 -14.319  13.312  1.00 38.76 LIG 0.14  C 
BRANCH 47 48
ATOM     48  CG  ASN Q   2      16.255 -14.158  12.738  1.00 42.06 LIG 0.22  C 
ATOM     49  ND2 ASN Q   2      16.526 -12.997  12.156  1.00 46.27 LIG-0.37  N 
ATOM     50 22HD ASN Q   2      15.920 -12.389  12.107  1.00 46.27 LIG 0.16  HD
ATOM     51 21HD ASN Q   2      17.307 -12.853  11.828  1.00 46.27 LIG 0.16  HD
ATOM     52 OD1  ASN Q   2      17.093 -15.058  12.829  1.00 44.45 LIG-0.27  OA
ENDBRANCH 47 48
ENDBRANCH 46 47
BRANCH 46 53
ATOM     53  N   ASN Q   2      15.398 -16.119  14.923  1.00 39.54 LIG-0.34  N 
ATOM     54  C   THR Q   1      15.131 -17.098  15.781  1.00 41.49 LIG 0.25  C 
ATOM     55 O    THR Q   1      14.205 -17.895  15.624  1.00 41.78 LIG-0.27  OA
ATOM     56 H    ASN Q   2      16.102 -15.631  14.987  1.00 39.54 LIG 0.16  HD
BRANCH 54 57
ATOM     57  CA  THR Q   1      16.081 -17.233  16.979  1.00 43.16 LIG 0.30  C 
BRANCH 57 58
ATOM     58  CB  THR Q   1      17.232 -18.235  16.706  1.00 43.89 LIG 0.15  C 
ATOM     59  CG2 THR Q   1      17.247 -18.630  15.242  1.00 45.05 LIG 0.04  C 
BRANCH 58 60
ATOM     60 OG1  THR Q   1      18.516 -17.625  16.935  1.00 46.29 LIG-0.39  OA
ATOM     61 HG1  THR Q   1      18.654 -17.035  16.353  1.00 46.29 LIG 0.21  HD
ENDBRANCH 58 60
ENDBRANCH 57 58
BRANCH 57 62
ATOM     62  N   THR Q   1      15.345 -17.656  18.217  1.00 43.28 LIG-0.06  N 
ATOM     63 H2   THR Q   1      14.888 -16.965  18.542  1.00 43.28 LIG 0.28  HD
ATOM     64 H1   THR Q   1      15.929 -17.939  18.828  1.00 43.28 LIG 0.28  HD
ATOM     65 H3   THR Q   1      14.782 -18.315  18.017  1.00 43.28 LIG 0.28  HD
ENDBRANCH 57 62
ENDBRANCH 54 57
ENDBRANCH 46 53
ENDBRANCH 43 46
ENDBRANCH 36 42
ENDBRANCH 1 36
TORSDOF 24
ENDMDL
MODEL 18
USER: ADFR SOLUTION from run 191
USER: SCORE 19.876679 LL:  -5.149 LR: -16.770 RR:   0.000 FEB:  -9.611
USER: RMSD 12.542311
USER: SEED 190
USER: STATUS no improvement in best in 3 clusters for 5 generations
USER: GENES 26
USER: genes 0 Translation |==|  0.46626 0.45076 0.29740
USER: genes 1 Rotation |==|  0.78751 0.43752 0.89782 0.57191
USER: genes 2 Torsion [C]-N--CA-[CB] |==|  0.89424
USER: genes 3 Torsion [N]-CA--CB-[CG] |==|  0.65676
USER: genes 4 Torsion [CA]-CB--CG-[CD1] |==|  0.98983
USER: genes 5 Torsion [N]-CA--C-[N] |==|  0.82376
USER: genes 6 Torsion [C]-N--CA-[C] |==|  0.76218
USER: genes 7 Torsion [N]-CA--C-[N] |==|  0.38395
USER: genes 8 Torsion [C]-N--CA-[CB] |==|  0.17323
USER: genes 9 Torsion [N]-CA--C-[O] |==|  0.82555
USER: genes 10 Torsion [N]-CA--CB-[CG] |==|  0.23947
USER: genes 11 Torsion [CA]-CB--CG-[CD2] |==|  0.73821
USER: genes 12 Torsion [CE1]-CZ--OH-[HH] |==|  0.09522
USER: genes 13 Torsion [N]-C--CA-[N] |==|  0.83786
USER: genes 14 Torsion [C]-CA--CB-[CG] |==|  0.63993
USER: genes 15 Torsion [CA]-CB--CG-[CD] |==|  0.21030
USER: genes 16 Torsion [CB]-CG--CD-[OE1] |==|  0.67588
USER: genes 17 Torsion [C]-CA--N-[C] |==|  0.61383
USER: genes 18 Torsion [N]-C--CA-[N] |==|  0.06365
USER: genes 19 Torsion [C]-CA--CB-[CG] |==|  0.39648
USER: genes 20 Torsion [CA]-CB--CG-[ND2] |==|  0.42586
USER: genes 21 Torsion [C]-CA--N-[C] |==|  0.57404
USER: genes 22 Torsion [N]-C--CA-[N] |==|  0.69766
USER: genes 23 Torsion [C]-CA--CB-[CG2] |==|  0.25437
USER: genes 24 Torsion [CA]-CB--OG1-[HG1] |==|  0.16160
USER: genes 25 Torsion [C]-CA--N-[H1] |==|  0.15646
ROOT
ATOM      1  C   GLU Q   3      14.248 -15.143   9.138  1.00 28.90 LIG 0.24  C 
ATOM      2 O    GLU Q   3      13.250 -15.462   9.795  1.00 28.99 LIG-0.27  OA
ATOM      3  N   PHE Q   4      14.333 -13.980   8.493  1.00 26.46 LIG-0.35  N 
ATOM      4 H    PHE Q   4      15.051 -13.719   8.096  1.00 26.46 LIG 0.16  HD
ENDROOT
BRANCH 3 5
ATOM      5  CA  PHE Q   4      13.236 -13.028   8.385  1.00 24.91 LIG 0.18  C 
BRANCH 5 6
ATOM      6  CB  PHE Q   4      11.878 -13.716   8.200  1.00 23.71 LIG 0.07  C 
BRANCH 6 7
ATOM      7  CG  PHE Q   4      11.138 -13.270   6.956  1.00 27.82 LIG-0.06  A 
ATOM      8  CD1 PHE Q   4      11.648 -12.271   6.138  1.00 28.27 LIG 0.01  A 
ATOM      9  CE1 PHE Q   4      10.954 -11.860   4.994  1.00 33.51 LIG 0.00  A 
ATOM     10  CZ  PHE Q   4       9.769 -12.484   4.649  1.00 29.48 LIG 0.00  A 
ATOM     11  CE2 PHE Q   4       9.275 -13.497   5.419  1.00 30.45 LIG 0.00  A 
ATOM     12  CD2 PHE Q   4       9.946 -13.881   6.599  1.00 30.03 LIG 0.01  A 
ENDBRANCH 6 7
ENDBRANCH 5 6
BRANCH 5 13
ATOM     13  C   PHE Q   4      13.185 -12.158   9.636  1.00 24.46 LIG 0.24  C 
ATOM     14 O    PHE Q   4      13.406 -10.945   9.589  1.00 21.72 LIG-0.27  OA
ATOM     15  N   TYR Q   5      12.928 -12.831  10.755  1.00 25.68 LIG-0.35  N 
ATOM     16 H    TYR Q   5      12.783 -13.679  10.755  1.00 25.68 LIG 0.16  HD
BRANCH 15 17
ATOM     17  CA  TYR Q   5      12.857 -12.246  12.095  1.00 24.76 LIG 0.18  C 
BRANCH 17 18
ATOM     18  C   TYR Q   5      14.260 -12.213  12.625  1.00 23.71 LIG 0.24  C 
ATOM     19  N   ALA Q   6      14.605 -11.110  13.274  1.00 23.95 LIG-0.34  N 
ATOM     20 H    ALA Q   6      14.092 -10.427  13.379  1.00 23.95 LIG 0.16  HD
ATOM     21 O    TYR Q   5      15.009 -13.190  12.519  1.00 22.91 LIG-0.27  OA
BRANCH 19 22
ATOM     22  CA  ALA Q   6      15.921 -10.980  13.869  1.00 23.91 LIG 0.18  C 
ATOM     23  CB  ALA Q   6      16.983 -11.044  12.792  1.00 25.24 LIG 0.04  C 
BRANCH 22 24
ATOM     24  C   ALA Q   6      16.106  -9.730  14.721  1.00 23.52 LIG 0.20  C 
ATOM     25 O    ALA Q   6      16.031  -8.605  14.255  1.00 23.09 LIG-0.65  OA
ATOM     26 OXT  ALA Q   6      16.379  -9.870  15.918  1.00 23.23 LIG-0.65  OA
ENDBRANCH 22 24
ENDBRANCH 19 22
ENDBRANCH 17 18
BRANCH 17 27
ATOM     27  CB  TYR Q   5      11.957 -13.112  13.009  1.00 25.21 LIG 0.07  C 
BRANCH 27 28
ATOM     28  CG  TYR Q   5      12.659 -14.268  13.704  1.00 26.66 LIG-0.06  A 
ATOM     29  CD1 TYR Q   5      13.312 -14.111  14.917  1.00 25.58 LIG 0.01  A 
ATOM     30  CE1 TYR Q   5      13.967 -15.194  15.531  1.00 26.73 LIG 0.04  A 
ATOM     31  CZ  TYR Q   5      13.956 -16.445  14.928  1.00 25.10 LIG 0.07  A 
ATOM     32  CE2 TYR Q   5      13.289 -16.629  13.751  1.00 24.98 LIG 0.04  A 
ATOM     33  CD2 TYR Q   5      12.650 -15.544  13.134  1.00 25.59 LIG 0.01  A 
BRANCH 31 34
ATOM     34 OH   TYR Q   5      14.591 -17.525  15.518  1.00 28.49 LIG-0.36  OA
ATOM     35 HH   TYR Q   5      14.531 -17.465  16.353  1.00 28.49 LIG 0.22  HD
ENDBRANCH 31 34
ENDBRANCH 27 28
ENDBRANCH 17 27
ENDBRANCH 15 17
ENDBRANCH 5 13
ENDBRANCH 3 5
BRANCH 1 36
ATOM     36  CA  GLU Q   3      15.482 -16.049   9.089  1.00 29.75 LIG 0.18  C 
BRANCH 36 37
ATOM     37  CB  GLU Q   3      16.672 -15.415   9.827  1.00 29.86 LIG 0.04  C 
BRANCH 37 38
ATOM     38  CG  GLU Q   3      18.020 -15.330   9.129  1.00 30.70 LIG 0.12  C 
BRANCH 38 39
ATOM     39  CD  GLU Q   3      18.038 -14.224   8.083  1.00 35.33 LIG 0.17  C 
ATOM     40 OE1  GLU Q   3      18.205 -14.591   6.896  1.00 35.34 LIG-0.65  OA
ATOM     41 OE2  GLU Q   3      17.907 -13.020   8.443  1.00 35.74 LIG-0.65  OA
ENDBRANCH 38 39
ENDBRANCH 37 38
ENDBRANCH 36 37
BRANCH 36 42
ATOM     42  N   GLU Q   3      15.809 -16.358   7.693  1.00 32.75 LIG-0.35  N 
ATOM     43  C   ASN Q   2      16.191 -17.582   7.319  1.00 36.04 LIG 0.24  C 
ATOM     44 O    ASN Q   2      16.327 -18.510   8.133  1.00 34.76 LIG-0.27  OA
ATOM     45 H    GLU Q   3      15.733 -15.692   7.154  1.00 32.75 LIG 0.16  HD
BRANCH 43 46
ATOM     46  CA  ASN Q   2      16.405 -17.805   5.807  1.00 38.34 LIG 0.18  C 
BRANCH 46 47
ATOM     47  CB  ASN Q   2      17.478 -18.874   5.542  1.00 38.76 LIG 0.14  C 
BRANCH 47 48
ATOM     48  CG  ASN Q   2      17.147 -19.762   4.335  1.00 42.06 LIG 0.22  C 
ATOM     49  ND2 ASN Q   2      18.178 -20.306   3.703  1.00 46.27 LIG-0.37  N 
ATOM     50 22HD ASN Q   2      18.980 -20.144   3.969  1.00 46.27 LIG 0.16  HD
ATOM     51 21HD ASN Q   2      18.046 -20.820   3.026  1.00 46.27 LIG 0.16  HD
ATOM     52 OD1  ASN Q   2      15.982 -19.966   3.986  1.00 44.45 LIG-0.27  OA
ENDBRANCH 47 48
ENDBRANCH 46 47
BRANCH 46 53
ATOM     53  N   ASN Q   2      16.679 -16.579   5.053  1.00 39.54 LIG-0.34  N 
ATOM     54  C   THR Q   1      16.407 -16.407   3.765  1.00 41.49 LIG 0.25  C 
ATOM     55 O    THR Q   1      15.763 -17.219   3.099  1.00 41.78 LIG-0.27  OA
ATOM     56 H    ASN Q   2      17.041 -15.964   5.533  1.00 39.54 LIG 0.16  HD
BRANCH 54 57
ATOM     57  CA  THR Q   1      16.892 -15.094   3.134  1.00 43.16 LIG 0.30  C 
BRANCH 57 58
ATOM     58  CB  THR Q   1      17.912 -14.351   4.036  1.00 43.89 LIG 0.15  C 
ATOM     59  CG2 THR Q   1      19.326 -14.770   3.682  1.00 45.05 LIG 0.04  C 
BRANCH 58 60
ATOM     60 OG1  THR Q   1      17.878 -12.931   3.796  1.00 46.29 LIG-0.39  OA
ATOM     61 HG1  THR Q   1      17.102 -12.641   3.938  1.00 46.29 LIG 0.21  HD
ENDBRANCH 58 60
ENDBRANCH 57 58
BRANCH 57 62
ATOM     62  N   THR Q   1      15.745 -14.174   2.832  1.00 43.28 LIG-0.06  N 
ATOM     63 H2   THR Q   1      16.058 -13.402   2.518  1.00 43.28 LIG 0.28  HD
ATOM     64 H1   THR Q   1      15.280 -14.024   3.576  1.00 43.28 LIG 0.28  HD
ATOM     65 H3   THR Q   1      15.217 -14.549   2.222  1.00 43.28 LIG 0.28  HD
ENDBRANCH 57 62
ENDBRANCH 54 57
ENDBRANCH 46 53
ENDBRANCH 43 46
ENDBRANCH 36 42
ENDBRANCH 1 36
TORSDOF 24
ENDMDL
MODEL 19
USER: ADFR SOLUTION from run 199
USER: SCORE 20.165121 LL:  -5.644 LR: -16.757 RR:   0.000 FEB:  -9.598
USER: RMSD 9.213566
USER: SEED 198
USER: STATUS no improvement in best in 4 clusters for 5 generations
USER: GENES 26
USER: genes 0 Translation |==|  0.54610 0.40391 0.39452
USER: genes 1 Rotation |==|  0.18844 0.72697 0.23518 0.67687
USER: genes 2 Torsion [C]-N--CA-[CB] |==|  0.55128
USER: genes 3 Torsion [N]-CA--CB-[CG] |==|  0.18035
USER: genes 4 Torsion [CA]-CB--CG-[CD1] |==|  0.28292
USER: genes 5 Torsion [N]-CA--C-[N] |==|  0.87035
USER: genes 6 Torsion [C]-N--CA-[C] |==|  0.80704
USER: genes 7 Torsion [N]-CA--C-[N] |==|  0.32051
USER: genes 8 Torsion [C]-N--CA-[CB] |==|  0.34163
USER: genes 9 Torsion [N]-CA--C-[O] |==|  0.45530
USER: genes 10 Torsion [N]-CA--CB-[CG] |==|  0.56103
USER: genes 11 Torsion [CA]-CB--CG-[CD2] |==|  0.00611
USER: genes 12 Torsion [CE1]-CZ--OH-[HH] |==|  0.06894
USER: genes 13 Torsion [N]-C--CA-[N] |==|  0.44547
USER: genes 14 Torsion [C]-CA--CB-[CG] |==|  0.35012
USER: genes 15 Torsion [CA]-CB--CG-[CD] |==|  0.18397
USER: genes 16 Torsion [CB]-CG--CD-[OE1] |==|  0.82853
USER: genes 17 Torsion [C]-CA--N-[C] |==|  0.22572
USER: genes 18 Torsion [N]-C--CA-[N] |==|  0.02053
USER: genes 19 Torsion [C]-CA--CB-[CG] |==|  0.88250
USER: genes 20 Torsion [CA]-CB--CG-[ND2] |==|  0.74608
USER: genes 21 Torsion [C]-CA--N-[C] |==|  0.76180
USER: genes 22 Torsion [N]-C--CA-[N] |==|  0.32885
USER: genes 23 Torsion [C]-CA--CB-[CG2] |==|  0.18541
USER: genes 24 Torsion [CA]-CB--OG1-[HG1] |==|  0.97158
USER: genes 25 Torsion [C]-CA--N-[H1] |==|  0.06661
ROOT
ATOM      1  C   GLU Q   3      15.805 -16.092  11.687  1.00 28.90 LIG 0.24  C 
ATOM      2 O    GLU Q   3      15.157 -17.129  11.501  1.00 28.99 LIG-0.27  OA
ATOM      3  N   PHE Q   4      15.462 -15.195  12.611  1.00 26.46 LIG-0.35  N 
ATOM      4 H    PHE Q   4      15.947 -14.509  12.798  1.00 26.46 LIG 0.16  HD
ENDROOT
BRANCH 3 5
ATOM      5  CA  PHE Q   4      14.240 -15.269  13.401  1.00 24.91 LIG 0.18  C 
BRANCH 5 6
ATOM      6  CB  PHE Q   4      13.871 -13.925  14.040  1.00 23.71 LIG 0.07  C 
BRANCH 6 7
ATOM      7  CG  PHE Q   4      13.525 -12.851  13.030  1.00 27.82 LIG-0.06  A 
ATOM      8  CD1 PHE Q   4      12.204 -12.508  12.771  1.00 28.27 LIG 0.01  A 
ATOM      9  CE1 PHE Q   4      11.893 -11.519  11.831  1.00 33.51 LIG 0.00  A 
ATOM     10  CZ  PHE Q   4      12.912 -10.844  11.182  1.00 29.48 LIG 0.00  A 
ATOM     11  CE2 PHE Q   4      14.216 -11.139  11.455  1.00 30.45 LIG 0.00  A 
ATOM     12  CD2 PHE Q   4      14.533 -12.168  12.366  1.00 30.03 LIG 0.01  A 
ENDBRANCH 6 7
ENDBRANCH 5 6
BRANCH 5 13
ATOM     13  C   PHE Q   4      13.085 -15.734  12.520  1.00 24.46 LIG 0.24  C 
ATOM     14 O    PHE Q   4      12.329 -16.643  12.871  1.00 21.72 LIG-0.27  OA
ATOM     15  N   TYR Q   5      13.008 -15.104  11.350  1.00 25.68 LIG-0.35  N 
ATOM     16 H    TYR Q   5      13.555 -14.476  11.132  1.00 25.68 LIG 0.16  HD
BRANCH 15 17
ATOM     17  CA  TYR Q   5      12.019 -15.378  10.307  1.00 24.76 LIG 0.18  C 
BRANCH 17 18
ATOM     18  C   TYR Q   5      12.350 -16.730   9.745  1.00 23.71 LIG 0.24  C 
ATOM     19  N   ALA Q   6      11.439 -17.673   9.938  1.00 23.95 LIG-0.34  N 
ATOM     20 H    ALA Q   6      10.707 -17.559  10.376  1.00 23.95 LIG 0.16  HD
ATOM     21 O    TYR Q   5      13.378 -16.915   9.083  1.00 22.91 LIG-0.27  OA
BRANCH 19 22
ATOM     22  CA  ALA Q   6      11.628 -19.008   9.402  1.00 23.91 LIG 0.18  C 
ATOM     23  CB  ALA Q   6      11.567 -20.025  10.521  1.00 25.24 LIG 0.04  C 
BRANCH 22 24
ATOM     24  C   ALA Q   6      10.656 -19.384   8.291  1.00 23.52 LIG 0.20  C 
ATOM     25 O    ALA Q   6      10.849 -20.332   7.547  1.00 23.09 LIG-0.65  OA
ATOM     26 OXT  ALA Q   6       9.656 -18.678   8.121  1.00 23.23 LIG-0.65  OA
ENDBRANCH 22 24
ENDBRANCH 19 22
ENDBRANCH 17 18
BRANCH 17 27
ATOM     27  CB  TYR Q   5      12.098 -14.302   9.199  1.00 25.21 LIG 0.07  C 
BRANCH 27 28
ATOM     28  CG  TYR Q   5      10.843 -14.145   8.354  1.00 26.66 LIG-0.06  A 
ATOM     29  CD1 TYR Q   5      10.781 -13.265   7.285  1.00 25.58 LIG 0.01  A 
ATOM     30  CE1 TYR Q   5       9.603 -13.127   6.528  1.00 26.73 LIG 0.04  A 
ATOM     31  CZ  TYR Q   5       8.484 -13.889   6.841  1.00 25.10 LIG 0.07  A 
ATOM     32  CE2 TYR Q   5       8.536 -14.787   7.868  1.00 24.98 LIG 0.04  A 
ATOM     33  CD2 TYR Q   5       9.707 -14.910   8.630  1.00 25.59 LIG 0.01  A 
BRANCH 31 34
ATOM     34 OH   TYR Q   5       7.316 -13.772   6.107  1.00 28.49 LIG-0.36  OA
ATOM     35 HH   TYR Q   5       7.495 -13.492   5.336  1.00 28.49 LIG 0.22  HD
ENDBRANCH 31 34
ENDBRANCH 27 28
ENDBRANCH 17 27
ENDBRANCH 15 17
ENDBRANCH 5 13
ENDBRANCH 3 5
BRANCH 1 36
ATOM     36  CA  GLU Q   3      17.093 -15.815  10.904  1.00 29.75 LIG 0.18  C 
BRANCH 36 37
ATOM     37  CB  GLU Q   3      16.884 -14.711   9.856  1.00 29.86 LIG 0.04  C 
BRANCH 37 38
ATOM     38  CG  GLU Q   3      17.809 -13.504   9.852  1.00 30.70 LIG 0.12  C 
BRANCH 38 39
ATOM     39  CD  GLU Q   3      19.233 -13.895   9.487  1.00 35.33 LIG 0.17  C 
ATOM     40 OE1  GLU Q   3      19.801 -14.700  10.264  1.00 35.34 LIG-0.65  OA
ATOM     41 OE2  GLU Q   3      19.776 -13.396   8.460  1.00 35.74 LIG-0.65  OA
ENDBRANCH 38 39
ENDBRANCH 37 38
ENDBRANCH 36 37
BRANCH 36 42
ATOM     42  N   GLU Q   3      17.574 -17.059  10.296  1.00 32.75 LIG-0.35  N 
ATOM     43  C   ASN Q   2      17.062 -17.522   9.153  1.00 36.04 LIG 0.24  C 
ATOM     44 O    ASN Q   2      16.130 -16.949   8.565  1.00 34.76 LIG-0.27  OA
ATOM     45 H    GLU Q   3      18.200 -17.451  10.736  1.00 32.75 LIG 0.16  HD
BRANCH 43 46
ATOM     46  CA  ASN Q   2      17.725 -18.784   8.561  1.00 38.34 LIG 0.18  C 
BRANCH 46 47
ATOM     47  CB  ASN Q   2      16.675 -19.810   8.104  1.00 38.76 LIG 0.14  C 
BRANCH 47 48
ATOM     48  CG  ASN Q   2      15.518 -19.960   9.101  1.00 42.06 LIG 0.22  C 
ATOM     49  ND2 ASN Q   2      15.656 -20.897  10.028  1.00 46.27 LIG-0.37  N 
ATOM     50 22HD ASN Q   2      16.361 -21.389  10.041  1.00 46.27 LIG 0.16  HD
ATOM     51 21HD ASN Q   2      15.040 -21.014  10.617  1.00 46.27 LIG 0.16  HD
ATOM     52 OD1  ASN Q   2      14.522 -19.233   9.045  1.00 44.45 LIG-0.27  OA
ENDBRANCH 47 48
ENDBRANCH 46 47
BRANCH 46 53
ATOM     53  N   ASN Q   2      18.725 -19.401   9.436  1.00 39.54 LIG-0.34  N 
ATOM     54  C   THR Q   1      20.004 -19.045   9.493  1.00 41.49 LIG 0.25  C 
ATOM     55 O    THR Q   1      20.452 -18.056   8.912  1.00 41.78 LIG-0.27  OA
ATOM     56 H    ASN Q   2      18.401 -20.032   9.923  1.00 39.54 LIG 0.16  HD
BRANCH 54 57
ATOM     57  CA  THR Q   1      20.913 -19.905  10.382  1.00 43.16 LIG 0.30  C 
BRANCH 57 58
ATOM     58  CB  THR Q   1      21.552 -19.088  11.534  1.00 43.89 LIG 0.15  C 
ATOM     59  CG2 THR Q   1      20.483 -18.636  12.511  1.00 45.05 LIG 0.04  C 
BRANCH 58 60
ATOM     60 OG1  THR Q   1      22.442 -19.906  12.317  1.00 46.29 LIG-0.39  OA
ATOM     61 HG1  THR Q   1      22.351 -20.712  12.096  1.00 46.29 LIG 0.21  HD
ENDBRANCH 58 60
ENDBRANCH 57 58
BRANCH 57 62
ATOM     62  N   THR Q   1      22.002 -20.558   9.581  1.00 43.28 LIG-0.06  N 
ATOM     63 H2   THR Q   1      22.749 -20.590  10.065  1.00 43.28 LIG 0.28  HD
ATOM     64 H1   THR Q   1      22.150 -20.086   8.840  1.00 43.28 LIG 0.28  HD
ATOM     65 H3   THR Q   1      21.756 -21.384   9.362  1.00 43.28 LIG 0.28  HD
ENDBRANCH 57 62
ENDBRANCH 54 57
ENDBRANCH 46 53
ENDBRANCH 43 46
ENDBRANCH 36 42
ENDBRANCH 1 36
TORSDOF 24
ENDMDL
MODEL 20
USER: ADFR SOLUTION from run 102
USER: SCORE 21.059038 LL:  -6.706 LR: -16.762 RR:   0.000 FEB:  -9.603
USER: RMSD 9.398006
USER: SEED 101
USER: STATUS no improvement in best in 5 clusters for 5 generations
USER: GENES 26
USER: genes 0 Translation |==|  0.45308 0.35847 0.31178
USER: genes 1 Rotation |==|  0.67979 0.56831 0.05348 0.61673
USER: genes 2 Torsion [C]-N--CA-[CB] |==|  0.39349
USER: genes 3 Torsion [N]-CA--CB-[CG] |==|  0.81667
USER: genes 4 Torsion [CA]-CB--CG-[CD1] |==|  0.64933
USER: genes 5 Torsion [N]-CA--C-[N] |==|  0.27556
USER: genes 6 Torsion [C]-N--CA-[C] |==|  0.62616
USER: genes 7 Torsion [N]-CA--C-[N] |==|  0.11076
USER: genes 8 Torsion [C]-N--CA-[CB] |==|  0.34813
USER: genes 9 Torsion [N]-CA--C-[O] |==|  0.59876
USER: genes 10 Torsion [N]-CA--CB-[CG] |==|  0.06018
USER: genes 11 Torsion [CA]-CB--CG-[CD2] |==|  0.14179
USER: genes 12 Torsion [CE1]-CZ--OH-[HH] |==|  0.80203
USER: genes 13 Torsion [N]-C--CA-[N] |==|  0.94669
USER: genes 14 Torsion [C]-CA--CB-[CG] |==|  0.20679
USER: genes 15 Torsion [CA]-CB--CG-[CD] |==|  0.67522
USER: genes 16 Torsion [CB]-CG--CD-[OE1] |==|  0.37056
USER: genes 17 Torsion [C]-CA--N-[C] |==|  0.77554
USER: genes 18 Torsion [N]-C--CA-[N] |==|  0.86111
USER: genes 19 Torsion [C]-CA--CB-[CG] |==|  0.75197
USER: genes 20 Torsion [CA]-CB--CG-[ND2] |==|  0.67588
USER: genes 21 Torsion [C]-CA--N-[C] |==|  0.77962
USER: genes 22 Torsion [N]-C--CA-[N] |==|  0.42435
USER: genes 23 Torsion [C]-CA--CB-[CG2] |==|  0.23825
USER: genes 24 Torsion [CA]-CB--OG1-[HG1] |==|  0.42752
USER: genes 25 Torsion [C]-CA--N-[H1] |==|  0.39316
ROOT
ATOM      1  C   GLU Q   3      13.991 -17.012   9.515  1.00 28.90 LIG 0.24  C 
ATOM      2 O    GLU Q   3      14.081 -17.618   8.441  1.00 28.99 LIG-0.27  OA
ATOM      3  N   PHE Q   4      14.088 -15.685   9.594  1.00 26.46 LIG-0.35  N 
ATOM      4 H    PHE Q   4      13.952 -15.251  10.324  1.00 26.46 LIG 0.16  HD
ENDROOT
BRANCH 3 5
ATOM      5  CA  PHE Q   4      14.431 -14.827   8.468  1.00 24.91 LIG 0.18  C 
BRANCH 5 6
ATOM      6  CB  PHE Q   4      13.639 -13.515   8.467  1.00 23.71 LIG 0.07  C 
BRANCH 6 7
ATOM      7  CG  PHE Q   4      12.153 -13.705   8.245  1.00 27.82 LIG-0.06  A 
ATOM      8  CD1 PHE Q   4      11.484 -13.022   7.238  1.00 28.27 LIG 0.01  A 
ATOM      9  CE1 PHE Q   4      10.110 -13.199   7.045  1.00 33.51 LIG 0.00  A 
ATOM     10  CZ  PHE Q   4       9.415 -14.095   7.837  1.00 29.48 LIG 0.00  A 
ATOM     11  CE2 PHE Q   4      10.064 -14.806   8.803  1.00 30.45 LIG 0.00  A 
ATOM     12  CD2 PHE Q   4      11.440 -14.596   9.034  1.00 30.03 LIG 0.01  A 
ENDBRANCH 6 7
ENDBRANCH 5 6
BRANCH 5 13
ATOM     13  C   PHE Q   4      15.922 -14.507   8.500  1.00 24.46 LIG 0.24  C 
ATOM     14 O    PHE Q   4      16.374 -13.602   9.205  1.00 21.72 LIG-0.27  OA
ATOM     15  N   TYR Q   5      16.654 -15.257   7.679  1.00 25.68 LIG-0.35  N 
ATOM     16 H    TYR Q   5      16.308 -15.878   7.195  1.00 25.68 LIG 0.16  HD
BRANCH 15 17
ATOM     17  CA  TYR Q   5      18.101 -15.136   7.490  1.00 24.76 LIG 0.18  C 
BRANCH 17 18
ATOM     18  C   TYR Q   5      18.347 -15.179   6.011  1.00 23.71 LIG 0.24  C 
ATOM     19  N   ALA Q   6      17.473 -14.521   5.262  1.00 23.95 LIG-0.34  N 
ATOM     20 H    ALA Q   6      16.784 -14.109   5.569  1.00 23.95 LIG 0.16  HD
ATOM     21 O    TYR Q   5      19.347 -15.735   5.542  1.00 22.91 LIG-0.27  OA
BRANCH 19 22
ATOM     22  CA  ALA Q   6      17.632 -14.455   3.822  1.00 23.91 LIG 0.18  C 
ATOM     23  CB  ALA Q   6      16.373 -14.947   3.141  1.00 25.24 LIG 0.04  C 
BRANCH 22 24
ATOM     24  C   ALA Q   6      18.015 -13.079   3.293  1.00 23.52 LIG 0.20  C 
ATOM     25 O    ALA Q   6      17.605 -12.651   2.226  1.00 23.09 LIG-0.65  OA
ATOM     26 OXT  ALA Q   6      18.800 -12.392   3.956  1.00 23.23 LIG-0.65  OA
ENDBRANCH 22 24
ENDBRANCH 19 22
ENDBRANCH 17 18
BRANCH 17 27
ATOM     27  CB  TYR Q   5      18.831 -16.306   8.191  1.00 25.21 LIG 0.07  C 
BRANCH 27 28
ATOM     28  CG  TYR Q   5      17.981 -17.541   8.447  1.00 26.66 LIG-0.06  A 
ATOM     29  CD1 TYR Q   5      17.896 -18.128   9.700  1.00 25.58 LIG 0.01  A 
ATOM     30  CE1 TYR Q   5      17.115 -19.281   9.908  1.00 26.73 LIG 0.04  A 
ATOM     31  CZ  TYR Q   5      16.406 -19.838   8.852  1.00 25.10 LIG 0.07  A 
ATOM     32  CE2 TYR Q   5      16.448 -19.255   7.618  1.00 24.98 LIG 0.04  A 
ATOM     33  CD2 TYR Q   5      17.240 -18.116   7.411  1.00 25.59 LIG 0.01  A 
BRANCH 31 34
ATOM     34 OH   TYR Q   5      15.628 -20.969   9.034  1.00 28.49 LIG-0.36  OA
ATOM     35 HH   TYR Q   5      16.126 -21.636   9.149  1.00 28.49 LIG 0.22  HD
ENDBRANCH 31 34
ENDBRANCH 27 28
ENDBRANCH 17 27
ENDBRANCH 15 17
ENDBRANCH 5 13
ENDBRANCH 3 5
BRANCH 1 36
ATOM     36  CA  GLU Q   3      13.689 -17.758  10.818  1.00 29.75 LIG 0.18  C 
BRANCH 36 37
ATOM     37  CB  GLU Q   3      12.229 -18.239  10.862  1.00 29.86 LIG 0.04  C 
BRANCH 37 38
ATOM     38  CG  GLU Q   3      11.813 -19.430  10.013  1.00 30.70 LIG 0.12  C 
BRANCH 38 39
ATOM     39  CD  GLU Q   3      10.776 -19.036   8.971  1.00 35.33 LIG 0.17  C 
ATOM     40 OE1  GLU Q   3      10.979 -19.453   7.806  1.00 35.34 LIG-0.65  OA
ATOM     41 OE2  GLU Q   3       9.796 -18.312   9.306  1.00 35.74 LIG-0.65  OA
ENDBRANCH 38 39
ENDBRANCH 37 38
ENDBRANCH 36 37
BRANCH 36 42
ATOM     42  N   GLU Q   3      14.014 -16.900  11.962  1.00 32.75 LIG-0.35  N 
ATOM     43  C   ASN Q   2      15.268 -16.768  12.402  1.00 36.04 LIG 0.24  C 
ATOM     44 O    ASN Q   2      16.216 -17.390  11.896  1.00 34.76 LIG-0.27  OA
ATOM     45 H    GLU Q   3      13.337 -16.502  12.311  1.00 32.75 LIG 0.16  HD
BRANCH 43 46
ATOM     46  CA  ASN Q   2      15.494 -15.756  13.545  1.00 38.34 LIG 0.18  C 
BRANCH 46 47
ATOM     47  CB  ASN Q   2      15.043 -16.325  14.899  1.00 38.76 LIG 0.14  C 
BRANCH 47 48
ATOM     48  CG  ASN Q   2      13.568 -16.034  15.206  1.00 42.06 LIG 0.22  C 
ATOM     49  ND2 ASN Q   2      13.324 -15.271  16.263  1.00 46.27 LIG-0.37  N 
ATOM     50 22HD ASN Q   2      13.976 -14.978  16.741  1.00 46.27 LIG 0.16  HD
ATOM     51 21HD ASN Q   2      12.514 -15.069  16.470  1.00 46.27 LIG 0.16  HD
ATOM     52 OD1  ASN Q   2      12.663 -16.476  14.493  1.00 44.45 LIG-0.27  OA
ENDBRANCH 47 48
ENDBRANCH 46 47
BRANCH 46 53
ATOM     53  N   ASN Q   2      14.906 -14.436  13.301  1.00 39.54 LIG-0.34  N 
ATOM     54  C   THR Q   1      15.446 -13.497  12.532  1.00 41.49 LIG 0.25  C 
ATOM     55 O    THR Q   1      16.437 -13.694  11.826  1.00 41.78 LIG-0.27  OA
ATOM     56 H    ASN Q   2      14.160 -14.320  13.713  1.00 39.54 LIG 0.16  HD
BRANCH 54 57
ATOM     57  CA  THR Q   1      14.735 -12.137  12.514  1.00 43.16 LIG 0.30  C 
BRANCH 57 58
ATOM     58  CB  THR Q   1      13.565 -12.100  11.497  1.00 43.89 LIG 0.15  C 
ATOM     59  CG2 THR Q   1      12.299 -12.638  12.135  1.00 45.05 LIG 0.04  C 
BRANCH 58 60
ATOM     60 OG1  THR Q   1      13.243 -10.745  11.128  1.00 46.29 LIG-0.39  OA
ATOM     61 HG1  THR Q   1      12.894 -10.738  10.364  1.00 46.29 LIG 0.21  HD
ENDBRANCH 58 60
ENDBRANCH 57 58
BRANCH 57 62
ATOM     62  N   THR Q   1      15.692 -11.023  12.202  1.00 43.28 LIG-0.06  N 
ATOM     63 H2   THR Q   1      15.945 -10.628  12.958  1.00 43.28 LIG 0.28  HD
ATOM     64 H1   THR Q   1      15.291 -10.426  11.676  1.00 43.28 LIG 0.28  HD
ATOM     65 H3   THR Q   1      16.406 -11.352  11.786  1.00 43.28 LIG 0.28  HD
ENDBRANCH 57 62
ENDBRANCH 54 57
ENDBRANCH 46 53
ENDBRANCH 43 46
ENDBRANCH 36 42
ENDBRANCH 1 36
TORSDOF 24
ENDMDL
