MODEL 1
USER: ADFR SOLUTION from run 178
USER: SCORE 19.986557 LL:  -4.572 LR: -18.074 RR:   0.000 FEB: -10.020
USER: RMSD 5.435666
USER: SEED 177
USER: STATUS no improvement in best in 6 clusters for 5 generations
USER: GENES 29
USER: genes 0 Translation |==|  0.53672 0.40516 0.37868
USER: genes 1 Rotation |==|  0.74798 0.89544 0.49422 0.67917
USER: genes 2 Torsion [CB]-CA--N-[C] |==|  0.85077
USER: genes 3 Torsion [N]-C--CA-[N] |==|  0.22883
USER: genes 4 Torsion [C]-CA--N-[C] |==|  0.76719
USER: genes 5 Torsion [N]-C--CA-[N] |==|  0.03699
USER: genes 6 Torsion [C]-CA--CB-[CG] |==|  0.26377
USER: genes 7 Torsion [CA]-CB--CG-[CD] |==|  0.72854
USER: genes 8 Torsion [CB]-CG--CD-[NE] |==|  0.24498
USER: genes 9 Torsion [CG]-CD--NE-[CZ] |==|  0.23213
USER: genes 10 Torsion [C]-CA--CB-[CG] |==|  0.34851
USER: genes 11 Torsion [CA]-CB--CG-[CD] |==|  0.17793
USER: genes 12 Torsion [CB]-CG--CD-[OE1] |==|  0.93423
USER: genes 13 Torsion [N]-CA--CB-[CG] |==|  0.83496
USER: genes 14 Torsion [CA]-CB--CG-[CD2] |==|  0.27285
USER: genes 15 Torsion [N]-CA--C-[N] |==|  0.33333
USER: genes 16 Torsion [C]-N--CA-[CB] |==|  0.17763
USER: genes 17 Torsion [N]-CA--CB-[CG1] |==|  0.72829
USER: genes 18 Torsion [N]-CA--C-[N] |==|  0.16420
USER: genes 19 Torsion [C]-N--CA-[CB] |==|  0.52244
USER: genes 20 Torsion [N]-CA--CB-[CG] |==|  0.72255
USER: genes 21 Torsion [CA]-CB--CG-[CD1] |==|  0.57139
USER: genes 22 Torsion [N]-CA--C-[N] |==|  0.88534
USER: genes 23 Torsion [C]-N--CA-[C] |==|  0.26780
USER: genes 24 Torsion [N]-CA--C-[N] |==|  0.20335
USER: genes 25 Torsion [C]-N--CA-[CB] |==|  0.24957
USER: genes 26 Torsion [N]-CA--CB-[CG] |==|  0.81718
USER: genes 27 Torsion [CA]-CB--CG-[CD1] |==|  0.34609
USER: genes 28 Torsion [N]-CA--C-[O] |==|  0.40516
ROOT
ATOM      1  CA  LEU C  12       0.301   3.768  30.481  0.76 25.89 LIG 0.18  C 
ENDROOT
BRANCH 1 2
ATOM      2  N   LEU C  12      -0.782   3.138  31.224  0.76 24.12 LIG-0.35  N 
ATOM      3 H    LEU C  12      -0.522   2.566  31.811  0.76 24.12 LIG 0.16  HD
ATOM      4  C   GLN C  11      -2.057   3.438  30.997  0.76 26.11 LIG 0.24  C 
ATOM      5 O    GLN C  11      -2.412   4.269  30.157  0.76 27.34 LIG-0.27  OA
BRANCH 4 6
ATOM      6  CA  GLN C  11      -3.084   2.675  31.831  0.76 26.16 LIG 0.18  C 
BRANCH 6 7
ATOM      7  N   GLN C  11      -3.302   3.224  33.164  0.76 28.86 LIG-0.35  N 
ATOM      8  C   ARG C  10      -2.525   2.936  34.202  0.76 30.48 LIG 0.26  C 
ATOM      9 O    ARG C  10      -1.534   2.205  34.125  0.76 24.30 LIG-0.27  OA
ATOM     10 H    GLN C  11      -3.979   3.751  33.215  0.76 28.86 LIG 0.16  HD
BRANCH 8 11
ATOM     11  CA  ARG C  10      -2.924   3.589  35.534  0.76 33.62 LIG 0.40  C 
ATOM     12  N   ARG C  10      -4.297   4.171  35.462  0.76 36.52 LIG 0.61  N 
BRANCH 11 13
ATOM     13  CB  ARG C  10      -2.859   2.540  36.642  0.76 36.98 LIG 0.05  C 
BRANCH 13 14
ATOM     14  CG  ARG C  10      -1.547   2.499  37.433  0.76 39.40 LIG 0.02  C 
BRANCH 14 15
ATOM     15  CD  ARG C  10      -0.601   1.415  36.929  0.76 42.42 LIG 0.14  C 
BRANCH 15 16
ATOM     16  NE  ARG C  10       0.258   1.902  35.851  0.76 44.78 LIG-0.23  N 
ATOM     17  CZ  ARG C  10       1.393   2.572  36.029  0.76 45.62 LIG 0.67  C 
ATOM     18  NH2 ARG C  10       2.107   2.952  34.978  0.76 46.43 LIG-0.23  N 
ATOM     19  NH1 ARG C  10       1.824   2.852  37.251  0.76 45.50 LIG-0.23  N 
ATOM     20 2HH2 ARG C  10       2.842   3.386  35.091  0.76 46.43 LIG 0.17  HD
ATOM     21 1HH2 ARG C  10       1.836   2.765  34.183  0.76 46.43 LIG 0.17  HD
ATOM     22 2HH1 ARG C  10       2.559   3.286  37.360  0.76 45.50 LIG 0.17  HD
ATOM     23 1HH1 ARG C  10       1.369   2.599  37.936  0.76 45.50 LIG 0.17  HD
ATOM     24 HE   ARG C  10       0.012   1.743  35.043  0.76 44.78 LIG 0.18  HD
ENDBRANCH 15 16
ENDBRANCH 14 15
ENDBRANCH 13 14
ENDBRANCH 11 13
ENDBRANCH 8 11
ENDBRANCH 6 7
BRANCH 6 25
ATOM     25  CB  GLN C  11      -4.410   2.638  31.068  0.76 25.68 LIG 0.04  C 
BRANCH 25 26
ATOM     26  CG  GLN C  11      -4.964   1.240  30.865  0.76 22.66 LIG 0.10  C 
BRANCH 26 27
ATOM     27  CD  GLN C  11      -5.316   0.580  32.173  0.76 24.13 LIG 0.21  C 
ATOM     28 OE1  GLN C  11      -4.776   0.940  33.225  0.76 19.83 LIG-0.27  OA
ATOM     29  NE2 GLN C  11      -6.223  -0.390  32.123  0.76 21.86 LIG-0.37  N 
ATOM     30 21HE GLN C  11      -6.576  -0.612  31.371  0.76 21.86 LIG 0.16  HD
ATOM     31 22HE GLN C  11      -6.458  -0.797  32.844  0.76 21.86 LIG 0.16  HD
ENDBRANCH 26 27
ENDBRANCH 25 26
ENDBRANCH 6 25
ENDBRANCH 4 6
ENDBRANCH 1 2
BRANCH 1 32
ATOM     32  CB  LEU C  12       0.072   3.612  28.973  0.76 24.07 LIG 0.04  C 
BRANCH 32 33
ATOM     33  CG  LEU C  12      -0.018   2.172  28.453  0.76 21.16 LIG-0.02  C 
ATOM     34  CD1 LEU C  12       0.699   1.253  29.430  0.76 25.64 LIG 0.01  C 
ATOM     35  CD2 LEU C  12      -1.478   1.752  28.293  0.76 25.10 LIG 0.01  C 
ENDBRANCH 32 33
ENDBRANCH 1 32
BRANCH 1 36
ATOM     36  C   LEU C  12       0.325   5.249  30.872  0.76 25.30 LIG 0.24  C 
ATOM     37 O    LEU C  12      -0.662   5.963  30.671  0.76 25.87 LIG-0.27  OA
ATOM     38  N   VAL C  13       1.445   5.710  31.428  0.76 25.62 LIG-0.35  N 
ATOM     39 H    VAL C  13       2.152   5.239  31.559  0.76 25.62 LIG 0.16  HD
BRANCH 38 40
ATOM     40  CA  VAL C  13       1.544   7.100  31.869  0.76 24.99 LIG 0.18  C 
BRANCH 40 41
ATOM     41  CB  VAL C  13       0.546   7.398  33.015  0.76 27.65 LIG 0.01  C 
ATOM     42  CG1 VAL C  13      -0.712   8.056  32.457  0.76 28.12 LIG 0.01  C 
ATOM     43  CG2 VAL C  13       0.189   6.115  33.741  0.76 27.69 LIG 0.01  C 
ENDBRANCH 40 41
BRANCH 40 44
ATOM     44  C   VAL C  13       2.933   7.524  32.334  0.76 25.58 LIG 0.24  C 
ATOM     45  N   LEU C  14       3.897   7.405  31.431  0.76 25.74 LIG-0.35  N 
ATOM     46 H    LEU C  14       3.773   7.112  30.632  0.76 25.74 LIG 0.16  HD
ATOM     47 O    VAL C  13       3.133   7.956  33.470  0.76 23.74 LIG-0.27  OA
BRANCH 45 48
ATOM     48  CA  LEU C  14       5.275   7.772  31.730  0.76 27.54 LIG 0.18  C 
BRANCH 48 49
ATOM     49  CB  LEU C  14       6.124   7.722  30.456  0.76 27.94 LIG 0.04  C 
BRANCH 49 50
ATOM     50  CG  LEU C  14       6.987   6.479  30.242  0.76 29.52 LIG-0.02  C 
ATOM     51  CD2 LEU C  14       7.447   5.936  31.593  0.76 29.01 LIG 0.01  C 
ATOM     52  CD1 LEU C  14       8.170   6.838  29.360  0.76 31.53 LIG 0.01  C 
ENDBRANCH 49 50
ENDBRANCH 48 49
BRANCH 48 53
ATOM     53  C   LEU C  14       5.397   9.164  32.331  0.76 27.94 LIG 0.24  C 
ATOM     54  N   GLY C  15       4.627  10.095  31.784  0.76 27.74 LIG-0.35  N 
ATOM     55 H    GLY C  15       4.106   9.964  31.113  0.76 27.74 LIG 0.16  HD
ATOM     56 O    LEU C  14       6.175   9.391  33.265  0.76 29.25 LIG-0.27  OA
BRANCH 54 57
ATOM     57  CA  GLY C  15       4.622  11.447  32.311  0.76 32.19 LIG 0.23  C 
BRANCH 57 58
ATOM     58  C   GLY C  15       5.586  12.251  31.453  0.76 34.72 LIG 0.24  C 
ATOM     59  N   LEU C  16       5.165  12.551  30.228  0.76 34.76 LIG-0.34  N 
ATOM     60 H    LEU C  16       4.392  12.330  29.925  0.76 34.76 LIG 0.16  HD
ATOM     61 O    GLY C  15       6.689  12.585  31.885  0.76 36.88 LIG-0.27  OA
BRANCH 59 62
ATOM     62  CA  LEU C  16       5.989  13.292  29.278  0.76 35.63 LIG 0.18  C 
BRANCH 62 63
ATOM     63  CB  LEU C  16       6.826  12.311  28.457  0.76 32.88 LIG 0.04  C 
BRANCH 63 64
ATOM     64  CG  LEU C  16       7.867  11.550  29.281  0.76 27.62 LIG-0.02  C 
ATOM     65  CD1 LEU C  16       7.683  10.050  29.108  0.76 29.42 LIG 0.01  C 
ATOM     66  CD2 LEU C  16       9.260  11.980  28.852  0.76 30.85 LIG 0.01  C 
ENDBRANCH 63 64
ENDBRANCH 62 63
BRANCH 62 67
ATOM     67  C   LEU C  16       5.198  14.205  28.351  0.76 36.84 LIG 0.20  C 
ATOM     68 O    LEU C  16       5.729  15.284  28.000  0.76 37.63 LIG-0.65  OA
ATOM     69 OXT  LEU C  16       4.062  13.833  27.988  0.76 38.60 LIG-0.65  OA
ENDBRANCH 62 67
ENDBRANCH 59 62
ENDBRANCH 57 58
ENDBRANCH 54 57
ENDBRANCH 48 53
ENDBRANCH 45 48
ENDBRANCH 40 44
ENDBRANCH 38 40
ENDBRANCH 1 36
TORSDOF 27
ENDMDL
MODEL 2
USER: ADFR SOLUTION from run 178
USER: SCORE 19.520981 LL:  -4.465 LR: -17.903 RR:   0.000 FEB:  -9.849
USER: RMSD 4.119697
USER: SEED 177
USER: STATUS no improvement in best in 6 clusters for 5 generations
USER: GENES 29
USER: genes 0 Translation |==|  0.53771 0.39725 0.39030
USER: genes 1 Rotation |==|  0.74354 0.87381 0.49683 0.72571
USER: genes 2 Torsion [CB]-CA--N-[C] |==|  0.86093
USER: genes 3 Torsion [N]-C--CA-[N] |==|  0.23933
USER: genes 4 Torsion [C]-CA--N-[C] |==|  0.67287
USER: genes 5 Torsion [N]-C--CA-[N] |==|  0.93570
USER: genes 6 Torsion [C]-CA--CB-[CG] |==|  0.14459
USER: genes 7 Torsion [CA]-CB--CG-[CD] |==|  0.60124
USER: genes 8 Torsion [CB]-CG--CD-[NE] |==|  0.44092
USER: genes 9 Torsion [CG]-CD--NE-[CZ] |==|  0.32371
USER: genes 10 Torsion [C]-CA--CB-[CG] |==|  0.55390
USER: genes 11 Torsion [CA]-CB--CG-[CD] |==|  0.77028
USER: genes 12 Torsion [CB]-CG--CD-[OE1] |==|  0.69592
USER: genes 13 Torsion [N]-CA--CB-[CG] |==|  0.87791
USER: genes 14 Torsion [CA]-CB--CG-[CD2] |==|  0.70756
USER: genes 15 Torsion [N]-CA--C-[N] |==|  0.35114
USER: genes 16 Torsion [C]-N--CA-[CB] |==|  0.18253
USER: genes 17 Torsion [N]-CA--CB-[CG1] |==|  0.72786
USER: genes 18 Torsion [N]-CA--C-[N] |==|  0.17778
USER: genes 19 Torsion [C]-N--CA-[CB] |==|  0.52339
USER: genes 20 Torsion [N]-CA--CB-[CG] |==|  0.72212
USER: genes 21 Torsion [CA]-CB--CG-[CD1] |==|  0.57136
USER: genes 22 Torsion [N]-CA--C-[N] |==|  0.88341
USER: genes 23 Torsion [C]-N--CA-[C] |==|  0.26637
USER: genes 24 Torsion [N]-CA--C-[N] |==|  0.20429
USER: genes 25 Torsion [C]-N--CA-[CB] |==|  0.25017
USER: genes 26 Torsion [N]-CA--CB-[CG] |==|  0.81655
USER: genes 27 Torsion [CA]-CB--CG-[CD1] |==|  0.34873
USER: genes 28 Torsion [N]-CA--C-[O] |==|  0.41091
ROOT
ATOM      1  CA  LEU C  12       0.330   3.555  30.673  0.76 25.89 LIG 0.18  C 
ENDROOT
BRANCH 1 2
ATOM      2  N   LEU C  12      -0.888   3.012  31.258  0.76 24.12 LIG-0.35  N 
ATOM      3 H    LEU C  12      -0.761   2.533  31.961  0.76 24.12 LIG 0.16  HD
ATOM      4  C   GLN C  11      -2.086   3.250  30.732  0.76 26.11 LIG 0.24  C 
ATOM      5 O    GLN C  11      -2.252   3.948  29.728  0.76 27.34 LIG-0.27  OA
BRANCH 4 6
ATOM      6  CA  GLN C  11      -3.270   2.590  31.436  0.76 26.16 LIG 0.18  C 
BRANCH 6 7
ATOM      7  N   GLN C  11      -3.810   3.358  32.551  0.76 28.86 LIG-0.35  N 
ATOM      8  C   ARG C  10      -3.813   2.914  33.802  0.76 30.48 LIG 0.26  C 
ATOM      9 O    ARG C  10      -3.331   1.829  34.138  0.76 24.30 LIG-0.27  OA
ATOM     10 H    GLN C  11      -4.126   4.125  32.323  0.76 28.86 LIG 0.16  HD
BRANCH 8 11
ATOM     11  CA  ARG C  10      -4.446   3.853  34.840  0.76 33.62 LIG 0.40  C 
ATOM     12  N   ARG C  10      -4.434   5.270  34.369  0.76 36.52 LIG 0.61  N 
BRANCH 11 13
ATOM     13  CB  ARG C  10      -5.883   3.404  35.106  0.76 36.98 LIG 0.05  C 
BRANCH 13 14
ATOM     14  CG  ARG C  10      -6.053   1.924  35.466  0.76 39.40 LIG 0.02  C 
BRANCH 14 15
ATOM     15  CD  ARG C  10      -7.330   1.331  34.882  0.76 42.42 LIG 0.14  C 
BRANCH 15 16
ATOM     16  NE  ARG C  10      -7.257  -0.127  34.787  0.76 44.78 LIG-0.23  N 
ATOM     17  CZ  ARG C  10      -8.045  -0.971  35.448  0.76 45.62 LIG 0.67  C 
ATOM     18  NH2 ARG C  10      -7.906  -2.278  35.273  0.76 46.43 LIG-0.23  N 
ATOM     19  NH1 ARG C  10      -8.979  -0.514  36.271  0.76 45.50 LIG-0.23  N 
ATOM     20 2HH2 ARG C  10      -8.414  -2.826  35.700  0.76 46.43 LIG 0.17  HD
ATOM     21 1HH2 ARG C  10      -7.307  -2.578  34.733  0.76 46.43 LIG 0.17  HD
ATOM     22 2HH1 ARG C  10      -9.485  -1.065  36.696  0.76 45.50 LIG 0.17  HD
ATOM     23 1HH1 ARG C  10      -9.079   0.333  36.380  0.76 45.50 LIG 0.17  HD
ATOM     24 HE   ARG C  10      -6.662  -0.463  34.265  0.76 44.78 LIG 0.18  HD
ENDBRANCH 15 16
ENDBRANCH 14 15
ENDBRANCH 13 14
ENDBRANCH 11 13
ENDBRANCH 8 11
ENDBRANCH 6 7
BRANCH 6 25
ATOM     25  CB  GLN C  11      -4.373   2.332  30.407  0.76 25.68 LIG 0.04  C 
BRANCH 25 26
ATOM     26  CG  GLN C  11      -5.746   2.122  31.017  0.76 22.66 LIG 0.10  C 
BRANCH 26 27
ATOM     27  CD  GLN C  11      -5.941   0.702  31.486  0.76 24.13 LIG 0.21  C 
ATOM     28 OE1  GLN C  11      -6.712  -0.057  30.890  0.76 19.83 LIG-0.27  OA
ATOM     29  NE2 GLN C  11      -5.245   0.329  32.555  0.76 21.86 LIG-0.37  N 
ATOM     30 21HE GLN C  11      -4.718   0.888  32.943  0.76 21.86 LIG 0.16  HD
ATOM     31 22HE GLN C  11      -5.321  -0.471  32.860  0.76 21.86 LIG 0.16  HD
ENDBRANCH 26 27
ENDBRANCH 25 26
ENDBRANCH 6 25
ENDBRANCH 4 6
ENDBRANCH 1 2
BRANCH 1 32
ATOM     32  CB  LEU C  12       0.374   3.262  29.169  0.76 24.07 LIG 0.04  C 
BRANCH 32 33
ATOM     33  CG  LEU C  12      -0.030   1.843  28.748  0.76 21.16 LIG-0.02  C 
ATOM     34  CD1 LEU C  12      -1.002   1.936  27.582  0.76 25.64 LIG 0.01  C 
ATOM     35  CD2 LEU C  12       1.202   1.029  28.359  0.76 25.10 LIG 0.01  C 
ENDBRANCH 32 33
ENDBRANCH 1 32
BRANCH 1 36
ATOM     36  C   LEU C  12       0.330   5.065  30.929  0.76 25.30 LIG 0.24  C 
ATOM     37 O    LEU C  12      -0.638   5.754  30.591  0.76 25.87 LIG-0.27  OA
ATOM     38  N   VAL C  13       1.406   5.579  31.522  0.76 25.62 LIG-0.35  N 
ATOM     39 H    VAL C  13       2.101   5.124  31.746  0.76 25.62 LIG 0.16  HD
BRANCH 38 40
ATOM     40  CA  VAL C  13       1.476   7.004  31.841  0.76 24.99 LIG 0.18  C 
BRANCH 40 41
ATOM     41  CB  VAL C  13       0.426   7.392  32.910  0.76 27.65 LIG 0.01  C 
ATOM     42  CG1 VAL C  13      -0.808   7.987  32.241  0.76 28.12 LIG 0.01  C 
ATOM     43  CG2 VAL C  13       0.043   6.174  33.730  0.76 27.69 LIG 0.01  C 
ENDBRANCH 40 41
BRANCH 40 44
ATOM     44  C   VAL C  13       2.840   7.482  32.327  0.76 25.58 LIG 0.24  C 
ATOM     45  N   LEU C  14       3.825   7.386  31.444  0.76 25.74 LIG-0.35  N 
ATOM     46 H    LEU C  14       3.727   7.080  30.647  0.76 25.74 LIG 0.16  HD
ATOM     47 O    VAL C  13       3.003   7.935  33.460  0.76 23.74 LIG-0.27  OA
BRANCH 45 48
ATOM     48  CA  LEU C  14       5.183   7.805  31.764  0.76 27.54 LIG 0.18  C 
BRANCH 48 49
ATOM     49  CB  LEU C  14       6.056   7.779  30.506  0.76 27.94 LIG 0.04  C 
BRANCH 49 50
ATOM     50  CG  LEU C  14       6.971   6.569  30.318  0.76 29.52 LIG-0.02  C 
ATOM     51  CD2 LEU C  14       7.427   6.054  31.680  0.76 29.01 LIG 0.01  C 
ATOM     52  CD1 LEU C  14       8.154   6.966  29.453  0.76 31.53 LIG 0.01  C 
ENDBRANCH 49 50
ENDBRANCH 48 49
BRANCH 48 53
ATOM     53  C   LEU C  14       5.244   9.205  32.358  0.76 27.94 LIG 0.24  C 
ATOM     54  N   GLY C  15       4.462  10.107  31.782  0.76 27.74 LIG-0.35  N 
ATOM     55 H    GLY C  15       3.964   9.955  31.097  0.76 27.74 LIG 0.16  HD
ATOM     56 O    LEU C  14       5.987   9.463  33.312  0.76 29.25 LIG-0.27  OA
BRANCH 54 57
ATOM     57  CA  GLY C  15       4.399  11.461  32.298  0.76 32.19 LIG 0.23  C 
BRANCH 57 58
ATOM     58  C   GLY C  15       5.370  12.287  31.470  0.76 34.72 LIG 0.24  C 
ATOM     59  N   LEU C  16       4.984  12.573  30.231  0.76 34.76 LIG-0.34  N 
ATOM     60 H    LEU C  16       4.228  12.332  29.902  0.76 34.76 LIG 0.16  HD
ATOM     61 O    GLY C  15       6.449  12.650  31.938  0.76 36.88 LIG-0.27  OA
BRANCH 59 62
ATOM     62  CA  LEU C  16       5.821  13.332  29.306  0.76 35.63 LIG 0.18  C 
BRANCH 62 63
ATOM     63  CB  LEU C  16       6.706  12.370  28.514  0.76 32.88 LIG 0.04  C 
BRANCH 63 64
ATOM     64  CG  LEU C  16       7.741  11.637  29.371  0.76 27.62 LIG-0.02  C 
ATOM     65  CD1 LEU C  16       7.614  10.133  29.181  0.76 29.42 LIG 0.01  C 
ATOM     66  CD2 LEU C  16       9.133  12.118  28.999  0.76 30.85 LIG 0.01  C 
ENDBRANCH 63 64
ENDBRANCH 62 63
BRANCH 62 67
ATOM     67  C   LEU C  16       5.040  14.226  28.353  0.76 36.84 LIG 0.20  C 
ATOM     68 O    LEU C  16       5.574  15.298  27.986  0.76 37.63 LIG-0.65  OA
ATOM     69 OXT  LEU C  16       3.908  13.845  27.985  0.76 38.60 LIG-0.65  OA
ENDBRANCH 62 67
ENDBRANCH 59 62
ENDBRANCH 57 58
ENDBRANCH 54 57
ENDBRANCH 48 53
ENDBRANCH 45 48
ENDBRANCH 40 44
ENDBRANCH 38 40
ENDBRANCH 1 36
TORSDOF 27
ENDMDL
MODEL 3
USER: ADFR SOLUTION from run 158
USER: SCORE 19.412374 LL:  -4.966 LR: -17.727 RR:   0.000 FEB:  -9.673
USER: RMSD 13.046609
USER: SEED 157
USER: STATUS no improvement in best in 5 clusters for 5 generations
USER: GENES 29
USER: genes 0 Translation |==|  0.73628 0.56825 0.48484
USER: genes 1 Rotation |==|  0.24320 0.92277 0.44032 0.54194
USER: genes 2 Torsion [CB]-CA--N-[C] |==|  0.24152
USER: genes 3 Torsion [N]-C--CA-[N] |==|  0.23045
USER: genes 4 Torsion [C]-CA--N-[C] |==|  0.67483
USER: genes 5 Torsion [N]-C--CA-[N] |==|  0.15686
USER: genes 6 Torsion [C]-CA--CB-[CG] |==|  0.25137
USER: genes 7 Torsion [CA]-CB--CG-[CD] |==|  0.62899
USER: genes 8 Torsion [CB]-CG--CD-[NE] |==|  0.19264
USER: genes 9 Torsion [CG]-CD--NE-[CZ] |==|  0.40786
USER: genes 10 Torsion [C]-CA--CB-[CG] |==|  0.49436
USER: genes 11 Torsion [CA]-CB--CG-[CD] |==|  0.48929
USER: genes 12 Torsion [CB]-CG--CD-[OE1] |==|  0.48338
USER: genes 13 Torsion [N]-CA--CB-[CG] |==|  0.63266
USER: genes 14 Torsion [CA]-CB--CG-[CD2] |==|  0.39159
USER: genes 15 Torsion [N]-CA--C-[N] |==|  0.48026
USER: genes 16 Torsion [C]-N--CA-[CB] |==|  0.27222
USER: genes 17 Torsion [N]-CA--CB-[CG1] |==|  0.93099
USER: genes 18 Torsion [N]-CA--C-[N] |==|  0.45074
USER: genes 19 Torsion [C]-N--CA-[CB] |==|  0.16285
USER: genes 20 Torsion [N]-CA--CB-[CG] |==|  0.62961
USER: genes 21 Torsion [CA]-CB--CG-[CD1] |==|  0.62109
USER: genes 22 Torsion [N]-CA--C-[N] |==|  0.66306
USER: genes 23 Torsion [C]-N--CA-[C] |==|  0.72412
USER: genes 24 Torsion [N]-CA--C-[N] |==|  0.98833
USER: genes 25 Torsion [C]-N--CA-[CB] |==|  0.26070
USER: genes 26 Torsion [N]-CA--CB-[CG] |==|  0.65872
USER: genes 27 Torsion [CA]-CB--CG-[CD1] |==|  0.00905
USER: genes 28 Torsion [N]-CA--C-[O] |==|  0.46176
ROOT
ATOM      1  CA  LEU C  12       6.287   8.172  32.233  0.76 25.89 LIG 0.18  C 
ENDROOT
BRANCH 1 2
ATOM      2  N   LEU C  12       7.128   8.441  33.392  0.76 24.12 LIG-0.35  N 
ATOM      3 H    LEU C  12       6.877   8.044  34.111  0.76 24.12 LIG 0.16  HD
ATOM      4  C   GLN C  11       8.190   9.237  33.318  0.76 26.11 LIG 0.24  C 
ATOM      5 O    GLN C  11       8.543   9.793  32.274  0.76 27.34 LIG-0.27  OA
BRANCH 4 6
ATOM      6  CA  GLN C  11       8.959   9.450  34.620  0.76 26.16 LIG 0.18  C 
BRANCH 6 7
ATOM      7  N   GLN C  11       9.917   8.397  34.931  0.76 28.86 LIG-0.35  N 
ATOM      8  C   ARG C  10       9.820   7.623  36.007  0.76 30.48 LIG 0.26  C 
ATOM      9 O    ARG C  10       8.894   7.706  36.819  0.76 24.30 LIG-0.27  OA
ATOM     10 H    GLN C  11      10.551   8.323  34.355  0.76 28.86 LIG 0.16  HD
BRANCH 8 11
ATOM     11  CA  ARG C  10      10.936   6.583  36.181  0.76 33.62 LIG 0.40  C 
ATOM     12  N   ARG C  10      12.281   7.229  36.203  0.76 36.52 LIG 0.61  N 
BRANCH 11 13
ATOM     13  CB  ARG C  10      10.703   5.817  37.483  0.76 36.98 LIG 0.05  C 
BRANCH 13 14
ATOM     14  CG  ARG C  10       9.851   4.550  37.358  0.76 39.40 LIG 0.02  C 
BRANCH 14 15
ATOM     15  CD  ARG C  10       8.779   4.465  38.439  0.76 42.42 LIG 0.14  C 
BRANCH 15 16
ATOM     16  NE  ARG C  10       7.735   5.472  38.248  0.76 44.78 LIG-0.23  N 
ATOM     17  CZ  ARG C  10       6.453   5.304  38.557  0.76 45.62 LIG 0.67  C 
ATOM     18  NH2 ARG C  10       5.591   6.292  38.361  0.76 46.43 LIG-0.23  N 
ATOM     19  NH1 ARG C  10       6.031   4.158  39.075  0.76 45.50 LIG-0.23  N 
ATOM     20 2HH2 ARG C  10       4.761   6.186  38.560  0.76 46.43 LIG 0.17  HD
ATOM     21 1HH2 ARG C  10       5.862   7.040  38.033  0.76 46.43 LIG 0.17  HD
ATOM     22 2HH1 ARG C  10       5.200   4.055  39.273  0.76 45.50 LIG 0.17  HD
ATOM     23 1HH1 ARG C  10       6.588   3.517  39.214  0.76 45.50 LIG 0.17  HD
ATOM     24 HE   ARG C  10       7.968   6.228  37.912  0.76 44.78 LIG 0.18  HD
ENDBRANCH 15 16
ENDBRANCH 14 15
ENDBRANCH 13 14
ENDBRANCH 11 13
ENDBRANCH 8 11
ENDBRANCH 6 7
BRANCH 6 25
ATOM     25  CB  GLN C  11       9.681  10.798  34.551  0.76 25.68 LIG 0.04  C 
BRANCH 25 26
ATOM     26  CG  GLN C  11      10.447  11.151  35.813  0.76 22.66 LIG 0.10  C 
BRANCH 26 27
ATOM     27  CD  GLN C  11      11.215  12.439  35.662  0.76 24.13 LIG 0.21  C 
ATOM     28 OE1  GLN C  11      11.806  12.936  36.626  0.76 19.83 LIG-0.27  OA
ATOM     29  NE2 GLN C  11      11.215  12.992  34.453  0.76 21.86 LIG-0.37  N 
ATOM     30 21HE GLN C  11      10.790  12.615  33.807  0.76 21.86 LIG 0.16  HD
ATOM     31 22HE GLN C  11      11.640  13.727  34.317  0.76 21.86 LIG 0.16  HD
ENDBRANCH 26 27
ENDBRANCH 25 26
ENDBRANCH 6 25
ENDBRANCH 4 6
ENDBRANCH 1 2
BRANCH 1 32
ATOM     32  CB  LEU C  12       6.848   6.991  31.432  0.76 24.07 LIG 0.04  C 
BRANCH 32 33
ATOM     33  CG  LEU C  12       6.959   7.200  29.916  0.76 21.16 LIG-0.02  C 
ATOM     34  CD1 LEU C  12       6.932   8.692  29.624  0.76 25.64 LIG 0.01  C 
ATOM     35  CD2 LEU C  12       8.244   6.570  29.383  0.76 25.10 LIG 0.01  C 
ENDBRANCH 32 33
ENDBRANCH 1 32
BRANCH 1 36
ATOM     36  C   LEU C  12       4.881   7.854  32.750  0.76 25.30 LIG 0.24  C 
ATOM     37 O    LEU C  12       4.675   7.733  33.962  0.76 25.87 LIG-0.27  OA
ATOM     38  N   VAL C  13       3.917   7.719  31.840  0.76 25.62 LIG-0.35  N 
ATOM     39 H    VAL C  13       4.040   7.777  30.991  0.76 25.62 LIG 0.16  HD
BRANCH 38 40
ATOM     40  CA  VAL C  13       2.538   7.455  32.244  0.76 24.99 LIG 0.18  C 
BRANCH 40 41
ATOM     41  CB  VAL C  13       1.700   8.757  32.266  0.76 27.65 LIG 0.01  C 
ATOM     42  CG1 VAL C  13       2.610   9.963  32.470  0.76 28.12 LIG 0.01  C 
ATOM     43  CG2 VAL C  13       0.924   8.898  30.970  0.76 27.69 LIG 0.01  C 
ENDBRANCH 40 41
BRANCH 40 44
ATOM     44  C   VAL C  13       1.803   6.438  31.378  0.76 25.58 LIG 0.24  C 
ATOM     45  N   LEU C  14       0.712   5.912  31.918  0.76 25.74 LIG-0.35  N 
ATOM     46 H    LEU C  14       0.418   6.114  32.700  0.76 25.74 LIG 0.16  HD
ATOM     47 O    VAL C  13       2.199   6.139  30.251  0.76 23.74 LIG-0.27  OA
BRANCH 45 48
ATOM     48  CA  LEU C  14      -0.094   4.927  31.209  0.76 27.54 LIG 0.18  C 
BRANCH 48 49
ATOM     49  CB  LEU C  14       0.757   3.703  30.855  0.76 27.94 LIG 0.04  C 
BRANCH 49 50
ATOM     50  CG  LEU C  14       0.647   3.169  29.427  0.76 29.52 LIG-0.02  C 
ATOM     51  CD2 LEU C  14      -0.573   3.779  28.743  0.76 29.01 LIG 0.01  C 
ATOM     52  CD1 LEU C  14       0.559   1.653  29.466  0.76 31.53 LIG 0.01  C 
ENDBRANCH 49 50
ENDBRANCH 48 49
BRANCH 48 53
ATOM     53  C   LEU C  14      -1.295   4.456  32.016  0.76 27.94 LIG 0.24  C 
ATOM     54  N   GLY C  15      -1.350   3.153  32.255  0.76 27.74 LIG-0.35  N 
ATOM     55 H    GLY C  15      -0.780   2.579  31.963  0.76 27.74 LIG 0.16  HD
ATOM     56 O    LEU C  14      -2.155   5.253  32.408  0.76 29.25 LIG-0.27  OA
BRANCH 54 57
ATOM     57  CA  GLY C  15      -2.422   2.599  33.060  0.76 32.19 LIG 0.23  C 
BRANCH 57 58
ATOM     58  C   GLY C  15      -1.858   2.401  34.458  0.76 34.72 LIG 0.24  C 
ATOM     59  N   LEU C  16      -0.566   2.673  34.610  0.76 34.76 LIG-0.34  N 
ATOM     60 H    LEU C  16      -0.064   2.961  33.975  0.76 34.76 LIG 0.16  HD
ATOM     61 O    GLY C  15      -2.573   2.002  35.377  0.76 36.88 LIG-0.27  OA
BRANCH 59 62
ATOM     62  CA  LEU C  16       0.125   2.503  35.884  0.76 35.63 LIG 0.18  C 
BRANCH 62 63
ATOM     63  CB  LEU C  16       0.776   1.120  35.931  0.76 32.88 LIG 0.04  C 
BRANCH 63 64
ATOM     64  CG  LEU C  16       0.324   0.266  37.118  0.76 27.62 LIG-0.02  C 
ATOM     65  CD1 LEU C  16      -0.739   0.999  37.921  0.76 29.42 LIG 0.01  C 
ATOM     66  CD2 LEU C  16      -0.201  -1.065  36.608  0.76 30.85 LIG 0.01  C 
ENDBRANCH 63 64
ENDBRANCH 62 63
BRANCH 62 67
ATOM     67  C   LEU C  16       1.164   3.577  36.175  0.76 36.84 LIG 0.20  C 
ATOM     68 O    LEU C  16       1.608   3.659  37.344  0.76 37.63 LIG-0.65  OA
ATOM     69 OXT  LEU C  16       1.519   4.321  35.237  0.76 38.60 LIG-0.65  OA
ENDBRANCH 62 67
ENDBRANCH 59 62
ENDBRANCH 57 58
ENDBRANCH 54 57
ENDBRANCH 48 53
ENDBRANCH 45 48
ENDBRANCH 40 44
ENDBRANCH 38 40
ENDBRANCH 1 36
TORSDOF 27
ENDMDL
MODEL 4
USER: ADFR SOLUTION from run 26
USER: SCORE 19.422719 LL:  -4.186 LR: -17.477 RR:   0.000 FEB:  -9.423
USER: RMSD 5.628981
USER: SEED 25
USER: STATUS searching
USER: GENES 29
USER: genes 0 Translation |==|  0.54209 0.43621 0.41533
USER: genes 1 Rotation |==|  0.75519 0.92814 0.48747 0.53763
USER: genes 2 Torsion [CB]-CA--N-[C] |==|  0.83889
USER: genes 3 Torsion [N]-C--CA-[N] |==|  0.10866
USER: genes 4 Torsion [C]-CA--N-[C] |==|  0.16074
USER: genes 5 Torsion [N]-C--CA-[N] |==|  0.46264
USER: genes 6 Torsion [C]-CA--CB-[CG] |==|  0.16106
USER: genes 7 Torsion [CA]-CB--CG-[CD] |==|  0.39500
USER: genes 8 Torsion [CB]-CG--CD-[NE] |==|  0.77880
USER: genes 9 Torsion [CG]-CD--NE-[CZ] |==|  0.65377
USER: genes 10 Torsion [C]-CA--CB-[CG] |==|  0.27374
USER: genes 11 Torsion [CA]-CB--CG-[CD] |==|  0.12250
USER: genes 12 Torsion [CB]-CG--CD-[OE1] |==|  0.82725
USER: genes 13 Torsion [N]-CA--CB-[CG] |==|  0.77272
USER: genes 14 Torsion [CA]-CB--CG-[CD2] |==|  0.25668
USER: genes 15 Torsion [N]-CA--C-[N] |==|  0.51536
USER: genes 16 Torsion [C]-N--CA-[CB] |==|  0.85232
USER: genes 17 Torsion [N]-CA--CB-[CG1] |==|  0.48265
USER: genes 18 Torsion [N]-CA--C-[N] |==|  0.32047
USER: genes 19 Torsion [C]-N--CA-[CB] |==|  0.18299
USER: genes 20 Torsion [N]-CA--CB-[CG] |==|  0.28303
USER: genes 21 Torsion [CA]-CB--CG-[CD1] |==|  0.39277
USER: genes 22 Torsion [N]-CA--C-[N] |==|  0.97812
USER: genes 23 Torsion [C]-N--CA-[C] |==|  0.65968
USER: genes 24 Torsion [N]-CA--C-[N] |==|  0.49478
USER: genes 25 Torsion [C]-N--CA-[CB] |==|  0.50149
USER: genes 26 Torsion [N]-CA--CB-[CG] |==|  0.64918
USER: genes 27 Torsion [CA]-CB--CG-[CD1] |==|  0.94831
USER: genes 28 Torsion [N]-CA--C-[O] |==|  0.94889
ROOT
ATOM      1  CA  LEU C  12       0.462   4.607  31.086  0.76 25.89 LIG 0.18  C 
ENDROOT
BRANCH 1 2
ATOM      2  N   LEU C  12      -0.145   3.710  32.061  0.76 24.12 LIG-0.35  N 
ATOM      3 H    LEU C  12       0.317   3.005  32.229  0.76 24.12 LIG 0.16  HD
ATOM      4  C   GLN C  11      -1.317   3.980  32.629  0.76 26.11 LIG 0.24  C 
ATOM      5 O    GLN C  11      -1.964   5.002  32.382  0.76 27.34 LIG-0.27  OA
BRANCH 4 6
ATOM      6  CA  GLN C  11      -1.843   2.934  33.608  0.76 26.16 LIG 0.18  C 
BRANCH 6 7
ATOM      7  N   GLN C  11      -0.818   2.335  34.455  0.76 28.86 LIG-0.35  N 
ATOM      8  C   ARG C  10      -0.036   3.046  35.259  0.76 30.48 LIG 0.26  C 
ATOM      9 O    ARG C  10      -0.127   4.270  35.385  0.76 24.30 LIG-0.27  OA
ATOM     10 H    GLN C  11      -0.768   1.479  34.385  0.76 28.86 LIG 0.16  HD
BRANCH 8 11
ATOM     11  CA  ARG C  10       1.002   2.243  36.058  0.76 33.62 LIG 0.40  C 
ATOM     12  N   ARG C  10       2.027   3.141  36.670  0.76 36.52 LIG 0.61  N 
BRANCH 11 13
ATOM     13  CB  ARG C  10       0.285   1.449  37.149  0.76 36.98 LIG 0.05  C 
BRANCH 13 14
ATOM     14  CG  ARG C  10      -0.794   0.480  36.655  0.76 39.40 LIG 0.02  C 
BRANCH 14 15
ATOM     15  CD  ARG C  10      -0.815  -0.818  37.455  0.76 42.42 LIG 0.14  C 
BRANCH 15 16
ATOM     16  NE  ARG C  10       0.238  -1.738  37.023  0.76 44.78 LIG-0.23  N 
ATOM     17  CZ  ARG C  10       0.034  -2.990  36.623  0.76 45.62 LIG 0.67  C 
ATOM     18  NH2 ARG C  10       1.060  -3.734  36.233  0.76 46.43 LIG-0.23  N 
ATOM     19  NH1 ARG C  10      -1.192  -3.496  36.595  0.76 45.50 LIG-0.23  N 
ATOM     20 2HH2 ARG C  10       0.931  -4.544  35.973  0.76 46.43 LIG 0.17  HD
ATOM     21 1HH2 ARG C  10       1.856  -3.406  36.240  0.76 46.43 LIG 0.17  HD
ATOM     22 2HH1 ARG C  10      -1.317  -4.307  36.335  0.76 45.50 LIG 0.17  HD
ATOM     23 1HH1 ARG C  10      -1.862  -3.014  36.838  0.76 45.50 LIG 0.17  HD
ATOM     24 HE   ARG C  10       1.047  -1.448  37.029  0.76 44.78 LIG 0.18  HD
ENDBRANCH 15 16
ENDBRANCH 14 15
ENDBRANCH 13 14
ENDBRANCH 11 13
ENDBRANCH 8 11
ENDBRANCH 6 7
BRANCH 6 25
ATOM     25  CB  GLN C  11      -2.921   3.576  34.484  0.76 25.68 LIG 0.04  C 
BRANCH 25 26
ATOM     26  CG  GLN C  11      -4.338   3.287  34.027  0.76 22.66 LIG 0.10  C 
BRANCH 26 27
ATOM     27  CD  GLN C  11      -4.523   1.838  33.655  0.76 24.13 LIG 0.21  C 
ATOM     28 OE1  GLN C  11      -3.880   1.339  32.726  0.76 19.83 LIG-0.27  OA
ATOM     29  NE2 GLN C  11      -5.402   1.148  34.376  0.76 21.86 LIG-0.37  N 
ATOM     30 21HE GLN C  11      -5.831   1.532  35.015  0.76 21.86 LIG 0.16  HD
ATOM     31 22HE GLN C  11      -5.542   0.317  34.203  0.76 21.86 LIG 0.16  HD
ENDBRANCH 26 27
ENDBRANCH 25 26
ENDBRANCH 6 25
ENDBRANCH 4 6
ENDBRANCH 1 2
BRANCH 1 32
ATOM     32  CB  LEU C  12      -0.483   4.817  29.896  0.76 24.07 LIG 0.04  C 
BRANCH 32 33
ATOM     33  CG  LEU C  12      -0.466   3.719  28.824  0.76 21.16 LIG-0.02  C 
ATOM     34  CD1 LEU C  12       0.914   3.083  28.796  0.76 25.64 LIG 0.01  C 
ATOM     35  CD2 LEU C  12      -1.537   2.670  29.118  0.76 25.10 LIG 0.01  C 
ENDBRANCH 32 33
ENDBRANCH 1 32
BRANCH 1 36
ATOM     36  C   LEU C  12       0.740   5.936  31.794  0.76 25.30 LIG 0.24  C 
ATOM     37 O    LEU C  12       0.544   6.047  33.009  0.76 25.87 LIG-0.27  OA
ATOM     38  N   VAL C  13       1.194   6.938  31.044  0.76 25.62 LIG-0.35  N 
ATOM     39 H    VAL C  13       1.318   6.892  30.194  0.76 25.62 LIG 0.16  HD
BRANCH 38 40
ATOM     40  CA  VAL C  13       1.524   8.231  31.642  0.76 24.99 LIG 0.18  C 
BRANCH 40 41
ATOM     41  CB  VAL C  13       0.340   8.783  32.473  0.76 27.65 LIG 0.01  C 
ATOM     42  CG1 VAL C  13       0.762  10.050  33.209  0.76 28.12 LIG 0.01  C 
ATOM     43  CG2 VAL C  13      -0.842   9.071  31.567  0.76 27.69 LIG 0.01  C 
ENDBRANCH 40 41
BRANCH 40 44
ATOM     44  C   VAL C  13       2.761   8.223  32.534  0.76 25.58 LIG 0.24  C 
ATOM     45  N   LEU C  14       3.777   8.959  32.105  0.76 25.74 LIG-0.35  N 
ATOM     46 H    LEU C  14       3.764   9.418  31.378  0.76 25.74 LIG 0.16  HD
ATOM     47 O    VAL C  13       2.799   7.582  33.585  0.76 23.74 LIG-0.27  OA
BRANCH 45 48
ATOM     48  CA  LEU C  14       5.025   9.051  32.852  0.76 27.54 LIG 0.18  C 
BRANCH 48 49
ATOM     49  CB  LEU C  14       5.729   7.690  32.873  0.76 27.94 LIG 0.04  C 
BRANCH 49 50
ATOM     50  CG  LEU C  14       6.904   7.499  31.915  0.76 29.52 LIG-0.02  C 
ATOM     51  CD2 LEU C  14       6.422   6.806  30.644  0.76 29.01 LIG 0.01  C 
ATOM     52  CD1 LEU C  14       7.987   6.691  32.608  0.76 31.53 LIG 0.01  C 
ENDBRANCH 49 50
ENDBRANCH 48 49
BRANCH 48 53
ATOM     53  C   LEU C  14       5.986  10.076  32.271  0.76 27.94 LIG 0.24  C 
ATOM     54  N   GLY C  15       5.629  10.603  31.107  0.76 27.74 LIG-0.35  N 
ATOM     55 H    GLY C  15       4.925  10.381  30.667  0.76 27.74 LIG 0.16  HD
ATOM     56 O    LEU C  14       7.031  10.380  32.859  0.76 29.25 LIG-0.27  OA
BRANCH 54 57
ATOM     57  CA  GLY C  15       6.443  11.631  30.486  0.76 32.19 LIG 0.23  C 
BRANCH 57 58
ATOM     58  C   GLY C  15       5.542  12.839  30.289  0.76 34.72 LIG 0.24  C 
ATOM     59  N   LEU C  16       6.115  13.916  29.761  0.76 34.76 LIG-0.34  N 
ATOM     60 H    LEU C  16       6.940  13.944  29.521  0.76 34.76 LIG 0.16  HD
ATOM     61 O    GLY C  15       4.355  12.802  30.616  0.76 36.88 LIG-0.27  OA
BRANCH 59 62
ATOM     62  CA  LEU C  16       5.387  15.161  29.540  0.76 35.63 LIG 0.18  C 
BRANCH 62 63
ATOM     63  CB  LEU C  16       6.324  16.193  28.911  0.76 32.88 LIG 0.04  C 
BRANCH 63 64
ATOM     64  CG  LEU C  16       6.380  17.519  29.673  0.76 27.62 LIG-0.02  C 
ATOM     65  CD1 LEU C  16       5.173  17.654  30.589  0.76 29.42 LIG 0.01  C 
ATOM     66  CD2 LEU C  16       7.675  17.588  30.466  0.76 30.85 LIG 0.01  C 
ENDBRANCH 63 64
ENDBRANCH 62 63
BRANCH 62 67
ATOM     67  C   LEU C  16       4.135  15.006  28.687  0.76 36.84 LIG 0.20  C 
ATOM     68 O    LEU C  16       4.032  13.974  27.983  0.76 37.63 LIG-0.65  OA
ATOM     69 OXT  LEU C  16       3.277  15.912  28.733  0.76 38.60 LIG-0.65  OA
ENDBRANCH 62 67
ENDBRANCH 59 62
ENDBRANCH 57 58
ENDBRANCH 54 57
ENDBRANCH 48 53
ENDBRANCH 45 48
ENDBRANCH 40 44
ENDBRANCH 38 40
ENDBRANCH 1 36
TORSDOF 27
ENDMDL
MODEL 5
USER: ADFR SOLUTION from run 140
USER: SCORE 18.679406 LL:  -5.172 LR: -17.451 RR:   0.000 FEB:  -9.397
USER: RMSD 3.806889
USER: SEED 139
USER: STATUS searching
USER: GENES 29
USER: genes 0 Translation |==|  0.52652 0.41826 0.45254
USER: genes 1 Rotation |==|  0.79838 0.89098 0.42650 0.55198
USER: genes 2 Torsion [CB]-CA--N-[C] |==|  0.81111
USER: genes 3 Torsion [N]-C--CA-[N] |==|  0.70904
USER: genes 4 Torsion [C]-CA--N-[C] |==|  0.16713
USER: genes 5 Torsion [N]-C--CA-[N] |==|  0.22832
USER: genes 6 Torsion [C]-CA--CB-[CG] |==|  0.61012
USER: genes 7 Torsion [CA]-CB--CG-[CD] |==|  0.73003
USER: genes 8 Torsion [CB]-CG--CD-[NE] |==|  0.90657
USER: genes 9 Torsion [CG]-CD--NE-[CZ] |==|  0.55669
USER: genes 10 Torsion [C]-CA--CB-[CG] |==|  0.25090
USER: genes 11 Torsion [CA]-CB--CG-[CD] |==|  0.64756
USER: genes 12 Torsion [CB]-CG--CD-[OE1] |==|  0.68479
USER: genes 13 Torsion [N]-CA--CB-[CG] |==|  0.62016
USER: genes 14 Torsion [CA]-CB--CG-[CD2] |==|  0.24047
USER: genes 15 Torsion [N]-CA--C-[N] |==|  0.60202
USER: genes 16 Torsion [C]-N--CA-[CB] |==|  0.78877
USER: genes 17 Torsion [N]-CA--CB-[CG1] |==|  0.58111
USER: genes 18 Torsion [N]-CA--C-[N] |==|  0.23479
USER: genes 19 Torsion [C]-N--CA-[CB] |==|  0.52828
USER: genes 20 Torsion [N]-CA--CB-[CG] |==|  0.54625
USER: genes 21 Torsion [CA]-CB--CG-[CD1] |==|  0.15691
USER: genes 22 Torsion [N]-CA--C-[N] |==|  0.90697
USER: genes 23 Torsion [C]-N--CA-[C] |==|  0.39973
USER: genes 24 Torsion [N]-CA--C-[N] |==|  0.98947
USER: genes 25 Torsion [C]-N--CA-[CB] |==|  0.35402
USER: genes 26 Torsion [N]-CA--CB-[CG] |==|  0.91920
USER: genes 27 Torsion [CA]-CB--CG-[CD1] |==|  0.28525
USER: genes 28 Torsion [N]-CA--C-[O] |==|  0.05546
ROOT
ATOM      1  CA  LEU C  12      -0.006   4.122  31.700  0.76 25.89 LIG 0.18  C 
ENDROOT
BRANCH 1 2
ATOM      2  N   LEU C  12      -0.716   3.636  32.875  0.76 24.12 LIG-0.35  N 
ATOM      3 H    LEU C  12      -0.508   2.835  33.108  0.76 24.12 LIG 0.16  HD
ATOM      4  C   GLN C  11      -1.606   4.386  33.517  0.76 26.11 LIG 0.24  C 
ATOM      5 O    GLN C  11      -1.886   5.538  33.175  0.76 27.34 LIG-0.27  OA
BRANCH 4 6
ATOM      6  CA  GLN C  11      -2.294   3.732  34.714  0.76 26.16 LIG 0.18  C 
BRANCH 6 7
ATOM      7  N   GLN C  11      -3.669   3.319  34.465  0.76 28.86 LIG-0.35  N 
ATOM      8  C   ARG C  10      -4.002   2.438  33.529  0.76 30.48 LIG 0.26  C 
ATOM      9 O    ARG C  10      -3.177   1.868  32.810  0.76 24.30 LIG-0.27  OA
ATOM     10 H    GLN C  11      -4.244   3.699  34.979  0.76 28.86 LIG 0.16  HD
BRANCH 8 11
ATOM     11  CA  ARG C  10      -5.504   2.144  33.396  0.76 33.62 LIG 0.40  C 
ATOM     12  N   ARG C  10      -6.189   3.182  32.570  0.76 36.52 LIG 0.61  N 
BRANCH 11 13
ATOM     13  CB  ARG C  10      -5.687   0.766  32.760  0.76 36.98 LIG 0.05  C 
BRANCH 13 14
ATOM     14  CG  ARG C  10      -6.826   0.659  31.739  0.76 39.40 LIG 0.02  C 
BRANCH 14 15
ATOM     15  CD  ARG C  10      -8.100   0.092  32.354  0.76 42.42 LIG 0.14  C 
BRANCH 15 16
ATOM     16  NE  ARG C  10      -7.810  -0.892  33.395  0.76 44.78 LIG-0.23  N 
ATOM     17  CZ  ARG C  10      -8.665  -1.815  33.827  0.76 45.62 LIG 0.67  C 
ATOM     18  NH2 ARG C  10      -8.291  -2.674  34.766  0.76 46.43 LIG-0.23  N 
ATOM     19  NH1 ARG C  10      -9.886  -1.892  33.315  0.76 45.50 LIG-0.23  N 
ATOM     20 2HH2 ARG C  10      -8.843  -3.272  35.047  0.76 46.43 LIG 0.17  HD
ATOM     21 1HH2 ARG C  10      -7.497  -2.633  35.094  0.76 46.43 LIG 0.17  HD
ATOM     22 2HH1 ARG C  10     -10.435  -2.491  33.599  0.76 45.50 LIG 0.17  HD
ATOM     23 1HH1 ARG C  10     -10.130  -1.343  32.699  0.76 45.50 LIG 0.17  HD
ATOM     24 HE   ARG C  10      -7.029  -0.874  33.755  0.76 44.78 LIG 0.18  HD
ENDBRANCH 15 16
ENDBRANCH 14 15
ENDBRANCH 13 14
ENDBRANCH 11 13
ENDBRANCH 8 11
ENDBRANCH 6 7
BRANCH 6 25
ATOM     25  CB  GLN C  11      -1.466   2.523  35.158  0.76 25.68 LIG 0.04  C 
BRANCH 25 26
ATOM     26  CG  GLN C  11      -0.414   2.848  36.202  0.76 22.66 LIG 0.10  C 
BRANCH 26 27
ATOM     27  CD  GLN C  11       0.954   2.372  35.787  0.76 24.13 LIG 0.21  C 
ATOM     28 OE1  GLN C  11       1.521   1.467  36.408  0.76 19.83 LIG-0.27  OA
ATOM     29  NE2 GLN C  11       1.498   2.974  34.733  0.76 21.86 LIG-0.37  N 
ATOM     30 21HE GLN C  11       1.070   3.600  34.327  0.76 21.86 LIG 0.16  HD
ATOM     31 22HE GLN C  11       2.277   2.737  34.457  0.76 21.86 LIG 0.16  HD
ENDBRANCH 26 27
ENDBRANCH 25 26
ENDBRANCH 6 25
ENDBRANCH 4 6
ENDBRANCH 1 2
BRANCH 1 32
ATOM     32  CB  LEU C  12      -0.975   4.291  30.524  0.76 24.07 LIG 0.04  C 
BRANCH 32 33
ATOM     33  CG  LEU C  12      -0.475   3.790  29.164  0.76 21.16 LIG-0.02  C 
ATOM     34  CD1 LEU C  12       1.022   4.045  29.068  0.76 25.64 LIG 0.01  C 
ATOM     35  CD2 LEU C  12      -0.779   2.303  28.996  0.76 25.10 LIG 0.01  C 
ENDBRANCH 32 33
ENDBRANCH 1 32
BRANCH 1 36
ATOM     36  C   LEU C  12       0.631   5.464  32.071  0.76 25.30 LIG 0.24  C 
ATOM     37 O    LEU C  12       1.093   5.644  33.202  0.76 25.87 LIG-0.27  OA
ATOM     38  N   VAL C  13       0.659   6.403  31.126  0.76 25.62 LIG-0.35  N 
ATOM     39 H    VAL C  13       0.325   6.310  30.339  0.76 25.62 LIG 0.16  HD
BRANCH 38 40
ATOM     40  CA  VAL C  13       1.283   7.701  31.378  0.76 24.99 LIG 0.18  C 
BRANCH 40 41
ATOM     41  CB  VAL C  13       0.377   8.597  32.258  0.76 27.65 LIG 0.01  C 
ATOM     42  CG1 VAL C  13       0.623  10.067  31.937  0.76 28.12 LIG 0.01  C 
ATOM     43  CG2 VAL C  13      -1.081   8.247  32.030  0.76 27.69 LIG 0.01  C 
ENDBRANCH 40 41
BRANCH 40 44
ATOM     44  C   VAL C  13       2.657   7.631  32.035  0.76 25.58 LIG 0.24  C 
ATOM     45  N   LEU C  14       3.676   7.454  31.206  0.76 25.74 LIG-0.35  N 
ATOM     46 H    LEU C  14       3.595   7.380  30.354  0.76 25.74 LIG 0.16  HD
ATOM     47 O    VAL C  13       2.799   7.744  33.254  0.76 23.74 LIG-0.27  OA
BRANCH 45 48
ATOM     48  CA  LEU C  14       5.048   7.368  31.689  0.76 27.54 LIG 0.18  C 
BRANCH 48 49
ATOM     49  CB  LEU C  14       6.027   7.418  30.512  0.76 27.94 LIG 0.04  C 
BRANCH 49 50
ATOM     50  CG  LEU C  14       7.460   6.955  30.777  0.76 29.52 LIG-0.02  C 
ATOM     51  CD2 LEU C  14       8.274   7.045  29.489  0.76 29.01 LIG 0.01  C 
ATOM     52  CD1 LEU C  14       7.435   5.536  31.317  0.76 31.53 LIG 0.01  C 
ENDBRANCH 49 50
ENDBRANCH 48 49
BRANCH 48 53
ATOM     53  C   LEU C  14       5.405   8.489  32.654  0.76 27.94 LIG 0.24  C 
ATOM     54  N   GLY C  15       4.821   9.656  32.419  0.76 27.74 LIG-0.35  N 
ATOM     55 H    GLY C  15       4.295   9.814  31.757  0.76 27.74 LIG 0.16  HD
ATOM     56 O    LEU C  14       6.196   8.304  33.586  0.76 29.25 LIG-0.27  OA
BRANCH 54 57
ATOM     57  CA  GLY C  15       5.046  10.782  33.306  0.76 32.19 LIG 0.23  C 
BRANCH 57 58
ATOM     58  C   GLY C  15       5.077  12.025  32.431  0.76 34.72 LIG 0.24  C 
ATOM     59  N   LEU C  16       4.981  11.819  31.121  0.76 34.76 LIG-0.34  N 
ATOM     60 H    LEU C  16       4.888  11.041  30.769  0.76 34.76 LIG 0.16  HD
ATOM     61 O    GLY C  15       5.194  13.145  32.928  0.76 36.88 LIG-0.27  OA
BRANCH 59 62
ATOM     62  CA  LEU C  16       5.025  12.910  30.152  0.76 35.63 LIG 0.18  C 
BRANCH 62 63
ATOM     63  CB  LEU C  16       6.086  12.608  29.094  0.76 32.88 LIG 0.04  C 
BRANCH 63 64
ATOM     64  CG  LEU C  16       7.243  11.748  29.609  0.76 27.62 LIG-0.02  C 
ATOM     65  CD1 LEU C  16       7.083  10.311  29.137  0.76 29.42 LIG 0.01  C 
ATOM     66  CD2 LEU C  16       8.559  12.336  29.128  0.76 30.85 LIG 0.01  C 
ENDBRANCH 63 64
ENDBRANCH 62 63
BRANCH 62 67
ATOM     67  C   LEU C  16       3.689  13.200  29.482  0.76 36.84 LIG 0.20  C 
ATOM     68 O    LEU C  16       2.649  12.795  30.052  0.76 37.63 LIG-0.65  OA
ATOM     69 OXT  LEU C  16       3.698  13.827  28.401  0.76 38.60 LIG-0.65  OA
ENDBRANCH 62 67
ENDBRANCH 59 62
ENDBRANCH 57 58
ENDBRANCH 54 57
ENDBRANCH 48 53
ENDBRANCH 45 48
ENDBRANCH 40 44
ENDBRANCH 38 40
ENDBRANCH 1 36
TORSDOF 27
ENDMDL
MODEL 6
USER: ADFR SOLUTION from run 140
USER: SCORE 17.963473 LL:  -4.435 LR: -17.411 RR:   0.000 FEB:  -9.357
USER: RMSD 4.154007
USER: SEED 139
USER: STATUS searching
USER: GENES 29
USER: genes 0 Translation |==|  0.53691 0.41867 0.45757
USER: genes 1 Rotation |==|  0.79108 0.88868 0.42761 0.59465
USER: genes 2 Torsion [CB]-CA--N-[C] |==|  0.80468
USER: genes 3 Torsion [N]-C--CA-[N] |==|  0.70416
USER: genes 4 Torsion [C]-CA--N-[C] |==|  0.18523
USER: genes 5 Torsion [N]-C--CA-[N] |==|  0.21233
USER: genes 6 Torsion [C]-CA--CB-[CG] |==|  0.60367
USER: genes 7 Torsion [CA]-CB--CG-[CD] |==|  0.70782
USER: genes 8 Torsion [CB]-CG--CD-[NE] |==|  0.91449
USER: genes 9 Torsion [CG]-CD--NE-[CZ] |==|  0.54923
USER: genes 10 Torsion [C]-CA--CB-[CG] |==|  0.22790
USER: genes 11 Torsion [CA]-CB--CG-[CD] |==|  0.65073
USER: genes 12 Torsion [CB]-CG--CD-[OE1] |==|  0.70813
USER: genes 13 Torsion [N]-CA--CB-[CG] |==|  0.64294
USER: genes 14 Torsion [CA]-CB--CG-[CD2] |==|  0.19675
USER: genes 15 Torsion [N]-CA--C-[N] |==|  0.58202
USER: genes 16 Torsion [C]-N--CA-[CB] |==|  0.78815
USER: genes 17 Torsion [N]-CA--CB-[CG1] |==|  0.60032
USER: genes 18 Torsion [N]-CA--C-[N] |==|  0.27970
USER: genes 19 Torsion [C]-N--CA-[CB] |==|  0.39698
USER: genes 20 Torsion [N]-CA--CB-[CG] |==|  0.11228
USER: genes 21 Torsion [CA]-CB--CG-[CD1] |==|  0.20024
USER: genes 22 Torsion [N]-CA--C-[N] |==|  0.93876
USER: genes 23 Torsion [C]-N--CA-[C] |==|  0.60001
USER: genes 24 Torsion [N]-CA--C-[N] |==|  0.61265
USER: genes 25 Torsion [C]-N--CA-[CB] |==|  0.28879
USER: genes 26 Torsion [N]-CA--CB-[CG] |==|  0.52756
USER: genes 27 Torsion [CA]-CB--CG-[CD1] |==|  0.26256
USER: genes 28 Torsion [N]-CA--C-[O] |==|  0.68165
ROOT
ATOM      1  CA  LEU C  12       0.306   4.133  31.783  0.76 25.89 LIG 0.18  C 
ENDROOT
BRANCH 1 2
ATOM      2  N   LEU C  12      -0.538   3.732  32.901  0.76 24.12 LIG-0.35  N 
ATOM      3 H    LEU C  12      -0.355   2.955  33.221  0.76 24.12 LIG 0.16  HD
ATOM      4  C   GLN C  11      -1.503   4.517  33.368  0.76 26.11 LIG 0.24  C 
ATOM      5 O    GLN C  11      -1.747   5.633  32.902  0.76 27.34 LIG-0.27  OA
BRANCH 4 6
ATOM      6  CA  GLN C  11      -2.326   3.951  34.523  0.76 26.16 LIG 0.18  C 
BRANCH 6 7
ATOM      7  N   GLN C  11      -3.674   3.535  34.153  0.76 28.86 LIG-0.35  N 
ATOM      8  C   ARG C  10      -3.919   2.512  33.341  0.76 30.48 LIG 0.26  C 
ATOM      9 O    ARG C  10      -3.032   1.806  32.854  0.76 24.30 LIG-0.27  OA
ATOM     10 H    GLN C  11      -4.294   4.012  34.509  0.76 28.86 LIG 0.16  HD
BRANCH 8 11
ATOM     11  CA  ARG C  10      -5.401   2.237  33.047  0.76 33.62 LIG 0.40  C 
ATOM     12  N   ARG C  10      -5.952   3.221  32.070  0.76 36.52 LIG 0.61  N 
BRANCH 11 13
ATOM     13  CB  ARG C  10      -5.543   0.819  32.496  0.76 36.98 LIG 0.05  C 
BRANCH 13 14
ATOM     14  CG  ARG C  10      -6.593   0.644  31.392  0.76 39.40 LIG 0.02  C 
BRANCH 14 15
ATOM     15  CD  ARG C  10      -7.851  -0.053  31.896  0.76 42.42 LIG 0.14  C 
BRANCH 15 16
ATOM     16  NE  ARG C  10      -7.555  -0.993  32.977  0.76 44.78 LIG-0.23  N 
ATOM     17  CZ  ARG C  10      -8.366  -1.968  33.378  0.76 45.62 LIG 0.67  C 
ATOM     18  NH2 ARG C  10      -7.990  -2.778  34.358  0.76 46.43 LIG-0.23  N 
ATOM     19  NH1 ARG C  10      -9.544  -2.145  32.794  0.76 45.50 LIG-0.23  N 
ATOM     20 2HH2 ARG C  10      -8.513  -3.410  34.619  0.76 46.43 LIG 0.17  HD
ATOM     21 1HH2 ARG C  10      -7.223  -2.672  34.733  0.76 46.43 LIG 0.17  HD
ATOM     22 2HH1 ARG C  10     -10.064  -2.778  33.058  0.76 45.50 LIG 0.17  HD
ATOM     23 1HH1 ARG C  10      -9.788  -1.628  32.152  0.76 45.50 LIG 0.17  HD
ATOM     24 HE   ARG C  10      -6.802  -0.909  33.383  0.76 44.78 LIG 0.18  HD
ENDBRANCH 15 16
ENDBRANCH 14 15
ENDBRANCH 13 14
ENDBRANCH 11 13
ENDBRANCH 8 11
ENDBRANCH 6 7
BRANCH 6 25
ATOM     25  CB  GLN C  11      -1.572   2.766  35.132  0.76 25.68 LIG 0.04  C 
BRANCH 25 26
ATOM     26  CG  GLN C  11      -0.492   3.167  36.119  0.76 22.66 LIG 0.10  C 
BRANCH 26 27
ATOM     27  CD  GLN C  11       0.846   2.576  35.759  0.76 24.13 LIG 0.21  C 
ATOM     28 OE1  GLN C  11       1.306   1.623  36.397  0.76 19.83 LIG-0.27  OA
ATOM     29  NE2 GLN C  11       1.484   3.132  34.733  0.76 21.86 LIG-0.37  N 
ATOM     30 21HE GLN C  11       1.131   3.794  34.314  0.76 21.86 LIG 0.16  HD
ATOM     31 22HE GLN C  11       2.251   2.828  34.489  0.76 21.86 LIG 0.16  HD
ENDBRANCH 26 27
ENDBRANCH 25 26
ENDBRANCH 6 25
ENDBRANCH 4 6
ENDBRANCH 1 2
BRANCH 1 32
ATOM     32  CB  LEU C  12      -0.502   4.136  30.480  0.76 24.07 LIG 0.04  C 
BRANCH 32 33
ATOM     33  CG  LEU C  12       0.110   3.358  29.308  0.76 21.16 LIG-0.02  C 
ATOM     34  CD1 LEU C  12       1.552   3.802  29.125  0.76 25.64 LIG 0.01  C 
ATOM     35  CD2 LEU C  12       0.039   1.854  29.571  0.76 25.10 LIG 0.01  C 
ENDBRANCH 32 33
ENDBRANCH 1 32
BRANCH 1 36
ATOM     36  C   LEU C  12       0.839   5.536  32.090  0.76 25.30 LIG 0.24  C 
ATOM     37 O    LEU C  12       1.012   5.894  33.259  0.76 25.87 LIG-0.27  OA
ATOM     38  N   VAL C  13       1.099   6.326  31.049  0.76 25.62 LIG-0.35  N 
ATOM     39 H    VAL C  13       0.967   6.107  30.228  0.76 25.62 LIG 0.16  HD
BRANCH 38 40
ATOM     40  CA  VAL C  13       1.648   7.666  31.246  0.76 24.99 LIG 0.18  C 
BRANCH 40 41
ATOM     41  CB  VAL C  13       0.557   8.653  31.732  0.76 27.65 LIG 0.01  C 
ATOM     42  CG1 VAL C  13       0.788  10.031  31.121  0.76 28.12 LIG 0.01  C 
ATOM     43  CG2 VAL C  13      -0.818   8.135  31.355  0.76 27.69 LIG 0.01  C 
ENDBRANCH 40 41
BRANCH 40 44
ATOM     44  C   VAL C  13       2.817   7.740  32.223  0.76 25.58 LIG 0.24  C 
ATOM     45  N   LEU C  14       4.019   7.810  31.667  0.76 25.74 LIG-0.35  N 
ATOM     46 H    LEU C  14       4.156   7.814  30.819  0.76 25.74 LIG 0.16  HD
ATOM     47 O    VAL C  13       2.644   7.745  33.442  0.76 23.74 LIG-0.27  OA
BRANCH 45 48
ATOM     48  CA  LEU C  14       5.230   7.886  32.474  0.76 27.54 LIG 0.18  C 
BRANCH 48 49
ATOM     49  CB  LEU C  14       6.356   7.082  31.815  0.76 27.94 LIG 0.04  C 
BRANCH 49 50
ATOM     50  CG  LEU C  14       6.482   7.176  30.295  0.76 29.52 LIG-0.02  C 
ATOM     51  CD2 LEU C  14       7.396   6.065  29.786  0.76 29.01 LIG 0.01  C 
ATOM     52  CD1 LEU C  14       7.018   8.547  29.922  0.76 31.53 LIG 0.01  C 
ENDBRANCH 49 50
ENDBRANCH 48 49
BRANCH 48 53
ATOM     53  C   LEU C  14       5.717   9.314  32.673  0.76 27.94 LIG 0.24  C 
ATOM     54  N   GLY C  15       5.300  10.193  31.772  0.76 27.74 LIG-0.35  N 
ATOM     55 H    GLY C  15       4.812   9.999  31.090  0.76 27.74 LIG 0.16  HD
ATOM     56 O    LEU C  14       6.458   9.611  33.617  0.76 29.25 LIG-0.27  OA
BRANCH 54 57
ATOM     57  CA  GLY C  15       5.658  11.594  31.892  0.76 32.19 LIG 0.23  C 
BRANCH 57 58
ATOM     58  C   GLY C  15       4.459  12.392  31.407  0.76 34.72 LIG 0.24  C 
ATOM     59  N   LEU C  16       4.730  13.460  30.664  0.76 34.76 LIG-0.34  N 
ATOM     60 H    LEU C  16       5.527  13.694  30.443  0.76 34.76 LIG 0.16  HD
ATOM     61 O    GLY C  15       3.313  12.056  31.707  0.76 36.88 LIG-0.27  OA
BRANCH 59 62
ATOM     62  CA  LEU C  16       3.687  14.342  30.150  0.76 35.63 LIG 0.18  C 
BRANCH 62 63
ATOM     63  CB  LEU C  16       3.656  15.629  30.974  0.76 32.88 LIG 0.04  C 
BRANCH 63 64
ATOM     64  CG  LEU C  16       2.448  16.521  30.680  0.76 27.62 LIG-0.02  C 
ATOM     65  CD1 LEU C  16       1.328  16.237  31.668  0.76 29.42 LIG 0.01  C 
ATOM     66  CD2 LEU C  16       2.873  17.978  30.743  0.76 30.85 LIG 0.01  C 
ENDBRANCH 63 64
ENDBRANCH 62 63
BRANCH 62 67
ATOM     67  C   LEU C  16       3.827  14.673  28.671  0.76 36.84 LIG 0.20  C 
ATOM     68 O    LEU C  16       4.063  15.864  28.358  0.76 37.63 LIG-0.65  OA
ATOM     69 OXT  LEU C  16       3.699  13.744  27.846  0.76 38.60 LIG-0.65  OA
ENDBRANCH 62 67
ENDBRANCH 59 62
ENDBRANCH 57 58
ENDBRANCH 54 57
ENDBRANCH 48 53
ENDBRANCH 45 48
ENDBRANCH 40 44
ENDBRANCH 38 40
ENDBRANCH 1 36
TORSDOF 27
ENDMDL
MODEL 7
USER: ADFR SOLUTION from run 187
USER: SCORE 18.089782 LL:  -4.380 LR: -17.097 RR:   0.000 FEB:  -9.043
USER: RMSD 6.599752
USER: SEED 186
USER: STATUS no improvement in best in 8 clusters for 5 generations
USER: GENES 29
USER: genes 0 Translation |==|  0.54331 0.43115 0.41878
USER: genes 1 Rotation |==|  0.79085 0.90493 0.47527 0.52870
USER: genes 2 Torsion [CB]-CA--N-[C] |==|  0.85238
USER: genes 3 Torsion [N]-C--CA-[N] |==|  0.11556
USER: genes 4 Torsion [C]-CA--N-[C] |==|  0.15643
USER: genes 5 Torsion [N]-C--CA-[N] |==|  0.55434
USER: genes 6 Torsion [C]-CA--CB-[CG] |==|  0.35124
USER: genes 7 Torsion [CA]-CB--CG-[CD] |==|  0.46550
USER: genes 8 Torsion [CB]-CG--CD-[NE] |==|  0.32714
USER: genes 9 Torsion [CG]-CD--NE-[CZ] |==|  0.32322
USER: genes 10 Torsion [C]-CA--CB-[CG] |==|  0.44836
USER: genes 11 Torsion [CA]-CB--CG-[CD] |==|  0.83590
USER: genes 12 Torsion [CB]-CG--CD-[OE1] |==|  0.16063
USER: genes 13 Torsion [N]-CA--CB-[CG] |==|  0.71456
USER: genes 14 Torsion [CA]-CB--CG-[CD2] |==|  0.30524
USER: genes 15 Torsion [N]-CA--C-[N] |==|  0.55763
USER: genes 16 Torsion [C]-N--CA-[CB] |==|  0.81111
USER: genes 17 Torsion [N]-CA--CB-[CG1] |==|  0.56501
USER: genes 18 Torsion [N]-CA--C-[N] |==|  0.23292
USER: genes 19 Torsion [C]-N--CA-[CB] |==|  0.53396
USER: genes 20 Torsion [N]-CA--CB-[CG] |==|  0.78609
USER: genes 21 Torsion [CA]-CB--CG-[CD1] |==|  0.49096
USER: genes 22 Torsion [N]-CA--C-[N] |==|  0.29821
USER: genes 23 Torsion [C]-N--CA-[C] |==|  0.71295
USER: genes 24 Torsion [N]-CA--C-[N] |==|  0.89236
USER: genes 25 Torsion [C]-N--CA-[CB] |==|  0.40467
USER: genes 26 Torsion [N]-CA--CB-[CG] |==|  0.51389
USER: genes 27 Torsion [CA]-CB--CG-[CD1] |==|  0.29270
USER: genes 28 Torsion [N]-CA--C-[O] |==|  0.87753
ROOT
ATOM      1  CA  LEU C  12       0.498   4.470  31.143  0.76 25.89 LIG 0.18  C 
ENDROOT
BRANCH 1 2
ATOM      2  N   LEU C  12      -0.209   3.703  32.160  0.76 24.12 LIG-0.35  N 
ATOM      3 H    LEU C  12       0.169   2.960  32.369  0.76 24.12 LIG 0.16  HD
ATOM      4  C   GLN C  11      -1.341   4.137  32.705  0.76 26.11 LIG 0.24  C 
ATOM      5 O    GLN C  11      -1.865   5.212  32.400  0.76 27.34 LIG-0.27  OA
BRANCH 4 6
ATOM      6  CA  GLN C  11      -1.985   3.213  33.736  0.76 26.16 LIG 0.18  C 
BRANCH 6 7
ATOM      7  N   GLN C  11      -1.043   2.590  34.656  0.76 28.86 LIG-0.35  N 
ATOM      8  C   ARG C  10      -0.203   3.285  35.414  0.76 30.48 LIG 0.26  C 
ATOM      9 O    ARG C  10      -0.168   4.519  35.430  0.76 24.30 LIG-0.27  OA
ATOM     10 H    GLN C  11      -1.081   1.731  34.663  0.76 28.86 LIG 0.16  HD
BRANCH 8 11
ATOM     11  CA  ARG C  10       0.733   2.455  36.305  0.76 33.62 LIG 0.40  C 
ATOM     12  N   ARG C  10       1.283   3.275  37.426  0.76 36.52 LIG 0.61  N 
BRANCH 11 13
ATOM     13  CB  ARG C  10      -0.040   1.261  36.863  0.76 36.98 LIG 0.05  C 
BRANCH 13 14
ATOM     14  CG  ARG C  10       0.602  -0.110  36.621  0.76 39.40 LIG 0.02  C 
BRANCH 14 15
ATOM     15  CD  ARG C  10      -0.051  -1.209  37.451  0.76 42.42 LIG 0.14  C 
BRANCH 15 16
ATOM     16  NE  ARG C  10      -0.666  -2.233  36.608  0.76 44.78 LIG-0.23  N 
ATOM     17  CZ  ARG C  10      -0.287  -3.507  36.564  0.76 45.62 LIG 0.67  C 
ATOM     18  NH2 ARG C  10      -0.928  -4.360  35.776  0.76 46.43 LIG-0.23  N 
ATOM     19  NH1 ARG C  10       0.719  -3.936  37.314  0.76 45.50 LIG-0.23  N 
ATOM     20 2HH2 ARG C  10      -0.685  -5.185  35.745  0.76 46.43 LIG 0.17  HD
ATOM     21 1HH2 ARG C  10      -1.588  -4.088  35.294  0.76 46.43 LIG 0.17  HD
ATOM     22 2HH1 ARG C  10       0.960  -4.761  37.280  0.76 45.50 LIG 0.17  HD
ATOM     23 1HH1 ARG C  10       1.132  -3.389  37.834  0.76 45.50 LIG 0.17  HD
ATOM     24 HE   ARG C  10      -1.321  -1.994  36.105  0.76 44.78 LIG 0.18  HD
ENDBRANCH 15 16
ENDBRANCH 14 15
ENDBRANCH 13 14
ENDBRANCH 11 13
ENDBRANCH 8 11
ENDBRANCH 6 7
BRANCH 6 25
ATOM     25  CB  GLN C  11      -3.027   4.008  34.527  0.76 25.68 LIG 0.04  C 
BRANCH 25 26
ATOM     26  CG  GLN C  11      -4.037   3.142  35.256  0.76 22.66 LIG 0.10  C 
BRANCH 26 27
ATOM     27  CD  GLN C  11      -4.803   2.254  34.310  0.76 24.13 LIG 0.21  C 
ATOM     28 OE1  GLN C  11      -4.210   1.455  33.578  0.76 19.83 LIG-0.27  OA
ATOM     29  NE2 GLN C  11      -6.126   2.382  34.314  0.76 21.86 LIG-0.37  N 
ATOM     30 21HE GLN C  11      -6.502   2.951  34.839  0.76 21.86 LIG 0.16  HD
ATOM     31 22HE GLN C  11      -6.607   1.897  33.792  0.76 21.86 LIG 0.16  HD
ENDBRANCH 26 27
ENDBRANCH 25 26
ENDBRANCH 6 25
ENDBRANCH 4 6
ENDBRANCH 1 2
BRANCH 1 32
ATOM     32  CB  LEU C  12      -0.449   4.827  29.992  0.76 24.07 LIG 0.04  C 
BRANCH 32 33
ATOM     33  CG  LEU C  12      -0.304   3.987  28.717  0.76 21.16 LIG-0.02  C 
ATOM     34  CD1 LEU C  12       0.974   3.167  28.813  0.76 25.64 LIG 0.01  C 
ATOM     35  CD2 LEU C  12      -1.516   3.075  28.537  0.76 25.10 LIG 0.01  C 
ENDBRANCH 32 33
ENDBRANCH 1 32
BRANCH 1 36
ATOM     36  C   LEU C  12       1.035   5.738  31.813  0.76 25.30 LIG 0.24  C 
ATOM     37 O    LEU C  12       1.176   5.783  33.039  0.76 25.87 LIG-0.27  OA
ATOM     38  N   VAL C  13       1.333   6.764  31.017  0.76 25.62 LIG-0.35  N 
ATOM     39 H    VAL C  13       1.223   6.765  30.164  0.76 25.62 LIG 0.16  HD
BRANCH 38 40
ATOM     40  CA  VAL C  13       1.887   8.000  31.566  0.76 24.99 LIG 0.18  C 
BRANCH 40 41
ATOM     41  CB  VAL C  13       0.844   8.747  32.433  0.76 27.65 LIG 0.01  C 
ATOM     42  CG1 VAL C  13       1.192  10.229  32.511  0.76 28.12 LIG 0.01  C 
ATOM     43  CG2 VAL C  13      -0.544   8.562  31.852  0.76 27.69 LIG 0.01  C 
ENDBRANCH 40 41
BRANCH 40 44
ATOM     44  C   VAL C  13       3.150   7.818  32.402  0.76 25.58 LIG 0.24  C 
ATOM     45  N   LEU C  14       4.283   7.757  31.716  0.76 25.74 LIG-0.35  N 
ATOM     46 H    LEU C  14       4.330   7.815  30.860  0.76 25.74 LIG 0.16  HD
ATOM     47 O    VAL C  13       3.109   7.742  33.630  0.76 23.74 LIG-0.27  OA
BRANCH 45 48
ATOM     48  CA  LEU C  14       5.569   7.585  32.378  0.76 27.54 LIG 0.18  C 
BRANCH 48 49
ATOM     49  CB  LEU C  14       6.712   7.852  31.393  0.76 27.94 LIG 0.04  C 
BRANCH 49 50
ATOM     50  CG  LEU C  14       7.032   6.751  30.383  0.76 29.52 LIG-0.02  C 
ATOM     51  CD2 LEU C  14       7.448   5.482  31.122  0.76 29.01 LIG 0.01  C 
ATOM     52  CD1 LEU C  14       8.129   7.232  29.450  0.76 31.53 LIG 0.01  C 
ENDBRANCH 49 50
ENDBRANCH 48 49
BRANCH 48 53
ATOM     53  C   LEU C  14       5.745   8.509  33.574  0.76 27.94 LIG 0.24  C 
ATOM     54  N   GLY C  15       5.679   7.926  34.764  0.76 27.74 LIG-0.35  N 
ATOM     55 H    GLY C  15       5.518   7.090  34.889  0.76 27.74 LIG 0.16  HD
ATOM     56 O    LEU C  14       5.930   9.722  33.425  0.76 29.25 LIG-0.27  OA
BRANCH 54 57
ATOM     57  CA  GLY C  15       5.885   8.700  35.974  0.76 32.19 LIG 0.23  C 
BRANCH 57 58
ATOM     58  C   GLY C  15       7.289   8.377  36.461  0.76 34.72 LIG 0.24  C 
ATOM     59  N   LEU C  16       7.674   7.111  36.335  0.76 34.76 LIG-0.34  N 
ATOM     60 H    LEU C  16       7.183   6.499  35.985  0.76 34.76 LIG 0.16  HD
ATOM     61 O    GLY C  15       8.004   9.252  36.950  0.76 36.88 LIG-0.27  OA
BRANCH 59 62
ATOM     62  CA  LEU C  16       8.981   6.642  36.785  0.76 35.63 LIG 0.18  C 
BRANCH 62 63
ATOM     63  CB  LEU C  16       8.856   5.210  37.307  0.76 32.88 LIG 0.04  C 
BRANCH 63 64
ATOM     64  CG  LEU C  16      10.148   4.662  37.917  0.76 27.62 LIG-0.02  C 
ATOM     65  CD1 LEU C  16      10.042   4.627  39.434  0.76 29.42 LIG 0.01  C 
ATOM     66  CD2 LEU C  16      10.419   3.276  37.358  0.76 30.85 LIG 0.01  C 
ENDBRANCH 63 64
ENDBRANCH 62 63
BRANCH 62 67
ATOM     67  C   LEU C  16      10.067   6.717  35.722  0.76 36.84 LIG 0.20  C 
ATOM     68 O    LEU C  16       9.781   6.329  34.565  0.76 37.63 LIG-0.65  OA
ATOM     69 OXT  LEU C  16      11.187   7.160  36.055  0.76 38.60 LIG-0.65  OA
ENDBRANCH 62 67
ENDBRANCH 59 62
ENDBRANCH 57 58
ENDBRANCH 54 57
ENDBRANCH 48 53
ENDBRANCH 45 48
ENDBRANCH 40 44
ENDBRANCH 38 40
ENDBRANCH 1 36
TORSDOF 27
ENDMDL
MODEL 8
USER: ADFR SOLUTION from run 176
USER: SCORE 18.030297 LL:  -4.060 LR: -16.822 RR:   0.000 FEB:  -8.768
USER: RMSD 4.578850
USER: SEED 175
USER: STATUS no improvement in best in 21 clusters for 5 generations
USER: GENES 29
USER: genes 0 Translation |==|  0.52875 0.42689 0.45111
USER: genes 1 Rotation |==|  0.78277 0.90467 0.42229 0.51574
USER: genes 2 Torsion [CB]-CA--N-[C] |==|  0.85456
USER: genes 3 Torsion [N]-C--CA-[N] |==|  0.62973
USER: genes 4 Torsion [C]-CA--N-[C] |==|  0.18516
USER: genes 5 Torsion [N]-C--CA-[N] |==|  0.21796
USER: genes 6 Torsion [C]-CA--CB-[CG] |==|  0.58211
USER: genes 7 Torsion [CA]-CB--CG-[CD] |==|  0.58289
USER: genes 8 Torsion [CB]-CG--CD-[NE] |==|  0.19023
USER: genes 9 Torsion [CG]-CD--NE-[CZ] |==|  0.60584
USER: genes 10 Torsion [C]-CA--CB-[CG] |==|  0.40359
USER: genes 11 Torsion [CA]-CB--CG-[CD] |==|  0.62046
USER: genes 12 Torsion [CB]-CG--CD-[OE1] |==|  0.14159
USER: genes 13 Torsion [N]-CA--CB-[CG] |==|  0.75675
USER: genes 14 Torsion [CA]-CB--CG-[CD2] |==|  0.91686
USER: genes 15 Torsion [N]-CA--C-[N] |==|  0.51577
USER: genes 16 Torsion [C]-N--CA-[CB] |==|  0.80865
USER: genes 17 Torsion [N]-CA--CB-[CG1] |==|  0.58091
USER: genes 18 Torsion [N]-CA--C-[N] |==|  0.28217
USER: genes 19 Torsion [C]-N--CA-[CB] |==|  0.52957
USER: genes 20 Torsion [N]-CA--CB-[CG] |==|  0.86477
USER: genes 21 Torsion [CA]-CB--CG-[CD1] |==|  0.42755
USER: genes 22 Torsion [N]-CA--C-[N] |==|  0.31914
USER: genes 23 Torsion [C]-N--CA-[C] |==|  0.76304
USER: genes 24 Torsion [N]-CA--C-[N] |==|  0.98763
USER: genes 25 Torsion [C]-N--CA-[CB] |==|  0.38342
USER: genes 26 Torsion [N]-CA--CB-[CG] |==|  0.66963
USER: genes 27 Torsion [CA]-CB--CG-[CD1] |==|  0.41657
USER: genes 28 Torsion [N]-CA--C-[O] |==|  0.90445
ROOT
ATOM      1  CA  LEU C  12       0.061   4.355  31.676  0.76 25.89 LIG 0.18  C 
ENDROOT
BRANCH 1 2
ATOM      2  N   LEU C  12      -0.451   3.743  32.895  0.76 24.12 LIG-0.35  N 
ATOM      3 H    LEU C  12      -0.020   3.043  33.147  0.76 24.12 LIG 0.16  HD
ATOM      4  C   GLN C  11      -1.497   4.243  33.546  0.76 26.11 LIG 0.24  C 
ATOM      5 O    GLN C  11      -2.098   5.255  33.175  0.76 27.34 LIG-0.27  OA
BRANCH 4 6
ATOM      6  CA  GLN C  11      -1.939   3.478  34.791  0.76 26.16 LIG 0.18  C 
BRANCH 6 7
ATOM      7  N   GLN C  11      -3.376   3.243  34.873  0.76 28.86 LIG-0.35  N 
ATOM      8  C   ARG C  10      -4.030   2.454  34.028  0.76 30.48 LIG 0.26  C 
ATOM      9 O    ARG C  10      -3.478   1.826  33.121  0.76 24.30 LIG-0.27  OA
ATOM     10 H    GLN C  11      -3.759   3.663  35.518  0.76 28.86 LIG 0.16  HD
BRANCH 8 11
ATOM     11  CA  ARG C  10      -5.545   2.347  34.256  0.76 33.62 LIG 0.40  C 
ATOM     12  N   ARG C  10      -6.261   3.542  33.719  0.76 36.52 LIG 0.61  N 
BRANCH 11 13
ATOM     13  CB  ARG C  10      -6.062   1.080  33.576  0.76 36.98 LIG 0.05  C 
BRANCH 13 14
ATOM     14  CG  ARG C  10      -7.512   1.143  33.083  0.76 39.40 LIG 0.02  C 
BRANCH 14 15
ATOM     15  CD  ARG C  10      -8.189  -0.223  33.102  0.76 42.42 LIG 0.14  C 
BRANCH 15 16
ATOM     16  NE  ARG C  10      -8.404  -0.704  34.466  0.76 44.78 LIG-0.23  N 
ATOM     17  CZ  ARG C  10      -8.272  -1.969  34.854  0.76 45.62 LIG 0.67  C 
ATOM     18  NH2 ARG C  10      -8.472  -2.295  36.124  0.76 46.43 LIG-0.23  N 
ATOM     19  NH1 ARG C  10      -7.926  -2.907  33.983  0.76 45.50 LIG-0.23  N 
ATOM     20 2HH2 ARG C  10      -8.387  -3.113  36.378  0.76 46.43 LIG 0.17  HD
ATOM     21 1HH2 ARG C  10      -8.688  -1.688  36.695  0.76 46.43 LIG 0.17  HD
ATOM     22 2HH1 ARG C  10      -7.842  -3.724  34.240  0.76 45.50 LIG 0.17  HD
ATOM     23 1HH1 ARG C  10      -7.785  -2.700  33.160  0.76 45.50 LIG 0.17  HD
ATOM     24 HE   ARG C  10      -8.632  -0.127  35.061  0.76 44.78 LIG 0.18  HD
ENDBRANCH 15 16
ENDBRANCH 14 15
ENDBRANCH 13 14
ENDBRANCH 11 13
ENDBRANCH 8 11
ENDBRANCH 6 7
BRANCH 6 25
ATOM     25  CB  GLN C  11      -1.197   2.140  34.837  0.76 25.68 LIG 0.04  C 
BRANCH 25 26
ATOM     26  CG  GLN C  11      -0.854   1.675  36.239  0.76 22.66 LIG 0.10  C 
BRANCH 26 27
ATOM     27  CD  GLN C  11       0.550   1.133  36.324  0.76 24.13 LIG 0.21  C 
ATOM     28 OE1  GLN C  11       1.504   1.786  35.889  0.76 19.83 LIG-0.27  OA
ATOM     29  NE2 GLN C  11       0.691  -0.065  36.884  0.76 21.86 LIG-0.37  N 
ATOM     30 21HE GLN C  11       0.001  -0.488  37.175  0.76 21.86 LIG 0.16  HD
ATOM     31 22HE GLN C  11       1.473  -0.416  36.956  0.76 21.86 LIG 0.16  HD
ENDBRANCH 26 27
ENDBRANCH 25 26
ENDBRANCH 6 25
ENDBRANCH 4 6
ENDBRANCH 1 2
BRANCH 1 32
ATOM     32  CB  LEU C  12      -1.071   4.545  30.660  0.76 24.07 LIG 0.04  C 
BRANCH 32 33
ATOM     33  CG  LEU C  12      -1.348   3.354  29.733  0.76 21.16 LIG-0.02  C 
ATOM     34  CD1 LEU C  12      -1.915   3.876  28.422  0.76 25.64 LIG 0.01  C 
ATOM     35  CD2 LEU C  12      -0.067   2.559  29.487  0.76 25.10 LIG 0.01  C 
ENDBRANCH 32 33
ENDBRANCH 1 32
BRANCH 1 36
ATOM     36  C   LEU C  12       0.672   5.706  32.062  0.76 25.30 LIG 0.24  C 
ATOM     37 O    LEU C  12       0.756   6.035  33.249  0.76 25.87 LIG-0.27  OA
ATOM     38  N   VAL C  13       1.097   6.484  31.067  0.76 25.62 LIG-0.35  N 
ATOM     39 H    VAL C  13       1.029   6.286  30.233  0.76 25.62 LIG 0.16  HD
BRANCH 38 40
ATOM     40  CA  VAL C  13       1.729   7.773  31.343  0.76 24.99 LIG 0.18  C 
BRANCH 40 41
ATOM     41  CB  VAL C  13       0.708   8.787  31.915  0.76 27.65 LIG 0.01  C 
ATOM     42  CG1 VAL C  13       1.112  10.208  31.536  0.76 28.12 LIG 0.01  C 
ATOM     43  CG2 VAL C  13      -0.682   8.479  31.390  0.76 27.69 LIG 0.01  C 
ENDBRANCH 40 41
BRANCH 40 44
ATOM     44  C   VAL C  13       2.915   7.710  32.300  0.76 25.58 LIG 0.24  C 
ATOM     45  N   LEU C  14       4.110   7.764  31.729  0.76 25.74 LIG-0.35  N 
ATOM     46 H    LEU C  14       4.235   7.830  30.881  0.76 25.74 LIG 0.16  HD
ATOM     47 O    VAL C  13       2.761   7.625  33.519  0.76 23.74 LIG-0.27  OA
BRANCH 45 48
ATOM     48  CA  LEU C  14       5.336   7.715  32.515  0.76 27.54 LIG 0.18  C 
BRANCH 48 49
ATOM     49  CB  LEU C  14       6.542   8.059  31.635  0.76 27.94 LIG 0.04  C 
BRANCH 49 50
ATOM     50  CG  LEU C  14       6.657   7.333  30.295  0.76 29.52 LIG-0.02  C 
ATOM     51  CD2 LEU C  14       7.319   5.973  30.503  0.76 29.01 LIG 0.01  C 
ATOM     52  CD1 LEU C  14       7.452   8.192  29.328  0.76 31.53 LIG 0.01  C 
ENDBRANCH 49 50
ENDBRANCH 48 49
BRANCH 48 53
ATOM     53  C   LEU C  14       5.318   8.673  33.696  0.76 27.94 LIG 0.24  C 
ATOM     54  N   GLY C  15       5.342   8.107  34.895  0.76 27.74 LIG-0.35  N 
ATOM     55 H    GLY C  15       5.337   7.258  35.033  0.76 27.74 LIG 0.16  HD
ATOM     56 O    LEU C  14       5.277   9.897  33.526  0.76 29.25 LIG-0.27  OA
BRANCH 54 57
ATOM     57  CA  GLY C  15       5.382   8.924  36.093  0.76 32.19 LIG 0.23  C 
BRANCH 57 58
ATOM     58  C   GLY C  15       6.845   9.252  36.347  0.76 34.72 LIG 0.24  C 
ATOM     59  N   LEU C  16       7.722   8.677  35.530  0.76 34.76 LIG-0.34  N 
ATOM     60 H    LEU C  16       7.497   8.163  34.879  0.76 34.76 LIG 0.16  HD
ATOM     61 O    GLY C  15       7.174  10.000  37.268  0.76 36.88 LIG-0.27  OA
BRANCH 59 62
ATOM     62  CA  LEU C  16       9.162   8.871  35.667  0.76 35.63 LIG 0.18  C 
BRANCH 62 63
ATOM     63  CB  LEU C  16       9.877   7.536  35.457  0.76 32.88 LIG 0.04  C 
BRANCH 63 64
ATOM     64  CG  LEU C  16      10.681   7.070  36.674  0.76 27.62 LIG-0.02  C 
ATOM     65  CD1 LEU C  16      10.730   5.551  36.723  0.76 29.42 LIG 0.01  C 
ATOM     66  CD2 LEU C  16      12.080   7.658  36.608  0.76 30.85 LIG 0.01  C 
ENDBRANCH 63 64
ENDBRANCH 62 63
BRANCH 62 67
ATOM     67  C   LEU C  16       9.739   9.924  34.731  0.76 36.84 LIG 0.20  C 
ATOM     68 O    LEU C  16       9.227  10.038  33.592  0.76 37.63 LIG-0.65  OA
ATOM     69 OXT  LEU C  16      10.690  10.620  35.144  0.76 38.60 LIG-0.65  OA
ENDBRANCH 62 67
ENDBRANCH 59 62
ENDBRANCH 57 58
ENDBRANCH 54 57
ENDBRANCH 48 53
ENDBRANCH 45 48
ENDBRANCH 40 44
ENDBRANCH 38 40
ENDBRANCH 1 36
TORSDOF 27
ENDMDL
MODEL 9
USER: ADFR SOLUTION from run 70
USER: SCORE 20.074092 LL:  -4.821 LR: -16.800 RR:   0.000 FEB:  -8.746
USER: RMSD 7.258312
USER: SEED 69
USER: STATUS no improvement in best in 9 clusters for 5 generations
USER: GENES 29
USER: genes 0 Translation |==|  0.37878 0.33183 0.26368
USER: genes 1 Rotation |==|  0.08142 0.22760 0.49541 0.52381
USER: genes 2 Torsion [CB]-CA--N-[C] |==|  0.87220
USER: genes 3 Torsion [N]-C--CA-[N] |==|  0.02498
USER: genes 4 Torsion [C]-CA--N-[C] |==|  0.68333
USER: genes 5 Torsion [N]-C--CA-[N] |==|  0.79870
USER: genes 6 Torsion [C]-CA--CB-[CG] |==|  0.16227
USER: genes 7 Torsion [CA]-CB--CG-[CD] |==|  0.57053
USER: genes 8 Torsion [CB]-CG--CD-[NE] |==|  0.78450
USER: genes 9 Torsion [CG]-CD--NE-[CZ] |==|  0.64250
USER: genes 10 Torsion [C]-CA--CB-[CG] |==|  0.90361
USER: genes 11 Torsion [CA]-CB--CG-[CD] |==|  0.80043
USER: genes 12 Torsion [CB]-CG--CD-[OE1] |==|  0.40710
USER: genes 13 Torsion [N]-CA--CB-[CG] |==|  0.58501
USER: genes 14 Torsion [CA]-CB--CG-[CD2] |==|  0.10249
USER: genes 15 Torsion [N]-CA--C-[N] |==|  0.41561
USER: genes 16 Torsion [C]-N--CA-[CB] |==|  0.55220
USER: genes 17 Torsion [N]-CA--CB-[CG1] |==|  0.40618
USER: genes 18 Torsion [N]-CA--C-[N] |==|  0.35177
USER: genes 19 Torsion [C]-N--CA-[CB] |==|  0.51159
USER: genes 20 Torsion [N]-CA--CB-[CG] |==|  0.76259
USER: genes 21 Torsion [CA]-CB--CG-[CD1] |==|  0.98839
USER: genes 22 Torsion [N]-CA--C-[N] |==|  0.46325
USER: genes 23 Torsion [C]-N--CA-[C] |==|  0.80843
USER: genes 24 Torsion [N]-CA--C-[N] |==|  0.35767
USER: genes 25 Torsion [C]-N--CA-[CB] |==|  0.42201
USER: genes 26 Torsion [N]-CA--CB-[CG] |==|  0.47410
USER: genes 27 Torsion [CA]-CB--CG-[CD1] |==|  0.27848
USER: genes 28 Torsion [N]-CA--C-[O] |==|  0.40105
ROOT
ATOM      1  CA  LEU C  12      -4.438   1.788  28.584  0.76 25.89 LIG 0.18  C 
ENDROOT
BRANCH 1 2
ATOM      2  N   LEU C  12      -5.514   1.489  29.519  0.76 24.12 LIG-0.35  N 
ATOM      3 H    LEU C  12      -5.682   0.651  29.608  0.76 24.12 LIG 0.16  HD
ATOM      4  C   GLN C  11      -6.168   2.449  30.166  0.76 26.11 LIG 0.24  C 
ATOM      5 O    GLN C  11      -5.908   3.647  30.033  0.76 27.34 LIG-0.27  OA
BRANCH 4 6
ATOM      6  CA  GLN C  11      -7.292   1.986  31.091  0.76 26.16 LIG 0.18  C 
BRANCH 6 7
ATOM      7  N   GLN C  11      -7.353   0.543  31.287  0.76 28.86 LIG-0.35  N 
ATOM      8  C   ARG C  10      -8.364  -0.204  30.859  0.76 30.48 LIG 0.26  C 
ATOM      9 O    ARG C  10      -9.323   0.250  30.230  0.76 24.30 LIG-0.27  OA
ATOM     10 H    GLN C  11      -6.675   0.222  31.706  0.76 28.86 LIG 0.16  HD
BRANCH 8 11
ATOM     11  CA  ARG C  10      -8.265  -1.703  31.178  0.76 33.62 LIG 0.40  C 
ATOM     12  N   ARG C  10      -7.228  -2.370  30.336  0.76 36.52 LIG 0.61  N 
BRANCH 11 13
ATOM     13  CB  ARG C  10      -7.926  -1.875  32.658  0.76 36.98 LIG 0.05  C 
BRANCH 13 14
ATOM     14  CG  ARG C  10      -8.924  -1.249  33.639  0.76 39.40 LIG 0.02  C 
BRANCH 14 15
ATOM     15  CD  ARG C  10      -8.280  -0.902  34.976  0.76 42.42 LIG 0.14  C 
BRANCH 15 16
ATOM     16  NE  ARG C  10      -8.099  -2.086  35.815  0.76 44.78 LIG-0.23  N 
ATOM     17  CZ  ARG C  10      -8.500  -2.189  37.079  0.76 45.62 LIG 0.67  C 
ATOM     18  NH2 ARG C  10      -8.303  -3.319  37.745  0.76 46.43 LIG-0.23  N 
ATOM     19  NH1 ARG C  10      -9.110  -1.173  37.676  0.76 45.50 LIG-0.23  N 
ATOM     20 2HH2 ARG C  10      -8.562  -3.387  38.563  0.76 46.43 LIG 0.17  HD
ATOM     21 1HH2 ARG C  10      -7.916  -3.983  37.359  0.76 46.43 LIG 0.17  HD
ATOM     22 2HH1 ARG C  10      -9.367  -1.246  38.494  0.76 45.50 LIG 0.17  HD
ATOM     23 1HH1 ARG C  10      -9.249  -0.442  37.245  0.76 45.50 LIG 0.17  HD
ATOM     24 HE   ARG C  10      -7.705  -2.766  35.466  0.76 44.78 LIG 0.18  HD
ENDBRANCH 15 16
ENDBRANCH 14 15
ENDBRANCH 13 14
ENDBRANCH 11 13
ENDBRANCH 8 11
ENDBRANCH 6 7
BRANCH 6 25
ATOM     25  CB  GLN C  11      -7.135   2.683  32.445  0.76 25.68 LIG 0.04  C 
BRANCH 25 26
ATOM     26  CG  GLN C  11      -5.693   2.909  32.856  0.76 22.66 LIG 0.10  C 
BRANCH 26 27
ATOM     27  CD  GLN C  11      -5.012   1.623  33.247  0.76 24.13 LIG 0.21  C 
ATOM     28 OE1  GLN C  11      -3.809   1.454  33.022  0.76 19.83 LIG-0.27  OA
ATOM     29  NE2 GLN C  11      -5.771   0.704  33.835  0.76 21.86 LIG-0.37  N 
ATOM     30 21HE GLN C  11      -6.606   0.859  33.974  0.76 21.86 LIG 0.16  HD
ATOM     31 22HE GLN C  11      -5.428  -0.047  34.077  0.76 21.86 LIG 0.16  HD
ENDBRANCH 26 27
ENDBRANCH 25 26
ENDBRANCH 6 25
ENDBRANCH 4 6
ENDBRANCH 1 2
BRANCH 1 32
ATOM     32  CB  LEU C  12      -4.850   2.928  27.645  0.76 24.07 LIG 0.04  C 
BRANCH 32 33
ATOM     33  CG  LEU C  12      -4.240   2.893  26.238  0.76 21.16 LIG-0.02  C 
ATOM     34  CD1 LEU C  12      -2.871   3.552  26.281  0.76 25.64 LIG 0.01  C 
ATOM     35  CD2 LEU C  12      -4.129   1.453  25.739  0.76 25.10 LIG 0.01  C 
ENDBRANCH 32 33
ENDBRANCH 1 32
BRANCH 1 36
ATOM     36  C   LEU C  12      -3.210   2.187  29.409  0.76 25.30 LIG 0.24  C 
ATOM     37 O    LEU C  12      -3.349   2.741  30.504  0.76 25.87 LIG-0.27  OA
ATOM     38  N   VAL C  13      -2.015   1.907  28.890  0.76 25.62 LIG-0.35  N 
ATOM     39 H    VAL C  13      -1.893   1.542  28.121  0.76 25.62 LIG 0.16  HD
BRANCH 38 40
ATOM     40  CA  VAL C  13      -0.790   2.215  29.625  0.76 24.99 LIG 0.18  C 
BRANCH 40 41
ATOM     41  CB  VAL C  13       0.437   2.248  28.681  0.76 27.65 LIG 0.01  C 
ATOM     42  CG1 VAL C  13       1.437   3.295  29.157  0.76 28.12 LIG 0.01  C 
ATOM     43  CG2 VAL C  13       1.092   0.881  28.630  0.76 27.69 LIG 0.01  C 
ENDBRANCH 40 41
BRANCH 40 44
ATOM     44  C   VAL C  13      -0.823   3.529  30.398  0.76 25.58 LIG 0.24  C 
ATOM     45  N   LEU C  14      -0.514   3.440  31.685  0.76 25.74 LIG-0.35  N 
ATOM     46 H    LEU C  14      -0.305   2.706  32.079  0.76 25.74 LIG 0.16  HD
ATOM     47 O    VAL C  13      -1.109   4.596  29.853  0.76 23.74 LIG-0.27  OA
BRANCH 45 48
ATOM     48  CA  LEU C  14      -0.502   4.612  32.551  0.76 27.54 LIG 0.18  C 
BRANCH 48 49
ATOM     49  CB  LEU C  14      -0.011   4.230  33.951  0.76 27.94 LIG 0.04  C 
BRANCH 49 50
ATOM     50  CG  LEU C  14      -1.052   3.689  34.931  0.76 29.52 LIG-0.02  C 
ATOM     51  CD2 LEU C  14      -0.689   2.261  35.328  0.76 29.01 LIG 0.01  C 
ATOM     52  CD1 LEU C  14      -2.425   3.751  34.286  0.76 31.53 LIG 0.01  C 
ENDBRANCH 49 50
ENDBRANCH 48 49
BRANCH 48 53
ATOM     53  C   LEU C  14       0.386   5.728  32.022  0.76 27.94 LIG 0.24  C 
ATOM     54  N   GLY C  15       0.232   6.909  32.606  0.76 27.74 LIG-0.35  N 
ATOM     55 H    GLY C  15      -0.343   7.077  33.223  0.76 27.74 LIG 0.16  HD
ATOM     56 O    LEU C  14       1.187   5.527  31.102  0.76 29.25 LIG-0.27  OA
BRANCH 54 57
ATOM     57  CA  GLY C  15       1.063   8.033  32.218  0.76 32.19 LIG 0.23  C 
BRANCH 57 58
ATOM     58  C   GLY C  15       2.471   7.718  32.699  0.76 34.72 LIG 0.24  C 
ATOM     59  N   LEU C  16       3.436   7.832  31.793  0.76 34.76 LIG-0.34  N 
ATOM     60 H    LEU C  16       3.299   8.084  30.983  0.76 34.76 LIG 0.16  HD
ATOM     61 O    GLY C  15       2.678   7.371  33.862  0.76 36.88 LIG-0.27  OA
BRANCH 59 62
ATOM     62  CA  LEU C  16       4.833   7.535  32.096  0.76 35.63 LIG 0.18  C 
BRANCH 62 63
ATOM     63  CB  LEU C  16       5.545   7.079  30.822  0.76 32.88 LIG 0.04  C 
BRANCH 63 64
ATOM     64  CG  LEU C  16       7.063   6.958  30.974  0.76 27.62 LIG-0.02  C 
ATOM     65  CD1 LEU C  16       7.458   5.504  31.181  0.76 29.42 LIG 0.01  C 
ATOM     66  CD2 LEU C  16       7.738   7.535  29.742  0.76 30.85 LIG 0.01  C 
ENDBRANCH 63 64
ENDBRANCH 62 63
BRANCH 62 67
ATOM     67  C   LEU C  16       5.591   8.693  32.730  0.76 36.84 LIG 0.20  C 
ATOM     68 O    LEU C  16       6.454   8.422  33.597  0.76 37.63 LIG-0.65  OA
ATOM     69 OXT  LEU C  16       5.314   9.852  32.355  0.76 38.60 LIG-0.65  OA
ENDBRANCH 62 67
ENDBRANCH 59 62
ENDBRANCH 57 58
ENDBRANCH 54 57
ENDBRANCH 48 53
ENDBRANCH 45 48
ENDBRANCH 40 44
ENDBRANCH 38 40
ENDBRANCH 1 36
TORSDOF 27
ENDMDL
MODEL 10
USER: ADFR SOLUTION from run 37
USER: SCORE 19.341424 LL:  -5.505 LR: -16.630 RR:   0.000 FEB:  -8.576
USER: RMSD 5.058260
USER: SEED 36
USER: STATUS no improvement in best in 4 clusters for 5 generations
USER: GENES 29
USER: genes 0 Translation |==|  0.51604 0.45783 0.62735
USER: genes 1 Rotation |==|  0.64080 0.62107 0.45356 0.96191
USER: genes 2 Torsion [CB]-CA--N-[C] |==|  0.88561
USER: genes 3 Torsion [N]-C--CA-[N] |==|  0.51073
USER: genes 4 Torsion [C]-CA--N-[C] |==|  0.75848
USER: genes 5 Torsion [N]-C--CA-[N] |==|  0.36278
USER: genes 6 Torsion [C]-CA--CB-[CG] |==|  0.26110
USER: genes 7 Torsion [CA]-CB--CG-[CD] |==|  0.72177
USER: genes 8 Torsion [CB]-CG--CD-[NE] |==|  0.00127
USER: genes 9 Torsion [CG]-CD--NE-[CZ] |==|  0.69308
USER: genes 10 Torsion [C]-CA--CB-[CG] |==|  0.79436
USER: genes 11 Torsion [CA]-CB--CG-[CD] |==|  0.71193
USER: genes 12 Torsion [CB]-CG--CD-[OE1] |==|  0.16463
USER: genes 13 Torsion [N]-CA--CB-[CG] |==|  0.72570
USER: genes 14 Torsion [CA]-CB--CG-[CD2] |==|  0.61254
USER: genes 15 Torsion [N]-CA--C-[N] |==|  0.84557
USER: genes 16 Torsion [C]-N--CA-[CB] |==|  0.84274
USER: genes 17 Torsion [N]-CA--CB-[CG1] |==|  0.52107
USER: genes 18 Torsion [N]-CA--C-[N] |==|  0.35705
USER: genes 19 Torsion [C]-N--CA-[CB] |==|  0.49388
USER: genes 20 Torsion [N]-CA--CB-[CG] |==|  0.69124
USER: genes 21 Torsion [CA]-CB--CG-[CD1] |==|  0.57343
USER: genes 22 Torsion [N]-CA--C-[N] |==|  0.88697
USER: genes 23 Torsion [C]-N--CA-[C] |==|  0.30768
USER: genes 24 Torsion [N]-CA--C-[N] |==|  0.17962
USER: genes 25 Torsion [C]-N--CA-[CB] |==|  0.24044
USER: genes 26 Torsion [N]-CA--CB-[CG] |==|  0.84026
USER: genes 27 Torsion [CA]-CB--CG-[CD1] |==|  0.33618
USER: genes 28 Torsion [N]-CA--C-[O] |==|  0.89950
ROOT
ATOM      1  CA  LEU C  12      -0.320   5.190  34.584  0.76 25.89 LIG 0.18  C 
ENDROOT
BRANCH 1 2
ATOM      2  N   LEU C  12      -1.528   4.967  33.802  0.76 24.12 LIG-0.35  N 
ATOM      3 H    LEU C  12      -2.243   5.290  34.155  0.76 24.12 LIG 0.16  HD
ATOM      4  C   GLN C  11      -1.504   4.316  32.643  0.76 26.11 LIG 0.24  C 
ATOM      5 O    GLN C  11      -0.468   3.866  32.147  0.76 27.34 LIG-0.27  OA
BRANCH 4 6
ATOM      6  CA  GLN C  11      -2.852   4.132  31.950  0.76 26.16 LIG 0.18  C 
BRANCH 6 7
ATOM      7  N   GLN C  11      -2.796   3.338  30.729  0.76 28.86 LIG-0.35  N 
ATOM      8  C   ARG C  10      -2.532   3.860  29.537  0.76 30.48 LIG 0.26  C 
ATOM      9 O    ARG C  10      -2.279   5.054  29.361  0.76 24.30 LIG-0.27  OA
ATOM     10 H    GLN C  11      -2.950   2.501  30.853  0.76 28.86 LIG 0.16  HD
BRANCH 8 11
ATOM     11  CA  ARG C  10      -2.539   2.871  28.361  0.76 33.62 LIG 0.40  C 
ATOM     12  N   ARG C  10      -3.369   3.381  27.230  0.76 36.52 LIG 0.61  N 
BRANCH 11 13
ATOM     13  CB  ARG C  10      -1.102   2.644  27.893  0.76 36.98 LIG 0.05  C 
BRANCH 13 14
ATOM     14  CG  ARG C  10      -0.394   1.432  28.509  0.76 39.40 LIG 0.02  C 
BRANCH 14 15
ATOM     15  CD  ARG C  10       0.542   1.826  29.646  0.76 42.42 LIG 0.14  C 
BRANCH 15 16
ATOM     16  NE  ARG C  10       0.530   3.268  29.884  0.76 44.78 LIG-0.23  N 
ATOM     17  CZ  ARG C  10       1.543   4.089  29.621  0.76 45.62 LIG 0.67  C 
ATOM     18  NH2 ARG C  10       1.419   5.388  29.858  0.76 46.43 LIG-0.23  N 
ATOM     19  NH1 ARG C  10       2.672   3.620  29.108  0.76 45.50 LIG-0.23  N 
ATOM     20 2HH2 ARG C  10       2.073   5.921  29.688  0.76 46.43 LIG 0.17  HD
ATOM     21 1HH2 ARG C  10       0.684   5.698  30.182  0.76 46.43 LIG 0.17  HD
ATOM     22 2HH1 ARG C  10       3.324   4.156  28.940  0.76 45.50 LIG 0.17  HD
ATOM     23 1HH1 ARG C  10       2.754   2.780  28.943  0.76 45.50 LIG 0.17  HD
ATOM     24 HE   ARG C  10      -0.184   3.611  30.219  0.76 44.78 LIG 0.18  HD
ENDBRANCH 15 16
ENDBRANCH 14 15
ENDBRANCH 13 14
ENDBRANCH 11 13
ENDBRANCH 8 11
ENDBRANCH 6 7
BRANCH 6 25
ATOM     25  CB  GLN C  11      -3.830   3.489  32.937  0.76 25.68 LIG 0.04  C 
BRANCH 25 26
ATOM     26  CG  GLN C  11      -3.572   2.015  33.186  0.76 22.66 LIG 0.10  C 
BRANCH 26 27
ATOM     27  CD  GLN C  11      -4.561   1.141  32.460  0.76 24.13 LIG 0.21  C 
ATOM     28 OE1  GLN C  11      -4.662   1.192  31.230  0.76 19.83 LIG-0.27  OA
ATOM     29  NE2 GLN C  11      -5.300   0.329  33.211  0.76 21.86 LIG-0.37  N 
ATOM     30 21HE GLN C  11      -5.200   0.323  34.065  0.76 21.86 LIG 0.16  HD
ATOM     31 22HE GLN C  11      -5.878  -0.190  32.842  0.76 21.86 LIG 0.16  HD
ENDBRANCH 26 27
ENDBRANCH 25 26
ENDBRANCH 6 25
ENDBRANCH 4 6
ENDBRANCH 1 2
BRANCH 1 32
ATOM     32  CB  LEU C  12       0.558   3.933  34.577  0.76 24.07 LIG 0.04  C 
BRANCH 32 33
ATOM     33  CG  LEU C  12       0.445   3.028  35.810  0.76 21.16 LIG-0.02  C 
ATOM     34  CD1 LEU C  12      -0.488   1.872  35.484  0.76 25.64 LIG 0.01  C 
ATOM     35  CD2 LEU C  12       1.822   2.509  36.219  0.76 25.10 LIG 0.01  C 
ENDBRANCH 32 33
ENDBRANCH 1 32
BRANCH 1 36
ATOM     36  C   LEU C  12       0.424   6.371  33.954  0.76 25.30 LIG 0.24  C 
ATOM     37 O    LEU C  12       0.719   7.358  34.637  0.76 25.87 LIG-0.27  OA
ATOM     38  N   VAL C  13       0.727   6.276  32.661  0.76 25.62 LIG-0.35  N 
ATOM     39 H    VAL C  13       0.514   5.610  32.160  0.76 25.62 LIG 0.16  HD
BRANCH 38 40
ATOM     40  CA  VAL C  13       1.471   7.337  31.986  0.76 24.99 LIG 0.18  C 
BRANCH 40 41
ATOM     41  CB  VAL C  13       0.750   8.701  32.122  0.76 27.65 LIG 0.01  C 
ATOM     42  CG1 VAL C  13       1.443   9.749  31.257  0.76 28.12 LIG 0.01  C 
ATOM     43  CG2 VAL C  13      -0.705   8.564  31.717  0.76 27.69 LIG 0.01  C 
ENDBRANCH 40 41
BRANCH 40 44
ATOM     44  C   VAL C  13       2.908   7.515  32.466  0.76 25.58 LIG 0.24  C 
ATOM     45  N   LEU C  14       3.829   7.524  31.513  0.76 25.74 LIG-0.35  N 
ATOM     46 H    LEU C  14       3.655   7.438  30.675  0.76 25.74 LIG 0.16  HD
ATOM     47 O    VAL C  13       3.181   7.650  33.659  0.76 23.74 LIG-0.27  OA
BRANCH 45 48
ATOM     48  CA  LEU C  14       5.245   7.686  31.819  0.76 27.54 LIG 0.18  C 
BRANCH 48 49
ATOM     49  CB  LEU C  14       6.077   7.603  30.536  0.76 27.94 LIG 0.04  C 
BRANCH 49 50
ATOM     50  CG  LEU C  14       6.975   6.378  30.366  0.76 29.52 LIG-0.02  C 
ATOM     51  CD2 LEU C  14       7.456   5.902  31.734  0.76 29.01 LIG 0.01  C 
ATOM     52  CD1 LEU C  14       8.144   6.737  29.464  0.76 31.53 LIG 0.01  C 
ENDBRANCH 49 50
ENDBRANCH 48 49
BRANCH 48 53
ATOM     53  C   LEU C  14       5.553   9.009  32.503  0.76 27.94 LIG 0.24  C 
ATOM     54  N   GLY C  15       4.903  10.064  32.030  0.76 27.74 LIG-0.35  N 
ATOM     55 H    GLY C  15       4.361  10.045  31.362  0.76 27.74 LIG 0.16  HD
ATOM     56 O    LEU C  14       6.364   9.075  33.434  0.76 29.25 LIG-0.27  OA
BRANCH 54 57
ATOM     57  CA  GLY C  15       5.079  11.369  32.640  0.76 32.19 LIG 0.23  C 
BRANCH 57 58
ATOM     58  C   GLY C  15       5.837  12.220  31.634  0.76 34.72 LIG 0.24  C 
ATOM     59  N   LEU C  16       5.204  12.479  30.494  0.76 34.76 LIG-0.34  N 
ATOM     60 H    LEU C  16       4.407  12.208  30.322  0.76 34.76 LIG 0.16  HD
ATOM     61 O    GLY C  15       6.973  12.626  31.879  0.76 36.88 LIG-0.27  OA
BRANCH 59 62
ATOM     62  CA  LEU C  16       5.813  13.257  29.420  0.76 35.63 LIG 0.18  C 
BRANCH 62 63
ATOM     63  CB  LEU C  16       6.633  12.331  28.522  0.76 32.88 LIG 0.04  C 
BRANCH 63 64
ATOM     64  CG  LEU C  16       7.724  11.557  29.265  0.76 27.62 LIG-0.02  C 
ATOM     65  CD1 LEU C  16       7.510  10.060  29.108  0.76 29.42 LIG 0.01  C 
ATOM     66  CD2 LEU C  16       9.085  11.972  28.733  0.76 30.85 LIG 0.01  C 
ENDBRANCH 63 64
ENDBRANCH 62 63
BRANCH 62 67
ATOM     67  C   LEU C  16       4.817  14.048  28.584  0.76 36.84 LIG 0.20  C 
ATOM     68 O    LEU C  16       3.699  13.527  28.358  0.76 37.63 LIG-0.65  OA
ATOM     69 OXT  LEU C  16       5.162  15.173  28.165  0.76 38.60 LIG-0.65  OA
ENDBRANCH 62 67
ENDBRANCH 59 62
ENDBRANCH 57 58
ENDBRANCH 54 57
ENDBRANCH 48 53
ENDBRANCH 45 48
ENDBRANCH 40 44
ENDBRANCH 38 40
ENDBRANCH 1 36
TORSDOF 27
ENDMDL
MODEL 11
USER: ADFR SOLUTION from run 86
USER: SCORE 18.890934 LL:  -4.645 LR: -16.603 RR:   0.000 FEB:  -8.549
USER: RMSD 6.343904
USER: SEED 85
USER: STATUS no improvement in best in 15 clusters for 5 generations
USER: GENES 29
USER: genes 0 Translation |==|  0.54067 0.42629 0.43003
USER: genes 1 Rotation |==|  0.82656 0.84804 0.47600 0.64716
USER: genes 2 Torsion [CB]-CA--N-[C] |==|  0.13113
USER: genes 3 Torsion [N]-C--CA-[N] |==|  0.95129
USER: genes 4 Torsion [C]-CA--N-[C] |==|  0.59564
USER: genes 5 Torsion [N]-C--CA-[N] |==|  0.43022
USER: genes 6 Torsion [C]-CA--CB-[CG] |==|  0.81489
USER: genes 7 Torsion [CA]-CB--CG-[CD] |==|  0.31307
USER: genes 8 Torsion [CB]-CG--CD-[NE] |==|  0.01852
USER: genes 9 Torsion [CG]-CD--NE-[CZ] |==|  0.23389
USER: genes 10 Torsion [C]-CA--CB-[CG] |==|  0.41136
USER: genes 11 Torsion [CA]-CB--CG-[CD] |==|  0.89771
USER: genes 12 Torsion [CB]-CG--CD-[OE1] |==|  0.84579
USER: genes 13 Torsion [N]-CA--CB-[CG] |==|  0.63686
USER: genes 14 Torsion [CA]-CB--CG-[CD2] |==|  0.18172
USER: genes 15 Torsion [N]-CA--C-[N] |==|  0.64596
USER: genes 16 Torsion [C]-N--CA-[CB] |==|  0.78860
USER: genes 17 Torsion [N]-CA--CB-[CG1] |==|  0.58219
USER: genes 18 Torsion [N]-CA--C-[N] |==|  0.26012
USER: genes 19 Torsion [C]-N--CA-[CB] |==|  0.52222
USER: genes 20 Torsion [N]-CA--CB-[CG] |==|  0.87734
USER: genes 21 Torsion [CA]-CB--CG-[CD1] |==|  0.40409
USER: genes 22 Torsion [N]-CA--C-[N] |==|  0.30279
USER: genes 23 Torsion [C]-N--CA-[C] |==|  0.70294
USER: genes 24 Torsion [N]-CA--C-[N] |==|  0.02625
USER: genes 25 Torsion [C]-N--CA-[CB] |==|  0.17622
USER: genes 26 Torsion [N]-CA--CB-[CG] |==|  0.22021
USER: genes 27 Torsion [CA]-CB--CG-[CD1] |==|  0.32005
USER: genes 28 Torsion [N]-CA--C-[O] |==|  0.49645
ROOT
ATOM      1  CA  LEU C  12       0.419   4.339  31.328  0.76 25.89 LIG 0.18  C 
ENDROOT
BRANCH 1 2
ATOM      2  N   LEU C  12      -0.786   4.051  32.094  0.76 24.12 LIG-0.35  N 
ATOM      3 H    LEU C  12      -0.883   4.536  32.797  0.76 24.12 LIG 0.16  HD
ATOM      4  C   GLN C  11      -1.649   3.112  31.718  0.76 26.11 LIG 0.24  C 
ATOM      5 O    GLN C  11      -1.499   2.431  30.700  0.76 27.34 LIG-0.27  OA
BRANCH 4 6
ATOM      6  CA  GLN C  11      -2.852   2.902  32.635  0.76 26.16 LIG 0.18  C 
BRANCH 6 7
ATOM      7  N   GLN C  11      -2.690   3.456  33.974  0.76 28.86 LIG-0.35  N 
ATOM      8  C   ARG C  10      -3.204   2.889  35.060  0.76 30.48 LIG 0.26  C 
ATOM      9 O    ARG C  10      -3.835   1.829  35.036  0.76 24.30 LIG-0.27  OA
ATOM     10 H    GLN C  11      -2.232   4.183  33.995  0.76 28.86 LIG 0.16  HD
BRANCH 8 11
ATOM     11  CA  ARG C  10      -2.950   3.630  36.381  0.76 33.62 LIG 0.40  C 
ATOM     12  N   ARG C  10      -4.000   3.309  37.393  0.76 36.52 LIG 0.61  N 
BRANCH 11 13
ATOM     13  CB  ARG C  10      -1.573   3.236  36.915  0.76 36.98 LIG 0.05  C 
BRANCH 13 14
ATOM     14  CG  ARG C  10      -1.430   1.774  37.353  0.76 39.40 LIG 0.02  C 
BRANCH 14 15
ATOM     15  CD  ARG C  10      -0.483   0.991  36.452  0.76 42.42 LIG 0.14  C 
BRANCH 15 16
ATOM     16  NE  ARG C  10       0.183   1.858  35.480  0.76 44.78 LIG-0.23  N 
ATOM     17  CZ  ARG C  10       1.285   2.563  35.723  0.76 45.62 LIG 0.67  C 
ATOM     18  NH2 ARG C  10       1.819   3.304  34.761  0.76 46.43 LIG-0.23  N 
ATOM     19  NH1 ARG C  10       1.862   2.518  36.915  0.76 45.50 LIG-0.23  N 
ATOM     20 2HH2 ARG C  10       2.531   3.761  34.916  0.76 46.43 LIG 0.17  HD
ATOM     21 1HH2 ARG C  10       1.452   3.329  33.983  0.76 46.43 LIG 0.17  HD
ATOM     22 2HH1 ARG C  10       2.575   2.977  37.066  0.76 45.50 LIG 0.17  HD
ATOM     23 1HH1 ARG C  10       1.525   2.031  37.539  0.76 45.50 LIG 0.17  HD
ATOM     24 HE   ARG C  10      -0.162   1.916  34.695  0.76 44.78 LIG 0.18  HD
ENDBRANCH 15 16
ENDBRANCH 14 15
ENDBRANCH 13 14
ENDBRANCH 11 13
ENDBRANCH 8 11
ENDBRANCH 6 7
BRANCH 6 25
ATOM     25  CB  GLN C  11      -4.090   3.511  31.973  0.76 25.68 LIG 0.04  C 
BRANCH 25 26
ATOM     26  CG  GLN C  11      -5.382   2.785  32.298  0.76 22.66 LIG 0.10  C 
BRANCH 26 27
ATOM     27  CD  GLN C  11      -5.180   1.294  32.389  0.76 24.13 LIG 0.21  C 
ATOM     28 OE1  GLN C  11      -4.685   0.668  31.447  0.76 19.83 LIG-0.27  OA
ATOM     29  NE2 GLN C  11      -5.561   0.712  33.522  0.76 21.86 LIG-0.37  N 
ATOM     30 21HE GLN C  11      -5.902   1.183  34.155  0.76 21.86 LIG 0.16  HD
ATOM     31 22HE GLN C  11      -5.465  -0.137  33.622  0.76 21.86 LIG 0.16  HD
ENDBRANCH 26 27
ENDBRANCH 25 26
ENDBRANCH 6 25
ENDBRANCH 4 6
ENDBRANCH 1 2
BRANCH 1 32
ATOM     32  CB  LEU C  12       0.085   4.467  29.838  0.76 24.07 LIG 0.04  C 
BRANCH 32 33
ATOM     33  CG  LEU C  12       0.970   3.660  28.879  0.76 21.16 LIG-0.02  C 
ATOM     34  CD1 LEU C  12       2.422   4.051  29.107  0.76 25.64 LIG 0.01  C 
ATOM     35  CD2 LEU C  12       0.775   2.162  29.105  0.76 25.10 LIG 0.01  C 
ENDBRANCH 32 33
ENDBRANCH 1 32
BRANCH 1 36
ATOM     36  C   LEU C  12       1.002   5.650  31.864  0.76 25.30 LIG 0.24  C 
ATOM     37 O    LEU C  12       1.216   5.789  33.073  0.76 25.87 LIG-0.27  OA
ATOM     38  N   VAL C  13       1.260   6.607  30.974  0.76 25.62 LIG-0.35  N 
ATOM     39 H    VAL C  13       1.099   6.542  30.132  0.76 25.62 LIG 0.16  HD
BRANCH 38 40
ATOM     40  CA  VAL C  13       1.853   7.876  31.390  0.76 24.99 LIG 0.18  C 
BRANCH 40 41
ATOM     41  CB  VAL C  13       0.807   8.785  32.081  0.76 27.65 LIG 0.01  C 
ATOM     42  CG1 VAL C  13       1.156  10.252  31.853  0.76 28.12 LIG 0.01  C 
ATOM     43  CG2 VAL C  13      -0.579   8.486  31.542  0.76 27.69 LIG 0.01  C 
ENDBRANCH 40 41
BRANCH 40 44
ATOM     44  C   VAL C  13       3.051   7.744  32.325  0.76 25.58 LIG 0.24  C 
ATOM     45  N   LEU C  14       4.237   7.737  31.733  0.76 25.74 LIG-0.35  N 
ATOM     46 H    LEU C  14       4.350   7.801  30.883  0.76 25.74 LIG 0.16  HD
ATOM     47 O    VAL C  13       2.914   7.661  33.546  0.76 23.74 LIG-0.27  OA
BRANCH 45 48
ATOM     48  CA  LEU C  14       5.472   7.618  32.497  0.76 27.54 LIG 0.18  C 
BRANCH 48 49
ATOM     49  CB  LEU C  14       6.682   7.837  31.583  0.76 27.94 LIG 0.04  C 
BRANCH 49 50
ATOM     50  CG  LEU C  14       6.661   7.145  30.221  0.76 29.52 LIG-0.02  C 
ATOM     51  CD2 LEU C  14       7.348   5.785  30.326  0.76 29.01 LIG 0.01  C 
ATOM     52  CD1 LEU C  14       7.348   8.032  29.198  0.76 31.53 LIG 0.01  C 
ENDBRANCH 49 50
ENDBRANCH 48 49
BRANCH 48 53
ATOM     53  C   LEU C  14       5.554   8.613  33.644  0.76 27.94 LIG 0.24  C 
ATOM     54  N   GLY C  15       5.439   8.097  34.860  0.76 27.74 LIG-0.35  N 
ATOM     55 H    GLY C  15       5.294   7.265  35.026  0.76 27.74 LIG 0.16  HD
ATOM     56 O    LEU C  14       5.713   9.821  33.434  0.76 29.25 LIG-0.27  OA
BRANCH 54 57
ATOM     57  CA  GLY C  15       5.555   8.945  36.032  0.76 32.19 LIG 0.23  C 
BRANCH 57 58
ATOM     58  C   GLY C  15       6.900   8.629  36.665  0.76 34.72 LIG 0.24  C 
ATOM     59  N   LEU C  16       7.713   7.855  35.953  0.76 34.76 LIG-0.34  N 
ATOM     60 H    LEU C  16       7.519   7.556  35.171  0.76 34.76 LIG 0.16  HD
ATOM     61 O    GLY C  15       7.194   9.066  37.778  0.76 36.88 LIG-0.27  OA
BRANCH 59 62
ATOM     62  CA  LEU C  16       9.025   7.441  36.440  0.76 35.63 LIG 0.18  C 
BRANCH 62 63
ATOM     63  CB  LEU C  16       8.855   6.576  37.689  0.76 32.88 LIG 0.04  C 
BRANCH 63 64
ATOM     64  CG  LEU C  16       8.464   5.128  37.388  0.76 27.62 LIG-0.02  C 
ATOM     65  CD1 LEU C  16       9.571   4.181  37.824  0.76 29.42 LIG 0.01  C 
ATOM     66  CD2 LEU C  16       7.160   4.802  38.094  0.76 30.85 LIG 0.01  C 
ENDBRANCH 63 64
ENDBRANCH 62 63
BRANCH 62 67
ATOM     67  C   LEU C  16       9.867   6.704  35.407  0.76 36.84 LIG 0.20  C 
ATOM     68 O    LEU C  16      11.017   6.338  35.743  0.76 37.63 LIG-0.65  OA
ATOM     69 OXT  LEU C  16       9.369   6.503  34.279  0.76 38.60 LIG-0.65  OA
ENDBRANCH 62 67
ENDBRANCH 59 62
ENDBRANCH 57 58
ENDBRANCH 54 57
ENDBRANCH 48 53
ENDBRANCH 45 48
ENDBRANCH 40 44
ENDBRANCH 38 40
ENDBRANCH 1 36
TORSDOF 27
ENDMDL
MODEL 12
USER: ADFR SOLUTION from run 155
USER: SCORE 18.475194 LL:  -5.054 LR: -16.445 RR:   0.000 FEB:  -8.391
USER: RMSD 14.793790
USER: SEED 154
USER: STATUS no improvement in best in 10 clusters for 5 generations
USER: GENES 29
USER: genes 0 Translation |==|  0.48949 0.42695 0.42875
USER: genes 1 Rotation |==|  0.21499 0.82784 0.60917 0.72219
USER: genes 2 Torsion [CB]-CA--N-[C] |==|  0.50556
USER: genes 3 Torsion [N]-C--CA-[N] |==|  0.27018
USER: genes 4 Torsion [C]-CA--N-[C] |==|  0.71987
USER: genes 5 Torsion [N]-C--CA-[N] |==|  0.35340
USER: genes 6 Torsion [C]-CA--CB-[CG] |==|  0.06212
USER: genes 7 Torsion [CA]-CB--CG-[CD] |==|  0.68232
USER: genes 8 Torsion [CB]-CG--CD-[NE] |==|  0.45878
USER: genes 9 Torsion [CG]-CD--NE-[CZ] |==|  0.45875
USER: genes 10 Torsion [C]-CA--CB-[CG] |==|  0.53038
USER: genes 11 Torsion [CA]-CB--CG-[CD] |==|  0.83152
USER: genes 12 Torsion [CB]-CG--CD-[OE1] |==|  0.23964
USER: genes 13 Torsion [N]-CA--CB-[CG] |==|  0.10676
USER: genes 14 Torsion [CA]-CB--CG-[CD2] |==|  0.50774
USER: genes 15 Torsion [N]-CA--C-[N] |==|  0.46505
USER: genes 16 Torsion [C]-N--CA-[CB] |==|  0.80415
USER: genes 17 Torsion [N]-CA--CB-[CG1] |==|  0.53912
USER: genes 18 Torsion [N]-CA--C-[N] |==|  0.76975
USER: genes 19 Torsion [C]-N--CA-[CB] |==|  0.86955
USER: genes 20 Torsion [N]-CA--CB-[CG] |==|  0.64774
USER: genes 21 Torsion [CA]-CB--CG-[CD1] |==|  0.36108
USER: genes 22 Torsion [N]-CA--C-[N] |==|  0.44390
USER: genes 23 Torsion [C]-N--CA-[C] |==|  0.28314
USER: genes 24 Torsion [N]-CA--C-[N] |==|  0.65942
USER: genes 25 Torsion [C]-N--CA-[CB] |==|  0.34798
USER: genes 26 Torsion [N]-CA--CB-[CG] |==|  0.69700
USER: genes 27 Torsion [CA]-CB--CG-[CD1] |==|  0.17999
USER: genes 28 Torsion [N]-CA--C-[O] |==|  0.56257
ROOT
ATOM      1  CA  LEU C  12      -1.116   4.357  31.307  0.76 25.89 LIG 0.18  C 
ENDROOT
BRANCH 1 2
ATOM      2  N   LEU C  12      -0.578   3.750  32.518  0.76 24.12 LIG-0.35  N 
ATOM      3 H    LEU C  12       0.270   3.611  32.496  0.76 24.12 LIG 0.16  HD
ATOM      4  C   GLN C  11      -1.352   3.446  33.555  0.76 26.11 LIG 0.24  C 
ATOM      5 O    GLN C  11      -2.567   3.661  33.572  0.76 27.34 LIG-0.27  OA
BRANCH 4 6
ATOM      6  CA  GLN C  11      -0.653   2.788  34.742  0.76 26.16 LIG 0.18  C 
BRANCH 6 7
ATOM      7  N   GLN C  11      -0.292   3.708  35.813  0.76 28.86 LIG-0.35  N 
ATOM      8  C   ARG C  10       0.938   4.179  35.979  0.76 30.48 LIG 0.26  C 
ATOM      9 O    ARG C  10       1.876   3.906  35.225  0.76 24.30 LIG-0.27  OA
ATOM     10 H    GLN C  11      -0.950   3.918  36.326  0.76 28.86 LIG 0.16  HD
BRANCH 8 11
ATOM     11  CA  ARG C  10       1.135   5.120  37.177  0.76 33.62 LIG 0.40  C 
ATOM     12  N   ARG C  10       2.263   4.667  38.043  0.76 36.52 LIG 0.61  N 
BRANCH 11 13
ATOM     13  CB  ARG C  10       1.407   6.533  36.661  0.76 36.98 LIG 0.05  C 
BRANCH 13 14
ATOM     14  CG  ARG C  10       0.914   6.820  35.239  0.76 39.40 LIG 0.02  C 
BRANCH 14 15
ATOM     15  CD  ARG C  10       2.062   7.082  34.270  0.76 42.42 LIG 0.14  C 
BRANCH 15 16
ATOM     16  NE  ARG C  10       1.623   7.009  32.877  0.76 44.78 LIG-0.23  N 
ATOM     17  CZ  ARG C  10       2.320   7.461  31.838  0.76 45.62 LIG 0.67  C 
ATOM     18  NH2 ARG C  10       1.837   7.327  30.610  0.76 46.43 LIG-0.23  N 
ATOM     19  NH1 ARG C  10       3.503   8.033  32.019  0.76 45.50 LIG-0.23  N 
ATOM     20 2HH2 ARG C  10       2.286   7.619  29.937  0.76 46.43 LIG 0.17  HD
ATOM     21 1HH2 ARG C  10       1.074   6.949  30.487  0.76 46.43 LIG 0.17  HD
ATOM     22 2HH1 ARG C  10       3.949   8.324  31.343  0.76 45.50 LIG 0.17  HD
ATOM     23 1HH1 ARG C  10       3.825   8.113  32.812  0.76 45.50 LIG 0.17  HD
ATOM     24 HE   ARG C  10       0.860   6.648  32.718  0.76 44.78 LIG 0.18  HD
ENDBRANCH 15 16
ENDBRANCH 14 15
ENDBRANCH 13 14
ENDBRANCH 11 13
ENDBRANCH 8 11
ENDBRANCH 6 7
BRANCH 6 25
ATOM     25  CB  GLN C  11      -1.558   1.684  35.296  0.76 25.68 LIG 0.04  C 
BRANCH 25 26
ATOM     26  CG  GLN C  11      -1.102   1.128  36.632  0.76 22.66 LIG 0.10  C 
BRANCH 26 27
ATOM     27  CD  GLN C  11       0.271   0.512  36.545  0.76 24.13 LIG 0.21  C 
ATOM     28 OE1  GLN C  11       1.283   1.208  36.682  0.76 19.83 LIG-0.27  OA
ATOM     29  NE2 GLN C  11       0.321  -0.797  36.316  0.76 21.86 LIG-0.37  N 
ATOM     30 21HE GLN C  11      -0.407  -1.246  36.226  0.76 21.86 LIG 0.16  HD
ATOM     31 22HE GLN C  11       1.082  -1.194  36.259  0.76 21.86 LIG 0.16  HD
ENDBRANCH 26 27
ENDBRANCH 25 26
ENDBRANCH 6 25
ENDBRANCH 4 6
ENDBRANCH 1 2
BRANCH 1 32
ATOM     32  CB  LEU C  12      -0.005   4.548  30.269  0.76 24.07 LIG 0.04  C 
BRANCH 32 33
ATOM     33  CG  LEU C  12       1.034   3.423  30.182  0.76 21.16 LIG-0.02  C 
ATOM     34  CD1 LEU C  12       0.328   2.133  29.794  0.76 25.64 LIG 0.01  C 
ATOM     35  CD2 LEU C  12       2.116   3.772  29.162  0.76 25.10 LIG 0.01  C 
ENDBRANCH 32 33
ENDBRANCH 1 32
BRANCH 1 36
ATOM     36  C   LEU C  12      -2.202   3.421  30.769  0.76 25.30 LIG 0.24  C 
ATOM     37 O    LEU C  12      -2.315   2.275  31.215  0.76 25.87 LIG-0.27  OA
ATOM     38  N   VAL C  13      -3.000   3.903  29.816  0.76 25.62 LIG-0.35  N 
ATOM     39 H    VAL C  13      -2.927   4.689  29.475  0.76 25.62 LIG 0.16  HD
BRANCH 38 40
ATOM     40  CA  VAL C  13      -4.089   3.095  29.272  0.76 24.99 LIG 0.18  C 
BRANCH 40 41
ATOM     41  CB  VAL C  13      -3.545   1.932  28.405  0.76 27.65 LIG 0.01  C 
ATOM     42  CG1 VAL C  13      -4.672   1.325  27.577  0.76 28.12 LIG 0.01  C 
ATOM     43  CG2 VAL C  13      -2.438   2.433  27.497  0.76 27.69 LIG 0.01  C 
ENDBRANCH 40 41
BRANCH 40 44
ATOM     44  C   VAL C  13      -5.028   2.503  30.317  0.76 25.58 LIG 0.24  C 
ATOM     45  N   LEU C  14      -4.614   1.377  30.881  0.76 25.74 LIG-0.35  N 
ATOM     46 H    LEU C  14      -3.872   0.988  30.690  0.76 25.74 LIG 0.16  HD
ATOM     47 O    VAL C  13      -6.092   3.047  30.615  0.76 23.74 LIG-0.27  OA
BRANCH 45 48
ATOM     48  CA  LEU C  14      -5.405   0.695  31.898  0.76 27.54 LIG 0.18  C 
BRANCH 48 49
ATOM     49  CB  LEU C  14      -5.896   1.698  32.947  0.76 27.94 LIG 0.04  C 
BRANCH 49 50
ATOM     50  CG  LEU C  14      -5.593   1.378  34.411  0.76 29.52 LIG-0.02  C 
ATOM     51  CD2 LEU C  14      -6.878   0.961  35.121  0.76 29.01 LIG 0.01  C 
ATOM     52  CD1 LEU C  14      -4.969   2.596  35.069  0.76 31.53 LIG 0.01  C 
ENDBRANCH 49 50
ENDBRANCH 48 49
BRANCH 48 53
ATOM     53  C   LEU C  14      -6.616  -0.022  31.320  0.76 27.94 LIG 0.24  C 
ATOM     54  N   GLY C  15      -7.131  -0.981  32.078  0.76 27.74 LIG-0.35  N 
ATOM     55 H    GLY C  15      -6.809  -1.229  32.836  0.76 27.74 LIG 0.16  HD
ATOM     56 O    LEU C  14      -7.070   0.281  30.210  0.76 29.25 LIG-0.27  OA
BRANCH 54 57
ATOM     57  CA  GLY C  15      -8.319  -1.696  31.651  0.76 32.19 LIG 0.23  C 
BRANCH 57 58
ATOM     58  C   GLY C  15      -7.848  -3.038  31.114  0.76 34.72 LIG 0.24  C 
ATOM     59  N   LEU C  16      -8.187  -3.315  29.859  0.76 34.76 LIG-0.34  N 
ATOM     60 H    LEU C  16      -8.630  -2.776  29.357  0.76 34.76 LIG 0.16  HD
ATOM     61 O    GLY C  15      -7.200  -3.810  31.821  0.76 36.88 LIG-0.27  OA
BRANCH 59 62
ATOM     62  CA  LEU C  16      -7.834  -4.576  29.213  0.76 35.63 LIG 0.18  C 
BRANCH 62 63
ATOM     63  CB  LEU C  16      -9.098  -5.240  28.668  0.76 32.88 LIG 0.04  C 
BRANCH 63 64
ATOM     64  CG  LEU C  16      -9.519  -6.493  29.442  0.76 27.62 LIG-0.02  C 
ATOM     65  CD1 LEU C  16      -9.909  -6.127  30.865  0.76 29.42 LIG 0.01  C 
ATOM     66  CD2 LEU C  16     -10.671  -7.167  28.717  0.76 30.85 LIG 0.01  C 
ENDBRANCH 63 64
ENDBRANCH 62 63
BRANCH 62 67
ATOM     67  C   LEU C  16      -6.799  -4.437  28.105  0.76 36.84 LIG 0.20  C 
ATOM     68 O    LEU C  16      -6.752  -5.336  27.233  0.76 37.63 LIG-0.65  OA
ATOM     69 OXT  LEU C  16      -6.051  -3.437  28.121  0.76 38.60 LIG-0.65  OA
ENDBRANCH 62 67
ENDBRANCH 59 62
ENDBRANCH 57 58
ENDBRANCH 54 57
ENDBRANCH 48 53
ENDBRANCH 45 48
ENDBRANCH 40 44
ENDBRANCH 38 40
ENDBRANCH 1 36
TORSDOF 27
ENDMDL
MODEL 13
USER: ADFR SOLUTION from run 158
USER: SCORE 17.735564 LL:  -4.730 LR: -16.417 RR:   0.000 FEB:  -8.363
USER: RMSD 13.596403
USER: SEED 157
USER: STATUS no improvement in best in 5 clusters for 5 generations
USER: GENES 29
USER: genes 0 Translation |==|  0.73762 0.56843 0.48525
USER: genes 1 Rotation |==|  0.25003 0.92578 0.43163 0.53945
USER: genes 2 Torsion [CB]-CA--N-[C] |==|  0.24926
USER: genes 3 Torsion [N]-C--CA-[N] |==|  0.23123
USER: genes 4 Torsion [C]-CA--N-[C] |==|  0.67661
USER: genes 5 Torsion [N]-C--CA-[N] |==|  0.15562
USER: genes 6 Torsion [C]-CA--CB-[CG] |==|  0.25220
USER: genes 7 Torsion [CA]-CB--CG-[CD] |==|  0.62700
USER: genes 8 Torsion [CB]-CG--CD-[NE] |==|  0.18878
USER: genes 9 Torsion [CG]-CD--NE-[CZ] |==|  0.40908
USER: genes 10 Torsion [C]-CA--CB-[CG] |==|  0.49340
USER: genes 11 Torsion [CA]-CB--CG-[CD] |==|  0.49024
USER: genes 12 Torsion [CB]-CG--CD-[OE1] |==|  0.48354
USER: genes 13 Torsion [N]-CA--CB-[CG] |==|  0.63065
USER: genes 14 Torsion [CA]-CB--CG-[CD2] |==|  0.40116
USER: genes 15 Torsion [N]-CA--C-[N] |==|  0.47764
USER: genes 16 Torsion [C]-N--CA-[CB] |==|  0.28028
USER: genes 17 Torsion [N]-CA--CB-[CG1] |==|  0.93405
USER: genes 18 Torsion [N]-CA--C-[N] |==|  0.43820
USER: genes 19 Torsion [C]-N--CA-[CB] |==|  0.16368
USER: genes 20 Torsion [N]-CA--CB-[CG] |==|  0.66064
USER: genes 21 Torsion [CA]-CB--CG-[CD1] |==|  0.62484
USER: genes 22 Torsion [N]-CA--C-[N] |==|  0.68910
USER: genes 23 Torsion [C]-N--CA-[C] |==|  0.18059
USER: genes 24 Torsion [N]-CA--C-[N] |==|  0.06408
USER: genes 25 Torsion [C]-N--CA-[CB] |==|  0.47437
USER: genes 26 Torsion [N]-CA--CB-[CG] |==|  0.24633
USER: genes 27 Torsion [CA]-CB--CG-[CD1] |==|  0.31182
USER: genes 28 Torsion [N]-CA--C-[O] |==|  0.49520
ROOT
ATOM      1  CA  LEU C  12       6.328   8.177  32.240  0.76 25.89 LIG 0.18  C 
ENDROOT
BRANCH 1 2
ATOM      2  N   LEU C  12       7.164   8.453  33.400  0.76 24.12 LIG-0.35  N 
ATOM      3 H    LEU C  12       6.913   8.057  34.120  0.76 24.12 LIG 0.16  HD
ATOM      4  C   GLN C  11       8.222   9.255  33.327  0.76 26.11 LIG 0.24  C 
ATOM      5 O    GLN C  11       8.574   9.810  32.282  0.76 27.34 LIG-0.27  OA
BRANCH 4 6
ATOM      6  CA  GLN C  11       8.986   9.476  34.630  0.76 26.16 LIG 0.18  C 
BRANCH 6 7
ATOM      7  N   GLN C  11       9.954   8.432  34.944  0.76 28.86 LIG-0.35  N 
ATOM      8  C   ARG C  10       9.855   7.649  36.012  0.76 30.48 LIG 0.26  C 
ATOM      9 O    ARG C  10       8.921   7.715  36.816  0.76 24.30 LIG-0.27  OA
ATOM     10 H    GLN C  11      10.594   8.370  34.373  0.76 28.86 LIG 0.16  HD
BRANCH 8 11
ATOM     11  CA  ARG C  10      10.982   6.621  36.191  0.76 33.62 LIG 0.40  C 
ATOM     12  N   ARG C  10      12.320   7.282  36.220  0.76 36.52 LIG 0.61  N 
BRANCH 11 13
ATOM     13  CB  ARG C  10      10.751   5.851  37.491  0.76 36.98 LIG 0.05  C 
BRANCH 13 14
ATOM     14  CG  ARG C  10       9.920   4.570  37.358  0.76 39.40 LIG 0.02  C 
BRANCH 14 15
ATOM     15  CD  ARG C  10       8.852   4.460  38.441  0.76 42.42 LIG 0.14  C 
BRANCH 15 16
ATOM     16  NE  ARG C  10       7.809   5.472  38.280  0.76 44.78 LIG-0.23  N 
ATOM     17  CZ  ARG C  10       6.529   5.300  38.599  0.76 45.62 LIG 0.67  C 
ATOM     18  NH2 ARG C  10       5.667   6.293  38.430  0.76 46.43 LIG-0.23  N 
ATOM     19  NH1 ARG C  10       6.110   4.145  39.099  0.76 45.50 LIG-0.23  N 
ATOM     20 2HH2 ARG C  10       4.839   6.184  38.636  0.76 46.43 LIG 0.17  HD
ATOM     21 1HH2 ARG C  10       5.936   7.047  38.115  0.76 46.43 LIG 0.17  HD
ATOM     22 2HH1 ARG C  10       5.281   4.040  39.303  0.76 45.50 LIG 0.17  HD
ATOM     23 1HH1 ARG C  10       6.668   3.501  39.220  0.76 45.50 LIG 0.17  HD
ATOM     24 HE   ARG C  10       8.040   6.234  37.956  0.76 44.78 LIG 0.18  HD
ENDBRANCH 15 16
ENDBRANCH 14 15
ENDBRANCH 13 14
ENDBRANCH 11 13
ENDBRANCH 8 11
ENDBRANCH 6 7
BRANCH 6 25
ATOM     25  CB  GLN C  11       9.696  10.831  34.562  0.76 25.68 LIG 0.04  C 
BRANCH 25 26
ATOM     26  CG  GLN C  11      10.449  11.195  35.828  0.76 22.66 LIG 0.10  C 
BRANCH 26 27
ATOM     27  CD  GLN C  11      11.198  12.494  35.682  0.76 24.13 LIG 0.21  C 
ATOM     28 OE1  GLN C  11      11.778  12.999  36.649  0.76 19.83 LIG-0.27  OA
ATOM     29  NE2 GLN C  11      11.196  13.047  34.473  0.76 21.86 LIG-0.37  N 
ATOM     30 21HE GLN C  11      10.781  12.664  33.825  0.76 21.86 LIG 0.16  HD
ATOM     31 22HE GLN C  11      11.611  13.789  34.339  0.76 21.86 LIG 0.16  HD
ENDBRANCH 26 27
ENDBRANCH 25 26
ENDBRANCH 6 25
ENDBRANCH 4 6
ENDBRANCH 1 2
BRANCH 1 32
ATOM     32  CB  LEU C  12       6.857   6.953  31.482  0.76 24.07 LIG 0.04  C 
BRANCH 32 33
ATOM     33  CG  LEU C  12       6.976   7.106  29.960  0.76 21.16 LIG-0.02  C 
ATOM     34  CD1 LEU C  12       7.076   8.585  29.622  0.76 25.64 LIG 0.01  C 
ATOM     35  CD2 LEU C  12       8.199   6.352  29.441  0.76 25.10 LIG 0.01  C 
ENDBRANCH 32 33
ENDBRANCH 1 32
BRANCH 1 36
ATOM     36  C   LEU C  12       4.906   7.922  32.749  0.76 25.30 LIG 0.24  C 
ATOM     37 O    LEU C  12       4.686   7.828  33.961  0.76 25.87 LIG-0.27  OA
ATOM     38  N   VAL C  13       3.945   7.810  31.833  0.76 25.62 LIG-0.35  N 
ATOM     39 H    VAL C  13       4.077   7.850  30.984  0.76 25.62 LIG 0.16  HD
BRANCH 38 40
ATOM     40  CA  VAL C  13       2.553   7.606  32.229  0.76 24.99 LIG 0.18  C 
BRANCH 40 41
ATOM     41  CB  VAL C  13       1.749   8.927  32.153  0.76 27.65 LIG 0.01  C 
ATOM     42  CG1 VAL C  13       2.689  10.121  32.269  0.76 28.12 LIG 0.01  C 
ATOM     43  CG2 VAL C  13       0.976   8.992  30.849  0.76 27.69 LIG 0.01  C 
ENDBRANCH 40 41
BRANCH 40 44
ATOM     44  C   VAL C  13       1.806   6.554  31.416  0.76 25.58 LIG 0.24  C 
ATOM     45  N   LEU C  14       0.746   6.023  32.009  0.76 25.74 LIG-0.35  N 
ATOM     46 H    LEU C  14       0.477   6.240  32.796  0.76 25.74 LIG 0.16  HD
ATOM     47 O    VAL C  13       2.167   6.234  30.282  0.76 23.74 LIG-0.27  OA
BRANCH 45 48
ATOM     48  CA  LEU C  14      -0.067   5.006  31.355  0.76 27.54 LIG 0.18  C 
BRANCH 48 49
ATOM     49  CB  LEU C  14       0.792   3.786  31.006  0.76 27.94 LIG 0.04  C 
BRANCH 49 50
ATOM     50  CG  LEU C  14       0.846   3.369  29.537  0.76 29.52 LIG-0.02  C 
ATOM     51  CD2 LEU C  14      -0.245   4.097  28.757  0.76 29.01 LIG 0.01  C 
ATOM     52  CD1 LEU C  14       0.684   1.862  29.439  0.76 31.53 LIG 0.01  C 
ENDBRANCH 49 50
ENDBRANCH 48 49
BRANCH 48 53
ATOM     53  C   LEU C  14      -1.232   4.540  32.214  0.76 27.94 LIG 0.24  C 
ATOM     54  N   GLY C  15      -1.158   3.290  32.652  0.76 27.74 LIG-0.35  N 
ATOM     55 H    GLY C  15      -0.524   2.742  32.458  0.76 27.74 LIG 0.16  HD
ATOM     56 O    LEU C  14      -2.180   5.292  32.469  0.76 29.25 LIG-0.27  OA
BRANCH 54 57
ATOM     57  CA  GLY C  15      -2.187   2.755  33.524  0.76 32.19 LIG 0.23  C 
BRANCH 57 58
ATOM     58  C   GLY C  15      -3.471   2.724  32.711  0.76 34.72 LIG 0.24  C 
ATOM     59  N   LEU C  16      -3.325   2.695  31.390  0.76 34.76 LIG-0.34  N 
ATOM     60 H    LEU C  16      -2.561   2.676  30.998  0.76 34.76 LIG 0.16  HD
ATOM     61 O    GLY C  15      -4.571   2.736  33.265  0.76 36.88 LIG-0.27  OA
BRANCH 59 62
ATOM     62  CA  LEU C  16      -4.464   2.692  30.476  0.76 35.63 LIG 0.18  C 
BRANCH 62 63
ATOM     63  CB  LEU C  16      -3.967   2.887  29.044  0.76 32.88 LIG 0.04  C 
BRANCH 63 64
ATOM     64  CG  LEU C  16      -3.616   1.579  28.330  0.76 27.62 LIG-0.02  C 
ATOM     65  CD1 LEU C  16      -4.598   1.314  27.199  0.76 29.42 LIG 0.01  C 
ATOM     66  CD2 LEU C  16      -2.192   1.659  27.807  0.76 30.85 LIG 0.01  C 
ENDBRANCH 63 64
ENDBRANCH 62 63
BRANCH 62 67
ATOM     67  C   LEU C  16      -5.327   1.441  30.563  0.76 36.84 LIG 0.20  C 
ATOM     68 O    LEU C  16      -6.343   1.380  29.832  0.76 37.63 LIG-0.65  OA
ATOM     69 OXT  LEU C  16      -4.979   0.541  31.357  0.76 38.60 LIG-0.65  OA
ENDBRANCH 62 67
ENDBRANCH 59 62
ENDBRANCH 57 58
ENDBRANCH 54 57
ENDBRANCH 48 53
ENDBRANCH 45 48
ENDBRANCH 40 44
ENDBRANCH 38 40
ENDBRANCH 1 36
TORSDOF 27
ENDMDL
MODEL 14
USER: ADFR SOLUTION from run 86
USER: SCORE 18.180219 LL:  -4.359 LR: -16.361 RR:   0.000 FEB:  -8.307
USER: RMSD 5.323119
USER: SEED 85
USER: STATUS no improvement in best in 15 clusters for 5 generations
USER: GENES 29
USER: genes 0 Translation |==|  0.54072 0.42620 0.43068
USER: genes 1 Rotation |==|  0.83041 0.84587 0.47728 0.64382
USER: genes 2 Torsion [CB]-CA--N-[C] |==|  0.13343
USER: genes 3 Torsion [N]-C--CA-[N] |==|  0.95193
USER: genes 4 Torsion [C]-CA--N-[C] |==|  0.59834
USER: genes 5 Torsion [N]-C--CA-[N] |==|  0.42980
USER: genes 6 Torsion [C]-CA--CB-[CG] |==|  0.81295
USER: genes 7 Torsion [CA]-CB--CG-[CD] |==|  0.31298
USER: genes 8 Torsion [CB]-CG--CD-[NE] |==|  0.01930
USER: genes 9 Torsion [CG]-CD--NE-[CZ] |==|  0.23539
USER: genes 10 Torsion [C]-CA--CB-[CG] |==|  0.41260
USER: genes 11 Torsion [CA]-CB--CG-[CD] |==|  0.89733
USER: genes 12 Torsion [CB]-CG--CD-[OE1] |==|  0.84509
USER: genes 13 Torsion [N]-CA--CB-[CG] |==|  0.63586
USER: genes 14 Torsion [CA]-CB--CG-[CD2] |==|  0.18287
USER: genes 15 Torsion [N]-CA--C-[N] |==|  0.64655
USER: genes 16 Torsion [C]-N--CA-[CB] |==|  0.79376
USER: genes 17 Torsion [N]-CA--CB-[CG1] |==|  0.54844
USER: genes 18 Torsion [N]-CA--C-[N] |==|  0.27783
USER: genes 19 Torsion [C]-N--CA-[CB] |==|  0.48925
USER: genes 20 Torsion [N]-CA--CB-[CG] |==|  0.85374
USER: genes 21 Torsion [CA]-CB--CG-[CD1] |==|  0.41522
USER: genes 22 Torsion [N]-CA--C-[N] |==|  0.48030
USER: genes 23 Torsion [C]-N--CA-[C] |==|  0.64920
USER: genes 24 Torsion [N]-CA--C-[N] |==|  0.47389
USER: genes 25 Torsion [C]-N--CA-[CB] |==|  0.18138
USER: genes 26 Torsion [N]-CA--CB-[CG] |==|  0.32429
USER: genes 27 Torsion [CA]-CB--CG-[CD1] |==|  0.35098
USER: genes 28 Torsion [N]-CA--C-[O] |==|  0.95263
ROOT
ATOM      1  CA  LEU C  12       0.421   4.336  31.339  0.76 25.89 LIG 0.18  C 
ENDROOT
BRANCH 1 2
ATOM      2  N   LEU C  12      -0.787   4.055  32.104  0.76 24.12 LIG-0.35  N 
ATOM      3 H    LEU C  12      -0.880   4.538  32.809  0.76 24.12 LIG 0.16  HD
ATOM      4  C   GLN C  11      -1.658   3.125  31.723  0.76 26.11 LIG 0.24  C 
ATOM      5 O    GLN C  11      -1.513   2.447  30.702  0.76 27.34 LIG-0.27  OA
BRANCH 4 6
ATOM      6  CA  GLN C  11      -2.862   2.920  32.640  0.76 26.16 LIG 0.18  C 
BRANCH 6 7
ATOM      7  N   GLN C  11      -2.698   3.471  33.979  0.76 28.86 LIG-0.35  N 
ATOM      8  C   ARG C  10      -3.200   2.895  35.066  0.76 30.48 LIG 0.26  C 
ATOM      9 O    ARG C  10      -3.820   1.829  35.042  0.76 24.30 LIG-0.27  OA
ATOM     10 H    GLN C  11      -2.247   4.202  34.000  0.76 28.86 LIG 0.16  HD
BRANCH 8 11
ATOM     11  CA  ARG C  10      -2.946   3.634  36.388  0.76 33.62 LIG 0.40  C 
ATOM     12  N   ARG C  10      -3.989   3.303  37.403  0.76 36.52 LIG 0.61  N 
BRANCH 11 13
ATOM     13  CB  ARG C  10      -1.564   3.250  36.915  0.76 36.98 LIG 0.05  C 
BRANCH 13 14
ATOM     14  CG  ARG C  10      -1.412   1.792  37.363  0.76 39.40 LIG 0.02  C 
BRANCH 14 15
ATOM     15  CD  ARG C  10      -0.470   1.005  36.461  0.76 42.42 LIG 0.14  C 
BRANCH 15 16
ATOM     16  NE  ARG C  10       0.191   1.867  35.481  0.76 44.78 LIG-0.23  N 
ATOM     17  CZ  ARG C  10       1.299   2.566  35.711  0.76 45.62 LIG 0.67  C 
ATOM     18  NH2 ARG C  10       1.827   3.303  34.743  0.76 46.43 LIG-0.23  N 
ATOM     19  NH1 ARG C  10       1.890   2.519  36.897  0.76 45.50 LIG-0.23  N 
ATOM     20 2HH2 ARG C  10       2.544   3.756  34.889  0.76 46.43 LIG 0.17  HD
ATOM     21 1HH2 ARG C  10       1.452   3.329  33.969  0.76 46.43 LIG 0.17  HD
ATOM     22 2HH1 ARG C  10       2.606   2.974  37.039  0.76 45.50 LIG 0.17  HD
ATOM     23 1HH1 ARG C  10       1.557   2.034  37.525  0.76 45.50 LIG 0.17  HD
ATOM     24 HE   ARG C  10      -0.163   1.926  34.700  0.76 44.78 LIG 0.18  HD
ENDBRANCH 15 16
ENDBRANCH 14 15
ENDBRANCH 13 14
ENDBRANCH 11 13
ENDBRANCH 8 11
ENDBRANCH 6 7
BRANCH 6 25
ATOM     25  CB  GLN C  11      -4.096   3.537  31.977  0.76 25.68 LIG 0.04  C 
BRANCH 25 26
ATOM     26  CG  GLN C  11      -5.394   2.824  32.309  0.76 22.66 LIG 0.10  C 
BRANCH 26 27
ATOM     27  CD  GLN C  11      -5.206   1.332  32.404  0.76 24.13 LIG 0.21  C 
ATOM     28 OE1  GLN C  11      -4.724   0.697  31.460  0.76 19.83 LIG-0.27  OA
ATOM     29  NE2 GLN C  11      -5.583   0.757  33.542  0.76 21.86 LIG-0.37  N 
ATOM     30 21HE GLN C  11      -5.915   1.234  34.176  0.76 21.86 LIG 0.16  HD
ATOM     31 22HE GLN C  11      -5.495  -0.093  33.644  0.76 21.86 LIG 0.16  HD
ENDBRANCH 26 27
ENDBRANCH 25 26
ENDBRANCH 6 25
ENDBRANCH 4 6
ENDBRANCH 1 2
BRANCH 1 32
ATOM     32  CB  LEU C  12       0.084   4.494  29.852  0.76 24.07 LIG 0.04  C 
BRANCH 32 33
ATOM     33  CG  LEU C  12       0.960   3.696  28.877  0.76 21.16 LIG-0.02  C 
ATOM     34  CD1 LEU C  12       2.417   4.062  29.116  0.76 25.64 LIG 0.01  C 
ATOM     35  CD2 LEU C  12       0.743   2.196  29.069  0.76 25.10 LIG 0.01  C 
ENDBRANCH 32 33
ENDBRANCH 1 32
BRANCH 1 36
ATOM     36  C   LEU C  12       1.025   5.629  31.895  0.76 25.30 LIG 0.24  C 
ATOM     37 O    LEU C  12       1.247   5.743  33.105  0.76 25.87 LIG-0.27  OA
ATOM     38  N   VAL C  13       1.291   6.598  31.020  0.76 25.62 LIG-0.35  N 
ATOM     39 H    VAL C  13       1.125   6.551  30.178  0.76 25.62 LIG 0.16  HD
BRANCH 38 40
ATOM     40  CA  VAL C  13       1.905   7.851  31.455  0.76 24.99 LIG 0.18  C 
BRANCH 40 41
ATOM     41  CB  VAL C  13       0.888   8.743  32.209  0.76 27.65 LIG 0.01  C 
ATOM     42  CG1 VAL C  13       1.395  10.179  32.271  0.76 28.12 LIG 0.01  C 
ATOM     43  CG2 VAL C  13      -0.461   8.692  31.517  0.76 27.69 LIG 0.01  C 
ENDBRANCH 40 41
BRANCH 40 44
ATOM     44  C   VAL C  13       3.133   7.685  32.345  0.76 25.58 LIG 0.24  C 
ATOM     45  N   LEU C  14       4.301   7.823  31.733  0.76 25.74 LIG-0.35  N 
ATOM     46 H    LEU C  14       4.388   7.995  30.896  0.76 25.74 LIG 0.16  HD
ATOM     47 O    VAL C  13       3.034   7.449  33.549  0.76 23.74 LIG-0.27  OA
BRANCH 45 48
ATOM     48  CA  LEU C  14       5.561   7.692  32.454  0.76 27.54 LIG 0.18  C 
BRANCH 48 49
ATOM     49  CB  LEU C  14       6.740   7.805  31.482  0.76 27.94 LIG 0.04  C 
BRANCH 49 50
ATOM     50  CG  LEU C  14       6.726   6.887  30.260  0.76 29.52 LIG-0.02  C 
ATOM     51  CD2 LEU C  14       7.394   5.559  30.608  0.76 29.01 LIG 0.01  C 
ATOM     52  CD1 LEU C  14       7.436   7.576  29.108  0.76 31.53 LIG 0.01  C 
ENDBRANCH 49 50
ENDBRANCH 48 49
BRANCH 48 53
ATOM     53  C   LEU C  14       5.734   8.746  33.537  0.76 27.94 LIG 0.24  C 
ATOM     54  N   GLY C  15       6.790   8.592  34.324  0.76 27.74 LIG-0.35  N 
ATOM     55 H    GLY C  15       7.344   7.936  34.274  0.76 27.74 LIG 0.16  HD
ATOM     56 O    LEU C  14       4.926   9.674  33.662  0.76 29.25 LIG-0.27  OA
BRANCH 54 57
ATOM     57  CA  GLY C  15       7.084   9.567  35.358  0.76 32.19 LIG 0.23  C 
BRANCH 57 58
ATOM     58  C   GLY C  15       8.521  10.013  35.139  0.76 34.72 LIG 0.24  C 
ATOM     59  N   LEU C  16       8.927  11.049  35.864  0.76 34.76 LIG-0.34  N 
ATOM     60 H    LEU C  16       8.431  11.448  36.441  0.76 34.76 LIG 0.16  HD
ATOM     61 O    GLY C  15       9.244   9.437  34.325  0.76 36.88 LIG-0.27  OA
BRANCH 59 62
ATOM     62  CA  LEU C  16      10.270  11.610  35.744  0.76 35.63 LIG 0.18  C 
BRANCH 62 63
ATOM     63  CB  LEU C  16      10.446  12.214  34.351  0.76 32.88 LIG 0.04  C 
BRANCH 63 64
ATOM     64  CG  LEU C  16      10.685  13.726  34.359  0.76 27.62 LIG-0.02  C 
ATOM     65  CD1 LEU C  16      11.949  14.065  33.584  0.76 29.42 LIG 0.01  C 
ATOM     66  CD2 LEU C  16       9.477  14.428  33.765  0.76 30.85 LIG 0.01  C 
ENDBRANCH 63 64
ENDBRANCH 62 63
BRANCH 62 67
ATOM     67  C   LEU C  16      10.607  12.646  36.807  0.76 36.84 LIG 0.20  C 
ATOM     68 O    LEU C  16       9.660  13.155  37.450  0.76 37.63 LIG-0.65  OA
ATOM     69 OXT  LEU C  16      11.810  12.935  36.985  0.76 38.60 LIG-0.65  OA
ENDBRANCH 62 67
ENDBRANCH 59 62
ENDBRANCH 57 58
ENDBRANCH 54 57
ENDBRANCH 48 53
ENDBRANCH 45 48
ENDBRANCH 40 44
ENDBRANCH 38 40
ENDBRANCH 1 36
TORSDOF 27
ENDMDL
MODEL 15
USER: ADFR SOLUTION from run 140
USER: SCORE 17.885343 LL:  -4.637 LR: -16.356 RR:   0.000 FEB:  -8.302
USER: RMSD 3.416748
USER: SEED 139
USER: STATUS searching
USER: GENES 29
USER: genes 0 Translation |==|  0.53579 0.41790 0.45745
USER: genes 1 Rotation |==|  0.80435 0.88212 0.43097 0.58116
USER: genes 2 Torsion [CB]-CA--N-[C] |==|  0.81645
USER: genes 3 Torsion [N]-C--CA-[N] |==|  0.70537
USER: genes 4 Torsion [C]-CA--N-[C] |==|  0.18020
USER: genes 5 Torsion [N]-C--CA-[N] |==|  0.20898
USER: genes 6 Torsion [C]-CA--CB-[CG] |==|  0.59888
USER: genes 7 Torsion [CA]-CB--CG-[CD] |==|  0.71186
USER: genes 8 Torsion [CB]-CG--CD-[NE] |==|  0.92377
USER: genes 9 Torsion [CG]-CD--NE-[CZ] |==|  0.54589
USER: genes 10 Torsion [C]-CA--CB-[CG] |==|  0.21390
USER: genes 11 Torsion [CA]-CB--CG-[CD] |==|  0.64762
USER: genes 12 Torsion [CB]-CG--CD-[OE1] |==|  0.75090
USER: genes 13 Torsion [N]-CA--CB-[CG] |==|  0.64038
USER: genes 14 Torsion [CA]-CB--CG-[CD2] |==|  0.23113
USER: genes 15 Torsion [N]-CA--C-[N] |==|  0.57580
USER: genes 16 Torsion [C]-N--CA-[CB] |==|  0.82404
USER: genes 17 Torsion [N]-CA--CB-[CG1] |==|  0.53523
USER: genes 18 Torsion [N]-CA--C-[N] |==|  0.27304
USER: genes 19 Torsion [C]-N--CA-[CB] |==|  0.51479
USER: genes 20 Torsion [N]-CA--CB-[CG] |==|  0.62772
USER: genes 21 Torsion [CA]-CB--CG-[CD1] |==|  0.09510
USER: genes 22 Torsion [N]-CA--C-[N] |==|  0.46018
USER: genes 23 Torsion [C]-N--CA-[C] |==|  0.72479
USER: genes 24 Torsion [N]-CA--C-[N] |==|  0.51927
USER: genes 25 Torsion [C]-N--CA-[CB] |==|  0.21828
USER: genes 26 Torsion [N]-CA--CB-[CG] |==|  0.58315
USER: genes 27 Torsion [CA]-CB--CG-[CD1] |==|  0.40892
USER: genes 28 Torsion [N]-CA--C-[O] |==|  0.44332
ROOT
ATOM      1  CA  LEU C  12       0.273   4.112  31.781  0.76 25.89 LIG 0.18  C 
ENDROOT
BRANCH 1 2
ATOM      2  N   LEU C  12      -0.572   3.709  32.897  0.76 24.12 LIG-0.35  N 
ATOM      3 H    LEU C  12      -0.393   2.930  33.213  0.76 24.12 LIG 0.16  HD
ATOM      4  C   GLN C  11      -1.533   4.497  33.370  0.76 26.11 LIG 0.24  C 
ATOM      5 O    GLN C  11      -1.771   5.617  32.910  0.76 27.34 LIG-0.27  OA
BRANCH 4 6
ATOM      6  CA  GLN C  11      -2.358   3.929  34.523  0.76 26.16 LIG 0.18  C 
BRANCH 6 7
ATOM      7  N   GLN C  11      -3.704   3.512  34.150  0.76 28.86 LIG-0.35  N 
ATOM      8  C   ARG C  10      -3.947   2.513  33.309  0.76 30.48 LIG 0.26  C 
ATOM      9 O    ARG C  10      -3.057   1.830  32.795  0.76 24.30 LIG-0.27  OA
ATOM     10 H    GLN C  11      -4.326   3.973  34.525  0.76 28.86 LIG 0.16  HD
BRANCH 8 11
ATOM     11  CA  ARG C  10      -5.428   2.233  33.018  0.76 33.62 LIG 0.40  C 
ATOM     12  N   ARG C  10      -6.003   3.259  32.098  0.76 36.52 LIG 0.61  N 
BRANCH 11 13
ATOM     13  CB  ARG C  10      -5.559   0.843  32.396  0.76 36.98 LIG 0.05  C 
BRANCH 13 14
ATOM     14  CG  ARG C  10      -6.647   0.701  31.326  0.76 39.40 LIG 0.02  C 
BRANCH 14 15
ATOM     15  CD  ARG C  10      -7.883  -0.022  31.850  0.76 42.42 LIG 0.14  C 
BRANCH 15 16
ATOM     16  NE  ARG C  10      -7.553  -0.941  32.939  0.76 44.78 LIG-0.23  N 
ATOM     17  CZ  ARG C  10      -8.345  -1.917  33.374  0.76 45.62 LIG 0.67  C 
ATOM     18  NH2 ARG C  10      -7.938  -2.708  34.358  0.76 46.43 LIG-0.23  N 
ATOM     19  NH1 ARG C  10      -9.533  -2.116  32.819  0.76 45.50 LIG-0.23  N 
ATOM     20 2HH2 ARG C  10      -8.449  -3.340  34.641  0.76 46.43 LIG 0.17  HD
ATOM     21 1HH2 ARG C  10      -7.164  -2.588  34.714  0.76 46.43 LIG 0.17  HD
ATOM     22 2HH1 ARG C  10     -10.041  -2.750  33.105  0.76 45.50 LIG 0.17  HD
ATOM     23 1HH1 ARG C  10      -9.797  -1.613  32.174  0.76 45.50 LIG 0.17  HD
ATOM     24 HE   ARG C  10      -6.792  -0.843  33.326  0.76 44.78 LIG 0.18  HD
ENDBRANCH 15 16
ENDBRANCH 14 15
ENDBRANCH 13 14
ENDBRANCH 11 13
ENDBRANCH 8 11
ENDBRANCH 6 7
BRANCH 6 25
ATOM     25  CB  GLN C  11      -1.603   2.744  35.132  0.76 25.68 LIG 0.04  C 
BRANCH 25 26
ATOM     26  CG  GLN C  11      -0.447   3.147  36.028  0.76 22.66 LIG 0.10  C 
BRANCH 26 27
ATOM     27  CD  GLN C  11       0.838   2.472  35.623  0.76 24.13 LIG 0.21  C 
ATOM     28 OE1  GLN C  11       1.151   1.376  36.099  0.76 19.83 LIG-0.27  OA
ATOM     29  NE2 GLN C  11       1.595   3.118  34.741  0.76 21.86 LIG-0.37  N 
ATOM     30 21HE GLN C  11       1.342   3.880  34.433  0.76 21.86 LIG 0.16  HD
ATOM     31 22HE GLN C  11       2.338   2.773  34.478  0.76 21.86 LIG 0.16  HD
ENDBRANCH 26 27
ENDBRANCH 25 26
ENDBRANCH 6 25
ENDBRANCH 4 6
ENDBRANCH 1 2
BRANCH 1 32
ATOM     32  CB  LEU C  12      -0.560   4.228  30.498  0.76 24.07 LIG 0.04  C 
BRANCH 32 33
ATOM     33  CG  LEU C  12      -0.009   3.490  29.272  0.76 21.16 LIG-0.02  C 
ATOM     34  CD1 LEU C  12       1.505   3.625  29.257  0.76 25.64 LIG 0.01  C 
ATOM     35  CD2 LEU C  12      -0.418   2.018  29.306  0.76 25.10 LIG 0.01  C 
ENDBRANCH 32 33
ENDBRANCH 1 32
BRANCH 1 36
ATOM     36  C   LEU C  12       0.898   5.463  32.142  0.76 25.30 LIG 0.24  C 
ATOM     37 O    LEU C  12       1.078   5.770  33.324  0.76 25.87 LIG-0.27  OA
ATOM     38  N   VAL C  13       1.228   6.267  31.132  0.76 25.62 LIG-0.35  N 
ATOM     39 H    VAL C  13       1.093   6.085  30.302  0.76 25.62 LIG 0.16  HD
BRANCH 38 40
ATOM     40  CA  VAL C  13       1.866   7.558  31.381  0.76 24.99 LIG 0.18  C 
BRANCH 40 41
ATOM     41  CB  VAL C  13       0.933   8.500  32.180  0.76 27.65 LIG 0.01  C 
ATOM     42  CG1 VAL C  13       1.480   9.923  32.156  0.76 28.12 LIG 0.01  C 
ATOM     43  CG2 VAL C  13      -0.466   8.466  31.595  0.76 27.69 LIG 0.01  C 
ENDBRANCH 40 41
BRANCH 40 44
ATOM     44  C   VAL C  13       3.198   7.480  32.119  0.76 25.58 LIG 0.24  C 
ATOM     45  N   LEU C  14       4.278   7.541  31.352  0.76 25.74 LIG-0.35  N 
ATOM     46 H    LEU C  14       4.256   7.619  30.496  0.76 25.74 LIG 0.16  HD
ATOM     47 O    VAL C  13       3.256   7.377  33.345  0.76 23.74 LIG-0.27  OA
BRANCH 45 48
ATOM     48  CA  LEU C  14       5.621   7.479  31.916  0.76 27.54 LIG 0.18  C 
BRANCH 48 49
ATOM     49  CB  LEU C  14       6.666   7.705  30.818  0.76 27.94 LIG 0.04  C 
BRANCH 49 50
ATOM     50  CG  LEU C  14       7.860   6.751  30.787  0.76 29.52 LIG-0.02  C 
ATOM     51  CD2 LEU C  14       8.453   6.719  29.381  0.76 29.01 LIG 0.01  C 
ATOM     52  CD1 LEU C  14       7.408   5.370  31.227  0.76 31.53 LIG 0.01  C 
ENDBRANCH 49 50
ENDBRANCH 48 49
BRANCH 48 53
ATOM     53  C   LEU C  14       5.849   8.510  33.011  0.76 27.94 LIG 0.24  C 
ATOM     54  N   GLY C  15       6.925   8.320  33.762  0.76 27.74 LIG-0.35  N 
ATOM     55 H    GLY C  15       7.464   7.654  33.684  0.76 27.74 LIG 0.16  HD
ATOM     56 O    LEU C  14       5.065   9.451  33.177  0.76 29.25 LIG-0.27  OA
BRANCH 54 57
ATOM     57  CA  GLY C  15       7.271   9.270  34.803  0.76 32.19 LIG 0.23  C 
BRANCH 57 58
ATOM     58  C   GLY C  15       8.348  10.175  34.225  0.76 34.72 LIG 0.24  C 
ATOM     59  N   LEU C  16       8.908  11.031  35.073  0.76 34.76 LIG-0.34  N 
ATOM     60 H    LEU C  16       8.702  11.077  35.906  0.76 34.76 LIG 0.16  HD
ATOM     61 O    GLY C  15       8.659  10.106  33.035  0.76 36.88 LIG-0.27  OA
BRANCH 59 62
ATOM     62  CA  LEU C  16       9.934  11.984  34.660  0.76 35.63 LIG 0.18  C 
BRANCH 62 63
ATOM     63  CB  LEU C  16       9.275  13.166  33.950  0.76 32.88 LIG 0.04  C 
BRANCH 63 64
ATOM     64  CG  LEU C  16      10.162  13.819  32.887  0.76 27.62 LIG-0.02  C 
ATOM     65  CD1 LEU C  16       9.311  14.353  31.745  0.76 29.42 LIG 0.01  C 
ATOM     66  CD2 LEU C  16      10.976  14.932  33.526  0.76 30.85 LIG 0.01  C 
ENDBRANCH 63 64
ENDBRANCH 62 63
BRANCH 62 67
ATOM     67  C   LEU C  16      10.812  12.483  35.799  0.76 36.84 LIG 0.20  C 
ATOM     68 O    LEU C  16      11.928  12.973  35.506  0.76 37.63 LIG-0.65  OA
ATOM     69 OXT  LEU C  16      10.377  12.379  36.965  0.76 38.60 LIG-0.65  OA
ENDBRANCH 62 67
ENDBRANCH 59 62
ENDBRANCH 57 58
ENDBRANCH 54 57
ENDBRANCH 48 53
ENDBRANCH 45 48
ENDBRANCH 40 44
ENDBRANCH 38 40
ENDBRANCH 1 36
TORSDOF 27
ENDMDL
MODEL 16
USER: ADFR SOLUTION from run 176
USER: SCORE 17.638548 LL:  -4.618 LR: -16.319 RR:   0.000 FEB:  -8.265
USER: RMSD 5.661373
USER: SEED 175
USER: STATUS no improvement in best in 21 clusters for 5 generations
USER: GENES 29
USER: genes 0 Translation |==|  0.56030 0.43464 0.43258
USER: genes 1 Rotation |==|  0.75287 0.89731 0.51940 0.66682
USER: genes 2 Torsion [CB]-CA--N-[C] |==|  0.83087
USER: genes 3 Torsion [N]-C--CA-[N] |==|  0.23333
USER: genes 4 Torsion [C]-CA--N-[C] |==|  0.69084
USER: genes 5 Torsion [N]-C--CA-[N] |==|  0.26282
USER: genes 6 Torsion [C]-CA--CB-[CG] |==|  0.81924
USER: genes 7 Torsion [CA]-CB--CG-[CD] |==|  0.32413
USER: genes 8 Torsion [CB]-CG--CD-[NE] |==|  0.90933
USER: genes 9 Torsion [CG]-CD--NE-[CZ] |==|  0.27804
USER: genes 10 Torsion [C]-CA--CB-[CG] |==|  0.33757
USER: genes 11 Torsion [CA]-CB--CG-[CD] |==|  0.18755
USER: genes 12 Torsion [CB]-CG--CD-[OE1] |==|  0.96865
USER: genes 13 Torsion [N]-CA--CB-[CG] |==|  0.91821
USER: genes 14 Torsion [CA]-CB--CG-[CD2] |==|  0.73685
USER: genes 15 Torsion [N]-CA--C-[N] |==|  0.63542
USER: genes 16 Torsion [C]-N--CA-[CB] |==|  0.82216
USER: genes 17 Torsion [N]-CA--CB-[CG1] |==|  0.55428
USER: genes 18 Torsion [N]-CA--C-[N] |==|  0.12578
USER: genes 19 Torsion [C]-N--CA-[CB] |==|  0.18745
USER: genes 20 Torsion [N]-CA--CB-[CG] |==|  0.63108
USER: genes 21 Torsion [CA]-CB--CG-[CD1] |==|  0.77323
USER: genes 22 Torsion [N]-CA--C-[N] |==|  0.03447
USER: genes 23 Torsion [C]-N--CA-[C] |==|  0.77226
USER: genes 24 Torsion [N]-CA--C-[N] |==|  0.98592
USER: genes 25 Torsion [C]-N--CA-[CB] |==|  0.44239
USER: genes 26 Torsion [N]-CA--CB-[CG] |==|  0.56487
USER: genes 27 Torsion [CA]-CB--CG-[CD1] |==|  0.19839
USER: genes 28 Torsion [N]-CA--C-[O] |==|  0.90386
ROOT
ATOM      1  CA  LEU C  12       1.008   4.564  31.371  0.76 25.89 LIG 0.18  C 
ENDROOT
BRANCH 1 2
ATOM      2  N   LEU C  12      -0.065   3.830  32.029  0.76 24.12 LIG-0.35  N 
ATOM      3 H    LEU C  12       0.198   3.143  32.473  0.76 24.12 LIG 0.16  HD
ATOM      4  C   GLN C  11      -1.335   4.210  31.935  0.76 26.11 LIG 0.24  C 
ATOM      5 O    GLN C  11      -1.694   5.205  31.299  0.76 27.34 LIG-0.27  OA
BRANCH 4 6
ATOM      6  CA  GLN C  11      -2.353   3.326  32.652  0.76 26.16 LIG 0.18  C 
BRANCH 6 7
ATOM      7  N   GLN C  11      -2.514   3.623  34.070  0.76 28.86 LIG-0.35  N 
ATOM      8  C   ARG C  10      -2.119   2.798  35.033  0.76 30.48 LIG 0.26  C 
ATOM      9 O    ARG C  10      -1.553   1.724  34.815  0.76 24.30 LIG-0.27  OA
ATOM     10 H    GLN C  11      -2.887   4.382  34.225  0.76 28.86 LIG 0.16  HD
BRANCH 8 11
ATOM     11  CA  ARG C  10      -2.392   3.271  36.469  0.76 33.62 LIG 0.40  C 
ATOM     12  N   ARG C  10      -3.679   2.718  36.986  0.76 36.52 LIG 0.61  N 
BRANCH 11 13
ATOM     13  CB  ARG C  10      -1.237   2.831  37.366  0.76 36.98 LIG 0.05  C 
BRANCH 13 14
ATOM     14  CG  ARG C  10      -1.075   1.316  37.535  0.76 39.40 LIG 0.02  C 
BRANCH 14 15
ATOM     15  CD  ARG C  10       0.250   0.810  36.977  0.76 42.42 LIG 0.14  C 
BRANCH 15 16
ATOM     16  NE  ARG C  10       0.684   1.590  35.818  0.76 44.78 LIG-0.23  N 
ATOM     17  CZ  ARG C  10       1.596   2.557  35.853  0.76 45.62 LIG 0.67  C 
ATOM     18  NH2 ARG C  10       1.931   3.189  34.736  0.76 46.43 LIG-0.23  N 
ATOM     19  NH1 ARG C  10       2.186   2.885  36.995  0.76 45.50 LIG-0.23  N 
ATOM     20 2HH2 ARG C  10       2.521   3.815  34.756  0.76 46.43 LIG 0.17  HD
ATOM     21 1HH2 ARG C  10       1.558   2.974  33.991  0.76 46.43 LIG 0.17  HD
ATOM     22 2HH1 ARG C  10       2.775   3.512  37.011  0.76 45.50 LIG 0.17  HD
ATOM     23 1HH1 ARG C  10       1.979   2.471  37.720  0.76 45.50 LIG 0.17  HD
ATOM     24 HE   ARG C  10       0.324   1.409  35.059  0.76 44.78 LIG 0.18  HD
ENDBRANCH 15 16
ENDBRANCH 14 15
ENDBRANCH 13 14
ENDBRANCH 11 13
ENDBRANCH 8 11
ENDBRANCH 6 7
BRANCH 6 25
ATOM     25  CB  GLN C  11      -3.704   3.454  31.944  0.76 25.68 LIG 0.04  C 
BRANCH 25 26
ATOM     26  CG  GLN C  11      -4.254   2.139  31.425  0.76 22.66 LIG 0.10  C 
BRANCH 26 27
ATOM     27  CD  GLN C  11      -4.635   1.208  32.548  0.76 24.13 LIG 0.21  C 
ATOM     28 OE1  GLN C  11      -4.301   1.455  33.711  0.76 19.83 LIG-0.27  OA
ATOM     29  NE2 GLN C  11      -5.339   0.131  32.213  0.76 21.86 LIG-0.37  N 
ATOM     30 21HE GLN C  11      -5.552  -0.005  31.391  0.76 21.86 LIG 0.16  HD
ATOM     31 22HE GLN C  11      -5.581  -0.430  32.818  0.76 21.86 LIG 0.16  HD
ENDBRANCH 26 27
ENDBRANCH 25 26
ENDBRANCH 6 25
ENDBRANCH 4 6
ENDBRANCH 1 2
BRANCH 1 32
ATOM     32  CB  LEU C  12       0.794   4.571  29.852  0.76 24.07 LIG 0.04  C 
BRANCH 32 33
ATOM     33  CG  LEU C  12       0.055   3.358  29.273  0.76 21.16 LIG-0.02  C 
ATOM     34  CD1 LEU C  12      -0.833   3.826  28.130  0.76 25.64 LIG 0.01  C 
ATOM     35  CD2 LEU C  12       1.051   2.309  28.784  0.76 25.10 LIG 0.01  C 
ENDBRANCH 32 33
ENDBRANCH 1 32
BRANCH 1 36
ATOM     36  C   LEU C  12       0.994   5.992  31.923  0.76 25.30 LIG 0.24  C 
ATOM     37 O    LEU C  12       0.951   6.188  33.142  0.76 25.87 LIG-0.27  OA
ATOM     38  N   VAL C  13       1.030   6.986  31.036  0.76 25.62 LIG-0.35  N 
ATOM     39 H    VAL C  13       1.038   6.875  30.184  0.76 25.62 LIG 0.16  HD
BRANCH 38 40
ATOM     40  CA  VAL C  13       1.060   8.380  31.475  0.76 24.99 LIG 0.18  C 
BRANCH 40 41
ATOM     41  CB  VAL C  13      -0.238   8.759  32.229  0.76 27.65 LIG 0.01  C 
ATOM     42  CG1 VAL C  13      -0.409  10.273  32.250  0.76 28.12 LIG 0.01  C 
ATOM     43  CG2 VAL C  13      -1.435   8.104  31.567  0.76 27.69 LIG 0.01  C 
ENDBRANCH 40 41
BRANCH 40 44
ATOM     44  C   VAL C  13       2.244   8.744  32.364  0.76 25.58 LIG 0.24  C 
ATOM     45  N   LEU C  14       3.423   8.294  31.955  0.76 25.74 LIG-0.35  N 
ATOM     46 H    LEU C  14       3.538   7.828  31.242  0.76 25.74 LIG 0.16  HD
ATOM     47 O    VAL C  13       2.105   9.418  33.385  0.76 23.74 LIG-0.27  OA
BRANCH 45 48
ATOM     48  CA  LEU C  14       4.645   8.563  32.702  0.76 27.54 LIG 0.18  C 
BRANCH 48 49
ATOM     49  CB  LEU C  14       4.616   7.829  34.046  0.76 27.94 LIG 0.04  C 
BRANCH 49 50
ATOM     50  CG  LEU C  14       5.002   8.632  35.288  0.76 29.52 LIG-0.02  C 
ATOM     51  CD2 LEU C  14       4.401  10.033  35.199  0.76 29.01 LIG 0.01  C 
ATOM     52  CD1 LEU C  14       6.515   8.686  35.398  0.76 31.53 LIG 0.01  C 
ENDBRANCH 49 50
ENDBRANCH 48 49
BRANCH 48 53
ATOM     53  C   LEU C  14       5.899   8.140  31.953  0.76 27.94 LIG 0.24  C 
ATOM     54  N   GLY C  15       5.729   7.842  30.672  0.76 27.74 LIG-0.35  N 
ATOM     55 H    GLY C  15       4.971   7.846  30.266  0.76 27.74 LIG 0.16  HD
ATOM     56 O    LEU C  14       6.994   8.078  32.523  0.76 29.25 LIG-0.27  OA
BRANCH 54 57
ATOM     57  CA  GLY C  15       6.865   7.476  29.846  0.76 32.19 LIG 0.23  C 
BRANCH 57 58
ATOM     58  C   GLY C  15       7.522   8.776  29.411  0.76 34.72 LIG 0.24  C 
ATOM     59  N   LEU C  16       6.894   9.894  29.763  0.76 34.76 LIG-0.34  N 
ATOM     60 H    LEU C  16       6.169   9.905  30.224  0.76 34.76 LIG 0.16  HD
ATOM     61 O    GLY C  15       8.569   8.769  28.762  0.76 36.88 LIG-0.27  OA
BRANCH 59 62
ATOM     62  CA  LEU C  16       7.385  11.217  29.393  0.76 35.63 LIG 0.18  C 
BRANCH 62 63
ATOM     63  CB  LEU C  16       6.240  12.227  29.473  0.76 32.88 LIG 0.04  C 
BRANCH 63 64
ATOM     64  CG  LEU C  16       6.451  13.469  28.605  0.76 27.62 LIG-0.02  C 
ATOM     65  CD1 LEU C  16       6.307  13.115  27.133  0.76 29.42 LIG 0.01  C 
ATOM     66  CD2 LEU C  16       5.451  14.539  29.008  0.76 30.85 LIG 0.01  C 
ENDBRANCH 63 64
ENDBRANCH 62 63
BRANCH 62 67
ATOM     67  C   LEU C  16       8.564  11.698  30.228  0.76 36.84 LIG 0.20  C 
ATOM     68 O    LEU C  16       8.597  11.369  31.436  0.76 37.63 LIG-0.65  OA
ATOM     69 OXT  LEU C  16       9.436  12.395  29.667  0.76 38.60 LIG-0.65  OA
ENDBRANCH 62 67
ENDBRANCH 59 62
ENDBRANCH 57 58
ENDBRANCH 54 57
ENDBRANCH 48 53
ENDBRANCH 45 48
ENDBRANCH 40 44
ENDBRANCH 38 40
ENDBRANCH 1 36
TORSDOF 27
ENDMDL
MODEL 17
USER: ADFR SOLUTION from run 55
USER: SCORE 18.890367 LL:  -3.841 LR: -16.325 RR:   0.000 FEB:  -8.270
USER: RMSD 4.441523
USER: SEED 54
USER: STATUS searching
USER: GENES 29
USER: genes 0 Translation |==|  0.54659 0.44140 0.43536
USER: genes 1 Rotation |==|  0.70804 0.94340 0.43195 0.57407
USER: genes 2 Torsion [CB]-CA--N-[C] |==|  0.53924
USER: genes 3 Torsion [N]-C--CA-[N] |==|  0.97086
USER: genes 4 Torsion [C]-CA--N-[C] |==|  0.78869
USER: genes 5 Torsion [N]-C--CA-[N] |==|  0.34268
USER: genes 6 Torsion [C]-CA--CB-[CG] |==|  0.41949
USER: genes 7 Torsion [CA]-CB--CG-[CD] |==|  0.26014
USER: genes 8 Torsion [CB]-CG--CD-[NE] |==|  0.64029
USER: genes 9 Torsion [CG]-CD--NE-[CZ] |==|  0.65263
USER: genes 10 Torsion [C]-CA--CB-[CG] |==|  0.48078
USER: genes 11 Torsion [CA]-CB--CG-[CD] |==|  0.26827
USER: genes 12 Torsion [CB]-CG--CD-[OE1] |==|  0.75063
USER: genes 13 Torsion [N]-CA--CB-[CG] |==|  0.69752
USER: genes 14 Torsion [CA]-CB--CG-[CD2] |==|  0.25900
USER: genes 15 Torsion [N]-CA--C-[N] |==|  0.45057
USER: genes 16 Torsion [C]-N--CA-[CB] |==|  0.86109
USER: genes 17 Torsion [N]-CA--CB-[CG1] |==|  0.33885
USER: genes 18 Torsion [N]-CA--C-[N] |==|  0.35002
USER: genes 19 Torsion [C]-N--CA-[CB] |==|  0.16667
USER: genes 20 Torsion [N]-CA--CB-[CG] |==|  0.21636
USER: genes 21 Torsion [CA]-CB--CG-[CD1] |==|  0.43500
USER: genes 22 Torsion [N]-CA--C-[N] |==|  0.96768
USER: genes 23 Torsion [C]-N--CA-[C] |==|  0.73993
USER: genes 24 Torsion [N]-CA--C-[N] |==|  0.51345
USER: genes 25 Torsion [C]-N--CA-[CB] |==|  0.46192
USER: genes 26 Torsion [N]-CA--CB-[CG] |==|  0.73052
USER: genes 27 Torsion [CA]-CB--CG-[CD1] |==|  0.87029
USER: genes 28 Torsion [N]-CA--C-[O] |==|  0.05906
ROOT
ATOM      1  CA  LEU C  12       0.597   4.747  31.416  0.76 25.89 LIG 0.18  C 
ENDROOT
BRANCH 1 2
ATOM      2  N   LEU C  12       0.132   4.058  32.613  0.76 24.12 LIG-0.35  N 
ATOM      3 H    LEU C  12      -0.458   3.450  32.465  0.76 24.12 LIG 0.16  HD
ATOM      4  C   GLN C  11       0.595   4.361  33.822  0.76 26.11 LIG 0.24  C 
ATOM      5 O    GLN C  11       1.449   5.230  34.016  0.76 27.34 LIG-0.27  OA
BRANCH 4 6
ATOM      6  CA  GLN C  11      -0.007   3.576  34.985  0.76 26.16 LIG 0.18  C 
BRANCH 6 7
ATOM      7  N   GLN C  11      -1.173   2.777  34.631  0.76 28.86 LIG-0.35  N 
ATOM      8  C   ARG C  10      -2.378   3.301  34.433  0.76 30.48 LIG 0.26  C 
ATOM      9 O    ARG C  10      -2.609   4.511  34.500  0.76 24.30 LIG-0.27  OA
ATOM     10 H    GLN C  11      -1.009   1.936  34.563  0.76 28.86 LIG 0.16  HD
BRANCH 8 11
ATOM     11  CA  ARG C  10      -3.491   2.300  34.090  0.76 33.62 LIG 0.40  C 
ATOM     12  N   ARG C  10      -4.626   2.400  35.055  0.76 36.52 LIG 0.61  N 
BRANCH 11 13
ATOM     13  CB  ARG C  10      -3.987   2.574  32.671  0.76 36.98 LIG 0.05  C 
BRANCH 13 14
ATOM     14  CG  ARG C  10      -4.536   1.357  31.919  0.76 39.40 LIG 0.02  C 
BRANCH 14 15
ATOM     15  CD  ARG C  10      -6.047   1.219  32.067  0.76 42.42 LIG 0.14  C 
BRANCH 15 16
ATOM     16  NE  ARG C  10      -6.432  -0.129  32.482  0.76 44.78 LIG-0.23  N 
ATOM     17  CZ  ARG C  10      -7.296  -0.905  31.834  0.76 45.62 LIG 0.67  C 
ATOM     18  NH2 ARG C  10      -7.560  -2.123  32.289  0.76 46.43 LIG-0.23  N 
ATOM     19  NH1 ARG C  10      -7.887  -0.476  30.727  0.76 45.50 LIG-0.23  N 
ATOM     20 2HH2 ARG C  10      -8.118  -2.627  31.871  0.76 46.43 LIG 0.17  HD
ATOM     21 1HH2 ARG C  10      -7.172  -2.409  33.001  0.76 46.43 LIG 0.17  HD
ATOM     22 2HH1 ARG C  10      -8.445  -0.982  30.313  0.76 45.50 LIG 0.17  HD
ATOM     23 1HH1 ARG C  10      -7.711   0.310  30.423  0.76 45.50 LIG 0.17  HD
ATOM     24 HE   ARG C  10      -6.073  -0.443  33.197  0.76 44.78 LIG 0.18  HD
ENDBRANCH 15 16
ENDBRANCH 14 15
ENDBRANCH 13 14
ENDBRANCH 11 13
ENDBRANCH 8 11
ENDBRANCH 6 7
BRANCH 6 25
ATOM     25  CB  GLN C  11       1.074   2.671  35.581  0.76 25.68 LIG 0.04  C 
BRANCH 25 26
ATOM     26  CG  GLN C  11       0.649   1.959  36.851  0.76 22.66 LIG 0.10  C 
BRANCH 26 27
ATOM     27  CD  GLN C  11       0.160   0.560  36.574  0.76 24.13 LIG 0.21  C 
ATOM     28 OE1  GLN C  11      -1.032   0.346  36.331  0.76 19.83 LIG-0.27  OA
ATOM     29  NE2 GLN C  11       1.074  -0.406  36.608  0.76 21.86 LIG-0.37  N 
ATOM     30 21HE GLN C  11       1.895  -0.216  36.781  0.76 21.86 LIG 0.16  HD
ATOM     31 22HE GLN C  11       0.844  -1.220  36.455  0.76 21.86 LIG 0.16  HD
ENDBRANCH 26 27
ENDBRANCH 25 26
ENDBRANCH 6 25
ENDBRANCH 4 6
ENDBRANCH 1 2
BRANCH 1 32
ATOM     32  CB  LEU C  12      -0.337   4.453  30.237  0.76 24.07 LIG 0.04  C 
BRANCH 32 33
ATOM     33  CG  LEU C  12       0.232   3.543  29.140  0.76 21.16 LIG-0.02  C 
ATOM     34  CD1 LEU C  12       1.743   3.705  29.105  0.76 25.64 LIG 0.01  C 
ATOM     35  CD2 LEU C  12      -0.147   2.087  29.405  0.76 25.10 LIG 0.01  C 
ENDBRANCH 32 33
ENDBRANCH 1 32
BRANCH 1 36
ATOM     36  C   LEU C  12       0.616   6.246  31.728  0.76 25.30 LIG 0.24  C 
ATOM     37 O    LEU C  12      -0.018   6.691  32.690  0.76 25.87 LIG-0.27  OA
ATOM     38  N   VAL C  13       1.340   7.023  30.923  0.76 25.62 LIG-0.35  N 
ATOM     39 H    VAL C  13       1.772   6.740  30.235  0.76 25.62 LIG 0.16  HD
BRANCH 38 40
ATOM     40  CA  VAL C  13       1.448   8.459  31.167  0.76 24.99 LIG 0.18  C 
BRANCH 40 41
ATOM     41  CB  VAL C  13       0.053   9.100  31.375  0.76 27.65 LIG 0.01  C 
ATOM     42  CG1 VAL C  13      -0.011   9.786  32.735  0.76 28.12 LIG 0.01  C 
ATOM     43  CG2 VAL C  13      -0.230  10.099  30.269  0.76 27.69 LIG 0.01  C 
ENDBRANCH 40 41
BRANCH 40 44
ATOM     44  C   VAL C  13       2.322   8.840  32.358  0.76 25.58 LIG 0.24  C 
ATOM     45  N   LEU C  14       3.293   9.704  32.097  0.76 25.74 LIG-0.35  N 
ATOM     46 H    LEU C  14       3.442  10.040  31.320  0.76 25.74 LIG 0.16  HD
ATOM     47 O    VAL C  13       2.123   8.378  33.482  0.76 23.74 LIG-0.27  OA
BRANCH 45 48
ATOM     48  CA  LEU C  14       4.208  10.161  33.135  0.76 27.54 LIG 0.18  C 
BRANCH 48 49
ATOM     49  CB  LEU C  14       4.969   8.972  33.731  0.76 27.94 LIG 0.04  C 
BRANCH 49 50
ATOM     50  CG  LEU C  14       6.132   8.409  32.916  0.76 29.52 LIG-0.02  C 
ATOM     51  CD2 LEU C  14       5.595   7.475  31.834  0.76 29.01 LIG 0.01  C 
ATOM     52  CD1 LEU C  14       7.090   7.685  33.845  0.76 31.53 LIG 0.01  C 
ENDBRANCH 49 50
ENDBRANCH 48 49
BRANCH 48 53
ATOM     53  C   LEU C  14       5.226  11.169  32.623  0.76 27.94 LIG 0.24  C 
ATOM     54  N   GLY C  15       5.292  11.297  31.304  0.76 27.74 LIG-0.35  N 
ATOM     55 H    GLY C  15       4.829  10.836  30.745  0.76 27.74 LIG 0.16  HD
ATOM     56 O    LEU C  14       5.938  11.812  33.402  0.76 29.25 LIG-0.27  OA
BRANCH 54 57
ATOM     57  CA  GLY C  15       6.189  12.268  30.705  0.76 32.19 LIG 0.23  C 
BRANCH 57 58
ATOM     58  C   GLY C  15       5.375  13.534  30.486  0.76 34.72 LIG 0.24  C 
ATOM     59  N   LEU C  16       5.994  14.522  29.849  0.76 34.76 LIG-0.34  N 
ATOM     60 H    LEU C  16       6.799  14.466  29.553  0.76 34.76 LIG 0.16  HD
ATOM     61 O    GLY C  15       4.216  13.618  30.893  0.76 36.88 LIG-0.27  OA
BRANCH 59 62
ATOM     62  CA  LEU C  16       5.354  15.809  29.591  0.76 35.63 LIG 0.18  C 
BRANCH 62 63
ATOM     63  CB  LEU C  16       6.411  16.826  29.161  0.76 32.88 LIG 0.04  C 
BRANCH 63 64
ATOM     64  CG  LEU C  16       6.909  17.718  30.301  0.76 27.62 LIG-0.02  C 
ATOM     65  CD1 LEU C  16       5.733  18.253  31.104  0.76 29.42 LIG 0.01  C 
ATOM     66  CD2 LEU C  16       7.855  16.923  31.184  0.76 30.85 LIG 0.01  C 
ENDBRANCH 63 64
ENDBRANCH 62 63
BRANCH 62 67
ATOM     67  C   LEU C  16       4.236  15.750  28.559  0.76 36.84 LIG 0.20  C 
ATOM     68 O    LEU C  16       3.698  14.640  28.342  0.76 37.63 LIG-0.65  OA
ATOM     69 OXT  LEU C  16       3.913  16.810  27.983  0.76 38.60 LIG-0.65  OA
ENDBRANCH 62 67
ENDBRANCH 59 62
ENDBRANCH 57 58
ENDBRANCH 54 57
ENDBRANCH 48 53
ENDBRANCH 45 48
ENDBRANCH 40 44
ENDBRANCH 38 40
ENDBRANCH 1 36
TORSDOF 27
ENDMDL
MODEL 18
USER: ADFR SOLUTION from run 121
USER: SCORE 18.272784 LL:  -3.906 LR: -16.306 RR:   0.000 FEB:  -8.252
USER: RMSD 5.690842
USER: SEED 120
USER: STATUS no improvement in best in 15 clusters for 5 generations
USER: GENES 29
USER: genes 0 Translation |==|  0.55418 0.44212 0.42967
USER: genes 1 Rotation |==|  0.73066 0.93382 0.43448 0.56560
USER: genes 2 Torsion [CB]-CA--N-[C] |==|  0.56797
USER: genes 3 Torsion [N]-C--CA-[N] |==|  0.95584
USER: genes 4 Torsion [C]-CA--N-[C] |==|  0.69344
USER: genes 5 Torsion [N]-C--CA-[N] |==|  0.41304
USER: genes 6 Torsion [C]-CA--CB-[CG] |==|  0.36628
USER: genes 7 Torsion [CA]-CB--CG-[CD] |==|  0.17364
USER: genes 8 Torsion [CB]-CG--CD-[NE] |==|  0.32791
USER: genes 9 Torsion [CG]-CD--NE-[CZ] |==|  0.48009
USER: genes 10 Torsion [C]-CA--CB-[CG] |==|  0.46953
USER: genes 11 Torsion [CA]-CB--CG-[CD] |==|  0.27880
USER: genes 12 Torsion [CB]-CG--CD-[OE1] |==|  0.76049
USER: genes 13 Torsion [N]-CA--CB-[CG] |==|  0.69530
USER: genes 14 Torsion [CA]-CB--CG-[CD2] |==|  0.26630
USER: genes 15 Torsion [N]-CA--C-[N] |==|  0.30392
USER: genes 16 Torsion [C]-N--CA-[CB] |==|  0.16898
USER: genes 17 Torsion [N]-CA--CB-[CG1] |==|  0.21762
USER: genes 18 Torsion [N]-CA--C-[N] |==|  0.02433
USER: genes 19 Torsion [C]-N--CA-[CB] |==|  0.81661
USER: genes 20 Torsion [N]-CA--CB-[CG] |==|  0.58877
USER: genes 21 Torsion [CA]-CB--CG-[CD1] |==|  0.17863
USER: genes 22 Torsion [N]-CA--C-[N] |==|  0.51145
USER: genes 23 Torsion [C]-N--CA-[C] |==|  0.22977
USER: genes 24 Torsion [N]-CA--C-[N] |==|  0.62160
USER: genes 25 Torsion [C]-N--CA-[CB] |==|  0.35912
USER: genes 26 Torsion [N]-CA--CB-[CG] |==|  0.66358
USER: genes 27 Torsion [CA]-CB--CG-[CD1] |==|  0.87217
USER: genes 28 Torsion [N]-CA--C-[O] |==|  0.81261
ROOT
ATOM      1  CA  LEU C  12       0.824   4.766  31.323  0.76 25.89 LIG 0.18  C 
ENDROOT
BRANCH 1 2
ATOM      2  N   LEU C  12       0.301   4.089  32.502  0.76 24.12 LIG-0.35  N 
ATOM      3 H    LEU C  12      -0.247   3.450  32.328  0.76 24.12 LIG 0.16  HD
ATOM      4  C   GLN C  11       0.655   4.448  33.732  0.76 26.11 LIG 0.24  C 
ATOM      5 O    GLN C  11       1.449   5.364  33.963  0.76 27.34 LIG-0.27  OA
BRANCH 4 6
ATOM      6  CA  GLN C  11       0.001   3.668  34.871  0.76 26.16 LIG 0.18  C 
BRANCH 6 7
ATOM      7  N   GLN C  11      -1.173   2.900  34.476  0.76 28.86 LIG-0.35  N 
ATOM      8  C   ARG C  10      -2.406   3.213  34.858  0.76 30.48 LIG 0.26  C 
ATOM      9 O    ARG C  10      -2.670   4.199  35.552  0.76 24.30 LIG-0.27  OA
ATOM     10 H    GLN C  11      -0.993   2.225  33.974  0.76 28.86 LIG 0.16  HD
BRANCH 8 11
ATOM     11  CA  ARG C  10      -3.515   2.273  34.363  0.76 33.62 LIG 0.40  C 
ATOM     12  N   ARG C  10      -4.638   2.197  35.344  0.76 36.52 LIG 0.61  N 
BRANCH 11 13
ATOM     13  CB  ARG C  10      -4.032   2.779  33.017  0.76 36.98 LIG 0.05  C 
BRANCH 13 14
ATOM     14  CG  ARG C  10      -4.148   1.718  31.917  0.76 39.40 LIG 0.02  C 
BRANCH 14 15
ATOM     15  CD  ARG C  10      -5.145   0.622  32.274  0.76 42.42 LIG 0.14  C 
BRANCH 15 16
ATOM     16  NE  ARG C  10      -6.260   0.573  31.328  0.76 44.78 LIG-0.23  N 
ATOM     17  CZ  ARG C  10      -7.203  -0.365  31.314  0.76 45.62 LIG 0.67  C 
ATOM     18  NH2 ARG C  10      -8.183  -0.303  30.423  0.76 46.43 LIG-0.23  N 
ATOM     19  NH1 ARG C  10      -7.178  -1.356  32.195  0.76 45.50 LIG-0.23  N 
ATOM     20 2HH2 ARG C  10      -8.794  -0.909  30.412  0.76 46.43 LIG 0.17  HD
ATOM     21 1HH2 ARG C  10      -8.208   0.343  29.856  0.76 46.43 LIG 0.17  HD
ATOM     22 2HH1 ARG C  10      -7.790  -1.960  32.180  0.76 45.50 LIG 0.17  HD
ATOM     23 1HH1 ARG C  10      -6.550  -1.395  32.781  0.76 45.50 LIG 0.17  HD
ATOM     24 HE   ARG C  10      -6.310   1.197  30.739  0.76 44.78 LIG 0.18  HD
ENDBRANCH 15 16
ENDBRANCH 14 15
ENDBRANCH 13 14
ENDBRANCH 11 13
ENDBRANCH 8 11
ENDBRANCH 6 7
BRANCH 6 25
ATOM     25  CB  GLN C  11       1.044   2.733  35.489  0.76 25.68 LIG 0.04  C 
BRANCH 25 26
ATOM     26  CG  GLN C  11       0.602   2.095  36.792  0.76 22.66 LIG 0.10  C 
BRANCH 26 27
ATOM     27  CD  GLN C  11       0.124   0.680  36.591  0.76 24.13 LIG 0.21  C 
ATOM     28 OE1  GLN C  11      -1.049   0.450  36.278  0.76 19.83 LIG-0.27  OA
ATOM     29  NE2 GLN C  11       1.025  -0.282  36.767  0.76 21.86 LIG-0.37  N 
ATOM     30 21HE GLN C  11       1.832  -0.081  36.985  0.76 21.86 LIG 0.16  HD
ATOM     31 22HE GLN C  11       0.800  -1.106  36.663  0.76 21.86 LIG 0.16  HD
ENDBRANCH 26 27
ENDBRANCH 25 26
ENDBRANCH 6 25
ENDBRANCH 4 6
ENDBRANCH 1 2
BRANCH 1 32
ATOM     32  CB  LEU C  12      -0.142   4.604  30.143  0.76 24.07 LIG 0.04  C 
BRANCH 32 33
ATOM     33  CG  LEU C  12       0.335   3.692  29.005  0.76 21.16 LIG-0.02  C 
ATOM     34  CD1 LEU C  12       1.856   3.671  29.000  0.76 25.64 LIG 0.01  C 
ATOM     35  CD2 LEU C  12      -0.222   2.281  29.181  0.76 25.10 LIG 0.01  C 
ENDBRANCH 32 33
ENDBRANCH 1 32
BRANCH 1 36
ATOM     36  C   LEU C  12       0.994   6.246  31.680  0.76 25.30 LIG 0.24  C 
ATOM     37 O    LEU C  12       0.004   6.966  31.841  0.76 25.87 LIG-0.27  OA
ATOM     38  N   VAL C  13       2.241   6.699  31.804  0.76 25.62 LIG-0.35  N 
ATOM     39 H    VAL C  13       2.946   6.224  31.676  0.76 25.62 LIG 0.16  HD
BRANCH 38 40
ATOM     40  CA  VAL C  13       2.498   8.088  32.182  0.76 24.99 LIG 0.18  C 
BRANCH 40 41
ATOM     41  CB  VAL C  13       1.903   8.410  33.575  0.76 27.65 LIG 0.01  C 
ATOM     42  CG1 VAL C  13       2.809   7.861  34.671  0.76 28.12 LIG 0.01  C 
ATOM     43  CG2 VAL C  13       1.735   9.909  33.734  0.76 27.69 LIG 0.01  C 
ENDBRANCH 40 41
BRANCH 40 44
ATOM     44  C   VAL C  13       3.971   8.482  32.197  0.76 25.58 LIG 0.24  C 
ATOM     45  N   LEU C  14       4.807   7.583  31.697  0.76 25.74 LIG-0.35  N 
ATOM     46 H    LEU C  14       4.561   6.823  31.380  0.76 25.74 LIG 0.16  HD
ATOM     47 O    VAL C  13       4.347   9.570  32.637  0.76 23.74 LIG-0.27  OA
BRANCH 45 48
ATOM     48  CA  LEU C  14       6.243   7.819  31.644  0.76 27.54 LIG 0.18  C 
BRANCH 48 49
ATOM     49  CB  LEU C  14       6.555   8.969  30.680  0.76 27.94 LIG 0.04  C 
BRANCH 49 50
ATOM     50  CG  LEU C  14       7.881   8.903  29.923  0.76 29.52 LIG-0.02  C 
ATOM     51  CD2 LEU C  14       8.091  10.198  29.143  0.76 29.01 LIG 0.01  C 
ATOM     52  CD1 LEU C  14       7.869   7.697  28.999  0.76 31.53 LIG 0.01  C 
ENDBRANCH 49 50
ENDBRANCH 48 49
BRANCH 48 53
ATOM     53  C   LEU C  14       6.835   8.162  33.003  0.76 27.94 LIG 0.24  C 
ATOM     54  N   GLY C  15       8.124   8.472  33.005  0.76 27.74 LIG-0.35  N 
ATOM     55 H    GLY C  15       8.631   8.460  32.310  0.76 27.74 LIG 0.16  HD
ATOM     56 O    LEU C  14       6.142   8.141  34.027  0.76 29.25 LIG-0.27  OA
BRANCH 54 57
ATOM     57  CA  GLY C  15       8.782   8.868  34.237  0.76 32.19 LIG 0.23  C 
BRANCH 57 58
ATOM     58  C   GLY C  15       9.151   7.584  34.964  0.76 34.72 LIG 0.24  C 
ATOM     59  N   LEU C  16       8.909   7.563  36.270  0.76 34.76 LIG-0.34  N 
ATOM     60 H    LEU C  16       8.549   8.216  36.697  0.76 34.76 LIG 0.16  HD
ATOM     61 O    GLY C  15       9.654   6.637  34.358  0.76 36.88 LIG-0.27  OA
BRANCH 59 62
ATOM     62  CA  LEU C  16       9.236   6.413  37.108  0.76 35.63 LIG 0.18  C 
BRANCH 62 63
ATOM     63  CB  LEU C  16      10.034   6.881  38.325  0.76 32.88 LIG 0.04  C 
BRANCH 63 64
ATOM     64  CG  LEU C  16      11.415   6.233  38.443  0.76 27.62 LIG-0.02  C 
ATOM     65  CD1 LEU C  16      11.316   4.733  38.213  0.76 29.42 LIG 0.01  C 
ATOM     66  CD2 LEU C  16      12.359   6.876  37.441  0.76 30.85 LIG 0.01  C 
ENDBRANCH 63 64
ENDBRANCH 62 63
BRANCH 62 67
ATOM     67  C   LEU C  16       8.025   5.607  37.557  0.76 36.84 LIG 0.20  C 
ATOM     68 O    LEU C  16       7.224   6.149  38.353  0.76 37.63 LIG-0.65  OA
ATOM     69 OXT  LEU C  16       7.891   4.449  37.109  0.76 38.60 LIG-0.65  OA
ENDBRANCH 62 67
ENDBRANCH 59 62
ENDBRANCH 57 58
ENDBRANCH 54 57
ENDBRANCH 48 53
ENDBRANCH 45 48
ENDBRANCH 40 44
ENDBRANCH 38 40
ENDBRANCH 1 36
TORSDOF 27
ENDMDL
MODEL 19
USER: ADFR SOLUTION from run 4
USER: SCORE 16.864511 LL:  -4.674 LR: -16.278 RR:   0.000 FEB:  -8.224
USER: RMSD 5.798943
USER: SEED 490318
USER: STATUS no improvement in best in 21 clusters for 5 generations
USER: GENES 29
USER: genes 0 Translation |==|  0.53504 0.39877 0.37566
USER: genes 1 Rotation |==|  0.81877 0.84683 0.36100 0.59365
USER: genes 2 Torsion [CB]-CA--N-[C] |==|  0.09809
USER: genes 3 Torsion [N]-C--CA-[N] |==|  0.99426
USER: genes 4 Torsion [C]-CA--N-[C] |==|  0.65369
USER: genes 5 Torsion [N]-C--CA-[N] |==|  0.39122
USER: genes 6 Torsion [C]-CA--CB-[CG] |==|  0.91216
USER: genes 7 Torsion [CA]-CB--CG-[CD] |==|  0.79508
USER: genes 8 Torsion [CB]-CG--CD-[NE] |==|  0.45792
USER: genes 9 Torsion [CG]-CD--NE-[CZ] |==|  0.72274
USER: genes 10 Torsion [C]-CA--CB-[CG] |==|  0.37220
USER: genes 11 Torsion [CA]-CB--CG-[CD] |==|  0.83602
USER: genes 12 Torsion [CB]-CG--CD-[OE1] |==|  0.99937
USER: genes 13 Torsion [N]-CA--CB-[CG] |==|  0.64074
USER: genes 14 Torsion [CA]-CB--CG-[CD2] |==|  0.37447
USER: genes 15 Torsion [N]-CA--C-[N] |==|  0.92921
USER: genes 16 Torsion [C]-N--CA-[CB] |==|  0.42737
USER: genes 17 Torsion [N]-CA--CB-[CG1] |==|  0.13204
USER: genes 18 Torsion [N]-CA--C-[N] |==|  0.32992
USER: genes 19 Torsion [C]-N--CA-[CB] |==|  0.52958
USER: genes 20 Torsion [N]-CA--CB-[CG] |==|  0.83539
USER: genes 21 Torsion [CA]-CB--CG-[CD1] |==|  0.44153
USER: genes 22 Torsion [N]-CA--C-[N] |==|  0.34196
USER: genes 23 Torsion [C]-N--CA-[C] |==|  0.79286
USER: genes 24 Torsion [N]-CA--C-[N] |==|  0.93333
USER: genes 25 Torsion [C]-N--CA-[CB] |==|  0.45006
USER: genes 26 Torsion [N]-CA--CB-[CG] |==|  0.95070
USER: genes 27 Torsion [CA]-CB--CG-[CD1] |==|  0.30312
USER: genes 28 Torsion [N]-CA--C-[O] |==|  0.99872
ROOT
ATOM      1  CA  LEU C  12       0.250   3.596  30.431  0.76 25.89 LIG 0.18  C 
ENDROOT
BRANCH 1 2
ATOM      2  N   LEU C  12      -0.505   3.634  31.677  0.76 24.12 LIG-0.35  N 
ATOM      3 H    LEU C  12      -0.145   4.112  32.294  0.76 24.12 LIG 0.16  HD
ATOM      4  C   GLN C  11      -1.651   2.976  31.823  0.76 26.11 LIG 0.24  C 
ATOM      5 O    GLN C  11      -2.158   2.301  30.924  0.76 27.34 LIG-0.27  OA
BRANCH 4 6
ATOM      6  CA  GLN C  11      -2.314   3.085  33.194  0.76 26.16 LIG 0.18  C 
BRANCH 6 7
ATOM      7  N   GLN C  11      -1.559   3.865  34.167  0.76 28.86 LIG-0.35  N 
ATOM      8  C   ARG C  10      -1.199   3.391  35.354  0.76 30.48 LIG 0.26  C 
ATOM      9 O    ARG C  10      -1.442   2.239  35.726  0.76 24.30 LIG-0.27  OA
ATOM     10 H    GLN C  11      -1.370   4.660  33.901  0.76 28.86 LIG 0.16  HD
BRANCH 8 11
ATOM     11  CA  ARG C  10      -0.428   4.367  36.255  0.76 33.62 LIG 0.40  C 
ATOM     12  N   ARG C  10      -0.850   4.236  37.681  0.76 36.52 LIG 0.61  N 
BRANCH 11 13
ATOM     13  CB  ARG C  10       1.068   4.088  36.126  0.76 36.98 LIG 0.05  C 
BRANCH 13 14
ATOM     14  CG  ARG C  10       1.444   2.627  35.853  0.76 39.40 LIG 0.02  C 
BRANCH 14 15
ATOM     15  CD  ARG C  10       1.276   1.747  37.086  0.76 42.42 LIG 0.14  C 
BRANCH 15 16
ATOM     16  NE  ARG C  10       1.287   0.325  36.743  0.76 44.78 LIG-0.23  N 
ATOM     17  CZ  ARG C  10       0.202  -0.434  36.616  0.76 45.62 LIG 0.67  C 
ATOM     18  NH2 ARG C  10       0.325  -1.711  36.282  0.76 46.43 LIG-0.23  N 
ATOM     19  NH1 ARG C  10      -1.005   0.082  36.806  0.76 45.50 LIG-0.23  N 
ATOM     20 2HH2 ARG C  10      -0.376  -2.204  36.199  0.76 46.43 LIG 0.17  HD
ATOM     21 1HH2 ARG C  10       1.106  -2.048  36.149  0.76 46.43 LIG 0.17  HD
ATOM     22 2HH1 ARG C  10      -1.703  -0.414  36.723  0.76 45.50 LIG 0.17  HD
ATOM     23 1HH1 ARG C  10      -1.090   0.913  37.013  0.76 45.50 LIG 0.17  HD
ATOM     24 HE   ARG C  10       2.051  -0.048  36.614  0.76 44.78 LIG 0.18  HD
ENDBRANCH 15 16
ENDBRANCH 14 15
ENDBRANCH 13 14
ENDBRANCH 11 13
ENDBRANCH 8 11
ENDBRANCH 6 7
BRANCH 6 25
ATOM     25  CB  GLN C  11      -3.709   3.691  33.021  0.76 25.68 LIG 0.04  C 
BRANCH 25 26
ATOM     26  CG  GLN C  11      -4.796   2.962  33.788  0.76 22.66 LIG 0.10  C 
BRANCH 26 27
ATOM     27  CD  GLN C  11      -4.901   1.516  33.377  0.76 24.13 LIG 0.21  C 
ATOM     28 OE1  GLN C  11      -4.157   1.054  32.507  0.76 19.83 LIG-0.27  OA
ATOM     29  NE2 GLN C  11      -5.824   0.788  33.998  0.76 21.86 LIG-0.37  N 
ATOM     30 21HE GLN C  11      -6.324   1.147  34.599  0.76 21.86 LIG 0.16  HD
ATOM     31 22HE GLN C  11      -5.922  -0.043  33.799  0.76 21.86 LIG 0.16  HD
ENDBRANCH 26 27
ENDBRANCH 25 26
ENDBRANCH 6 25
ENDBRANCH 4 6
ENDBRANCH 1 2
BRANCH 1 32
ATOM     32  CB  LEU C  12      -0.704   3.544  29.232  0.76 24.07 LIG 0.04  C 
BRANCH 32 33
ATOM     33  CG  LEU C  12      -0.429   2.442  28.202  0.76 21.16 LIG-0.02  C 
ATOM     34  CD1 LEU C  12       0.555   1.448  28.799  0.76 25.64 LIG 0.01  C 
ATOM     35  CD2 LEU C  12      -1.728   1.743  27.807  0.76 25.10 LIG 0.01  C 
ENDBRANCH 32 33
ENDBRANCH 1 32
BRANCH 1 36
ATOM     36  C   LEU C  12       1.114   4.859  30.379  0.76 25.30 LIG 0.24  C 
ATOM     37 O    LEU C  12       2.157   4.874  29.717  0.76 25.87 LIG-0.27  OA
ATOM     38  N   VAL C  13       0.686   5.915  31.070  0.76 25.62 LIG-0.35  N 
ATOM     39 H    VAL C  13      -0.024   5.922  31.555  0.76 25.62 LIG 0.16  HD
BRANCH 38 40
ATOM     40  CA  VAL C  13       1.426   7.175  31.046  0.76 24.99 LIG 0.18  C 
BRANCH 40 41
ATOM     41  CB  VAL C  13       0.494   8.379  31.330  0.76 27.65 LIG 0.01  C 
ATOM     42  CG1 VAL C  13      -0.379   8.090  32.545  0.76 28.12 LIG 0.01  C 
ATOM     43  CG2 VAL C  13       1.317   9.632  31.560  0.76 27.69 LIG 0.01  C 
ENDBRANCH 40 41
BRANCH 40 44
ATOM     44  C   VAL C  13       2.596   7.247  32.022  0.76 25.58 LIG 0.24  C 
ATOM     45  N   LEU C  14       3.789   7.420  31.468  0.76 25.74 LIG-0.35  N 
ATOM     46 H    LEU C  14       3.920   7.489  30.622  0.76 25.74 LIG 0.16  HD
ATOM     47 O    VAL C  13       2.432   7.159  33.239  0.76 23.74 LIG-0.27  OA
BRANCH 45 48
ATOM     48  CA  LEU C  14       5.000   7.508  32.274  0.76 27.54 LIG 0.18  C 
BRANCH 48 49
ATOM     49  CB  LEU C  14       6.178   7.967  31.409  0.76 27.94 LIG 0.04  C 
BRANCH 49 50
ATOM     50  CG  LEU C  14       6.544   7.093  30.210  0.76 29.52 LIG-0.02  C 
ATOM     51  CD2 LEU C  14       7.344   5.882  30.683  0.76 29.01 LIG 0.01  C 
ATOM     52  CD1 LEU C  14       7.333   7.921  29.211  0.76 31.53 LIG 0.01  C 
ENDBRANCH 49 50
ENDBRANCH 48 49
BRANCH 48 53
ATOM     53  C   LEU C  14       4.862   8.471  33.443  0.76 27.94 LIG 0.24  C 
ATOM     54  N   GLY C  15       5.093   7.955  34.642  0.76 27.74 LIG-0.35  N 
ATOM     55 H    GLY C  15       5.280   7.128  34.790  0.76 27.74 LIG 0.16  HD
ATOM     56 O    LEU C  14       4.547   9.653  33.264  0.76 29.25 LIG-0.27  OA
BRANCH 54 57
ATOM     57  CA  GLY C  15       5.043   8.793  35.825  0.76 32.19 LIG 0.23  C 
BRANCH 57 58
ATOM     58  C   GLY C  15       6.310   9.634  35.816  0.76 34.72 LIG 0.24  C 
ATOM     59  N   LEU C  16       7.336   9.134  35.136  0.76 34.76 LIG-0.34  N 
ATOM     60 H    LEU C  16       7.304   8.392  34.705  0.76 34.76 LIG 0.16  HD
ATOM     61 O    GLY C  15       6.360  10.707  36.418  0.76 36.88 LIG-0.27  OA
BRANCH 59 62
ATOM     62  CA  LEU C  16       8.628   9.811  35.060  0.76 35.63 LIG 0.18  C 
BRANCH 62 63
ATOM     63  CB  LEU C  16       9.698   8.815  34.612  0.76 32.88 LIG 0.04  C 
BRANCH 63 64
ATOM     64  CG  LEU C  16       9.285   7.350  34.775  0.76 27.62 LIG-0.02  C 
ATOM     65  CD1 LEU C  16       9.040   6.717  33.415  0.76 29.42 LIG 0.01  C 
ATOM     66  CD2 LEU C  16      10.367   6.605  35.537  0.76 30.85 LIG 0.01  C 
ENDBRANCH 63 64
ENDBRANCH 62 63
BRANCH 62 67
ATOM     67  C   LEU C  16       8.637  11.031  34.149  0.76 36.84 LIG 0.20  C 
ATOM     68 O    LEU C  16       7.572  11.329  33.560  0.76 37.63 LIG-0.65  OA
ATOM     69 OXT  LEU C  16       9.704  11.671  34.037  0.76 38.60 LIG-0.65  OA
ENDBRANCH 62 67
ENDBRANCH 59 62
ENDBRANCH 57 58
ENDBRANCH 54 57
ENDBRANCH 48 53
ENDBRANCH 45 48
ENDBRANCH 40 44
ENDBRANCH 38 40
ENDBRANCH 1 36
TORSDOF 27
ENDMDL
MODEL 20
USER: ADFR SOLUTION from run 62
USER: SCORE 18.122903 LL:  -4.367 LR: -16.240 RR:   0.000 FEB:  -8.186
USER: RMSD 15.371014
USER: SEED 61
USER: STATUS no improvement in best in 21 clusters for 5 generations
USER: GENES 29
USER: genes 0 Translation |==|  0.51661 0.43772 0.39776
USER: genes 1 Rotation |==|  0.82493 0.15400 0.65653 0.51427
USER: genes 2 Torsion [CB]-CA--N-[C] |==|  0.16193
USER: genes 3 Torsion [N]-C--CA-[N] |==|  0.47726
USER: genes 4 Torsion [C]-CA--N-[C] |==|  0.63853
USER: genes 5 Torsion [N]-C--CA-[N] |==|  0.44887
USER: genes 6 Torsion [C]-CA--CB-[CG] |==|  0.29948
USER: genes 7 Torsion [CA]-CB--CG-[CD] |==|  0.32594
USER: genes 8 Torsion [CB]-CG--CD-[NE] |==|  0.67193
USER: genes 9 Torsion [CG]-CD--NE-[CZ] |==|  0.21534
USER: genes 10 Torsion [C]-CA--CB-[CG] |==|  0.80919
USER: genes 11 Torsion [CA]-CB--CG-[CD] |==|  0.66258
USER: genes 12 Torsion [CB]-CG--CD-[OE1] |==|  0.73332
USER: genes 13 Torsion [N]-CA--CB-[CG] |==|  0.63778
USER: genes 14 Torsion [CA]-CB--CG-[CD2] |==|  0.64500
USER: genes 15 Torsion [N]-CA--C-[N] |==|  0.70291
USER: genes 16 Torsion [C]-N--CA-[CB] |==|  0.77391
USER: genes 17 Torsion [N]-CA--CB-[CG1] |==|  0.53014
USER: genes 18 Torsion [N]-CA--C-[N] |==|  0.21230
USER: genes 19 Torsion [C]-N--CA-[CB] |==|  0.39674
USER: genes 20 Torsion [N]-CA--CB-[CG] |==|  0.84269
USER: genes 21 Torsion [CA]-CB--CG-[CD1] |==|  0.92659
USER: genes 22 Torsion [N]-CA--C-[N] |==|  0.93250
USER: genes 23 Torsion [C]-N--CA-[C] |==|  0.23468
USER: genes 24 Torsion [N]-CA--C-[N] |==|  0.51123
USER: genes 25 Torsion [C]-N--CA-[CB] |==|  0.28643
USER: genes 26 Torsion [N]-CA--CB-[CG] |==|  0.64359
USER: genes 27 Torsion [CA]-CB--CG-[CD1] |==|  0.73664
USER: genes 28 Torsion [N]-CA--C-[O] |==|  0.99675
ROOT
ATOM      1  CA  LEU C  12      -0.303   4.647  30.796  0.76 25.89 LIG 0.18  C 
ENDROOT
BRANCH 1 2
ATOM      2  N   LEU C  12       0.311   5.687  31.612  0.76 24.12 LIG-0.35  N 
ATOM      3 H    LEU C  12      -0.128   5.882  32.325  0.76 24.12 LIG 0.16  HD
ATOM      4  C   GLN C  11       1.452   6.272  31.261  0.76 26.11 LIG 0.24  C 
ATOM      5 O    GLN C  11       2.073   5.974  30.238  0.76 27.34 LIG-0.27  OA
BRANCH 4 6
ATOM      6  CA  GLN C  11       1.959   7.366  32.198  0.76 26.16 LIG 0.18  C 
BRANCH 6 7
ATOM      7  N   GLN C  11       3.298   7.851  31.887  0.76 28.86 LIG-0.35  N 
ATOM      8  C   ARG C  10       4.260   7.955  32.796  0.76 30.48 LIG 0.26  C 
ATOM      9 O    ARG C  10       4.117   7.622  33.976  0.76 24.30 LIG-0.27  OA
ATOM     10 H    GLN C  11       3.407   8.062  31.061  0.76 28.86 LIG 0.16  HD
BRANCH 8 11
ATOM     11  CA  ARG C  10       5.600   8.508  32.287  0.76 33.62 LIG 0.40  C 
ATOM     12  N   ARG C  10       6.448   8.998  33.414  0.76 36.52 LIG 0.61  N 
BRANCH 11 13
ATOM     13  CB  ARG C  10       6.334   7.408  31.522  0.76 36.98 LIG 0.05  C 
BRANCH 13 14
ATOM     14  CG  ARG C  10       6.387   7.587  30.001  0.76 39.40 LIG 0.02  C 
BRANCH 14 15
ATOM     15  CD  ARG C  10       7.814   7.740  29.486  0.76 42.42 LIG 0.14  C 
BRANCH 15 16
ATOM     16  NE  ARG C  10       8.022   9.037  28.842  0.76 44.78 LIG-0.23  N 
ATOM     17  CZ  ARG C  10       8.199  10.185  29.489  0.76 45.62 LIG 0.67  C 
ATOM     18  NH2 ARG C  10       8.400  11.304  28.806  0.76 46.43 LIG-0.23  N 
ATOM     19  NH1 ARG C  10       8.191  10.219  30.815  0.76 45.50 LIG-0.23  N 
ATOM     20 2HH2 ARG C  10       8.515  12.048  29.222  0.76 46.43 LIG 0.17  HD
ATOM     21 1HH2 ARG C  10       8.415  11.286  27.945  0.76 46.43 LIG 0.17  HD
ATOM     22 2HH1 ARG C  10       8.306  10.965  31.228  0.76 45.50 LIG 0.17  HD
ATOM     23 1HH1 ARG C  10       8.071   9.494  31.263  0.76 45.50 LIG 0.17  HD
ATOM     24 HE   ARG C  10       8.031   9.058  27.983  0.76 44.78 LIG 0.18  HD
ENDBRANCH 15 16
ENDBRANCH 14 15
ENDBRANCH 13 14
ENDBRANCH 11 13
ENDBRANCH 8 11
ENDBRANCH 6 7
BRANCH 6 25
ATOM     25  CB  GLN C  11       0.971   8.534  32.172  0.76 25.68 LIG 0.04  C 
BRANCH 25 26
ATOM     26  CG  GLN C  11       0.942   9.286  30.854  0.76 22.66 LIG 0.10  C 
BRANCH 26 27
ATOM     27  CD  GLN C  11       1.276  10.745  31.033  0.76 24.13 LIG 0.21  C 
ATOM     28 OE1  GLN C  11       0.378  11.587  31.144  0.76 19.83 LIG-0.27  OA
ATOM     29  NE2 GLN C  11       2.567  11.059  31.064  0.76 21.86 LIG-0.37  N 
ATOM     30 21HE GLN C  11       3.162  10.444  30.983  0.76 21.86 LIG 0.16  HD
ATOM     31 22HE GLN C  11       2.808  11.879  31.164  0.76 21.86 LIG 0.16  HD
ENDBRANCH 26 27
ENDBRANCH 25 26
ENDBRANCH 6 25
ENDBRANCH 4 6
ENDBRANCH 1 2
BRANCH 1 32
ATOM     32  CB  LEU C  12       0.665   3.472  30.617  0.76 24.07 LIG 0.04  C 
BRANCH 32 33
ATOM     33  CG  LEU C  12       0.866   2.980  29.178  0.76 21.16 LIG-0.02  C 
ATOM     34  CD1 LEU C  12       2.276   3.335  28.732  0.76 25.64 LIG 0.01  C 
ATOM     35  CD2 LEU C  12       0.638   1.473  29.091  0.76 25.10 LIG 0.01  C 
ENDBRANCH 32 33
ENDBRANCH 1 32
BRANCH 1 36
ATOM     36  C   LEU C  12      -1.577   4.193  31.514  0.76 25.30 LIG 0.24  C 
ATOM     37 O    LEU C  12      -2.575   4.920  31.532  0.76 25.87 LIG-0.27  OA
ATOM     38  N   VAL C  13      -1.547   2.998  32.101  0.76 25.62 LIG-0.35  N 
ATOM     39 H    VAL C  13      -0.858   2.483  32.121  0.76 25.62 LIG 0.16  HD
BRANCH 38 40
ATOM     40  CA  VAL C  13      -2.730   2.466  32.776  0.76 24.99 LIG 0.18  C 
BRANCH 40 41
ATOM     41  CB  VAL C  13      -2.873   3.050  34.202  0.76 27.65 LIG 0.01  C 
ATOM     42  CG1 VAL C  13      -3.945   2.289  34.975  0.76 28.12 LIG 0.01  C 
ATOM     43  CG2 VAL C  13      -1.545   2.974  34.932  0.76 27.69 LIG 0.01  C 
ENDBRANCH 40 41
BRANCH 40 44
ATOM     44  C   VAL C  13      -4.044   2.699  32.038  0.76 25.58 LIG 0.24  C 
ATOM     45  N   LEU C  14      -4.261   1.908  30.996  0.76 25.74 LIG-0.35  N 
ATOM     46 H    LEU C  14      -3.715   1.298  30.734  0.76 25.74 LIG 0.16  HD
ATOM     47 O    VAL C  13      -4.847   3.560  32.400  0.76 23.74 LIG-0.27  OA
BRANCH 45 48
ATOM     48  CA  LEU C  14      -5.473   2.014  30.195  0.76 27.54 LIG 0.18  C 
BRANCH 48 49
ATOM     49  CB  LEU C  14      -5.153   1.773  28.716  0.76 27.94 LIG 0.04  C 
BRANCH 49 50
ATOM     50  CG  LEU C  14      -4.097   2.674  28.077  0.76 29.52 LIG-0.02  C 
ATOM     51  CD2 LEU C  14      -2.740   1.976  28.108  0.76 29.01 LIG 0.01  C 
ATOM     52  CD1 LEU C  14      -4.054   3.999  28.819  0.76 31.53 LIG 0.01  C 
ENDBRANCH 49 50
ENDBRANCH 48 49
BRANCH 48 53
ATOM     53  C   LEU C  14      -6.548   1.024  30.617  0.76 27.94 LIG 0.24  C 
ATOM     54  N   GLY C  15      -6.113  -0.065  31.238  0.76 27.74 LIG-0.35  N 
ATOM     55 H    GLY C  15      -5.285  -0.247  31.381  0.76 27.74 LIG 0.16  HD
ATOM     56 O    LEU C  14      -7.743   1.237  30.382  0.76 29.25 LIG-0.27  OA
BRANCH 54 57
ATOM     57  CA  GLY C  15      -7.053  -1.053  31.733  0.76 32.19 LIG 0.23  C 
BRANCH 57 58
ATOM     58  C   GLY C  15      -7.376  -1.969  30.563  0.76 34.72 LIG 0.24  C 
ATOM     59  N   LEU C  16      -8.294  -2.903  30.790  0.76 34.76 LIG-0.34  N 
ATOM     60 H    LEU C  16      -8.707  -2.991  31.539  0.76 34.76 LIG 0.16  HD
ATOM     61 O    GLY C  15      -6.801  -1.840  29.482  0.76 36.88 LIG-0.27  OA
BRANCH 59 62
ATOM     62  CA  LEU C  16      -8.689  -3.875  29.775  0.76 35.63 LIG 0.18  C 
BRANCH 62 63
ATOM     63  CB  LEU C  16      -8.037  -5.223  30.080  0.76 32.88 LIG 0.04  C 
BRANCH 63 64
ATOM     64  CG  LEU C  16      -7.283  -5.827  28.892  0.76 27.62 LIG-0.02  C 
ATOM     65  CD1 LEU C  16      -8.179  -6.796  28.137  0.76 29.42 LIG 0.01  C 
ATOM     66  CD2 LEU C  16      -6.801  -4.709  27.983  0.76 30.85 LIG 0.01  C 
ENDBRANCH 63 64
ENDBRANCH 62 63
BRANCH 62 67
ATOM     67  C   LEU C  16     -10.195  -4.045  29.630  0.76 36.84 LIG 0.20  C 
ATOM     68 O    LEU C  16     -10.935  -3.374  30.387  0.76 37.63 LIG-0.65  OA
ATOM     69 OXT  LEU C  16     -10.616  -4.843  28.766  0.76 38.60 LIG-0.65  OA
ENDBRANCH 62 67
ENDBRANCH 59 62
ENDBRANCH 57 58
ENDBRANCH 54 57
ENDBRANCH 48 53
ENDBRANCH 45 48
ENDBRANCH 40 44
ENDBRANCH 38 40
ENDBRANCH 1 36
TORSDOF 27
ENDMDL
MODEL 21
USER: ADFR SOLUTION from run 36
USER: SCORE 18.930027 LL:  -4.232 LR: -16.228 RR:   0.000 FEB:  -8.174
USER: RMSD 5.385519
USER: SEED 35
USER: STATUS no improvement in best in 18 clusters for 5 generations
USER: GENES 29
USER: genes 0 Translation |==|  0.56225 0.44590 0.42182
USER: genes 1 Rotation |==|  0.73467 0.93135 0.47209 0.58994
USER: genes 2 Torsion [CB]-CA--N-[C] |==|  0.86267
USER: genes 3 Torsion [N]-C--CA-[N] |==|  0.05216
USER: genes 4 Torsion [C]-CA--N-[C] |==|  0.17548
USER: genes 5 Torsion [N]-C--CA-[N] |==|  0.60668
USER: genes 6 Torsion [C]-CA--CB-[CG] |==|  0.82187
USER: genes 7 Torsion [CA]-CB--CG-[CD] |==|  0.57179
USER: genes 8 Torsion [CB]-CG--CD-[NE] |==|  0.94601
USER: genes 9 Torsion [CG]-CD--NE-[CZ] |==|  0.61595
USER: genes 10 Torsion [C]-CA--CB-[CG] |==|  0.47106
USER: genes 11 Torsion [CA]-CB--CG-[CD] |==|  0.82699
USER: genes 12 Torsion [CB]-CG--CD-[OE1] |==|  0.07518
USER: genes 13 Torsion [N]-CA--CB-[CG] |==|  0.75029
USER: genes 14 Torsion [CA]-CB--CG-[CD2] |==|  0.19524
USER: genes 15 Torsion [N]-CA--C-[N] |==|  0.33116
USER: genes 16 Torsion [C]-N--CA-[CB] |==|  0.17842
USER: genes 17 Torsion [N]-CA--CB-[CG1] |==|  0.14340
USER: genes 18 Torsion [N]-CA--C-[N] |==|  0.89998
USER: genes 19 Torsion [C]-N--CA-[CB] |==|  0.84290
USER: genes 20 Torsion [N]-CA--CB-[CG] |==|  0.67852
USER: genes 21 Torsion [CA]-CB--CG-[CD1] |==|  0.13831
USER: genes 22 Torsion [N]-CA--C-[N] |==|  0.38996
USER: genes 23 Torsion [C]-N--CA-[C] |==|  0.72864
USER: genes 24 Torsion [N]-CA--C-[N] |==|  0.48796
USER: genes 25 Torsion [C]-N--CA-[CB] |==|  0.21931
USER: genes 26 Torsion [N]-CA--CB-[CG] |==|  0.64770
USER: genes 27 Torsion [CA]-CB--CG-[CD1] |==|  0.51322
USER: genes 28 Torsion [N]-CA--C-[O] |==|  0.58152
ROOT
ATOM      1  CA  LEU C  12       1.067   4.868  31.193  0.76 25.89 LIG 0.18  C 
ENDROOT
BRANCH 1 2
ATOM      2  N   LEU C  12       0.380   4.087  32.213  0.76 24.12 LIG-0.35  N 
ATOM      3 H    LEU C  12       0.887   3.541  32.641  0.76 24.12 LIG 0.16  HD
ATOM      4  C   GLN C  11      -0.922   4.225  32.444  0.76 26.11 LIG 0.24  C 
ATOM      5 O    GLN C  11      -1.634   5.021  31.826  0.76 27.34 LIG-0.27  OA
BRANCH 4 6
ATOM      6  CA  GLN C  11      -1.510   3.318  33.523  0.76 26.16 LIG 0.18  C 
BRANCH 6 7
ATOM      7  N   GLN C  11      -0.524   2.749  34.433  0.76 28.86 LIG-0.35  N 
ATOM      8  C   ARG C  10       0.228   3.488  35.240  0.76 30.48 LIG 0.26  C 
ATOM      9 O    ARG C  10       0.138   4.717  35.314  0.76 24.30 LIG-0.27  OA
ATOM     10 H    GLN C  11      -0.475   1.891  34.399  0.76 28.86 LIG 0.16  HD
BRANCH 8 11
ATOM     11  CA  ARG C  10       1.229   2.715  36.111  0.76 33.62 LIG 0.40  C 
ATOM     12  N   ARG C  10       1.330   3.308  37.477  0.76 36.52 LIG 0.61  N 
BRANCH 11 13
ATOM     13  CB  ARG C  10       0.783   1.257  36.206  0.76 36.98 LIG 0.05  C 
BRANCH 13 14
ATOM     14  CG  ARG C  10      -0.558   1.024  36.911  0.76 39.40 LIG 0.02  C 
BRANCH 14 15
ATOM     15  CD  ARG C  10      -0.655  -0.368  37.526  0.76 42.42 LIG 0.14  C 
BRANCH 15 16
ATOM     16  NE  ARG C  10       0.314  -1.291  36.934  0.76 44.78 LIG-0.23  N 
ATOM     17  CZ  ARG C  10       0.056  -2.554  36.608  0.76 45.62 LIG 0.67  C 
ATOM     18  NH2 ARG C  10       1.004  -3.300  36.057  0.76 46.43 LIG-0.23  N 
ATOM     19  NH1 ARG C  10      -1.147  -3.070  36.816  0.76 45.50 LIG-0.23  N 
ATOM     20 2HH2 ARG C  10       0.840  -4.118  35.846  0.76 46.43 LIG 0.17  HD
ATOM     21 1HH2 ARG C  10       1.784  -2.967  35.912  0.76 46.43 LIG 0.17  HD
ATOM     22 2HH1 ARG C  10      -1.308  -3.889  36.603  0.76 45.50 LIG 0.17  HD
ATOM     23 1HH1 ARG C  10      -1.769  -2.587  37.164  0.76 45.50 LIG 0.17  HD
ATOM     24 HE   ARG C  10       1.107  -0.995  36.786  0.76 44.78 LIG 0.18  HD
ENDBRANCH 15 16
ENDBRANCH 14 15
ENDBRANCH 13 14
ENDBRANCH 11 13
ENDBRANCH 8 11
ENDBRANCH 6 7
BRANCH 6 25
ATOM     25  CB  GLN C  11      -2.549   4.110  34.321  0.76 25.68 LIG 0.04  C 
BRANCH 25 26
ATOM     26  CG  GLN C  11      -3.385   3.259  35.257  0.76 22.66 LIG 0.10  C 
BRANCH 26 27
ATOM     27  CD  GLN C  11      -4.200   2.235  34.509  0.76 24.13 LIG 0.21  C 
ATOM     28 OE1  GLN C  11      -3.820   1.806  33.415  0.76 19.83 LIG-0.27  OA
ATOM     29  NE2 GLN C  11      -5.327   1.834  35.090  0.76 21.86 LIG-0.37  N 
ATOM     30 21HE GLN C  11      -5.557   2.158  35.853  0.76 21.86 LIG 0.16  HD
ATOM     31 22HE GLN C  11      -5.826   1.251  34.702  0.76 21.86 LIG 0.16  HD
ENDBRANCH 26 27
ENDBRANCH 25 26
ENDBRANCH 6 25
ENDBRANCH 4 6
ENDBRANCH 1 2
BRANCH 1 32
ATOM     32  CB  LEU C  12       0.300   4.802  29.867  0.76 24.07 LIG 0.04  C 
BRANCH 32 33
ATOM     33  CG  LEU C  12       0.689   3.657  28.923  0.76 21.16 LIG-0.02  C 
ATOM     34  CD1 LEU C  12       2.198   3.666  28.737  0.76 25.64 LIG 0.01  C 
ATOM     35  CD2 LEU C  12       0.225   2.317  29.489  0.76 25.10 LIG 0.01  C 
ENDBRANCH 32 33
ENDBRANCH 1 32
BRANCH 1 36
ATOM     36  C   LEU C  12       1.148   6.312  31.697  0.76 25.30 LIG 0.24  C 
ATOM     37 O    LEU C  12       0.117   6.949  31.933  0.76 25.87 LIG-0.27  OA
ATOM     38  N   VAL C  13       2.365   6.828  31.863  0.76 25.62 LIG-0.35  N 
ATOM     39 H    VAL C  13       3.097   6.412  31.685  0.76 25.62 LIG 0.16  HD
BRANCH 38 40
ATOM     40  CA  VAL C  13       2.540   8.185  32.377  0.76 24.99 LIG 0.18  C 
BRANCH 40 41
ATOM     41  CB  VAL C  13       2.015   8.306  33.829  0.76 27.65 LIG 0.01  C 
ATOM     42  CG1 VAL C  13       2.622   7.211  34.699  0.76 28.12 LIG 0.01  C 
ATOM     43  CG2 VAL C  13       2.355   9.673  34.393  0.76 27.69 LIG 0.01  C 
ENDBRANCH 40 41
BRANCH 40 44
ATOM     44  C   VAL C  13       3.976   8.697  32.352  0.76 25.58 LIG 0.24  C 
ATOM     45  N   LEU C  14       4.908   7.790  32.606  0.76 25.74 LIG-0.35  N 
ATOM     46 H    LEU C  14       4.741   6.964  32.776  0.76 25.74 LIG 0.16  HD
ATOM     47 O    VAL C  13       4.240   9.873  32.101  0.76 23.74 LIG-0.27  OA
BRANCH 45 48
ATOM     48  CA  LEU C  14       6.325   8.131  32.617  0.76 27.54 LIG 0.18  C 
BRANCH 48 49
ATOM     49  CB  LEU C  14       6.729   8.751  31.275  0.76 27.94 LIG 0.04  C 
BRANCH 49 50
ATOM     50  CG  LEU C  14       7.739   7.979  30.427  0.76 29.52 LIG-0.02  C 
ATOM     51  CD2 LEU C  14       7.869   8.638  29.057  0.76 29.01 LIG 0.01  C 
ATOM     52  CD1 LEU C  14       7.288   6.534  30.304  0.76 31.53 LIG 0.01  C 
ENDBRANCH 49 50
ENDBRANCH 48 49
BRANCH 48 53
ATOM     53  C   LEU C  14       6.688   9.110  33.723  0.76 27.94 LIG 0.24  C 
ATOM     54  N   GLY C  15       7.841   8.880  34.337  0.76 27.74 LIG-0.35  N 
ATOM     55 H    GLY C  15       8.359   8.214  34.169  0.76 27.74 LIG 0.16  HD
ATOM     56 O    LEU C  14       5.938  10.047  34.020  0.76 29.25 LIG-0.27  OA
BRANCH 54 57
ATOM     57  CA  GLY C  15       8.314   9.780  35.372  0.76 32.19 LIG 0.23  C 
BRANCH 57 58
ATOM     58  C   GLY C  15       9.302  10.725  34.708  0.76 34.72 LIG 0.24  C 
ATOM     59  N   LEU C  16       9.788  11.695  35.476  0.76 34.76 LIG-0.34  N 
ATOM     60 H    LEU C  16       9.584  11.790  36.305  0.76 34.76 LIG 0.16  HD
ATOM     61 O    GLY C  15       9.610  10.587  33.524  0.76 36.88 LIG-0.27  OA
BRANCH 59 62
ATOM     62  CA  LEU C  16      10.722  12.697  34.973  0.76 35.63 LIG 0.18  C 
BRANCH 62 63
ATOM     63  CB  LEU C  16       9.954  13.760  34.186  0.76 32.88 LIG 0.04  C 
BRANCH 63 64
ATOM     64  CG  LEU C  16      10.499  13.996  32.775  0.76 27.62 LIG-0.02  C 
ATOM     65  CD1 LEU C  16       9.757  15.143  32.108  0.76 29.42 LIG 0.01  C 
ATOM     66  CD2 LEU C  16      11.989  14.283  32.854  0.76 30.85 LIG 0.01  C 
ENDBRANCH 63 64
ENDBRANCH 62 63
BRANCH 62 67
ATOM     67  C   LEU C  16      11.566  13.358  36.054  0.76 36.84 LIG 0.20  C 
ATOM     68 O    LEU C  16      11.949  14.535  35.859  0.76 37.63 LIG-0.65  OA
ATOM     69 OXT  LEU C  16      11.833  12.695  37.078  0.76 38.60 LIG-0.65  OA
ENDBRANCH 62 67
ENDBRANCH 59 62
ENDBRANCH 57 58
ENDBRANCH 54 57
ENDBRANCH 48 53
ENDBRANCH 45 48
ENDBRANCH 40 44
ENDBRANCH 38 40
ENDBRANCH 1 36
TORSDOF 27
ENDMDL
MODEL 22
USER: ADFR SOLUTION from run 134
USER: SCORE 18.869002 LL:  -4.828 LR: -16.193 RR:   0.000 FEB:  -8.139
USER: RMSD 2.046690
USER: SEED 133
USER: STATUS 1 or 2 clusters left
USER: GENES 29
USER: genes 0 Translation |==|  0.52535 0.43244 0.60422
USER: genes 1 Rotation |==|  0.56985 0.52319 0.56771 0.98990
USER: genes 2 Torsion [CB]-CA--N-[C] |==|  0.46108
USER: genes 3 Torsion [N]-C--CA-[N] |==|  0.38743
USER: genes 4 Torsion [C]-CA--N-[C] |==|  0.82843
USER: genes 5 Torsion [N]-C--CA-[N] |==|  0.07542
USER: genes 6 Torsion [C]-CA--CB-[CG] |==|  0.28093
USER: genes 7 Torsion [CA]-CB--CG-[CD] |==|  0.32808
USER: genes 8 Torsion [CB]-CG--CD-[NE] |==|  0.38448
USER: genes 9 Torsion [CG]-CD--NE-[CZ] |==|  0.73389
USER: genes 10 Torsion [C]-CA--CB-[CG] |==|  0.11970
USER: genes 11 Torsion [CA]-CB--CG-[CD] |==|  0.24679
USER: genes 12 Torsion [CB]-CG--CD-[OE1] |==|  0.38319
USER: genes 13 Torsion [N]-CA--CB-[CG] |==|  0.73702
USER: genes 14 Torsion [CA]-CB--CG-[CD2] |==|  0.64616
USER: genes 15 Torsion [N]-CA--C-[N] |==|  0.91356
USER: genes 16 Torsion [C]-N--CA-[CB] |==|  0.85217
USER: genes 17 Torsion [N]-CA--CB-[CG1] |==|  0.53454
USER: genes 18 Torsion [N]-CA--C-[N] |==|  0.35000
USER: genes 19 Torsion [C]-N--CA-[CB] |==|  0.50278
USER: genes 20 Torsion [N]-CA--CB-[CG] |==|  0.77291
USER: genes 21 Torsion [CA]-CB--CG-[CD1] |==|  0.54403
USER: genes 22 Torsion [N]-CA--C-[N] |==|  0.40606
USER: genes 23 Torsion [C]-N--CA-[C] |==|  0.81112
USER: genes 24 Torsion [N]-CA--C-[N] |==|  0.88460
USER: genes 25 Torsion [C]-N--CA-[CB] |==|  0.82162
USER: genes 26 Torsion [N]-CA--CB-[CG] |==|  0.67369
USER: genes 27 Torsion [CA]-CB--CG-[CD1] |==|  0.17223
USER: genes 28 Torsion [N]-CA--C-[O] |==|  0.10689
ROOT
ATOM      1  CA  LEU C  12      -0.041   4.505  34.203  0.76 25.89 LIG 0.18  C 
ENDROOT
BRANCH 1 2
ATOM      2  N   LEU C  12      -0.545   3.707  33.093  0.76 24.12 LIG-0.35  N 
ATOM      3 H    LEU C  12      -0.051   3.034  32.888  0.76 24.12 LIG 0.16  HD
ATOM      4  C   GLN C  11      -1.676   4.013  32.466  0.76 26.11 LIG 0.24  C 
ATOM      5 O    GLN C  11      -2.379   4.978  32.779  0.76 27.34 LIG-0.27  OA
BRANCH 4 6
ATOM      6  CA  GLN C  11      -2.064   3.103  31.302  0.76 26.16 LIG 0.18  C 
BRANCH 6 7
ATOM      7  N   GLN C  11      -3.486   2.789  31.232  0.76 28.86 LIG-0.35  N 
ATOM      8  C   ARG C  10      -4.132   2.139  32.193  0.76 30.48 LIG 0.26  C 
ATOM      9 O    ARG C  10      -3.595   1.772  33.242  0.76 24.30 LIG-0.27  OA
ATOM     10 H    GLN C  11      -3.866   3.064  30.512  0.76 28.86 LIG 0.16  HD
BRANCH 8 11
ATOM     11  CA  ARG C  10      -5.623   1.878  31.933  0.76 33.62 LIG 0.40  C 
ATOM     12  N   ARG C  10      -5.914   1.804  30.471  0.76 36.52 LIG 0.61  N 
BRANCH 11 13
ATOM     13  CB  ARG C  10      -6.024   0.569  32.612  0.76 36.98 LIG 0.05  C 
BRANCH 13 14
ATOM     14  CG  ARG C  10      -6.764   0.719  33.946  0.76 39.40 LIG 0.02  C 
BRANCH 14 15
ATOM     15  CD  ARG C  10      -8.171   0.134  33.896  0.76 42.42 LIG 0.14  C 
BRANCH 15 16
ATOM     16  NE  ARG C  10      -8.495  -0.605  35.116  0.76 44.78 LIG-0.23  N 
ATOM     17  CZ  ARG C  10      -8.369  -1.921  35.262  0.76 45.62 LIG 0.67  C 
ATOM     18  NH2 ARG C  10      -8.674  -2.489  36.421  0.76 46.43 LIG-0.23  N 
ATOM     19  NH1 ARG C  10      -7.926  -2.669  34.260  0.76 45.50 LIG-0.23  N 
ATOM     20 2HH2 ARG C  10      -8.593  -3.340  36.518  0.76 46.43 LIG 0.17  HD
ATOM     21 1HH2 ARG C  10      -8.953  -2.006  37.076  0.76 46.43 LIG 0.17  HD
ATOM     22 2HH1 ARG C  10      -7.847  -3.520  34.361  0.76 45.50 LIG 0.17  HD
ATOM     23 1HH1 ARG C  10      -7.717  -2.304  33.510  0.76 45.50 LIG 0.17  HD
ATOM     24 HE   ARG C  10      -8.788  -0.156  35.787  0.76 44.78 LIG 0.18  HD
ENDBRANCH 15 16
ENDBRANCH 14 15
ENDBRANCH 13 14
ENDBRANCH 11 13
ENDBRANCH 8 11
ENDBRANCH 6 7
BRANCH 6 25
ATOM     25  CB  GLN C  11      -1.618   3.761  29.993  0.76 25.68 LIG 0.04  C 
BRANCH 25 26
ATOM     26  CG  GLN C  11      -0.230   4.371  30.053  0.76 22.66 LIG 0.10  C 
BRANCH 26 27
ATOM     27  CD  GLN C  11       0.837   3.375  29.680  0.76 24.13 LIG 0.21  C 
ATOM     28 OE1  GLN C  11       1.780   3.705  28.954  0.76 19.83 LIG-0.27  OA
ATOM     29  NE2 GLN C  11       0.702   2.147  30.173  0.76 21.86 LIG-0.37  N 
ATOM     30 21HE GLN C  11       0.030   1.956  30.675  0.76 21.86 LIG 0.16  HD
ATOM     31 22HE GLN C  11       1.286   1.543  29.989  0.76 21.86 LIG 0.16  HD
ENDBRANCH 26 27
ENDBRANCH 25 26
ENDBRANCH 6 25
ENDBRANCH 4 6
ENDBRANCH 1 2
BRANCH 1 32
ATOM     32  CB  LEU C  12       1.064   3.744  34.946  0.76 24.07 LIG 0.04  C 
BRANCH 32 33
ATOM     33  CG  LEU C  12       0.616   2.939  36.173  0.76 21.16 LIG-0.02  C 
ATOM     34  CD1 LEU C  12       0.747   1.457  35.860  0.76 25.64 LIG 0.01  C 
ATOM     35  CD2 LEU C  12       1.460   3.309  37.391  0.76 25.10 LIG 0.01  C 
ENDBRANCH 32 33
ENDBRANCH 1 32
BRANCH 1 36
ATOM     36  C   LEU C  12       0.504   5.812  33.619  0.76 25.30 LIG 0.24  C 
ATOM     37 O    LEU C  12       0.460   6.855  34.278  0.76 25.87 LIG-0.27  OA
ATOM     38  N   VAL C  13       1.017   5.759  32.390  0.76 25.62 LIG-0.35  N 
ATOM     39 H    VAL C  13       1.039   5.050  31.903  0.76 25.62 LIG 0.16  HD
BRANCH 38 40
ATOM     40  CA  VAL C  13       1.595   6.948  31.768  0.76 24.99 LIG 0.18  C 
BRANCH 40 41
ATOM     41  CB  VAL C  13       0.601   8.135  31.796  0.76 27.65 LIG 0.01  C 
ATOM     42  CG1 VAL C  13       1.095   9.253  30.884  0.76 28.12 LIG 0.01  C 
ATOM     43  CG2 VAL C  13      -0.776   7.672  31.360  0.76 27.69 LIG 0.01  C 
ENDBRANCH 40 41
BRANCH 40 44
ATOM     44  C   VAL C  13       2.906   7.419  32.389  0.76 25.58 LIG 0.24  C 
ATOM     45  N   LEU C  14       3.917   7.563  31.542  0.76 25.74 LIG-0.35  N 
ATOM     46 H    LEU C  14       3.863   7.409  30.699  0.76 25.74 LIG 0.16  HD
ATOM     47 O    VAL C  13       3.006   7.655  33.593  0.76 23.74 LIG-0.27  OA
BRANCH 45 48
ATOM     48  CA  LEU C  14       5.231   8.007  31.989  0.76 27.54 LIG 0.18  C 
BRANCH 48 49
ATOM     49  CB  LEU C  14       6.189   8.106  30.798  0.76 27.94 LIG 0.04  C 
BRANCH 49 50
ATOM     50  CG  LEU C  14       6.850   6.811  30.326  0.76 29.52 LIG-0.02  C 
ATOM     51  CD2 LEU C  14       7.289   5.990  31.535  0.76 29.01 LIG 0.01  C 
ATOM     52  CD1 LEU C  14       8.029   7.150  29.431  0.76 31.53 LIG 0.01  C 
ENDBRANCH 49 50
ENDBRANCH 48 49
BRANCH 48 53
ATOM     53  C   LEU C  14       5.192   9.359  32.685  0.76 27.94 LIG 0.24  C 
ATOM     54  N   GLY C  15       6.064   9.522  33.671  0.76 27.74 LIG-0.35  N 
ATOM     55 H    GLY C  15       6.607   8.916  33.947  0.76 27.74 LIG 0.16  HD
ATOM     56 O    LEU C  14       4.388  10.233  32.340  0.76 29.25 LIG-0.27  OA
BRANCH 54 57
ATOM     57  CA  GLY C  15       6.153  10.791  34.370  0.76 32.19 LIG 0.23  C 
BRANCH 57 58
ATOM     58  C   GLY C  15       6.708  11.797  33.375  0.76 34.72 LIG 0.24  C 
ATOM     59  N   LEU C  16       7.698  11.366  32.600  0.76 34.76 LIG-0.34  N 
ATOM     60 H    LEU C  16       8.009  10.565  32.629  0.76 34.76 LIG 0.16  HD
ATOM     61 O    GLY C  15       6.258  12.942  33.315  0.76 36.88 LIG-0.27  OA
BRANCH 59 62
ATOM     62  CA  LEU C  16       8.353  12.223  31.617  0.76 35.63 LIG 0.18  C 
BRANCH 62 63
ATOM     63  CB  LEU C  16       7.345  12.630  30.543  0.76 32.88 LIG 0.04  C 
BRANCH 63 64
ATOM     64  CG  LEU C  16       7.705  12.134  29.140  0.76 27.62 LIG-0.02  C 
ATOM     65  CD1 LEU C  16       7.733  10.614  29.108  0.76 29.42 LIG 0.01  C 
ATOM     66  CD2 LEU C  16       6.701  12.681  28.140  0.76 30.85 LIG 0.01  C 
ENDBRANCH 63 64
ENDBRANCH 62 63
BRANCH 62 67
ATOM     67  C   LEU C  16       9.008  13.462  32.213  0.76 36.84 LIG 0.20  C 
ATOM     68 O    LEU C  16       9.587  13.344  33.318  0.76 37.63 LIG-0.65  OA
ATOM     69 OXT  LEU C  16       8.935  14.531  31.571  0.76 38.60 LIG-0.65  OA
ENDBRANCH 62 67
ENDBRANCH 59 62
ENDBRANCH 57 58
ENDBRANCH 54 57
ENDBRANCH 48 53
ENDBRANCH 45 48
ENDBRANCH 40 44
ENDBRANCH 38 40
ENDBRANCH 1 36
TORSDOF 27
ENDMDL
MODEL 23
USER: ADFR SOLUTION from run 178
USER: SCORE 19.150004 LL:  -5.134 LR: -16.152 RR:   0.000 FEB:  -8.098
USER: RMSD 6.069678
USER: SEED 177
USER: STATUS no improvement in best in 6 clusters for 5 generations
USER: GENES 29
USER: genes 0 Translation |==|  0.53672 0.40516 0.37868
USER: genes 1 Rotation |==|  0.74839 0.89538 0.49414 0.67873
USER: genes 2 Torsion [CB]-CA--N-[C] |==|  0.85086
USER: genes 3 Torsion [N]-C--CA-[N] |==|  0.22912
USER: genes 4 Torsion [C]-CA--N-[C] |==|  0.76701
USER: genes 5 Torsion [N]-C--CA-[N] |==|  0.03714
USER: genes 6 Torsion [C]-CA--CB-[CG] |==|  0.26387
USER: genes 7 Torsion [CA]-CB--CG-[CD] |==|  0.72850
USER: genes 8 Torsion [CB]-CG--CD-[NE] |==|  0.24467
USER: genes 9 Torsion [CG]-CD--NE-[CZ] |==|  0.23215
USER: genes 10 Torsion [C]-CA--CB-[CG] |==|  0.34826
USER: genes 11 Torsion [CA]-CB--CG-[CD] |==|  0.17787
USER: genes 12 Torsion [CB]-CG--CD-[OE1] |==|  0.93415
USER: genes 13 Torsion [N]-CA--CB-[CG] |==|  0.83511
USER: genes 14 Torsion [CA]-CB--CG-[CD2] |==|  0.27280
USER: genes 15 Torsion [N]-CA--C-[N] |==|  0.33443
USER: genes 16 Torsion [C]-N--CA-[CB] |==|  0.17778
USER: genes 17 Torsion [N]-CA--CB-[CG1] |==|  0.72835
USER: genes 18 Torsion [N]-CA--C-[N] |==|  0.16526
USER: genes 19 Torsion [C]-N--CA-[CB] |==|  0.51111
USER: genes 20 Torsion [N]-CA--CB-[CG] |==|  0.71257
USER: genes 21 Torsion [CA]-CB--CG-[CD1] |==|  0.57928
USER: genes 22 Torsion [N]-CA--C-[N] |==|  0.78299
USER: genes 23 Torsion [C]-N--CA-[C] |==|  0.74474
USER: genes 24 Torsion [N]-CA--C-[N] |==|  0.96202
USER: genes 25 Torsion [C]-N--CA-[CB] |==|  0.45994
USER: genes 26 Torsion [N]-CA--CB-[CG] |==|  0.66978
USER: genes 27 Torsion [CA]-CB--CG-[CD1] |==|  0.96537
USER: genes 28 Torsion [N]-CA--C-[O] |==|  0.41121
ROOT
ATOM      1  CA  LEU C  12       0.301   3.768  30.481  0.76 25.89 LIG 0.18  C 
ENDROOT
BRANCH 1 2
ATOM      2  N   LEU C  12      -0.782   3.139  31.225  0.76 24.12 LIG-0.35  N 
ATOM      3 H    LEU C  12      -0.522   2.566  31.811  0.76 24.12 LIG 0.16  HD
ATOM      4  C   GLN C  11      -2.057   3.441  30.999  0.76 26.11 LIG 0.24  C 
ATOM      5 O    GLN C  11      -2.412   4.273  30.160  0.76 27.34 LIG-0.27  OA
BRANCH 4 6
ATOM      6  CA  GLN C  11      -3.083   2.678  31.834  0.76 26.16 LIG 0.18  C 
BRANCH 6 7
ATOM      7  N   GLN C  11      -3.301   3.228  33.167  0.76 28.86 LIG-0.35  N 
ATOM      8  C   ARG C  10      -2.525   2.939  34.205  0.76 30.48 LIG 0.26  C 
ATOM      9 O    ARG C  10      -1.535   2.207  34.128  0.76 24.30 LIG-0.27  OA
ATOM     10 H    GLN C  11      -3.978   3.755  33.218  0.76 28.86 LIG 0.16  HD
BRANCH 8 11
ATOM     11  CA  ARG C  10      -2.924   3.594  35.536  0.76 33.62 LIG 0.40  C 
ATOM     12  N   ARG C  10      -4.296   4.176  35.465  0.76 36.52 LIG 0.61  N 
BRANCH 11 13
ATOM     13  CB  ARG C  10      -2.858   2.545  36.646  0.76 36.98 LIG 0.05  C 
BRANCH 13 14
ATOM     14  CG  ARG C  10      -1.546   2.504  37.437  0.76 39.40 LIG 0.02  C 
BRANCH 14 15
ATOM     15  CD  ARG C  10      -0.601   1.419  36.934  0.76 42.42 LIG 0.14  C 
BRANCH 15 16
ATOM     16  NE  ARG C  10       0.257   1.905  35.853  0.76 44.78 LIG-0.23  N 
ATOM     17  CZ  ARG C  10       1.392   2.576  36.029  0.76 45.62 LIG 0.67  C 
ATOM     18  NH2 ARG C  10       2.105   2.954  34.976  0.76 46.43 LIG-0.23  N 
ATOM     19  NH1 ARG C  10       1.824   2.858  37.250  0.76 45.50 LIG-0.23  N 
ATOM     20 2HH2 ARG C  10       2.839   3.388  35.087  0.76 46.43 LIG 0.17  HD
ATOM     21 1HH2 ARG C  10       1.832   2.765  34.182  0.76 46.43 LIG 0.17  HD
ATOM     22 2HH1 ARG C  10       2.559   3.292  37.357  0.76 45.50 LIG 0.17  HD
ATOM     23 1HH1 ARG C  10       1.370   2.606  37.936  0.76 45.50 LIG 0.17  HD
ATOM     24 HE   ARG C  10       0.009   1.744  35.046  0.76 44.78 LIG 0.18  HD
ENDBRANCH 15 16
ENDBRANCH 14 15
ENDBRANCH 13 14
ENDBRANCH 11 13
ENDBRANCH 8 11
ENDBRANCH 6 7
BRANCH 6 25
ATOM     25  CB  GLN C  11      -4.410   2.641  31.071  0.76 25.68 LIG 0.04  C 
BRANCH 25 26
ATOM     26  CG  GLN C  11      -4.963   1.243  30.867  0.76 22.66 LIG 0.10  C 
BRANCH 26 27
ATOM     27  CD  GLN C  11      -5.314   0.582  32.175  0.76 24.13 LIG 0.21  C 
ATOM     28 OE1  GLN C  11      -4.773   0.940  33.227  0.76 19.83 LIG-0.27  OA
ATOM     29  NE2 GLN C  11      -6.221  -0.389  32.125  0.76 21.86 LIG-0.37  N 
ATOM     30 21HE GLN C  11      -6.575  -0.610  31.373  0.76 21.86 LIG 0.16  HD
ATOM     31 22HE GLN C  11      -6.455  -0.796  32.846  0.76 21.86 LIG 0.16  HD
ENDBRANCH 26 27
ENDBRANCH 25 26
ENDBRANCH 6 25
ENDBRANCH 4 6
ENDBRANCH 1 2
BRANCH 1 32
ATOM     32  CB  LEU C  12       0.070   3.614  28.973  0.76 24.07 LIG 0.04  C 
BRANCH 32 33
ATOM     33  CG  LEU C  12      -0.025   2.174  28.452  0.76 21.16 LIG-0.02  C 
ATOM     34  CD1 LEU C  12       0.692   1.253  29.427  0.76 25.64 LIG 0.01  C 
ATOM     35  CD2 LEU C  12      -1.486   1.758  28.294  0.76 25.10 LIG 0.01  C 
ENDBRANCH 32 33
ENDBRANCH 1 32
BRANCH 1 36
ATOM     36  C   LEU C  12       0.328   5.248  30.874  0.76 25.30 LIG 0.24  C 
ATOM     37 O    LEU C  12      -0.661   5.963  30.682  0.76 25.87 LIG-0.27  OA
ATOM     38  N   VAL C  13       1.452   5.709  31.422  0.76 25.62 LIG-0.35  N 
ATOM     39 H    VAL C  13       2.160   5.238  31.545  0.76 25.62 LIG 0.16  HD
BRANCH 38 40
ATOM     40  CA  VAL C  13       1.554   7.099  31.863  0.76 24.99 LIG 0.18  C 
BRANCH 40 41
ATOM     41  CB  VAL C  13       0.566   7.395  33.018  0.76 27.65 LIG 0.01  C 
ATOM     42  CG1 VAL C  13      -0.696   8.052  32.472  0.76 28.12 LIG 0.01  C 
ATOM     43  CG2 VAL C  13       0.217   6.111  33.747  0.76 27.69 LIG 0.01  C 
ENDBRANCH 40 41
BRANCH 40 44
ATOM     44  C   VAL C  13       2.947   7.523  32.316  0.76 25.58 LIG 0.24  C 
ATOM     45  N   LEU C  14       3.901   7.413  31.402  0.76 25.74 LIG-0.35  N 
ATOM     46 H    LEU C  14       3.770   7.125  30.603  0.76 25.74 LIG 0.16  HD
ATOM     47 O    VAL C  13       3.159   7.947  33.453  0.76 23.74 LIG-0.27  OA
BRANCH 45 48
ATOM     48  CA  LEU C  14       5.282   7.781  31.689  0.76 27.54 LIG 0.18  C 
BRANCH 48 49
ATOM     49  CB  LEU C  14       6.139   7.645  30.426  0.76 27.94 LIG 0.04  C 
BRANCH 49 50
ATOM     50  CG  LEU C  14       7.052   6.423  30.333  0.76 29.52 LIG-0.02  C 
ATOM     51  CD2 LEU C  14       7.469   5.986  31.735  0.76 29.01 LIG 0.01  C 
ATOM     52  CD1 LEU C  14       8.260   6.766  29.479  0.76 31.53 LIG 0.01  C 
ENDBRANCH 49 50
ENDBRANCH 48 49
BRANCH 48 53
ATOM     53  C   LEU C  14       5.417   9.205  32.206  0.76 27.94 LIG 0.24  C 
ATOM     54  N   GLY C  15       5.349  10.158  31.287  0.76 27.74 LIG-0.35  N 
ATOM     55 H    GLY C  15       5.267  10.017  30.443  0.76 27.74 LIG 0.16  HD
ATOM     56 O    LEU C  14       5.585   9.435  33.410  0.76 29.25 LIG-0.27  OA
BRANCH 54 57
ATOM     57  CA  GLY C  15       5.413  11.556  31.672  0.76 32.19 LIG 0.23  C 
BRANCH 57 58
ATOM     58  C   GLY C  15       3.978  12.015  31.878  0.76 34.72 LIG 0.24  C 
ATOM     59  N   LEU C  16       3.034  11.206  31.410  0.76 34.76 LIG-0.34  N 
ATOM     60 H    LEU C  16       3.199  10.454  31.028  0.76 34.76 LIG 0.16  HD
ATOM     61 O    GLY C  15       3.731  13.083  32.438  0.76 36.88 LIG-0.27  OA
BRANCH 59 62
ATOM     62  CA  LEU C  16       1.612  11.524  31.506  0.76 35.63 LIG 0.18  C 
BRANCH 62 63
ATOM     63  CB  LEU C  16       0.820  10.599  30.581  0.76 32.88 LIG 0.04  C 
BRANCH 63 64
ATOM     64  CG  LEU C  16       0.046  11.338  29.486  0.76 27.62 LIG-0.02  C 
ATOM     65  CD1 LEU C  16       0.014  12.830  29.778  0.76 29.42 LIG 0.01  C 
ATOM     66  CD2 LEU C  16       0.692  11.060  28.140  0.76 30.85 LIG 0.01  C 
ENDBRANCH 63 64
ENDBRANCH 62 63
BRANCH 62 67
ATOM     67  C   LEU C  16       1.053  11.451  32.919  0.76 36.84 LIG 0.20  C 
ATOM     68 O    LEU C  16       0.122  12.233  33.221  0.76 37.63 LIG-0.65  OA
ATOM     69 OXT  LEU C  16       1.549  10.616  33.705  0.76 38.60 LIG-0.65  OA
ENDBRANCH 62 67
ENDBRANCH 59 62
ENDBRANCH 57 58
ENDBRANCH 54 57
ENDBRANCH 48 53
ENDBRANCH 45 48
ENDBRANCH 40 44
ENDBRANCH 38 40
ENDBRANCH 1 36
TORSDOF 27
ENDMDL
MODEL 24
USER: ADFR SOLUTION from run 178
USER: SCORE 18.793836 LL:  -4.978 LR: -16.105 RR:   0.000 FEB:  -8.051
USER: RMSD 4.975842
USER: SEED 177
USER: STATUS no improvement in best in 6 clusters for 5 generations
USER: GENES 29
USER: genes 0 Translation |==|  0.53771 0.39725 0.39030
USER: genes 1 Rotation |==|  0.74354 0.87381 0.49683 0.72571
USER: genes 2 Torsion [CB]-CA--N-[C] |==|  0.86093
USER: genes 3 Torsion [N]-C--CA-[N] |==|  0.23933
USER: genes 4 Torsion [C]-CA--N-[C] |==|  0.67287
USER: genes 5 Torsion [N]-C--CA-[N] |==|  0.93570
USER: genes 6 Torsion [C]-CA--CB-[CG] |==|  0.14459
USER: genes 7 Torsion [CA]-CB--CG-[CD] |==|  0.60124
USER: genes 8 Torsion [CB]-CG--CD-[NE] |==|  0.44092
USER: genes 9 Torsion [CG]-CD--NE-[CZ] |==|  0.32371
USER: genes 10 Torsion [C]-CA--CB-[CG] |==|  0.55390
USER: genes 11 Torsion [CA]-CB--CG-[CD] |==|  0.77020
USER: genes 12 Torsion [CB]-CG--CD-[OE1] |==|  0.69591
USER: genes 13 Torsion [N]-CA--CB-[CG] |==|  0.87786
USER: genes 14 Torsion [CA]-CB--CG-[CD2] |==|  0.70747
USER: genes 15 Torsion [N]-CA--C-[N] |==|  0.35241
USER: genes 16 Torsion [C]-N--CA-[CB] |==|  0.18239
USER: genes 17 Torsion [N]-CA--CB-[CG1] |==|  0.72799
USER: genes 18 Torsion [N]-CA--C-[N] |==|  0.17778
USER: genes 19 Torsion [C]-N--CA-[CB] |==|  0.51739
USER: genes 20 Torsion [N]-CA--CB-[CG] |==|  0.72000
USER: genes 21 Torsion [CA]-CB--CG-[CD1] |==|  0.57373
USER: genes 22 Torsion [N]-CA--C-[N] |==|  0.77958
USER: genes 23 Torsion [C]-N--CA-[C] |==|  0.74008
USER: genes 24 Torsion [N]-CA--C-[N] |==|  0.96169
USER: genes 25 Torsion [C]-N--CA-[CB] |==|  0.46502
USER: genes 26 Torsion [N]-CA--CB-[CG] |==|  0.66978
USER: genes 27 Torsion [CA]-CB--CG-[CD1] |==|  0.96537
USER: genes 28 Torsion [N]-CA--C-[O] |==|  0.41100
ROOT
ATOM      1  CA  LEU C  12       0.330   3.555  30.673  0.76 25.89 LIG 0.18  C 
ENDROOT
BRANCH 1 2
ATOM      2  N   LEU C  12      -0.888   3.012  31.258  0.76 24.12 LIG-0.35  N 
ATOM      3 H    LEU C  12      -0.761   2.533  31.961  0.76 24.12 LIG 0.16  HD
ATOM      4  C   GLN C  11      -2.086   3.250  30.732  0.76 26.11 LIG 0.24  C 
ATOM      5 O    GLN C  11      -2.252   3.948  29.728  0.76 27.34 LIG-0.27  OA
BRANCH 4 6
ATOM      6  CA  GLN C  11      -3.270   2.590  31.436  0.76 26.16 LIG 0.18  C 
BRANCH 6 7
ATOM      7  N   GLN C  11      -3.810   3.358  32.551  0.76 28.86 LIG-0.35  N 
ATOM      8  C   ARG C  10      -3.813   2.914  33.802  0.76 30.48 LIG 0.26  C 
ATOM      9 O    ARG C  10      -3.331   1.829  34.138  0.76 24.30 LIG-0.27  OA
ATOM     10 H    GLN C  11      -4.126   4.125  32.323  0.76 28.86 LIG 0.16  HD
BRANCH 8 11
ATOM     11  CA  ARG C  10      -4.446   3.853  34.840  0.76 33.62 LIG 0.40  C 
ATOM     12  N   ARG C  10      -4.434   5.270  34.369  0.76 36.52 LIG 0.61  N 
BRANCH 11 13
ATOM     13  CB  ARG C  10      -5.883   3.404  35.106  0.76 36.98 LIG 0.05  C 
BRANCH 13 14
ATOM     14  CG  ARG C  10      -6.053   1.924  35.466  0.76 39.40 LIG 0.02  C 
BRANCH 14 15
ATOM     15  CD  ARG C  10      -7.330   1.331  34.882  0.76 42.42 LIG 0.14  C 
BRANCH 15 16
ATOM     16  NE  ARG C  10      -7.257  -0.127  34.787  0.76 44.78 LIG-0.23  N 
ATOM     17  CZ  ARG C  10      -8.045  -0.971  35.448  0.76 45.62 LIG 0.67  C 
ATOM     18  NH2 ARG C  10      -7.906  -2.278  35.273  0.76 46.43 LIG-0.23  N 
ATOM     19  NH1 ARG C  10      -8.979  -0.514  36.271  0.76 45.50 LIG-0.23  N 
ATOM     20 2HH2 ARG C  10      -8.414  -2.826  35.700  0.76 46.43 LIG 0.17  HD
ATOM     21 1HH2 ARG C  10      -7.307  -2.578  34.733  0.76 46.43 LIG 0.17  HD
ATOM     22 2HH1 ARG C  10      -9.485  -1.065  36.696  0.76 45.50 LIG 0.17  HD
ATOM     23 1HH1 ARG C  10      -9.079   0.333  36.380  0.76 45.50 LIG 0.17  HD
ATOM     24 HE   ARG C  10      -6.662  -0.463  34.265  0.76 44.78 LIG 0.18  HD
ENDBRANCH 15 16
ENDBRANCH 14 15
ENDBRANCH 13 14
ENDBRANCH 11 13
ENDBRANCH 8 11
ENDBRANCH 6 7
BRANCH 6 25
ATOM     25  CB  GLN C  11      -4.373   2.332  30.407  0.76 25.68 LIG 0.04  C 
BRANCH 25 26
ATOM     26  CG  GLN C  11      -5.746   2.122  31.017  0.76 22.66 LIG 0.10  C 
BRANCH 26 27
ATOM     27  CD  GLN C  11      -5.941   0.702  31.485  0.76 24.13 LIG 0.21  C 
ATOM     28 OE1  GLN C  11      -6.712  -0.057  30.889  0.76 19.83 LIG-0.27  OA
ATOM     29  NE2 GLN C  11      -5.245   0.328  32.555  0.76 21.86 LIG-0.37  N 
ATOM     30 21HE GLN C  11      -4.718   0.887  32.942  0.76 21.86 LIG 0.16  HD
ATOM     31 22HE GLN C  11      -5.322  -0.472  32.859  0.76 21.86 LIG 0.16  HD
ENDBRANCH 26 27
ENDBRANCH 25 26
ENDBRANCH 6 25
ENDBRANCH 4 6
ENDBRANCH 1 2
BRANCH 1 32
ATOM     32  CB  LEU C  12       0.374   3.262  29.169  0.76 24.07 LIG 0.04  C 
BRANCH 32 33
ATOM     33  CG  LEU C  12      -0.030   1.843  28.748  0.76 21.16 LIG-0.02  C 
ATOM     34  CD1 LEU C  12      -1.002   1.936  27.583  0.76 25.64 LIG 0.01  C 
ATOM     35  CD2 LEU C  12       1.203   1.030  28.358  0.76 25.10 LIG 0.01  C 
ENDBRANCH 32 33
ENDBRANCH 1 32
BRANCH 1 36
ATOM     36  C   LEU C  12       0.330   5.065  30.929  0.76 25.30 LIG 0.24  C 
ATOM     37 O    LEU C  12      -0.642   5.752  30.599  0.76 25.87 LIG-0.27  OA
ATOM     38  N   VAL C  13       1.410   5.580  31.513  0.76 25.62 LIG-0.35  N 
ATOM     39 H    VAL C  13       2.107   5.126  31.732  0.76 25.62 LIG 0.16  HD
BRANCH 38 40
ATOM     40  CA  VAL C  13       1.481   7.005  31.832  0.76 24.99 LIG 0.18  C 
BRANCH 40 41
ATOM     41  CB  VAL C  13       0.438   7.392  32.908  0.76 27.65 LIG 0.01  C 
ATOM     42  CG1 VAL C  13      -0.802   7.985  32.248  0.76 28.12 LIG 0.01  C 
ATOM     43  CG2 VAL C  13       0.063   6.174  33.731  0.76 27.69 LIG 0.01  C 
ENDBRANCH 40 41
BRANCH 40 44
ATOM     44  C   VAL C  13       2.848   7.485  32.308  0.76 25.58 LIG 0.24  C 
ATOM     45  N   LEU C  14       3.826   7.391  31.418  0.76 25.74 LIG-0.35  N 
ATOM     46 H    LEU C  14       3.723   7.084  30.622  0.76 25.74 LIG 0.16  HD
ATOM     47 O    VAL C  13       3.018   7.938  33.441  0.76 23.74 LIG-0.27  OA
BRANCH 45 48
ATOM     48  CA  LEU C  14       5.186   7.811  31.729  0.76 27.54 LIG 0.18  C 
BRANCH 48 49
ATOM     49  CB  LEU C  14       6.064   7.734  30.476  0.76 27.94 LIG 0.04  C 
BRANCH 49 50
ATOM     50  CG  LEU C  14       6.983   6.521  30.343  0.76 29.52 LIG-0.02  C 
ATOM     51  CD2 LEU C  14       7.420   6.054  31.729  0.76 29.01 LIG 0.01  C 
ATOM     52  CD1 LEU C  14       8.179   6.891  29.483  0.76 31.53 LIG 0.01  C 
ENDBRANCH 49 50
ENDBRANCH 48 49
BRANCH 48 53
ATOM     53  C   LEU C  14       5.255   9.230  32.274  0.76 27.94 LIG 0.24  C 
ATOM     54  N   GLY C  15       5.184  10.196  31.368  0.76 27.74 LIG-0.35  N 
ATOM     55 H    GLY C  15       5.134  10.066  30.519  0.76 27.74 LIG 0.16  HD
ATOM     56 O    LEU C  14       5.376   9.445  33.485  0.76 29.25 LIG-0.27  OA
BRANCH 54 57
ATOM     57  CA  GLY C  15       5.186  11.588  31.777  0.76 32.19 LIG 0.23  C 
BRANCH 57 58
ATOM     58  C   GLY C  15       3.730  12.006  31.901  0.76 34.72 LIG 0.24  C 
ATOM     59  N   LEU C  16       2.838  11.181  31.363  0.76 34.76 LIG-0.34  N 
ATOM     60 H    LEU C  16       3.047  10.442  30.979  0.76 34.76 LIG 0.16  HD
ATOM     61 O    GLY C  15       3.420  13.057  32.464  0.76 36.88 LIG-0.27  OA
BRANCH 59 62
ATOM     62  CA  LEU C  16       1.405  11.461  31.376  0.76 35.63 LIG 0.18  C 
BRANCH 62 63
ATOM     63  CB  LEU C  16       0.690  10.503  30.423  0.76 32.88 LIG 0.04  C 
BRANCH 63 64
ATOM     64  CG  LEU C  16      -0.042  11.206  29.277  0.76 27.62 LIG-0.02  C 
ATOM     65  CD1 LEU C  16      -0.131  12.700  29.545  0.76 29.42 LIG 0.01  C 
ATOM     66  CD2 LEU C  16       0.684  10.929  27.972  0.76 30.85 LIG 0.01  C 
ENDBRANCH 63 64
ENDBRANCH 62 63
BRANCH 62 67
ATOM     67  C   LEU C  16       0.771  11.390  32.758  0.76 36.84 LIG 0.20  C 
ATOM     68 O    LEU C  16      -0.195  12.151  32.998  0.76 37.63 LIG-0.65  OA
ATOM     69 OXT  LEU C  16       1.245  10.579  33.581  0.76 38.60 LIG-0.65  OA
ENDBRANCH 62 67
ENDBRANCH 59 62
ENDBRANCH 57 58
ENDBRANCH 54 57
ENDBRANCH 48 53
ENDBRANCH 45 48
ENDBRANCH 40 44
ENDBRANCH 38 40
ENDBRANCH 1 36
TORSDOF 27
ENDMDL
