MODEL 1
USER: ADFR SOLUTION from run 32
USER: SCORE 24.164624 LL:  -1.270 LR: -25.194 RR:   0.000 FEB: -18.333
USER: RMSD 1.252372
USER: SEED 31
USER: STATUS 1 or 2 clusters left
USER: GENES 25
USER: genes 0 Translation |==|  0.62065 0.58450 0.50536
USER: genes 1 Rotation |==|  0.46191 0.54984 0.45940 0.99439
USER: genes 2 Torsion [C]-CA--CB-[CG] |==|  0.34428
USER: genes 3 Torsion [CA]-CB--CG-[CD] |==|  0.39079
USER: genes 4 Torsion [CB]-CG--CD-[CE] |==|  0.49416
USER: genes 5 Torsion [CG]-CD--CE-[NZ] |==|  0.51693
USER: genes 6 Torsion [CD]-CE--NZ-[HZ2] |==|  0.11160
USER: genes 7 Torsion [N]-CA--C-[N] |==|  0.28451
USER: genes 8 Torsion [C]-N--CA-[CB] |==|  0.47222
USER: genes 9 Torsion [N]-CA--CB-[CG] |==|  0.50181
USER: genes 10 Torsion [CA]-CB--CG-[CD] |==|  0.29994
USER: genes 11 Torsion [CB]-CG--CD-[CE] |==|  0.62343
USER: genes 12 Torsion [CG]-CD--CE-[NZ] |==|  0.42524
USER: genes 13 Torsion [CD]-CE--NZ-[HZ1] |==|  0.19703
USER: genes 14 Torsion [N]-CA--C-[N] |==|  0.37693
USER: genes 15 Torsion [C]-N--CA-[CB] |==|  0.38262
USER: genes 16 Torsion [N]-CA--C-[OXT] |==|  0.91499
USER: genes 17 Torsion [CB]-CA--N-[C] |==|  0.46748
USER: genes 18 Torsion [N]-C--CA-[N] |==|  0.28580
USER: genes 19 Torsion [C]-CA--CB-[CG] |==|  0.30686
USER: genes 20 Torsion [CA]-CB--CG-[CD] |==|  0.15450
USER: genes 21 Torsion [CB]-CG--CD-[CE] |==|  0.80156
USER: genes 22 Torsion [CG]-CD--CE-[NZ] |==|  0.32358
USER: genes 23 Torsion [CD]-CE--NZ-[HZ1] |==|  0.97148
USER: genes 24 Torsion [C]-CA--N-[H3] |==|  0.45839
ROOT
ATOM      1  CA  LYS B   2       4.013  20.772  15.912  1.00  9.55 LIG 0.18  C 
ENDROOT
BRANCH 1 2
ATOM      2  CB  LYS B   2       4.715  22.177  16.024  1.00  7.13 LIG 0.04  C 
BRANCH 2 3
ATOM      3  CG  LYS B   2       5.085  22.423  17.494  1.00  9.06 LIG 0.00  C 
BRANCH 3 4
ATOM      4  CD  LYS B   2       6.346  23.059  17.869  1.00 20.34 LIG 0.03  C 
BRANCH 4 5
ATOM      5  CE  LYS B   2       6.629  23.318  19.364  1.00 19.41 LIG 0.23  C 
BRANCH 5 6
ATOM      6  NZ  LYS B   2       7.869  24.093  19.589  1.00 27.89 LIG-0.08  N 
ATOM      7 HZ2  LYS B   2       7.934  24.735  18.976  1.00 27.89 LIG 0.27  HD
ATOM      8 HZ3  LYS B   2       7.847  24.460  20.400  1.00 27.89 LIG 0.27  HD
ATOM      9 HZ1  LYS B   2       8.573  23.551  19.528  1.00 27.89 LIG 0.27  HD
ENDBRANCH 5 6
ENDBRANCH 4 5
ENDBRANCH 3 4
ENDBRANCH 2 3
ENDBRANCH 1 2
BRANCH 1 10
ATOM     10  C   LYS B   2       2.644  20.854  15.280  1.00  8.95 LIG 0.24  C 
ATOM     11 O    LYS B   2       2.405  21.459  14.219  1.00  5.49 LIG-0.27  OA
ATOM     12  N   LYS B   3       1.633  20.152  15.878  1.00  9.84 LIG-0.35  N 
ATOM     13 H    LYS B   3       1.721  19.717  16.615  1.00  9.84 LIG 0.16  HD
BRANCH 12 14
ATOM     14  CA  LYS B   3       0.332  20.090  15.313  1.00  6.67 LIG 0.18  C 
BRANCH 14 15
ATOM     15  CB  LYS B   3      -0.598  19.021  16.038  1.00  5.08 LIG 0.04  C 
BRANCH 15 16
ATOM     16  CG  LYS B   3      -1.926  19.162  15.207  1.00 11.87 LIG 0.00  C 
BRANCH 16 17
ATOM     17  CD  LYS B   3      -2.134  17.980  14.341  1.00 16.50 LIG 0.03  C 
BRANCH 17 18
ATOM     18  CE  LYS B   3      -2.569  18.384  12.938  1.00 11.29 LIG 0.23  C 
BRANCH 18 19
ATOM     19  NZ  LYS B   3      -2.177  17.375  11.929  1.00 14.74 LIG-0.08  N 
ATOM     20 HZ1  LYS B   3      -2.675  16.644  12.029  1.00 14.74 LIG 0.27  HD
ATOM     21 HZ2  LYS B   3      -2.300  17.707  11.112  1.00 14.74 LIG 0.27  HD
ATOM     22 HZ3  LYS B   3      -1.319  17.164  12.036  1.00 14.74 LIG 0.27  HD
ENDBRANCH 18 19
ENDBRANCH 17 18
ENDBRANCH 16 17
ENDBRANCH 15 16
ENDBRANCH 14 15
BRANCH 14 23
ATOM     23  C   LYS B   3      -0.420  21.416  15.466  1.00 11.62 LIG 0.24  C 
ATOM     24  N   ALA B   4      -1.065  21.820  14.382  1.00 11.21 LIG-0.34  N 
ATOM     25 H    ALA B   4      -1.044  21.421  13.621  1.00 11.21 LIG 0.16  HD
ATOM     26 O    LYS B   3      -0.427  22.012  16.561  1.00  6.98 LIG-0.27  OA
BRANCH 24 27
ATOM     27  CA  ALA B   4      -1.901  23.043  14.430  1.00 15.60 LIG 0.18  C 
ATOM     28  CB  ALA B   4      -1.698  23.891  13.170  1.00  9.87 LIG 0.04  C 
BRANCH 27 29
ATOM     29  C   ALA B   4      -3.396  22.629  14.517  1.00 11.70 LIG 0.20  C 
ATOM     30 OXT  ALA B   4      -3.646  21.553  13.953  1.00 11.31 LIG-0.65  OA
ATOM     31 O    ALA B   4      -4.244  23.375  15.049  1.00 13.41 LIG-0.65  OA
ENDBRANCH 27 29
ENDBRANCH 24 27
ENDBRANCH 14 23
ENDBRANCH 12 14
ENDBRANCH 1 10
BRANCH 1 32
ATOM     32  N   LYS B   2       4.881  19.856  15.158  1.00  9.26 LIG-0.35  N 
ATOM     33 H    LYS B   2       5.532  20.263  14.771  1.00  9.26 LIG 0.16  HD
ATOM     34  C   LYS B   1       4.719  18.555  15.059  1.00  9.39 LIG 0.25  C 
ATOM     35 O    LYS B   1       3.840  17.933  15.699  1.00 10.41 LIG-0.27  OA
BRANCH 34 36
ATOM     36  CA  LYS B   1       5.670  17.743  14.185  1.00 10.02 LIG 0.27  C 
BRANCH 36 37
ATOM     37  CB  LYS B   1       4.911  16.742  13.276  1.00  9.48 LIG 0.04  C 
BRANCH 37 38
ATOM     38  CG  LYS B   1       4.922  17.053  11.799  1.00 17.99 LIG 0.00  C 
BRANCH 38 39
ATOM     39  CD  LYS B   1       6.328  17.209  11.202  1.00 11.58 LIG 0.03  C 
BRANCH 39 40
ATOM     40  CE  LYS B   1       7.024  18.499  11.651  1.00 12.42 LIG 0.23  C 
BRANCH 40 41
ATOM     41  NZ  LYS B   1       8.229  18.138  12.437  1.00 15.26 LIG-0.08  N 
ATOM     42 HZ1  LYS B   1       8.220  17.266  12.612  1.00 15.26 LIG 0.27  HD
ATOM     43 HZ2  LYS B   1       8.960  18.339  11.970  1.00 15.26 LIG 0.27  HD
ATOM     44 HZ3  LYS B   1       8.232  18.593  13.201  1.00 15.26 LIG 0.27  HD
ENDBRANCH 40 41
ENDBRANCH 39 40
ENDBRANCH 38 39
ENDBRANCH 37 38
ENDBRANCH 36 37
BRANCH 36 45
ATOM     45  N   LYS B   1       6.644  17.040  15.061  1.00  7.61 LIG-0.07  N 
ATOM     46 H1   LYS B   1       7.244  17.623  15.366  1.00  7.61 LIG 0.28  HD
ATOM     47 H3   LYS B   1       7.058  16.405  14.595  1.00  7.61 LIG 0.28  HD
ATOM     48 H2   LYS B   1       6.214  16.671  15.747  1.00  7.61 LIG 0.28  HD
ENDBRANCH 36 45
ENDBRANCH 34 36
ENDBRANCH 1 32
TORSDOF 23
ENDMDL
MODEL 2
USER: ADFR SOLUTION from run 161
USER: SCORE 23.377234 LL:  -2.972 LR: -21.707 RR:   0.000 FEB: -14.846
USER: RMSD 5.186700
USER: SEED 160
USER: STATUS no improvement in best in 1 clusters for 5 generations
USER: GENES 25
USER: genes 0 Translation |==|  0.60759 0.55797 0.47244
USER: genes 1 Rotation |==|  0.93162 0.51407 0.69268 0.66241
USER: genes 2 Torsion [C]-CA--CB-[CG] |==|  0.33300
USER: genes 3 Torsion [CA]-CB--CG-[CD] |==|  0.89974
USER: genes 4 Torsion [CB]-CG--CD-[CE] |==|  0.32581
USER: genes 5 Torsion [CG]-CD--CE-[NZ] |==|  0.14233
USER: genes 6 Torsion [CD]-CE--NZ-[HZ2] |==|  0.15497
USER: genes 7 Torsion [N]-CA--C-[N] |==|  0.67004
USER: genes 8 Torsion [C]-N--CA-[CB] |==|  0.51667
USER: genes 9 Torsion [N]-CA--CB-[CG] |==|  0.62459
USER: genes 10 Torsion [CA]-CB--CG-[CD] |==|  0.76884
USER: genes 11 Torsion [CB]-CG--CD-[CE] |==|  0.49764
USER: genes 12 Torsion [CG]-CD--CE-[NZ] |==|  0.56313
USER: genes 13 Torsion [CD]-CE--NZ-[HZ1] |==|  0.66577
USER: genes 14 Torsion [N]-CA--C-[N] |==|  0.31882
USER: genes 15 Torsion [C]-N--CA-[CB] |==|  0.41642
USER: genes 16 Torsion [N]-CA--C-[OXT] |==|  0.91410
USER: genes 17 Torsion [CB]-CA--N-[C] |==|  0.14463
USER: genes 18 Torsion [N]-C--CA-[N] |==|  0.79196
USER: genes 19 Torsion [C]-CA--CB-[CG] |==|  0.32457
USER: genes 20 Torsion [CA]-CB--CG-[CD] |==|  0.07794
USER: genes 21 Torsion [CB]-CG--CD-[CE] |==|  0.69869
USER: genes 22 Torsion [CG]-CD--CE-[NZ] |==|  0.48865
USER: genes 23 Torsion [CD]-CE--NZ-[HZ1] |==|  0.26710
USER: genes 24 Torsion [C]-CA--N-[H3] |==|  0.29832
ROOT
ATOM      1  CA  LYS B   2       3.738  20.294  15.295  1.00  9.55 LIG 0.18  C 
ENDROOT
BRANCH 1 2
ATOM      2  CB  LYS B   2       4.037  19.033  16.190  1.00  7.13 LIG 0.04  C 
BRANCH 2 3
ATOM      3  CG  LYS B   2       5.031  18.130  15.444  1.00  9.06 LIG 0.00  C 
BRANCH 3 4
ATOM      4  CD  LYS B   2       4.984  17.977  13.992  1.00 20.34 LIG 0.03  C 
BRANCH 4 5
ATOM      5  CE  LYS B   2       6.197  18.441  13.159  1.00 19.41 LIG 0.23  C 
BRANCH 5 6
ATOM      6  NZ  LYS B   2       7.479  17.890  13.649  1.00 27.89 LIG-0.08  N 
ATOM      7 HZ2  LYS B   2       7.430  17.001  13.674  1.00 27.89 LIG 0.27  HD
ATOM      8 HZ3  LYS B   2       8.136  18.135  13.102  1.00 27.89 LIG 0.27  HD
ATOM      9 HZ1  LYS B   2       7.642  18.201  14.467  1.00 27.89 LIG 0.27  HD
ENDBRANCH 5 6
ENDBRANCH 4 5
ENDBRANCH 3 4
ENDBRANCH 2 3
ENDBRANCH 1 2
BRANCH 1 10
ATOM     10  C   LYS B   2       2.278  20.419  14.934  1.00  8.95 LIG 0.24  C 
ATOM     11 O    LYS B   2       1.832  21.254  14.125  1.00  5.49 LIG-0.27  OA
ATOM     12  N   LYS B   3       1.416  19.505  15.476  1.00  9.84 LIG-0.35  N 
ATOM     13 H    LYS B   3       1.649  18.905  16.046  1.00  9.84 LIG 0.16  HD
BRANCH 12 14
ATOM     14  CA  LYS B   3       0.040  19.480  15.129  1.00  6.67 LIG 0.18  C 
BRANCH 14 15
ATOM     15  CB  LYS B   3      -0.789  18.435  15.996  1.00  5.08 LIG 0.04  C 
BRANCH 15 16
ATOM     16  CG  LYS B   3      -1.658  17.740  14.884  1.00 11.87 LIG 0.00  C 
BRANCH 16 17
ATOM     17  CD  LYS B   3      -2.867  18.540  14.584  1.00 16.50 LIG 0.03  C 
BRANCH 17 18
ATOM     18  CE  LYS B   3      -3.711  17.891  13.493  1.00 11.29 LIG 0.23  C 
BRANCH 18 19
ATOM     19  NZ  LYS B   3      -4.581  18.876  12.812  1.00 14.74 LIG-0.08  N 
ATOM     20 HZ1  LYS B   3      -5.433  18.637  12.909  1.00 14.74 LIG 0.27  HD
ATOM     21 HZ2  LYS B   3      -4.456  19.681  13.171  1.00 14.74 LIG 0.27  HD
ATOM     22 HZ3  LYS B   3      -4.378  18.904  11.946  1.00 14.74 LIG 0.27  HD
ENDBRANCH 18 19
ENDBRANCH 17 18
ENDBRANCH 16 17
ENDBRANCH 15 16
ENDBRANCH 14 15
BRANCH 14 23
ATOM     23  C   LYS B   3      -0.641  20.826  15.401  1.00 11.62 LIG 0.24  C 
ATOM     24  N   ALA B   4      -1.076  21.460  14.323  1.00 11.21 LIG-0.34  N 
ATOM     25 H    ALA B   4      -0.958  21.191  13.515  1.00 11.21 LIG 0.16  HD
ATOM     26 O    LYS B   3      -0.787  21.232  16.571  1.00  6.98 LIG-0.27  OA
BRANCH 24 27
ATOM     27  CA  ALA B   4      -1.829  22.728  14.461  1.00 15.60 LIG 0.18  C 
ATOM     28  CB  ALA B   4      -1.597  23.635  13.248  1.00  9.87 LIG 0.04  C 
BRANCH 27 29
ATOM     29  C   ALA B   4      -3.346  22.406  14.562  1.00 11.70 LIG 0.20  C 
ATOM     30 OXT  ALA B   4      -3.679  21.387  13.937  1.00 11.31 LIG-0.65  OA
ATOM     31 O    ALA B   4      -4.131  23.169  15.162  1.00 13.41 LIG-0.65  OA
ENDBRANCH 27 29
ENDBRANCH 24 27
ENDBRANCH 14 23
ENDBRANCH 12 14
ENDBRANCH 1 10
BRANCH 1 32
ATOM     32  N   LYS B   2       4.208  21.502  15.990  1.00  9.26 LIG-0.35  N 
ATOM     33 H    LYS B   2       3.600  22.108  16.045  1.00  9.26 LIG 0.16  HD
ATOM     34  C   LYS B   1       5.412  21.680  16.488  1.00  9.39 LIG 0.25  C 
ATOM     35 O    LYS B   1       6.274  20.772  16.510  1.00 10.41 LIG-0.27  OA
BRANCH 34 36
ATOM     36  CA  LYS B   1       5.771  23.017  17.128  1.00 10.02 LIG 0.27  C 
BRANCH 36 37
ATOM     37  CB  LYS B   1       4.689  23.487  18.134  1.00  9.48 LIG 0.04  C 
BRANCH 37 38
ATOM     38  CG  LYS B   1       5.135  23.610  19.572  1.00 17.99 LIG 0.00  C 
BRANCH 38 39
ATOM     39  CD  LYS B   1       6.630  23.920  19.740  1.00 11.58 LIG 0.03  C 
BRANCH 39 40
ATOM     40  CE  LYS B   1       7.426  22.726  20.279  1.00 12.42 LIG 0.23  C 
BRANCH 40 41
ATOM     41  NZ  LYS B   1       8.863  23.090  20.312  1.00 15.26 LIG-0.08  N 
ATOM     42 HZ1  LYS B   1       9.079  23.372  21.128  1.00 15.26 LIG 0.27  HD
ATOM     43 HZ2  LYS B   1       9.355  22.378  20.104  1.00 15.26 LIG 0.27  HD
ATOM     44 HZ3  LYS B   1       9.018  23.740  19.724  1.00 15.26 LIG 0.27  HD
ENDBRANCH 40 41
ENDBRANCH 39 40
ENDBRANCH 38 39
ENDBRANCH 37 38
ENDBRANCH 36 37
BRANCH 36 45
ATOM     45  N   LYS B   1       5.977  24.023  16.053  1.00  7.61 LIG-0.07  N 
ATOM     46 H1   LYS B   1       6.732  24.471  16.205  1.00  7.61 LIG 0.28  HD
ATOM     47 H3   LYS B   1       5.292  24.592  16.044  1.00  7.61 LIG 0.28  HD
ATOM     48 H2   LYS B   1       6.030  23.611  15.266  1.00  7.61 LIG 0.28  HD
ENDBRANCH 36 45
ENDBRANCH 34 36
ENDBRANCH 1 32
TORSDOF 23
ENDMDL
MODEL 3
USER: ADFR SOLUTION from run 97
USER: SCORE 22.790680 LL:  -2.868 LR: -21.341 RR:   0.000 FEB: -14.480
USER: RMSD 5.101222
USER: SEED 96
USER: STATUS no improvement in best in 4 clusters for 5 generations
USER: GENES 25
USER: genes 0 Translation |==|  0.60968 0.56008 0.47109
USER: genes 1 Rotation |==|  0.93108 0.50452 0.69759 0.65845
USER: genes 2 Torsion [C]-CA--CB-[CG] |==|  0.25915
USER: genes 3 Torsion [CA]-CB--CG-[CD] |==|  0.23097
USER: genes 4 Torsion [CB]-CG--CD-[CE] |==|  0.76677
USER: genes 5 Torsion [CG]-CD--CE-[NZ] |==|  0.54097
USER: genes 6 Torsion [CD]-CE--NZ-[HZ2] |==|  0.80654
USER: genes 7 Torsion [N]-CA--C-[N] |==|  0.67600
USER: genes 8 Torsion [C]-N--CA-[CB] |==|  0.50556
USER: genes 9 Torsion [N]-CA--CB-[CG] |==|  0.66250
USER: genes 10 Torsion [CA]-CB--CG-[CD] |==|  0.82929
USER: genes 11 Torsion [CB]-CG--CD-[CE] |==|  0.65606
USER: genes 12 Torsion [CG]-CD--CE-[NZ] |==|  0.47226
USER: genes 13 Torsion [CD]-CE--NZ-[HZ1] |==|  0.52791
USER: genes 14 Torsion [N]-CA--C-[N] |==|  0.32744
USER: genes 15 Torsion [C]-N--CA-[CB] |==|  0.40694
USER: genes 16 Torsion [N]-CA--C-[OXT] |==|  0.93197
USER: genes 17 Torsion [CB]-CA--N-[C] |==|  0.15400
USER: genes 18 Torsion [N]-C--CA-[N] |==|  0.79664
USER: genes 19 Torsion [C]-CA--CB-[CG] |==|  0.20893
USER: genes 20 Torsion [CA]-CB--CG-[CD] |==|  0.19339
USER: genes 21 Torsion [CB]-CG--CD-[CE] |==|  0.80251
USER: genes 22 Torsion [CG]-CD--CE-[NZ] |==|  0.43038
USER: genes 23 Torsion [CD]-CE--NZ-[HZ1] |==|  0.93119
USER: genes 24 Torsion [C]-CA--N-[H3] |==|  0.28992
ROOT
ATOM      1  CA  LYS B   2       3.782  20.332  15.270  1.00  9.55 LIG 0.18  C 
ENDROOT
BRANCH 1 2
ATOM      2  CB  LYS B   2       4.028  19.041  16.136  1.00  7.13 LIG 0.04  C 
BRANCH 2 3
ATOM      3  CG  LYS B   2       4.434  17.894  15.199  1.00  9.06 LIG 0.00  C 
BRANCH 3 4
ATOM      4  CD  LYS B   2       5.813  17.728  14.746  1.00 20.34 LIG 0.03  C 
BRANCH 4 5
ATOM      5  CE  LYS B   2       6.294  18.540  13.525  1.00 19.41 LIG 0.23  C 
BRANCH 5 6
ATOM      6  NZ  LYS B   2       7.567  18.037  12.963  1.00 27.89 LIG-0.08  N 
ATOM      7 HZ2  LYS B   2       8.230  18.208  13.531  1.00 27.89 LIG 0.27  HD
ATOM      8 HZ3  LYS B   2       7.508  17.159  12.832  1.00 27.89 LIG 0.27  HD
ATOM      9 HZ1  LYS B   2       7.729  18.442  12.187  1.00 27.89 LIG 0.27  HD
ENDBRANCH 5 6
ENDBRANCH 4 5
ENDBRANCH 3 4
ENDBRANCH 2 3
ENDBRANCH 1 2
BRANCH 1 10
ATOM     10  C   LYS B   2       2.336  20.498  14.869  1.00  8.95 LIG 0.24  C 
ATOM     11 O    LYS B   2       1.936  21.339  14.043  1.00  5.49 LIG-0.27  OA
ATOM     12  N   LYS B   3       1.434  19.614  15.395  1.00  9.84 LIG-0.35  N 
ATOM     13 H    LYS B   3       1.634  19.012  15.976  1.00  9.84 LIG 0.16  HD
BRANCH 12 14
ATOM     14  CA  LYS B   3       0.067  19.627  15.012  1.00  6.67 LIG 0.18  C 
BRANCH 14 15
ATOM     15  CB  LYS B   3      -0.797  18.542  15.794  1.00  5.08 LIG 0.04  C 
BRANCH 15 16
ATOM     16  CG  LYS B   3      -1.365  17.690  14.600  1.00 11.87 LIG 0.00  C 
BRANCH 16 17
ATOM     17  CD  LYS B   3      -2.206  18.522  13.712  1.00 16.50 LIG 0.03  C 
BRANCH 17 18
ATOM     18  CE  LYS B   3      -3.606  17.939  13.561  1.00 11.29 LIG 0.23  C 
BRANCH 18 19
ATOM     19  NZ  LYS B   3      -4.521  18.878  12.874  1.00 14.74 LIG-0.08  N 
ATOM     20 HZ1  LYS B   3      -5.356  18.574  12.930  1.00 14.74 LIG 0.27  HD
ATOM     21 HZ2  LYS B   3      -4.471  19.679  13.260  1.00 14.74 LIG 0.27  HD
ATOM     22 HZ3  LYS B   3      -4.289  18.947  12.018  1.00 14.74 LIG 0.27  HD
ENDBRANCH 18 19
ENDBRANCH 17 18
ENDBRANCH 16 17
ENDBRANCH 15 16
ENDBRANCH 14 15
BRANCH 14 23
ATOM     23  C   LYS B   3      -0.606  20.963  15.347  1.00 11.62 LIG 0.24  C 
ATOM     24  N   ALA B   4      -1.064  21.635  14.302  1.00 11.21 LIG-0.34  N 
ATOM     25 H    ALA B   4      -0.963  21.395  13.482  1.00 11.21 LIG 0.16  HD
ATOM     26 O    LYS B   3      -0.726  21.327  16.534  1.00  6.98 LIG-0.27  OA
BRANCH 24 27
ATOM     27  CA  ALA B   4      -1.811  22.898  14.502  1.00 15.60 LIG 0.18  C 
ATOM     28  CB  ALA B   4      -1.537  23.881  13.358  1.00  9.87 LIG 0.04  C 
BRANCH 27 29
ATOM     29  C   ALA B   4      -3.333  22.584  14.536  1.00 11.70 LIG 0.20  C 
ATOM     30 OXT  ALA B   4      -3.637  21.539  13.940  1.00 11.31 LIG-0.65  OA
ATOM     31 O    ALA B   4      -4.145  23.374  15.060  1.00 13.41 LIG-0.65  OA
ENDBRANCH 27 29
ENDBRANCH 24 27
ENDBRANCH 14 23
ENDBRANCH 12 14
ENDBRANCH 1 10
BRANCH 1 32
ATOM     32  N   LYS B   2       4.255  21.510  16.012  1.00  9.26 LIG-0.35  N 
ATOM     33 H    LYS B   2       3.643  22.107  16.107  1.00  9.26 LIG 0.16  HD
ATOM     34  C   LYS B   1       5.467  21.675  16.497  1.00  9.39 LIG 0.25  C 
ATOM     35 O    LYS B   1       6.336  20.774  16.460  1.00 10.41 LIG-0.27  OA
BRANCH 34 36
ATOM     36  CA  LYS B   1       5.827  22.984  17.193  1.00 10.02 LIG 0.27  C 
BRANCH 36 37
ATOM     37  CB  LYS B   1       4.781  23.375  18.269  1.00  9.48 LIG 0.04  C 
BRANCH 37 38
ATOM     38  CG  LYS B   1       4.834  22.588  19.556  1.00 17.99 LIG 0.00  C 
BRANCH 38 39
ATOM     39  CD  LYS B   1       6.073  22.878  20.417  1.00 11.58 LIG 0.03  C 
BRANCH 39 40
ATOM     40  CE  LYS B   1       7.361  22.310  19.810  1.00 12.42 LIG 0.23  C 
BRANCH 40 41
ATOM     41  NZ  LYS B   1       8.510  23.102  20.312  1.00 15.26 LIG-0.08  N 
ATOM     42 HZ1  LYS B   1       8.232  23.915  20.544  1.00 15.26 LIG 0.27  HD
ATOM     43 HZ2  LYS B   1       8.864  22.697  21.021  1.00 15.26 LIG 0.27  HD
ATOM     44 HZ3  LYS B   1       9.125  23.171  19.673  1.00 15.26 LIG 0.27  HD
ENDBRANCH 40 41
ENDBRANCH 39 40
ENDBRANCH 38 39
ENDBRANCH 37 38
ENDBRANCH 36 37
BRANCH 36 45
ATOM     45  N   LYS B   1       5.965  24.050  16.166  1.00  7.61 LIG-0.07  N 
ATOM     46 H1   LYS B   1       6.693  24.534  16.336  1.00  7.61 LIG 0.28  HD
ATOM     47 H3   LYS B   1       5.248  24.577  16.188  1.00  7.61 LIG 0.28  HD
ATOM     48 H2   LYS B   1       6.035  23.680  15.360  1.00  7.61 LIG 0.28  HD
ENDBRANCH 36 45
ENDBRANCH 34 36
ENDBRANCH 1 32
TORSDOF 23
ENDMDL
MODEL 4
USER: ADFR SOLUTION from run 50
USER: SCORE 22.667541 LL:  -1.689 LR: -21.642 RR:   0.000 FEB: -14.781
USER: RMSD 6.563807
USER: SEED 49
USER: STATUS 1 or 2 clusters left
USER: GENES 25
USER: genes 0 Translation |==|  0.73637 0.46221 0.36482
USER: genes 1 Rotation |==|  0.34269 0.78459 0.43998 0.87504
USER: genes 2 Torsion [C]-CA--CB-[CG] |==|  0.44760
USER: genes 3 Torsion [CA]-CB--CG-[CD] |==|  0.59224
USER: genes 4 Torsion [CB]-CG--CD-[CE] |==|  0.57763
USER: genes 5 Torsion [CG]-CD--CE-[NZ] |==|  0.63428
USER: genes 6 Torsion [CD]-CE--NZ-[HZ2] |==|  0.96032
USER: genes 7 Torsion [N]-CA--C-[N] |==|  0.45555
USER: genes 8 Torsion [C]-N--CA-[CB] |==|  0.53622
USER: genes 9 Torsion [N]-CA--CB-[CG] |==|  0.74203
USER: genes 10 Torsion [CA]-CB--CG-[CD] |==|  0.34113
USER: genes 11 Torsion [CB]-CG--CD-[CE] |==|  0.42092
USER: genes 12 Torsion [CG]-CD--CE-[NZ] |==|  0.41646
USER: genes 13 Torsion [CD]-CE--NZ-[HZ1] |==|  0.92804
USER: genes 14 Torsion [N]-CA--C-[N] |==|  0.40709
USER: genes 15 Torsion [C]-N--CA-[CB] |==|  0.27711
USER: genes 16 Torsion [N]-CA--C-[OXT] |==|  0.29612
USER: genes 17 Torsion [CB]-CA--N-[C] |==|  0.83889
USER: genes 18 Torsion [N]-C--CA-[N] |==|  0.98804
USER: genes 19 Torsion [C]-CA--CB-[CG] |==|  0.30904
USER: genes 20 Torsion [CA]-CB--CG-[CD] |==|  0.82529
USER: genes 21 Torsion [CB]-CG--CD-[CE] |==|  0.65934
USER: genes 22 Torsion [CG]-CD--CE-[NZ] |==|  0.78928
USER: genes 23 Torsion [CD]-CE--NZ-[HZ1] |==|  0.15460
USER: genes 24 Torsion [C]-CA--N-[H3] |==|  0.42827
ROOT
ATOM      1  CA  LYS B   2       6.443  18.571  13.277  1.00  9.55 LIG 0.18  C 
ENDROOT
BRANCH 1 2
ATOM      2  CB  LYS B   2       6.729  19.623  12.141  1.00  7.13 LIG 0.04  C 
BRANCH 2 3
ATOM      3  CG  LYS B   2       8.189  19.466  11.687  1.00  9.06 LIG 0.00  C 
BRANCH 3 4
ATOM      4  CD  LYS B   2       8.977  20.611  11.241  1.00 20.34 LIG 0.03  C 
BRANCH 4 5
ATOM      5  CE  LYS B   2      10.118  20.376  10.229  1.00 19.41 LIG 0.23  C 
BRANCH 5 6
ATOM      6  NZ  LYS B   2      11.387  21.024  10.628  1.00 27.89 LIG-0.08  N 
ATOM      7 HZ2  LYS B   2      11.228  21.610  11.279  1.00 27.89 LIG 0.27  HD
ATOM      8 HZ3  LYS B   2      11.957  20.406  10.920  1.00 27.89 LIG 0.27  HD
ATOM      9 HZ1  LYS B   2      11.739  21.445   9.928  1.00 27.89 LIG 0.27  HD
ENDBRANCH 5 6
ENDBRANCH 4 5
ENDBRANCH 3 4
ENDBRANCH 2 3
ENDBRANCH 1 2
BRANCH 1 10
ATOM     10  C   LYS B   2       5.225  18.919  14.099  1.00  8.95 LIG 0.24  C 
ATOM     11 O    LYS B   2       4.160  18.276  14.069  1.00  5.49 LIG-0.27  OA
ATOM     12  N   LYS B   3       5.339  19.959  14.981  1.00  9.84 LIG-0.35  N 
ATOM     13 H    LYS B   3       6.040  20.453  15.053  1.00  9.84 LIG 0.16  HD
BRANCH 12 14
ATOM     14  CA  LYS B   3       4.283  20.308  15.864  1.00  6.67 LIG 0.18  C 
BRANCH 14 15
ATOM     15  CB  LYS B   3       4.505  21.727  16.550  1.00  5.08 LIG 0.04  C 
BRANCH 15 16
ATOM     16  CG  LYS B   3       5.229  21.309  17.882  1.00 11.87 LIG 0.00  C 
BRANCH 16 17
ATOM     17  CD  LYS B   3       6.540  21.985  18.003  1.00 16.50 LIG 0.03  C 
BRANCH 17 18
ATOM     18  CE  LYS B   3       6.933  22.185  19.462  1.00 11.29 LIG 0.23  C 
BRANCH 18 19
ATOM     19  NZ  LYS B   3       8.402  22.167  19.643  1.00 14.74 LIG-0.08  N 
ATOM     20 HZ1  LYS B   3       8.776  21.690  18.991  1.00 14.74 LIG 0.27  HD
ATOM     21 HZ2  LYS B   3       8.715  23.000  19.618  1.00 14.74 LIG 0.27  HD
ATOM     22 HZ3  LYS B   3       8.601  21.800  20.429  1.00 14.74 LIG 0.27  HD
ENDBRANCH 18 19
ENDBRANCH 17 18
ENDBRANCH 16 17
ENDBRANCH 15 16
ENDBRANCH 14 15
BRANCH 14 23
ATOM     23  C   LYS B   3       2.947  20.446  15.126  1.00 11.62 LIG 0.24  C 
ATOM     24  N   ALA B   4       1.883  20.083  15.827  1.00 11.21 LIG-0.34  N 
ATOM     25 H    ALA B   4       1.908  19.745  16.617  1.00 11.21 LIG 0.16  HD
ATOM     26 O    LYS B   3       2.912  20.908  13.969  1.00  6.98 LIG-0.27  OA
BRANCH 24 27
ATOM     27  CA  ALA B   4       0.527  20.252  15.256  1.00 15.60 LIG 0.18  C 
ATOM     28  CB  ALA B   4       0.004  18.927  14.691  1.00  9.87 LIG 0.04  C 
BRANCH 27 29
ATOM     29  C   ALA B   4      -0.437  20.731  16.377  1.00 11.70 LIG 0.20  C 
ATOM     30 OXT  ALA B   4      -0.758  21.925  16.278  1.00 11.31 LIG-0.65  OA
ATOM     31 O    ALA B   4      -0.771  19.973  17.312  1.00 13.41 LIG-0.65  OA
ENDBRANCH 27 29
ENDBRANCH 24 27
ENDBRANCH 14 23
ENDBRANCH 12 14
ENDBRANCH 1 10
BRANCH 1 32
ATOM     32  N   LYS B   2       6.301  17.236  12.677  1.00  9.26 LIG-0.35  N 
ATOM     33 H    LYS B   2       6.864  16.670  12.996  1.00  9.26 LIG 0.16  HD
ATOM     34  C   LYS B   1       5.426  16.901  11.753  1.00  9.39 LIG 0.25  C 
ATOM     35 O    LYS B   1       4.533  17.683  11.354  1.00 10.41 LIG-0.27  OA
BRANCH 34 36
ATOM     36  CA  LYS B   1       5.442  15.487  11.181  1.00 10.02 LIG 0.27  C 
BRANCH 36 37
ATOM     37  CB  LYS B   1       4.110  14.739  11.445  1.00  9.48 LIG 0.04  C 
BRANCH 37 38
ATOM     38  CG  LYS B   1       3.256  14.463  10.231  1.00 17.99 LIG 0.00  C 
BRANCH 38 39
ATOM     39  CD  LYS B   1       2.756  15.727   9.516  1.00 11.58 LIG 0.03  C 
BRANCH 39 40
ATOM     40  CE  LYS B   1       1.228  15.783   9.411  1.00 12.42 LIG 0.23  C 
BRANCH 40 41
ATOM     41  NZ  LYS B   1       0.791  14.846   8.347  1.00 15.26 LIG-0.08  N 
ATOM     42 HZ1  LYS B   1       1.104  14.032   8.522  1.00 15.26 LIG 0.27  HD
ATOM     43 HZ2  LYS B   1      -0.099  14.821   8.319  1.00 15.26 LIG 0.27  HD
ATOM     44 HZ3  LYS B   1       1.104  15.122   7.562  1.00 15.26 LIG 0.27  HD
ENDBRANCH 40 41
ENDBRANCH 39 40
ENDBRANCH 38 39
ENDBRANCH 37 38
ENDBRANCH 36 37
BRANCH 36 45
ATOM     45  N   LYS B   1       6.595  14.749  11.759  1.00  7.61 LIG-0.07  N 
ATOM     46 H1   LYS B   1       7.325  14.912  11.276  1.00  7.61 LIG 0.28  HD
ATOM     47 H3   LYS B   1       6.423  13.875  11.750  1.00  7.61 LIG 0.28  HD
ATOM     48 H2   LYS B   1       6.729  15.015  12.597  1.00  7.61 LIG 0.28  HD
ENDBRANCH 36 45
ENDBRANCH 34 36
ENDBRANCH 1 32
TORSDOF 23
ENDMDL
MODEL 5
USER: ADFR SOLUTION from run 108
USER: SCORE 22.667106 LL:  -4.469 LR: -19.170 RR:   0.000 FEB: -12.309
USER: RMSD 6.146960
USER: SEED 107
USER: STATUS no improvement in best in 2 clusters for 5 generations
USER: GENES 25
USER: genes 0 Translation |==|  0.62598 0.51945 0.43928
USER: genes 1 Rotation |==|  0.98806 0.56004 0.54000 0.58117
USER: genes 2 Torsion [C]-CA--CB-[CG] |==|  0.25673
USER: genes 3 Torsion [CA]-CB--CG-[CD] |==|  0.28009
USER: genes 4 Torsion [CB]-CG--CD-[CE] |==|  0.93461
USER: genes 5 Torsion [CG]-CD--CE-[NZ] |==|  0.26489
USER: genes 6 Torsion [CD]-CE--NZ-[HZ2] |==|  0.01632
USER: genes 7 Torsion [N]-CA--C-[N] |==|  0.25427
USER: genes 8 Torsion [C]-N--CA-[CB] |==|  0.90720
USER: genes 9 Torsion [N]-CA--CB-[CG] |==|  0.66838
USER: genes 10 Torsion [CA]-CB--CG-[CD] |==|  0.11015
USER: genes 11 Torsion [CB]-CG--CD-[CE] |==|  0.50410
USER: genes 12 Torsion [CG]-CD--CE-[NZ] |==|  0.67247
USER: genes 13 Torsion [CD]-CE--NZ-[HZ1] |==|  0.94928
USER: genes 14 Torsion [N]-CA--C-[N] |==|  0.86777
USER: genes 15 Torsion [C]-N--CA-[CB] |==|  0.16246
USER: genes 16 Torsion [N]-CA--C-[OXT] |==|  0.76053
USER: genes 17 Torsion [CB]-CA--N-[C] |==|  0.77776
USER: genes 18 Torsion [N]-C--CA-[N] |==|  0.23308
USER: genes 19 Torsion [C]-CA--CB-[CG] |==|  0.60601
USER: genes 20 Torsion [CA]-CB--CG-[CD] |==|  0.36702
USER: genes 21 Torsion [CB]-CG--CD-[CE] |==|  0.03981
USER: genes 22 Torsion [CG]-CD--CE-[NZ] |==|  0.58941
USER: genes 23 Torsion [CD]-CE--NZ-[HZ1] |==|  0.52393
USER: genes 24 Torsion [C]-CA--N-[H3] |==|  0.55688
ROOT
ATOM      1  CA  LYS B   2       4.125  19.601  14.673  1.00  9.55 LIG 0.18  C 
ENDROOT
BRANCH 1 2
ATOM      2  CB  LYS B   2       4.908  18.241  14.795  1.00  7.13 LIG 0.04  C 
BRANCH 2 3
ATOM      3  CG  LYS B   2       4.586  17.379  13.565  1.00  9.06 LIG 0.00  C 
BRANCH 3 4
ATOM      4  CD  LYS B   2       5.513  17.275  12.441  1.00 20.34 LIG 0.03  C 
BRANCH 4 5
ATOM      5  CE  LYS B   2       6.535  18.409  12.216  1.00 19.41 LIG 0.23  C 
BRANCH 5 6
ATOM      6  NZ  LYS B   2       7.853  18.126  12.825  1.00 27.89 LIG-0.08  N 
ATOM      7 HZ2  LYS B   2       7.858  17.298  13.152  1.00 27.89 LIG 0.27  HD
ATOM      8 HZ3  LYS B   2       8.489  18.203  12.208  1.00 27.89 LIG 0.27  HD
ATOM      9 HZ1  LYS B   2       8.007  18.706  13.483  1.00 27.89 LIG 0.27  HD
ENDBRANCH 5 6
ENDBRANCH 4 5
ENDBRANCH 3 4
ENDBRANCH 2 3
ENDBRANCH 1 2
BRANCH 1 10
ATOM     10  C   LYS B   2       2.778  19.560  15.355  1.00  8.95 LIG 0.24  C 
ATOM     11 O    LYS B   2       2.563  18.974  16.432  1.00  5.49 LIG-0.27  OA
ATOM     12  N   LYS B   3       1.763  20.279  14.785  1.00  9.84 LIG-0.35  N 
ATOM     13 H    LYS B   3       1.834  20.703  14.040  1.00  9.84 LIG 0.16  HD
BRANCH 12 14
ATOM     14  CA  LYS B   3       0.486  20.379  15.396  1.00  6.67 LIG 0.18  C 
BRANCH 14 15
ATOM     15  CB  LYS B   3       0.082  19.059  16.187  1.00  5.08 LIG 0.04  C 
BRANCH 15 16
ATOM     16  CG  LYS B   3      -1.225  18.634  15.421  1.00 11.87 LIG 0.00  C 
BRANCH 16 17
ATOM     17  CD  LYS B   3      -1.076  18.854  13.965  1.00 16.50 LIG 0.03  C 
BRANCH 17 18
ATOM     18  CE  LYS B   3      -2.347  18.482  13.210  1.00 11.29 LIG 0.23  C 
BRANCH 18 19
ATOM     19  NZ  LYS B   3      -2.115  17.376  12.254  1.00 14.74 LIG-0.08  N 
ATOM     20 HZ1  LYS B   3      -1.243  17.300  12.094  1.00 14.74 LIG 0.27  HD
ATOM     21 HZ2  LYS B   3      -2.420  16.614  12.600  1.00 14.74 LIG 0.27  HD
ATOM     22 HZ3  LYS B   3      -2.542  17.547  11.493  1.00 14.74 LIG 0.27  HD
ENDBRANCH 18 19
ENDBRANCH 17 18
ENDBRANCH 16 17
ENDBRANCH 15 16
ENDBRANCH 14 15
BRANCH 14 23
ATOM     23  C   LYS B   3       0.447  21.485  16.457  1.00 11.62 LIG 0.24  C 
ATOM     24  N   ALA B   4       1.460  21.476  17.310  1.00 11.21 LIG-0.34  N 
ATOM     25 H    ALA B   4       2.080  20.880  17.329  1.00 11.21 LIG 0.16  HD
ATOM     26 O    LYS B   3      -0.469  22.332  16.450  1.00  6.98 LIG-0.27  OA
BRANCH 24 27
ATOM     27  CA  ALA B   4       1.582  22.545  18.328  1.00 15.60 LIG 0.18  C 
ATOM     28  CB  ALA B   4       0.338  22.592  19.222  1.00  9.87 LIG 0.04  C 
BRANCH 27 29
ATOM     29  C   ALA B   4       2.824  22.257  19.216  1.00 11.70 LIG 0.20  C 
ATOM     30 OXT  ALA B   4       2.586  21.501  20.170  1.00 11.31 LIG-0.65  OA
ATOM     31 O    ALA B   4       3.920  22.815  18.997  1.00 13.41 LIG-0.65  OA
ENDBRANCH 27 29
ENDBRANCH 24 27
ENDBRANCH 14 23
ENDBRANCH 12 14
ENDBRANCH 1 10
BRANCH 1 32
ATOM     32  N   LYS B   2       4.952  20.687  15.220  1.00  9.26 LIG-0.35  N 
ATOM     33 H    LYS B   2       5.351  21.138  14.605  1.00  9.26 LIG 0.16  HD
ATOM     34  C   LYS B   1       5.096  20.973  16.496  1.00  9.39 LIG 0.25  C 
ATOM     35 O    LYS B   1       4.443  20.395  17.394  1.00 10.41 LIG-0.27  OA
BRANCH 34 36
ATOM     36  CA  LYS B   1       6.042  22.094  16.912  1.00 10.02 LIG 0.27  C 
BRANCH 36 37
ATOM     37  CB  LYS B   1       6.606  21.876  18.341  1.00  9.48 LIG 0.04  C 
BRANCH 37 38
ATOM     38  CG  LYS B   1       6.756  23.117  19.186  1.00 17.99 LIG 0.00  C 
BRANCH 38 39
ATOM     39  CD  LYS B   1       6.186  22.980  20.607  1.00 11.58 LIG 0.03  C 
BRANCH 39 40
ATOM     40  CE  LYS B   1       5.901  21.525  20.993  1.00 12.42 LIG 0.23  C 
BRANCH 40 41
ATOM     41  NZ  LYS B   1       4.733  21.497  21.907  1.00 15.26 LIG-0.08  N 
ATOM     42 HZ1  LYS B   1       4.633  20.676  22.236  1.00 15.26 LIG 0.27  HD
ATOM     43 HZ2  LYS B   1       4.864  22.070  22.575  1.00 15.26 LIG 0.27  HD
ATOM     44 HZ3  LYS B   1       4.000  21.727  21.458  1.00 15.26 LIG 0.27  HD
ENDBRANCH 40 41
ENDBRANCH 39 40
ENDBRANCH 38 39
ENDBRANCH 37 38
ENDBRANCH 36 37
BRANCH 36 45
ATOM     45  N   LYS B   1       5.322  23.391  16.812  1.00  7.61 LIG-0.07  N 
ATOM     46 H1   LYS B   1       4.810  23.391  16.084  1.00  7.61 LIG 0.28  HD
ATOM     47 H3   LYS B   1       5.913  24.055  16.759  1.00  7.61 LIG 0.28  HD
ATOM     48 H2   LYS B   1       4.813  23.505  17.533  1.00  7.61 LIG 0.28  HD
ENDBRANCH 36 45
ENDBRANCH 34 36
ENDBRANCH 1 32
TORSDOF 23
ENDMDL
