MODEL 1
USER: ADFR SOLUTION from run 42
USER: SCORE 24.998718 LL:  -1.157 LR: -23.879 RR:   0.000 FEB: -17.913
USER: RMSD 0.760752
USER: SEED 41
USER: STATUS 1 or 2 clusters left
USER: GENES 22
USER: genes 0 Translation |==|  0.58918 0.60113 0.50054
USER: genes 1 Rotation |==|  0.51184 0.51027 0.50483 0.99973
USER: genes 2 Torsion [N]-CA--C-[N] |==|  0.38882
USER: genes 3 Torsion [C]-N--CA-[CB] |==|  0.26849
USER: genes 4 Torsion [N]-CA--CB-[CG] |==|  0.64268
USER: genes 5 Torsion [CA]-CB--CG-[CD] |==|  0.55641
USER: genes 6 Torsion [CB]-CG--CD-[CE] |==|  0.41978
USER: genes 7 Torsion [CG]-CD--CE-[NZ] |==|  0.11886
USER: genes 8 Torsion [CD]-CE--NZ-[HZ2] |==|  0.88072
USER: genes 9 Torsion [N]-CA--C-[OXT] |==|  0.62587
USER: genes 10 Torsion [C]-CA--CB-[CG] |==|  0.50368
USER: genes 11 Torsion [CA]-CB--CG-[CD] |==|  0.71892
USER: genes 12 Torsion [CB]-CG--CD-[NE] |==|  0.47688
USER: genes 13 Torsion [CG]-CD--NE-[CZ] |==|  0.61212
USER: genes 14 Torsion [C]-CA--N-[C] |==|  0.79004
USER: genes 15 Torsion [N]-C--CA-[N] |==|  0.43961
USER: genes 16 Torsion [C]-CA--CB-[CG] |==|  0.80876
USER: genes 17 Torsion [CA]-CB--CG-[CD] |==|  0.59112
USER: genes 18 Torsion [CB]-CG--CD-[CE] |==|  0.35951
USER: genes 19 Torsion [CG]-CD--CE-[NZ] |==|  0.82203
USER: genes 20 Torsion [CD]-CE--NZ-[HZ1] |==|  0.48703
USER: genes 21 Torsion [C]-CA--N-[H3] |==|  0.32707
ROOT
ATOM      1  CA  ARG B   2       4.011  20.265  16.162  1.00 11.61 LIG 0.18  C 
ENDROOT
BRANCH 1 2
ATOM      2  C   ARG B   2       2.638  20.100  15.489  1.00 11.69 LIG 0.24  C 
ATOM      3 O    ARG B   2       2.512  20.352  14.277  1.00 13.49 LIG-0.27  OA
ATOM      4  N   LYS B   3       1.656  19.855  16.348  1.00 11.79 LIG-0.34  N 
ATOM      5 H    LYS B   3       1.773  19.723  17.189  1.00 11.79 LIG 0.16  HD
BRANCH 4 6
ATOM      6  CA  LYS B   3       0.268  19.790  15.913  1.00 12.23 LIG 0.18  C 
BRANCH 6 7
ATOM      7  CB  LYS B   3      -0.289  18.401  15.632  1.00 16.61 LIG 0.04  C 
BRANCH 7 8
ATOM      8  CG  LYS B   3      -0.934  18.448  14.212  1.00 15.25 LIG 0.00  C 
BRANCH 8 9
ATOM      9  CD  LYS B   3      -1.911  17.314  14.071  1.00 19.49 LIG 0.03  C 
BRANCH 9 10
ATOM     10  CE  LYS B   3      -3.063  17.557  13.134  1.00 20.50 LIG 0.23  C 
BRANCH 10 11
ATOM     11  NZ  LYS B   3      -2.793  18.215  11.842  1.00 17.12 LIG-0.08  N 
ATOM     12 HZ3  LYS B   3      -2.429  17.629  11.280  1.00 17.12 LIG 0.27  HD
ATOM     13 HZ2  LYS B   3      -2.232  18.895  11.966  1.00 17.12 LIG 0.27  HD
ATOM     14 HZ1  LYS B   3      -3.556  18.520  11.499  1.00 17.12 LIG 0.27  HD
ENDBRANCH 10 11
ENDBRANCH 9 10
ENDBRANCH 8 9
ENDBRANCH 7 8
ENDBRANCH 6 7
BRANCH 6 15
ATOM     15  C   LYS B   3      -0.670  20.492  16.911  1.00 15.15 LIG 0.20  C 
ATOM     16 OXT  LYS B   3      -1.742  19.965  17.277  1.00 13.10 LIG-0.65  OA
ATOM     17 O    LYS B   3      -0.262  21.520  17.490  1.00 18.27 LIG-0.65  OA
ENDBRANCH 6 15
ENDBRANCH 4 6
ENDBRANCH 1 2
BRANCH 1 18
ATOM     18  CB  ARG B   2       4.163  21.803  16.311  1.00  9.62 LIG 0.04  C 
BRANCH 18 19
ATOM     19  CG  ARG B   2       5.513  22.207  16.948  1.00 12.84 LIG 0.02  C 
BRANCH 19 20
ATOM     20  CD  ARG B   2       5.416  22.568  18.439  1.00 14.09 LIG 0.14  C 
BRANCH 20 21
ATOM     21  NE  ARG B   2       6.782  22.730  18.947  1.00 12.97 LIG-0.23  N 
ATOM     22  CZ  ARG B   2       7.317  22.350  20.102  1.00 16.36 LIG 0.67  C 
ATOM     23  NH1 ARG B   2       6.585  21.760  21.033  1.00 13.20 LIG-0.23  N 
ATOM     24  NH2 ARG B   2       8.630  22.534  20.322  1.00 14.54 LIG-0.23  N 
ATOM     25 2HH1 ARG B   2       6.946  21.520  21.775  1.00 13.20 LIG 0.17  HD
ATOM     26 1HH1 ARG B   2       5.749  21.618  20.896  1.00 13.20 LIG 0.17  HD
ATOM     27 2HH2 ARG B   2       8.979  22.289  21.069  1.00 14.54 LIG 0.17  HD
ATOM     28 1HH2 ARG B   2       9.120  22.897  19.716  1.00 14.54 LIG 0.17  HD
ATOM     29 HE   ARG B   2       7.321  23.134  18.414  1.00 12.97 LIG 0.18  HD
ENDBRANCH 20 21
ENDBRANCH 19 20
ENDBRANCH 18 19
ENDBRANCH 1 18
BRANCH 1 30
ATOM     30  N   ARG B   2       5.082  19.653  15.436  1.00 10.63 LIG-0.35  N 
ATOM     31 H    ARG B   2       5.572  20.223  15.017  1.00 10.63 LIG 0.16  HD
ATOM     32  C   LYS B   1       5.316  18.356  15.395  1.00 11.74 LIG 0.25  C 
ATOM     33 O    LYS B   1       4.680  17.523  16.063  1.00 12.52 LIG-0.27  OA
BRANCH 32 34
ATOM     34  CA  LYS B   1       6.506  17.885  14.563  1.00  9.37 LIG 0.27  C 
BRANCH 34 35
ATOM     35  CB  LYS B   1       6.118  17.909  13.071  1.00 13.51 LIG 0.04  C 
BRANCH 35 36
ATOM     36  CG  LYS B   1       5.075  16.855  12.675  1.00 12.33 LIG 0.00  C 
BRANCH 36 37
ATOM     37  CD  LYS B   1       5.384  16.422  11.222  1.00 17.49 LIG 0.03  C 
BRANCH 37 38
ATOM     38  CE  LYS B   1       5.440  14.889  11.169  1.00 17.87 LIG 0.23  C 
BRANCH 38 39
ATOM     39  NZ  LYS B   1       6.571  14.395  12.002  1.00 17.55 LIG-0.08  N 
ATOM     40 HZ1  LYS B   1       6.558  13.506  12.023  1.00 17.55 LIG 0.27  HD
ATOM     41 HZ2  LYS B   1       7.341  14.672  11.652  1.00 17.55 LIG 0.27  HD
ATOM     42 HZ3  LYS B   1       6.490  14.711  12.831  1.00 17.55 LIG 0.27  HD
ENDBRANCH 38 39
ENDBRANCH 37 38
ENDBRANCH 36 37
ENDBRANCH 35 36
ENDBRANCH 34 35
BRANCH 34 43
ATOM     43  N   LYS B   1       6.946  16.530  15.027  1.00  9.31 LIG-0.07  N 
ATOM     44 H1   LYS B   1       7.800  16.564  15.273  1.00  9.31 LIG 0.28  HD
ATOM     45 H3   LYS B   1       6.851  15.943  14.364  1.00  9.31 LIG 0.28  HD
ATOM     46 H2   LYS B   1       6.447  16.277  15.720  1.00  9.31 LIG 0.28  HD
ENDBRANCH 34 43
ENDBRANCH 32 34
ENDBRANCH 1 30
TORSDOF 20
ENDMDL
MODEL 2
USER: ADFR SOLUTION from run 41
USER: SCORE 22.989441 LL:  -0.925 LR: -22.862 RR:   0.000 FEB: -16.896
USER: RMSD 7.036739
USER: SEED 40
USER: STATUS 1 or 2 clusters left
USER: GENES 22
USER: genes 0 Translation |==|  0.56828 0.59431 0.43451
USER: genes 1 Rotation |==|  0.90771 0.26358 0.33314 0.50600
USER: genes 2 Torsion [N]-CA--C-[N] |==|  0.80592
USER: genes 3 Torsion [C]-N--CA-[CB] |==|  0.85097
USER: genes 4 Torsion [N]-CA--CB-[CG] |==|  0.55078
USER: genes 5 Torsion [CA]-CB--CG-[CD] |==|  0.26034
USER: genes 6 Torsion [CB]-CG--CD-[CE] |==|  0.23802
USER: genes 7 Torsion [CG]-CD--CE-[NZ] |==|  0.04429
USER: genes 8 Torsion [CD]-CE--NZ-[HZ2] |==|  0.18214
USER: genes 9 Torsion [N]-CA--C-[OXT] |==|  0.30767
USER: genes 10 Torsion [C]-CA--CB-[CG] |==|  0.23981
USER: genes 11 Torsion [CA]-CB--CG-[CD] |==|  0.47335
USER: genes 12 Torsion [CB]-CG--CD-[NE] |==|  0.62948
USER: genes 13 Torsion [CG]-CD--NE-[CZ] |==|  0.41482
USER: genes 14 Torsion [C]-CA--N-[C] |==|  0.23332
USER: genes 15 Torsion [N]-C--CA-[N] |==|  0.56181
USER: genes 16 Torsion [C]-CA--CB-[CG] |==|  0.85336
USER: genes 17 Torsion [CA]-CB--CG-[CD] |==|  0.65277
USER: genes 18 Torsion [CB]-CG--CD-[CE] |==|  0.32178
USER: genes 19 Torsion [CG]-CD--CE-[NZ] |==|  0.71269
USER: genes 20 Torsion [CD]-CE--NZ-[HZ1] |==|  0.23669
USER: genes 21 Torsion [C]-CA--N-[H3] |==|  0.14684
ROOT
ATOM      1  CA  ARG B   2       3.556  20.147  14.875  1.00 11.61 LIG 0.18  C 
ENDROOT
BRANCH 1 2
ATOM      2  C   ARG B   2       3.642  21.077  16.096  1.00 11.69 LIG 0.24  C 
ATOM      3 O    ARG B   2       3.749  22.306  15.928  1.00 13.49 LIG-0.27  OA
ATOM      4  N   LYS B   3       3.765  20.428  17.247  1.00 11.79 LIG-0.34  N 
ATOM      5 H    LYS B   3       3.725  19.572  17.323  1.00 11.79 LIG 0.16  HD
BRANCH 4 6
ATOM      6  CA  LYS B   3       3.983  21.138  18.499  1.00 12.23 LIG 0.18  C 
BRANCH 6 7
ATOM      7  CB  LYS B   3       5.156  22.108  18.532  1.00 16.61 LIG 0.04  C 
BRANCH 7 8
ATOM      8  CG  LYS B   3       5.482  22.376  20.034  1.00 15.25 LIG 0.00  C 
BRANCH 8 9
ATOM      9  CD  LYS B   3       6.556  21.427  20.488  1.00 19.49 LIG 0.03  C 
BRANCH 9 10
ATOM     10  CE  LYS B   3       7.971  21.867  20.228  1.00 20.50 LIG 0.23  C 
BRANCH 10 11
ATOM     11  NZ  LYS B   3       8.218  23.284  19.902  1.00 17.12 LIG-0.08  N 
ATOM     12 HZ3  LYS B   3       9.077  23.396  19.693  1.00 17.12 LIG 0.27  HD
ATOM     13 HZ2  LYS B   3       8.017  23.791  20.605  1.00 17.12 LIG 0.27  HD
ATOM     14 HZ1  LYS B   3       7.712  23.523  19.210  1.00 17.12 LIG 0.27  HD
ENDBRANCH 10 11
ENDBRANCH 9 10
ENDBRANCH 8 9
ENDBRANCH 7 8
ENDBRANCH 6 7
BRANCH 6 15
ATOM     15  C   LYS B   3       2.719  21.895  18.945  1.00 15.15 LIG 0.20  C 
ATOM     16 OXT  LYS B   3       2.067  21.535  19.949  1.00 13.10 LIG-0.65  OA
ATOM     17 O    LYS B   3       2.450  22.983  18.395  1.00 18.27 LIG-0.65  OA
ENDBRANCH 6 15
ENDBRANCH 4 6
ENDBRANCH 1 2
BRANCH 1 18
ATOM     18  CB  ARG B   2       2.393  19.182  15.233  1.00  9.62 LIG 0.04  C 
BRANCH 18 19
ATOM     19  CG  ARG B   2       1.009  19.748  14.836  1.00 12.84 LIG 0.02  C 
BRANCH 19 20
ATOM     20  CD  ARG B   2      -0.139  18.733  14.959  1.00 14.09 LIG 0.14  C 
BRANCH 20 21
ATOM     21  NE  ARG B   2      -0.936  18.813  13.732  1.00 12.97 LIG-0.23  N 
ATOM     22  CZ  ARG B   2      -1.637  17.876  13.103  1.00 16.36 LIG 0.67  C 
ATOM     23  NH1 ARG B   2      -1.657  16.628  13.541  1.00 13.20 LIG-0.23  N 
ATOM     24  NH2 ARG B   2      -2.367  18.201  12.022  1.00 14.54 LIG-0.23  N 
ATOM     25 2HH1 ARG B   2      -2.116  16.033  13.124  1.00 13.20 LIG 0.17  HD
ATOM     26 1HH1 ARG B   2      -1.212  16.412  14.244  1.00 13.20 LIG 0.17  HD
ATOM     27 2HH2 ARG B   2      -2.822  17.596  11.614  1.00 14.54 LIG 0.17  HD
ATOM     28 1HH2 ARG B   2      -2.378  19.013  11.740  1.00 14.54 LIG 0.17  HD
ATOM     29 HE   ARG B   2      -0.952  19.587  13.360  1.00 12.97 LIG 0.18  HD
ENDBRANCH 20 21
ENDBRANCH 19 20
ENDBRANCH 18 19
ENDBRANCH 1 18
BRANCH 1 30
ATOM     30  N   ARG B   2       4.785  19.474  14.579  1.00 10.63 LIG-0.35  N 
ATOM     31 H    ARG B   2       5.250  19.874  13.976  1.00 10.63 LIG 0.16  HD
ATOM     32  C   LYS B   1       5.186  18.358  15.155  1.00 11.74 LIG 0.25  C 
ATOM     33 O    LYS B   1       4.577  17.812  16.091  1.00 12.52 LIG-0.27  OA
BRANCH 32 34
ATOM     34  CA  LYS B   1       6.528  17.783  14.709  1.00  9.37 LIG 0.27  C 
BRANCH 34 35
ATOM     35  CB  LYS B   1       6.732  18.083  13.211  1.00 13.51 LIG 0.04  C 
BRANCH 35 36
ATOM     36  CG  LYS B   1       5.567  17.639  12.316  1.00 12.33 LIG 0.00  C 
BRANCH 36 37
ATOM     37  CD  LYS B   1       6.151  16.716  11.220  1.00 17.49 LIG 0.03  C 
BRANCH 37 38
ATOM     38  CE  LYS B   1       5.562  15.310  11.397  1.00 17.87 LIG 0.23  C 
BRANCH 38 39
ATOM     39  NZ  LYS B   1       6.571  14.414  12.026  1.00 17.55 LIG-0.08  N 
ATOM     40 HZ1  LYS B   1       6.536  14.502  12.911  1.00 17.55 LIG 0.27  HD
ATOM     41 HZ2  LYS B   1       6.396  13.569  11.805  1.00 17.55 LIG 0.27  HD
ATOM     42 HZ3  LYS B   1       7.384  14.634  11.739  1.00 17.55 LIG 0.27  HD
ENDBRANCH 38 39
ENDBRANCH 37 38
ENDBRANCH 36 37
ENDBRANCH 35 36
ENDBRANCH 34 35
BRANCH 34 43
ATOM     43  N   LYS B   1       6.581  16.318  15.020  1.00  9.31 LIG-0.07  N 
ATOM     44 H1   LYS B   1       7.319  15.967  14.667  1.00  9.31 LIG 0.28  HD
ATOM     45 H3   LYS B   1       5.866  15.915  14.676  1.00  9.31 LIG 0.28  HD
ATOM     46 H2   LYS B   1       6.590  16.203  15.902  1.00  9.31 LIG 0.28  HD
ENDBRANCH 34 43
ENDBRANCH 32 34
ENDBRANCH 1 30
TORSDOF 20
ENDMDL
