MODEL 1
USER: ADFR SOLUTION from run 90
USER: SCORE 21.101650 LL:  -4.300 LR: -18.873 RR:   0.000 FEB: -11.117
USER: RMSD 2.672443
USER: SEED 89
USER: STATUS no improvement in best in 3 clusters for 5 generations
USER: GENES 28
USER: genes 0 Translation |==|  0.50070 0.55436 0.39779
USER: genes 1 Rotation |==|  0.60180 0.34491 0.64548 0.94093
USER: genes 2 Torsion [CB]-CA--N-[C] |==|  0.84724
USER: genes 3 Torsion [N]-C--CA-[N] |==|  0.91667
USER: genes 4 Torsion [C]-CA--N-[C] |==|  0.80129
USER: genes 5 Torsion [N]-C--CA-[N] |==|  0.18824
USER: genes 6 Torsion [C]-CA--CB-[CG2] |==|  0.53309
USER: genes 7 Torsion [C]-CA--N-[C] |==|  0.74977
USER: genes 8 Torsion [C]-CA--CB-[CG] |==|  0.43476
USER: genes 9 Torsion [CA]-CB--CG-[CD] |==|  0.59805
USER: genes 10 Torsion [CB]-CG--CD-[CE] |==|  0.81189
USER: genes 11 Torsion [CG]-CD--CE-[NZ] |==|  0.41652
USER: genes 12 Torsion [CD]-CE--NZ-[HZ1] |==|  0.96255
USER: genes 13 Torsion [N]-CA--CB-[CG] |==|  0.74570
USER: genes 14 Torsion [CA]-CB--CG-[CD] |==|  0.63369
USER: genes 15 Torsion [CB]-CG--CD-[OE2] |==|  0.37131
USER: genes 16 Torsion [N]-CA--C-[N] |==|  0.31365
USER: genes 17 Torsion [C]-N--CA-[CB] |==|  0.27557
USER: genes 18 Torsion [N]-CA--CB-[OG] |==|  0.35010
USER: genes 19 Torsion [CA]-CB--OG-[HG] |==|  0.32846
USER: genes 20 Torsion [N]-CA--C-[N] |==|  0.28749
USER: genes 21 Torsion [C]-N--CA-[C] |==|  0.79441
USER: genes 22 Torsion [N]-CA--CB-[CG] |==|  0.46211
USER: genes 23 Torsion [CA]-CB--CG-[CD2] |==|  0.52538
USER: genes 24 Torsion [N]-CA--C-[N] |==|  0.35635
USER: genes 25 Torsion [C]-N--CA-[CB] |==|  0.35921
USER: genes 26 Torsion [N]-CA--CB-[CG2] |==|  0.05105
USER: genes 27 Torsion [N]-CA--C-[OXT] |==|  0.44410
ROOT
ATOM      1  CA  GLU B   4      12.422  27.891   1.240  1.00 36.20 LIG 0.18  C 
ENDROOT
BRANCH 1 2
ATOM      2  N   GLU B   4      12.095  27.480  -0.118  1.00 38.17 LIG-0.35  N 
ATOM      3  C   LYS B   3      11.104  26.630  -0.350  1.00 41.21 LIG 0.24  C 
ATOM      4 O    LYS B   3      10.439  26.132   0.550  1.00 41.12 LIG-0.27  OA
ATOM      5 H    GLU B   4      12.589  27.829  -0.729  1.00 38.17 LIG 0.16  HD
BRANCH 3 6
ATOM      6  CA  LYS B   3      10.824  26.271  -1.803  1.00 44.69 LIG 0.18  C 
BRANCH 6 7
ATOM      7  N   LYS B   3      11.192  27.412  -2.631  1.00 47.57 LIG-0.35  N 
ATOM      8 H    LYS B   3      11.903  27.295  -3.102  1.00 47.57 LIG 0.16  HD
ATOM      9  C   VAL B   2      10.474  28.529  -2.641  1.00 51.36 LIG 0.24  C 
ATOM     10 O    VAL B   2       9.442  28.667  -1.982  1.00 50.65 LIG-0.27  OA
BRANCH 9 11
ATOM     11  CA  VAL B   2      10.991  29.654  -3.537  1.00 54.60 LIG 0.18  C 
BRANCH 11 12
ATOM     12  CB  VAL B   2      10.187  30.935  -3.227  1.00 55.00 LIG 0.01  C 
ATOM     13  CG2 VAL B   2      10.462  31.989  -4.287  1.00 55.89 LIG 0.01  C 
ATOM     14  CG1 VAL B   2      10.547  31.457  -1.844  1.00 55.16 LIG 0.01  C 
ENDBRANCH 11 12
BRANCH 11 15
ATOM     15  N   VAL B   2      10.880  29.293  -4.944  1.00 57.28 LIG-0.35  N 
ATOM     16  C   ACE B   1      11.867  28.671  -5.579  1.00 59.28 LIG 0.21  C 
ATOM     17  CH3 ACE B   1      11.852  28.977  -7.078  1.00 59.28 LIG 0.12  C 
ATOM     18 O    ACE B   1      12.404  27.649  -5.144  1.00 59.66 LIG-0.27  OA
ATOM     19 H    VAL B   2      10.134  29.515  -5.312  1.00 57.28 LIG 0.16  HD
ENDBRANCH 11 15
ENDBRANCH 9 11
ENDBRANCH 6 7
BRANCH 6 20
ATOM     20  CB  LYS B   3      11.647  25.042  -2.192  1.00 46.54 LIG 0.04  C 
BRANCH 20 21
ATOM     21  CG  LYS B   3      11.082  24.246  -3.369  1.00 48.43 LIG 0.00  C 
BRANCH 21 22
ATOM     22  CD  LYS B   3      11.311  22.751  -3.211  1.00 51.26 LIG 0.03  C 
BRANCH 22 23
ATOM     23  CE  LYS B   3      12.798  22.409  -3.311  1.00 52.85 LIG 0.23  C 
BRANCH 23 24
ATOM     24  NZ  LYS B   3      13.156  21.206  -2.498  1.00 53.96 LIG-0.08  N 
ATOM     25 HZ1  LYS B   3      12.486  21.011  -1.944  1.00 53.96 LIG 0.27  HD
ATOM     26 HZ2  LYS B   3      13.303  20.515  -3.040  1.00 53.96 LIG 0.27  HD
ATOM     27 HZ3  LYS B   3      13.891  21.374  -2.026  1.00 53.96 LIG 0.27  HD
ENDBRANCH 23 24
ENDBRANCH 22 23
ENDBRANCH 21 22
ENDBRANCH 20 21
ENDBRANCH 6 20
ENDBRANCH 3 6
ENDBRANCH 1 2
BRANCH 1 28
ATOM     28  CB  GLU B   4      11.186  28.470   1.944  1.00 35.98 LIG 0.04  C 
BRANCH 28 29
ATOM     29  CG  GLU B   4      11.006  29.962   1.819  1.00 37.93 LIG 0.12  C 
BRANCH 29 30
ATOM     30  CD  GLU B   4      10.717  30.619   3.161  1.00 39.47 LIG 0.17  C 
ATOM     31 OE2  GLU B   4      11.344  31.656   3.463  1.00 43.33 LIG-0.65  OA
ATOM     32 OE1  GLU B   4       9.859  30.110   3.915  1.00 37.30 LIG-0.65  OA
ENDBRANCH 29 30
ENDBRANCH 28 29
ENDBRANCH 1 28
BRANCH 1 33
ATOM     33  C   GLU B   4      13.013  26.729   2.018  1.00 33.76 LIG 0.24  C 
ATOM     34  N   SER B   5      14.292  26.856   2.356  1.00 31.01 LIG-0.34  N 
ATOM     35 H    SER B   5      14.763  27.554   2.177  1.00 31.01 LIG 0.16  HD
ATOM     36 O    GLU B   4      12.333  25.745   2.294  1.00 33.71 LIG-0.27  OA
BRANCH 34 37
ATOM     37  CA  SER B   5      15.023  25.815   3.066  1.00 29.36 LIG 0.20  C 
BRANCH 37 38
ATOM     38  CB  SER B   5      15.853  25.010   2.053  1.00 29.82 LIG 0.20  C 
BRANCH 38 39
ATOM     39 OG   SER B   5      17.221  24.956   2.415  1.00 30.14 LIG-0.40  OA
ATOM     40 HG   SER B   5      17.444  24.156   2.547  1.00 30.14 LIG 0.21  HD
ENDBRANCH 38 39
ENDBRANCH 37 38
BRANCH 37 41
ATOM     41  C   SER B   5      15.925  26.409   4.145  1.00 27.47 LIG 0.24  C 
ATOM     42  N   LEU B   6      15.491  26.299   5.399  1.00 25.92 LIG-0.35  N 
ATOM     43 H    LEU B   6      14.756  25.908   5.618  1.00 25.92 LIG 0.16  HD
ATOM     44 O    SER B   5      16.981  26.970   3.838  1.00 25.56 LIG-0.27  OA
BRANCH 42 45
ATOM     45  CA  LEU B   6      16.239  26.840   6.530  1.00 26.46 LIG 0.18  C 
BRANCH 45 46
ATOM     46  CB  LEU B   6      15.347  26.887   7.768  1.00 26.39 LIG 0.04  C 
BRANCH 46 47
ATOM     47  CG  LEU B   6      16.023  27.119   9.124  1.00 27.12 LIG-0.02  C 
ATOM     48  CD2 LEU B   6      15.021  26.912  10.266  1.00 29.87 LIG 0.01  C 
ATOM     49  CD1 LEU B   6      16.573  28.541   9.163  1.00 28.95 LIG 0.01  C 
ENDBRANCH 46 47
ENDBRANCH 45 46
BRANCH 45 50
ATOM     50  C   LEU B   6      17.478  26.003   6.862  1.00 25.78 LIG 0.24  C 
ATOM     51 O    LEU B   6      17.406  24.784   7.028  1.00 25.66 LIG-0.27  OA
ATOM     52  N   VAL B   7      18.614  26.672   6.952  1.00 26.68 LIG-0.34  N 
ATOM     53 H    VAL B   7      18.689  27.516   6.805  1.00 26.68 LIG 0.16  HD
BRANCH 52 54
ATOM     54  CA  VAL B   7      19.858  26.011   7.315  1.00 27.56 LIG 0.19  C 
BRANCH 54 55
ATOM     55  CB  VAL B   7      20.989  26.348   6.312  1.00 27.96 LIG 0.01  C 
ATOM     56  CG1 VAL B   7      21.214  25.157   5.376  1.00 28.38 LIG 0.01  C 
ATOM     57  CG2 VAL B   7      20.654  27.581   5.509  1.00 27.67 LIG 0.01  C 
ENDBRANCH 54 55
BRANCH 54 58
ATOM     58  C   VAL B   7      20.207  26.517   8.718  1.00 29.18 LIG 0.20  C 
ATOM     59 OXT  VAL B   7      20.999  25.854   9.432  1.00 29.88 LIG-0.65  OA
ATOM     60 O    VAL B   7      19.655  27.581   9.083  1.00 27.49 LIG-0.65  OA
ENDBRANCH 54 58
ENDBRANCH 52 54
ENDBRANCH 45 50
ENDBRANCH 42 45
ENDBRANCH 37 41
ENDBRANCH 34 37
ENDBRANCH 1 33
TORSDOF 26
ENDMDL
MODEL 2
USER: ADFR SOLUTION from run 150
USER: SCORE 19.372357 LL:  -5.051 LR: -17.657 RR:   0.000 FEB:  -9.901
USER: RMSD 9.389696
USER: SEED 149
USER: STATUS no improvement in best in 2 clusters for 5 generations
USER: GENES 28
USER: genes 0 Translation |==|  0.53594 0.54994 0.48476
USER: genes 1 Rotation |==|  0.44278 0.06204 0.59816 0.71279
USER: genes 2 Torsion [CB]-CA--N-[C] |==|  0.42606
USER: genes 3 Torsion [N]-C--CA-[N] |==|  0.45042
USER: genes 4 Torsion [C]-CA--N-[C] |==|  0.73622
USER: genes 5 Torsion [N]-C--CA-[N] |==|  0.87033
USER: genes 6 Torsion [C]-CA--CB-[CG2] |==|  0.06578
USER: genes 7 Torsion [C]-CA--N-[C] |==|  0.57297
USER: genes 8 Torsion [C]-CA--CB-[CG] |==|  0.21977
USER: genes 9 Torsion [CA]-CB--CG-[CD] |==|  0.57525
USER: genes 10 Torsion [CB]-CG--CD-[CE] |==|  0.69069
USER: genes 11 Torsion [CG]-CD--CE-[NZ] |==|  0.64095
USER: genes 12 Torsion [CD]-CE--NZ-[HZ1] |==|  0.40136
USER: genes 13 Torsion [N]-CA--CB-[CG] |==|  0.45779
USER: genes 14 Torsion [CA]-CB--CG-[CD] |==|  0.18725
USER: genes 15 Torsion [CB]-CG--CD-[OE2] |==|  0.19178
USER: genes 16 Torsion [N]-CA--C-[N] |==|  0.21531
USER: genes 17 Torsion [C]-N--CA-[CB] |==|  0.20526
USER: genes 18 Torsion [N]-CA--CB-[OG] |==|  0.18139
USER: genes 19 Torsion [CA]-CB--OG-[HG] |==|  0.23329
USER: genes 20 Torsion [N]-CA--C-[N] |==|  0.02274
USER: genes 21 Torsion [C]-N--CA-[C] |==|  0.79869
USER: genes 22 Torsion [N]-CA--CB-[CG] |==|  0.80772
USER: genes 23 Torsion [CA]-CB--CG-[CD2] |==|  0.34111
USER: genes 24 Torsion [N]-CA--C-[N] |==|  0.84555
USER: genes 25 Torsion [C]-N--CA-[CB] |==|  0.26301
USER: genes 26 Torsion [N]-CA--CB-[CG2] |==|  0.87761
USER: genes 27 Torsion [N]-CA--C-[OXT] |==|  0.65569
ROOT
ATOM      1  CA  GLU B   4      13.321  27.805   3.132  1.00 36.20 LIG 0.18  C 
ENDROOT
BRANCH 1 2
ATOM      2  N   GLU B   4      14.578  27.185   2.740  1.00 38.17 LIG-0.35  N 
ATOM      3  C   LYS B   3      15.424  26.728   3.655  1.00 41.21 LIG 0.24  C 
ATOM      4 O    LYS B   3      15.210  26.827   4.857  1.00 41.12 LIG-0.27  OA
ATOM      5 H    GLU B   4      14.713  27.146   1.891  1.00 38.17 LIG 0.16  HD
BRANCH 3 6
ATOM      6  CA  LYS B   3      16.706  26.081   3.151  1.00 44.69 LIG 0.18  C 
BRANCH 6 7
ATOM      7  N   LYS B   3      17.658  26.042   4.253  1.00 47.57 LIG-0.35  N 
ATOM      8 H    LYS B   3      17.573  25.361   4.772  1.00 47.57 LIG 0.16  HD
ATOM      9  C   VAL B   2      18.572  26.991   4.421  1.00 51.36 LIG 0.24  C 
ATOM     10 O    VAL B   2      18.697  27.944   3.650  1.00 50.65 LIG-0.27  OA
BRANCH 9 11
ATOM     11  CA  VAL B   2      19.488  26.836   5.635  1.00 54.60 LIG 0.18  C 
BRANCH 11 12
ATOM     12  CB  VAL B   2      20.525  25.734   5.326  1.00 55.00 LIG 0.01  C 
ATOM     13  CG2 VAL B   2      20.695  25.589   3.823  1.00 55.89 LIG 0.01  C 
ATOM     14  CG1 VAL B   2      20.090  24.416   5.948  1.00 55.16 LIG 0.01  C 
ENDBRANCH 11 12
BRANCH 11 15
ATOM     15  N   VAL B   2      18.720  26.512   6.830  1.00 57.28 LIG-0.35  N 
ATOM     16  C   ACE B   1      19.163  26.823   8.042  1.00 59.28 LIG 0.21  C 
ATOM     17  CH3 ACE B   1      18.612  25.870   9.104  1.00 59.28 LIG 0.12  C 
ATOM     18 O    ACE B   1      19.549  27.956   8.344  1.00 59.66 LIG-0.27  OA
ATOM     19 H    VAL B   2      17.973  26.112   6.677  1.00 57.28 LIG 0.16  HD
ENDBRANCH 11 15
ENDBRANCH 9 11
ENDBRANCH 6 7
BRANCH 6 20
ATOM     20  CB  LYS B   3      16.404  24.665   2.658  1.00 46.54 LIG 0.04  C 
BRANCH 20 21
ATOM     21  CG  LYS B   3      15.780  24.597   1.263  1.00 48.43 LIG 0.00  C 
BRANCH 21 22
ATOM     22  CD  LYS B   3      14.923  23.356   1.079  1.00 51.26 LIG 0.03  C 
BRANCH 22 23
ATOM     23  CE  LYS B   3      15.565  22.388   0.085  1.00 52.85 LIG 0.23  C 
BRANCH 23 24
ATOM     24  NZ  LYS B   3      14.608  21.956  -0.981  1.00 53.96 LIG-0.08  N 
ATOM     25 HZ1  LYS B   3      15.045  21.860  -1.751  1.00 53.96 LIG 0.27  HD
ATOM     26 HZ2  LYS B   3      14.238  21.179  -0.751  1.00 53.96 LIG 0.27  HD
ATOM     27 HZ3  LYS B   3      13.972  22.571  -1.076  1.00 53.96 LIG 0.27  HD
ENDBRANCH 23 24
ENDBRANCH 22 23
ENDBRANCH 21 22
ENDBRANCH 20 21
ENDBRANCH 6 20
ENDBRANCH 3 6
ENDBRANCH 1 2
BRANCH 1 28
ATOM     28  CB  GLU B   4      12.849  28.800   2.061  1.00 35.98 LIG 0.04  C 
BRANCH 28 29
ATOM     29  CG  GLU B   4      11.409  29.235   2.168  1.00 37.93 LIG 0.12  C 
BRANCH 29 30
ATOM     30  CD  GLU B   4      11.157  30.078   3.410  1.00 39.47 LIG 0.17  C 
ATOM     31 OE2  GLU B   4      11.654  31.223   3.463  1.00 43.33 LIG-0.65  OA
ATOM     32 OE1  GLU B   4      10.456  29.608   4.332  1.00 37.30 LIG-0.65  OA
ENDBRANCH 29 30
ENDBRANCH 28 29
ENDBRANCH 1 28
BRANCH 1 33
ATOM     33  C   GLU B   4      12.270  26.744   3.408  1.00 33.76 LIG 0.24  C 
ATOM     34  N   SER B   5      12.376  26.122   4.576  1.00 31.01 LIG-0.34  N 
ATOM     35 H    SER B   5      12.977  26.312   5.162  1.00 31.01 LIG 0.16  HD
ATOM     36 O    GLU B   4      11.398  26.492   2.581  1.00 33.71 LIG-0.27  OA
BRANCH 34 37
ATOM     37  CA  SER B   5      11.475  25.049   4.979  1.00 29.36 LIG 0.20  C 
BRANCH 37 38
ATOM     38  CB  SER B   5      11.830  23.779   4.189  1.00 29.82 LIG 0.20  C 
BRANCH 38 39
ATOM     39 OG   SER B   5      13.119  23.296   4.520  1.00 30.14 LIG-0.40  OA
ATOM     40 HG   SER B   5      13.071  22.819   5.210  1.00 30.14 LIG 0.21  HD
ENDBRANCH 38 39
ENDBRANCH 37 38
BRANCH 37 41
ATOM     41  C   SER B   5      11.562  24.788   6.480  1.00 27.47 LIG 0.24  C 
ATOM     42  N   LEU B   6      12.283  25.657   7.187  1.00 25.92 LIG-0.35  N 
ATOM     43 H    LEU B   6      12.676  26.342   6.844  1.00 25.92 LIG 0.16  HD
ATOM     44 O    SER B   5      11.000  23.808   6.978  1.00 25.56 LIG-0.27  OA
BRANCH 42 45
ATOM     45  CA  LEU B   6      12.471  25.520   8.628  1.00 26.46 LIG 0.18  C 
BRANCH 45 46
ATOM     46  CB  LEU B   6      13.585  26.452   9.098  1.00 26.39 LIG 0.04  C 
BRANCH 46 47
ATOM     47  CG  LEU B   6      15.018  26.123   8.666  1.00 27.12 LIG-0.02  C 
ATOM     48  CD2 LEU B   6      15.634  27.305   7.907  1.00 29.87 LIG 0.01  C 
ATOM     49  CD1 LEU B   6      14.992  24.886   7.774  1.00 28.95 LIG 0.01  C 
ENDBRANCH 46 47
ENDBRANCH 45 46
BRANCH 45 50
ATOM     50  C   LEU B   6      11.200  25.854   9.414  1.00 25.78 LIG 0.24  C 
ATOM     51 O    LEU B   6      10.704  25.054  10.209  1.00 25.66 LIG-0.27  OA
ATOM     52  N   VAL B   7      10.682  27.049   9.185  1.00 26.68 LIG-0.34  N 
ATOM     53 H    VAL B   7      11.033  27.633   8.661  1.00 26.68 LIG 0.16  HD
BRANCH 52 54
ATOM     54  CA  VAL B   7       9.446  27.476   9.821  1.00 27.56 LIG 0.19  C 
BRANCH 54 55
ATOM     55  CB  VAL B   7       9.727  28.283  11.114  1.00 27.96 LIG 0.01  C 
ATOM     56  CG1 VAL B   7       8.438  28.409  11.929  1.00 28.38 LIG 0.01  C 
ATOM     57  CG2 VAL B   7      10.802  27.623  11.942  1.00 27.67 LIG 0.01  C 
ENDBRANCH 54 55
BRANCH 54 58
ATOM     58  C   VAL B   7       8.719  28.340   8.788  1.00 29.18 LIG 0.20  C 
ATOM     59 OXT  VAL B   7       8.390  29.514   9.088  1.00 29.88 LIG-0.65  OA
ATOM     60 O    VAL B   7       8.478  27.805   7.680  1.00 27.49 LIG-0.65  OA
ENDBRANCH 54 58
ENDBRANCH 52 54
ENDBRANCH 45 50
ENDBRANCH 42 45
ENDBRANCH 37 41
ENDBRANCH 34 37
ENDBRANCH 1 33
TORSDOF 26
ENDMDL
MODEL 3
USER: ADFR SOLUTION from run 41
USER: SCORE 20.588899 LL:  -4.918 LR: -17.415 RR:   0.000 FEB:  -9.659
USER: RMSD 10.465395
USER: SEED 40
USER: STATUS searching
USER: GENES 28
USER: genes 0 Translation |==|  0.49928 0.49984 0.42478
USER: genes 1 Rotation |==|  0.52184 0.10914 0.19585 0.56514
USER: genes 2 Torsion [CB]-CA--N-[C] |==|  0.22475
USER: genes 3 Torsion [N]-C--CA-[N] |==|  0.39909
USER: genes 4 Torsion [C]-CA--N-[C] |==|  0.83889
USER: genes 5 Torsion [N]-C--CA-[N] |==|  0.38818
USER: genes 6 Torsion [C]-CA--CB-[CG2] |==|  0.81798
USER: genes 7 Torsion [C]-CA--N-[C] |==|  0.71701
USER: genes 8 Torsion [C]-CA--CB-[CG] |==|  0.91786
USER: genes 9 Torsion [CA]-CB--CG-[CD] |==|  0.41882
USER: genes 10 Torsion [CB]-CG--CD-[CE] |==|  0.43757
USER: genes 11 Torsion [CG]-CD--CE-[NZ] |==|  0.51635
USER: genes 12 Torsion [CD]-CE--NZ-[HZ1] |==|  0.96320
USER: genes 13 Torsion [N]-CA--CB-[CG] |==|  0.27757
USER: genes 14 Torsion [CA]-CB--CG-[CD] |==|  0.38795
USER: genes 15 Torsion [CB]-CG--CD-[OE2] |==|  0.43986
USER: genes 16 Torsion [N]-CA--C-[N] |==|  0.89544
USER: genes 17 Torsion [C]-N--CA-[CB] |==|  0.77678
USER: genes 18 Torsion [N]-CA--CB-[OG] |==|  0.67766
USER: genes 19 Torsion [CA]-CB--OG-[HG] |==|  0.32869
USER: genes 20 Torsion [N]-CA--C-[N] |==|  0.14783
USER: genes 21 Torsion [C]-N--CA-[C] |==|  0.67853
USER: genes 22 Torsion [N]-CA--CB-[CG] |==|  0.66440
USER: genes 23 Torsion [CA]-CB--CG-[CD2] |==|  0.65774
USER: genes 24 Torsion [N]-CA--C-[N] |==|  0.89296
USER: genes 25 Torsion [C]-N--CA-[CB] |==|  0.36954
USER: genes 26 Torsion [N]-CA--CB-[CG2] |==|  0.88264
USER: genes 27 Torsion [N]-CA--C-[OXT] |==|  0.67170
ROOT
ATOM      1  CA  GLU B   4      12.386  26.828   1.827  1.00 36.20 LIG 0.18  C 
ENDROOT
BRANCH 1 2
ATOM      2  N   GLU B   4      13.738  26.444   1.448  1.00 38.17 LIG-0.35  N 
ATOM      3  C   LYS B   3      14.418  25.560   2.164  1.00 41.21 LIG 0.24  C 
ATOM      4 O    LYS B   3      13.966  25.047   3.181  1.00 41.12 LIG-0.27  OA
ATOM      5 H    GLU B   4      14.038  26.833   0.742  1.00 38.17 LIG 0.16  HD
BRANCH 3 6
ATOM      6  CA  LYS B   3      15.819  25.208   1.682  1.00 44.69 LIG 0.18  C 
BRANCH 6 7
ATOM      7  N   LYS B   3      16.664  25.006   2.851  1.00 47.57 LIG-0.35  N 
ATOM      8 H    LYS B   3      17.033  24.230   2.893  1.00 47.57 LIG 0.16  HD
ATOM      9  C   VAL B   2      16.836  25.957   3.762  1.00 51.36 LIG 0.24  C 
ATOM     10 O    VAL B   2      16.322  27.073   3.669  1.00 50.65 LIG-0.27  OA
BRANCH 9 11
ATOM     11  CA  VAL B   2      17.728  25.598   4.949  1.00 54.60 LIG 0.18  C 
BRANCH 11 12
ATOM     12  CB  VAL B   2      16.826  25.184   6.132  1.00 55.00 LIG 0.01  C 
ATOM     13  CG2 VAL B   2      16.003  26.374   6.598  1.00 55.89 LIG 0.01  C 
ATOM     14  CG1 VAL B   2      17.673  24.637   7.270  1.00 55.16 LIG 0.01  C 
ENDBRANCH 11 12
BRANCH 11 15
ATOM     15  N   VAL B   2      18.588  26.717   5.313  1.00 57.28 LIG-0.35  N 
ATOM     16  C   ACE B   1      19.867  26.750   4.960  1.00 59.28 LIG 0.21  C 
ATOM     17  CH3 ACE B   1      20.699  27.581   5.939  1.00 59.28 LIG 0.12  C 
ATOM     18 O    ACE B   1      20.247  26.565   3.801  1.00 59.66 LIG-0.27  OA
ATOM     19 H    VAL B   2      18.196  27.336   5.765  1.00 57.28 LIG 0.16  HD
ENDBRANCH 11 15
ENDBRANCH 9 11
ENDBRANCH 6 7
BRANCH 6 20
ATOM     20  CB  LYS B   3      15.763  23.933   0.838  1.00 46.54 LIG 0.04  C 
BRANCH 20 21
ATOM     21  CG  LYS B   3      14.643  22.965   1.222  1.00 48.43 LIG 0.00  C 
BRANCH 21 22
ATOM     22  CD  LYS B   3      14.165  22.145   0.035  1.00 51.26 LIG 0.03  C 
BRANCH 22 23
ATOM     23  CE  LYS B   3      13.489  20.853   0.497  1.00 52.85 LIG 0.23  C 
BRANCH 23 24
ATOM     24  NZ  LYS B   3      13.134  19.960  -0.649  1.00 53.96 LIG-0.08  N 
ATOM     25 HZ1  LYS B   3      13.202  20.414  -1.412  1.00 53.96 LIG 0.27  HD
ATOM     26 HZ2  LYS B   3      13.690  19.265  -0.667  1.00 53.96 LIG 0.27  HD
ATOM     27 HZ3  LYS B   3      12.299  19.669  -0.551  1.00 53.96 LIG 0.27  HD
ENDBRANCH 23 24
ENDBRANCH 22 23
ENDBRANCH 21 22
ENDBRANCH 20 21
ENDBRANCH 6 20
ENDBRANCH 3 6
ENDBRANCH 1 2
BRANCH 1 28
ATOM     28  CB  GLU B   4      12.413  27.879   2.946  1.00 35.98 LIG 0.04  C 
BRANCH 28 29
ATOM     29  CG  GLU B   4      12.209  29.306   2.502  1.00 37.93 LIG 0.12  C 
BRANCH 29 30
ATOM     30  CD  GLU B   4      11.321  30.084   3.463  1.00 39.47 LIG 0.17  C 
ATOM     31 OE2  GLU B   4      11.395  31.331   3.463  1.00 43.33 LIG-0.65  OA
ATOM     32 OE1  GLU B   4      10.542  29.458   4.213  1.00 37.30 LIG-0.65  OA
ENDBRANCH 29 30
ENDBRANCH 28 29
ENDBRANCH 1 28
BRANCH 1 33
ATOM     33  C   GLU B   4      11.616  27.323   0.616  1.00 33.76 LIG 0.24  C 
ATOM     34  N   SER B   5      12.316  28.041  -0.255  1.00 31.01 LIG-0.34  N 
ATOM     35 H    SER B   5      13.157  28.203  -0.170  1.00 31.01 LIG 0.16  HD
ATOM     36 O    GLU B   4      10.422  27.071   0.483  1.00 33.71 LIG-0.27  OA
BRANCH 34 37
ATOM     37  CA  SER B   5      11.719  28.628  -1.449  1.00 29.36 LIG 0.20  C 
BRANCH 37 38
ATOM     38  CB  SER B   5      11.603  27.542  -2.531  1.00 29.82 LIG 0.20  C 
BRANCH 38 39
ATOM     39 OG   SER B   5      12.404  27.837  -3.661  1.00 30.14 LIG-0.40  OA
ATOM     40 HG   SER B   5      12.980  27.234  -3.762  1.00 30.14 LIG 0.21  HD
ENDBRANCH 38 39
ENDBRANCH 37 38
BRANCH 37 41
ATOM     41  C   SER B   5      10.350  29.229  -1.145  1.00 27.47 LIG 0.24  C 
ATOM     42  N   LEU B   6      10.302  30.100  -0.138  1.00 25.92 LIG-0.35  N 
ATOM     43 H    LEU B   6      10.990  30.337   0.322  1.00 25.92 LIG 0.16  HD
ATOM     44 O    SER B   5       9.360  28.895  -1.801  1.00 25.56 LIG-0.27  OA
BRANCH 42 45
ATOM     45  CA  LEU B   6       9.057  30.738   0.279  1.00 26.46 LIG 0.18  C 
BRANCH 45 46
ATOM     46  CB  LEU B   6       8.804  30.465   1.760  1.00 26.39 LIG 0.04  C 
BRANCH 46 47
ATOM     47  CG  LEU B   6       7.508  29.739   2.138  1.00 27.12 LIG-0.02  C 
ATOM     48  CD2 LEU B   6       6.692  30.579   3.128  1.00 29.87 LIG 0.01  C 
ATOM     49  CD1 LEU B   6       7.862  28.393   2.762  1.00 28.95 LIG 0.01  C 
ENDBRANCH 46 47
ENDBRANCH 45 46
BRANCH 45 50
ATOM     50  C   LEU B   6       9.081  32.254   0.066  1.00 25.78 LIG 0.24  C 
ATOM     51 O    LEU B   6       8.085  32.866  -0.322  1.00 25.66 LIG-0.27  OA
ATOM     52  N   VAL B   7      10.230  32.852   0.330  1.00 26.68 LIG-0.34  N 
ATOM     53 H    VAL B   7      10.925  32.447   0.634  1.00 26.68 LIG 0.16  HD
BRANCH 52 54
ATOM     54  CA  VAL B   7      10.410  34.280   0.119  1.00 27.56 LIG 0.19  C 
BRANCH 54 55
ATOM     55  CB  VAL B   7      11.087  34.949   1.341  1.00 27.96 LIG 0.01  C 
ATOM     56  CG1 VAL B   7      10.902  36.466   1.261  1.00 28.38 LIG 0.01  C 
ATOM     57  CG2 VAL B   7      10.512  34.425   2.634  1.00 27.67 LIG 0.01  C 
ENDBRANCH 54 55
BRANCH 54 58
ATOM     58  C   VAL B   7      11.288  34.412  -1.129  1.00 29.18 LIG 0.20  C 
ATOM     59 OXT  VAL B   7      12.412  34.962  -1.036  1.00 29.88 LIG-0.65  OA
ATOM     60 O    VAL B   7      10.812  33.964  -2.199  1.00 27.49 LIG-0.65  OA
ENDBRANCH 54 58
ENDBRANCH 52 54
ENDBRANCH 45 50
ENDBRANCH 42 45
ENDBRANCH 37 41
ENDBRANCH 34 37
ENDBRANCH 1 33
TORSDOF 26
ENDMDL
MODEL 4
USER: ADFR SOLUTION from run 122
USER: SCORE 20.727768 LL:  -5.017 LR: -17.110 RR:   0.000 FEB:  -9.354
USER: RMSD 10.950636
USER: SEED 121
USER: STATUS searching
USER: GENES 28
USER: genes 0 Translation |==|  0.49988 0.48982 0.41957
USER: genes 1 Rotation |==|  0.50646 0.11472 0.18536 0.55021
USER: genes 2 Torsion [CB]-CA--N-[C] |==|  0.23887
USER: genes 3 Torsion [N]-C--CA-[N] |==|  0.35583
USER: genes 4 Torsion [C]-CA--N-[C] |==|  0.84636
USER: genes 5 Torsion [N]-C--CA-[N] |==|  0.39709
USER: genes 6 Torsion [C]-CA--CB-[CG2] |==|  0.17564
USER: genes 7 Torsion [C]-CA--N-[C] |==|  0.69873
USER: genes 8 Torsion [C]-CA--CB-[CG] |==|  0.74067
USER: genes 9 Torsion [CA]-CB--CG-[CD] |==|  0.58156
USER: genes 10 Torsion [CB]-CG--CD-[CE] |==|  0.47210
USER: genes 11 Torsion [CG]-CD--CE-[NZ] |==|  0.59649
USER: genes 12 Torsion [CD]-CE--NZ-[HZ1] |==|  0.14988
USER: genes 13 Torsion [N]-CA--CB-[CG] |==|  0.28491
USER: genes 14 Torsion [CA]-CB--CG-[CD] |==|  0.38055
USER: genes 15 Torsion [CB]-CG--CD-[OE2] |==|  0.93408
USER: genes 16 Torsion [N]-CA--C-[N] |==|  0.91544
USER: genes 17 Torsion [C]-N--CA-[CB] |==|  0.77222
USER: genes 18 Torsion [N]-CA--CB-[OG] |==|  0.67454
USER: genes 19 Torsion [CA]-CB--OG-[HG] |==|  0.83863
USER: genes 20 Torsion [N]-CA--C-[N] |==|  0.16249
USER: genes 21 Torsion [C]-N--CA-[C] |==|  0.80238
USER: genes 22 Torsion [N]-CA--CB-[CG] |==|  0.39998
USER: genes 23 Torsion [CA]-CB--CG-[CD2] |==|  0.64096
USER: genes 24 Torsion [N]-CA--C-[N] |==|  0.93641
USER: genes 25 Torsion [C]-N--CA-[CB] |==|  0.29221
USER: genes 26 Torsion [N]-CA--CB-[CG2] |==|  0.98647
USER: genes 27 Torsion [N]-CA--C-[OXT] |==|  0.55233
ROOT
ATOM      1  CA  GLU B   4      12.401  26.632   1.714  1.00 36.20 LIG 0.18  C 
ENDROOT
BRANCH 1 2
ATOM      2  N   GLU B   4      13.716  26.146   1.323  1.00 38.17 LIG-0.35  N 
ATOM      3  C   LYS B   3      14.268  25.110   1.941  1.00 41.21 LIG 0.24  C 
ATOM      4 O    LYS B   3      13.724  24.534   2.875  1.00 41.12 LIG-0.27  OA
ATOM      5 H    GLU B   4      14.084  26.580   0.678  1.00 38.17 LIG 0.16  HD
BRANCH 3 6
ATOM      6  CA  LYS B   3      15.638  24.661   1.452  1.00 44.69 LIG 0.18  C 
BRANCH 6 7
ATOM      7  N   LYS B   3      16.527  24.583   2.604  1.00 47.57 LIG-0.35  N 
ATOM      8 H    LYS B   3      16.908  23.818   2.708  1.00 47.57 LIG 0.16  HD
ATOM      9  C   VAL B   2      16.718  25.620   3.411  1.00 51.36 LIG 0.24  C 
ATOM     10 O    VAL B   2      16.186  26.716   3.230  1.00 50.65 LIG-0.27  OA
BRANCH 9 11
ATOM     11  CA  VAL B   2      17.656  25.387   4.595  1.00 54.60 LIG 0.18  C 
BRANCH 11 12
ATOM     12  CB  VAL B   2      16.806  25.001   5.825  1.00 55.00 LIG 0.01  C 
ATOM     13  CG2 VAL B   2      16.083  23.690   5.564  1.00 55.89 LIG 0.01  C 
ATOM     14  CG1 VAL B   2      15.813  26.108   6.143  1.00 55.16 LIG 0.01  C 
ENDBRANCH 11 12
BRANCH 11 15
ATOM     15  N   VAL B   2      18.460  26.573   4.864  1.00 57.28 LIG-0.35  N 
ATOM     16  C   ACE B   1      19.759  26.604   4.592  1.00 59.28 LIG 0.21  C 
ATOM     17  CH3 ACE B   1      20.501  27.581   5.506  1.00 59.28 LIG 0.12  C 
ATOM     18 O    ACE B   1      20.222  26.285   3.494  1.00 59.66 LIG-0.27  OA
ATOM     19 H    VAL B   2      18.023  27.230   5.206  1.00 57.28 LIG 0.16  HD
ENDBRANCH 11 15
ENDBRANCH 9 11
ENDBRANCH 6 7
BRANCH 6 20
ATOM     20  CB  LYS B   3      15.518  23.294   0.778  1.00 46.54 LIG 0.04  C 
BRANCH 20 21
ATOM     21  CG  LYS B   3      15.779  22.104   1.702  1.00 48.43 LIG 0.00  C 
BRANCH 21 22
ATOM     22  CD  LYS B   3      16.346  20.910   0.951  1.00 51.26 LIG 0.03  C 
BRANCH 22 23
ATOM     23  CE  LYS B   3      16.827  19.830   1.920  1.00 52.85 LIG 0.23  C 
BRANCH 23 24
ATOM     24  NZ  LYS B   3      18.038  19.114   1.412  1.00 53.96 LIG-0.08  N 
ATOM     25 HZ1  LYS B   3      18.672  19.706   1.213  1.00 53.96 LIG 0.27  HD
ATOM     26 HZ2  LYS B   3      18.339  18.557   2.038  1.00 53.96 LIG 0.27  HD
ATOM     27 HZ3  LYS B   3      17.825  18.651   0.682  1.00 53.96 LIG 0.27  HD
ENDBRANCH 23 24
ENDBRANCH 22 23
ENDBRANCH 21 22
ENDBRANCH 20 21
ENDBRANCH 6 20
ENDBRANCH 3 6
ENDBRANCH 1 2
BRANCH 1 28
ATOM     28  CB  GLU B   4      12.514  27.631   2.875  1.00 35.98 LIG 0.04  C 
BRANCH 28 29
ATOM     29  CG  GLU B   4      12.379  29.084   2.498  1.00 37.93 LIG 0.12  C 
BRANCH 29 30
ATOM     30  CD  GLU B   4      11.505  29.852   3.480  1.00 39.47 LIG 0.17  C 
ATOM     31 OE2  GLU B   4      10.670  29.216   4.156  1.00 43.33 LIG-0.65  OA
ATOM     32 OE1  GLU B   4      11.654  31.089   3.587  1.00 37.30 LIG-0.65  OA
ENDBRANCH 29 30
ENDBRANCH 28 29
ENDBRANCH 1 28
BRANCH 1 33
ATOM     33  C   GLU B   4      11.686  27.243   0.522  1.00 33.76 LIG 0.24  C 
ATOM     34  N   SER B   5      12.469  27.802  -0.393  1.00 31.01 LIG-0.34  N 
ATOM     35 H    SER B   5      13.329  27.805  -0.345  1.00 31.01 LIG 0.16  HD
ATOM     36 O    GLU B   4      10.461  27.217   0.442  1.00 33.71 LIG-0.27  OA
BRANCH 34 37
ATOM     37  CA  SER B   5      11.942  28.470  -1.576  1.00 29.36 LIG 0.20  C 
BRANCH 37 38
ATOM     38  CB  SER B   5      11.618  27.411  -2.642  1.00 29.82 LIG 0.20  C 
BRANCH 38 39
ATOM     39 OG   SER B   5      12.404  27.578  -3.808  1.00 30.14 LIG-0.40  OA
ATOM     40 HG   SER B   5      12.278  28.347  -4.124  1.00 30.14 LIG 0.21  HD
ENDBRANCH 38 39
ENDBRANCH 37 38
BRANCH 37 41
ATOM     41  C   SER B   5      10.700  29.291  -1.241  1.00 27.47 LIG 0.24  C 
ATOM     42  N   LEU B   6      10.855  30.240  -0.319  1.00 25.92 LIG-0.35  N 
ATOM     43 H    LEU B   6      11.603  30.410   0.071  1.00 25.92 LIG 0.16  HD
ATOM     44 O    SER B   5       9.624  29.053  -1.797  1.00 25.56 LIG-0.27  OA
BRANCH 42 45
ATOM     45  CA  LEU B   6       9.748  31.087   0.116  1.00 26.46 LIG 0.18  C 
BRANCH 45 46
ATOM     46  CB  LEU B   6      10.151  31.866   1.366  1.00 26.39 LIG 0.04  C 
BRANCH 46 47
ATOM     47  CG  LEU B   6       9.623  33.297   1.514  1.00 27.12 LIG-0.02  C 
ATOM     48  CD2 LEU B   6      10.772  34.263   1.830  1.00 29.87 LIG 0.01  C 
ATOM     49  CD1 LEU B   6       8.591  33.328   2.636  1.00 28.95 LIG 0.01  C 
ENDBRANCH 46 47
ENDBRANCH 45 46
BRANCH 45 50
ATOM     50  C   LEU B   6       9.327  32.092  -0.960  1.00 25.78 LIG 0.24  C 
ATOM     51 O    LEU B   6       8.201  32.591  -0.970  1.00 25.66 LIG-0.27  OA
ATOM     52  N   VAL B   7      10.246  32.382  -1.865  1.00 26.68 LIG-0.34  N 
ATOM     53 H    VAL B   7      11.047  32.070  -1.854  1.00 26.68 LIG 0.16  HD
BRANCH 52 54
ATOM     54  CA  VAL B   7       9.963  33.278  -2.975  1.00 27.56 LIG 0.19  C 
BRANCH 54 55
ATOM     55  CB  VAL B   7      10.621  34.664  -2.763  1.00 27.96 LIG 0.01  C 
ATOM     56  CG1 VAL B   7       9.562  35.760  -2.905  1.00 28.38 LIG 0.01  C 
ATOM     57  CG2 VAL B   7      11.278  34.751  -1.407  1.00 27.67 LIG 0.01  C 
ENDBRANCH 54 55
BRANCH 54 58
ATOM     58  C   VAL B   7      10.529  32.592  -4.221  1.00 29.18 LIG 0.20  C 
ATOM     59 OXT  VAL B   7      10.748  33.273  -5.253  1.00 29.88 LIG-0.65  OA
ATOM     60 O    VAL B   7      10.731  31.358  -4.139  1.00 27.49 LIG-0.65  OA
ENDBRANCH 54 58
ENDBRANCH 52 54
ENDBRANCH 45 50
ENDBRANCH 42 45
ENDBRANCH 37 41
ENDBRANCH 34 37
ENDBRANCH 1 33
TORSDOF 26
ENDMDL
MODEL 5
USER: ADFR SOLUTION from run 69
USER: SCORE 20.351819 LL:  -4.365 LR: -17.019 RR:   0.000 FEB:  -9.263
USER: RMSD 10.242515
USER: SEED 68
USER: STATUS searching
USER: GENES 28
USER: genes 0 Translation |==|  0.50282 0.48751 0.41110
USER: genes 1 Rotation |==|  0.51015 0.10023 0.20431 0.55148
USER: genes 2 Torsion [CB]-CA--N-[C] |==|  0.24442
USER: genes 3 Torsion [N]-C--CA-[N] |==|  0.36515
USER: genes 4 Torsion [C]-CA--N-[C] |==|  0.84244
USER: genes 5 Torsion [N]-C--CA-[N] |==|  0.40001
USER: genes 6 Torsion [C]-CA--CB-[CG2] |==|  0.81750
USER: genes 7 Torsion [C]-CA--N-[C] |==|  0.71562
USER: genes 8 Torsion [C]-CA--CB-[CG] |==|  0.75005
USER: genes 9 Torsion [CA]-CB--CG-[CD] |==|  0.56004
USER: genes 10 Torsion [CB]-CG--CD-[CE] |==|  0.44311
USER: genes 11 Torsion [CG]-CD--CE-[NZ] |==|  0.61923
USER: genes 12 Torsion [CD]-CE--NZ-[HZ1] |==|  0.48632
USER: genes 13 Torsion [N]-CA--CB-[CG] |==|  0.35544
USER: genes 14 Torsion [CA]-CB--CG-[CD] |==|  0.42845
USER: genes 15 Torsion [CB]-CG--CD-[OE2] |==|  0.36229
USER: genes 16 Torsion [N]-CA--C-[N] |==|  0.82550
USER: genes 17 Torsion [C]-N--CA-[CB] |==|  0.85391
USER: genes 18 Torsion [N]-CA--CB-[OG] |==|  0.70321
USER: genes 19 Torsion [CA]-CB--OG-[HG] |==|  0.66541
USER: genes 20 Torsion [N]-CA--C-[N] |==|  0.91088
USER: genes 21 Torsion [C]-N--CA-[C] |==|  0.82161
USER: genes 22 Torsion [N]-CA--CB-[CG] |==|  0.17444
USER: genes 23 Torsion [CA]-CB--CG-[CD2] |==|  0.66327
USER: genes 24 Torsion [N]-CA--C-[N] |==|  0.92127
USER: genes 25 Torsion [C]-N--CA-[CB] |==|  0.83328
USER: genes 26 Torsion [N]-CA--CB-[CG2] |==|  0.87917
USER: genes 27 Torsion [N]-CA--C-[OXT] |==|  0.64466
ROOT
ATOM      1  CA  GLU B   4      12.476  26.587   1.529  1.00 36.20 LIG 0.18  C 
ENDROOT
BRANCH 1 2
ATOM      2  N   GLU B   4      13.806  26.096   1.201  1.00 38.17 LIG-0.35  N 
ATOM      3  C   LYS B   3      14.355  25.107   1.894  1.00 41.21 LIG 0.24  C 
ATOM      4 O    LYS B   3      13.796  24.583   2.849  1.00 41.12 LIG-0.27  OA
ATOM      5 H    GLU B   4      14.185  26.494   0.538  1.00 38.17 LIG 0.16  HD
BRANCH 3 6
ATOM      6  CA  LYS B   3      15.742  24.648   1.467  1.00 44.69 LIG 0.18  C 
BRANCH 6 7
ATOM      7  N   LYS B   3      16.583  24.576   2.655  1.00 47.57 LIG-0.35  N 
ATOM      8 H    LYS B   3      16.939  23.805   2.791  1.00 47.57 LIG 0.16  HD
ATOM      9  C   VAL B   2      16.767  25.627   3.446  1.00 51.36 LIG 0.24  C 
ATOM     10 O    VAL B   2      16.270  26.731   3.218  1.00 50.65 LIG-0.27  OA
BRANCH 9 11
ATOM     11  CA  VAL B   2      17.651  25.400   4.671  1.00 54.60 LIG 0.18  C 
BRANCH 11 12
ATOM     12  CB  VAL B   2      16.745  25.037   5.868  1.00 55.00 LIG 0.01  C 
ATOM     13  CG2 VAL B   2      15.867  26.224   6.231  1.00 55.89 LIG 0.01  C 
ATOM     14  CG1 VAL B   2      17.594  24.613   7.057  1.00 55.16 LIG 0.01  C 
ENDBRANCH 11 12
BRANCH 11 15
ATOM     15  N   VAL B   2      18.455  26.580   4.960  1.00 57.28 LIG-0.35  N 
ATOM     16  C   ACE B   1      19.741  26.639   4.634  1.00 59.28 LIG 0.21  C 
ATOM     17  CH3 ACE B   1      20.513  27.581   5.560  1.00 59.28 LIG 0.12  C 
ATOM     18 O    ACE B   1      20.158  26.376   3.503  1.00 59.66 LIG-0.27  OA
ATOM     19 H    VAL B   2      18.027  27.217   5.351  1.00 57.28 LIG 0.16  HD
ENDBRANCH 11 15
ENDBRANCH 9 11
ENDBRANCH 6 7
BRANCH 6 20
ATOM     20  CB  LYS B   3      15.643  23.275   0.799  1.00 46.54 LIG 0.04  C 
BRANCH 20 21
ATOM     21  CG  LYS B   3      15.779  22.091   1.758  1.00 48.43 LIG 0.00  C 
BRANCH 21 22
ATOM     22  CD  LYS B   3      16.197  20.819   1.039  1.00 51.26 LIG 0.03  C 
BRANCH 22 23
ATOM     23  CE  LYS B   3      16.807  19.812   2.015  1.00 52.85 LIG 0.23  C 
BRANCH 23 24
ATOM     24  NZ  LYS B   3      18.030  19.155   1.458  1.00 53.96 LIG-0.08  N 
ATOM     25 HZ1  LYS B   3      18.395  18.632   2.080  1.00 53.96 LIG 0.27  HD
ATOM     26 HZ2  LYS B   3      17.807  18.663   0.750  1.00 53.96 LIG 0.27  HD
ATOM     27 HZ3  LYS B   3      18.616  19.778   1.213  1.00 53.96 LIG 0.27  HD
ENDBRANCH 23 24
ENDBRANCH 22 23
ENDBRANCH 21 22
ENDBRANCH 20 21
ENDBRANCH 6 20
ENDBRANCH 3 6
ENDBRANCH 1 2
BRANCH 1 28
ATOM     28  CB  GLU B   4      12.553  27.692   2.594  1.00 35.98 LIG 0.04  C 
BRANCH 28 29
ATOM     29  CG  GLU B   4      11.834  28.973   2.253  1.00 37.93 LIG 0.12  C 
BRANCH 29 30
ATOM     30  CD  GLU B   4      11.411  29.740   3.498  1.00 39.47 LIG 0.17  C 
ATOM     31 OE2  GLU B   4      11.689  30.956   3.570  1.00 43.33 LIG-0.65  OA
ATOM     32 OE1  GLU B   4      10.792  29.139   4.402  1.00 37.30 LIG-0.65  OA
ENDBRANCH 29 30
ENDBRANCH 28 29
ENDBRANCH 1 28
BRANCH 1 33
ATOM     33  C   GLU B   4      11.764  27.069   0.278  1.00 33.76 LIG 0.24  C 
ATOM     34  N   SER B   5      12.331  28.095  -0.346  1.00 31.01 LIG-0.34  N 
ATOM     35 H    SER B   5      13.067  28.459  -0.089  1.00 31.01 LIG 0.16  HD
ATOM     36 O    GLU B   4      10.728  26.531  -0.103  1.00 33.71 LIG-0.27  OA
BRANCH 34 37
ATOM     37  CA  SER B   5      11.753  28.706  -1.537  1.00 29.36 LIG 0.20  C 
BRANCH 37 38
ATOM     38  CB  SER B   5      11.481  27.607  -2.577  1.00 29.82 LIG 0.20  C 
BRANCH 38 39
ATOM     39 OG   SER B   5      12.404  27.656  -3.650  1.00 30.14 LIG-0.40  OA
ATOM     40 HG   SER B   5      11.990  27.774  -4.371  1.00 30.14 LIG 0.21  HD
ENDBRANCH 38 39
ENDBRANCH 37 38
BRANCH 37 41
ATOM     41  C   SER B   5      10.469  29.460  -1.205  1.00 27.47 LIG 0.24  C 
ATOM     42  N   LEU B   6       9.736  28.961  -0.210  1.00 25.92 LIG-0.35  N 
ATOM     43 H    LEU B   6       9.958  28.264   0.244  1.00 25.92 LIG 0.16  HD
ATOM     44 O    SER B   5      10.146  30.461  -1.850  1.00 25.56 LIG-0.27  OA
BRANCH 42 45
ATOM     45  CA  LEU B   6       8.473  29.566   0.202  1.00 26.46 LIG 0.18  C 
BRANCH 45 46
ATOM     46  CB  LEU B   6       7.813  28.707   1.278  1.00 26.39 LIG 0.04  C 
BRANCH 46 47
ATOM     47  CG  LEU B   6       8.558  28.533   2.606  1.00 27.12 LIG-0.02  C 
ATOM     48  CD2 LEU B   6       8.831  27.048   2.878  1.00 29.87 LIG 0.01  C 
ATOM     49  CD1 LEU B   6       7.709  29.122   3.728  1.00 28.95 LIG 0.01  C 
ENDBRANCH 46 47
ENDBRANCH 45 46
BRANCH 45 50
ATOM     50  C   LEU B   6       8.660  30.979   0.763  1.00 25.78 LIG 0.24  C 
ATOM     51 O    LEU B   6       7.769  31.825   0.688  1.00 25.66 LIG-0.27  OA
ATOM     52  N   VAL B   7       9.830  31.220   1.330  1.00 26.68 LIG-0.34  N 
ATOM     53 H    VAL B   7      10.451  30.632   1.422  1.00 26.68 LIG 0.16  HD
BRANCH 52 54
ATOM     54  CA  VAL B   7      10.164  32.535   1.854  1.00 27.56 LIG 0.19  C 
BRANCH 54 55
ATOM     55  CB  VAL B   7      10.118  33.613   0.743  1.00 27.96 LIG 0.01  C 
ATOM     56  CG1 VAL B   7      10.815  34.884   1.233  1.00 28.38 LIG 0.01  C 
ATOM     57  CG2 VAL B   7      10.774  33.117  -0.522  1.00 27.67 LIG 0.01  C 
ENDBRANCH 54 55
BRANCH 54 58
ATOM     58  C   VAL B   7       9.127  32.828   2.941  1.00 29.18 LIG 0.20  C 
ATOM     59 OXT  VAL B   7       8.486  33.907   2.906  1.00 29.88 LIG-0.65  OA
ATOM     60 O    VAL B   7       8.988  31.958   3.832  1.00 27.49 LIG-0.65  OA
ENDBRANCH 54 58
ENDBRANCH 52 54
ENDBRANCH 45 50
ENDBRANCH 42 45
ENDBRANCH 37 41
ENDBRANCH 34 37
ENDBRANCH 1 33
TORSDOF 26
ENDMDL
