MODEL 1
USER: ADFR SOLUTION from run 174
USER: SCORE 12.080774 LL:  -1.694 LR: -10.786 RR:   0.000 FEB:  -7.803
USER: RMSD 6.394224
USER: SEED 173
USER: STATUS no improvement in best in 14 clusters for 5 generations
USER: GENES 12
USER: genes 0 Translation |==|  0.48594 0.33731 0.51496
USER: genes 1 Rotation |==|  0.53615 0.95112 0.29314 0.54894
USER: genes 2 Torsion [C]-CA--N-[C] |==|  0.70087
USER: genes 3 Torsion [N]-C--CA-[N] |==|  0.95642
USER: genes 4 Torsion [C]-CA--N-[H2] |==|  0.07289
USER: genes 5 Torsion [N]-CA--C-[N] |==|  0.25165
USER: genes 6 Torsion [C]-N--CA-[CB] |==|  0.15550
USER: genes 7 Torsion [N]-CA--CB-[CG] |==|  0.51278
USER: genes 8 Torsion [CA]-CB--CG-[CD2] |==|  0.32141
USER: genes 9 Torsion [N]-CA--C-[OXT] |==|  0.29428
USER: genes 10 Torsion [N]-CA--CB-[CG2] |==|  0.53240
USER: genes 11 Torsion [CA]-CB--CG1-[CD1] |==|  0.72658
ROOT
ATOM      1  CA  ILE B   2      75.807  43.511  17.086  1.00 64.17 LIG 0.18  C 
ENDROOT
BRANCH 1 2
ATOM      2  N   ILE B   2      76.649  44.700  17.066  1.00 64.56 LIG-0.35  N 
ATOM      3  C   ALA B   1      76.192  45.889  17.449  1.00 64.53 LIG 0.25  C 
ATOM      4 O    ALA B   1      75.041  46.066  17.852  1.00 64.21 LIG-0.27  OA
ATOM      5 H    ILE B   2      77.451  44.561  16.790  1.00 64.56 LIG 0.16  HD
BRANCH 3 6
ATOM      6  CA  ALA B   1      77.187  47.048  17.372  1.00 64.34 LIG 0.27  C 
ATOM      7  CB  ALA B   1      76.837  47.961  16.202  1.00 65.15 LIG 0.05  C 
BRANCH 6 8
ATOM      8  N   ALA B   1      78.590  46.561  17.234  1.00 63.44 LIG-0.07  N 
ATOM      9 H2   ALA B   1      78.589  45.758  16.851  1.00 63.44 LIG 0.28  HD
ATOM     10 H3   ALA B   1      79.053  47.130  16.730  1.00 63.44 LIG 0.28  HD
ATOM     11 H1   ALA B   1      78.965  46.506  18.039  1.00 63.44 LIG 0.28  HD
ENDBRANCH 6 8
ENDBRANCH 3 6
ENDBRANCH 1 2
BRANCH 1 12
ATOM     12  C   ILE B   2      76.206  42.562  18.212  1.00 63.93 LIG 0.24  C 
ATOM     13  N   HIS B   3      75.590  42.741  19.375  1.00 63.34 LIG-0.34  N 
ATOM     14 H    HIS B   3      74.997  43.347  19.519  1.00 63.34 LIG 0.16  HD
ATOM     15 O    ILE B   2      77.054  41.686  18.029  1.00 63.64 LIG-0.27  OA
BRANCH 13 16
ATOM     16  CA  HIS B   3      75.885  41.895  20.524  1.00 63.18 LIG 0.19  C 
BRANCH 16 17
ATOM     17  CB  HIS B   3      77.382  41.934  20.841  1.00 62.24 LIG 0.10  C 
BRANCH 17 18
ATOM     18  CG  HIS B   3      77.793  41.006  21.943  1.00 63.21 LIG 0.06  A 
ATOM     19  CD2 HIS B   3      78.605  39.922  21.941  1.00 62.69 LIG 0.14  A 
ATOM     20 NE2  HIS B   3      78.637  39.436  23.225  1.00 63.05 LIG-0.25  NA
ATOM     21  CE1 HIS B   3      77.873  40.195  23.991  1.00 63.79 LIG 0.23  A 
ATOM     22 ND1  HIS B   3      77.352  41.151  23.241  1.00 63.44 LIG-0.24  NA
ENDBRANCH 17 18
ENDBRANCH 16 17
BRANCH 16 23
ATOM     23  C   HIS B   3      75.091  42.368  21.735  1.00 63.55 LIG 0.20  C 
ATOM     24 OXT  HIS B   3      74.112  41.686  22.100  1.00 62.89 LIG-0.65  OA
ATOM     25 O    HIS B   3      75.462  43.415  22.310  1.00 64.85 LIG-0.65  OA
ENDBRANCH 16 23
ENDBRANCH 13 16
ENDBRANCH 1 12
BRANCH 1 26
ATOM     26  CB  ILE B   2      75.892  42.750  15.747  1.00 64.73 LIG 0.01  C 
ATOM     27  CG2 ILE B   2      74.800  41.686  15.679  1.00 64.62 LIG 0.01  C 
BRANCH 26 28
ATOM     28  CG1 ILE B   2      75.763  43.737  14.585  1.00 64.82 LIG 0.00  C 
ATOM     29  CD1 ILE B   2      74.374  43.814  13.994  1.00 66.82 LIG 0.01  C 
ENDBRANCH 26 28
ENDBRANCH 1 26
TORSDOF 10
ENDMDL
MODEL 2
USER: ADFR SOLUTION from run 30
USER: SCORE 11.805723 LL:  -1.788 LR: -10.595 RR:   0.000 FEB:  -7.612
USER: RMSD 5.321209
USER: SEED 29
USER: STATUS no improvement in best in 13 clusters for 5 generations
USER: GENES 12
USER: genes 0 Translation |==|  0.51045 0.43975 0.22288
USER: genes 1 Rotation |==|  0.34356 0.67291 0.37447 0.92411
USER: genes 2 Torsion [C]-CA--N-[C] |==|  0.16108
USER: genes 3 Torsion [N]-C--CA-[N] |==|  0.05533
USER: genes 4 Torsion [C]-CA--N-[H2] |==|  0.64150
USER: genes 5 Torsion [N]-CA--C-[N] |==|  0.64972
USER: genes 6 Torsion [C]-N--CA-[CB] |==|  0.41892
USER: genes 7 Torsion [N]-CA--CB-[CG] |==|  0.65698
USER: genes 8 Torsion [CA]-CB--CG-[CD2] |==|  0.12396
USER: genes 9 Torsion [N]-CA--C-[OXT] |==|  0.01082
USER: genes 10 Torsion [N]-CA--CB-[CG2] |==|  0.55429
USER: genes 11 Torsion [CA]-CB--CG1-[CD1] |==|  0.62006
ROOT
ATOM      1  CA  ILE B   2      76.083  45.431  12.485  1.00 64.17 LIG 0.18  C 
ENDROOT
BRANCH 1 2
ATOM      2  N   ILE B   2      75.215  46.284  11.683  1.00 64.56 LIG-0.35  N 
ATOM      3  C   ALA B   1      74.705  47.415  12.163  1.00 64.53 LIG 0.25  C 
ATOM      4 O    ALA B   1      74.934  47.822  13.304  1.00 64.21 LIG-0.27  OA
ATOM      5 H    ILE B   2      75.068  45.993  10.888  1.00 64.56 LIG 0.16  HD
BRANCH 3 6
ATOM      6  CA  ALA B   1      73.808  48.206  11.210  1.00 64.34 LIG 0.27  C 
ATOM      7  CB  ALA B   1      72.643  48.822  11.977  1.00 65.15 LIG 0.05  C 
BRANCH 6 8
ATOM      8  N   ALA B   1      73.291  47.350  10.103  1.00 63.44 LIG-0.07  N 
ATOM      9 H2   ALA B   1      73.446  47.748   9.323  1.00 63.44 LIG 0.28  HD
ATOM     10 H3   ALA B   1      73.702  46.561  10.121  1.00 63.44 LIG 0.28  HD
ATOM     11 H1   ALA B   1      72.415  47.230  10.206  1.00 63.44 LIG 0.28  HD
ENDBRANCH 6 8
ENDBRANCH 3 6
ENDBRANCH 1 2
BRANCH 1 12
ATOM     12  C   ILE B   2      75.390  44.981  13.768  1.00 63.93 LIG 0.24  C 
ATOM     13  N   HIS B   3      76.040  45.224  14.901  1.00 63.34 LIG-0.34  N 
ATOM     14 H    HIS B   3      76.808  45.610  14.944  1.00 63.34 LIG 0.16  HD
ATOM     15 O    ILE B   2      74.290  44.427  13.731  1.00 63.64 LIG-0.27  OA
BRANCH 13 16
ATOM     16  CA  HIS B   3      75.478  44.843  16.190  1.00 63.18 LIG 0.19  C 
BRANCH 16 17
ATOM     17  CB  HIS B   3      76.598  44.547  17.191  1.00 62.24 LIG 0.10  C 
BRANCH 17 18
ATOM     18  CG  HIS B   3      76.527  43.178  17.794  1.00 63.21 LIG 0.06  A 
ATOM     19  CD2 HIS B   3      76.297  41.967  17.234  1.00 62.69 LIG 0.14  A 
ATOM     20 NE2  HIS B   3      76.340  41.037  18.244  1.00 63.05 LIG-0.25  NA
ATOM     21  CE1 HIS B   3      76.589  41.655  19.385  1.00 63.79 LIG 0.23  A 
ATOM     22 ND1  HIS B   3      76.707  42.948  19.142  1.00 63.44 LIG-0.24  NA
ENDBRANCH 17 18
ENDBRANCH 16 17
BRANCH 16 23
ATOM     23  C   HIS B   3      74.594  45.963  16.724  1.00 63.55 LIG 0.20  C 
ATOM     24 OXT  HIS B   3      74.412  46.964  16.003  1.00 62.89 LIG-0.65  OA
ATOM     25 O    HIS B   3      74.089  45.822  17.859  1.00 64.85 LIG-0.65  OA
ENDBRANCH 16 23
ENDBRANCH 13 16
ENDBRANCH 1 12
BRANCH 1 26
ATOM     26  CB  ILE B   2      77.386  46.164  12.860  1.00 64.73 LIG 0.01  C 
ATOM     27  CG2 ILE B   2      78.459  45.154  13.258  1.00 64.62 LIG 0.01  C 
BRANCH 26 28
ATOM     28  CG1 ILE B   2      77.855  47.017  11.680  1.00 64.82 LIG 0.00  C 
ATOM     29  CD1 ILE B   2      79.341  46.938  11.415  1.00 66.82 LIG 0.01  C 
ENDBRANCH 26 28
ENDBRANCH 1 26
TORSDOF 10
ENDMDL
MODEL 3
USER: ADFR SOLUTION from run 109
USER: SCORE 12.436063 LL:  -2.411 LR: -10.466 RR:   0.000 FEB:  -7.483
USER: RMSD 5.596989
USER: SEED 108
USER: STATUS no improvement in best in 27 clusters for 5 generations
USER: GENES 12
USER: genes 0 Translation |==|  0.46892 0.32994 0.53978
USER: genes 1 Rotation |==|  0.54737 0.96394 0.32077 0.51970
USER: genes 2 Torsion [C]-CA--N-[C] |==|  0.68057
USER: genes 3 Torsion [N]-C--CA-[N] |==|  0.98221
USER: genes 4 Torsion [C]-CA--N-[H2] |==|  0.43456
USER: genes 5 Torsion [N]-CA--C-[N] |==|  0.23895
USER: genes 6 Torsion [C]-N--CA-[CB] |==|  0.16049
USER: genes 7 Torsion [N]-CA--CB-[CG] |==|  0.09452
USER: genes 8 Torsion [CA]-CB--CG-[CD2] |==|  0.12293
USER: genes 9 Torsion [N]-CA--C-[OXT] |==|  0.16189
USER: genes 10 Torsion [N]-CA--CB-[CG2] |==|  0.61102
USER: genes 11 Torsion [CA]-CB--CG1-[CD1] |==|  0.66488
ROOT
ATOM      1  CA  ILE B   2      75.615  43.372  17.477  1.00 64.17 LIG 0.18  C 
ENDROOT
BRANCH 1 2
ATOM      2  N   ILE B   2      76.546  44.493  17.538  1.00 64.56 LIG-0.35  N 
ATOM      3  C   ALA B   1      76.173  45.690  17.981  1.00 64.53 LIG 0.25  C 
ATOM      4 O    ALA B   1      75.031  45.933  18.375  1.00 64.21 LIG-0.27  OA
ATOM      5 H    ILE B   2      77.340  44.309  17.266  1.00 64.56 LIG 0.16  HD
BRANCH 3 6
ATOM      6  CA  ALA B   1      77.254  46.772  17.984  1.00 64.34 LIG 0.27  C 
ATOM      7  CB  ALA B   1      76.877  47.892  17.021  1.00 65.15 LIG 0.05  C 
BRANCH 6 8
ATOM      8  N   ALA B   1      78.589  46.217  17.619  1.00 63.44 LIG-0.07  N 
ATOM      9 H2   ALA B   1      79.104  46.869  17.300  1.00 63.44 LIG 0.28  HD
ATOM     10 H3   ALA B   1      78.971  45.864  18.341  1.00 63.44 LIG 0.28  HD
ATOM     11 H1   ALA B   1      78.489  45.586  16.999  1.00 63.44 LIG 0.28  HD
ENDBRANCH 6 8
ENDBRANCH 3 6
ENDBRANCH 1 2
BRANCH 1 12
ATOM     12  C   ILE B   2      76.026  42.254  18.430  1.00 63.93 LIG 0.24  C 
ATOM     13  N   HIS B   3      75.596  42.364  19.682  1.00 63.34 LIG-0.34  N 
ATOM     14 H    HIS B   3      75.114  43.015  19.972  1.00 63.34 LIG 0.16  HD
ATOM     15 O    ILE B   2      76.715  41.311  18.038  1.00 63.64 LIG-0.27  OA
BRANCH 13 16
ATOM     16  CA  HIS B   3      75.920  41.357  20.683  1.00 63.18 LIG 0.19  C 
BRANCH 16 17
ATOM     17  CB  HIS B   3      77.438  41.209  20.815  1.00 62.24 LIG 0.10  C 
BRANCH 17 18
ATOM     18  CG  HIS B   3      78.193  42.487  20.614  1.00 63.21 LIG 0.06  A 
ATOM     19  CD2 HIS B   3      77.966  43.740  21.079  1.00 62.69 LIG 0.14  A 
ATOM     20 NE2  HIS B   3      78.969  44.541  20.589  1.00 63.05 LIG-0.25  NA
ATOM     21  CE1 HIS B   3      79.783  43.808  19.851  1.00 63.79 LIG 0.23  A 
ATOM     22 ND1  HIS B   3      79.338  42.564  19.850  1.00 63.44 LIG-0.24  NA
ENDBRANCH 17 18
ENDBRANCH 16 17
BRANCH 16 23
ATOM     23  C   HIS B   3      75.324  41.750  22.029  1.00 63.55 LIG 0.20  C 
ATOM     24 OXT  HIS B   3      74.090  41.918  22.100  1.00 62.89 LIG-0.65  OA
ATOM     25 O    HIS B   3      76.100  41.881  23.000  1.00 64.85 LIG-0.65  OA
ENDBRANCH 16 23
ENDBRANCH 13 16
ENDBRANCH 1 12
BRANCH 1 26
ATOM     26  CB  ILE B   2      75.534  42.797  16.048  1.00 64.73 LIG 0.01  C 
ATOM     27  CG2 ILE B   2      74.090  42.436  15.710  1.00 64.62 LIG 0.01  C 
BRANCH 26 28
ATOM     28  CG1 ILE B   2      76.087  43.817  15.051  1.00 64.82 LIG 0.00  C 
ATOM     29  CD1 ILE B   2      75.094  44.247  13.995  1.00 66.82 LIG 0.01  C 
ENDBRANCH 26 28
ENDBRANCH 1 26
TORSDOF 10
ENDMDL
MODEL 4
USER: ADFR SOLUTION from run 139
USER: SCORE 12.110938 LL:  -1.872 LR: -10.359 RR:   0.000 FEB:  -7.376
USER: RMSD 6.664293
USER: SEED 138
USER: STATUS no improvement in best in 24 clusters for 5 generations
USER: GENES 12
USER: genes 0 Translation |==|  0.42997 0.48033 0.28073
USER: genes 1 Rotation |==|  0.70568 0.23769 0.86749 0.56200
USER: genes 2 Torsion [C]-CA--N-[C] |==|  0.84997
USER: genes 3 Torsion [N]-C--CA-[N] |==|  0.10635
USER: genes 4 Torsion [C]-CA--N-[H2] |==|  0.13397
USER: genes 5 Torsion [N]-CA--C-[N] |==|  0.86778
USER: genes 6 Torsion [C]-N--CA-[CB] |==|  0.15331
USER: genes 7 Torsion [N]-CA--CB-[CG] |==|  0.62766
USER: genes 8 Torsion [CA]-CB--CG-[CD2] |==|  0.28109
USER: genes 9 Torsion [N]-CA--C-[OXT] |==|  0.80386
USER: genes 10 Torsion [N]-CA--CB-[CG2] |==|  0.40284
USER: genes 11 Torsion [CA]-CB--CG1-[CD1] |==|  0.62952
ROOT
ATOM      1  CA  ILE B   2      75.177  46.192  13.396  1.00 64.17 LIG 0.18  C 
ENDROOT
BRANCH 1 2
ATOM      2  N   ILE B   2      74.685  46.671  12.110  1.00 64.56 LIG-0.35  N 
ATOM      3  C   ALA B   1      74.487  47.964  11.873  1.00 64.53 LIG 0.25  C 
ATOM      4 O    ALA B   1      74.709  48.841  12.711  1.00 64.21 LIG-0.27  OA
ATOM      5 H    ILE B   2      74.540  46.050  11.534  1.00 64.56 LIG 0.16  HD
BRANCH 3 6
ATOM      6  CA  ALA B   1      73.964  48.319  10.481  1.00 64.34 LIG 0.27  C 
ATOM      7  CB  ALA B   1      73.340  49.710  10.495  1.00 65.15 LIG 0.05  C 
BRANCH 6 8
ATOM      8  N   ALA B   1      72.967  47.321   9.995  1.00 63.44 LIG-0.07  N 
ATOM      9 H2   ALA B   1      72.365  47.168  10.633  1.00 63.44 LIG 0.28  HD
ATOM     10 H3   ALA B   1      72.559  47.638   9.271  1.00 63.44 LIG 0.28  HD
ATOM     11 H1   ALA B   1      73.384  46.561   9.792  1.00 63.44 LIG 0.28  HD
ENDBRANCH 6 8
ENDBRANCH 3 6
ENDBRANCH 1 2
BRANCH 1 12
ATOM     12  C   ILE B   2      76.474  46.891  13.793  1.00 63.93 LIG 0.24  C 
ATOM     13  N   HIS B   3      77.412  46.962  12.855  1.00 63.34 LIG-0.34  N 
ATOM     14 H    HIS B   3      77.327  46.641  12.061  1.00 63.34 LIG 0.16  HD
ATOM     15 O    ILE B   2      76.619  47.359  14.924  1.00 63.64 LIG-0.27  OA
BRANCH 13 16
ATOM     16  CA  HIS B   3      78.692  47.608  13.114  1.00 63.18 LIG 0.19  C 
BRANCH 16 17
ATOM     17  CB  HIS B   3      79.363  46.985  14.341  1.00 62.24 LIG 0.10  C 
BRANCH 17 18
ATOM     18  CG  HIS B   3      79.917  47.989  15.305  1.00 63.21 LIG 0.06  A 
ATOM     19  CD2 HIS B   3      79.436  48.457  16.482  1.00 62.69 LIG 0.14  A 
ATOM     20 NE2  HIS B   3      80.345  49.371  16.957  1.00 63.05 LIG-0.25  NA
ATOM     21  CE1 HIS B   3      81.350  49.461  16.104  1.00 63.79 LIG 0.23  A 
ATOM     22 ND1  HIS B   3      81.116  48.637  15.097  1.00 63.44 LIG-0.24  NA
ENDBRANCH 17 18
ENDBRANCH 16 17
BRANCH 16 23
ATOM     23  C   HIS B   3      79.603  47.463  11.902  1.00 63.55 LIG 0.20  C 
ATOM     24 OXT  HIS B   3      80.064  46.333  11.643  1.00 62.89 LIG-0.65  OA
ATOM     25 O    HIS B   3      79.841  48.484  11.220  1.00 64.85 LIG-0.65  OA
ENDBRANCH 16 23
ENDBRANCH 13 16
ENDBRANCH 1 12
BRANCH 1 26
ATOM     26  CB  ILE B   2      75.428  44.671  13.362  1.00 64.73 LIG 0.01  C 
ATOM     27  CG2 ILE B   2      76.637  44.320  14.225  1.00 64.62 LIG 0.01  C 
BRANCH 26 28
ATOM     28  CG1 ILE B   2      74.180  43.933  13.849  1.00 64.82 LIG 0.00  C 
ATOM     29  CD1 ILE B   2      74.463  42.842  14.856  1.00 66.82 LIG 0.01  C 
ENDBRANCH 26 28
ENDBRANCH 1 26
TORSDOF 10
ENDMDL
MODEL 5
USER: ADFR SOLUTION from run 125
USER: SCORE 12.010833 LL:  -1.875 LR: -10.242 RR:   0.000 FEB:  -7.259
USER: RMSD 7.269974
USER: SEED 124
USER: STATUS no improvement in best in 15 clusters for 5 generations
USER: GENES 12
USER: genes 0 Translation |==|  0.34849 0.56121 0.35348
USER: genes 1 Rotation |==|  0.28149 0.74608 0.12359 0.50397
USER: genes 2 Torsion [C]-CA--N-[C] |==|  0.17778
USER: genes 3 Torsion [N]-C--CA-[N] |==|  0.76512
USER: genes 4 Torsion [C]-CA--N-[H2] |==|  0.24169
USER: genes 5 Torsion [N]-CA--C-[N] |==|  0.10774
USER: genes 6 Torsion [C]-N--CA-[CB] |==|  0.41508
USER: genes 7 Torsion [N]-CA--CB-[CG] |==|  0.17004
USER: genes 8 Torsion [CA]-CB--CG-[CD2] |==|  0.69293
USER: genes 9 Torsion [N]-CA--C-[OXT] |==|  0.55813
USER: genes 10 Torsion [N]-CA--CB-[CG2] |==|  0.55896
USER: genes 11 Torsion [CA]-CB--CG1-[CD1] |==|  0.54781
ROOT
ATOM      1  CA  ILE B   2      74.261  47.709  14.542  1.00 64.17 LIG 0.18  C 
ENDROOT
BRANCH 1 2
ATOM      2  N   ILE B   2      73.795  48.129  13.226  1.00 64.56 LIG-0.35  N 
ATOM      3  C   ALA B   1      74.614  48.189  12.180  1.00 64.53 LIG 0.25  C 
ATOM      4 O    ALA B   1      75.807  47.888  12.245  1.00 64.21 LIG-0.27  OA
ATOM      5 H    ILE B   2      72.960  48.330  13.193  1.00 64.56 LIG 0.16  HD
BRANCH 3 6
ATOM      6  CA  ALA B   1      73.988  48.651  10.863  1.00 64.34 LIG 0.27  C 
ATOM      7  CB  ALA B   1      72.968  49.753  11.127  1.00 65.15 LIG 0.05  C 
BRANCH 6 8
ATOM      8  N   ALA B   1      73.340  47.523  10.135  1.00 63.44 LIG-0.07  N 
ATOM      9 H2   ALA B   1      72.502  47.428  10.419  1.00 63.44 LIG 0.28  HD
ATOM     10 H3   ALA B   1      73.339  47.695   9.262  1.00 63.44 LIG 0.28  HD
ATOM     11 H1   ALA B   1      73.793  46.772  10.288  1.00 63.44 LIG 0.28  HD
ENDBRANCH 6 8
ENDBRANCH 3 6
ENDBRANCH 1 2
BRANCH 1 12
ATOM     12  C   ILE B   2      75.293  48.681  15.106  1.00 63.93 LIG 0.24  C 
ATOM     13  N   HIS B   3      75.070  49.970  14.875  1.00 63.34 LIG-0.34  N 
ATOM     14 H    HIS B   3      74.395  50.273  14.437  1.00 63.34 LIG 0.16  HD
ATOM     15 O    ILE B   2      76.268  48.270  15.738  1.00 63.64 LIG-0.27  OA
BRANCH 13 16
ATOM     16  CA  HIS B   3      75.984  50.993  15.366  1.00 63.18 LIG 0.19  C 
BRANCH 16 17
ATOM     17  CB  HIS B   3      75.989  52.198  14.422  1.00 62.24 LIG 0.10  C 
BRANCH 17 18
ATOM     18  CG  HIS B   3      74.658  52.871  14.290  1.00 63.21 LIG 0.06  A 
ATOM     19  CD2 HIS B   3      73.789  52.936  13.252  1.00 62.69 LIG 0.14  A 
ATOM     20 NE2  HIS B   3      72.715  53.685  13.667  1.00 63.05 LIG-0.25  NA
ATOM     21  CE1 HIS B   3      72.915  54.065  14.917  1.00 63.79 LIG 0.23  A 
ATOM     22 ND1  HIS B   3      74.080  53.587  15.317  1.00 63.44 LIG-0.24  NA
ENDBRANCH 17 18
ENDBRANCH 16 17
BRANCH 16 23
ATOM     23  C   HIS B   3      75.568  51.436  16.763  1.00 63.55 LIG 0.20  C 
ATOM     24 OXT  HIS B   3      75.966  52.545  17.172  1.00 62.89 LIG-0.65  OA
ATOM     25 O    HIS B   3      74.841  50.668  17.431  1.00 64.85 LIG-0.65  OA
ENDBRANCH 16 23
ENDBRANCH 13 16
ENDBRANCH 1 12
BRANCH 1 26
ATOM     26  CB  ILE B   2      74.889  46.302  14.484  1.00 64.73 LIG 0.01  C 
ATOM     27  CG2 ILE B   2      74.885  45.669  15.873  1.00 64.62 LIG 0.01  C 
BRANCH 26 28
ATOM     28  CG1 ILE B   2      74.116  45.434  13.489  1.00 64.82 LIG 0.00  C 
ATOM     29  CD1 ILE B   2      74.365  43.951  13.643  1.00 66.82 LIG 0.01  C 
ENDBRANCH 26 28
ENDBRANCH 1 26
TORSDOF 10
ENDMDL
MODEL 6
USER: ADFR SOLUTION from run 134
USER: SCORE 11.554403 LL:  -1.770 LR: -10.190 RR:   0.000 FEB:  -7.207
USER: RMSD 6.031010
USER: SEED 133
USER: STATUS no improvement in best in 27 clusters for 5 generations
USER: GENES 12
USER: genes 0 Translation |==|  0.44661 0.46987 0.34516
USER: genes 1 Rotation |==|  0.68654 0.20457 0.74341 0.76207
USER: genes 2 Torsion [C]-CA--N-[C] |==|  0.11114
USER: genes 3 Torsion [N]-C--CA-[N] |==|  0.61579
USER: genes 4 Torsion [C]-CA--N-[H2] |==|  0.58827
USER: genes 5 Torsion [N]-CA--C-[N] |==|  0.16657
USER: genes 6 Torsion [C]-N--CA-[CB] |==|  0.23401
USER: genes 7 Torsion [N]-CA--CB-[CG] |==|  0.15374
USER: genes 8 Torsion [CA]-CB--CG-[CD2] |==|  0.69352
USER: genes 9 Torsion [N]-CA--C-[OXT] |==|  0.50537
USER: genes 10 Torsion [N]-CA--CB-[CG2] |==|  0.18219
USER: genes 11 Torsion [CA]-CB--CG1-[CD1] |==|  0.54856
ROOT
ATOM      1  CA  ILE B   2      75.364  45.996  14.411  1.00 64.17 LIG 0.18  C 
ENDROOT
BRANCH 1 2
ATOM      2  N   ILE B   2      74.782  46.949  13.475  1.00 64.56 LIG-0.35  N 
ATOM      3  C   ALA B   1      74.930  46.818  12.159  1.00 64.53 LIG 0.25  C 
ATOM      4 O    ALA B   1      75.553  45.888  11.644  1.00 64.21 LIG-0.27  OA
ATOM      5 H    ILE B   2      74.345  47.589  13.846  1.00 64.56 LIG 0.16  HD
BRANCH 3 6
ATOM      6  CA  ALA B   1      74.268  47.896  11.299  1.00 64.34 LIG 0.27  C 
ATOM      7  CB  ALA B   1      73.252  48.676  12.125  1.00 65.15 LIG 0.05  C 
BRANCH 6 8
ATOM      8  N   ALA B   1      73.605  47.311  10.098  1.00 63.44 LIG-0.07  N 
ATOM      9 H2   ALA B   1      73.642  47.893   9.426  1.00 63.44 LIG 0.28  HD
ATOM     10 H3   ALA B   1      74.022  46.561   9.864  1.00 63.44 LIG 0.28  HD
ATOM     11 H1   ALA B   1      72.754  47.130  10.288  1.00 63.44 LIG 0.28  HD
ENDBRANCH 6 8
ENDBRANCH 3 6
ENDBRANCH 1 2
BRANCH 1 12
ATOM     12  C   ILE B   2      76.760  45.565  13.973  1.00 63.93 LIG 0.24  C 
ATOM     13  N   HIS B   3      77.665  46.531  13.864  1.00 63.34 LIG-0.34  N 
ATOM     14 H    HIS B   3      77.506  47.362  14.022  1.00 63.34 LIG 0.16  HD
ATOM     15 O    ILE B   2      77.012  44.381  13.741  1.00 63.64 LIG-0.27  OA
BRANCH 13 16
ATOM     16  CA  HIS B   3      79.033  46.242  13.456  1.00 63.18 LIG 0.19  C 
BRANCH 16 17
ATOM     17  CB  HIS B   3      79.133  46.186  11.929  1.00 62.24 LIG 0.10  C 
BRANCH 17 18
ATOM     18  CG  HIS B   3      78.636  47.422  11.243  1.00 63.21 LIG 0.06  A 
ATOM     19  CD2 HIS B   3      77.540  47.638  10.477  1.00 62.69 LIG 0.14  A 
ATOM     20 NE2  HIS B   3      77.564  48.958  10.098  1.00 63.05 LIG-0.25  NA
ATOM     21  CE1 HIS B   3      78.636  49.534  10.614  1.00 63.79 LIG 0.23  A 
ATOM     22 ND1  HIS B   3      79.300  48.628  11.310  1.00 63.44 LIG-0.24  NA
ENDBRANCH 17 18
ENDBRANCH 16 17
BRANCH 16 23
ATOM     23  C   HIS B   3      79.974  47.314  13.993  1.00 63.55 LIG 0.20  C 
ATOM     24 OXT  HIS B   3      81.184  47.236  13.702  1.00 62.89 LIG-0.65  OA
ATOM     25 O    HIS B   3      79.486  48.226  14.696  1.00 64.85 LIG-0.65  OA
ENDBRANCH 16 23
ENDBRANCH 13 16
ENDBRANCH 1 12
BRANCH 1 26
ATOM     26  CB  ILE B   2      74.480  44.741  14.544  1.00 64.73 LIG 0.01  C 
ATOM     27  CG2 ILE B   2      74.448  43.979  13.222  1.00 64.62 LIG 0.01  C 
BRANCH 26 28
ATOM     28  CG1 ILE B   2      75.013  43.852  15.670  1.00 64.82 LIG 0.00  C 
ATOM     29  CD1 ILE B   2      74.503  42.430  15.626  1.00 66.82 LIG 0.01  C 
ENDBRANCH 26 28
ENDBRANCH 1 26
TORSDOF 10
ENDMDL
MODEL 7
USER: ADFR SOLUTION from run 72
USER: SCORE 11.420318 LL:  -1.792 LR: -10.171 RR:   0.000 FEB:  -7.188
USER: RMSD 6.257650
USER: SEED 71
USER: STATUS no improvement in best in 12 clusters for 5 generations
USER: GENES 12
USER: genes 0 Translation |==|  0.44960 0.52509 0.34543
USER: genes 1 Rotation |==|  0.29937 0.75144 0.14071 0.63205
USER: genes 2 Torsion [C]-CA--N-[C] |==|  0.60284
USER: genes 3 Torsion [N]-C--CA-[N] |==|  0.45282
USER: genes 4 Torsion [C]-CA--N-[H2] |==|  0.82520
USER: genes 5 Torsion [N]-CA--C-[N] |==|  0.20257
USER: genes 6 Torsion [C]-N--CA-[CB] |==|  0.87193
USER: genes 7 Torsion [N]-CA--CB-[CG] |==|  0.83982
USER: genes 8 Torsion [CA]-CB--CG-[CD2] |==|  0.12852
USER: genes 9 Torsion [N]-CA--C-[OXT] |==|  0.37632
USER: genes 10 Torsion [N]-CA--CB-[CG2] |==|  0.71632
USER: genes 11 Torsion [CA]-CB--CG1-[CD1] |==|  0.41584
ROOT
ATOM      1  CA  ILE B   2      75.398  47.031  14.416  1.00 64.17 LIG 0.18  C 
ENDROOT
BRANCH 1 2
ATOM      2  N   ILE B   2      75.112  47.686  13.145  1.00 64.56 LIG-0.35  N 
ATOM      3  C   ALA B   1      74.110  47.293  12.364  1.00 64.53 LIG 0.25  C 
ATOM      4 O    ALA B   1      73.356  46.364  12.658  1.00 64.21 LIG-0.27  OA
ATOM      5 H    ILE B   2      75.642  48.336  12.955  1.00 64.56 LIG 0.16  HD
BRANCH 3 6
ATOM      6  CA  ALA B   1      73.932  48.069  11.058  1.00 64.34 LIG 0.27  C 
ATOM      7  CB  ALA B   1      73.321  49.437  11.341  1.00 65.15 LIG 0.05  C 
BRANCH 6 8
ATOM      8  N   ALA B   1      73.080  47.324  10.087  1.00 63.44 LIG-0.07  N 
ATOM      9 H2   ALA B   1      73.481  46.561   9.865  1.00 63.44 LIG 0.28  HD
ATOM     10 H3   ALA B   1      72.291  47.148  10.458  1.00 63.44 LIG 0.28  HD
ATOM     11 H1   ALA B   1      72.960  47.820   9.357  1.00 63.44 LIG 0.28  HD
ENDBRANCH 6 8
ENDBRANCH 3 6
ENDBRANCH 1 2
BRANCH 1 12
ATOM     12  C   ILE B   2      75.849  48.036  15.471  1.00 63.93 LIG 0.24  C 
ATOM     13  N   HIS B   3      74.906  48.831  15.965  1.00 63.34 LIG-0.34  N 
ATOM     14 H    HIS B   3      74.080  48.807  15.725  1.00 63.34 LIG 0.16  HD
ATOM     15 O    ILE B   2      77.027  48.087  15.832  1.00 63.64 LIG-0.27  OA
BRANCH 13 16
ATOM     16  CA  HIS B   3      75.215  49.828  16.981  1.00 63.18 LIG 0.19  C 
BRANCH 16 17
ATOM     17  CB  HIS B   3      76.085  49.214  18.081  1.00 62.24 LIG 0.10  C 
BRANCH 17 18
ATOM     18  CG  HIS B   3      75.466  48.027  18.752  1.00 63.21 LIG 0.06  A 
ATOM     19  CD2 HIS B   3      74.845  46.936  18.243  1.00 62.69 LIG 0.14  A 
ATOM     20 NE2  HIS B   3      74.465  46.152  19.304  1.00 63.05 LIG-0.25  NA
ATOM     21  CE1 HIS B   3      74.840  46.739  20.427  1.00 63.79 LIG 0.23  A 
ATOM     22 ND1  HIS B   3      75.447  47.872  20.122  1.00 63.44 LIG-0.24  NA
ENDBRANCH 17 18
ENDBRANCH 16 17
BRANCH 16 23
ATOM     23  C   HIS B   3      75.943  51.007  16.348  1.00 63.55 LIG 0.20  C 
ATOM     24 OXT  HIS B   3      75.590  52.159  16.669  1.00 62.89 LIG-0.65  OA
ATOM     25 O    HIS B   3      76.866  50.763  15.539  1.00 64.85 LIG-0.65  OA
ENDBRANCH 16 23
ENDBRANCH 13 16
ENDBRANCH 1 12
BRANCH 1 26
ATOM     26  CB  ILE B   2      76.496  45.961  14.252  1.00 64.73 LIG 0.01  C 
ATOM     27  CG2 ILE B   2      75.869  44.570  14.214  1.00 64.62 LIG 0.01  C 
BRANCH 26 28
ATOM     28  CG1 ILE B   2      77.294  46.233  12.975  1.00 64.82 LIG 0.00  C 
ATOM     29  CD1 ILE B   2      78.736  45.787  13.044  1.00 66.82 LIG 0.01  C 
ENDBRANCH 26 28
ENDBRANCH 1 26
TORSDOF 10
ENDMDL
MODEL 8
USER: ADFR SOLUTION from run 9
USER: SCORE 11.976912 LL:  -1.892 LR: -10.120 RR:   0.000 FEB:  -7.137
USER: RMSD 6.878237
USER: SEED 797681
USER: STATUS no improvement in best in 14 clusters for 5 generations
USER: GENES 12
USER: genes 0 Translation |==|  0.46805 0.48261 0.26324
USER: genes 1 Rotation |==|  0.72363 0.24605 0.83833 0.64504
USER: genes 2 Torsion [C]-CA--N-[C] |==|  0.84396
USER: genes 3 Torsion [N]-C--CA-[N] |==|  0.06007
USER: genes 4 Torsion [C]-CA--N-[H2] |==|  0.84785
USER: genes 5 Torsion [N]-CA--C-[N] |==|  0.90228
USER: genes 6 Torsion [C]-N--CA-[CB] |==|  0.82898
USER: genes 7 Torsion [N]-CA--CB-[CG] |==|  0.72135
USER: genes 8 Torsion [CA]-CB--CG-[CD2] |==|  0.24749
USER: genes 9 Torsion [N]-CA--C-[OXT] |==|  0.11773
USER: genes 10 Torsion [N]-CA--CB-[CG2] |==|  0.46445
USER: genes 11 Torsion [CA]-CB--CG1-[CD1] |==|  0.62270
ROOT
ATOM      1  CA  ILE B   2      75.606  46.235  13.121  1.00 64.17 LIG 0.18  C 
ENDROOT
BRANCH 1 2
ATOM      2  N   ILE B   2      74.870  46.729  11.964  1.00 64.56 LIG-0.35  N 
ATOM      3  C   ALA B   1      74.828  48.024  11.661  1.00 64.53 LIG 0.25  C 
ATOM      4 O    ALA B   1      75.408  48.886  12.323  1.00 64.21 LIG-0.27  OA
ATOM      5 H    ILE B   2      74.475  46.117  11.507  1.00 64.56 LIG 0.16  HD
BRANCH 3 6
ATOM      6  CA  ALA B   1      74.014  48.398  10.422  1.00 64.34 LIG 0.27  C 
ATOM      7  CB  ALA B   1      73.309  49.732  10.641  1.00 65.15 LIG 0.05  C 
BRANCH 6 8
ATOM      8  N   ALA B   1      73.013  47.345  10.082  1.00 63.44 LIG-0.07  N 
ATOM      9 H2   ALA B   1      73.425  46.561   9.994  1.00 63.44 LIG 0.28  HD
ATOM     10 H3   ALA B   1      72.407  47.290  10.732  1.00 63.44 LIG 0.28  HD
ATOM     11 H1   ALA B   1      72.609  47.555   9.317  1.00 63.44 LIG 0.28  HD
ENDBRANCH 6 8
ENDBRANCH 3 6
ENDBRANCH 1 2
BRANCH 1 12
ATOM     12  C   ILE B   2      77.070  46.659  13.074  1.00 63.93 LIG 0.24  C 
ATOM     13  N   HIS B   3      77.627  46.710  11.868  1.00 63.34 LIG-0.34  N 
ATOM     14 H    HIS B   3      77.215  46.520  11.138  1.00 63.34 LIG 0.16  HD
ATOM     15 O    ILE B   2      77.681  46.937  14.107  1.00 63.64 LIG-0.27  OA
BRANCH 13 16
ATOM     16  CA  HIS B   3      79.018  47.105  11.696  1.00 63.18 LIG 0.19  C 
BRANCH 16 17
ATOM     17  CB  HIS B   3      79.231  48.536  12.195  1.00 62.24 LIG 0.10  C 
BRANCH 17 18
ATOM     18  CG  HIS B   3      79.267  49.561  11.103  1.00 63.21 LIG 0.06  A 
ATOM     19  CD2 HIS B   3      78.277  50.281  10.523  1.00 62.69 LIG 0.14  A 
ATOM     20 NE2  HIS B   3      78.861  51.079   9.569  1.00 63.05 LIG-0.25  NA
ATOM     21  CE1 HIS B   3      80.164  50.857   9.564  1.00 63.79 LIG 0.23  A 
ATOM     22 ND1  HIS B   3      80.435  49.945  10.481  1.00 63.44 LIG-0.24  NA
ENDBRANCH 17 18
ENDBRANCH 16 17
BRANCH 16 23
ATOM     23  C   HIS B   3      79.928  46.153  12.462  1.00 63.55 LIG 0.20  C 
ATOM     24 OXT  HIS B   3      79.679  44.932  12.412  1.00 62.89 LIG-0.65  OA
ATOM     25 O    HIS B   3      80.884  46.641  13.103  1.00 64.85 LIG-0.65  OA
ENDBRANCH 16 23
ENDBRANCH 13 16
ENDBRANCH 1 12
BRANCH 1 26
ATOM     26  CB  ILE B   2      75.541  44.697  13.202  1.00 64.73 LIG 0.01  C 
ATOM     27  CG2 ILE B   2      76.561  44.182  14.214  1.00 64.62 LIG 0.01  C 
BRANCH 26 28
ATOM     28  CG1 ILE B   2      74.126  44.261  13.587  1.00 64.82 LIG 0.00  C 
ATOM     29  CD1 ILE B   2      74.081  43.176  14.639  1.00 66.82 LIG 0.01  C 
ENDBRANCH 26 28
ENDBRANCH 1 26
TORSDOF 10
ENDMDL
MODEL 9
USER: ADFR SOLUTION from run 38
USER: SCORE 11.917013 LL:  -2.416 LR: -10.089 RR:   0.000 FEB:  -7.106
USER: RMSD 5.847565
USER: SEED 37
USER: STATUS no improvement in best in 21 clusters for 5 generations
USER: GENES 12
USER: genes 0 Translation |==|  0.39998 0.34743 0.52335
USER: genes 1 Rotation |==|  0.39724 0.68108 0.10537 0.72565
USER: genes 2 Torsion [C]-CA--N-[C] |==|  0.64493
USER: genes 3 Torsion [N]-C--CA-[N] |==|  0.51642
USER: genes 4 Torsion [C]-CA--N-[H2] |==|  0.76923
USER: genes 5 Torsion [N]-CA--C-[N] |==|  0.55555
USER: genes 6 Torsion [C]-N--CA-[CB] |==|  0.47718
USER: genes 7 Torsion [N]-CA--CB-[CG] |==|  0.10759
USER: genes 8 Torsion [CA]-CB--CG-[CD2] |==|  0.23971
USER: genes 9 Torsion [N]-CA--C-[OXT] |==|  0.75761
USER: genes 10 Torsion [N]-CA--CB-[CG2] |==|  0.83136
USER: genes 11 Torsion [CA]-CB--CG1-[CD1] |==|  0.37547
ROOT
ATOM      1  CA  ILE B   2      74.840  43.700  17.218  1.00 64.17 LIG 0.18  C 
ENDROOT
BRANCH 1 2
ATOM      2  N   ILE B   2      75.248  44.339  15.973  1.00 64.56 LIG-0.35  N 
ATOM      3  C   ALA B   1      74.705  44.007  14.805  1.00 64.53 LIG 0.25  C 
ATOM      4 O    ALA B   1      73.822  43.154  14.694  1.00 64.21 LIG-0.27  OA
ATOM      5 H    ILE B   2      75.859  44.936  16.064  1.00 64.56 LIG 0.16  HD
BRANCH 3 6
ATOM      6  CA  ALA B   1      75.234  44.757  13.581  1.00 64.34 LIG 0.27  C 
ATOM      7  CB  ALA B   1      75.182  46.261  13.824  1.00 65.15 LIG 0.05  C 
BRANCH 6 8
ATOM      8  N   ALA B   1      74.465  44.414  12.350  1.00 63.44 LIG-0.07  N 
ATOM      9 H2   ALA B   1      74.780  43.658  12.004  1.00 63.44 LIG 0.28  HD
ATOM     10 H3   ALA B   1      73.606  44.310  12.556  1.00 63.44 LIG 0.28  HD
ATOM     11 H1   ALA B   1      74.549  45.071  11.755  1.00 63.44 LIG 0.28  HD
ENDBRANCH 6 8
ENDBRANCH 3 6
ENDBRANCH 1 2
BRANCH 1 12
ATOM     12  C   ILE B   2      74.465  44.732  18.277  1.00 63.93 LIG 0.24  C 
ATOM     13  N   HIS B   3      74.478  44.311  19.537  1.00 63.34 LIG-0.34  N 
ATOM     14 H    HIS B   3      74.681  43.510  19.776  1.00 63.34 LIG 0.16  HD
ATOM     15 O    ILE B   2      74.172  45.887  17.959  1.00 63.64 LIG-0.27  OA
BRANCH 13 16
ATOM     16  CA  HIS B   3      74.141  45.206  20.636  1.00 63.18 LIG 0.19  C 
BRANCH 16 17
ATOM     17  CB  HIS B   3      74.037  44.422  21.946  1.00 62.24 LIG 0.10  C 
BRANCH 17 18
ATOM     18  CG  HIS B   3      75.066  43.343  22.092  1.00 63.21 LIG 0.06  A 
ATOM     19  CD2 HIS B   3      76.335  43.377  22.565  1.00 62.69 LIG 0.14  A 
ATOM     20 NE2  HIS B   3      76.837  42.102  22.474  1.00 63.05 LIG-0.25  NA
ATOM     21  CE1 HIS B   3      75.910  41.311  21.963  1.00 63.79 LIG 0.23  A 
ATOM     22 ND1  HIS B   3      74.831  42.035  21.724  1.00 63.44 LIG-0.24  NA
ENDBRANCH 17 18
ENDBRANCH 16 17
BRANCH 16 23
ATOM     23  C   HIS B   3      75.204  46.290  20.768  1.00 63.55 LIG 0.20  C 
ATOM     24 OXT  HIS B   3      76.206  46.050  21.472  1.00 62.89 LIG-0.65  OA
ATOM     25 O    HIS B   3      75.023  47.368  20.161  1.00 64.85 LIG-0.65  OA
ENDBRANCH 16 23
ENDBRANCH 13 16
ENDBRANCH 1 12
BRANCH 1 26
ATOM     26  CB  ILE B   2      75.965  42.807  17.777  1.00 64.73 LIG 0.01  C 
ATOM     27  CG2 ILE B   2      76.305  41.705  16.777  1.00 64.62 LIG 0.01  C 
BRANCH 26 28
ATOM     28  CG1 ILE B   2      77.197  43.661  18.082  1.00 64.82 LIG 0.00  C 
ATOM     29  CD1 ILE B   2      77.841  43.358  19.416  1.00 66.82 LIG 0.01  C 
ENDBRANCH 26 28
ENDBRANCH 1 26
TORSDOF 10
ENDMDL
MODEL 10
USER: ADFR SOLUTION from run 95
USER: SCORE 11.889294 LL:  -1.858 LR: -10.094 RR:   0.000 FEB:  -7.111
USER: RMSD 6.148374
USER: SEED 94
USER: STATUS no improvement in best in 17 clusters for 5 generations
USER: GENES 12
USER: genes 0 Translation |==|  0.37491 0.45898 0.30292
USER: genes 1 Rotation |==|  0.33934 0.75818 0.10519 0.54067
USER: genes 2 Torsion [C]-CA--N-[C] |==|  0.85825
USER: genes 3 Torsion [N]-C--CA-[N] |==|  0.19233
USER: genes 4 Torsion [C]-CA--N-[H2] |==|  0.07165
USER: genes 5 Torsion [N]-CA--C-[N] |==|  0.36111
USER: genes 6 Torsion [C]-N--CA-[CB] |==|  0.25897
USER: genes 7 Torsion [N]-CA--CB-[CG] |==|  0.55602
USER: genes 8 Torsion [CA]-CB--CG-[CD2] |==|  0.04555
USER: genes 9 Torsion [N]-CA--C-[OXT] |==|  0.00091
USER: genes 10 Torsion [N]-CA--CB-[CG2] |==|  0.34741
USER: genes 11 Torsion [CA]-CB--CG1-[CD1] |==|  0.64643
ROOT
ATOM      1  CA  ILE B   2      74.558  45.792  13.746  1.00 64.17 LIG 0.18  C 
ENDROOT
BRANCH 1 2
ATOM      2  N   ILE B   2      74.481  46.309  12.385  1.00 64.56 LIG-0.35  N 
ATOM      3  C   ALA B   1      74.140  47.569  12.132  1.00 64.53 LIG 0.25  C 
ATOM      4 O    ALA B   1      73.877  48.383  13.020  1.00 64.21 LIG-0.27  OA
ATOM      5 H    ILE B   2      74.673  45.733  11.776  1.00 64.56 LIG 0.16  HD
BRANCH 3 6
ATOM      6  CA  ALA B   1      74.096  47.970  10.658  1.00 64.34 LIG 0.27  C 
ATOM      7  CB  ALA B   1      73.978  49.485  10.530  1.00 65.15 LIG 0.05  C 
BRANCH 6 8
ATOM      8  N   ALA B   1      72.967  47.311   9.941  1.00 63.44 LIG-0.07  N 
ATOM      9 H2   ALA B   1      72.321  47.115  10.521  1.00 63.44 LIG 0.28  HD
ATOM     10 H3   ALA B   1      72.649  47.861   9.318  1.00 63.44 LIG 0.28  HD
ATOM     11 H1   ALA B   1      73.256  46.563   9.555  1.00 63.44 LIG 0.28  HD
ENDBRANCH 6 8
ENDBRANCH 3 6
ENDBRANCH 1 2
BRANCH 1 12
ATOM     12  C   ILE B   2      75.409  46.691  14.637  1.00 63.93 LIG 0.24  C 
ATOM     13  N   HIS B   3      74.868  47.048  15.797  1.00 63.34 LIG-0.34  N 
ATOM     14 H    HIS B   3      74.086  46.805  16.060  1.00 63.34 LIG 0.16  HD
ATOM     15 O    ILE B   2      76.533  47.052  14.281  1.00 63.64 LIG-0.27  OA
BRANCH 13 16
ATOM     16  CA  HIS B   3      75.586  47.903  16.733  1.00 63.18 LIG 0.19  C 
BRANCH 16 17
ATOM     17  CB  HIS B   3      75.217  49.371  16.504  1.00 62.24 LIG 0.10  C 
BRANCH 17 18
ATOM     18  CG  HIS B   3      76.215  50.341  17.056  1.00 63.21 LIG 0.06  A 
ATOM     19  CD2 HIS B   3      77.499  50.171  17.455  1.00 62.69 LIG 0.14  A 
ATOM     20 NE2  HIS B   3      77.957  51.394  17.880  1.00 63.05 LIG-0.25  NA
ATOM     21  CE1 HIS B   3      76.990  52.285  17.747  1.00 63.79 LIG 0.23  A 
ATOM     22 ND1  HIS B   3      75.928  51.675  17.251  1.00 63.44 LIG-0.24  NA
ENDBRANCH 17 18
ENDBRANCH 16 17
BRANCH 16 23
ATOM     23  C   HIS B   3      75.247  47.505  18.164  1.00 63.55 LIG 0.20  C 
ATOM     24 OXT  HIS B   3      74.456  46.558  18.341  1.00 62.89 LIG-0.65  OA
ATOM     25 O    HIS B   3      75.784  48.146  19.095  1.00 64.85 LIG-0.65  OA
ENDBRANCH 16 23
ENDBRANCH 13 16
ENDBRANCH 1 12
BRANCH 1 26
ATOM     26  CB  ILE B   2      75.155  44.371  13.765  1.00 64.73 LIG 0.01  C 
ATOM     27  CG2 ILE B   2      76.359  44.321  14.704  1.00 64.62 LIG 0.01  C 
BRANCH 26 28
ATOM     28  CG1 ILE B   2      74.085  43.368  14.201  1.00 64.82 LIG 0.00  C 
ATOM     29  CD1 ILE B   2      74.504  42.481  15.351  1.00 66.82 LIG 0.01  C 
ENDBRANCH 26 28
ENDBRANCH 1 26
TORSDOF 10
ENDMDL
MODEL 11
USER: ADFR SOLUTION from run 78
USER: SCORE 12.373126 LL:  -2.350 LR: -10.078 RR:   0.000 FEB:  -7.095
USER: RMSD 5.875443
USER: SEED 77
USER: STATUS no improvement in best in 32 clusters for 5 generations
USER: GENES 12
USER: genes 0 Translation |==|  0.36139 0.44869 0.30206
USER: genes 1 Rotation |==|  0.33982 0.78269 0.12348 0.55159
USER: genes 2 Torsion [C]-CA--N-[C] |==|  0.84912
USER: genes 3 Torsion [N]-C--CA-[N] |==|  0.15764
USER: genes 4 Torsion [C]-CA--N-[H2] |==|  0.46588
USER: genes 5 Torsion [N]-CA--C-[N] |==|  0.91164
USER: genes 6 Torsion [C]-N--CA-[CB] |==|  0.30717
USER: genes 7 Torsion [N]-CA--CB-[CG] |==|  0.10244
USER: genes 8 Torsion [CA]-CB--CG-[CD2] |==|  0.63905
USER: genes 9 Torsion [N]-CA--C-[OXT] |==|  0.93243
USER: genes 10 Torsion [N]-CA--CB-[CG2] |==|  0.30686
USER: genes 11 Torsion [CA]-CB--CG1-[CD1] |==|  0.68047
ROOT
ATOM      1  CA  ILE B   2      74.406  45.599  13.732  1.00 64.17 LIG 0.18  C 
ENDROOT
BRANCH 1 2
ATOM      2  N   ILE B   2      74.314  46.286  12.450  1.00 64.56 LIG-0.35  N 
ATOM      3  C   ALA B   1      73.900  47.547  12.359  1.00 64.53 LIG 0.25  C 
ATOM      4 O    ALA B   1      73.577  48.219  13.341  1.00 64.21 LIG-0.27  OA
ATOM      5 H    ILE B   2      74.548  45.809  11.775  1.00 64.56 LIG 0.16  HD
BRANCH 3 6
ATOM      6  CA  ALA B   1      73.850  48.137  10.949  1.00 64.34 LIG 0.27  C 
ATOM      7  CB  ALA B   1      73.339  49.573  11.000  1.00 65.15 LIG 0.05  C 
BRANCH 6 8
ATOM      8  N   ALA B   1      72.990  47.324  10.042  1.00 63.44 LIG-0.07  N 
ATOM      9 H2   ALA B   1      72.836  47.779   9.293  1.00 63.44 LIG 0.28  HD
ATOM     10 H3   ALA B   1      73.403  46.561   9.846  1.00 63.44 LIG 0.28  HD
ATOM     11 H1   ALA B   1      72.217  47.147  10.446  1.00 63.44 LIG 0.28  HD
ENDBRANCH 6 8
ENDBRANCH 3 6
ENDBRANCH 1 2
BRANCH 1 12
ATOM     12  C   ILE B   2      75.257  46.383  14.726  1.00 63.93 LIG 0.24  C 
ATOM     13  N   HIS B   3      76.251  47.098  14.210  1.00 63.34 LIG-0.34  N 
ATOM     14 H    HIS B   3      76.432  47.138  13.370  1.00 63.34 LIG 0.16  HD
ATOM     15 O    ILE B   2      75.017  46.342  15.934  1.00 63.64 LIG-0.27  OA
BRANCH 13 16
ATOM     16  CA  HIS B   3      77.131  47.890  15.059  1.00 63.18 LIG 0.19  C 
BRANCH 16 17
ATOM     17  CB  HIS B   3      78.533  47.278  15.089  1.00 62.24 LIG 0.10  C 
BRANCH 17 18
ATOM     18  CG  HIS B   3      78.969  46.694  13.781  1.00 63.21 LIG 0.06  A 
ATOM     19  CD2 HIS B   3      79.495  45.484  13.473  1.00 62.69 LIG 0.14  A 
ATOM     20 NE2  HIS B   3      79.715  45.469  12.118  1.00 63.05 LIG-0.25  NA
ATOM     21  CE1 HIS B   3      79.337  46.628  11.609  1.00 63.79 LIG 0.23  A 
ATOM     22 ND1  HIS B   3      78.883  47.386  12.591  1.00 63.44 LIG-0.24  NA
ENDBRANCH 17 18
ENDBRANCH 16 17
BRANCH 16 23
ATOM     23  C   HIS B   3      77.206  49.320  14.538  1.00 63.55 LIG 0.20  C 
ATOM     24 OXT  HIS B   3      76.963  49.522  13.331  1.00 62.89 LIG-0.65  OA
ATOM     25 O    HIS B   3      77.504  50.226  15.348  1.00 64.85 LIG-0.65  OA
ENDBRANCH 16 23
ENDBRANCH 13 16
ENDBRANCH 1 12
BRANCH 1 26
ATOM     26  CB  ILE B   2      75.014  44.192  13.564  1.00 64.73 LIG 0.01  C 
ATOM     27  CG2 ILE B   2      76.407  44.146  14.186  1.00 64.62 LIG 0.01  C 
BRANCH 26 28
ATOM     28  CG1 ILE B   2      74.096  43.153  14.211  1.00 64.82 LIG 0.00  C 
ATOM     29  CD1 ILE B   2      74.707  42.446  15.398  1.00 66.82 LIG 0.01  C 
ENDBRANCH 26 28
ENDBRANCH 1 26
TORSDOF 10
ENDMDL
MODEL 12
USER: ADFR SOLUTION from run 69
USER: SCORE 12.056665 LL:  -2.099 LR: -10.060 RR:   0.000 FEB:  -7.077
USER: RMSD 5.149569
USER: SEED 68
USER: STATUS no improvement in best in 14 clusters for 5 generations
USER: GENES 12
USER: genes 0 Translation |==|  0.45125 0.35919 0.47903
USER: genes 1 Rotation |==|  0.40856 0.90728 0.22909 0.54867
USER: genes 2 Torsion [C]-CA--N-[C] |==|  0.74724
USER: genes 3 Torsion [N]-C--CA-[N] |==|  0.39646
USER: genes 4 Torsion [C]-CA--N-[H2] |==|  0.95166
USER: genes 5 Torsion [N]-CA--C-[N] |==|  0.41433
USER: genes 6 Torsion [C]-N--CA-[CB] |==|  0.27330
USER: genes 7 Torsion [N]-CA--CB-[CG] |==|  0.06691
USER: genes 8 Torsion [CA]-CB--CG-[CD2] |==|  0.80576
USER: genes 9 Torsion [N]-CA--C-[OXT] |==|  0.16991
USER: genes 10 Torsion [N]-CA--CB-[CG2] |==|  0.43809
USER: genes 11 Torsion [CA]-CB--CG1-[CD1] |==|  0.17905
ROOT
ATOM      1  CA  ILE B   2      75.417  43.921  16.520  1.00 64.17 LIG 0.18  C 
ENDROOT
BRANCH 1 2
ATOM      2  N   ILE B   2      75.637  45.230  15.919  1.00 64.56 LIG-0.35  N 
ATOM      3  C   ALA B   1      74.949  46.302  16.302  1.00 64.53 LIG 0.25  C 
ATOM      4 O    ALA B   1      74.091  46.267  17.186  1.00 64.21 LIG-0.27  OA
ATOM      5 H    ILE B   2      76.242  45.243  15.308  1.00 64.56 LIG 0.16  HD
BRANCH 3 6
ATOM      6  CA  ALA B   1      75.283  47.608  15.581  1.00 64.34 LIG 0.27  C 
ATOM      7  CB  ALA B   1      76.308  48.403  16.383  1.00 65.15 LIG 0.05  C 
BRANCH 6 8
ATOM      8  N   ALA B   1      74.066  48.438  15.350  1.00 63.44 LIG-0.07  N 
ATOM      9 H2   ALA B   1      73.340  47.931  15.440  1.00 63.44 LIG 0.28  HD
ATOM     10 H3   ALA B   1      74.041  49.100  15.944  1.00 63.44 LIG 0.28  HD
ATOM     11 H1   ALA B   1      74.090  48.779  14.528  1.00 63.44 LIG 0.28  HD
ENDBRANCH 6 8
ENDBRANCH 3 6
ENDBRANCH 1 2
BRANCH 1 12
ATOM     12  C   ILE B   2      76.335  43.694  17.716  1.00 63.93 LIG 0.24  C 
ATOM     13  N   HIS B   3      75.857  42.919  18.684  1.00 63.34 LIG-0.34  N 
ATOM     14 H    HIS B   3      75.079  42.553  18.669  1.00 63.34 LIG 0.16  HD
ATOM     15 O    ILE B   2      77.455  44.208  17.760  1.00 63.64 LIG-0.27  OA
BRANCH 13 16
ATOM     16  CA  HIS B   3      76.643  42.627  19.875  1.00 63.18 LIG 0.19  C 
BRANCH 16 17
ATOM     17  CB  HIS B   3      76.224  43.545  21.026  1.00 62.24 LIG 0.10  C 
BRANCH 17 18
ATOM     18  CG  HIS B   3      74.830  44.078  20.901  1.00 63.21 LIG 0.06  A 
ATOM     19  CD2 HIS B   3      74.293  44.979  20.044  1.00 62.69 LIG 0.14  A 
ATOM     20 NE2  HIS B   3      72.964  45.106  20.369  1.00 63.05 LIG-0.25  NA
ATOM     21  CE1 HIS B   3      72.694  44.311  21.389  1.00 63.79 LIG 0.23  A 
ATOM     22 ND1  HIS B   3      73.803  43.679  21.730  1.00 63.44 LIG-0.24  NA
ENDBRANCH 17 18
ENDBRANCH 16 17
BRANCH 16 23
ATOM     23  C   HIS B   3      76.450  41.172  20.281  1.00 63.55 LIG 0.20  C 
ATOM     24 OXT  HIS B   3      76.792  40.284  19.475  1.00 62.89 LIG-0.65  OA
ATOM     25 O    HIS B   3      75.961  40.936  21.408  1.00 64.85 LIG-0.65  OA
ENDBRANCH 16 23
ENDBRANCH 13 16
ENDBRANCH 1 12
BRANCH 1 26
ATOM     26  CB  ILE B   2      75.655  42.795  15.494  1.00 64.73 LIG 0.01  C 
ATOM     27  CG2 ILE B   2      75.965  41.486  16.216  1.00 64.62 LIG 0.01  C 
BRANCH 26 28
ATOM     28  CG1 ILE B   2      74.423  42.643  14.600  1.00 64.82 LIG 0.00  C 
ATOM     29  CD1 ILE B   2      74.135  43.851  13.738  1.00 66.82 LIG 0.01  C 
ENDBRANCH 26 28
ENDBRANCH 1 26
TORSDOF 10
ENDMDL
MODEL 13
USER: ADFR SOLUTION from run 85
USER: SCORE 11.994524 LL:  -2.180 LR:  -9.979 RR:   0.000 FEB:  -6.996
USER: RMSD 5.726837
USER: SEED 84
USER: STATUS no improvement in best in 18 clusters for 5 generations
USER: GENES 12
USER: genes 0 Translation |==|  0.33340 0.44177 0.29420
USER: genes 1 Rotation |==|  0.37469 0.77284 0.11312 0.60091
USER: genes 2 Torsion [C]-CA--N-[C] |==|  0.86292
USER: genes 3 Torsion [N]-C--CA-[N] |==|  0.17636
USER: genes 4 Torsion [C]-CA--N-[H2] |==|  0.48060
USER: genes 5 Torsion [N]-CA--C-[N] |==|  0.89097
USER: genes 6 Torsion [C]-N--CA-[CB] |==|  0.19914
USER: genes 7 Torsion [N]-CA--CB-[CG] |==|  0.77615
USER: genes 8 Torsion [CA]-CB--CG-[CD2] |==|  0.83339
USER: genes 9 Torsion [N]-CA--C-[OXT] |==|  0.47920
USER: genes 10 Torsion [N]-CA--CB-[CG2] |==|  0.23987
USER: genes 11 Torsion [CA]-CB--CG1-[CD1] |==|  0.68395
ROOT
ATOM      1  CA  ILE B   2      74.091  45.469  13.609  1.00 64.17 LIG 0.18  C 
ENDROOT
BRANCH 1 2
ATOM      2  N   ILE B   2      74.243  46.190  12.351  1.00 64.56 LIG-0.35  N 
ATOM      3  C   ALA B   1      73.849  47.453  12.215  1.00 64.53 LIG 0.25  C 
ATOM      4 O    ALA B   1      73.340  48.099  13.134  1.00 64.21 LIG-0.27  OA
ATOM      5 H    ILE B   2      74.604  45.731  11.721  1.00 64.56 LIG 0.16  HD
BRANCH 3 6
ATOM      6  CA  ALA B   1      74.067  48.081  10.838  1.00 64.34 LIG 0.27  C 
ATOM      7  CB  ALA B   1      73.704  49.561  10.873  1.00 65.15 LIG 0.05  C 
BRANCH 6 8
ATOM      8  N   ALA B   1      73.270  47.388   9.785  1.00 63.44 LIG-0.07  N 
ATOM      9 H2   ALA B   1      73.338  47.835   9.018  1.00 63.44 LIG 0.28  HD
ATOM     10 H3   ALA B   1      73.579  46.561   9.674  1.00 63.44 LIG 0.28  HD
ATOM     11 H1   ALA B   1      72.416  47.353  10.033  1.00 63.44 LIG 0.28  HD
ENDBRANCH 6 8
ENDBRANCH 3 6
ENDBRANCH 1 2
BRANCH 1 12
ATOM     12  C   ILE B   2      74.624  46.281  14.785  1.00 63.93 LIG 0.24  C 
ATOM     13  N   HIS B   3      75.740  46.967  14.566  1.00 63.34 LIG-0.34  N 
ATOM     14 H    HIS B   3      76.164  46.974  13.817  1.00 63.34 LIG 0.16  HD
ATOM     15 O    ILE B   2      74.034  46.287  15.868  1.00 63.64 LIG-0.27  OA
BRANCH 13 16
ATOM     16  CA  HIS B   3      76.344  47.781  15.612  1.00 63.18 LIG 0.19  C 
BRANCH 16 17
ATOM     17  CB  HIS B   3      76.972  46.888  16.685  1.00 62.24 LIG 0.10  C 
BRANCH 17 18
ATOM     18  CG  HIS B   3      75.988  46.346  17.676  1.00 63.21 LIG 0.06  A 
ATOM     19  CD2 HIS B   3      75.151  46.973  18.538  1.00 62.69 LIG 0.14  A 
ATOM     20 NE2  HIS B   3      74.465  45.997  19.219  1.00 63.05 LIG-0.25  NA
ATOM     21  CE1 HIS B   3      74.864  44.812  18.790  1.00 63.79 LIG 0.23  A 
ATOM     22 ND1  HIS B   3      75.783  44.995  17.859  1.00 63.44 LIG-0.24  NA
ENDBRANCH 17 18
ENDBRANCH 16 17
BRANCH 16 23
ATOM     23  C   HIS B   3      77.409  48.691  15.014  1.00 63.55 LIG 0.20  C 
ATOM     24 OXT  HIS B   3      77.925  49.556  15.749  1.00 62.89 LIG-0.65  OA
ATOM     25 O    HIS B   3      77.718  48.524  13.814  1.00 64.85 LIG-0.65  OA
ENDBRANCH 16 23
ENDBRANCH 13 16
ENDBRANCH 1 12
BRANCH 1 26
ATOM     26  CB  ILE B   2      74.832  44.118  13.565  1.00 64.73 LIG 0.01  C 
ATOM     27  CG2 ILE B   2      76.292  44.309  13.971  1.00 64.62 LIG 0.01  C 
BRANCH 26 28
ATOM     28  CG1 ILE B   2      74.137  43.119  14.492  1.00 64.82 LIG 0.00  C 
ATOM     29  CD1 ILE B   2      74.968  42.703  15.684  1.00 66.82 LIG 0.01  C 
ENDBRANCH 26 28
ENDBRANCH 1 26
TORSDOF 10
ENDMDL
MODEL 14
USER: ADFR SOLUTION from run 64
USER: SCORE 12.021580 LL:  -2.139 LR:  -9.979 RR:   0.000 FEB:  -6.996
USER: RMSD 5.850146
USER: SEED 63
USER: STATUS no improvement in best in 16 clusters for 5 generations
USER: GENES 12
USER: genes 0 Translation |==|  0.54196 0.37635 0.36749
USER: genes 1 Rotation |==|  0.78860 0.25177 0.27151 0.72996
USER: genes 2 Torsion [C]-CA--N-[C] |==|  0.17776
USER: genes 3 Torsion [N]-C--CA-[N] |==|  0.05941
USER: genes 4 Torsion [C]-CA--N-[H2] |==|  0.19911
USER: genes 5 Torsion [N]-CA--C-[N] |==|  0.10482
USER: genes 6 Torsion [C]-N--CA-[CB] |==|  0.23169
USER: genes 7 Torsion [N]-CA--CB-[CG] |==|  0.79368
USER: genes 8 Torsion [CA]-CB--CG-[CD2] |==|  0.28595
USER: genes 9 Torsion [N]-CA--C-[OXT] |==|  0.11926
USER: genes 10 Torsion [N]-CA--CB-[CG2] |==|  0.51113
USER: genes 11 Torsion [CA]-CB--CG1-[CD1] |==|  0.86873
ROOT
ATOM      1  CA  ILE B   2      76.437  44.243  14.763  1.00 64.17 LIG 0.18  C 
ENDROOT
BRANCH 1 2
ATOM      2  N   ILE B   2      77.004  44.972  15.890  1.00 64.56 LIG-0.35  N 
ATOM      3  C   ALA B   1      76.477  46.114  16.322  1.00 64.53 LIG 0.25  C 
ATOM      4 O    ALA B   1      75.479  46.627  15.812  1.00 64.21 LIG-0.27  OA
ATOM      5 H    ILE B   2      77.696  44.601  16.240  1.00 64.56 LIG 0.16  HD
BRANCH 3 6
ATOM      6  CA  ALA B   1      77.180  46.771  17.511  1.00 64.34 LIG 0.27  C 
ATOM      7  CB  ALA B   1      77.150  48.289  17.364  1.00 65.15 LIG 0.05  C 
BRANCH 6 8
ATOM      8  N   ALA B   1      78.590  46.302  17.645  1.00 63.44 LIG-0.07  N 
ATOM      9 H2   ALA B   1      79.082  46.648  16.989  1.00 63.44 LIG 0.28  HD
ATOM     10 H3   ALA B   1      78.917  46.565  18.430  1.00 63.44 LIG 0.28  HD
ATOM     11 H1   ALA B   1      78.613  45.414  17.597  1.00 63.44 LIG 0.28  HD
ENDBRANCH 6 8
ENDBRANCH 3 6
ENDBRANCH 1 2
BRANCH 1 12
ATOM     12  C   ILE B   2      76.533  45.049  13.472  1.00 63.93 LIG 0.24  C 
ATOM     13  N   HIS B   3      77.640  45.765  13.309  1.00 63.34 LIG-0.34  N 
ATOM     14 H    HIS B   3      78.284  45.796  13.879  1.00 63.34 LIG 0.16  HD
ATOM     15 O    ILE B   2      75.624  45.020  12.640  1.00 63.64 LIG-0.27  OA
BRANCH 13 16
ATOM     16  CA  HIS B   3      77.847  46.573  12.115  1.00 63.18 LIG 0.19  C 
BRANCH 16 17
ATOM     17  CB  HIS B   3      77.153  47.930  12.264  1.00 62.24 LIG 0.10  C 
BRANCH 17 18
ATOM     18  CG  HIS B   3      75.663  47.867  12.130  1.00 63.21 LIG 0.06  A 
ATOM     19  CD2 HIS B   3      74.680  47.905  13.062  1.00 62.69 LIG 0.14  A 
ATOM     20 NE2  HIS B   3      73.484  47.809  12.394  1.00 63.05 LIG-0.25  NA
ATOM     21  CE1 HIS B   3      73.721  47.717  11.097  1.00 63.79 LIG 0.23  A 
ATOM     22 ND1  HIS B   3      75.029  47.749  10.911  1.00 63.44 LIG-0.24  NA
ENDBRANCH 17 18
ENDBRANCH 16 17
BRANCH 16 23
ATOM     23  C   HIS B   3      79.338  46.783  11.881  1.00 63.55 LIG 0.20  C 
ATOM     24 OXT  HIS B   3      80.101  45.807  12.030  1.00 62.89 LIG-0.65  OA
ATOM     25 O    HIS B   3      79.726  47.923  11.545  1.00 64.85 LIG-0.65  OA
ENDBRANCH 16 23
ENDBRANCH 13 16
ENDBRANCH 1 12
BRANCH 1 26
ATOM     26  CB  ILE B   2      74.957  43.894  15.018  1.00 64.73 LIG 0.01  C 
ATOM     27  CG2 ILE B   2      74.414  43.046  13.870  1.00 64.62 LIG 0.01  C 
BRANCH 26 28
ATOM     28  CG1 ILE B   2      74.824  43.154  16.350  1.00 64.82 LIG 0.00  C 
ATOM     29  CD1 ILE B   2      75.822  42.035  16.535  1.00 66.82 LIG 0.01  C 
ENDBRANCH 26 28
ENDBRANCH 1 26
TORSDOF 10
ENDMDL
MODEL 15
USER: ADFR SOLUTION from run 166
USER: SCORE 11.381677 LL:  -1.834 LR:  -9.908 RR:   0.000 FEB:  -6.925
USER: RMSD 6.631052
USER: SEED 165
USER: STATUS no improvement in best in 11 clusters for 5 generations
USER: GENES 12
USER: genes 0 Translation |==|  0.44834 0.71954 0.25918
USER: genes 1 Rotation |==|  0.19380 0.58258 0.68512 0.83934
USER: genes 2 Torsion [C]-CA--N-[C] |==|  0.66672
USER: genes 3 Torsion [N]-C--CA-[N] |==|  0.41395
USER: genes 4 Torsion [C]-CA--N-[H2] |==|  0.94971
USER: genes 5 Torsion [N]-CA--C-[N] |==|  0.90662
USER: genes 6 Torsion [C]-N--CA-[CB] |==|  0.80375
USER: genes 7 Torsion [N]-CA--CB-[CG] |==|  0.71175
USER: genes 8 Torsion [CA]-CB--CG-[CD2] |==|  0.81011
USER: genes 9 Torsion [N]-CA--C-[OXT] |==|  0.10073
USER: genes 10 Torsion [N]-CA--CB-[CG2] |==|  0.93487
USER: genes 11 Torsion [CA]-CB--CG1-[CD1] |==|  0.55690
ROOT
ATOM      1  CA  ILE B   2      75.384  50.677  13.057  1.00 64.17 LIG 0.18  C 
ENDROOT
BRANCH 1 2
ATOM      2  N   ILE B   2      74.382  49.670  12.731  1.00 64.56 LIG-0.35  N 
ATOM      3  C   ALA B   1      74.573  48.780  11.762  1.00 64.53 LIG 0.25  C 
ATOM      4 O    ALA B   1      75.601  48.737  11.085  1.00 64.21 LIG-0.27  OA
ATOM      5 H    ILE B   2      73.672  49.707  13.215  1.00 64.56 LIG 0.16  HD
BRANCH 3 6
ATOM      6  CA  ALA B   1      73.433  47.787  11.528  1.00 64.34 LIG 0.27  C 
ATOM      7  CB  ALA B   1      73.615  46.561  12.417  1.00 65.15 LIG 0.05  C 
BRANCH 6 8
ATOM      8  N   ALA B   1      73.351  47.369  10.099  1.00 63.44 LIG-0.07  N 
ATOM      9 H2   ALA B   1      73.794  47.952   9.593  1.00 63.44 LIG 0.28  HD
ATOM     10 H3   ALA B   1      73.712  46.561  10.005  1.00 63.44 LIG 0.28  HD
ATOM     11 H1   ALA B   1      72.498  47.344   9.845  1.00 63.44 LIG 0.28  HD
ENDBRANCH 6 8
ENDBRANCH 3 6
ENDBRANCH 1 2
BRANCH 1 12
ATOM     12  C   ILE B   2      75.856  50.546  14.502  1.00 63.93 LIG 0.24  C 
ATOM     13  N   HIS B   3      74.948  50.138  15.381  1.00 63.34 LIG-0.34  N 
ATOM     14 H    HIS B   3      74.132  49.952  15.181  1.00 63.34 LIG 0.16  HD
ATOM     15 O    ILE B   2      77.020  50.807  14.812  1.00 63.64 LIG-0.27  OA
BRANCH 13 16
ATOM     16  CA  HIS B   3      75.281  49.973  16.789  1.00 63.18 LIG 0.19  C 
BRANCH 16 17
ATOM     17  CB  HIS B   3      76.200  48.763  16.979  1.00 62.24 LIG 0.10  C 
BRANCH 17 18
ATOM     18  CG  HIS B   3      75.508  47.557  17.535  1.00 63.21 LIG 0.06  A 
ATOM     19  CD2 HIS B   3      74.972  47.319  18.756  1.00 62.69 LIG 0.14  A 
ATOM     20 NE2  HIS B   3      74.462  46.044  18.734  1.00 63.05 LIG-0.25  NA
ATOM     21  CE1 HIS B   3      74.674  45.517  17.541  1.00 63.79 LIG 0.23  A 
ATOM     22 ND1  HIS B   3      75.305  46.410  16.798  1.00 63.44 LIG-0.24  NA
ENDBRANCH 17 18
ENDBRANCH 16 17
BRANCH 16 23
ATOM     23  C   HIS B   3      75.969  51.228  17.312  1.00 63.55 LIG 0.20  C 
ATOM     24 OXT  HIS B   3      75.586  52.333  16.879  1.00 62.89 LIG-0.65  OA
ATOM     25 O    HIS B   3      76.882  51.090  18.155  1.00 64.85 LIG-0.65  OA
ENDBRANCH 16 23
ENDBRANCH 13 16
ENDBRANCH 1 12
BRANCH 1 26
ATOM     26  CB  ILE B   2      74.828  52.100  12.847  1.00 64.73 LIG 0.01  C 
ATOM     27  CG2 ILE B   2      73.671  52.069  11.852  1.00 64.62 LIG 0.01  C 
BRANCH 26 28
ATOM     28  CG1 ILE B   2      74.375  52.679  14.189  1.00 64.82 LIG 0.00  C 
ATOM     29  CD1 ILE B   2      73.392  53.821  14.067  1.00 66.82 LIG 0.01  C 
ENDBRANCH 26 28
ENDBRANCH 1 26
TORSDOF 10
ENDMDL
MODEL 16
USER: ADFR SOLUTION from run 36
USER: SCORE 11.573028 LL:  -1.817 LR:  -9.840 RR:   0.000 FEB:  -6.857
USER: RMSD 5.958419
USER: SEED 35
USER: STATUS no improvement in best in 19 clusters for 5 generations
USER: GENES 12
USER: genes 0 Translation |==|  0.43401 0.36839 0.48143
USER: genes 1 Rotation |==|  0.41347 0.92504 0.25439 0.53909
USER: genes 2 Torsion [C]-CA--N-[C] |==|  0.75439
USER: genes 3 Torsion [N]-C--CA-[N] |==|  0.30417
USER: genes 4 Torsion [C]-CA--N-[H2] |==|  0.07359
USER: genes 5 Torsion [N]-CA--C-[N] |==|  0.38954
USER: genes 6 Torsion [C]-N--CA-[CB] |==|  0.42308
USER: genes 7 Torsion [N]-CA--CB-[CG] |==|  0.52900
USER: genes 8 Torsion [CA]-CB--CG-[CD2] |==|  0.24792
USER: genes 9 Torsion [N]-CA--C-[OXT] |==|  0.45680
USER: genes 10 Torsion [N]-CA--CB-[CG2] |==|  0.44621
USER: genes 11 Torsion [CA]-CB--CG1-[CD1] |==|  0.22331
ROOT
ATOM      1  CA  ILE B   2      75.223  44.093  16.558  1.00 64.17 LIG 0.18  C 
ENDROOT
BRANCH 1 2
ATOM      2  N   ILE B   2      75.473  45.455  16.101  1.00 64.56 LIG-0.35  N 
ATOM      3  C   ALA B   1      74.885  46.504  16.670  1.00 64.53 LIG 0.25  C 
ATOM      4 O    ALA B   1      74.104  46.402  17.618  1.00 64.21 LIG-0.27  OA
ATOM      5 H    ILE B   2      76.024  45.513  15.444  1.00 64.56 LIG 0.16  HD
BRANCH 3 6
ATOM      6  CA  ALA B   1      75.238  47.871  16.084  1.00 64.34 LIG 0.27  C 
ATOM      7  CB  ALA B   1      75.683  48.818  17.194  1.00 65.15 LIG 0.05  C 
BRANCH 6 8
ATOM      8  N   ALA B   1      74.090  48.465  15.341  1.00 63.44 LIG-0.07  N 
ATOM      9 H2   ALA B   1      73.327  48.145  15.668  1.00 63.44 LIG 0.28  HD
ATOM     10 H3   ALA B   1      74.103  49.350  15.432  1.00 63.44 LIG 0.28  HD
ATOM     11 H1   ALA B   1      74.154  48.255  14.478  1.00 63.44 LIG 0.28  HD
ENDBRANCH 6 8
ENDBRANCH 3 6
ENDBRANCH 1 2
BRANCH 1 12
ATOM     12  C   ILE B   2      76.182  43.694  17.674  1.00 63.93 LIG 0.24  C 
ATOM     13  N   HIS B   3      75.663  42.980  18.666  1.00 63.34 LIG-0.34  N 
ATOM     14 H    HIS B   3      74.837  42.740  18.708  1.00 63.34 LIG 0.16  HD
ATOM     15 O    ILE B   2      77.369  44.025  17.636  1.00 63.64 LIG-0.27  OA
BRANCH 13 16
ATOM     16  CA  HIS B   3      76.481  42.538  19.787  1.00 63.18 LIG 0.19  C 
BRANCH 16 17
ATOM     17  CB  HIS B   3      75.619  42.372  21.042  1.00 62.24 LIG 0.10  C 
BRANCH 17 18
ATOM     18  CG  HIS B   3      76.409  42.161  22.297  1.00 63.21 LIG 0.06  A 
ATOM     19  CD2 HIS B   3      76.919  43.043  23.190  1.00 62.69 LIG 0.14  A 
ATOM     20 NE2  HIS B   3      77.559  42.313  24.161  1.00 63.05 LIG-0.25  NA
ATOM     21  CE1 HIS B   3      77.446  41.028  23.877  1.00 63.79 LIG 0.23  A 
ATOM     22 ND1  HIS B   3      76.756  40.908  22.756  1.00 63.44 LIG-0.24  NA
ENDBRANCH 17 18
ENDBRANCH 16 17
BRANCH 16 23
ATOM     23  C   HIS B   3      77.155  41.214  19.449  1.00 63.55 LIG 0.20  C 
ATOM     24 OXT  HIS B   3      78.109  40.840  20.160  1.00 62.89 LIG-0.65  OA
ATOM     25 O    HIS B   3      76.715  40.562  18.477  1.00 64.85 LIG-0.65  OA
ENDBRANCH 16 23
ENDBRANCH 13 16
ENDBRANCH 1 12
BRANCH 1 26
ATOM     26  CB  ILE B   2      75.368  43.086  15.400  1.00 64.73 LIG 0.01  C 
ATOM     27  CG2 ILE B   2      75.581  41.679  15.953  1.00 64.62 LIG 0.01  C 
BRANCH 26 28
ATOM     28  CG1 ILE B   2      74.123  43.138  14.512  1.00 64.82 LIG 0.00  C 
ATOM     29  CD1 ILE B   2      74.116  44.284  13.527  1.00 66.82 LIG 0.01  C 
ENDBRANCH 26 28
ENDBRANCH 1 26
TORSDOF 10
ENDMDL
MODEL 17
USER: ADFR SOLUTION from run 97
USER: SCORE 11.832549 LL:  -2.172 LR:  -9.776 RR:   0.000 FEB:  -6.793
USER: RMSD 5.396812
USER: SEED 96
USER: STATUS no improvement in best in 19 clusters for 5 generations
USER: GENES 12
USER: genes 0 Translation |==|  0.52677 0.33754 0.55093
USER: genes 1 Rotation |==|  0.49137 0.82031 0.13165 0.60792
USER: genes 2 Torsion [C]-CA--N-[C] |==|  0.70768
USER: genes 3 Torsion [N]-C--CA-[N] |==|  0.89233
USER: genes 4 Torsion [C]-CA--N-[H2] |==|  0.32803
USER: genes 5 Torsion [N]-CA--C-[N] |==|  0.43029
USER: genes 6 Torsion [C]-N--CA-[CB] |==|  0.28615
USER: genes 7 Torsion [N]-CA--CB-[CG] |==|  0.86208
USER: genes 8 Torsion [CA]-CB--CG-[CD2] |==|  0.69860
USER: genes 9 Torsion [N]-CA--C-[OXT] |==|  0.82029
USER: genes 10 Torsion [N]-CA--CB-[CG2] |==|  0.44067
USER: genes 11 Torsion [CA]-CB--CG1-[CD1] |==|  0.95034
ROOT
ATOM      1  CA  ILE B   2      76.266  43.515  17.652  1.00 64.17 LIG 0.18  C 
ENDROOT
BRANCH 1 2
ATOM      2  N   ILE B   2      76.994  44.432  16.784  1.00 64.56 LIG-0.35  N 
ATOM      3  C   ALA B   1      76.381  45.414  16.130  1.00 64.53 LIG 0.25  C 
ATOM      4 O    ALA B   1      75.169  45.622  16.217  1.00 64.21 LIG-0.27  OA
ATOM      5 H    ILE B   2      77.839  44.280  16.738  1.00 64.56 LIG 0.16  HD
BRANCH 3 6
ATOM      6  CA  ALA B   1      77.271  46.295  15.253  1.00 64.34 LIG 0.27  C 
ATOM      7  CB  ALA B   1      77.481  45.639  13.893  1.00 65.15 LIG 0.05  C 
BRANCH 6 8
ATOM      8  N   ALA B   1      78.590  46.561  15.897  1.00 63.44 LIG-0.07  N 
ATOM      9 H2   ALA B   1      79.240  46.227  15.390  1.00 63.44 LIG 0.28  HD
ATOM     10 H3   ALA B   1      78.705  47.439  15.986  1.00 63.44 LIG 0.28  HD
ATOM     11 H1   ALA B   1      78.611  46.176  16.699  1.00 63.44 LIG 0.28  HD
ENDBRANCH 6 8
ENDBRANCH 3 6
ENDBRANCH 1 2
BRANCH 1 12
ATOM     12  C   ILE B   2      76.516  43.824  19.125  1.00 63.93 LIG 0.24  C 
ATOM     13  N   HIS B   3      75.567  43.442  19.973  1.00 63.34 LIG-0.34  N 
ATOM     14 H    HIS B   3      74.842  43.042  19.738  1.00 63.34 LIG 0.16  HD
ATOM     15 O    ILE B   2      77.547  44.394  19.485  1.00 63.64 LIG-0.27  OA
BRANCH 13 16
ATOM     16  CA  HIS B   3      75.693  43.679  21.404  1.00 63.18 LIG 0.19  C 
BRANCH 16 17
ATOM     17  CB  HIS B   3      74.820  44.864  21.826  1.00 62.24 LIG 0.10  C 
BRANCH 17 18
ATOM     18  CG  HIS B   3      75.000  46.084  20.976  1.00 63.21 LIG 0.06  A 
ATOM     19  CD2 HIS B   3      75.590  47.275  21.238  1.00 62.69 LIG 0.14  A 
ATOM     20 NE2  HIS B   3      75.476  48.042  20.104  1.00 63.05 LIG-0.25  NA
ATOM     21  CE1 HIS B   3      74.840  47.347  19.177  1.00 63.79 LIG 0.23  A 
ATOM     22 ND1  HIS B   3      74.542  46.161  19.678  1.00 63.44 LIG-0.24  NA
ENDBRANCH 17 18
ENDBRANCH 16 17
BRANCH 16 23
ATOM     23  C   HIS B   3      75.278  42.434  22.177  1.00 63.55 LIG 0.20  C 
ATOM     24 OXT  HIS B   3      74.090  42.061  22.099  1.00 62.89 LIG-0.65  OA
ATOM     25 O    HIS B   3      76.150  41.841  22.850  1.00 64.85 LIG-0.65  OA
ENDBRANCH 16 23
ENDBRANCH 13 16
ENDBRANCH 1 12
BRANCH 1 26
ATOM     26  CB  ILE B   2      76.674  42.053  17.379  1.00 64.73 LIG 0.01  C 
ATOM     27  CG2 ILE B   2      76.340  41.182  18.587  1.00 64.62 LIG 0.01  C 
BRANCH 26 28
ATOM     28  CG1 ILE B   2      75.958  41.544  16.127  1.00 64.82 LIG 0.00  C 
ATOM     29  CD1 ILE B   2      74.758  42.370  15.725  1.00 66.82 LIG 0.01  C 
ENDBRANCH 26 28
ENDBRANCH 1 26
TORSDOF 10
ENDMDL
MODEL 18
USER: ADFR SOLUTION from run 86
USER: SCORE 11.236019 LL:  -1.982 LR:  -9.782 RR:   0.000 FEB:  -6.799
USER: RMSD 5.775047
USER: SEED 85
USER: STATUS no improvement in best in 15 clusters for 5 generations
USER: GENES 12
USER: genes 0 Translation |==|  0.40567 0.49015 0.35800
USER: genes 1 Rotation |==|  0.35274 0.80231 0.13536 0.56290
USER: genes 2 Torsion [C]-CA--N-[C] |==|  0.54812
USER: genes 3 Torsion [N]-C--CA-[N] |==|  0.44461
USER: genes 4 Torsion [C]-CA--N-[H2] |==|  0.51351
USER: genes 5 Torsion [N]-CA--C-[N] |==|  0.30375
USER: genes 6 Torsion [C]-N--CA-[CB] |==|  0.33221
USER: genes 7 Torsion [N]-CA--CB-[CG] |==|  0.84169
USER: genes 8 Torsion [CA]-CB--CG-[CD2] |==|  0.08165
USER: genes 9 Torsion [N]-CA--C-[OXT] |==|  0.44562
USER: genes 10 Torsion [N]-CA--CB-[CG2] |==|  0.73536
USER: genes 11 Torsion [CA]-CB--CG1-[CD1] |==|  0.27672
ROOT
ATOM      1  CA  ILE B   2      74.904  46.376  14.614  1.00 64.17 LIG 0.18  C 
ENDROOT
BRANCH 1 2
ATOM      2  N   ILE B   2      74.875  47.196  13.409  1.00 64.56 LIG-0.35  N 
ATOM      3  C   ALA B   1      73.970  47.006  12.453  1.00 64.53 LIG 0.25  C 
ATOM      4 O    ALA B   1      73.097  46.140  12.520  1.00 64.21 LIG-0.27  OA
ATOM      5 H    ILE B   2      75.486  47.801  13.377  1.00 64.56 LIG 0.16  HD
BRANCH 3 6
ATOM      6  CA  ALA B   1      74.064  47.938  11.244  1.00 64.34 LIG 0.27  C 
ATOM      7  CB  ALA B   1      73.481  49.304  11.589  1.00 65.15 LIG 0.05  C 
BRANCH 6 8
ATOM      8  N   ALA B   1      73.362  47.372  10.056  1.00 63.44 LIG-0.07  N 
ATOM      9 H2   ALA B   1      73.494  47.902   9.353  1.00 63.44 LIG 0.28  HD
ATOM     10 H3   ALA B   1      73.683  46.561   9.881  1.00 63.44 LIG 0.28  HD
ATOM     11 H1   ALA B   1      72.490  47.316  10.226  1.00 63.44 LIG 0.28  HD
ENDBRANCH 6 8
ENDBRANCH 3 6
ENDBRANCH 1 2
BRANCH 1 12
ATOM     12  C   ILE B   2      75.723  47.036  15.718  1.00 63.93 LIG 0.24  C 
ATOM     13  N   HIS B   3      75.039  47.503  16.757  1.00 63.34 LIG-0.34  N 
ATOM     14 H    HIS B   3      74.183  47.454  16.833  1.00 63.34 LIG 0.16  HD
ATOM     15 O    ILE B   2      76.950  47.118  15.632  1.00 63.64 LIG-0.27  OA
BRANCH 13 16
ATOM     16  CA  HIS B   3      75.711  48.151  17.874  1.00 63.18 LIG 0.19  C 
BRANCH 16 17
ATOM     17  CB  HIS B   3      75.217  49.592  18.029  1.00 62.24 LIG 0.10  C 
BRANCH 17 18
ATOM     18  CG  HIS B   3      75.394  50.429  16.800  1.00 63.21 LIG 0.06  A 
ATOM     19  CD2 HIS B   3      75.406  50.097  15.487  1.00 62.69 LIG 0.14  A 
ATOM     20 NE2  HIS B   3      75.607  51.255  14.777  1.00 63.05 LIG-0.25  NA
ATOM     21  CE1 HIS B   3      75.713  52.265  15.622  1.00 63.79 LIG 0.23  A 
ATOM     22 ND1  HIS B   3      75.588  51.794  16.850  1.00 63.44 LIG-0.24  NA
ENDBRANCH 17 18
ENDBRANCH 16 17
BRANCH 16 23
ATOM     23  C   HIS B   3      75.447  47.377  19.160  1.00 63.55 LIG 0.20  C 
ATOM     24 OXT  HIS B   3      76.219  47.554  20.123  1.00 62.89 LIG-0.65  OA
ATOM     25 O    HIS B   3      74.465  46.603  19.189  1.00 64.85 LIG-0.65  OA
ENDBRANCH 16 23
ENDBRANCH 13 16
ENDBRANCH 1 12
BRANCH 1 26
ATOM     26  CB  ILE B   2      75.500  44.985  14.322  1.00 64.73 LIG 0.01  C 
ATOM     27  CG2 ILE B   2      74.382  43.984  14.043  1.00 64.62 LIG 0.01  C 
BRANCH 26 28
ATOM     28  CG1 ILE B   2      76.458  45.074  13.133  1.00 64.82 LIG 0.00  C 
ATOM     29  CD1 ILE B   2      77.917  45.148  13.521  1.00 66.82 LIG 0.01  C 
ENDBRANCH 26 28
ENDBRANCH 1 26
TORSDOF 10
ENDMDL
MODEL 19
USER: ADFR SOLUTION from run 39
USER: SCORE 11.574599 LL:  -1.991 LR:  -9.748 RR:   0.000 FEB:  -6.765
USER: RMSD 5.608770
USER: SEED 38
USER: STATUS no improvement in best in 21 clusters for 5 generations
USER: GENES 12
USER: genes 0 Translation |==|  0.42935 0.32343 0.53728
USER: genes 1 Rotation |==|  0.37680 0.78157 0.12666 0.62712
USER: genes 2 Torsion [C]-CA--N-[C] |==|  0.55573
USER: genes 3 Torsion [N]-C--CA-[N] |==|  0.48918
USER: genes 4 Torsion [C]-CA--N-[H2] |==|  0.51158
USER: genes 5 Torsion [N]-CA--C-[N] |==|  0.43333
USER: genes 6 Torsion [C]-N--CA-[CB] |==|  0.23549
USER: genes 7 Torsion [N]-CA--CB-[CG] |==|  0.77181
USER: genes 8 Torsion [CA]-CB--CG-[CD2] |==|  0.72647
USER: genes 9 Torsion [N]-CA--C-[OXT] |==|  0.92754
USER: genes 10 Torsion [N]-CA--CB-[CG2] |==|  0.02596
USER: genes 11 Torsion [CA]-CB--CG1-[CD1] |==|  0.29907
ROOT
ATOM      1  CA  ILE B   2      75.170  43.250  17.437  1.00 64.17 LIG 0.18  C 
ENDROOT
BRANCH 1 2
ATOM      2  N   ILE B   2      75.314  44.087  16.252  1.00 64.56 LIG-0.35  N 
ATOM      3  C   ALA B   1      74.665  43.819  15.122  1.00 64.53 LIG 0.25  C 
ATOM      4 O    ALA B   1      73.899  42.861  15.001  1.00 64.21 LIG-0.27  OA
ATOM      5 H    ILE B   2      75.846  44.754  16.352  1.00 64.56 LIG 0.16  HD
BRANCH 3 6
ATOM      6  CA  ALA B   1      74.916  44.780  13.960  1.00 64.34 LIG 0.27  C 
ATOM      7  CB  ALA B   1      74.465  46.187  14.336  1.00 65.15 LIG 0.05  C 
BRANCH 6 8
ATOM      8  N   ALA B   1      74.216  44.338  12.719  1.00 63.44 LIG-0.07  N 
ATOM      9 H2   ALA B   1      74.430  44.882  12.048  1.00 63.44 LIG 0.28  HD
ATOM     10 H3   ALA B   1      74.465  43.507  12.518  1.00 63.44 LIG 0.28  HD
ATOM     11 H1   ALA B   1      73.336  44.360  12.851  1.00 63.44 LIG 0.28  HD
ENDBRANCH 6 8
ENDBRANCH 3 6
ENDBRANCH 1 2
BRANCH 1 12
ATOM     12  C   ILE B   2      75.589  43.996  18.700  1.00 63.93 LIG 0.24  C 
ATOM     13  N   HIS B   3      75.063  43.561  19.840  1.00 63.34 LIG-0.34  N 
ATOM     14 H    HIS B   3      74.514  42.901  19.897  1.00 63.34 LIG 0.16  HD
ATOM     15 O    ILE B   2      76.375  44.944  18.643  1.00 63.64 LIG-0.27  OA
BRANCH 13 16
ATOM     16  CA  HIS B   3      75.390  44.191  21.111  1.00 63.18 LIG 0.19  C 
BRANCH 16 17
ATOM     17  CB  HIS B   3      74.489  45.406  21.350  1.00 62.24 LIG 0.10  C 
BRANCH 17 18
ATOM     18  CG  HIS B   3      74.951  46.650  20.656  1.00 63.21 LIG 0.06  A 
ATOM     19  CD2 HIS B   3      75.658  47.714  21.106  1.00 62.69 LIG 0.14  A 
ATOM     20 NE2  HIS B   3      75.807  48.579  20.050  1.00 63.05 LIG-0.25  NA
ATOM     21  CE1 HIS B   3      75.215  48.065  18.987  1.00 63.79 LIG 0.23  A 
ATOM     22 ND1  HIS B   3      74.690  46.900  19.325  1.00 63.44 LIG-0.24  NA
ENDBRANCH 17 18
ENDBRANCH 16 17
BRANCH 16 23
ATOM     23  C   HIS B   3      75.215  43.191  22.248  1.00 63.55 LIG 0.20  C 
ATOM     24 OXT  HIS B   3      74.410  42.252  22.088  1.00 62.89 LIG-0.65  OA
ATOM     25 O    HIS B   3      75.892  43.357  23.286  1.00 64.85 LIG-0.65  OA
ENDBRANCH 16 23
ENDBRANCH 13 16
ENDBRANCH 1 12
BRANCH 1 26
ATOM     26  CB  ILE B   2      76.019  41.969  17.317  1.00 64.73 LIG 0.01  C 
ATOM     27  CG2 ILE B   2      76.937  42.061  16.100  1.00 64.62 LIG 0.01  C 
BRANCH 26 28
ATOM     28  CG1 ILE B   2      76.833  41.768  18.597  1.00 64.82 LIG 0.00  C 
ATOM     29  CD1 ILE B   2      76.340  40.636  19.468  1.00 66.82 LIG 0.01  C 
ENDBRANCH 26 28
ENDBRANCH 1 26
TORSDOF 10
ENDMDL
MODEL 20
USER: ADFR SOLUTION from run 63
USER: SCORE 10.829149 LL:  -1.809 LR:  -9.743 RR:   0.000 FEB:  -6.760
USER: RMSD 6.569510
USER: SEED 62
USER: STATUS no improvement in best in 21 clusters for 5 generations
USER: GENES 12
USER: genes 0 Translation |==|  0.55687 0.37730 0.33008
USER: genes 1 Rotation |==|  0.78550 0.21672 0.20809 0.55503
USER: genes 2 Torsion [C]-CA--N-[C] |==|  0.55556
USER: genes 3 Torsion [N]-C--CA-[N] |==|  0.94611
USER: genes 4 Torsion [C]-CA--N-[H2] |==|  0.01941
USER: genes 5 Torsion [N]-CA--C-[N] |==|  0.13004
USER: genes 6 Torsion [C]-N--CA-[CB] |==|  0.88297
USER: genes 7 Torsion [N]-CA--CB-[CG] |==|  0.31857
USER: genes 8 Torsion [CA]-CB--CG-[CD2] |==|  0.71643
USER: genes 9 Torsion [N]-CA--C-[OXT] |==|  0.92819
USER: genes 10 Torsion [N]-CA--CB-[CG2] |==|  0.74337
USER: genes 11 Torsion [CA]-CB--CG1-[CD1] |==|  0.27905
ROOT
ATOM      1  CA  ILE B   2      76.605  44.260  14.174  1.00 64.17 LIG 0.18  C 
ENDROOT
BRANCH 1 2
ATOM      2  N   ILE B   2      76.978  44.099  15.573  1.00 64.56 LIG-0.35  N 
ATOM      3  C   ALA B   1      76.631  43.021  16.271  1.00 64.53 LIG 0.25  C 
ATOM      4 O    ALA B   1      75.984  42.090  15.789  1.00 64.21 LIG-0.27  OA
ATOM      5 H    ILE B   2      77.434  44.752  15.896  1.00 64.56 LIG 0.16  HD
BRANCH 3 6
ATOM      6  CA  ALA B   1      77.088  42.990  17.730  1.00 64.34 LIG 0.27  C 
ATOM      7  CB  ALA B   1      75.921  43.323  18.653  1.00 65.15 LIG 0.05  C 
BRANCH 6 8
ATOM      8  N   ALA B   1      78.215  43.936  17.975  1.00 63.44 LIG-0.07  N 
ATOM      9 H2   ALA B   1      78.354  44.427  17.246  1.00 63.44 LIG 0.28  HD
ATOM     10 H3   ALA B   1      78.011  44.470  18.657  1.00 63.44 LIG 0.28  HD
ATOM     11 H1   ALA B   1      78.952  43.476  18.169  1.00 63.44 LIG 0.28  HD
ENDBRANCH 6 8
ENDBRANCH 3 6
ENDBRANCH 1 2
BRANCH 1 12
ATOM     12  C   ILE B   2      77.495  45.282  13.473  1.00 63.93 LIG 0.24  C 
ATOM     13  N   HIS B   3      78.802  45.159  13.678  1.00 63.34 LIG-0.34  N 
ATOM     14 H    HIS B   3      79.158  44.551  14.171  1.00 63.34 LIG 0.16  HD
ATOM     15 O    ILE B   2      77.008  46.162  12.761  1.00 63.64 LIG-0.27  OA
BRANCH 13 16
ATOM     16  CA  HIS B   3      79.752  46.074  13.060  1.00 63.18 LIG 0.19  C 
BRANCH 16 17
ATOM     17  CB  HIS B   3      79.360  46.346  11.606  1.00 62.24 LIG 0.10  C 
BRANCH 17 18
ATOM     18  CG  HIS B   3      78.965  47.765  11.339  1.00 63.21 LIG 0.06  A 
ATOM     19  CD2 HIS B   3      77.747  48.340  11.189  1.00 62.69 LIG 0.14  A 
ATOM     20 NE2  HIS B   3      77.956  49.678  10.960  1.00 63.05 LIG-0.25  NA
ATOM     21  CE1 HIS B   3      79.255  49.919  10.970  1.00 63.79 LIG 0.23  A 
ATOM     22 ND1  HIS B   3      79.887  48.781  11.197  1.00 63.44 LIG-0.24  NA
ENDBRANCH 17 18
ENDBRANCH 16 17
BRANCH 16 23
ATOM     23  C   HIS B   3      79.791  47.385  13.836  1.00 63.55 LIG 0.20  C 
ATOM     24 OXT  HIS B   3      78.779  47.715  14.486  1.00 62.89 LIG-0.65  OA
ATOM     25 O    HIS B   3      80.839  48.066  13.786  1.00 64.85 LIG-0.65  OA
ENDBRANCH 16 23
ENDBRANCH 13 16
ENDBRANCH 1 12
BRANCH 1 26
ATOM     26  CB  ILE B   2      75.137  44.713  14.042  1.00 64.73 LIG 0.01  C 
ATOM     27  CG2 ILE B   2      74.226  43.497  13.890  1.00 64.62 LIG 0.01  C 
BRANCH 26 28
ATOM     28  CG1 ILE B   2      74.741  45.540  15.266  1.00 64.82 LIG 0.00  C 
ATOM     29  CD1 ILE B   2      74.756  47.033  15.032  1.00 66.82 LIG 0.01  C 
ENDBRANCH 26 28
ENDBRANCH 1 26
TORSDOF 10
ENDMDL
MODEL 21
USER: ADFR SOLUTION from run 131
USER: SCORE 10.635804 LL:  -2.003 LR:  -9.722 RR:   0.000 FEB:  -6.739
USER: RMSD 6.303866
USER: SEED 130
USER: STATUS no improvement in best in 17 clusters for 5 generations
USER: GENES 12
USER: genes 0 Translation |==|  0.54064 0.35934 0.39119
USER: genes 1 Rotation |==|  0.73878 0.20670 0.21752 0.66481
USER: genes 2 Torsion [C]-CA--N-[C] |==|  0.51790
USER: genes 3 Torsion [N]-C--CA-[N] |==|  0.04254
USER: genes 4 Torsion [C]-CA--N-[H2] |==|  0.59733
USER: genes 5 Torsion [N]-CA--C-[N] |==|  0.02278
USER: genes 6 Torsion [C]-N--CA-[CB] |==|  0.19358
USER: genes 7 Torsion [N]-CA--CB-[CG] |==|  0.70296
USER: genes 8 Torsion [CA]-CB--CG-[CD2] |==|  0.36646
USER: genes 9 Torsion [N]-CA--C-[OXT] |==|  0.79120
USER: genes 10 Torsion [N]-CA--CB-[CG2] |==|  0.27720
USER: genes 11 Torsion [CA]-CB--CG1-[CD1] |==|  0.15604
ROOT
ATOM      1  CA  ILE B   2      76.422  43.924  15.136  1.00 64.17 LIG 0.18  C 
ENDROOT
BRANCH 1 2
ATOM      2  N   ILE B   2      77.223  44.260  16.307  1.00 64.56 LIG-0.35  N 
ATOM      3  C   ALA B   1      77.102  43.596  17.453  1.00 64.53 LIG 0.25  C 
ATOM      4 O    ALA B   1      76.320  42.656  17.603  1.00 64.21 LIG-0.27  OA
ATOM      5 H    ILE B   2      77.769  44.913  16.187  1.00 64.56 LIG 0.16  HD
BRANCH 3 6
ATOM      6  CA  ALA B   1      78.003  44.062  18.597  1.00 64.34 LIG 0.27  C 
ATOM      7  CB  ALA B   1      77.218  44.094  19.903  1.00 65.15 LIG 0.05  C 
BRANCH 6 8
ATOM      8  N   ALA B   1      78.590  45.406  18.325  1.00 63.44 LIG-0.07  N 
ATOM      9 H2   ALA B   1      79.413  45.444  18.660  1.00 63.44 LIG 0.28  HD
ATOM     10 H3   ALA B   1      78.621  45.543  17.446  1.00 63.44 LIG 0.28  HD
ATOM     11 H1   ALA B   1      78.085  46.032  18.705  1.00 63.44 LIG 0.28  HD
ENDBRANCH 6 8
ENDBRANCH 3 6
ENDBRANCH 1 2
BRANCH 1 12
ATOM     12  C   ILE B   2      76.860  44.723  13.913  1.00 63.93 LIG 0.24  C 
ATOM     13  N   HIS B   3      77.969  45.442  14.048  1.00 63.34 LIG-0.34  N 
ATOM     14 H    HIS B   3      78.435  45.478  14.770  1.00 63.34 LIG 0.16  HD
ATOM     15 O    ILE B   2      76.208  44.686  12.867  1.00 63.64 LIG-0.27  OA
BRANCH 13 16
ATOM     16  CA  HIS B   3      78.488  46.244  12.949  1.00 63.18 LIG 0.19  C 
BRANCH 16 17
ATOM     17  CB  HIS B   3      77.566  47.436  12.679  1.00 62.24 LIG 0.10  C 
BRANCH 17 18
ATOM     18  CG  HIS B   3      76.755  47.306  11.427  1.00 63.21 LIG 0.06  A 
ATOM     19  CD2 HIS B   3      75.434  47.496  11.195  1.00 62.69 LIG 0.14  A 
ATOM     20 NE2  HIS B   3      75.215  47.239   9.864  1.00 63.05 LIG-0.25  NA
ATOM     21  CE1 HIS B   3      76.360  46.903   9.296  1.00 63.79 LIG 0.23  A 
ATOM     22 ND1  HIS B   3      77.306  46.936  10.218  1.00 63.44 LIG-0.24  NA
ENDBRANCH 17 18
ENDBRANCH 16 17
BRANCH 16 23
ATOM     23  C   HIS B   3      79.888  46.742  13.284  1.00 63.55 LIG 0.20  C 
ATOM     24 OXT  HIS B   3      80.001  47.676  14.102  1.00 62.89 LIG-0.65  OA
ATOM     25 O    HIS B   3      80.859  46.186  12.725  1.00 64.85 LIG-0.65  OA
ENDBRANCH 16 23
ENDBRANCH 13 16
ENDBRANCH 1 12
BRANCH 1 26
ATOM     26  CB  ILE B   2      74.926  44.195  15.393  1.00 64.73 LIG 0.01  C 
ATOM     27  CG2 ILE B   2      74.522  45.529  14.769  1.00 64.62 LIG 0.01  C 
BRANCH 26 28
ATOM     28  CG1 ILE B   2      74.089  43.050  14.819  1.00 64.82 LIG 0.00  C 
ATOM     29  CD1 ILE B   2      74.465  41.686  15.350  1.00 66.82 LIG 0.01  C 
ENDBRANCH 26 28
ENDBRANCH 1 26
TORSDOF 10
ENDMDL
MODEL 22
USER: ADFR SOLUTION from run 167
USER: SCORE 11.029265 LL:  -1.980 LR:  -9.677 RR:   0.000 FEB:  -6.694
USER: RMSD 6.737308
USER: SEED 166
USER: STATUS no improvement in best in 31 clusters for 5 generations
USER: GENES 12
USER: genes 0 Translation |==|  0.42880 0.55866 0.30472
USER: genes 1 Rotation |==|  0.12495 0.59192 0.74092 0.70699
USER: genes 2 Torsion [C]-CA--N-[C] |==|  0.68544
USER: genes 3 Torsion [N]-C--CA-[N] |==|  0.34241
USER: genes 4 Torsion [C]-CA--N-[H2] |==|  0.69779
USER: genes 5 Torsion [N]-CA--C-[N] |==|  0.77004
USER: genes 6 Torsion [C]-N--CA-[CB] |==|  0.86485
USER: genes 7 Torsion [N]-CA--CB-[CG] |==|  0.83143
USER: genes 8 Torsion [CA]-CB--CG-[CD2] |==|  0.17616
USER: genes 9 Torsion [N]-CA--C-[OXT] |==|  0.78216
USER: genes 10 Torsion [N]-CA--CB-[CG2] |==|  0.51828
USER: genes 11 Torsion [CA]-CB--CG1-[CD1] |==|  0.74353
ROOT
ATOM      1  CA  ILE B   2      75.164  47.661  13.774  1.00 64.17 LIG 0.18  C 
ENDROOT
BRANCH 1 2
ATOM      2  N   ILE B   2      74.615  46.367  14.160  1.00 64.56 LIG-0.35  N 
ATOM      3  C   ALA B   1      75.170  45.224  13.766  1.00 64.53 LIG 0.25  C 
ATOM      4 O    ALA B   1      76.180  45.178  13.062  1.00 64.21 LIG-0.27  OA
ATOM      5 H    ILE B   2      73.914  46.413  14.656  1.00 64.56 LIG 0.16  HD
BRANCH 3 6
ATOM      6  CA  ALA B   1      74.483  43.944  14.243  1.00 64.34 LIG 0.27  C 
ATOM      7  CB  ALA B   1      75.402  43.178  15.189  1.00 65.15 LIG 0.05  C 
BRANCH 6 8
ATOM      8  N   ALA B   1      74.090  43.071  13.100  1.00 63.44 LIG-0.07  N 
ATOM      9 H2   ALA B   1      73.204  43.081  13.010  1.00 63.44 LIG 0.28  HD
ATOM     10 H3   ALA B   1      74.467  43.372  12.353  1.00 63.44 LIG 0.28  HD
ATOM     11 H1   ALA B   1      74.363  42.238  13.255  1.00 63.44 LIG 0.28  HD
ENDBRANCH 6 8
ENDBRANCH 3 6
ENDBRANCH 1 2
BRANCH 1 12
ATOM     12  C   ILE B   2      75.722  48.412  14.979  1.00 63.93 LIG 0.24  C 
ATOM     13  N   HIS B   3      74.840  49.088  15.708  1.00 63.34 LIG-0.34  N 
ATOM     14 H    HIS B   3      73.997  49.122  15.537  1.00 63.34 LIG 0.16  HD
ATOM     15 O    ILE B   2      76.925  48.378  15.244  1.00 63.64 LIG-0.27  OA
BRANCH 13 16
ATOM     16  CA  HIS B   3      75.252  49.842  16.884  1.00 63.18 LIG 0.19  C 
BRANCH 16 17
ATOM     17  CB  HIS B   3      76.141  48.979  17.784  1.00 62.24 LIG 0.10  C 
BRANCH 17 18
ATOM     18  CG  HIS B   3      75.469  47.742  18.294  1.00 63.21 LIG 0.06  A 
ATOM     19  CD2 HIS B   3      74.980  46.658  17.645  1.00 62.69 LIG 0.14  A 
ATOM     20 NE2  HIS B   3      74.465  45.813  18.596  1.00 63.05 LIG-0.25  NA
ATOM     21  CE1 HIS B   3      74.632  46.356  19.789  1.00 63.79 LIG 0.23  A 
ATOM     22 ND1  HIS B   3      75.236  47.521  19.635  1.00 63.44 LIG-0.24  NA
ENDBRANCH 17 18
ENDBRANCH 16 17
BRANCH 16 23
ATOM     23  C   HIS B   3      76.011  51.093  16.460  1.00 63.55 LIG 0.20  C 
ATOM     24 OXT  HIS B   3      77.203  50.971  16.113  1.00 62.89 LIG-0.65  OA
ATOM     25 O    HIS B   3      75.400  52.184  16.476  1.00 64.85 LIG-0.65  OA
ENDBRANCH 16 23
ENDBRANCH 13 16
ENDBRANCH 1 12
BRANCH 1 26
ATOM     26  CB  ILE B   2      74.091  48.538  13.100  1.00 64.73 LIG 0.01  C 
ATOM     27  CG2 ILE B   2      74.724  49.818  12.560  1.00 64.62 LIG 0.01  C 
BRANCH 26 28
ATOM     28  CG1 ILE B   2      73.413  47.751  11.976  1.00 64.82 LIG 0.00  C 
ATOM     29  CD1 ILE B   2      74.050  47.944  10.619  1.00 66.82 LIG 0.01  C 
ENDBRANCH 26 28
ENDBRANCH 1 26
TORSDOF 10
ENDMDL
MODEL 23
USER: ADFR SOLUTION from run 20
USER: SCORE 11.113592 LL:  -1.957 LR:  -9.663 RR:   0.000 FEB:  -6.680
USER: RMSD 5.733931
USER: SEED 19
USER: STATUS no improvement in best in 19 clusters for 5 generations
USER: GENES 12
USER: genes 0 Translation |==|  0.37389 0.46877 0.35930
USER: genes 1 Rotation |==|  0.38737 0.81424 0.13274 0.56073
USER: genes 2 Torsion [C]-CA--N-[C] |==|  0.54444
USER: genes 3 Torsion [N]-C--CA-[N] |==|  0.47291
USER: genes 4 Torsion [C]-CA--N-[H2] |==|  0.51293
USER: genes 5 Torsion [N]-CA--C-[N] |==|  0.31183
USER: genes 6 Torsion [C]-N--CA-[CB] |==|  0.81543
USER: genes 7 Torsion [N]-CA--CB-[CG] |==|  0.75480
USER: genes 8 Torsion [CA]-CB--CG-[CD2] |==|  0.59100
USER: genes 9 Torsion [N]-CA--C-[OXT] |==|  0.08840
USER: genes 10 Torsion [N]-CA--CB-[CG2] |==|  0.11833
USER: genes 11 Torsion [CA]-CB--CG1-[CD1] |==|  0.36444
ROOT
ATOM      1  CA  ILE B   2      74.546  45.975  14.634  1.00 64.17 LIG 0.18  C 
ENDROOT
BRANCH 1 2
ATOM      2  N   ILE B   2      74.717  46.839  13.472  1.00 64.56 LIG-0.35  N 
ATOM      3  C   ALA B   1      73.908  46.766  12.420  1.00 64.53 LIG 0.25  C 
ATOM      4 O    ALA B   1      72.962  45.978  12.355  1.00 64.21 LIG-0.27  OA
ATOM      5 H    ILE B   2      75.376  47.388  13.533  1.00 64.56 LIG 0.16  HD
BRANCH 3 6
ATOM      6  CA  ALA B   1      74.209  47.731  11.272  1.00 64.34 LIG 0.27  C 
ATOM      7  CB  ALA B   1      73.943  49.167  11.711  1.00 65.15 LIG 0.05  C 
BRANCH 6 8
ATOM      8  N   ALA B   1      73.402  47.413  10.059  1.00 63.44 LIG-0.07  N 
ATOM      9 H2   ALA B   1      73.648  47.947   9.391  1.00 63.44 LIG 0.28  HD
ATOM     10 H3   ALA B   1      73.537  46.565   9.826  1.00 63.44 LIG 0.28  HD
ATOM     11 H1   ALA B   1      72.539  47.537  10.236  1.00 63.44 LIG 0.28  HD
ENDBRANCH 6 8
ENDBRANCH 3 6
ENDBRANCH 1 2
BRANCH 1 12
ATOM     12  C   ILE B   2      75.321  46.501  15.838  1.00 63.93 LIG 0.24  C 
ATOM     13  N   HIS B   3      74.591  46.943  16.857  1.00 63.34 LIG-0.34  N 
ATOM     14 H    HIS B   3      73.731  46.948  16.868  1.00 63.34 LIG 0.16  HD
ATOM     15 O    ILE B   2      76.553  46.503  15.845  1.00 63.64 LIG-0.27  OA
BRANCH 13 16
ATOM     16  CA  HIS B   3      75.218  47.466  18.063  1.00 63.18 LIG 0.19  C 
BRANCH 16 17
ATOM     17  CB  HIS B   3      75.964  46.351  18.801  1.00 62.24 LIG 0.10  C 
BRANCH 17 18
ATOM     18  CG  HIS B   3      75.115  45.596  19.777  1.00 63.21 LIG 0.06  A 
ATOM     19  CD2 HIS B   3      75.420  45.011  20.960  1.00 62.69 LIG 0.14  A 
ATOM     20 NE2  HIS B   3      74.264  44.452  21.447  1.00 63.05 LIG-0.25  NA
ATOM     21  CE1 HIS B   3      73.282  44.686  20.595  1.00 63.79 LIG 0.23  A 
ATOM     22 ND1  HIS B   3      73.769  45.375  19.578  1.00 63.44 LIG-0.24  NA
ENDBRANCH 17 18
ENDBRANCH 16 17
BRANCH 16 23
ATOM     23  C   HIS B   3      76.190  48.583  17.703  1.00 63.55 LIG 0.20  C 
ATOM     24 OXT  HIS B   3      75.928  49.295  16.713  1.00 62.89 LIG-0.65  OA
ATOM     25 O    HIS B   3      77.203  48.735  18.420  1.00 64.85 LIG-0.65  OA
ENDBRANCH 16 23
ENDBRANCH 13 16
ENDBRANCH 1 12
BRANCH 1 26
ATOM     26  CB  ILE B   2      75.021  44.540  14.331  1.00 64.73 LIG 0.01  C 
ATOM     27  CG2 ILE B   2      76.332  44.576  13.550  1.00 64.62 LIG 0.01  C 
BRANCH 26 28
ATOM     28  CG1 ILE B   2      75.189  43.766  15.639  1.00 64.82 LIG 0.00  C 
ATOM     29  CD1 ILE B   2      74.530  42.406  15.639  1.00 66.82 LIG 0.01  C 
ENDBRANCH 26 28
ENDBRANCH 1 26
TORSDOF 10
ENDMDL
MODEL 24
USER: ADFR SOLUTION from run 49
USER: SCORE 11.754404 LL:  -2.276 LR:  -9.658 RR:   0.000 FEB:  -6.675
USER: RMSD 6.372827
USER: SEED 48
USER: STATUS no improvement in best in 21 clusters for 5 generations
USER: GENES 12
USER: genes 0 Translation |==|  0.54768 0.38446 0.33473
USER: genes 1 Rotation |==|  0.79849 0.24160 0.19957 0.56224
USER: genes 2 Torsion [C]-CA--N-[C] |==|  0.53890
USER: genes 3 Torsion [N]-C--CA-[N] |==|  0.94778
USER: genes 4 Torsion [C]-CA--N-[H2] |==|  0.98644
USER: genes 5 Torsion [N]-CA--C-[N] |==|  0.46028
USER: genes 6 Torsion [C]-N--CA-[CB] |==|  0.80852
USER: genes 7 Torsion [N]-CA--CB-[CG] |==|  0.88844
USER: genes 8 Torsion [CA]-CB--CG-[CD2] |==|  0.87822
USER: genes 9 Torsion [N]-CA--C-[OXT] |==|  0.59365
USER: genes 10 Torsion [N]-CA--CB-[CG2] |==|  0.73312
USER: genes 11 Torsion [CA]-CB--CG1-[CD1] |==|  0.22895
ROOT
ATOM      1  CA  ILE B   2      76.501  44.395  14.247  1.00 64.17 LIG 0.18  C 
ENDROOT
BRANCH 1 2
ATOM      2  N   ILE B   2      76.917  44.179  15.627  1.00 64.56 LIG-0.35  N 
ATOM      3  C   ALA B   1      76.589  43.076  16.294  1.00 64.53 LIG 0.25  C 
ATOM      4 O    ALA B   1      75.927  42.164  15.795  1.00 64.21 LIG-0.27  OA
ATOM      5 H    ILE B   2      77.383  44.820  15.961  1.00 64.56 LIG 0.16  HD
BRANCH 3 6
ATOM      6  CA  ALA B   1      77.090  42.988  17.736  1.00 64.34 LIG 0.27  C 
ATOM      7  CB  ALA B   1      75.948  43.271  18.705  1.00 65.15 LIG 0.05  C 
BRANCH 6 8
ATOM      8  N   ALA B   1      78.215  43.935  17.987  1.00 63.44 LIG-0.07  N 
ATOM      9 H2   ALA B   1      78.442  44.335  17.225  1.00 63.44 LIG 0.28  HD
ATOM     10 H3   ALA B   1      77.960  44.548  18.579  1.00 63.44 LIG 0.28  HD
ATOM     11 H1   ALA B   1      78.914  43.487  18.306  1.00 63.44 LIG 0.28  HD
ENDBRANCH 6 8
ENDBRANCH 3 6
ENDBRANCH 1 2
BRANCH 1 12
ATOM     12  C   ILE B   2      77.273  45.544  13.605  1.00 63.93 LIG 0.24  C 
ATOM     13  N   HIS B   3      77.192  45.638  12.283  1.00 63.34 LIG-0.34  N 
ATOM     14 H    HIS B   3      76.741  45.098  11.787  1.00 63.34 LIG 0.16  HD
ATOM     15 O    ILE B   2      77.925  46.330  14.295  1.00 63.64 LIG-0.27  OA
BRANCH 13 16
ATOM     16  CA  HIS B   3      77.883  46.695  11.557  1.00 63.18 LIG 0.19  C 
BRANCH 16 17
ATOM     17  CB  HIS B   3      77.242  48.053  11.859  1.00 62.24 LIG 0.10  C 
BRANCH 17 18
ATOM     18  CG  HIS B   3      75.747  48.016  11.929  1.00 63.21 LIG 0.06  A 
ATOM     19  CD2 HIS B   3      74.831  47.410  11.136  1.00 62.69 LIG 0.14  A 
ATOM     20 NE2  HIS B   3      73.592  47.701  11.652  1.00 63.05 LIG-0.25  NA
ATOM     21  CE1 HIS B   3      73.740  48.457  12.725  1.00 63.79 LIG 0.23  A 
ATOM     22 ND1  HIS B   3      75.031  48.662  12.914  1.00 63.44 LIG-0.24  NA
ENDBRANCH 17 18
ENDBRANCH 16 17
BRANCH 16 23
ATOM     23  C   HIS B   3      79.354  46.722  11.953  1.00 63.55 LIG 0.20  C 
ATOM     24 OXT  HIS B   3      79.935  47.825  11.985  1.00 62.89 LIG-0.65  OA
ATOM     25 O    HIS B   3      79.907  45.636  12.232  1.00 64.85 LIG-0.65  OA
ENDBRANCH 16 23
ENDBRANCH 13 16
ENDBRANCH 1 12
BRANCH 1 26
ATOM     26  CB  ILE B   2      74.994  44.706  14.165  1.00 64.73 LIG 0.01  C 
ATOM     27  CG2 ILE B   2      74.212  43.432  13.853  1.00 64.62 LIG 0.01  C 
BRANCH 26 28
ATOM     28  CG1 ILE B   2      74.523  45.324  15.483  1.00 64.82 LIG 0.00  C 
ATOM     29  CD1 ILE B   2      74.787  46.808  15.596  1.00 66.82 LIG 0.01  C 
ENDBRANCH 26 28
ENDBRANCH 1 26
TORSDOF 10
ENDMDL
MODEL 25
USER: ADFR SOLUTION from run 148
USER: SCORE 11.584507 LL:  -2.373 LR:  -9.637 RR:   0.000 FEB:  -6.654
USER: RMSD 6.493260
USER: SEED 147
USER: STATUS no improvement in best in 20 clusters for 5 generations
USER: GENES 12
USER: genes 0 Translation |==|  0.36193 0.54382 0.35914
USER: genes 1 Rotation |==|  0.72316 0.24254 0.86590 0.50580
USER: genes 2 Torsion [C]-CA--N-[C] |==|  0.18889
USER: genes 3 Torsion [N]-C--CA-[N] |==|  0.74664
USER: genes 4 Torsion [C]-CA--N-[H2] |==|  0.58487
USER: genes 5 Torsion [N]-CA--C-[N] |==|  0.13622
USER: genes 6 Torsion [C]-N--CA-[CB] |==|  0.26925
USER: genes 7 Torsion [N]-CA--CB-[CG] |==|  0.81894
USER: genes 8 Torsion [CA]-CB--CG-[CD2] |==|  0.79001
USER: genes 9 Torsion [N]-CA--C-[OXT] |==|  0.87206
USER: genes 10 Torsion [N]-CA--CB-[CG2] |==|  0.55307
USER: genes 11 Torsion [CA]-CB--CG1-[CD1] |==|  0.58234
ROOT
ATOM      1  CA  ILE B   2      74.412  47.383  14.631  1.00 64.17 LIG 0.18  C 
ENDROOT
BRANCH 1 2
ATOM      2  N   ILE B   2      73.897  47.871  13.358  1.00 64.56 LIG-0.35  N 
ATOM      3  C   ALA B   1      74.639  47.867  12.254  1.00 64.53 LIG 0.25  C 
ATOM      4 O    ALA B   1      75.797  47.446  12.227  1.00 64.21 LIG-0.27  OA
ATOM      5 H    ILE B   2      73.087  48.156  13.389  1.00 64.56 LIG 0.16  HD
BRANCH 3 6
ATOM      6  CA  ALA B   1      73.970  48.414  10.993  1.00 64.34 LIG 0.27  C 
ATOM      7  CB  ALA B   1      72.965  49.499  11.362  1.00 65.15 LIG 0.05  C 
BRANCH 6 8
ATOM      8  N   ALA B   1      73.291  47.335  10.218  1.00 63.44 LIG-0.07  N 
ATOM      9 H2   ALA B   1      73.305  47.538   9.352  1.00 63.44 LIG 0.28  HD
ATOM     10 H3   ALA B   1      73.715  46.564  10.349  1.00 63.44 LIG 0.28  HD
ATOM     11 H1   ALA B   1      72.447  47.260  10.491  1.00 63.44 LIG 0.28  HD
ENDBRANCH 6 8
ENDBRANCH 3 6
ENDBRANCH 1 2
BRANCH 1 12
ATOM     12  C   ILE B   2      75.510  48.291  15.175  1.00 63.93 LIG 0.24  C 
ATOM     13  N   HIS B   3      75.238  49.591  15.197  1.00 63.34 LIG-0.34  N 
ATOM     14 H    HIS B   3      74.497  49.934  14.926  1.00 63.34 LIG 0.16  HD
ATOM     15 O    ILE B   2      76.580  47.823  15.569  1.00 63.64 LIG-0.27  OA
BRANCH 13 16
ATOM     16  CA  HIS B   3      76.207  50.557  15.696  1.00 63.18 LIG 0.19  C 
BRANCH 16 17
ATOM     17  CB  HIS B   3      76.991  51.173  14.535  1.00 62.24 LIG 0.10  C 
BRANCH 17 18
ATOM     18  CG  HIS B   3      77.853  50.195  13.798  1.00 63.21 LIG 0.06  A 
ATOM     19  CD2 HIS B   3      79.038  49.626  14.124  1.00 62.69 LIG 0.14  A 
ATOM     20 NE2  HIS B   3      79.391  48.800  13.086  1.00 63.05 LIG-0.25  NA
ATOM     21  CE1 HIS B   3      78.456  48.857  12.154  1.00 63.79 LIG 0.23  A 
ATOM     22 ND1  HIS B   3      77.516  49.692  12.559  1.00 63.44 LIG-0.24  NA
ENDBRANCH 17 18
ENDBRANCH 16 17
BRANCH 16 23
ATOM     23  C   HIS B   3      75.493  51.656  16.474  1.00 63.55 LIG 0.20  C 
ATOM     24 OXT  HIS B   3      74.470  52.163  15.972  1.00 62.89 LIG-0.65  OA
ATOM     25 O    HIS B   3      75.964  51.993  17.582  1.00 64.85 LIG-0.65  OA
ENDBRANCH 16 23
ENDBRANCH 13 16
ENDBRANCH 1 12
BRANCH 1 26
ATOM     26  CB  ILE B   2      74.978  45.956  14.489  1.00 64.73 LIG 0.01  C 
ATOM     27  CG2 ILE B   2      75.069  45.289  15.859  1.00 64.62 LIG 0.01  C 
BRANCH 26 28
ATOM     28  CG1 ILE B   2      74.090  45.141  13.546  1.00 64.82 LIG 0.00  C 
ATOM     29  CD1 ILE B   2      74.072  43.660  13.844  1.00 66.82 LIG 0.01  C 
ENDBRANCH 26 28
ENDBRANCH 1 26
TORSDOF 10
ENDMDL
MODEL 26
USER: ADFR SOLUTION from run 158
USER: SCORE 10.499997 LL:  -1.538 LR:  -9.644 RR:   0.000 FEB:  -6.661
USER: RMSD 5.241733
USER: SEED 157
USER: STATUS no improvement in best in 33 clusters for 5 generations
USER: GENES 12
USER: genes 0 Translation |==|  0.53322 0.44702 0.21320
USER: genes 1 Rotation |==|  0.33321 0.67883 0.37854 0.91887
USER: genes 2 Torsion [C]-CA--N-[C] |==|  0.16991
USER: genes 3 Torsion [N]-C--CA-[N] |==|  0.06515
USER: genes 4 Torsion [C]-CA--N-[H2] |==|  0.30412
USER: genes 5 Torsion [N]-CA--C-[N] |==|  0.60641
USER: genes 6 Torsion [C]-N--CA-[CB] |==|  0.84306
USER: genes 7 Torsion [N]-CA--CB-[CG] |==|  0.59041
USER: genes 8 Torsion [CA]-CB--CG-[CD2] |==|  0.25498
USER: genes 9 Torsion [N]-CA--C-[OXT] |==|  0.24092
USER: genes 10 Torsion [N]-CA--CB-[CG2] |==|  0.56338
USER: genes 11 Torsion [CA]-CB--CG1-[CD1] |==|  0.48999
ROOT
ATOM      1  CA  ILE B   2      76.339  45.568  12.333  1.00 64.17 LIG 0.18  C 
ENDROOT
BRANCH 1 2
ATOM      2  N   ILE B   2      75.424  46.383  11.544  1.00 64.56 LIG-0.35  N 
ATOM      3  C   ALA B   1      74.966  47.550  11.986  1.00 64.53 LIG 0.25  C 
ATOM      4 O    ALA B   1      75.284  48.024  13.079  1.00 64.21 LIG-0.27  OA
ATOM      5 H    ILE B   2      75.215  46.044  10.782  1.00 64.56 LIG 0.16  HD
BRANCH 3 6
ATOM      6  CA  ALA B   1      74.010  48.294  11.053  1.00 64.34 LIG 0.27  C 
ATOM      7  CB  ALA B   1      72.965  49.050  11.867  1.00 65.15 LIG 0.05  C 
BRANCH 6 8
ATOM      8  N   ALA B   1      73.336  47.366  10.100  1.00 63.44 LIG-0.07  N 
ATOM      9 H2   ALA B   1      72.476  47.291  10.316  1.00 63.44 LIG 0.28  HD
ATOM     10 H3   ALA B   1      73.407  47.686   9.273  1.00 63.44 LIG 0.28  HD
ATOM     11 H1   ALA B   1      73.723  46.565  10.142  1.00 63.44 LIG 0.28  HD
ENDBRANCH 6 8
ENDBRANCH 3 6
ENDBRANCH 1 2
BRANCH 1 12
ATOM     12  C   ILE B   2      75.709  45.146  13.657  1.00 63.93 LIG 0.24  C 
ATOM     13  N   HIS B   3      76.516  45.133  14.712  1.00 63.34 LIG-0.34  N 
ATOM     14 H    HIS B   3      77.350  45.343  14.685  1.00 63.34 LIG 0.16  HD
ATOM     15 O    ILE B   2      74.517  44.841  13.721  1.00 63.64 LIG-0.27  OA
BRANCH 13 16
ATOM     16  CA  HIS B   3      76.029  44.751  16.031  1.00 63.18 LIG 0.19  C 
BRANCH 16 17
ATOM     17  CB  HIS B   3      74.849  45.636  16.438  1.00 62.24 LIG 0.10  C 
BRANCH 17 18
ATOM     18  CG  HIS B   3      74.765  45.895  17.911  1.00 63.21 LIG 0.06  A 
ATOM     19  CD2 HIS B   3      75.271  46.896  18.672  1.00 62.69 LIG 0.14  A 
ATOM     20 NE2  HIS B   3      74.896  46.648  19.970  1.00 63.05 LIG-0.25  NA
ATOM     21  CE1 HIS B   3      74.184  45.535  20.006  1.00 63.79 LIG 0.23  A 
ATOM     22 ND1  HIS B   3      74.090  45.061  18.777  1.00 63.44 LIG-0.24  NA
ENDBRANCH 17 18
ENDBRANCH 16 17
BRANCH 16 23
ATOM     23  C   HIS B   3      75.597  43.290  16.022  1.00 63.55 LIG 0.20  C 
ATOM     24 OXT  HIS B   3      76.461  42.419  16.246  1.00 62.89 LIG-0.65  OA
ATOM     25 O    HIS B   3      74.394  43.034  15.796  1.00 64.85 LIG-0.65  OA
ENDBRANCH 16 23
ENDBRANCH 13 16
ENDBRANCH 1 12
BRANCH 1 26
ATOM     26  CB  ILE B   2      77.645  46.330  12.629  1.00 64.73 LIG 0.01  C 
ATOM     27  CG2 ILE B   2      78.771  45.344  12.932  1.00 64.62 LIG 0.01  C 
BRANCH 26 28
ATOM     28  CG1 ILE B   2      78.006  47.217  11.436  1.00 64.82 LIG 0.00  C 
ATOM     29  CD1 ILE B   2      79.229  48.078  11.655  1.00 66.82 LIG 0.01  C 
ENDBRANCH 26 28
ENDBRANCH 1 26
TORSDOF 10
ENDMDL
MODEL 27
USER: ADFR SOLUTION from run 71
USER: SCORE 11.512584 LL:  -2.241 LR:  -9.608 RR:   0.000 FEB:  -6.625
USER: RMSD 7.101574
USER: SEED 70
USER: STATUS no improvement in best in 11 clusters for 5 generations
USER: GENES 12
USER: genes 0 Translation |==|  0.47787 0.71347 0.25110
USER: genes 1 Rotation |==|  0.48013 0.63014 0.84856 0.83343
USER: genes 2 Torsion [C]-CA--N-[C] |==|  0.83889
USER: genes 3 Torsion [N]-C--CA-[N] |==|  0.43669
USER: genes 4 Torsion [C]-CA--N-[H2] |==|  0.54649
USER: genes 5 Torsion [N]-CA--C-[N] |==|  0.31805
USER: genes 6 Torsion [C]-N--CA-[CB] |==|  0.24484
USER: genes 7 Torsion [N]-CA--CB-[CG] |==|  0.74745
USER: genes 8 Torsion [CA]-CB--CG-[CD2] |==|  0.26949
USER: genes 9 Torsion [N]-CA--C-[OXT] |==|  0.68986
USER: genes 10 Torsion [N]-CA--CB-[CG2] |==|  0.76393
USER: genes 11 Torsion [CA]-CB--CG1-[CD1] |==|  0.44303
ROOT
ATOM      1  CA  ILE B   2      75.716  50.564  12.930  1.00 64.17 LIG 0.18  C 
ENDROOT
BRANCH 1 2
ATOM      2  N   ILE B   2      74.651  49.572  12.848  1.00 64.56 LIG-0.35  N 
ATOM      3  C   ALA B   1      74.529  48.760  11.801  1.00 64.53 LIG 0.25  C 
ATOM      4 O    ALA B   1      75.303  48.782  10.842  1.00 64.21 LIG-0.27  OA
ATOM      5 H    ILE B   2      74.122  49.563  13.525  1.00 64.56 LIG 0.16  HD
BRANCH 3 6
ATOM      6  CA  ALA B   1      73.362  47.773  11.849  1.00 64.34 LIG 0.27  C 
ATOM      7  CB  ALA B   1      73.725  46.573  12.717  1.00 65.15 LIG 0.05  C 
BRANCH 6 8
ATOM      8  N   ALA B   1      72.972  47.313  10.485  1.00 63.44 LIG-0.07  N 
ATOM      9 H2   ALA B   1      72.162  46.946  10.515  1.00 63.44 LIG 0.28  HD
ATOM     10 H3   ALA B   1      72.962  48.008   9.929  1.00 63.44 LIG 0.28  HD
ATOM     11 H1   ALA B   1      73.561  46.711  10.196  1.00 63.44 LIG 0.28  HD
ENDBRANCH 6 8
ENDBRANCH 3 6
ENDBRANCH 1 2
BRANCH 1 12
ATOM     12  C   ILE B   2      77.093  49.913  12.835  1.00 63.93 LIG 0.24  C 
ATOM     13  N   HIS B   3      77.813  50.220  11.761  1.00 63.34 LIG-0.34  N 
ATOM     14 H    HIS B   3      77.548  50.750  11.137  1.00 63.34 LIG 0.16  HD
ATOM     15 O    ILE B   2      77.494  49.151  13.716  1.00 63.64 LIG-0.27  OA
BRANCH 13 16
ATOM     16  CA  HIS B   3      79.144  49.663  11.561  1.00 63.18 LIG 0.19  C 
BRANCH 16 17
ATOM     17  CB  HIS B   3      79.054  48.323  10.826  1.00 62.24 LIG 0.10  C 
BRANCH 17 18
ATOM     18  CG  HIS B   3      78.949  47.138  11.736  1.00 63.21 LIG 0.06  A 
ATOM     19  CD2 HIS B   3      77.874  46.433  12.162  1.00 62.69 LIG 0.14  A 
ATOM     20 NE2  HIS B   3      78.341  45.440  12.988  1.00 63.05 LIG-0.25  NA
ATOM     21  CE1 HIS B   3      79.657  45.530  13.067  1.00 63.79 LIG 0.23  A 
ATOM     22 ND1  HIS B   3      80.049  46.547  12.320  1.00 63.44 LIG-0.24  NA
ENDBRANCH 17 18
ENDBRANCH 16 17
BRANCH 16 23
ATOM     23  C   HIS B   3      79.998  50.634  10.756  1.00 63.55 LIG 0.20  C 
ATOM     24 OXT  HIS B   3      80.325  50.310   9.597  1.00 62.89 LIG-0.65  OA
ATOM     25 O    HIS B   3      80.327  51.714  11.295  1.00 64.85 LIG-0.65  OA
ENDBRANCH 16 23
ENDBRANCH 13 16
ENDBRANCH 1 12
BRANCH 1 26
ATOM     26  CB  ILE B   2      75.635  51.355  14.251  1.00 64.73 LIG 0.01  C 
ATOM     27  CG2 ILE B   2      74.659  52.519  14.105  1.00 64.62 LIG 0.01  C 
BRANCH 26 28
ATOM     28  CG1 ILE B   2      75.203  50.422  15.384  1.00 64.82 LIG 0.00  C 
ATOM     29  CD1 ILE B   2      75.551  50.928  16.765  1.00 66.82 LIG 0.01  C 
ENDBRANCH 26 28
ENDBRANCH 1 26
TORSDOF 10
ENDMDL
MODEL 28
USER: ADFR SOLUTION from run 19
USER: SCORE 11.196960 LL:  -1.934 LR:  -9.546 RR:   0.000 FEB:  -6.563
USER: RMSD 6.641730
USER: SEED 18
USER: STATUS no improvement in best in 29 clusters for 5 generations
USER: GENES 12
USER: genes 0 Translation |==|  0.47111 0.51111 0.32474
USER: genes 1 Rotation |==|  0.77931 0.22010 0.79980 0.56134
USER: genes 2 Torsion [C]-CA--N-[C] |==|  0.18333
USER: genes 3 Torsion [N]-C--CA-[N] |==|  0.69361
USER: genes 4 Torsion [C]-CA--N-[H2] |==|  0.64298
USER: genes 5 Torsion [N]-CA--C-[N] |==|  0.02873
USER: genes 6 Torsion [C]-N--CA-[CB] |==|  0.82255
USER: genes 7 Torsion [N]-CA--CB-[CG] |==|  0.86846
USER: genes 8 Torsion [CA]-CB--CG-[CD2] |==|  0.82606
USER: genes 9 Torsion [N]-CA--C-[OXT] |==|  0.09569
USER: genes 10 Torsion [N]-CA--CB-[CG2] |==|  0.54369
USER: genes 11 Torsion [CA]-CB--CG1-[CD1] |==|  0.69286
ROOT
ATOM      1  CA  ILE B   2      75.640  46.769  14.090  1.00 64.17 LIG 0.18  C 
ENDROOT
BRANCH 1 2
ATOM      2  N   ILE B   2      74.735  47.442  13.166  1.00 64.56 LIG-0.35  N 
ATOM      3  C   ALA B   1      75.012  47.555  11.870  1.00 64.53 LIG 0.25  C 
ATOM      4 O    ALA B   1      76.037  47.097  11.362  1.00 64.21 LIG-0.27  OA
ATOM      5 H    ILE B   2      74.021  47.751  13.532  1.00 64.56 LIG 0.16  HD
BRANCH 3 6
ATOM      6  CA  ALA B   1      73.973  48.289  11.023  1.00 64.34 LIG 0.27  C 
ATOM      7  CB  ALA B   1      72.966  48.997  11.924  1.00 65.15 LIG 0.05  C 
BRANCH 6 8
ATOM      8  N   ALA B   1      73.260  47.361  10.098  1.00 63.44 LIG-0.07  N 
ATOM      9 H2   ALA B   1      73.290  47.686   9.270  1.00 63.44 LIG 0.28  HD
ATOM     10 H3   ALA B   1      73.654  46.563  10.117  1.00 63.44 LIG 0.28  HD
ATOM     11 H1   ALA B   1      72.412  47.279  10.355  1.00 63.44 LIG 0.28  HD
ENDBRANCH 6 8
ENDBRANCH 3 6
ENDBRANCH 1 2
BRANCH 1 12
ATOM     12  C   ILE B   2      76.954  47.530  14.235  1.00 63.93 LIG 0.24  C 
ATOM     13  N   HIS B   3      76.991  48.745  13.699  1.00 63.34 LIG-0.34  N 
ATOM     14 H    HIS B   3      76.331  49.111  13.286  1.00 63.34 LIG 0.16  HD
ATOM     15 O    ILE B   2      77.914  47.027  14.822  1.00 63.64 LIG-0.27  OA
BRANCH 13 16
ATOM     16  CA  HIS B   3      78.190  49.568  13.776  1.00 63.18 LIG 0.19  C 
BRANCH 16 17
ATOM     17  CB  HIS B   3      78.506  49.912  15.234  1.00 62.24 LIG 0.10  C 
BRANCH 17 18
ATOM     18  CG  HIS B   3      77.323  50.397  16.013  1.00 63.21 LIG 0.06  A 
ATOM     19  CD2 HIS B   3      76.536  51.489  15.855  1.00 62.69 LIG 0.14  A 
ATOM     20 NE2  HIS B   3      75.590  51.455  16.850  1.00 63.05 LIG-0.25  NA
ATOM     21  CE1 HIS B   3      75.786  50.379  17.592  1.00 63.79 LIG 0.23  A 
ATOM     22 ND1  HIS B   3      76.825  49.723  17.108  1.00 63.44 LIG-0.24  NA
ENDBRANCH 17 18
ENDBRANCH 16 17
BRANCH 16 23
ATOM     23  C   HIS B   3      79.369  48.829  13.155  1.00 63.55 LIG 0.20  C 
ATOM     24 OXT  HIS B   3      79.151  48.087  12.177  1.00 62.89 LIG-0.65  OA
ATOM     25 O    HIS B   3      80.502  49.006  13.655  1.00 64.85 LIG-0.65  OA
ENDBRANCH 16 23
ENDBRANCH 13 16
ENDBRANCH 1 12
BRANCH 1 26
ATOM     26  CB  ILE B   2      75.950  45.336  13.616  1.00 64.73 LIG 0.01  C 
ATOM     27  CG2 ILE B   2      76.562  44.527  14.757  1.00 64.62 LIG 0.01  C 
BRANCH 26 28
ATOM     28  CG1 ILE B   2      74.668  44.673  13.107  1.00 64.82 LIG 0.00  C 
ATOM     29  CD1 ILE B   2      74.160  43.557  13.991  1.00 66.82 LIG 0.01  C 
ENDBRANCH 26 28
ENDBRANCH 1 26
TORSDOF 10
ENDMDL
MODEL 29
USER: ADFR SOLUTION from run 196
USER: SCORE 11.131877 LL:  -1.749 LR:  -9.521 RR:   0.000 FEB:  -6.538
USER: RMSD 5.144570
USER: SEED 195
USER: STATUS no improvement in best in 31 clusters for 5 generations
USER: GENES 12
USER: genes 0 Translation |==|  0.54341 0.44577 0.26328
USER: genes 1 Rotation |==|  0.38349 0.71117 0.42282 0.93114
USER: genes 2 Torsion [C]-CA--N-[C] |==|  0.55651
USER: genes 3 Torsion [N]-C--CA-[N] |==|  0.68480
USER: genes 4 Torsion [C]-CA--N-[H2] |==|  0.76670
USER: genes 5 Torsion [N]-CA--C-[N] |==|  0.46138
USER: genes 6 Torsion [C]-N--CA-[CB] |==|  0.80026
USER: genes 7 Torsion [N]-CA--CB-[CG] |==|  0.51570
USER: genes 8 Torsion [CA]-CB--CG-[CD2] |==|  0.57682
USER: genes 9 Torsion [N]-CA--C-[OXT] |==|  0.21676
USER: genes 10 Torsion [N]-CA--CB-[CG2] |==|  0.26180
USER: genes 11 Torsion [CA]-CB--CG1-[CD1] |==|  0.31720
ROOT
ATOM      1  CA  ILE B   2      76.453  45.544  13.122  1.00 64.17 LIG 0.18  C 
ENDROOT
BRANCH 1 2
ATOM      2  N   ILE B   2      75.436  46.489  12.680  1.00 64.56 LIG-0.35  N 
ATOM      3  C   ALA B   1      75.440  47.002  11.453  1.00 64.53 LIG 0.25  C 
ATOM      4 O    ALA B   1      76.290  46.711  10.608  1.00 64.21 LIG-0.27  OA
ATOM      5 H    ILE B   2      74.846  46.679  13.276  1.00 64.56 LIG 0.16  HD
BRANCH 3 6
ATOM      6  CA  ALA B   1      74.314  47.984  11.131  1.00 64.34 LIG 0.27  C 
ATOM      7  CB  ALA B   1      73.538  48.327  12.398  1.00 65.15 LIG 0.05  C 
BRANCH 6 8
ATOM      8  N   ALA B   1      73.384  47.438  10.100  1.00 63.44 LIG-0.07  N 
ATOM      9 H2   ALA B   1      73.715  47.595   9.289  1.00 63.44 LIG 0.28  HD
ATOM     10 H3   ALA B   1      73.293  46.561  10.217  1.00 63.44 LIG 0.28  HD
ATOM     11 H1   ALA B   1      72.590  47.832  10.178  1.00 63.44 LIG 0.28  HD
ENDBRANCH 6 8
ENDBRANCH 3 6
ENDBRANCH 1 2
BRANCH 1 12
ATOM     12  C   ILE B   2      75.981  44.740  14.329  1.00 63.93 LIG 0.24  C 
ATOM     13  N   HIS B   3      76.700  43.665  14.634  1.00 63.34 LIG-0.34  N 
ATOM     14 H    HIS B   3      77.395  43.409  14.197  1.00 63.34 LIG 0.16  HD
ATOM     15 O    ILE B   2      74.988  45.087  14.970  1.00 63.64 LIG-0.27  OA
BRANCH 13 16
ATOM     16  CA  HIS B   3      76.349  42.819  15.767  1.00 63.18 LIG 0.19  C 
BRANCH 16 17
ATOM     17  CB  HIS B   3      76.664  43.535  17.083  1.00 62.24 LIG 0.10  C 
BRANCH 17 18
ATOM     18  CG  HIS B   3      76.459  42.686  18.300  1.00 63.21 LIG 0.06  A 
ATOM     19  CD2 HIS B   3      76.147  43.015  19.576  1.00 62.69 LIG 0.14  A 
ATOM     20 NE2  HIS B   3      76.080  41.846  20.293  1.00 63.05 LIG-0.25  NA
ATOM     21  CE1 HIS B   3      76.342  40.832  19.486  1.00 63.79 LIG 0.23  A 
ATOM     22 ND1  HIS B   3      76.574  41.312  18.277  1.00 63.44 LIG-0.24  NA
ENDBRANCH 17 18
ENDBRANCH 16 17
BRANCH 16 23
ATOM     23  C   HIS B   3      74.867  42.469  15.715  1.00 63.55 LIG 0.20  C 
ATOM     24 OXT  HIS B   3      74.499  41.580  14.921  1.00 62.89 LIG-0.65  OA
ATOM     25 O    HIS B   3      74.090  43.086  16.476  1.00 64.85 LIG-0.65  OA
ENDBRANCH 16 23
ENDBRANCH 13 16
ENDBRANCH 1 12
BRANCH 1 26
ATOM     26  CB  ILE B   2      77.760  46.272  13.495  1.00 64.73 LIG 0.01  C 
ATOM     27  CG2 ILE B   2      77.789  46.561  14.994  1.00 64.62 LIG 0.01  C 
BRANCH 26 28
ATOM     28  CG1 ILE B   2      78.961  45.419  13.083  1.00 64.82 LIG 0.00  C 
ATOM     29  CD1 ILE B   2      79.805  46.031  11.989  1.00 66.82 LIG 0.01  C 
ENDBRANCH 26 28
ENDBRANCH 1 26
TORSDOF 10
ENDMDL
MODEL 30
USER: ADFR SOLUTION from run 104
USER: SCORE 11.398982 LL:  -2.373 LR:  -9.516 RR:   0.000 FEB:  -6.533
USER: RMSD 6.527004
USER: SEED 103
USER: STATUS no improvement in best in 19 clusters for 5 generations
USER: GENES 12
USER: genes 0 Translation |==|  0.52059 0.37632 0.32060
USER: genes 1 Rotation |==|  0.84681 0.22298 0.27789 0.56042
USER: genes 2 Torsion [C]-CA--N-[C] |==|  0.60013
USER: genes 3 Torsion [N]-C--CA-[N] |==|  0.44507
USER: genes 4 Torsion [C]-CA--N-[H2] |==|  0.99609
USER: genes 5 Torsion [N]-CA--C-[N] |==|  0.08314
USER: genes 6 Torsion [C]-N--CA-[CB] |==|  0.39417
USER: genes 7 Torsion [N]-CA--CB-[CG] |==|  0.91521
USER: genes 8 Torsion [CA]-CB--CG-[CD2] |==|  0.29423
USER: genes 9 Torsion [N]-CA--C-[OXT] |==|  0.15430
USER: genes 10 Torsion [N]-CA--CB-[CG2] |==|  0.82779
USER: genes 11 Torsion [CA]-CB--CG1-[CD1] |==|  0.31571
ROOT
ATOM      1  CA  ILE B   2      76.197  44.242  14.024  1.00 64.17 LIG 0.18  C 
ENDROOT
BRANCH 1 2
ATOM      2  N   ILE B   2      76.163  44.301  15.480  1.00 64.56 LIG-0.35  N 
ATOM      3  C   ALA B   1      76.130  43.201  16.226  1.00 64.53 LIG 0.25  C 
ATOM      4 O    ALA B   1      76.135  42.066  15.746  1.00 64.21 LIG-0.27  OA
ATOM      5 H    ILE B   2      76.166  45.099  15.803  1.00 64.56 LIG 0.16  HD
BRANCH 3 6
ATOM      6  CA  ALA B   1      76.092  43.416  17.740  1.00 64.34 LIG 0.27  C 
ATOM      7  CB  ALA B   1      77.480  43.783  18.252  1.00 65.15 LIG 0.05  C 
BRANCH 6 8
ATOM      8  N   ALA B   1      75.590  42.207  18.455  1.00 63.44 LIG-0.07  N 
ATOM      9 H2   ALA B   1      75.381  41.577  17.863  1.00 63.44 LIG 0.28  HD
ATOM     10 H3   ALA B   1      76.222  41.902  19.002  1.00 63.44 LIG 0.28  HD
ATOM     11 H1   ALA B   1      74.867  42.422  18.928  1.00 63.44 LIG 0.28  HD
ENDBRANCH 6 8
ENDBRANCH 3 6
ENDBRANCH 1 2
BRANCH 1 12
ATOM     12  C   ILE B   2      77.061  45.355  13.441  1.00 63.93 LIG 0.24  C 
ATOM     13  N   HIS B   3      78.073  45.768  14.196  1.00 63.34 LIG-0.34  N 
ATOM     14 H    HIS B   3      78.258  45.449  14.973  1.00 63.34 LIG 0.16  HD
ATOM     15 O    ILE B   2      76.817  45.828  12.329  1.00 63.64 LIG-0.27  OA
BRANCH 13 16
ATOM     16  CA  HIS B   3      78.970  46.823  13.745  1.00 63.18 LIG 0.19  C 
BRANCH 16 17
ATOM     17  CB  HIS B   3      79.356  47.730  14.916  1.00 62.24 LIG 0.10  C 
BRANCH 17 18
ATOM     18  CG  HIS B   3      78.298  47.844  15.969  1.00 63.21 LIG 0.06  A 
ATOM     19  CD2 HIS B   3      78.215  47.315  17.213  1.00 62.69 LIG 0.14  A 
ATOM     20 NE2  HIS B   3      77.027  47.738  17.757  1.00 63.05 LIG-0.25  NA
ATOM     21  CE1 HIS B   3      76.401  48.502  16.879  1.00 63.79 LIG 0.23  A 
ATOM     22 ND1  HIS B   3      77.147  48.583  15.791  1.00 63.44 LIG-0.24  NA
ENDBRANCH 17 18
ENDBRANCH 16 17
BRANCH 16 23
ATOM     23  C   HIS B   3      80.225  46.213  13.132  1.00 63.55 LIG 0.20  C 
ATOM     24 OXT  HIS B   3      80.088  45.400  12.197  1.00 62.89 LIG-0.65  OA
ATOM     25 O    HIS B   3      81.334  46.561  13.595  1.00 64.85 LIG-0.65  OA
ENDBRANCH 16 23
ENDBRANCH 13 16
ENDBRANCH 1 12
BRANCH 1 26
ATOM     26  CB  ILE B   2      74.778  44.358  13.432  1.00 64.73 LIG 0.01  C 
ATOM     27  CG2 ILE B   2      73.917  43.188  13.901  1.00 64.62 LIG 0.01  C 
BRANCH 26 28
ATOM     28  CG1 ILE B   2      74.154  45.692  13.848  1.00 64.82 LIG 0.00  C 
ATOM     29  CD1 ILE B   2      73.919  46.646  12.700  1.00 66.82 LIG 0.01  C 
ENDBRANCH 26 28
ENDBRANCH 1 26
TORSDOF 10
ENDMDL
MODEL 31
USER: ADFR SOLUTION from run 134
USER: SCORE 11.281688 LL:  -1.820 LR:  -9.509 RR:   0.000 FEB:  -6.526
USER: RMSD 7.189186
USER: SEED 133
USER: STATUS no improvement in best in 27 clusters for 5 generations
USER: GENES 12
USER: genes 0 Translation |==|  0.35882 0.53268 0.33355
USER: genes 1 Rotation |==|  0.27518 0.73896 0.12489 0.54061
USER: genes 2 Torsion [C]-CA--N-[C] |==|  0.15493
USER: genes 3 Torsion [N]-C--CA-[N] |==|  0.85395
USER: genes 4 Torsion [C]-CA--N-[H2] |==|  0.84770
USER: genes 5 Torsion [N]-CA--C-[N] |==|  0.11115
USER: genes 6 Torsion [C]-N--CA-[CB] |==|  0.84315
USER: genes 7 Torsion [N]-CA--CB-[CG] |==|  0.49594
USER: genes 8 Torsion [CA]-CB--CG-[CD2] |==|  0.62605
USER: genes 9 Torsion [N]-CA--C-[OXT] |==|  0.21366
USER: genes 10 Torsion [N]-CA--CB-[CG2] |==|  0.54135
USER: genes 11 Torsion [CA]-CB--CG1-[CD1] |==|  0.66894
ROOT
ATOM      1  CA  ILE B   2      74.377  47.174  14.228  1.00 64.17 LIG 0.18  C 
ENDROOT
BRANCH 1 2
ATOM      2  N   ILE B   2      73.922  47.591  12.908  1.00 64.56 LIG-0.35  N 
ATOM      3  C   ALA B   1      74.776  47.965  11.959  1.00 64.53 LIG 0.25  C 
ATOM      4 O    ALA B   1      75.997  47.976  12.123  1.00 64.21 LIG-0.27  OA
ATOM      5 H    ILE B   2      73.069  47.573  12.805  1.00 64.56 LIG 0.16  HD
BRANCH 3 6
ATOM      6  CA  ALA B   1      74.156  48.382  10.624  1.00 64.34 LIG 0.27  C 
ATOM      7  CB  ALA B   1      73.417  49.706  10.781  1.00 65.15 LIG 0.05  C 
BRANCH 6 8
ATOM      8  N   ALA B   1      73.226  47.340  10.099  1.00 63.44 LIG-0.07  N 
ATOM      9 H2   ALA B   1      73.653  46.561  10.047  1.00 63.44 LIG 0.28  HD
ATOM     10 H3   ALA B   1      72.530  47.261  10.648  1.00 63.44 LIG 0.28  HD
ATOM     11 H1   ALA B   1      72.941  47.578   9.290  1.00 63.44 LIG 0.28  HD
ENDBRANCH 6 8
ENDBRANCH 3 6
ENDBRANCH 1 2
BRANCH 1 12
ATOM     12  C   ILE B   2      75.239  48.247  14.887  1.00 63.93 LIG 0.24  C 
ATOM     13  N   HIS B   3      74.840  49.503  14.719  1.00 63.34 LIG-0.34  N 
ATOM     14 H    HIS B   3      74.143  49.733  14.271  1.00 63.34 LIG 0.16  HD
ATOM     15 O    ILE B   2      76.242  47.942  15.534  1.00 63.64 LIG-0.27  OA
BRANCH 13 16
ATOM     16  CA  HIS B   3      75.581  50.614  15.302  1.00 63.18 LIG 0.19  C 
BRANCH 16 17
ATOM     17  CB  HIS B   3      75.709  50.430  16.817  1.00 62.24 LIG 0.10  C 
BRANCH 17 18
ATOM     18  CG  HIS B   3      76.489  51.514  17.495  1.00 63.21 LIG 0.06  A 
ATOM     19  CD2 HIS B   3      77.465  51.458  18.433  1.00 62.69 LIG 0.14  A 
ATOM     20 NE2  HIS B   3      77.837  52.751  18.709  1.00 63.05 LIG-0.25  NA
ATOM     21  CE1 HIS B   3      77.116  53.573  17.967  1.00 63.79 LIG 0.23  A 
ATOM     22 ND1  HIS B   3      76.295  52.852  17.225  1.00 63.44 LIG-0.24  NA
ENDBRANCH 17 18
ENDBRANCH 16 17
BRANCH 16 23
ATOM     23  C   HIS B   3      76.967  50.701  14.676  1.00 63.55 LIG 0.20  C 
ATOM     24 OXT  HIS B   3      77.068  51.190  13.534  1.00 62.89 LIG-0.65  OA
ATOM     25 O    HIS B   3      77.939  50.281  15.341  1.00 64.85 LIG-0.65  OA
ENDBRANCH 16 23
ENDBRANCH 13 16
ENDBRANCH 1 12
BRANCH 1 26
ATOM     26  CB  ILE B   2      75.192  45.868  14.146  1.00 64.73 LIG 0.01  C 
ATOM     27  CG2 ILE B   2      75.341  45.255  15.536  1.00 64.62 LIG 0.01  C 
BRANCH 26 28
ATOM     28  CG1 ILE B   2      74.504  44.890  13.192  1.00 64.82 LIG 0.00  C 
ATOM     29  CD1 ILE B   2      74.081  43.592  13.840  1.00 66.82 LIG 0.01  C 
ENDBRANCH 26 28
ENDBRANCH 1 26
TORSDOF 10
ENDMDL
MODEL 32
USER: ADFR SOLUTION from run 163
USER: SCORE 11.164227 LL:  -2.289 LR:  -9.514 RR:   0.000 FEB:  -6.531
USER: RMSD 6.230736
USER: SEED 162
USER: STATUS no improvement in best in 17 clusters for 5 generations
USER: GENES 12
USER: genes 0 Translation |==|  0.40362 0.57100 0.35138
USER: genes 1 Rotation |==|  0.72780 0.24706 0.86177 0.55703
USER: genes 2 Torsion [C]-CA--N-[C] |==|  0.20993
USER: genes 3 Torsion [N]-C--CA-[N] |==|  0.69192
USER: genes 4 Torsion [C]-CA--N-[H2] |==|  0.57579
USER: genes 5 Torsion [N]-CA--C-[N] |==|  0.84634
USER: genes 6 Torsion [C]-N--CA-[CB] |==|  0.28847
USER: genes 7 Torsion [N]-CA--CB-[CG] |==|  0.08609
USER: genes 8 Torsion [CA]-CB--CG-[CD2] |==|  0.80198
USER: genes 9 Torsion [N]-CA--C-[OXT] |==|  0.64574
USER: genes 10 Torsion [N]-CA--CB-[CG2] |==|  0.54082
USER: genes 11 Torsion [CA]-CB--CG1-[CD1] |==|  0.47174
ROOT
ATOM      1  CA  ILE B   2      74.881  47.892  14.509  1.00 64.17 LIG 0.18  C 
ENDROOT
BRANCH 1 2
ATOM      2  N   ILE B   2      74.268  48.334  13.263  1.00 64.56 LIG-0.35  N 
ATOM      3  C   ALA B   1      74.773  48.004  12.078  1.00 64.53 LIG 0.25  C 
ATOM      4 O    ALA B   1      75.778  47.301  11.950  1.00 64.21 LIG-0.27  OA
ATOM      5 H    ILE B   2      73.565  48.818  13.366  1.00 64.56 LIG 0.16  HD
BRANCH 3 6
ATOM      6  CA  ALA B   1      74.028  48.543  10.856  1.00 64.34 LIG 0.27  C 
ATOM      7  CB  ALA B   1      73.007  49.591  11.285  1.00 65.15 LIG 0.05  C 
BRANCH 6 8
ATOM      8  N   ALA B   1      73.348  47.452  10.100  1.00 63.44 LIG-0.07  N 
ATOM      9 H2   ALA B   1      73.272  47.686   9.245  1.00 63.44 LIG 0.28  HD
ATOM     10 H3   ALA B   1      73.827  46.705  10.162  1.00 63.44 LIG 0.28  HD
ATOM     11 H1   ALA B   1      72.538  47.314  10.443  1.00 63.44 LIG 0.28  HD
ENDBRANCH 6 8
ENDBRANCH 3 6
ENDBRANCH 1 2
BRANCH 1 12
ATOM     12  C   ILE B   2      76.147  48.684  14.820  1.00 63.93 LIG 0.24  C 
ATOM     13  N   HIS B   3      77.081  48.691  13.876  1.00 63.34 LIG-0.34  N 
ATOM     14 H    HIS B   3      77.009  48.282  13.122  1.00 63.34 LIG 0.16  HD
ATOM     15 O    ILE B   2      76.273  49.279  15.893  1.00 63.64 LIG-0.27  OA
BRANCH 13 16
ATOM     16  CA  HIS B   3      78.332  49.415  14.056  1.00 63.18 LIG 0.19  C 
BRANCH 16 17
ATOM     17  CB  HIS B   3      79.469  48.441  14.373  1.00 62.24 LIG 0.10  C 
BRANCH 17 18
ATOM     18  CG  HIS B   3      79.305  47.091  13.745  1.00 63.21 LIG 0.06  A 
ATOM     19  CD2 HIS B   3      78.446  46.079  14.016  1.00 62.69 LIG 0.14  A 
ATOM     20 NE2  HIS B   3      78.726  45.062  13.136  1.00 63.05 LIG-0.25  NA
ATOM     21  CE1 HIS B   3      79.721  45.436  12.350  1.00 63.79 LIG 0.23  A 
ATOM     22 ND1  HIS B   3      80.088  46.657  12.696  1.00 63.44 LIG-0.24  NA
ENDBRANCH 17 18
ENDBRANCH 16 17
BRANCH 16 23
ATOM     23  C   HIS B   3      78.665  50.200  12.794  1.00 63.55 LIG 0.20  C 
ATOM     24 OXT  HIS B   3      79.794  50.048  12.286  1.00 62.89 LIG-0.65  OA
ATOM     25 O    HIS B   3      77.788  50.958  12.324  1.00 64.85 LIG-0.65  OA
ENDBRANCH 16 23
ENDBRANCH 13 16
ENDBRANCH 1 12
BRANCH 1 26
ATOM     26  CB  ILE B   2      75.239  46.394  14.449  1.00 64.73 LIG 0.01  C 
ATOM     27  CG2 ILE B   2      75.533  45.868  15.851  1.00 64.62 LIG 0.01  C 
BRANCH 26 28
ATOM     28  CG1 ILE B   2      74.090  45.615  13.806  1.00 64.82 LIG 0.00  C 
ATOM     29  CD1 ILE B   2      74.428  44.179  13.475  1.00 66.82 LIG 0.01  C 
ENDBRANCH 26 28
ENDBRANCH 1 26
TORSDOF 10
ENDMDL
MODEL 33
USER: ADFR SOLUTION from run 171
USER: SCORE 11.247284 LL:  -1.877 LR:  -9.476 RR:   0.000 FEB:  -6.493
USER: RMSD 6.905204
USER: SEED 170
USER: STATUS no improvement in best in 22 clusters for 5 generations
USER: GENES 12
USER: genes 0 Translation |==|  0.44583 0.41815 0.29393
USER: genes 1 Rotation |==|  0.60279 0.18634 0.12457 0.51018
USER: genes 2 Torsion [C]-CA--N-[C] |==|  0.61872
USER: genes 3 Torsion [N]-C--CA-[N] |==|  0.97412
USER: genes 4 Torsion [C]-CA--N-[H2] |==|  0.77785
USER: genes 5 Torsion [N]-CA--C-[N] |==|  0.46666
USER: genes 6 Torsion [C]-N--CA-[CB] |==|  0.53961
USER: genes 7 Torsion [N]-CA--CB-[CG] |==|  0.12958
USER: genes 8 Torsion [CA]-CB--CG-[CD2] |==|  0.83203
USER: genes 9 Torsion [N]-CA--C-[OXT] |==|  0.35904
USER: genes 10 Torsion [N]-CA--CB-[CG2] |==|  0.95346
USER: genes 11 Torsion [CA]-CB--CG1-[CD1] |==|  0.58670
ROOT
ATOM      1  CA  ILE B   2      75.356  45.026  13.604  1.00 64.17 LIG 0.18  C 
ENDROOT
BRANCH 1 2
ATOM      2  N   ILE B   2      76.092  44.299  14.630  1.00 64.56 LIG-0.35  N 
ATOM      3  C   ALA B   1      75.648  43.149  15.129  1.00 64.53 LIG 0.25  C 
ATOM      4 O    ALA B   1      74.599  42.618  14.758  1.00 64.21 LIG-0.27  OA
ATOM      5 H    ILE B   2      76.824  44.676  14.876  1.00 64.56 LIG 0.16  HD
BRANCH 3 6
ATOM      6  CA  ALA B   1      76.522  42.499  16.203  1.00 64.34 LIG 0.27  C 
ATOM      7  CB  ALA B   1      75.799  42.512  17.545  1.00 65.15 LIG 0.05  C 
BRANCH 6 8
ATOM      8  N   ALA B   1      77.840  43.186  16.329  1.00 63.44 LIG-0.07  N 
ATOM      9 H2   ALA B   1      78.383  42.908  15.681  1.00 63.44 LIG 0.28  HD
ATOM     10 H3   ALA B   1      77.724  44.066  16.261  1.00 63.44 LIG 0.28  HD
ATOM     11 H1   ALA B   1      78.199  42.995  17.121  1.00 63.44 LIG 0.28  HD
ENDBRANCH 6 8
ENDBRANCH 3 6
ENDBRANCH 1 2
BRANCH 1 12
ATOM     12  C   ILE B   2      76.288  45.562  12.522  1.00 63.93 LIG 0.24  C 
ATOM     13  N   HIS B   3      75.705  46.022  11.421  1.00 63.34 LIG-0.34  N 
ATOM     14 H    HIS B   3      74.854  46.031  11.293  1.00 63.34 LIG 0.16  HD
ATOM     15 O    ILE B   2      77.510  45.559  12.683  1.00 63.64 LIG-0.27  OA
BRANCH 13 16
ATOM     16  CA  HIS B   3      76.491  46.561  10.319  1.00 63.18 LIG 0.19  C 
BRANCH 16 17
ATOM     17  CB  HIS B   3      75.590  47.332   9.351  1.00 62.24 LIG 0.10  C 
BRANCH 17 18
ATOM     18  CG  HIS B   3      74.643  48.277  10.025  1.00 63.21 LIG 0.06  A 
ATOM     19  CD2 HIS B   3      73.655  48.059  10.925  1.00 62.69 LIG 0.14  A 
ATOM     20 NE2  HIS B   3      73.094  49.279  11.215  1.00 63.05 LIG-0.25  NA
ATOM     21  CE1 HIS B   3      73.716  50.214  10.518  1.00 63.79 LIG 0.23  A 
ATOM     22 ND1  HIS B   3      74.656  49.636   9.792  1.00 63.44 LIG-0.24  NA
ENDBRANCH 17 18
ENDBRANCH 16 17
BRANCH 16 23
ATOM     23  C   HIS B   3      77.576  47.485  10.858  1.00 63.55 LIG 0.20  C 
ATOM     24 OXT  HIS B   3      78.749  47.303  10.475  1.00 62.89 LIG-0.65  OA
ATOM     25 O    HIS B   3      77.237  48.387  11.655  1.00 64.85 LIG-0.65  OA
ENDBRANCH 16 23
ENDBRANCH 13 16
ENDBRANCH 1 12
BRANCH 1 26
ATOM     26  CB  ILE B   2      74.579  46.210  14.215  1.00 64.73 LIG 0.01  C 
ATOM     27  CG2 ILE B   2      74.465  46.037  15.728  1.00 64.62 LIG 0.01  C 
BRANCH 26 28
ATOM     28  CG1 ILE B   2      75.285  47.522  13.870  1.00 64.82 LIG 0.00  C 
ATOM     29  CD1 ILE B   2      75.133  48.599  14.920  1.00 66.82 LIG 0.01  C 
ENDBRANCH 26 28
ENDBRANCH 1 26
TORSDOF 10
ENDMDL
MODEL 34
USER: ADFR SOLUTION from run 14
USER: SCORE 11.576075 LL:  -2.328 LR:  -9.419 RR:   0.000 FEB:  -6.436
USER: RMSD 5.218980
USER: SEED 447788
USER: STATUS no improvement in best in 28 clusters for 5 generations
USER: GENES 12
USER: genes 0 Translation |==|  0.59887 0.49146 0.47105
USER: genes 1 Rotation |==|  0.69756 0.74419 0.88190 0.57412
USER: genes 2 Torsion [C]-CA--N-[C] |==|  0.71712
USER: genes 3 Torsion [N]-C--CA-[N] |==|  0.33431
USER: genes 4 Torsion [C]-CA--N-[H2] |==|  0.76411
USER: genes 5 Torsion [N]-CA--C-[N] |==|  0.94448
USER: genes 6 Torsion [C]-N--CA-[CB] |==|  0.85563
USER: genes 7 Torsion [N]-CA--CB-[CG] |==|  0.90584
USER: genes 8 Torsion [CA]-CB--CG-[CD2] |==|  0.39270
USER: genes 9 Torsion [N]-CA--C-[OXT] |==|  0.59427
USER: genes 10 Torsion [N]-CA--CB-[CG2] |==|  0.35643
USER: genes 11 Torsion [CA]-CB--CG1-[CD1] |==|  0.99846
ROOT
ATOM      1  CA  ILE B   2      77.077  46.401  16.394  1.00 64.17 LIG 0.18  C 
ENDROOT
BRANCH 1 2
ATOM      2  N   ILE B   2      77.122  44.979  16.711  1.00 64.56 LIG-0.35  N 
ATOM      3  C   ALA B   1      76.014  44.262  16.873  1.00 64.53 LIG 0.25  C 
ATOM      4 O    ALA B   1      74.883  44.740  16.759  1.00 64.21 LIG-0.27  OA
ATOM      5 H    ILE B   2      77.916  44.656  16.782  1.00 64.56 LIG 0.16  HD
BRANCH 3 6
ATOM      6  CA  ALA B   1      76.213  42.783  17.207  1.00 64.34 LIG 0.27  C 
ATOM      7  CB  ALA B   1      75.631  41.912  16.099  1.00 65.15 LIG 0.05  C 
BRANCH 6 8
ATOM      8  N   ALA B   1      75.590  42.425  18.514  1.00 63.44 LIG-0.07  N 
ATOM      9 H2   ALA B   1      76.158  42.609  19.174  1.00 63.44 LIG 0.28  HD
ATOM     10 H3   ALA B   1      74.843  42.896  18.626  1.00 63.44 LIG 0.28  HD
ATOM     11 H1   ALA B   1      75.396  41.556  18.522  1.00 63.44 LIG 0.28  HD
ENDBRANCH 6 8
ENDBRANCH 3 6
ENDBRANCH 1 2
BRANCH 1 12
ATOM     12  C   ILE B   2      77.349  46.651  14.914  1.00 63.93 LIG 0.24  C 
ATOM     13  N   HIS B   3      77.968  45.675  14.259  1.00 63.34 LIG-0.34  N 
ATOM     14 H    HIS B   3      78.215  44.933  14.618  1.00 63.34 LIG 0.16  HD
ATOM     15 O    ILE B   2      77.004  47.705  14.377  1.00 63.64 LIG-0.27  OA
BRANCH 13 16
ATOM     16  CA  HIS B   3      78.279  45.797  12.841  1.00 63.18 LIG 0.19  C 
BRANCH 16 17
ATOM     17  CB  HIS B   3      77.026  46.186  12.053  1.00 62.24 LIG 0.10  C 
BRANCH 17 18
ATOM     18  CG  HIS B   3      75.759  45.607  12.603  1.00 63.21 LIG 0.06  A 
ATOM     19  CD2 HIS B   3      74.516  46.132  12.723  1.00 62.69 LIG 0.14  A 
ATOM     20 NE2  HIS B   3      73.723  45.170  13.299  1.00 63.05 LIG-0.25  NA
ATOM     21  CE1 HIS B   3      74.452  44.091  13.525  1.00 63.79 LIG 0.23  A 
ATOM     22 ND1  HIS B   3      75.685  44.328  13.114  1.00 63.44 LIG-0.24  NA
ENDBRANCH 17 18
ENDBRANCH 16 17
BRANCH 16 23
ATOM     23  C   HIS B   3      79.363  46.848  12.635  1.00 63.55 LIG 0.20  C 
ATOM     24 OXT  HIS B   3      79.323  47.540  11.598  1.00 62.89 LIG-0.65  OA
ATOM     25 O    HIS B   3      80.239  46.970  13.519  1.00 64.85 LIG-0.65  OA
ENDBRANCH 16 23
ENDBRANCH 13 16
ENDBRANCH 1 12
BRANCH 1 26
ATOM     26  CB  ILE B   2      78.112  47.186  17.225  1.00 64.73 LIG 0.01  C 
ATOM     27  CG2 ILE B   2      78.972  48.052  16.308  1.00 64.62 LIG 0.01  C 
BRANCH 26 28
ATOM     28  CG1 ILE B   2      77.391  48.046  18.265  1.00 64.82 LIG 0.00  C 
ATOM     29  CD1 ILE B   2      75.885  47.933  18.221  1.00 66.82 LIG 0.01  C 
ENDBRANCH 26 28
ENDBRANCH 1 26
TORSDOF 10
ENDMDL
MODEL 35
USER: ADFR SOLUTION from run 155
USER: SCORE 10.710077 LL:  -2.118 LR:  -9.422 RR:   0.000 FEB:  -6.439
USER: RMSD 5.852792
USER: SEED 154
USER: STATUS no improvement in best in 15 clusters for 5 generations
USER: GENES 12
USER: genes 0 Translation |==|  0.59408 0.35715 0.52795
USER: genes 1 Rotation |==|  0.32702 0.38216 0.56932 0.94876
USER: genes 2 Torsion [C]-CA--N-[C] |==|  0.14596
USER: genes 3 Torsion [N]-C--CA-[N] |==|  0.45690
USER: genes 4 Torsion [C]-CA--N-[H2] |==|  0.42704
USER: genes 5 Torsion [N]-CA--C-[N] |==|  0.56765
USER: genes 6 Torsion [C]-N--CA-[CB] |==|  0.18110
USER: genes 7 Torsion [N]-CA--CB-[CG] |==|  0.20695
USER: genes 8 Torsion [CA]-CB--CG-[CD2] |==|  0.84199
USER: genes 9 Torsion [N]-CA--C-[OXT] |==|  0.39218
USER: genes 10 Torsion [N]-CA--CB-[CG2] |==|  0.59168
USER: genes 11 Torsion [CA]-CB--CG1-[CD1] |==|  0.32073
ROOT
ATOM      1  CA  ILE B   2      77.023  43.883  17.290  1.00 64.17 LIG 0.18  C 
ENDROOT
BRANCH 1 2
ATOM      2  N   ILE B   2      76.712  43.826  15.868  1.00 64.56 LIG-0.35  N 
ATOM      3  C   ALA B   1      75.477  43.598  15.429  1.00 64.53 LIG 0.25  C 
ATOM      4 O    ALA B   1      74.518  43.430  16.185  1.00 64.21 LIG-0.27  OA
ATOM      5 H    ILE B   2      77.388  43.950  15.351  1.00 64.56 LIG 0.16  HD
BRANCH 3 6
ATOM      6  CA  ALA B   1      75.299  43.561  13.911  1.00 64.34 LIG 0.27  C 
ATOM      7  CB  ALA B   1      75.397  44.970  13.337  1.00 65.15 LIG 0.05  C 
BRANCH 6 8
ATOM      8  N   ALA B   1      73.997  42.945  13.524  1.00 63.44 LIG-0.07  N 
ATOM      9 H2   ALA B   1      73.744  43.260  12.731  1.00 63.44 LIG 0.28  HD
ATOM     10 H3   ALA B   1      74.090  42.061  13.475  1.00 63.44 LIG 0.28  HD
ATOM     11 H1   ALA B   1      73.381  43.145  14.134  1.00 63.44 LIG 0.28  HD
ENDBRANCH 6 8
ENDBRANCH 3 6
ENDBRANCH 1 2
BRANCH 1 12
ATOM     12  C   ILE B   2      76.518  42.643  18.022  1.00 63.93 LIG 0.24  C 
ATOM     13  N   HIS B   3      76.286  42.784  19.323  1.00 63.34 LIG-0.34  N 
ATOM     14 H    HIS B   3      76.404  43.517  19.757  1.00 63.34 LIG 0.16  HD
ATOM     15 O    ILE B   2      76.340  41.582  17.420  1.00 63.64 LIG-0.27  OA
BRANCH 13 16
ATOM     16  CA  HIS B   3      75.798  41.672  20.127  1.00 63.18 LIG 0.19  C 
BRANCH 16 17
ATOM     17  CB  HIS B   3      76.849  40.561  20.191  1.00 62.24 LIG 0.10  C 
BRANCH 17 18
ATOM     18  CG  HIS B   3      78.009  40.873  21.085  1.00 63.21 LIG 0.06  A 
ATOM     19  CD2 HIS B   3      78.887  41.906  21.082  1.00 62.69 LIG 0.14  A 
ATOM     20 NE2  HIS B   3      79.757  41.702  22.125  1.00 63.05 LIG-0.25  NA
ATOM     21  CE1 HIS B   3      79.426  40.585  22.749  1.00 63.79 LIG 0.23  A 
ATOM     22 ND1  HIS B   3      78.374  40.065  22.141  1.00 63.44 LIG-0.24  NA
ENDBRANCH 17 18
ENDBRANCH 16 17
BRANCH 16 23
ATOM     23  C   HIS B   3      75.474  42.153  21.536  1.00 63.55 LIG 0.20  C 
ATOM     24 OXT  HIS B   3      74.464  41.686  22.100  1.00 62.89 LIG-0.65  OA
ATOM     25 O    HIS B   3      76.239  42.991  22.062  1.00 64.85 LIG-0.65  OA
ENDBRANCH 16 23
ENDBRANCH 13 16
ENDBRANCH 1 12
BRANCH 1 26
ATOM     26  CB  ILE B   2      76.398  45.131  17.944  1.00 64.73 LIG 0.01  C 
ATOM     27  CG2 ILE B   2      77.296  45.638  19.070  1.00 64.62 LIG 0.01  C 
BRANCH 26 28
ATOM     28  CG1 ILE B   2      76.187  46.215  16.887  1.00 64.82 LIG 0.00  C 
ATOM     29  CD1 ILE B   2      74.736  46.563  16.642  1.00 66.82 LIG 0.01  C 
ENDBRANCH 26 28
ENDBRANCH 1 26
TORSDOF 10
ENDMDL
MODEL 36
USER: ADFR SOLUTION from run 143
USER: SCORE 11.341095 LL:  -2.062 LR:  -9.410 RR:   0.000 FEB:  -6.427
USER: RMSD 5.313942
USER: SEED 142
USER: STATUS no improvement in best in 16 clusters for 5 generations
USER: GENES 12
USER: genes 0 Translation |==|  0.36936 0.40601 0.38317
USER: genes 1 Rotation |==|  0.38435 0.83937 0.17480 0.62530
USER: genes 2 Torsion [C]-CA--N-[C] |==|  0.56047
USER: genes 3 Torsion [N]-C--CA-[N] |==|  0.50779
USER: genes 4 Torsion [C]-CA--N-[H2] |==|  0.47010
USER: genes 5 Torsion [N]-CA--C-[N] |==|  0.44573
USER: genes 6 Torsion [C]-N--CA-[CB] |==|  0.81235
USER: genes 7 Torsion [N]-CA--CB-[CG] |==|  0.75046
USER: genes 8 Torsion [CA]-CB--CG-[CD2] |==|  0.08294
USER: genes 9 Torsion [N]-CA--C-[OXT] |==|  0.09433
USER: genes 10 Torsion [N]-CA--CB-[CG2] |==|  0.23441
USER: genes 11 Torsion [CA]-CB--CG1-[CD1] |==|  0.68772
ROOT
ATOM      1  CA  ILE B   2      74.495  44.799  15.010  1.00 64.17 LIG 0.18  C 
ENDROOT
BRANCH 1 2
ATOM      2  N   ILE B   2      74.577  45.935  14.101  1.00 64.56 LIG-0.35  N 
ATOM      3  C   ALA B   1      73.802  46.028  13.024  1.00 64.53 LIG 0.25  C 
ATOM      4 O    ALA B   1      72.965  45.174  12.725  1.00 64.21 LIG-0.27  OA
ATOM      5 H    ILE B   2      75.160  46.526  14.324  1.00 64.56 LIG 0.16  HD
BRANCH 3 6
ATOM      6  CA  ALA B   1      74.000  47.274  12.159  1.00 64.34 LIG 0.27  C 
ATOM      7  CB  ALA B   1      73.847  48.531  13.008  1.00 65.15 LIG 0.05  C 
BRANCH 6 8
ATOM      8  N   ALA B   1      73.040  47.311  11.019  1.00 63.44 LIG-0.07  N 
ATOM      9 H2   ALA B   1      73.072  48.111  10.630  1.00 63.44 LIG 0.28  HD
ATOM     10 H3   ALA B   1      73.259  46.684  10.426  1.00 63.44 LIG 0.28  HD
ATOM     11 H1   ALA B   1      72.216  47.160  11.320  1.00 63.44 LIG 0.28  HD
ENDBRANCH 6 8
ENDBRANCH 3 6
ENDBRANCH 1 2
BRANCH 1 12
ATOM     12  C   ILE B   2      75.048  45.146  16.389  1.00 63.93 LIG 0.24  C 
ATOM     13  N   HIS B   3      74.671  44.356  17.388  1.00 63.34 LIG-0.34  N 
ATOM     14 H    HIS B   3      74.146  43.681  17.297  1.00 63.34 LIG 0.16  HD
ATOM     15 O    ILE B   2      75.803  46.108  16.543  1.00 63.64 LIG-0.27  OA
BRANCH 13 16
ATOM     16  CA  HIS B   3      75.136  44.586  18.749  1.00 63.18 LIG 0.19  C 
BRANCH 16 17
ATOM     17  CB  HIS B   3      76.640  44.319  18.849  1.00 62.24 LIG 0.10  C 
BRANCH 17 18
ATOM     18  CG  HIS B   3      76.983  42.902  19.192  1.00 63.21 LIG 0.06  A 
ATOM     19  CD2 HIS B   3      76.340  41.739  18.930  1.00 62.69 LIG 0.14  A 
ATOM     20 NE2  HIS B   3      77.092  40.727  19.475  1.00 63.05 LIG-0.25  NA
ATOM     21  CE1 HIS B   3      78.161  41.249  20.051  1.00 63.79 LIG 0.23  A 
ATOM     22 ND1  HIS B   3      78.119  42.560  19.895  1.00 63.44 LIG-0.24  NA
ENDBRANCH 17 18
ENDBRANCH 16 17
BRANCH 16 23
ATOM     23  C   HIS B   3      74.841  46.022  19.164  1.00 63.55 LIG 0.20  C 
ATOM     24 OXT  HIS B   3      73.805  46.561  18.725  1.00 62.89 LIG-0.65  OA
ATOM     25 O    HIS B   3      75.649  46.590  19.930  1.00 64.85 LIG-0.65  OA
ENDBRANCH 16 23
ENDBRANCH 13 16
ENDBRANCH 1 12
BRANCH 1 26
ATOM     26  CB  ILE B   2      75.276  43.590  14.456  1.00 64.73 LIG 0.01  C 
ATOM     27  CG2 ILE B   2      76.753  43.707  14.825  1.00 64.62 LIG 0.01  C 
BRANCH 26 28
ATOM     28  CG1 ILE B   2      74.679  42.294  15.007  1.00 64.82 LIG 0.00  C 
ATOM     29  CD1 ILE B   2      75.590  41.551  15.957  1.00 66.82 LIG 0.01  C 
ENDBRANCH 26 28
ENDBRANCH 1 26
TORSDOF 10
ENDMDL
MODEL 37
USER: ADFR SOLUTION from run 167
USER: SCORE 11.826761 LL:  -2.526 LR:  -9.397 RR:   0.000 FEB:  -6.414
USER: RMSD 7.048649
USER: SEED 166
USER: STATUS no improvement in best in 31 clusters for 5 generations
USER: GENES 12
USER: genes 0 Translation |==|  0.53613 0.48542 0.29146
USER: genes 1 Rotation |==|  0.78782 0.24239 0.73763 0.71054
USER: genes 2 Torsion [C]-CA--N-[C] |==|  0.13731
USER: genes 3 Torsion [N]-C--CA-[N] |==|  0.61461
USER: genes 4 Torsion [C]-CA--N-[H2] |==|  0.01520
USER: genes 5 Torsion [N]-CA--C-[N] |==|  0.11326
USER: genes 6 Torsion [C]-N--CA-[CB] |==|  0.31499
USER: genes 7 Torsion [N]-CA--CB-[CG] |==|  0.10006
USER: genes 8 Torsion [CA]-CB--CG-[CD2] |==|  0.12954
USER: genes 9 Torsion [N]-CA--C-[OXT] |==|  0.48437
USER: genes 10 Torsion [N]-CA--CB-[CG2] |==|  0.57657
USER: genes 11 Torsion [CA]-CB--CG1-[CD1] |==|  0.56362
ROOT
ATOM      1  CA  ILE B   2      76.371  46.288  13.565  1.00 64.17 LIG 0.18  C 
ENDROOT
BRANCH 1 2
ATOM      2  N   ILE B   2      75.313  47.097  12.975  1.00 64.56 LIG-0.35  N 
ATOM      3  C   ALA B   1      75.115  47.140  11.660  1.00 64.53 LIG 0.25  C 
ATOM      4 O    ALA B   1      75.798  46.501  10.858  1.00 64.21 LIG-0.27  OA
ATOM      5 H    ILE B   2      74.840  47.533  13.545  1.00 64.56 LIG 0.16  HD
BRANCH 3 6
ATOM      6  CA  ALA B   1      73.970  48.035  11.183  1.00 64.34 LIG 0.27  C 
ATOM      7  CB  ALA B   1      73.048  48.374  12.349  1.00 65.15 LIG 0.05  C 
BRANCH 6 8
ATOM      8  N   ALA B   1      73.188  47.392  10.087  1.00 63.44 LIG-0.07  N 
ATOM      9 H2   ALA B   1      73.483  46.562   9.961  1.00 63.44 LIG 0.28  HD
ATOM     10 H3   ALA B   1      72.327  47.371  10.311  1.00 63.44 LIG 0.28  HD
ATOM     11 H1   ALA B   1      73.288  47.861   9.337  1.00 63.44 LIG 0.28  HD
ENDBRANCH 6 8
ENDBRANCH 3 6
ENDBRANCH 1 2
BRANCH 1 12
ATOM     12  C   ILE B   2      77.710  46.530  12.875  1.00 63.93 LIG 0.24  C 
ATOM     13  N   HIS B   3      77.987  47.791  12.560  1.00 63.34 LIG-0.34  N 
ATOM     14 H    HIS B   3      77.464  48.455  12.721  1.00 63.34 LIG 0.16  HD
ATOM     15 O    ILE B   2      78.476  45.595  12.635  1.00 63.64 LIG-0.27  OA
BRANCH 13 16
ATOM     16  CA  HIS B   3      79.236  48.147  11.900  1.00 63.18 LIG 0.19  C 
BRANCH 16 17
ATOM     17  CB  HIS B   3      78.962  48.657  10.483  1.00 62.24 LIG 0.10  C 
BRANCH 17 18
ATOM     18  CG  HIS B   3      77.703  49.458  10.360  1.00 63.21 LIG 0.06  A 
ATOM     19  CD2 HIS B   3      77.207  50.466  11.118  1.00 62.69 LIG 0.14  A 
ATOM     20 NE2  HIS B   3      76.012  50.845  10.558  1.00 63.05 LIG-0.25  NA
ATOM     21  CE1 HIS B   3      75.781  50.100   9.492  1.00 63.79 LIG 0.23  A 
ATOM     22 ND1  HIS B   3      76.786  49.254   9.350  1.00 63.44 LIG-0.24  NA
ENDBRANCH 17 18
ENDBRANCH 16 17
BRANCH 16 23
ATOM     23  C   HIS B   3      79.960  49.221  12.702  1.00 63.55 LIG 0.20  C 
ATOM     24 OXT  HIS B   3      81.100  49.565  12.332  1.00 62.89 LIG-0.65  OA
ATOM     25 O    HIS B   3      79.373  49.712  13.692  1.00 64.85 LIG-0.65  OA
ENDBRANCH 16 23
ENDBRANCH 13 16
ENDBRANCH 1 12
BRANCH 1 26
ATOM     26  CB  ILE B   2      76.036  44.786  13.476  1.00 64.73 LIG 0.01  C 
ATOM     27  CG2 ILE B   2      76.713  44.028  14.615  1.00 64.62 LIG 0.01  C 
BRANCH 26 28
ATOM     28  CG1 ILE B   2      74.519  44.593  13.523  1.00 64.82 LIG 0.00  C 
ATOM     29  CD1 ILE B   2      74.086  43.221  13.985  1.00 66.82 LIG 0.01  C 
ENDBRANCH 26 28
ENDBRANCH 1 26
TORSDOF 10
ENDMDL
MODEL 38
USER: ADFR SOLUTION from run 24
USER: SCORE 11.704625 LL:  -2.424 LR:  -9.368 RR:   0.000 FEB:  -6.385
USER: RMSD 6.588928
USER: SEED 23
USER: STATUS no improvement in best in 30 clusters for 5 generations
USER: GENES 12
USER: genes 0 Translation |==|  0.65943 0.61704 0.08918
USER: genes 1 Rotation |==|  0.36119 0.76889 0.62638 0.87744
USER: genes 2 Torsion [C]-CA--N-[C] |==|  0.82250
USER: genes 3 Torsion [N]-C--CA-[N] |==|  0.38947
USER: genes 4 Torsion [C]-CA--N-[H2] |==|  0.77612
USER: genes 5 Torsion [N]-CA--C-[N] |==|  0.87438
USER: genes 6 Torsion [C]-N--CA-[CB] |==|  0.83683
USER: genes 7 Torsion [N]-CA--CB-[CG] |==|  0.79649
USER: genes 8 Torsion [CA]-CB--CG-[CD2] |==|  0.24159
USER: genes 9 Torsion [N]-CA--C-[OXT] |==|  0.67279
USER: genes 10 Torsion [N]-CA--CB-[CG2] |==|  0.11946
USER: genes 11 Torsion [CA]-CB--CG1-[CD1] |==|  0.63309
ROOT
ATOM      1  CA  ILE B   2      77.759  48.756  10.380  1.00 64.17 LIG 0.18  C 
ENDROOT
BRANCH 1 2
ATOM      2  N   ILE B   2      76.349  48.835  10.744  1.00 64.56 LIG-0.35  N 
ATOM      3  C   ALA B   1      75.533  47.793  10.616  1.00 64.53 LIG 0.25  C 
ATOM      4 O    ALA B   1      75.906  46.697  10.194  1.00 64.21 LIG-0.27  OA
ATOM      5 H    ILE B   2      76.103  49.603  11.042  1.00 64.56 LIG 0.16  HD
BRANCH 3 6
ATOM      6  CA  ALA B   1      74.080  48.024  11.032  1.00 64.34 LIG 0.27  C 
ATOM      7  CB  ALA B   1      73.855  47.519  12.454  1.00 65.15 LIG 0.05  C 
BRANCH 6 8
ATOM      8  N   ALA B   1      73.127  47.355  10.100  1.00 63.44 LIG-0.07  N 
ATOM      9 H2   ALA B   1      73.017  47.859   9.375  1.00 63.44 LIG 0.28  HD
ATOM     10 H3   ALA B   1      73.451  46.561   9.863  1.00 63.44 LIG 0.28  HD
ATOM     11 H1   ALA B   1      72.342  47.245  10.506  1.00 63.44 LIG 0.28  HD
ENDBRANCH 6 8
ENDBRANCH 3 6
ENDBRANCH 1 2
BRANCH 1 12
ATOM     12  C   ILE B   2      78.507  47.759  11.260  1.00 63.93 LIG 0.24  C 
ATOM     13  N   HIS B   3      78.260  47.828  12.563  1.00 63.34 LIG-0.34  N 
ATOM     14 H    HIS B   3      77.718  48.391  12.923  1.00 63.34 LIG 0.16  HD
ATOM     15 O    ILE B   2      79.288  46.943  10.767  1.00 63.64 LIG-0.27  OA
BRANCH 13 16
ATOM     16  CA  HIS B   3      78.912  46.927  13.504  1.00 63.18 LIG 0.19  C 
BRANCH 16 17
ATOM     17  CB  HIS B   3      78.594  45.471  13.153  1.00 62.24 LIG 0.10  C 
BRANCH 17 18
ATOM     18  CG  HIS B   3      77.193  45.060  13.484  1.00 63.21 LIG 0.06  A 
ATOM     19  CD2 HIS B   3      76.043  45.154  12.773  1.00 62.69 LIG 0.14  A 
ATOM     20 NE2  HIS B   3      75.042  44.623  13.549  1.00 63.05 LIG-0.25  NA
ATOM     21  CE1 HIS B   3      75.557  44.216  14.696  1.00 63.79 LIG 0.23  A 
ATOM     22 ND1  HIS B   3      76.854  44.468  14.682  1.00 63.44 LIG-0.24  NA
ENDBRANCH 17 18
ENDBRANCH 16 17
BRANCH 16 23
ATOM     23  C   HIS B   3      80.420  47.145  13.473  1.00 63.55 LIG 0.20  C 
ATOM     24 OXT  HIS B   3      81.146  46.195  13.117  1.00 62.89 LIG-0.65  OA
ATOM     25 O    HIS B   3      80.858  48.269  13.801  1.00 64.85 LIG-0.65  OA
ENDBRANCH 16 23
ENDBRANCH 13 16
ENDBRANCH 1 12
BRANCH 1 26
ATOM     26  CB  ILE B   2      78.441  50.132  10.504  1.00 64.73 LIG 0.01  C 
ATOM     27  CG2 ILE B   2      77.994  50.824  11.790  1.00 64.62 LIG 0.01  C 
BRANCH 26 28
ATOM     28  CG1 ILE B   2      79.961  49.958  10.481  1.00 64.82 LIG 0.00  C 
ATOM     29  CD1 ILE B   2      80.684  50.708  11.576  1.00 66.82 LIG 0.01  C 
ENDBRANCH 26 28
ENDBRANCH 1 26
TORSDOF 10
ENDMDL
MODEL 39
USER: ADFR SOLUTION from run 45
USER: SCORE 11.273897 LL:  -2.398 LR:  -9.366 RR:   0.000 FEB:  -6.383
USER: RMSD 6.132509
USER: SEED 44
USER: STATUS no improvement in best in 24 clusters for 5 generations
USER: GENES 12
USER: genes 0 Translation |==|  0.53201 0.37133 0.36400
USER: genes 1 Rotation |==|  0.80115 0.26709 0.25173 0.70838
USER: genes 2 Torsion [C]-CA--N-[C] |==|  0.18321
USER: genes 3 Torsion [N]-C--CA-[N] |==|  0.11415
USER: genes 4 Torsion [C]-CA--N-[H2] |==|  0.87868
USER: genes 5 Torsion [N]-CA--C-[N] |==|  0.16061
USER: genes 6 Torsion [C]-N--CA-[CB] |==|  0.16762
USER: genes 7 Torsion [N]-CA--CB-[CG] |==|  0.15613
USER: genes 8 Torsion [CA]-CB--CG-[CD2] |==|  0.51017
USER: genes 9 Torsion [N]-CA--C-[OXT] |==|  0.06920
USER: genes 10 Torsion [N]-CA--CB-[CG2] |==|  0.50331
USER: genes 11 Torsion [CA]-CB--CG1-[CD1] |==|  0.88996
ROOT
ATOM      1  CA  ILE B   2      76.325  44.149  14.708  1.00 64.17 LIG 0.18  C 
ENDROOT
BRANCH 1 2
ATOM      2  N   ILE B   2      76.912  44.705  15.921  1.00 64.56 LIG-0.35  N 
ATOM      3  C   ALA B   1      76.384  45.760  16.534  1.00 64.53 LIG 0.25  C 
ATOM      4 O    ALA B   1      75.369  46.331  16.131  1.00 64.21 LIG-0.27  OA
ATOM      5 H    ILE B   2      77.616  44.294  16.195  1.00 64.56 LIG 0.16  HD
BRANCH 3 6
ATOM      6  CA  ALA B   1      77.109  46.237  17.794  1.00 64.34 LIG 0.27  C 
ATOM      7  CB  ALA B   1      76.664  47.651  18.151  1.00 65.15 LIG 0.05  C 
BRANCH 6 8
ATOM      8  N   ALA B   1      78.590  46.198  17.625  1.00 63.44 LIG-0.07  N 
ATOM      9 H2   ALA B   1      78.824  45.438  17.227  1.00 63.44 LIG 0.28  HD
ATOM     10 H3   ALA B   1      78.849  46.887  17.124  1.00 63.44 LIG 0.28  HD
ATOM     11 H1   ALA B   1      78.981  46.249  18.423  1.00 63.44 LIG 0.28  HD
ENDBRANCH 6 8
ENDBRANCH 3 6
ENDBRANCH 1 2
BRANCH 1 12
ATOM     12  C   ILE B   2      76.425  45.126  13.541  1.00 63.93 LIG 0.24  C 
ATOM     13  N   HIS B   3      77.649  45.529  13.217  1.00 63.34 LIG-0.34  N 
ATOM     14 H    HIS B   3      78.364  45.274  13.622  1.00 63.34 LIG 0.16  HD
ATOM     15 O    ILE B   2      75.415  45.505  12.946  1.00 63.64 LIG-0.27  OA
BRANCH 13 16
ATOM     16  CA  HIS B   3      77.871  46.460  12.119  1.00 63.18 LIG 0.19  C 
BRANCH 16 17
ATOM     17  CB  HIS B   3      77.147  47.781  12.387  1.00 62.24 LIG 0.10  C 
BRANCH 17 18
ATOM     18  CG  HIS B   3      77.528  48.430  13.682  1.00 63.21 LIG 0.06  A 
ATOM     19  CD2 HIS B   3      77.066  49.550  14.289  1.00 62.69 LIG 0.14  A 
ATOM     20 NE2  HIS B   3      77.764  49.692  15.463  1.00 63.05 LIG-0.25  NA
ATOM     21  CE1 HIS B   3      78.624  48.694  15.576  1.00 63.79 LIG 0.23  A 
ATOM     22 ND1  HIS B   3      78.501  47.918  14.513  1.00 63.44 LIG-0.24  NA
ENDBRANCH 17 18
ENDBRANCH 16 17
BRANCH 16 23
ATOM     23  C   HIS B   3      79.363  46.717  11.949  1.00 63.55 LIG 0.20  C 
ATOM     24 OXT  HIS B   3      80.161  45.845  12.348  1.00 62.89 LIG-0.65  OA
ATOM     25 O    HIS B   3      79.718  47.790  11.413  1.00 64.85 LIG-0.65  OA
ENDBRANCH 16 23
ENDBRANCH 13 16
ENDBRANCH 1 12
BRANCH 1 26
ATOM     26  CB  ILE B   2      74.842  43.790  14.925  1.00 64.73 LIG 0.01  C 
ATOM     27  CG2 ILE B   2      74.258  43.183  13.651  1.00 64.62 LIG 0.01  C 
BRANCH 26 28
ATOM     28  CG1 ILE B   2      74.713  42.817  16.099  1.00 64.82 LIG 0.00  C 
ATOM     29  CD1 ILE B   2      75.799  41.768  16.151  1.00 66.82 LIG 0.01  C 
ENDBRANCH 26 28
ENDBRANCH 1 26
TORSDOF 10
ENDMDL
MODEL 40
USER: ADFR SOLUTION from run 80
USER: SCORE 11.372723 LL:  -2.493 LR:  -9.362 RR:   0.000 FEB:  -6.379
USER: RMSD 5.460016
USER: SEED 79
USER: STATUS no improvement in best in 23 clusters for 5 generations
USER: GENES 12
USER: genes 0 Translation |==|  0.51148 0.67261 0.28012
USER: genes 1 Rotation |==|  0.42861 0.58793 0.79491 0.88756
USER: genes 2 Torsion [C]-CA--N-[C] |==|  0.77209
USER: genes 3 Torsion [N]-C--CA-[N] |==|  0.48960
USER: genes 4 Torsion [C]-CA--N-[H2] |==|  0.90242
USER: genes 5 Torsion [N]-CA--C-[N] |==|  0.12864
USER: genes 6 Torsion [C]-N--CA-[CB] |==|  0.36157
USER: genes 7 Torsion [N]-CA--CB-[CG] |==|  0.85198
USER: genes 8 Torsion [CA]-CB--CG-[CD2] |==|  0.86675
USER: genes 9 Torsion [N]-CA--C-[OXT] |==|  0.55300
USER: genes 10 Torsion [N]-CA--CB-[CG2] |==|  0.81376
USER: genes 11 Torsion [CA]-CB--CG1-[CD1] |==|  0.42063
ROOT
ATOM      1  CA  ILE B   2      76.094  49.798  13.387  1.00 64.17 LIG 0.18  C 
ENDROOT
BRANCH 1 2
ATOM      2  N   ILE B   2      74.901  49.059  12.994  1.00 64.56 LIG-0.35  N 
ATOM      3  C   ALA B   1      74.751  48.572  11.765  1.00 64.53 LIG 0.25  C 
ATOM      4 O    ALA B   1      75.604  48.700  10.885  1.00 64.21 LIG-0.27  OA
ATOM      5 H    ILE B   2      74.317  48.971  13.618  1.00 64.56 LIG 0.16  HD
BRANCH 3 6
ATOM      6  CA  ALA B   1      73.446  47.823  11.494  1.00 64.34 LIG 0.27  C 
ATOM      7  CB  ALA B   1      73.340  46.606  12.407  1.00 65.15 LIG 0.05  C 
BRANCH 6 8
ATOM      8  N   ALA B   1      73.341  47.397  10.068  1.00 63.44 LIG-0.07  N 
ATOM      9 H2   ALA B   1      73.714  48.014   9.546  1.00 63.44 LIG 0.28  HD
ATOM     10 H3   ALA B   1      73.762  46.622   9.958  1.00 63.44 LIG 0.28  HD
ATOM     11 H1   ALA B   1      72.483  47.303   9.849  1.00 63.44 LIG 0.28  HD
ENDBRANCH 6 8
ENDBRANCH 3 6
ENDBRANCH 1 2
BRANCH 1 12
ATOM     12  C   ILE B   2      77.235  48.856  13.759  1.00 63.93 LIG 0.24  C 
ATOM     13  N   HIS B   3      77.460  47.848  12.923  1.00 63.34 LIG-0.34  N 
ATOM     14 H    HIS B   3      77.007  47.706  12.206  1.00 63.34 LIG 0.16  HD
ATOM     15 O    ILE B   2      77.899  49.041  14.781  1.00 63.64 LIG-0.27  OA
BRANCH 13 16
ATOM     16  CA  HIS B   3      78.524  46.885  13.170  1.00 63.18 LIG 0.19  C 
BRANCH 16 17
ATOM     17  CB  HIS B   3      77.987  45.457  13.051  1.00 62.24 LIG 0.10  C 
BRANCH 17 18
ATOM     18  CG  HIS B   3      76.784  45.188  13.902  1.00 63.21 LIG 0.06  A 
ATOM     19  CD2 HIS B   3      76.537  45.453  15.207  1.00 62.69 LIG 0.14  A 
ATOM     20 NE2  HIS B   3      75.272  44.994  15.482  1.00 63.05 LIG-0.25  NA
ATOM     21  CE1 HIS B   3      74.759  44.466  14.385  1.00 63.79 LIG 0.23  A 
ATOM     22 ND1  HIS B   3      75.651  44.571  13.416  1.00 63.44 LIG-0.24  NA
ENDBRANCH 17 18
ENDBRANCH 16 17
BRANCH 16 23
ATOM     23  C   HIS B   3      79.656  47.093  12.172  1.00 63.55 LIG 0.20  C 
ATOM     24 OXT  HIS B   3      80.464  46.160  11.994  1.00 62.89 LIG-0.65  OA
ATOM     25 O    HIS B   3      79.718  48.189  11.573  1.00 64.85 LIG-0.65  OA
ENDBRANCH 16 23
ENDBRANCH 13 16
ENDBRANCH 1 12
BRANCH 1 26
ATOM     26  CB  ILE B   2      75.804  50.719  14.588  1.00 64.73 LIG 0.01  C 
ATOM     27  CG2 ILE B   2      74.844  51.832  14.175  1.00 64.62 LIG 0.01  C 
BRANCH 26 28
ATOM     28  CG1 ILE B   2      75.220  49.897  15.739  1.00 64.82 LIG 0.00  C 
ATOM     29  CD1 ILE B   2      75.517  50.459  17.110  1.00 66.82 LIG 0.01  C 
ENDBRANCH 26 28
ENDBRANCH 1 26
TORSDOF 10
ENDMDL
MODEL 41
USER: ADFR SOLUTION from run 109
USER: SCORE 10.883041 LL:  -2.196 LR:  -9.353 RR:   0.000 FEB:  -6.370
USER: RMSD 6.466153
USER: SEED 108
USER: STATUS no improvement in best in 27 clusters for 5 generations
USER: GENES 12
USER: genes 0 Translation |==|  0.53790 0.47742 0.45111
USER: genes 1 Rotation |==|  0.11624 0.47984 0.79552 0.62244
USER: genes 2 Torsion [C]-CA--N-[C] |==|  0.18333
USER: genes 3 Torsion [N]-C--CA-[N] |==|  0.45132
USER: genes 4 Torsion [C]-CA--N-[H2] |==|  0.03936
USER: genes 5 Torsion [N]-CA--C-[N] |==|  0.68152
USER: genes 6 Torsion [C]-N--CA-[CB] |==|  0.85861
USER: genes 7 Torsion [N]-CA--CB-[CG] |==|  0.83859
USER: genes 8 Torsion [CA]-CB--CG-[CD2] |==|  0.47993
USER: genes 9 Torsion [N]-CA--C-[OXT] |==|  0.22767
USER: genes 10 Torsion [N]-CA--CB-[CG2] |==|  0.54967
USER: genes 11 Torsion [CA]-CB--CG1-[CD1] |==|  0.64704
ROOT
ATOM      1  CA  ILE B   2      76.391  46.138  16.080  1.00 64.17 LIG 0.18  C 
ENDROOT
BRANCH 1 2
ATOM      2  N   ILE B   2      76.684  44.769  16.486  1.00 64.56 LIG-0.35  N 
ATOM      3  C   ALA B   1      75.874  44.088  17.292  1.00 64.53 LIG 0.25  C 
ATOM      4 O    ALA B   1      74.826  44.558  17.740  1.00 64.21 LIG-0.27  OA
ATOM      5 H    ILE B   2      77.414  44.451  16.161  1.00 64.56 LIG 0.16  HD
BRANCH 3 6
ATOM      6  CA  ALA B   1      76.310  42.664  17.636  1.00 64.34 LIG 0.27  C 
ATOM      7  CB  ALA B   1      76.067  41.739  16.448  1.00 65.15 LIG 0.05  C 
BRANCH 6 8
ATOM      8  N   ALA B   1      75.595  42.144  18.838  1.00 63.44 LIG-0.07  N 
ATOM      9 H2   ALA B   1      74.899  42.669  19.019  1.00 63.44 LIG 0.28  HD
ATOM     10 H3   ALA B   1      75.308  41.317  18.678  1.00 63.44 LIG 0.28  HD
ATOM     11 H1   ALA B   1      76.151  42.136  19.533  1.00 63.44 LIG 0.28  HD
ENDBRANCH 6 8
ENDBRANCH 3 6
ENDBRANCH 1 2
BRANCH 1 12
ATOM     12  C   ILE B   2      76.445  47.095  17.267  1.00 63.93 LIG 0.24  C 
ATOM     13  N   HIS B   3      75.298  47.671  17.607  1.00 63.34 LIG-0.34  N 
ATOM     14 H    HIS B   3      74.551  47.536  17.202  1.00 63.34 LIG 0.16  HD
ATOM     15 O    ILE B   2      77.504  47.304  17.862  1.00 63.64 LIG-0.27  OA
BRANCH 13 16
ATOM     16  CA  HIS B   3      75.223  48.602  18.725  1.00 63.18 LIG 0.19  C 
BRANCH 16 17
ATOM     17  CB  HIS B   3      75.861  47.986  19.973  1.00 62.24 LIG 0.10  C 
BRANCH 17 18
ATOM     18  CG  HIS B   3      75.236  46.693  20.398  1.00 63.21 LIG 0.06  A 
ATOM     19  CD2 HIS B   3      75.594  45.799  21.352  1.00 62.69 LIG 0.14  A 
ATOM     20 NE2  HIS B   3      74.671  44.783  21.323  1.00 63.05 LIG-0.25  NA
ATOM     21  CE1 HIS B   3      73.776  45.042  20.386  1.00 63.79 LIG 0.23  A 
ATOM     22 ND1  HIS B   3      74.094  46.189  19.813  1.00 63.44 LIG-0.24  NA
ENDBRANCH 17 18
ENDBRANCH 16 17
BRANCH 16 23
ATOM     23  C   HIS B   3      75.938  49.900  18.370  1.00 63.55 LIG 0.20  C 
ATOM     24 OXT  HIS B   3      75.319  50.748  17.697  1.00 62.89 LIG-0.65  OA
ATOM     25 O    HIS B   3      77.110  50.055  18.776  1.00 64.85 LIG-0.65  OA
ENDBRANCH 16 23
ENDBRANCH 13 16
ENDBRANCH 1 12
BRANCH 1 26
ATOM     26  CB  ILE B   2      74.997  46.236  15.430  1.00 64.73 LIG 0.01  C 
ATOM     27  CG2 ILE B   2      74.883  47.531  14.629  1.00 64.62 LIG 0.01  C 
BRANCH 26 28
ATOM     28  CG1 ILE B   2      74.759  45.020  14.533  1.00 64.82 LIG 0.00  C 
ATOM     29  CD1 ILE B   2      74.347  45.366  13.121  1.00 66.82 LIG 0.01  C 
ENDBRANCH 26 28
ENDBRANCH 1 26
TORSDOF 10
ENDMDL
MODEL 42
USER: ADFR SOLUTION from run 10
USER: SCORE 10.747883 LL:  -1.833 LR:  -9.337 RR:   0.000 FEB:  -6.354
USER: RMSD 7.058785
USER: SEED 819663
USER: STATUS no improvement in best in 21 clusters for 5 generations
USER: GENES 12
USER: genes 0 Translation |==|  0.54303 0.37225 0.32582
USER: genes 1 Rotation |==|  0.83179 0.22890 0.25447 0.57835
USER: genes 2 Torsion [C]-CA--N-[C] |==|  0.61112
USER: genes 3 Torsion [N]-C--CA-[N] |==|  0.80529
USER: genes 4 Torsion [C]-CA--N-[H2] |==|  0.13558
USER: genes 5 Torsion [N]-CA--C-[N] |==|  0.07172
USER: genes 6 Torsion [C]-N--CA-[CB] |==|  0.39980
USER: genes 7 Torsion [N]-CA--CB-[CG] |==|  0.52083
USER: genes 8 Torsion [CA]-CB--CG-[CD2] |==|  0.04353
USER: genes 9 Torsion [N]-CA--C-[OXT] |==|  0.72607
USER: genes 10 Torsion [N]-CA--CB-[CG2] |==|  0.84920
USER: genes 11 Torsion [CA]-CB--CG1-[CD1] |==|  0.32257
ROOT
ATOM      1  CA  ILE B   2      76.449  44.166  14.107  1.00 64.17 LIG 0.18  C 
ENDROOT
BRANCH 1 2
ATOM      2  N   ILE B   2      76.610  44.217  15.554  1.00 64.56 LIG-0.35  N 
ATOM      3  C   ALA B   1      76.759  43.115  16.283  1.00 64.53 LIG 0.25  C 
ATOM      4 O    ALA B   1      76.780  41.985  15.791  1.00 64.21 LIG-0.27  OA
ATOM      5 H    ILE B   2      76.600  45.012  15.884  1.00 64.56 LIG 0.16  HD
BRANCH 3 6
ATOM      6  CA  ALA B   1      76.913  43.321  17.790  1.00 64.34 LIG 0.27  C 
ATOM      7  CB  ALA B   1      75.776  44.189  18.319  1.00 65.15 LIG 0.05  C 
BRANCH 6 8
ATOM      8  N   ALA B   1      78.226  43.942  18.130  1.00 63.44 LIG-0.07  N 
ATOM      9 H2   ALA B   1      78.362  44.651  17.610  1.00 63.44 LIG 0.28  HD
ATOM     10 H3   ALA B   1      78.221  44.197  18.983  1.00 63.44 LIG 0.28  HD
ATOM     11 H1   ALA B   1      78.877  43.349  18.001  1.00 63.44 LIG 0.28  HD
ENDBRANCH 6 8
ENDBRANCH 3 6
ENDBRANCH 1 2
BRANCH 1 12
ATOM     12  C   ILE B   2      77.224  45.285  13.419  1.00 63.93 LIG 0.24  C 
ATOM     13  N   HIS B   3      78.279  45.757  14.075  1.00 63.34 LIG-0.34  N 
ATOM     14 H    HIS B   3      78.537  45.471  14.844  1.00 63.34 LIG 0.16  HD
ATOM     15 O    ILE B   2      76.874  45.711  12.316  1.00 63.64 LIG-0.27  OA
BRANCH 13 16
ATOM     16  CA  HIS B   3      79.099  46.824  13.518  1.00 63.18 LIG 0.19  C 
BRANCH 16 17
ATOM     17  CB  HIS B   3      79.588  47.754  14.631  1.00 62.24 LIG 0.10  C 
BRANCH 17 18
ATOM     18  CG  HIS B   3      80.291  48.979  14.132  1.00 63.21 LIG 0.06  A 
ATOM     19  CD2 HIS B   3      80.330  49.548  12.903  1.00 62.69 LIG 0.14  A 
ATOM     20 NE2  HIS B   3      81.127  50.663  12.997  1.00 63.05 LIG-0.25  NA
ATOM     21  CE1 HIS B   3      81.562  50.777  14.240  1.00 63.79 LIG 0.23  A 
ATOM     22 ND1  HIS B   3      81.071  49.773  14.946  1.00 63.44 LIG-0.24  NA
ENDBRANCH 17 18
ENDBRANCH 16 17
BRANCH 16 23
ATOM     23  C   HIS B   3      80.294  46.232  12.781  1.00 63.55 LIG 0.20  C 
ATOM     24 OXT  HIS B   3      81.389  46.186  13.375  1.00 62.89 LIG-0.65  OA
ATOM     25 O    HIS B   3      80.118  45.814  11.615  1.00 64.85 LIG-0.65  OA
ENDBRANCH 16 23
ENDBRANCH 13 16
ENDBRANCH 1 12
BRANCH 1 26
ATOM     26  CB  ILE B   2      74.963  44.279  13.711  1.00 64.73 LIG 0.01  C 
ATOM     27  CG2 ILE B   2      74.145  43.215  14.437  1.00 64.62 LIG 0.01  C 
BRANCH 26 28
ATOM     28  CG1 ILE B   2      74.448  45.681  14.042  1.00 64.82 LIG 0.00  C 
ATOM     29  CD1 ILE B   2      74.022  46.482  12.833  1.00 66.82 LIG 0.01  C 
ENDBRANCH 26 28
ENDBRANCH 1 26
TORSDOF 10
ENDMDL
MODEL 43
USER: ADFR SOLUTION from run 108
USER: SCORE 11.035437 LL:  -1.781 LR:  -9.332 RR:   0.000 FEB:  -6.349
USER: RMSD 5.638398
USER: SEED 107
USER: STATUS no improvement in best in 24 clusters for 5 generations
USER: GENES 12
USER: genes 0 Translation |==|  0.51734 0.32294 0.53646
USER: genes 1 Rotation |==|  0.52203 0.94999 0.29551 0.57214
USER: genes 2 Torsion [C]-CA--N-[C] |==|  0.70001
USER: genes 3 Torsion [N]-C--CA-[N] |==|  0.00030
USER: genes 4 Torsion [C]-CA--N-[H2] |==|  0.81098
USER: genes 5 Torsion [N]-CA--C-[N] |==|  0.05248
USER: genes 6 Torsion [C]-N--CA-[CB] |==|  0.77245
USER: genes 7 Torsion [N]-CA--CB-[CG] |==|  0.91217
USER: genes 8 Torsion [CA]-CB--CG-[CD2] |==|  0.87919
USER: genes 9 Torsion [N]-CA--C-[OXT] |==|  0.21660
USER: genes 10 Torsion [N]-CA--CB-[CG2] |==|  0.58878
USER: genes 11 Torsion [CA]-CB--CG1-[CD1] |==|  0.76575
ROOT
ATOM      1  CA  ILE B   2      76.160  43.241  17.424  1.00 64.17 LIG 0.18  C 
ENDROOT
BRANCH 1 2
ATOM      2  N   ILE B   2      76.892  44.501  17.447  1.00 64.56 LIG-0.35  N 
ATOM      3  C   ALA B   1      76.306  45.646  17.785  1.00 64.53 LIG 0.25  C 
ATOM      4 O    ALA B   1      75.119  45.721  18.109  1.00 64.21 LIG-0.27  OA
ATOM      5 H    ILE B   2      77.720  44.434  17.225  1.00 64.56 LIG 0.16  HD
BRANCH 3 6
ATOM      6  CA  ALA B   1      77.196  46.890  17.760  1.00 64.34 LIG 0.27  C 
ATOM      7  CB  ALA B   1      76.607  47.936  16.820  1.00 65.15 LIG 0.05  C 
BRANCH 6 8
ATOM      8  N   ALA B   1      78.590  46.561  17.344  1.00 63.44 LIG-0.07  N 
ATOM      9 H2   ALA B   1      78.981  46.071  17.975  1.00 63.44 LIG 0.28  HD
ATOM     10 H3   ALA B   1      78.572  46.102  16.581  1.00 63.44 LIG 0.28  HD
ATOM     11 H1   ALA B   1      79.049  47.314  17.225  1.00 63.44 LIG 0.28  HD
ENDBRANCH 6 8
ENDBRANCH 3 6
ENDBRANCH 1 2
BRANCH 1 12
ATOM     12  C   ILE B   2      76.573  42.336  18.580  1.00 63.93 LIG 0.24  C 
ATOM     13  N   HIS B   3      77.184  42.929  19.600  1.00 63.34 LIG-0.34  N 
ATOM     14 H    HIS B   3      77.354  43.772  19.637  1.00 63.34 LIG 0.16  HD
ATOM     15 O    ILE B   2      76.340  41.126  18.550  1.00 63.64 LIG-0.27  OA
BRANCH 13 16
ATOM     16  CA  HIS B   3      77.623  42.169  20.763  1.00 63.18 LIG 0.19  C 
BRANCH 16 17
ATOM     17  CB  HIS B   3      76.454  41.949  21.726  1.00 62.24 LIG 0.10  C 
BRANCH 17 18
ATOM     18  CG  HIS B   3      75.450  43.061  21.725  1.00 63.21 LIG 0.06  A 
ATOM     19  CD2 HIS B   3      75.607  44.406  21.724  1.00 62.69 LIG 0.14  A 
ATOM     20 NE2  HIS B   3      74.351  44.962  21.725  1.00 63.05 LIG-0.25  NA
ATOM     21  CE1 HIS B   3      73.453  43.993  21.725  1.00 63.79 LIG 0.23  A 
ATOM     22 ND1  HIS B   3      74.090  42.835  21.725  1.00 63.44 LIG-0.24  NA
ENDBRANCH 17 18
ENDBRANCH 16 17
BRANCH 16 23
ATOM     23  C   HIS B   3      78.186  40.824  20.323  1.00 63.55 LIG 0.20  C 
ATOM     24 OXT  HIS B   3      79.340  40.794  19.850  1.00 62.89 LIG-0.65  OA
ATOM     25 O    HIS B   3      77.465  39.811  20.461  1.00 64.85 LIG-0.65  OA
ENDBRANCH 16 23
ENDBRANCH 13 16
ENDBRANCH 1 12
BRANCH 1 26
ATOM     26  CB  ILE B   2      76.396  42.488  16.100  1.00 64.73 LIG 0.01  C 
ATOM     27  CG2 ILE B   2      75.152  41.686  15.725  1.00 64.62 LIG 0.01  C 
BRANCH 26 28
ATOM     28  CG1 ILE B   2      76.752  43.485  14.996  1.00 64.82 LIG 0.00  C 
ATOM     29  CD1 ILE B   2      75.554  44.121  14.330  1.00 66.82 LIG 0.01  C 
ENDBRANCH 26 28
ENDBRANCH 1 26
TORSDOF 10
ENDMDL
MODEL 44
USER: ADFR SOLUTION from run 101
USER: SCORE 10.680174 LL:  -1.934 LR:  -9.320 RR:   0.000 FEB:  -6.337
USER: RMSD 4.937903
USER: SEED 100
USER: STATUS no improvement in best in 19 clusters for 5 generations
USER: GENES 12
USER: genes 0 Translation |==|  0.49689 0.44804 0.30341
USER: genes 1 Rotation |==|  0.36161 0.70758 0.35729 0.90914
USER: genes 2 Torsion [C]-CA--N-[C] |==|  0.56777
USER: genes 3 Torsion [N]-C--CA-[N] |==|  0.64215
USER: genes 4 Torsion [C]-CA--N-[H2] |==|  0.64481
USER: genes 5 Torsion [N]-CA--C-[N] |==|  0.55440
USER: genes 6 Torsion [C]-N--CA-[CB] |==|  0.47664
USER: genes 7 Torsion [N]-CA--CB-[CG] |==|  0.52013
USER: genes 8 Torsion [CA]-CB--CG-[CD2] |==|  0.30327
USER: genes 9 Torsion [N]-CA--C-[OXT] |==|  0.33791
USER: genes 10 Torsion [N]-CA--CB-[CG2] |==|  0.75229
USER: genes 11 Torsion [CA]-CB--CG1-[CD1] |==|  0.25164
ROOT
ATOM      1  CA  ILE B   2      75.930  45.587  13.754  1.00 64.17 LIG 0.18  C 
ENDROOT
BRANCH 1 2
ATOM      2  N   ILE B   2      75.122  46.599  13.085  1.00 64.56 LIG-0.35  N 
ATOM      3  C   ALA B   1      75.173  46.778  11.768  1.00 64.53 LIG 0.25  C 
ATOM      4 O    ALA B   1      75.892  46.104  11.027  1.00 64.21 LIG-0.27  OA
ATOM      5 H    ILE B   2      74.621  47.057  13.611  1.00 64.56 LIG 0.16  HD
BRANCH 3 6
ATOM      6  CA  ALA B   1      74.274  47.879  11.204  1.00 64.34 LIG 0.27  C 
ATOM      7  CB  ALA B   1      73.377  48.437  12.304  1.00 65.15 LIG 0.05  C 
BRANCH 6 8
ATOM      8  N   ALA B   1      73.440  47.383  10.071  1.00 63.44 LIG-0.07  N 
ATOM      9 H2   ALA B   1      73.540  47.923   9.371  1.00 63.44 LIG 0.28  HD
ATOM     10 H3   ALA B   1      73.698  46.561   9.851  1.00 63.44 LIG 0.28  HD
ATOM     11 H1   ALA B   1      72.585  47.370  10.317  1.00 63.44 LIG 0.28  HD
ENDBRANCH 6 8
ENDBRANCH 3 6
ENDBRANCH 1 2
BRANCH 1 12
ATOM     12  C   ILE B   2      75.305  45.160  15.078  1.00 63.93 LIG 0.24  C 
ATOM     13  N   HIS B   3      76.118  44.569  15.947  1.00 63.34 LIG-0.34  N 
ATOM     14 H    HIS B   3      76.952  44.419  15.802  1.00 63.34 LIG 0.16  HD
ATOM     15 O    ILE B   2      74.111  45.364  15.308  1.00 63.64 LIG-0.27  OA
BRANCH 13 16
ATOM     16  CA  HIS B   3      75.637  44.120  17.246  1.00 63.18 LIG 0.19  C 
BRANCH 16 17
ATOM     17  CB  HIS B   3      76.714  43.295  17.956  1.00 62.24 LIG 0.10  C 
BRANCH 17 18
ATOM     18  CG  HIS B   3      76.246  42.649  19.223  1.00 63.21 LIG 0.06  A 
ATOM     19  CD2 HIS B   3      76.002  41.351  19.527  1.00 62.69 LIG 0.14  A 
ATOM     20 NE2  HIS B   3      75.590  41.311  20.836  1.00 63.05 LIG-0.25  NA
ATOM     21  CE1 HIS B   3      75.582  42.540  21.322  1.00 63.79 LIG 0.23  A 
ATOM     22 ND1  HIS B   3      75.974  43.367  20.369  1.00 63.44 LIG-0.24  NA
ENDBRANCH 17 18
ENDBRANCH 16 17
BRANCH 16 23
ATOM     23  C   HIS B   3      75.260  45.320  18.105  1.00 63.55 LIG 0.20  C 
ATOM     24 OXT  HIS B   3      74.090  45.396  18.531  1.00 62.89 LIG-0.65  OA
ATOM     25 O    HIS B   3      76.144  46.172  18.346  1.00 64.85 LIG-0.65  OA
ENDBRANCH 16 23
ENDBRANCH 13 16
ENDBRANCH 1 12
BRANCH 1 26
ATOM     26  CB  ILE B   2      77.355  46.108  14.027  1.00 64.73 LIG 0.01  C 
ATOM     27  CG2 ILE B   2      78.262  45.802  12.837  1.00 64.62 LIG 0.01  C 
BRANCH 26 28
ATOM     28  CG1 ILE B   2      77.309  47.612  14.303  1.00 64.82 LIG 0.00  C 
ATOM     29  CD1 ILE B   2      77.139  47.966  15.762  1.00 66.82 LIG 0.01  C 
ENDBRANCH 26 28
ENDBRANCH 1 26
TORSDOF 10
ENDMDL
MODEL 45
USER: ADFR SOLUTION from run 200
USER: SCORE 10.729437 LL:  -1.679 LR:  -9.294 RR:   0.000 FEB:  -6.311
USER: RMSD 6.522355
USER: SEED 199
USER: STATUS no improvement in best in 16 clusters for 5 generations
USER: GENES 12
USER: genes 0 Translation |==|  0.52922 0.33976 0.48016
USER: genes 1 Rotation |==|  0.97382 0.49048 0.34226 0.52281
USER: genes 2 Torsion [C]-CA--N-[C] |==|  0.77222
USER: genes 3 Torsion [N]-C--CA-[N] |==|  0.00837
USER: genes 4 Torsion [C]-CA--N-[H2] |==|  0.76469
USER: genes 5 Torsion [N]-CA--C-[N] |==|  0.26598
USER: genes 6 Torsion [C]-N--CA-[CB] |==|  0.85817
USER: genes 7 Torsion [N]-CA--CB-[CG] |==|  0.56270
USER: genes 8 Torsion [CA]-CB--CG-[CD2] |==|  0.90212
USER: genes 9 Torsion [N]-CA--C-[OXT] |==|  0.88061
USER: genes 10 Torsion [N]-CA--CB-[CG2] |==|  0.12746
USER: genes 11 Torsion [CA]-CB--CG1-[CD1] |==|  0.64132
ROOT
ATOM      1  CA  ILE B   2      76.294  43.556  16.538  1.00 64.17 LIG 0.18  C 
ENDROOT
BRANCH 1 2
ATOM      2  N   ILE B   2      76.159  42.707  17.714  1.00 64.56 LIG-0.35  N 
ATOM      3  C   ALA B   1      77.022  42.768  18.725  1.00 64.53 LIG 0.25  C 
ATOM      4 O    ALA B   1      77.980  43.544  18.743  1.00 64.21 LIG-0.27  OA
ATOM      5 H    ILE B   2      75.484  42.175  17.692  1.00 64.56 LIG 0.16  HD
BRANCH 3 6
ATOM      6  CA  ALA B   1      76.759  41.815  19.891  1.00 64.34 LIG 0.27  C 
ATOM      7  CB  ALA B   1      77.998  40.971  20.168  1.00 65.15 LIG 0.05  C 
BRANCH 6 8
ATOM      8  N   ALA B   1      75.590  40.928  19.625  1.00 63.44 LIG-0.07  N 
ATOM      9 H2   ALA B   1      74.840  41.350  19.850  1.00 63.44 LIG 0.28  HD
ATOM     10 H3   ALA B   1      75.565  40.721  18.760  1.00 63.44 LIG 0.28  HD
ATOM     11 H1   ALA B   1      75.668  40.183  20.106  1.00 63.44 LIG 0.28  HD
ENDBRANCH 6 8
ENDBRANCH 3 6
ENDBRANCH 1 2
BRANCH 1 12
ATOM     12  C   ILE B   2      75.713  44.946  16.783  1.00 63.93 LIG 0.24  C 
ATOM     13  N   HIS B   3      76.577  45.884  17.156  1.00 63.34 LIG-0.34  N 
ATOM     14 H    HIS B   3      77.420  45.750  17.263  1.00 63.34 LIG 0.16  HD
ATOM     15 O    ILE B   2      74.509  45.162  16.636  1.00 63.64 LIG-0.27  OA
BRANCH 13 16
ATOM     16  CA  HIS B   3      76.142  47.250  17.416  1.00 63.18 LIG 0.19  C 
BRANCH 16 17
ATOM     17  CB  HIS B   3      75.312  47.777  16.243  1.00 62.24 LIG 0.10  C 
BRANCH 17 18
ATOM     18  CG  HIS B   3      75.272  49.271  16.151  1.00 63.21 LIG 0.06  A 
ATOM     19  CD2 HIS B   3      75.252  50.224  17.113  1.00 62.69 LIG 0.14  A 
ATOM     20 NE2  HIS B   3      75.215  51.441  16.478  1.00 63.05 LIG-0.25  NA
ATOM     21  CE1 HIS B   3      75.212  51.244  15.171  1.00 63.79 LIG 0.23  A 
ATOM     22 ND1  HIS B   3      75.246  49.943  14.947  1.00 63.44 LIG-0.24  NA
ENDBRANCH 17 18
ENDBRANCH 16 17
BRANCH 16 23
ATOM     23  C   HIS B   3      75.312  47.296  18.694  1.00 63.55 LIG 0.20  C 
ATOM     24 OXT  HIS B   3      74.466  46.399  18.880  1.00 62.89 LIG-0.65  OA
ATOM     25 O    HIS B   3      75.523  48.230  19.498  1.00 64.85 LIG-0.65  OA
ENDBRANCH 16 23
ENDBRANCH 13 16
ENDBRANCH 1 12
BRANCH 1 26
ATOM     26  CB  ILE B   2      75.582  42.933  15.321  1.00 64.73 LIG 0.01  C 
ATOM     27  CG2 ILE B   2      74.196  42.434  15.724  1.00 64.62 LIG 0.01  C 
BRANCH 26 28
ATOM     28  CG1 ILE B   2      75.482  43.966  14.197  1.00 64.82 LIG 0.00  C 
ATOM     29  CD1 ILE B   2      74.090  44.125  13.628  1.00 66.82 LIG 0.01  C 
ENDBRANCH 26 28
ENDBRANCH 1 26
TORSDOF 10
ENDMDL
MODEL 46
USER: ADFR SOLUTION from run 172
USER: SCORE 11.037252 LL:  -1.992 LR:  -9.291 RR:   0.000 FEB:  -6.308
USER: RMSD 6.295238
USER: SEED 171
USER: STATUS no improvement in best in 35 clusters for 5 generations
USER: GENES 12
USER: genes 0 Translation |==|  0.49191 0.46548 0.27503
USER: genes 1 Rotation |==|  0.67636 0.25694 0.87425 0.64056
USER: genes 2 Torsion [C]-CA--N-[C] |==|  0.77745
USER: genes 3 Torsion [N]-C--CA-[N] |==|  0.24769
USER: genes 4 Torsion [C]-CA--N-[H2] |==|  0.41403
USER: genes 5 Torsion [N]-CA--C-[N] |==|  0.21882
USER: genes 6 Torsion [C]-N--CA-[CB] |==|  0.79391
USER: genes 7 Torsion [N]-CA--CB-[CG] |==|  0.90391
USER: genes 8 Torsion [CA]-CB--CG-[CD2] |==|  0.78065
USER: genes 9 Torsion [N]-CA--C-[OXT] |==|  0.16384
USER: genes 10 Torsion [N]-CA--CB-[CG2] |==|  0.50150
USER: genes 11 Torsion [CA]-CB--CG1-[CD1] |==|  0.63926
ROOT
ATOM      1  CA  ILE B   2      75.874  45.914  13.307  1.00 64.17 LIG 0.18  C 
ENDROOT
BRANCH 1 2
ATOM      2  N   ILE B   2      75.384  46.235  11.972  1.00 64.56 LIG-0.35  N 
ATOM      3  C   ALA B   1      75.007  47.467  11.642  1.00 64.53 LIG 0.25  C 
ATOM      4 O    ALA B   1      75.051  48.415  12.428  1.00 64.21 LIG-0.27  OA
ATOM      5 H    ILE B   2      75.364  45.567  11.432  1.00 64.56 LIG 0.16  HD
BRANCH 3 6
ATOM      6  CA  ALA B   1      74.510  47.655  10.208  1.00 64.34 LIG 0.27  C 
ATOM      7  CB  ALA B   1      74.846  49.059   9.717  1.00 65.15 LIG 0.05  C 
BRANCH 6 8
ATOM      8  N   ALA B   1      73.042  47.417  10.097  1.00 63.44 LIG-0.07  N 
ATOM      9 H2   ALA B   1      72.706  47.928   9.451  1.00 63.44 LIG 0.28  HD
ATOM     10 H3   ALA B   1      72.894  46.561   9.905  1.00 63.44 LIG 0.28  HD
ATOM     11 H1   ALA B   1      72.650  47.620  10.870  1.00 63.44 LIG 0.28  HD
ENDBRANCH 6 8
ENDBRANCH 3 6
ENDBRANCH 1 2
BRANCH 1 12
ATOM     12  C   ILE B   2      77.336  46.314  13.475  1.00 63.93 LIG 0.24  C 
ATOM     13  N   HIS B   3      77.570  47.603  13.698  1.00 63.34 LIG-0.34  N 
ATOM     14 H    HIS B   3      76.955  48.203  13.749  1.00 63.34 LIG 0.16  HD
ATOM     15 O    ILE B   2      78.234  45.472  13.407  1.00 63.64 LIG-0.27  OA
BRANCH 13 16
ATOM     16  CA  HIS B   3      78.925  48.104  13.878  1.00 63.18 LIG 0.19  C 
BRANCH 16 17
ATOM     17  CB  HIS B   3      79.460  47.709  15.257  1.00 62.24 LIG 0.10  C 
BRANCH 17 18
ATOM     18  CG  HIS B   3      78.415  47.689  16.330  1.00 63.21 LIG 0.06  A 
ATOM     19  CD2 HIS B   3      77.847  48.692  17.042  1.00 62.69 LIG 0.14  A 
ATOM     20 NE2  HIS B   3      76.943  48.118  17.902  1.00 63.05 LIG-0.25  NA
ATOM     21  CE1 HIS B   3      76.953  46.809  17.724  1.00 63.79 LIG 0.23  A 
ATOM     22 ND1  HIS B   3      77.833  46.523  16.781  1.00 63.44 LIG-0.24  NA
ENDBRANCH 17 18
ENDBRANCH 16 17
BRANCH 16 23
ATOM     23  C   HIS B   3      79.836  47.543  12.794  1.00 63.55 LIG 0.20  C 
ATOM     24 OXT  HIS B   3      79.551  47.780  11.603  1.00 62.89 LIG-0.65  OA
ATOM     25 O    HIS B   3      80.831  46.874  13.150  1.00 64.85 LIG-0.65  OA
ENDBRANCH 16 23
ENDBRANCH 13 16
ENDBRANCH 1 12
BRANCH 1 26
ATOM     26  CB  ILE B   2      75.739  44.406  13.598  1.00 64.73 LIG 0.01  C 
ATOM     27  CG2 ILE B   2      76.245  44.096  15.004  1.00 64.62 LIG 0.01  C 
BRANCH 26 28
ATOM     28  CG1 ILE B   2      74.278  43.980  13.440  1.00 64.82 LIG 0.00  C 
ATOM     29  CD1 ILE B   2      73.737  43.190  14.610  1.00 66.82 LIG 0.01  C 
ENDBRANCH 26 28
ENDBRANCH 1 26
TORSDOF 10
ENDMDL
MODEL 47
USER: ADFR SOLUTION from run 22
USER: SCORE 11.289010 LL:  -2.007 LR:  -9.284 RR:   0.000 FEB:  -6.301
USER: RMSD 6.589776
USER: SEED 21
USER: STATUS no improvement in best in 21 clusters for 5 generations
USER: GENES 12
USER: genes 0 Translation |==|  0.46736 0.38084 0.57944
USER: genes 1 Rotation |==|  0.97497 0.42379 0.42035 0.61071
USER: genes 2 Torsion [C]-CA--N-[C] |==|  0.83483
USER: genes 3 Torsion [N]-C--CA-[N] |==|  0.51529
USER: genes 4 Torsion [C]-CA--N-[H2] |==|  0.75131
USER: genes 5 Torsion [N]-CA--C-[N] |==|  0.37581
USER: genes 6 Torsion [C]-N--CA-[CB] |==|  0.17748
USER: genes 7 Torsion [N]-CA--CB-[CG] |==|  0.45523
USER: genes 8 Torsion [CA]-CB--CG-[CD2] |==|  0.17558
USER: genes 9 Torsion [N]-CA--C-[OXT] |==|  0.81241
USER: genes 10 Torsion [N]-CA--CB-[CG2] |==|  0.41894
USER: genes 11 Torsion [CA]-CB--CG1-[CD1] |==|  0.12729
ROOT
ATOM      1  CA  ILE B   2      75.598  44.327  18.101  1.00 64.17 LIG 0.18  C 
ENDROOT
BRANCH 1 2
ATOM      2  N   ILE B   2      75.000  44.071  19.406  1.00 64.56 LIG-0.35  N 
ATOM      3  C   ALA B   1      75.270  44.833  20.462  1.00 64.53 LIG 0.25  C 
ATOM      4 O    ALA B   1      76.028  45.803  20.412  1.00 64.21 LIG-0.27  OA
ATOM      5 H    ILE B   2      74.469  43.395  19.426  1.00 64.56 LIG 0.16  HD
BRANCH 3 6
ATOM      6  CA  ALA B   1      74.575  44.443  21.767  1.00 64.34 LIG 0.27  C 
ATOM      7  CB  ALA B   1      73.072  44.311  21.541  1.00 65.15 LIG 0.05  C 
BRANCH 6 8
ATOM      8  N   ALA B   1      74.840  45.433  22.850  1.00 63.44 LIG-0.07  N 
ATOM      9 H2   ALA B   1      75.575  45.199  23.293  1.00 63.44 LIG 0.28  HD
ATOM     10 H3   ALA B   1      74.954  46.240  22.493  1.00 63.44 LIG 0.28  HD
ATOM     11 H1   ALA B   1      74.149  45.452  23.410  1.00 63.44 LIG 0.28  HD
ENDBRANCH 6 8
ENDBRANCH 3 6
ENDBRANCH 1 2
BRANCH 1 12
ATOM     12  C   ILE B   2      75.243  45.719  17.589  1.00 63.93 LIG 0.24  C 
ATOM     13  N   HIS B   3      76.241  46.422  17.063  1.00 63.34 LIG-0.34  N 
ATOM     14 H    HIS B   3      77.051  46.138  17.001  1.00 63.34 LIG 0.16  HD
ATOM     15 O    ILE B   2      74.090  46.147  17.667  1.00 63.64 LIG-0.27  OA
BRANCH 13 16
ATOM     16  CA  HIS B   3      76.025  47.763  16.538  1.00 63.18 LIG 0.19  C 
BRANCH 16 17
ATOM     17  CB  HIS B   3      75.597  48.711  17.661  1.00 62.24 LIG 0.10  C 
BRANCH 17 18
ATOM     18  CG  HIS B   3      75.720  50.162  17.311  1.00 63.21 LIG 0.06  A 
ATOM     19  CD2 HIS B   3      75.099  50.908  16.365  1.00 62.69 LIG 0.14  A 
ATOM     20 NE2  HIS B   3      75.583  52.188  16.475  1.00 63.05 LIG-0.25  NA
ATOM     21  CE1 HIS B   3      76.470  52.229  17.454  1.00 63.79 LIG 0.23  A 
ATOM     22 ND1  HIS B   3      76.571  51.019  17.975  1.00 63.44 LIG-0.24  NA
ENDBRANCH 17 18
ENDBRANCH 16 17
BRANCH 16 23
ATOM     23  C   HIS B   3      77.303  48.280  15.889  1.00 63.55 LIG 0.20  C 
ATOM     24 OXT  HIS B   3      78.283  48.515  16.624  1.00 62.89 LIG-0.65  OA
ATOM     25 O    HIS B   3      77.309  48.439  14.649  1.00 64.85 LIG-0.65  OA
ENDBRANCH 16 23
ENDBRANCH 13 16
ENDBRANCH 1 12
BRANCH 1 26
ATOM     26  CB  ILE B   2      75.130  43.286  17.064  1.00 64.73 LIG 0.01  C 
ATOM     27  CG2 ILE B   2      75.126  43.903  15.668  1.00 64.62 LIG 0.01  C 
BRANCH 26 28
ATOM     28  CG1 ILE B   2      76.045  42.061  17.114  1.00 64.82 LIG 0.00  C 
ATOM     29  CD1 ILE B   2      76.340  41.570  18.513  1.00 66.82 LIG 0.01  C 
ENDBRANCH 26 28
ENDBRANCH 1 26
TORSDOF 10
ENDMDL
MODEL 48
USER: ADFR SOLUTION from run 92
USER: SCORE 10.795054 LL:  -1.633 LR:  -9.269 RR:   0.000 FEB:  -6.286
USER: RMSD 6.819460
USER: SEED 91
USER: STATUS no improvement in best in 18 clusters for 5 generations
USER: GENES 12
USER: genes 0 Translation |==|  0.38944 0.51729 0.32462
USER: genes 1 Rotation |==|  0.35694 0.72710 0.07955 0.53434
USER: genes 2 Torsion [C]-CA--N-[C] |==|  0.75172
USER: genes 3 Torsion [N]-C--CA-[N] |==|  0.28127
USER: genes 4 Torsion [C]-CA--N-[H2] |==|  0.77275
USER: genes 5 Torsion [N]-CA--C-[N] |==|  0.34196
USER: genes 6 Torsion [C]-N--CA-[CB] |==|  0.88113
USER: genes 7 Torsion [N]-CA--CB-[CG] |==|  0.60788
USER: genes 8 Torsion [CA]-CB--CG-[CD2] |==|  0.21234
USER: genes 9 Torsion [N]-CA--C-[OXT] |==|  0.84989
USER: genes 10 Torsion [N]-CA--CB-[CG2] |==|  0.49599
USER: genes 11 Torsion [CA]-CB--CG1-[CD1] |==|  0.60094
ROOT
ATOM      1  CA  ILE B   2      74.721  46.885  14.088  1.00 64.17 LIG 0.18  C 
ENDROOT
BRANCH 1 2
ATOM      2  N   ILE B   2      74.774  47.188  12.663  1.00 64.56 LIG-0.35  N 
ATOM      3  C   ALA B   1      73.886  47.990  12.083  1.00 64.53 LIG 0.25  C 
ATOM      4 O    ALA B   1      72.971  48.536  12.703  1.00 64.21 LIG-0.27  OA
ATOM      5 H    ILE B   2      75.420  46.806  12.243  1.00 64.56 LIG 0.16  HD
BRANCH 3 6
ATOM      6  CA  ALA B   1      74.062  48.213  10.581  1.00 64.34 LIG 0.27  C 
ATOM      7  CB  ALA B   1      73.876  49.689  10.244  1.00 65.15 LIG 0.05  C 
BRANCH 6 8
ATOM      8  N   ALA B   1      73.108  47.387   9.786  1.00 63.44 LIG-0.07  N 
ATOM      9 H2   ALA B   1      73.429  46.561   9.702  1.00 63.44 LIG 0.28  HD
ATOM     10 H3   ALA B   1      72.322  47.359  10.201  1.00 63.44 LIG 0.28  HD
ATOM     11 H1   ALA B   1      73.004  47.748   8.979  1.00 63.44 LIG 0.28  HD
ENDBRANCH 6 8
ENDBRANCH 3 6
ENDBRANCH 1 2
BRANCH 1 12
ATOM     12  C   ILE B   2      75.523  47.895  14.902  1.00 63.93 LIG 0.24  C 
ATOM     13  N   HIS B   3      74.858  48.541  15.854  1.00 63.34 LIG-0.34  N 
ATOM     14 H    HIS B   3      74.023  48.421  16.026  1.00 63.34 LIG 0.16  HD
ATOM     15 O    ILE B   2      76.719  48.084  14.675  1.00 63.64 LIG-0.27  OA
BRANCH 13 16
ATOM     16  CA  HIS B   3      75.516  49.528  16.699  1.00 63.18 LIG 0.19  C 
BRANCH 16 17
ATOM     17  CB  HIS B   3      76.894  49.021  17.133  1.00 62.24 LIG 0.10  C 
BRANCH 17 18
ATOM     18  CG  HIS B   3      77.247  49.360  18.549  1.00 63.21 LIG 0.06  A 
ATOM     19  CD2 HIS B   3      76.839  48.824  19.724  1.00 62.69 LIG 0.14  A 
ATOM     20 NE2  HIS B   3      77.474  49.514  20.727  1.00 63.05 LIG-0.25  NA
ATOM     21  CE1 HIS B   3      78.246  50.441  20.189  1.00 63.79 LIG 0.23  A 
ATOM     22 ND1  HIS B   3      78.128  50.369  18.875  1.00 63.44 LIG-0.24  NA
ENDBRANCH 17 18
ENDBRANCH 16 17
BRANCH 16 23
ATOM     23  C   HIS B   3      75.668  50.842  15.944  1.00 63.55 LIG 0.20  C 
ATOM     24 OXT  HIS B   3      76.231  50.821  14.831  1.00 62.89 LIG-0.65  OA
ATOM     25 O    HIS B   3      75.215  51.880  16.474  1.00 64.85 LIG-0.65  OA
ENDBRANCH 16 23
ENDBRANCH 13 16
ENDBRANCH 1 12
BRANCH 1 26
ATOM     26  CB  ILE B   2      75.270  45.474  14.375  1.00 64.73 LIG 0.01  C 
ATOM     27  CG2 ILE B   2      75.238  45.194  15.875  1.00 64.62 LIG 0.01  C 
BRANCH 26 28
ATOM     28  CG1 ILE B   2      74.447  44.435  13.611  1.00 64.82 LIG 0.00  C 
ATOM     29  CD1 ILE B   2      74.243  43.138  14.360  1.00 66.82 LIG 0.01  C 
ENDBRANCH 26 28
ENDBRANCH 1 26
TORSDOF 10
ENDMDL
MODEL 49
USER: ADFR SOLUTION from run 84
USER: SCORE 10.855392 LL:  -1.804 LR:  -9.261 RR:   0.000 FEB:  -6.278
USER: RMSD 5.954121
USER: SEED 83
USER: STATUS no improvement in best in 27 clusters for 5 generations
USER: GENES 12
USER: genes 0 Translation |==|  0.53503 0.37243 0.44191
USER: genes 1 Rotation |==|  0.92012 0.35668 0.51626 0.72954
USER: genes 2 Torsion [C]-CA--N-[C] |==|  0.58344
USER: genes 3 Torsion [N]-C--CA-[N] |==|  0.37172
USER: genes 4 Torsion [C]-CA--N-[H2] |==|  0.68088
USER: genes 5 Torsion [N]-CA--C-[N] |==|  0.39836
USER: genes 6 Torsion [C]-N--CA-[CB] |==|  0.13664
USER: genes 7 Torsion [N]-CA--CB-[CG] |==|  0.67828
USER: genes 8 Torsion [CA]-CB--CG-[CD2] |==|  0.38440
USER: genes 9 Torsion [N]-CA--C-[OXT] |==|  0.12943
USER: genes 10 Torsion [N]-CA--CB-[CG2] |==|  0.78475
USER: genes 11 Torsion [CA]-CB--CG1-[CD1] |==|  0.23120
ROOT
ATOM      1  CA  ILE B   2      76.359  44.169  15.935  1.00 64.17 LIG 0.18  C 
ENDROOT
BRANCH 1 2
ATOM      2  N   ILE B   2      75.404  44.739  16.877  1.00 64.56 LIG-0.35  N 
ATOM      3  C   ALA B   1      75.543  44.591  18.192  1.00 64.53 LIG 0.25  C 
ATOM      4 O    ALA B   1      76.482  43.977  18.701  1.00 64.21 LIG-0.27  OA
ATOM      5 H    ILE B   2      74.757  45.170  16.509  1.00 64.56 LIG 0.16  HD
BRANCH 3 6
ATOM      6  CA  ALA B   1      74.462  45.239  19.058  1.00 64.34 LIG 0.27  C 
ATOM      7  CB  ALA B   1      74.995  46.520  19.690  1.00 65.15 LIG 0.05  C 
BRANCH 6 8
ATOM      8  N   ALA B   1      73.980  44.311  20.122  1.00 63.44 LIG-0.07  N 
ATOM      9 H2   ALA B   1      73.125  44.112  19.977  1.00 63.44 LIG 0.28  HD
ATOM     10 H3   ALA B   1      74.465  43.565  20.108  1.00 63.44 LIG 0.28  HD
ATOM     11 H1   ALA B   1      74.063  44.703  20.917  1.00 63.44 LIG 0.28  HD
ENDBRANCH 6 8
ENDBRANCH 3 6
ENDBRANCH 1 2
BRANCH 1 12
ATOM     12  C   ILE B   2      76.457  45.008  14.665  1.00 63.93 LIG 0.24  C 
ATOM     13  N   HIS B   3      77.665  45.106  14.119  1.00 63.34 LIG-0.34  N 
ATOM     14 H    HIS B   3      78.371  44.733  14.438  1.00 63.34 LIG 0.16  HD
ATOM     15 O    ILE B   2      75.459  45.552  14.188  1.00 63.64 LIG-0.27  OA
BRANCH 13 16
ATOM     16  CA  HIS B   3      77.883  45.878  12.903  1.00 63.18 LIG 0.19  C 
BRANCH 16 17
ATOM     17  CB  HIS B   3      77.248  47.265  13.032  1.00 62.24 LIG 0.10  C 
BRANCH 17 18
ATOM     18  CG  HIS B   3      76.131  47.513  12.067  1.00 63.21 LIG 0.06  A 
ATOM     19  CD2 HIS B   3      74.928  48.116  12.229  1.00 62.69 LIG 0.14  A 
ATOM     20 NE2  HIS B   3      74.286  48.074  11.016  1.00 63.05 LIG-0.25  NA
ATOM     21  CE1 HIS B   3      75.066  47.468  10.138  1.00 63.79 LIG 0.23  A 
ATOM     22 ND1  HIS B   3      76.186  47.120  10.747  1.00 63.44 LIG-0.24  NA
ENDBRANCH 17 18
ENDBRANCH 16 17
BRANCH 16 23
ATOM     23  C   HIS B   3      79.376  46.019  12.638  1.00 63.55 LIG 0.20  C 
ATOM     24 OXT  HIS B   3      80.090  45.000  12.729  1.00 62.89 LIG-0.65  OA
ATOM     25 O    HIS B   3      79.816  47.150  12.336  1.00 64.85 LIG-0.65  OA
ENDBRANCH 16 23
ENDBRANCH 13 16
ENDBRANCH 1 12
BRANCH 1 26
ATOM     26  CB  ILE B   2      75.963  42.731  15.547  1.00 64.73 LIG 0.01  C 
ATOM     27  CG2 ILE B   2      76.336  41.764  16.667  1.00 64.62 LIG 0.01  C 
BRANCH 26 28
ATOM     28  CG1 ILE B   2      74.462  42.671  15.255  1.00 64.82 LIG 0.00  C 
ATOM     29  CD1 ILE B   2      74.090  43.094  13.852  1.00 66.82 LIG 0.01  C 
ENDBRANCH 26 28
ENDBRANCH 1 26
TORSDOF 10
ENDMDL
MODEL 50
USER: ADFR SOLUTION from run 74
USER: SCORE 10.917080 LL:  -2.231 LR:  -9.253 RR:   0.000 FEB:  -6.270
USER: RMSD 5.873970
USER: SEED 73
USER: STATUS no improvement in best in 16 clusters for 5 generations
USER: GENES 12
USER: genes 0 Translation |==|  0.42827 0.37795 0.52299
USER: genes 1 Rotation |==|  0.37489 0.68721 0.11266 0.72196
USER: genes 2 Torsion [C]-CA--N-[C] |==|  0.63534
USER: genes 3 Torsion [N]-C--CA-[N] |==|  0.50709
USER: genes 4 Torsion [C]-CA--N-[H2] |==|  0.20779
USER: genes 5 Torsion [N]-CA--C-[N] |==|  0.80557
USER: genes 6 Torsion [C]-N--CA-[CB] |==|  0.26470
USER: genes 7 Torsion [N]-CA--CB-[CG] |==|  0.84969
USER: genes 8 Torsion [CA]-CB--CG-[CD2] |==|  0.36509
USER: genes 9 Torsion [N]-CA--C-[OXT] |==|  0.16988
USER: genes 10 Torsion [N]-CA--CB-[CG2] |==|  0.51468
USER: genes 11 Torsion [CA]-CB--CG1-[CD1] |==|  0.84365
ROOT
ATOM      1  CA  ILE B   2      75.158  44.273  17.212  1.00 64.17 LIG 0.18  C 
ENDROOT
BRANCH 1 2
ATOM      2  N   ILE B   2      75.430  44.903  15.927  1.00 64.56 LIG-0.35  N 
ATOM      3  C   ALA B   1      74.841  44.495  14.807  1.00 64.53 LIG 0.25  C 
ATOM      4 O    ALA B   1      74.026  43.571  14.777  1.00 64.21 LIG-0.27  OA
ATOM      5 H    ILE B   2      75.995  45.550  15.962  1.00 64.56 LIG 0.16  HD
BRANCH 3 6
ATOM      6  CA  ALA B   1      75.226  45.247  13.532  1.00 64.34 LIG 0.27  C 
ATOM      7  CB  ALA B   1      74.987  46.742  13.713  1.00 65.15 LIG 0.05  C 
BRANCH 6 8
ATOM      8  N   ALA B   1      74.465  44.751  12.349  1.00 63.44 LIG-0.07  N 
ATOM      9 H2   ALA B   1      73.628  45.051  12.387  1.00 63.44 LIG 0.28  HD
ATOM     10 H3   ALA B   1      74.852  45.044  11.603  1.00 63.44 LIG 0.28  HD
ATOM     11 H1   ALA B   1      74.461  43.861  12.350  1.00 63.44 LIG 0.28  HD
ENDBRANCH 6 8
ENDBRANCH 3 6
ENDBRANCH 1 2
BRANCH 1 12
ATOM     12  C   ILE B   2      74.853  45.309  18.289  1.00 63.93 LIG 0.24  C 
ATOM     13  N   HIS B   3      75.874  46.060  18.686  1.00 63.34 LIG-0.34  N 
ATOM     14 H    HIS B   3      76.674  45.991  18.376  1.00 63.34 LIG 0.16  HD
ATOM     15 O    ILE B   2      73.715  45.427  18.748  1.00 63.64 LIG-0.27  OA
BRANCH 13 16
ATOM     16  CA  HIS B   3      75.705  47.086  19.706  1.00 63.18 LIG 0.19  C 
BRANCH 16 17
ATOM     17  CB  HIS B   3      76.082  46.533  21.083  1.00 62.24 LIG 0.10  C 
BRANCH 17 18
ATOM     18  CG  HIS B   3      75.355  45.277  21.452  1.00 63.21 LIG 0.06  A 
ATOM     19  CD2 HIS B   3      75.804  44.097  21.943  1.00 62.69 LIG 0.14  A 
ATOM     20 NE2  HIS B   3      74.710  43.281  22.103  1.00 63.05 LIG-0.25  NA
ATOM     21  CE1 HIS B   3      73.627  43.936  21.725  1.00 63.79 LIG 0.23  A 
ATOM     22 ND1  HIS B   3      73.988  45.143  21.328  1.00 63.44 LIG-0.24  NA
ENDBRANCH 17 18
ENDBRANCH 16 17
BRANCH 16 23
ATOM     23  C   HIS B   3      76.578  48.292  19.381  1.00 63.55 LIG 0.20  C 
ATOM     24 OXT  HIS B   3      76.369  48.899  18.312  1.00 62.89 LIG-0.65  OA
ATOM     25 O    HIS B   3      77.460  48.619  20.205  1.00 64.85 LIG-0.65  OA
ENDBRANCH 16 23
ENDBRANCH 13 16
ENDBRANCH 1 12
BRANCH 1 26
ATOM     26  CB  ILE B   2      76.356  43.420  17.675  1.00 64.73 LIG 0.01  C 
ATOM     27  CG2 ILE B   2      76.000  42.667  18.954  1.00 64.62 LIG 0.01  C 
BRANCH 26 28
ATOM     28  CG1 ILE B   2      76.755  42.446  16.564  1.00 64.82 LIG 0.00  C 
ATOM     29  CD1 ILE B   2      75.632  41.547  16.101  1.00 66.82 LIG 0.01  C 
ENDBRANCH 26 28
ENDBRANCH 1 26
TORSDOF 10
ENDMDL
MODEL 51
USER: ADFR SOLUTION from run 90
USER: SCORE 11.521741 LL:  -2.473 LR:  -9.208 RR:   0.000 FEB:  -6.225
USER: RMSD 1.705338
USER: SEED 89
USER: STATUS no improvement in best in 17 clusters for 5 generations
USER: GENES 12
USER: genes 0 Translation |==|  0.46763 0.50900 0.54185
USER: genes 1 Rotation |==|  0.42583 0.46075 0.56028 0.98921
USER: genes 2 Torsion [C]-CA--N-[C] |==|  0.72790
USER: genes 3 Torsion [N]-C--CA-[N] |==|  0.23111
USER: genes 4 Torsion [C]-CA--N-[H2] |==|  0.21214
USER: genes 5 Torsion [N]-CA--C-[N] |==|  0.31487
USER: genes 6 Torsion [C]-N--CA-[CB] |==|  0.31733
USER: genes 7 Torsion [N]-CA--CB-[CG] |==|  0.92060
USER: genes 8 Torsion [CA]-CB--CG-[CD2] |==|  0.22784
USER: genes 9 Torsion [N]-CA--C-[OXT] |==|  0.05317
USER: genes 10 Torsion [N]-CA--CB-[CG2] |==|  0.44019
USER: genes 11 Torsion [CA]-CB--CG1-[CD1] |==|  0.24957
ROOT
ATOM      1  CA  ILE B   2      75.601  46.730  17.509  1.00 64.17 LIG 0.18  C 
ENDROOT
BRANCH 1 2
ATOM      2  N   ILE B   2      74.824  47.211  16.374  1.00 64.56 LIG-0.35  N 
ATOM      3  C   ALA B   1      75.301  47.176  15.133  1.00 64.53 LIG 0.25  C 
ATOM      4 O    ALA B   1      76.417  46.733  14.856  1.00 64.21 LIG-0.27  OA
ATOM      5 H    ILE B   2      74.045  47.512  16.579  1.00 64.56 LIG 0.16  HD
BRANCH 3 6
ATOM      6  CA  ALA B   1      74.377  47.718  14.042  1.00 64.34 LIG 0.27  C 
ATOM      7  CB  ALA B   1      74.718  47.079  12.700  1.00 65.15 LIG 0.05  C 
BRANCH 6 8
ATOM      8  N   ALA B   1      74.465  49.203  13.933  1.00 63.44 LIG-0.07  N 
ATOM      9 H2   ALA B   1      75.216  49.426  13.511  1.00 63.44 LIG 0.28  HD
ATOM     10 H3   ALA B   1      73.766  49.509  13.475  1.00 63.44 LIG 0.28  HD
ATOM     11 H1   ALA B   1      74.465  49.561  14.748  1.00 63.44 LIG 0.28  HD
ENDBRANCH 6 8
ENDBRANCH 3 6
ENDBRANCH 1 2
BRANCH 1 12
ATOM     12  C   ILE B   2      75.207  45.306  17.891  1.00 63.93 LIG 0.24  C 
ATOM     13  N   HIS B   3      76.133  44.372  17.702  1.00 63.34 LIG-0.34  N 
ATOM     14 H    HIS B   3      76.917  44.526  17.384  1.00 63.34 LIG 0.16  HD
ATOM     15 O    ILE B   2      74.090  45.061  18.350  1.00 63.64 LIG-0.27  OA
BRANCH 13 16
ATOM     16  CA  HIS B   3      75.875  42.977  18.033  1.00 63.18 LIG 0.19  C 
BRANCH 16 17
ATOM     17  CB  HIS B   3      75.871  42.122  16.763  1.00 62.24 LIG 0.10  C 
BRANCH 17 18
ATOM     18  CG  HIS B   3      75.452  42.865  15.532  1.00 63.21 LIG 0.06  A 
ATOM     19  CD2 HIS B   3      76.146  43.680  14.701  1.00 62.69 LIG 0.14  A 
ATOM     20 NE2  HIS B   3      75.276  44.099  13.724  1.00 63.05 LIG-0.25  NA
ATOM     21  CE1 HIS B   3      74.090  43.561  13.945  1.00 63.79 LIG 0.23  A 
ATOM     22 ND1  HIS B   3      74.169  42.811  15.030  1.00 63.44 LIG-0.24  NA
ENDBRANCH 17 18
ENDBRANCH 16 17
BRANCH 16 23
ATOM     23  C   HIS B   3      76.940  42.464  18.994  1.00 63.55 LIG 0.20  C 
ATOM     24 OXT  HIS B   3      77.609  43.301  19.632  1.00 62.89 LIG-0.65  OA
ATOM     25 O    HIS B   3      77.090  41.227  19.100  1.00 64.85 LIG-0.65  OA
ENDBRANCH 16 23
ENDBRANCH 13 16
ENDBRANCH 1 12
BRANCH 1 26
ATOM     26  CB  ILE B   2      75.408  47.641  18.737  1.00 64.73 LIG 0.01  C 
ATOM     27  CG2 ILE B   2      75.760  46.882  20.014  1.00 64.62 LIG 0.01  C 
BRANCH 26 28
ATOM     28  CG1 ILE B   2      76.276  48.892  18.592  1.00 64.82 LIG 0.00  C 
ATOM     29  CD1 ILE B   2      75.590  50.040  17.888  1.00 66.82 LIG 0.01  C 
ENDBRANCH 26 28
ENDBRANCH 1 26
TORSDOF 10
ENDMDL
MODEL 52
USER: ADFR SOLUTION from run 109
USER: SCORE 10.708263 LL:  -2.373 LR:  -9.185 RR:   0.000 FEB:  -6.202
USER: RMSD 6.758608
USER: SEED 108
USER: STATUS no improvement in best in 27 clusters for 5 generations
USER: GENES 12
USER: genes 0 Translation |==|  0.57749 0.43932 0.30557
USER: genes 1 Rotation |==|  0.37026 0.81239 0.86512 0.54759
USER: genes 2 Torsion [C]-CA--N-[C] |==|  0.61451
USER: genes 3 Torsion [N]-C--CA-[N] |==|  0.07781
USER: genes 4 Torsion [C]-CA--N-[H2] |==|  0.90833
USER: genes 5 Torsion [N]-CA--C-[N] |==|  0.63967
USER: genes 6 Torsion [C]-N--CA-[CB] |==|  0.28451
USER: genes 7 Torsion [N]-CA--CB-[CG] |==|  0.00849
USER: genes 8 Torsion [CA]-CB--CG-[CD2] |==|  0.21678
USER: genes 9 Torsion [N]-CA--C-[OXT] |==|  0.98720
USER: genes 10 Torsion [N]-CA--CB-[CG2] |==|  0.65180
USER: genes 11 Torsion [CA]-CB--CG1-[CD1] |==|  0.70248
ROOT
ATOM      1  CA  ILE B   2      76.837  45.423  13.788  1.00 64.17 LIG 0.18  C 
ENDROOT
BRANCH 1 2
ATOM      2  N   ILE B   2      77.236  44.606  14.926  1.00 64.56 LIG-0.35  N 
ATOM      3  C   ALA B   1      76.558  43.518  15.281  1.00 64.53 LIG 0.25  C 
ATOM      4 O    ALA B   1      75.560  43.124  14.675  1.00 64.21 LIG-0.27  OA
ATOM      5 H    ILE B   2      77.937  44.888  15.337  1.00 64.56 LIG 0.16  HD
BRANCH 3 6
ATOM      6  CA  ALA B   1      77.090  42.761  16.498  1.00 64.34 LIG 0.27  C 
ATOM      7  CB  ALA B   1      75.945  42.064  17.224  1.00 65.15 LIG 0.05  C 
BRANCH 6 8
ATOM      8  N   ALA B   1      77.809  43.668  17.440  1.00 63.44 LIG-0.07  N 
ATOM      9 H2   ALA B   1      78.215  44.312  16.979  1.00 63.44 LIG 0.28  HD
ATOM     10 H3   ALA B   1      77.226  44.030  18.006  1.00 63.44 LIG 0.28  HD
ATOM     11 H1   ALA B   1      78.415  43.202  17.896  1.00 63.44 LIG 0.28  HD
ENDBRANCH 6 8
ENDBRANCH 3 6
ENDBRANCH 1 2
BRANCH 1 12
ATOM     12  C   ILE B   2      78.045  45.873  12.972  1.00 63.93 LIG 0.24  C 
ATOM     13  N   HIS B   3      78.117  47.170  12.697  1.00 63.34 LIG-0.34  N 
ATOM     14 H    HIS B   3      77.533  47.750  12.948  1.00 63.34 LIG 0.16  HD
ATOM     15 O    ILE B   2      78.895  45.061  12.603  1.00 63.64 LIG-0.27  OA
BRANCH 13 16
ATOM     16  CA  HIS B   3      79.225  47.719  11.928  1.00 63.18 LIG 0.19  C 
BRANCH 16 17
ATOM     17  CB  HIS B   3      78.789  47.990  10.486  1.00 62.24 LIG 0.10  C 
BRANCH 17 18
ATOM     18  CG  HIS B   3      77.342  47.705  10.226  1.00 63.21 LIG 0.06  A 
ATOM     19  CD2 HIS B   3      76.226  48.415  10.517  1.00 62.69 LIG 0.14  A 
ATOM     20 NE2  HIS B   3      75.153  47.693  10.055  1.00 63.05 LIG-0.25  NA
ATOM     21  CE1 HIS B   3      75.593  46.579   9.498  1.00 63.79 LIG 0.23  A 
ATOM     22 ND1  HIS B   3      76.911  46.561   9.587  1.00 63.44 LIG-0.24  NA
ENDBRANCH 17 18
ENDBRANCH 16 17
BRANCH 16 23
ATOM     23  C   HIS B   3      79.713  49.013  12.568  1.00 63.55 LIG 0.20  C 
ATOM     24 OXT  HIS B   3      79.085  49.458  13.549  1.00 62.89 LIG-0.65  OA
ATOM     25 O    HIS B   3      80.724  49.564  12.082  1.00 64.85 LIG-0.65  OA
ENDBRANCH 16 23
ENDBRANCH 13 16
ENDBRANCH 1 12
BRANCH 1 26
ATOM     26  CB  ILE B   2      76.061  46.673  14.249  1.00 64.73 LIG 0.01  C 
ATOM     27  CG2 ILE B   2      74.710  46.743  13.541  1.00 64.62 LIG 0.01  C 
BRANCH 26 28
ATOM     28  CG1 ILE B   2      75.877  46.634  15.767  1.00 64.82 LIG 0.00  C 
ATOM     29  CD1 ILE B   2      74.465  46.322  16.209  1.00 66.82 LIG 0.01  C 
ENDBRANCH 26 28
ENDBRANCH 1 26
TORSDOF 10
ENDMDL
MODEL 53
USER: ADFR SOLUTION from run 43
USER: SCORE 11.237207 LL:  -2.163 LR:  -9.165 RR:   0.000 FEB:  -6.182
USER: RMSD 6.248869
USER: SEED 42
USER: STATUS no improvement in best in 13 clusters for 5 generations
USER: GENES 12
USER: genes 0 Translation |==|  0.58410 0.44982 0.38748
USER: genes 1 Rotation |==|  0.59986 0.79672 0.87665 0.60058
USER: genes 2 Torsion [C]-CA--N-[C] |==|  0.61866
USER: genes 3 Torsion [N]-C--CA-[N] |==|  0.39805
USER: genes 4 Torsion [C]-CA--N-[H2] |==|  0.08020
USER: genes 5 Torsion [N]-CA--C-[N] |==|  0.45556
USER: genes 6 Torsion [C]-N--CA-[CB] |==|  0.46381
USER: genes 7 Torsion [N]-CA--CB-[CG] |==|  0.95582
USER: genes 8 Torsion [CA]-CB--CG-[CD2] |==|  0.69626
USER: genes 9 Torsion [N]-CA--C-[OXT] |==|  0.22826
USER: genes 10 Torsion [N]-CA--CB-[CG2] |==|  0.30668
USER: genes 11 Torsion [CA]-CB--CG1-[CD1] |==|  0.03758
ROOT
ATOM      1  CA  ILE B   2      76.911  45.620  15.078  1.00 64.17 LIG 0.18  C 
ENDROOT
BRANCH 1 2
ATOM      2  N   ILE B   2      77.052  44.360  15.797  1.00 64.56 LIG-0.35  N 
ATOM      3  C   ALA B   1      76.032  43.806  16.447  1.00 64.53 LIG 0.25  C 
ATOM      4 O    ALA B   1      74.907  44.308  16.479  1.00 64.21 LIG-0.27  OA
ATOM      5 H    ILE B   2      77.840  44.018  15.761  1.00 64.56 LIG 0.16  HD
BRANCH 3 6
ATOM      6  CA  ALA B   1      76.328  42.486  17.160  1.00 64.34 LIG 0.27  C 
ATOM      7  CB  ALA B   1      75.965  41.311  16.259  1.00 65.15 LIG 0.05  C 
BRANCH 6 8
ATOM      8  N   ALA B   1      75.590  42.382  18.452  1.00 63.44 LIG-0.07  N 
ATOM      9 H2   ALA B   1      74.835  42.849  18.402  1.00 63.44 LIG 0.28  HD
ATOM     10 H3   ALA B   1      75.400  41.528  18.617  1.00 63.44 LIG 0.28  HD
ATOM     11 H1   ALA B   1      76.096  42.705  19.110  1.00 63.44 LIG 0.28  HD
ENDBRANCH 6 8
ENDBRANCH 3 6
ENDBRANCH 1 2
BRANCH 1 12
ATOM     12  C   ILE B   2      77.615  45.572  13.725  1.00 63.93 LIG 0.24  C 
ATOM     13  N   HIS B   3      77.283  46.522  12.858  1.00 63.34 LIG-0.34  N 
ATOM     14 H    HIS B   3      76.708  47.141  13.016  1.00 63.34 LIG 0.16  HD
ATOM     15 O    ILE B   2      78.444  44.695  13.475  1.00 63.64 LIG-0.27  OA
BRANCH 13 16
ATOM     16  CA  HIS B   3      77.890  46.581  11.535  1.00 63.18 LIG 0.19  C 
BRANCH 16 17
ATOM     17  CB  HIS B   3      77.114  47.548  10.637  1.00 62.24 LIG 0.10  C 
BRANCH 17 18
ATOM     18  CG  HIS B   3      75.754  47.899  11.156  1.00 63.21 LIG 0.06  A 
ATOM     19  CD2 HIS B   3      74.517  47.562  10.719  1.00 62.69 LIG 0.14  A 
ATOM     20 NE2  HIS B   3      73.612  48.157  11.564  1.00 63.05 LIG-0.25  NA
ATOM     21  CE1 HIS B   3      74.269  48.836  12.488  1.00 63.79 LIG 0.23  A 
ATOM     22 ND1  HIS B   3      75.564  48.697  12.265  1.00 63.44 LIG-0.24  NA
ENDBRANCH 17 18
ENDBRANCH 16 17
BRANCH 16 23
ATOM     23  C   HIS B   3      79.340  47.037  11.648  1.00 63.55 LIG 0.20  C 
ATOM     24 OXT  HIS B   3      80.204  46.186  11.940  1.00 62.89 LIG-0.65  OA
ATOM     25 O    HIS B   3      79.595  48.243  11.438  1.00 64.85 LIG-0.65  OA
ENDBRANCH 16 23
ENDBRANCH 13 16
ENDBRANCH 1 12
BRANCH 1 26
ATOM     26  CB  ILE B   2      77.492  46.792  15.895  1.00 64.73 LIG 0.01  C 
ATOM     27  CG2 ILE B   2      78.764  47.313  15.231  1.00 64.62 LIG 0.01  C 
BRANCH 26 28
ATOM     28  CG1 ILE B   2      76.448  47.903  16.015  1.00 64.82 LIG 0.00  C 
ATOM     29  CD1 ILE B   2      75.051  47.482  15.618  1.00 66.82 LIG 0.01  C 
ENDBRANCH 26 28
ENDBRANCH 1 26
TORSDOF 10
ENDMDL
MODEL 54
USER: ADFR SOLUTION from run 74
USER: SCORE 11.472178 LL:  -2.333 LR:  -9.145 RR:   0.000 FEB:  -6.162
USER: RMSD 5.768503
USER: SEED 73
USER: STATUS no improvement in best in 16 clusters for 5 generations
USER: GENES 12
USER: genes 0 Translation |==|  0.54510 0.45046 0.38668
USER: genes 1 Rotation |==|  0.79574 0.22239 0.54444 0.78895
USER: genes 2 Torsion [C]-CA--N-[C] |==|  0.80112
USER: genes 3 Torsion [N]-C--CA-[N] |==|  0.96966
USER: genes 4 Torsion [C]-CA--N-[H2] |==|  0.11954
USER: genes 5 Torsion [N]-CA--C-[N] |==|  0.95718
USER: genes 6 Torsion [C]-N--CA-[CB] |==|  0.42519
USER: genes 7 Torsion [N]-CA--CB-[CG] |==|  0.00236
USER: genes 8 Torsion [CA]-CB--CG-[CD2] |==|  0.77546
USER: genes 9 Torsion [N]-CA--C-[OXT] |==|  0.80410
USER: genes 10 Torsion [N]-CA--CB-[CG2] |==|  0.23640
USER: genes 11 Torsion [CA]-CB--CG1-[CD1] |==|  0.47108
ROOT
ATOM      1  CA  ILE B   2      76.472  45.632  15.065  1.00 64.17 LIG 0.18  C 
ENDROOT
BRANCH 1 2
ATOM      2  N   ILE B   2      75.891  46.945  15.316  1.00 64.56 LIG-0.35  N 
ATOM      3  C   ALA B   1      76.643  47.998  15.622  1.00 64.53 LIG 0.25  C 
ATOM      4 O    ALA B   1      77.871  47.942  15.706  1.00 64.21 LIG-0.27  OA
ATOM      5 H    ILE B   2      75.034  46.971  15.248  1.00 64.56 LIG 0.16  HD
BRANCH 3 6
ATOM      6  CA  ALA B   1      75.895  49.310  15.863  1.00 64.34 LIG 0.27  C 
ATOM      7  CB  ALA B   1      75.987  49.702  17.334  1.00 65.15 LIG 0.05  C 
BRANCH 6 8
ATOM      8  N   ALA B   1      74.465  49.213  15.452  1.00 63.44 LIG-0.07  N 
ATOM      9 H2   ALA B   1      74.130  48.435  15.725  1.00 63.44 LIG 0.28  HD
ATOM     10 H3   ALA B   1      74.005  49.880  15.819  1.00 63.44 LIG 0.28  HD
ATOM     11 H1   ALA B   1      74.407  49.266  14.565  1.00 63.44 LIG 0.28  HD
ENDBRANCH 6 8
ENDBRANCH 3 6
ENDBRANCH 1 2
BRANCH 1 12
ATOM     12  C   ILE B   2      77.217  45.597  13.734  1.00 63.93 LIG 0.24  C 
ATOM     13  N   HIS B   3      76.964  46.595  12.895  1.00 63.34 LIG-0.34  N 
ATOM     14 H    HIS B   3      76.417  47.239  13.060  1.00 63.34 LIG 0.16  HD
ATOM     15 O    ILE B   2      78.005  44.686  13.475  1.00 63.64 LIG-0.27  OA
BRANCH 13 16
ATOM     16  CA  HIS B   3      77.616  46.672  11.595  1.00 63.18 LIG 0.19  C 
BRANCH 16 17
ATOM     17  CB  HIS B   3      76.738  47.439  10.603  1.00 62.24 LIG 0.10  C 
BRANCH 17 18
ATOM     18  CG  HIS B   3      75.453  47.938  11.191  1.00 63.21 LIG 0.06  A 
ATOM     19  CD2 HIS B   3      74.274  47.312  11.421  1.00 62.69 LIG 0.14  A 
ATOM     20 NE2  HIS B   3      73.426  48.237  11.978  1.00 63.05 LIG-0.25  NA
ATOM     21  CE1 HIS B   3      74.060  49.391  12.087  1.00 63.79 LIG 0.23  A 
ATOM     22 ND1  HIS B   3      75.286  49.238  11.619  1.00 63.44 LIG-0.24  NA
ENDBRANCH 17 18
ENDBRANCH 16 17
BRANCH 16 23
ATOM     23  C   HIS B   3      78.965  47.367  11.730  1.00 63.55 LIG 0.20  C 
ATOM     24 OXT  HIS B   3      78.977  48.591  11.968  1.00 62.89 LIG-0.65  OA
ATOM     25 O    HIS B   3      79.999  46.674  11.600  1.00 64.85 LIG-0.65  OA
ENDBRANCH 16 23
ENDBRANCH 13 16
ENDBRANCH 1 12
BRANCH 1 26
ATOM     26  CB  ILE B   2      75.386  44.539  15.051  1.00 64.73 LIG 0.01  C 
ATOM     27  CG2 ILE B   2      74.757  44.443  13.664  1.00 64.62 LIG 0.01  C 
BRANCH 26 28
ATOM     28  CG1 ILE B   2      75.998  43.199  15.464  1.00 64.82 LIG 0.00  C 
ATOM     29  CD1 ILE B   2      74.981  42.111  15.725  1.00 66.82 LIG 0.01  C 
ENDBRANCH 26 28
ENDBRANCH 1 26
TORSDOF 10
ENDMDL
MODEL 55
USER: ADFR SOLUTION from run 97
USER: SCORE 10.441837 LL:  -2.423 LR:  -9.126 RR:   0.000 FEB:  -6.143
USER: RMSD 6.302526
USER: SEED 96
USER: STATUS no improvement in best in 19 clusters for 5 generations
USER: GENES 12
USER: genes 0 Translation |==|  0.57020 0.50081 0.34602
USER: genes 1 Rotation |==|  0.04900 0.38408 0.66465 0.57782
USER: genes 2 Torsion [C]-CA--N-[C] |==|  0.19464
USER: genes 3 Torsion [N]-C--CA-[N] |==|  0.06425
USER: genes 4 Torsion [C]-CA--N-[H2] |==|  0.06683
USER: genes 5 Torsion [N]-CA--C-[N] |==|  0.28710
USER: genes 6 Torsion [C]-N--CA-[CB] |==|  0.26240
USER: genes 7 Torsion [N]-CA--CB-[CG] |==|  0.89432
USER: genes 8 Torsion [CA]-CB--CG-[CD2] |==|  0.25038
USER: genes 9 Torsion [N]-CA--C-[OXT] |==|  0.36791
USER: genes 10 Torsion [N]-CA--CB-[CG2] |==|  0.43842
USER: genes 11 Torsion [CA]-CB--CG1-[CD1] |==|  0.99533
ROOT
ATOM      1  CA  ILE B   2      76.755  46.576  14.425  1.00 64.17 LIG 0.18  C 
ENDROOT
BRANCH 1 2
ATOM      2  N   ILE B   2      77.078  45.270  14.985  1.00 64.56 LIG-0.35  N 
ATOM      3  C   ALA B   1      76.173  44.298  15.065  1.00 64.53 LIG 0.25  C 
ATOM      4 O    ALA B   1      75.014  44.428  14.668  1.00 64.21 LIG-0.27  OA
ATOM      5 H    ILE B   2      77.891  45.190  15.252  1.00 64.56 LIG 0.16  HD
BRANCH 3 6
ATOM      6  CA  ALA B   1      76.653  42.983  15.679  1.00 64.34 LIG 0.27  C 
ATOM      7  CB  ALA B   1      75.525  42.332  16.472  1.00 65.15 LIG 0.05  C 
BRANCH 6 8
ATOM      8  N   ALA B   1      77.840  43.186  16.559  1.00 63.44 LIG-0.07  N 
ATOM      9 H2   ALA B   1      77.853  44.027  16.850  1.00 63.44 LIG 0.28  HD
ATOM     10 H3   ALA B   1      77.792  42.632  17.254  1.00 63.44 LIG 0.28  HD
ATOM     11 H1   ALA B   1      78.583  43.020  16.098  1.00 63.44 LIG 0.28  HD
ENDBRANCH 6 8
ENDBRANCH 3 6
ENDBRANCH 1 2
BRANCH 1 12
ATOM     12  C   ILE B   2      75.821  47.360  15.342  1.00 63.93 LIG 0.24  C 
ATOM     13  N   HIS B   3      76.380  48.330  16.057  1.00 63.34 LIG-0.34  N 
ATOM     14 H    HIS B   3      77.216  48.530  16.029  1.00 63.34 LIG 0.16  HD
ATOM     15 O    ILE B   2      74.619  47.093  15.397  1.00 63.64 LIG-0.27  OA
BRANCH 13 16
ATOM     16  CA  HIS B   3      75.590  49.150  16.966  1.00 63.18 LIG 0.19  C 
BRANCH 16 17
ATOM     17  CB  HIS B   3      75.649  48.578  18.384  1.00 62.24 LIG 0.10  C 
BRANCH 17 18
ATOM     18  CG  HIS B   3      75.632  47.081  18.437  1.00 63.21 LIG 0.06  A 
ATOM     19  CD2 HIS B   3      76.640  46.176  18.423  1.00 62.69 LIG 0.14  A 
ATOM     20 NE2  HIS B   3      76.068  44.930  18.490  1.00 63.05 LIG-0.25  NA
ATOM     21  CE1 HIS B   3      74.754  45.063  18.545  1.00 63.79 LIG 0.23  A 
ATOM     22 ND1  HIS B   3      74.465  46.351  18.514  1.00 63.44 LIG-0.24  NA
ENDBRANCH 17 18
ENDBRANCH 16 17
BRANCH 16 23
ATOM     23  C   HIS B   3      76.115  50.580  16.966  1.00 63.55 LIG 0.20  C 
ATOM     24 OXT  HIS B   3      75.292  51.510  16.852  1.00 62.89 LIG-0.65  OA
ATOM     25 O    HIS B   3      77.347  50.754  17.086  1.00 64.85 LIG-0.65  OA
ENDBRANCH 16 23
ENDBRANCH 13 16
ENDBRANCH 1 12
BRANCH 1 26
ATOM     26  CB  ILE B   2      76.086  46.436  13.043  1.00 64.73 LIG 0.01  C 
ATOM     27  CG2 ILE B   2      75.278  47.691  12.722  1.00 64.62 LIG 0.01  C 
BRANCH 26 28
ATOM     28  CG1 ILE B   2      77.154  46.189  11.976  1.00 64.82 LIG 0.00  C 
ATOM     29  CD1 ILE B   2      78.568  46.184  12.510  1.00 66.82 LIG 0.01  C 
ENDBRANCH 26 28
ENDBRANCH 1 26
TORSDOF 10
ENDMDL
MODEL 56
USER: ADFR SOLUTION from run 171
USER: SCORE 11.066903 LL:  -2.097 LR:  -9.120 RR:   0.000 FEB:  -6.137
USER: RMSD 4.953030
USER: SEED 170
USER: STATUS no improvement in best in 22 clusters for 5 generations
USER: GENES 12
USER: genes 0 Translation |==|  0.45603 0.58642 0.30361
USER: genes 1 Rotation |==|  0.57556 0.36275 0.76968 0.89080
USER: genes 2 Torsion [C]-CA--N-[C] |==|  0.82775
USER: genes 3 Torsion [N]-C--CA-[N] |==|  0.82717
USER: genes 4 Torsion [C]-CA--N-[H2] |==|  0.93428
USER: genes 5 Torsion [N]-CA--C-[N] |==|  0.45540
USER: genes 6 Torsion [C]-N--CA-[CB] |==|  0.87623
USER: genes 7 Torsion [N]-CA--CB-[CG] |==|  0.84622
USER: genes 8 Torsion [CA]-CB--CG-[CD2] |==|  0.89036
USER: genes 9 Torsion [N]-CA--C-[OXT] |==|  0.66952
USER: genes 10 Torsion [N]-CA--CB-[CG2] |==|  0.23790
USER: genes 11 Torsion [CA]-CB--CG1-[CD1] |==|  0.13735
ROOT
ATOM      1  CA  ILE B   2      75.470  48.181  13.757  1.00 64.17 LIG 0.18  C 
ENDROOT
BRANCH 1 2
ATOM      2  N   ILE B   2      74.589  48.389  12.615  1.00 64.56 LIG-0.35  N 
ATOM      3  C   ALA B   1      75.048  48.827  11.446  1.00 64.53 LIG 0.25  C 
ATOM      4 O    ALA B   1      76.238  49.077  11.244  1.00 64.21 LIG-0.27  OA
ATOM      5 H    ILE B   2      73.763  48.206  12.767  1.00 64.56 LIG 0.16  HD
BRANCH 3 6
ATOM      6  CA  ALA B   1      74.008  49.003  10.339  1.00 64.34 LIG 0.27  C 
ATOM      7  CB  ALA B   1      72.951  50.014  10.769  1.00 65.15 LIG 0.05  C 
BRANCH 6 8
ATOM      8  N   ALA B   1      73.357  47.709   9.983  1.00 63.44 LIG-0.07  N 
ATOM      9 H2   ALA B   1      73.895  47.035  10.207  1.00 63.44 LIG 0.28  HD
ATOM     10 H3   ALA B   1      72.588  47.632  10.424  1.00 63.44 LIG 0.28  HD
ATOM     11 H1   ALA B   1      73.201  47.686   9.107  1.00 63.44 LIG 0.28  HD
ENDBRANCH 6 8
ENDBRANCH 3 6
ENDBRANCH 1 2
BRANCH 1 12
ATOM     12  C   ILE B   2      76.524  47.118  13.462  1.00 63.93 LIG 0.24  C 
ATOM     13  N   HIS B   3      77.565  47.081  14.286  1.00 63.34 LIG-0.34  N 
ATOM     14 H    HIS B   3      77.671  47.611  14.955  1.00 63.34 LIG 0.16  HD
ATOM     15 O    ILE B   2      76.394  46.347  12.510  1.00 63.64 LIG-0.27  OA
BRANCH 13 16
ATOM     16  CA  HIS B   3      78.634  46.107  14.108  1.00 63.18 LIG 0.19  C 
BRANCH 16 17
ATOM     17  CB  HIS B   3      78.049  44.722  13.818  1.00 62.24 LIG 0.10  C 
BRANCH 17 18
ATOM     18  CG  HIS B   3      77.079  44.245  14.854  1.00 63.21 LIG 0.06  A 
ATOM     19  CD2 HIS B   3      77.090  44.353  16.205  1.00 62.69 LIG 0.14  A 
ATOM     20 NE2  HIS B   3      75.955  43.736  16.670  1.00 63.05 LIG-0.25  NA
ATOM     21  CE1 HIS B   3      75.269  43.266  15.643  1.00 63.79 LIG 0.23  A 
ATOM     22 ND1  HIS B   3      75.926  43.560  14.535  1.00 63.44 LIG-0.24  NA
ENDBRANCH 17 18
ENDBRANCH 16 17
BRANCH 16 23
ATOM     23  C   HIS B   3      79.539  46.533  12.959  1.00 63.55 LIG 0.20  C 
ATOM     24 OXT  HIS B   3      79.640  45.773  11.975  1.00 62.89 LIG-0.65  OA
ATOM     25 O    HIS B   3      80.136  47.628  13.055  1.00 64.85 LIG-0.65  OA
ENDBRANCH 16 23
ENDBRANCH 13 16
ENDBRANCH 1 12
BRANCH 1 26
ATOM     26  CB  ILE B   2      74.670  47.751  15.002  1.00 64.73 LIG 0.01  C 
ATOM     27  CG2 ILE B   2      74.465  46.238  14.996  1.00 64.62 LIG 0.01  C 
BRANCH 26 28
ATOM     28  CG1 ILE B   2      75.408  48.193  16.267  1.00 64.82 LIG 0.00  C 
ATOM     29  CD1 ILE B   2      75.837  49.643  16.254  1.00 66.82 LIG 0.01  C 
ENDBRANCH 26 28
ENDBRANCH 1 26
TORSDOF 10
ENDMDL
MODEL 57
USER: ADFR SOLUTION from run 25
USER: SCORE 11.159379 LL:  -2.096 LR:  -9.120 RR:   0.000 FEB:  -6.137
USER: RMSD 5.807851
USER: SEED 24
USER: STATUS no improvement in best in 19 clusters for 5 generations
USER: GENES 12
USER: genes 0 Translation |==|  0.56747 0.35599 0.42829
USER: genes 1 Rotation |==|  0.76938 0.22514 0.30113 0.74967
USER: genes 2 Torsion [C]-CA--N-[C] |==|  0.16102
USER: genes 3 Torsion [N]-C--CA-[N] |==|  0.05095
USER: genes 4 Torsion [C]-CA--N-[H2] |==|  0.68226
USER: genes 5 Torsion [N]-CA--C-[N] |==|  0.11869
USER: genes 6 Torsion [C]-N--CA-[CB] |==|  0.17592
USER: genes 7 Torsion [N]-CA--CB-[CG] |==|  0.36250
USER: genes 8 Torsion [CA]-CB--CG-[CD2] |==|  0.73129
USER: genes 9 Torsion [N]-CA--C-[OXT] |==|  0.88660
USER: genes 10 Torsion [N]-CA--CB-[CG2] |==|  0.56218
USER: genes 11 Torsion [CA]-CB--CG1-[CD1] |==|  0.86466
ROOT
ATOM      1  CA  ILE B   2      76.724  43.861  15.721  1.00 64.17 LIG 0.18  C 
ENDROOT
BRANCH 1 2
ATOM      2  N   ILE B   2      77.253  44.786  16.715  1.00 64.56 LIG-0.35  N 
ATOM      3  C   ALA B   1      76.802  46.033  16.822  1.00 64.53 LIG 0.25  C 
ATOM      4 O    ALA B   1      75.909  46.486  16.103  1.00 64.21 LIG-0.27  OA
ATOM      5 H    ILE B   2      77.870  44.455  17.214  1.00 64.56 LIG 0.16  HD
BRANCH 3 6
ATOM      6  CA  ALA B   1      77.453  46.891  17.907  1.00 64.34 LIG 0.27  C 
ATOM      7  CB  ALA B   1      77.652  48.315  17.399  1.00 65.15 LIG 0.05  C 
BRANCH 6 8
ATOM      8  N   ALA B   1      78.758  46.323  18.350  1.00 63.44 LIG-0.07  N 
ATOM      9 H2   ALA B   1      78.697  46.065  19.200  1.00 63.44 LIG 0.28  HD
ATOM     10 H3   ALA B   1      78.965  45.623  17.842  1.00 63.44 LIG 0.28  HD
ATOM     11 H1   ALA B   1      79.393  46.943  18.273  1.00 63.44 LIG 0.28  HD
ENDBRANCH 6 8
ENDBRANCH 3 6
ENDBRANCH 1 2
BRANCH 1 12
ATOM     12  C   ILE B   2      76.885  44.410  14.307  1.00 63.93 LIG 0.24  C 
ATOM     13  N   HIS B   3      78.049  44.987  14.031  1.00 63.34 LIG-0.34  N 
ATOM     14 H    HIS B   3      78.695  45.065  14.594  1.00 63.34 LIG 0.16  HD
ATOM     15 O    ILE B   2      75.974  44.310  13.483  1.00 63.64 LIG-0.27  OA
BRANCH 13 16
ATOM     16  CA  HIS B   3      78.321  45.547  12.714  1.00 63.18 LIG 0.19  C 
BRANCH 16 17
ATOM     17  CB  HIS B   3      77.363  46.704  12.419  1.00 62.24 LIG 0.10  C 
BRANCH 17 18
ATOM     18  CG  HIS B   3      78.044  47.946  11.932  1.00 63.21 LIG 0.06  A 
ATOM     19  CD2 HIS B   3      78.439  49.063  12.588  1.00 62.69 LIG 0.14  A 
ATOM     20 NE2  HIS B   3      79.014  49.897  11.660  1.00 63.05 LIG-0.25  NA
ATOM     21  CE1 HIS B   3      78.975  49.312  10.475  1.00 63.79 LIG 0.23  A 
ATOM     22 ND1  HIS B   3      78.395  48.133  10.611  1.00 63.44 LIG-0.24  NA
ENDBRANCH 17 18
ENDBRANCH 16 17
BRANCH 16 23
ATOM     23  C   HIS B   3      79.761  46.041  12.646  1.00 63.55 LIG 0.20  C 
ATOM     24 OXT  HIS B   3      80.226  46.638  13.638  1.00 62.89 LIG-0.65  OA
ATOM     25 O    HIS B   3      80.410  45.821  11.600  1.00 64.85 LIG-0.65  OA
ENDBRANCH 16 23
ENDBRANCH 13 16
ENDBRANCH 1 12
BRANCH 1 26
ATOM     26  CB  ILE B   2      75.230  43.574  15.971  1.00 64.73 LIG 0.01  C 
ATOM     27  CG2 ILE B   2      74.836  42.248  15.324  1.00 64.62 LIG 0.01  C 
BRANCH 26 28
ATOM     28  CG1 ILE B   2      74.956  43.547  17.476  1.00 64.82 LIG 0.00  C 
ATOM     29  CD1 ILE B   2      75.923  42.693  18.263  1.00 66.82 LIG 0.01  C 
ENDBRANCH 26 28
ENDBRANCH 1 26
TORSDOF 10
ENDMDL
MODEL 58
USER: ADFR SOLUTION from run 110
USER: SCORE 11.708822 LL:  -2.832 LR:  -9.116 RR:   0.000 FEB:  -6.133
USER: RMSD 5.898264
USER: SEED 109
USER: STATUS no improvement in best in 15 clusters for 5 generations
USER: GENES 12
USER: genes 0 Translation |==|  0.43498 0.31970 0.55901
USER: genes 1 Rotation |==|  0.41973 0.92287 0.49501 0.75439
USER: genes 2 Torsion [C]-CA--N-[C] |==|  0.18705
USER: genes 3 Torsion [N]-C--CA-[N] |==|  0.27706
USER: genes 4 Torsion [C]-CA--N-[H2] |==|  0.67185
USER: genes 5 Torsion [N]-CA--C-[N] |==|  0.03891
USER: genes 6 Torsion [C]-N--CA-[CB] |==|  0.15803
USER: genes 7 Torsion [N]-CA--CB-[CG] |==|  0.12017
USER: genes 8 Torsion [CA]-CB--CG-[CD2] |==|  0.66287
USER: genes 9 Torsion [N]-CA--C-[OXT] |==|  0.60222
USER: genes 10 Torsion [N]-CA--CB-[CG2] |==|  0.53500
USER: genes 11 Torsion [CA]-CB--CG1-[CD1] |==|  0.72743
ROOT
ATOM      1  CA  ILE B   2      75.233  43.180  17.779  1.00 64.17 LIG 0.18  C 
ENDROOT
BRANCH 1 2
ATOM      2  N   ILE B   2      74.621  44.189  18.635  1.00 64.56 LIG-0.35  N 
ATOM      3  C   ALA B   1      75.352  45.016  19.378  1.00 64.53 LIG 0.25  C 
ATOM      4 O    ALA B   1      76.584  44.995  19.388  1.00 64.21 LIG-0.27  OA
ATOM      5 H    ILE B   2      73.761  44.197  18.614  1.00 64.56 LIG 0.16  HD
BRANCH 3 6
ATOM      6  CA  ALA B   1      74.573  46.019  20.230  1.00 64.34 LIG 0.27  C 
ATOM      7  CB  ALA B   1      75.242  47.388  20.169  1.00 65.15 LIG 0.05  C 
BRANCH 6 8
ATOM      8  N   ALA B   1      74.465  45.570  21.648  1.00 63.44 LIG-0.07  N 
ATOM      9 H2   ALA B   1      73.608  45.454  21.858  1.00 63.44 LIG 0.28  HD
ATOM     10 H3   ALA B   1      74.902  44.801  21.750  1.00 63.44 LIG 0.28  HD
ATOM     11 H1   ALA B   1      74.821  46.186  22.182  1.00 63.44 LIG 0.28  HD
ENDBRANCH 6 8
ENDBRANCH 3 6
ENDBRANCH 1 2
BRANCH 1 12
ATOM     12  C   ILE B   2      75.932  42.101  18.601  1.00 63.93 LIG 0.24  C 
ATOM     13  N   HIS B   3      75.641  42.071  19.897  1.00 63.34 LIG-0.34  N 
ATOM     14 H    HIS B   3      75.097  42.615  20.283  1.00 63.34 LIG 0.16  HD
ATOM     15 O    ILE B   2      76.715  41.311  18.071  1.00 63.64 LIG-0.27  OA
BRANCH 13 16
ATOM     16  CA  HIS B   3      76.243  41.084  20.783  1.00 63.18 LIG 0.19  C 
BRANCH 16 17
ATOM     17  CB  HIS B   3      77.770  41.176  20.722  1.00 62.24 LIG 0.10  C 
BRANCH 17 18
ATOM     18  CG  HIS B   3      78.294  42.579  20.738  1.00 63.21 LIG 0.06  A 
ATOM     19  CD2 HIS B   3      79.067  43.253  19.853  1.00 62.69 LIG 0.14  A 
ATOM     20 NE2  HIS B   3      79.255  44.517  20.358  1.00 63.05 LIG-0.25  NA
ATOM     21  CE1 HIS B   3      78.618  44.617  21.511  1.00 63.79 LIG 0.23  A 
ATOM     22 ND1  HIS B   3      78.030  43.461  21.764  1.00 63.44 LIG-0.24  NA
ENDBRANCH 17 18
ENDBRANCH 16 17
BRANCH 16 23
ATOM     23  C   HIS B   3      75.771  41.313  22.213  1.00 63.55 LIG 0.20  C 
ATOM     24 OXT  HIS B   3      76.585  41.123  23.140  1.00 62.89 LIG-0.65  OA
ATOM     25 O    HIS B   3      74.591  41.686  22.391  1.00 64.85 LIG-0.65  OA
ENDBRANCH 16 23
ENDBRANCH 13 16
ENDBRANCH 1 12
BRANCH 1 26
ATOM     26  CB  ILE B   2      76.263  43.816  16.825  1.00 64.73 LIG 0.01  C 
ATOM     27  CG2 ILE B   2      76.659  42.817  15.740  1.00 64.62 LIG 0.01  C 
BRANCH 26 28
ATOM     28  CG1 ILE B   2      75.676  45.086  16.205  1.00 64.82 LIG 0.00  C 
ATOM     29  CD1 ILE B   2      75.101  44.888  14.822  1.00 66.82 LIG 0.01  C 
ENDBRANCH 26 28
ENDBRANCH 1 26
TORSDOF 10
ENDMDL
MODEL 59
USER: ADFR SOLUTION from run 22
USER: SCORE 11.086546 LL:  -1.986 LR:  -9.102 RR:   0.000 FEB:  -6.119
USER: RMSD 7.247031
USER: SEED 21
USER: STATUS no improvement in best in 21 clusters for 5 generations
USER: GENES 12
USER: genes 0 Translation |==|  0.37988 0.53980 0.34840
USER: genes 1 Rotation |==|  0.36503 0.63073 0.03665 0.49834
USER: genes 2 Torsion [C]-CA--N-[C] |==|  0.83287
USER: genes 3 Torsion [N]-C--CA-[N] |==|  0.33959
USER: genes 4 Torsion [C]-CA--N-[H2] |==|  0.28924
USER: genes 5 Torsion [N]-CA--C-[N] |==|  0.37455
USER: genes 6 Torsion [C]-N--CA-[CB] |==|  0.32563
USER: genes 7 Torsion [N]-CA--CB-[CG] |==|  0.55846
USER: genes 8 Torsion [CA]-CB--CG-[CD2] |==|  0.01175
USER: genes 9 Torsion [N]-CA--C-[OXT] |==|  0.02455
USER: genes 10 Torsion [N]-CA--CB-[CG2] |==|  0.53134
USER: genes 11 Torsion [CA]-CB--CG1-[CD1] |==|  0.30704
ROOT
ATOM      1  CA  ILE B   2      74.614  47.307  14.462  1.00 64.17 LIG 0.18  C 
ENDROOT
BRANCH 1 2
ATOM      2  N   ILE B   2      74.720  46.965  13.050  1.00 64.56 LIG-0.35  N 
ATOM      3  C   ALA B   1      74.338  47.807  12.094  1.00 64.53 LIG 0.25  C 
ATOM      4 O    ALA B   1      73.881  48.927  12.330  1.00 64.21 LIG-0.27  OA
ATOM      5 H    ILE B   2      75.046  46.184  12.898  1.00 64.56 LIG 0.16  HD
BRANCH 3 6
ATOM      6  CA  ALA B   1      74.504  47.311  10.656  1.00 64.34 LIG 0.27  C 
ATOM      7  CB  ALA B   1      75.524  48.172   9.919  1.00 65.15 LIG 0.05  C 
BRANCH 6 8
ATOM      8  N   ALA B   1      73.207  47.318   9.919  1.00 63.44 LIG-0.07  N 
ATOM      9 H2   ALA B   1      73.188  48.009   9.359  1.00 63.44 LIG 0.28  HD
ATOM     10 H3   ALA B   1      73.124  46.561   9.458  1.00 63.44 LIG 0.28  HD
ATOM     11 H1   ALA B   1      72.536  47.386  10.499  1.00 63.44 LIG 0.28  HD
ENDBRANCH 6 8
ENDBRANCH 3 6
ENDBRANCH 1 2
BRANCH 1 12
ATOM     12  C   ILE B   2      75.436  48.547  14.799  1.00 63.93 LIG 0.24  C 
ATOM     13  N   HIS B   3      74.840  49.457  15.562  1.00 63.34 LIG-0.34  N 
ATOM     14 H    HIS B   3      74.038  49.383  15.864  1.00 63.34 LIG 0.16  HD
ATOM     15 O    ILE B   2      76.588  48.675  14.379  1.00 63.64 LIG-0.27  OA
BRANCH 13 16
ATOM     16  CA  HIS B   3      75.526  50.681  15.953  1.00 63.18 LIG 0.19  C 
BRANCH 16 17
ATOM     17  CB  HIS B   3      74.798  51.902  15.386  1.00 62.24 LIG 0.10  C 
BRANCH 17 18
ATOM     18  CG  HIS B   3      75.651  53.129  15.295  1.00 63.21 LIG 0.06  A 
ATOM     19  CD2 HIS B   3      76.967  53.324  15.557  1.00 62.69 LIG 0.14  A 
ATOM     20 NE2  HIS B   3      77.239  54.647  15.309  1.00 63.05 LIG-0.25  NA
ATOM     21  CE1 HIS B   3      76.131  55.245  14.908  1.00 63.79 LIG 0.23  A 
ATOM     22 ND1  HIS B   3      75.158  54.352  14.891  1.00 63.44 LIG-0.24  NA
ENDBRANCH 17 18
ENDBRANCH 16 17
BRANCH 16 23
ATOM     23  C   HIS B   3      75.588  50.780  17.472  1.00 63.55 LIG 0.20  C 
ATOM     24 OXT  HIS B   3      75.232  49.790  18.142  1.00 62.89 LIG-0.65  OA
ATOM     25 O    HIS B   3      75.999  51.849  17.975  1.00 64.85 LIG-0.65  OA
ENDBRANCH 16 23
ENDBRANCH 13 16
ENDBRANCH 1 12
BRANCH 1 26
ATOM     26  CB  ILE B   2      75.091  46.142  15.352  1.00 64.73 LIG 0.01  C 
ATOM     27  CG2 ILE B   2      74.715  46.406  16.808  1.00 64.62 LIG 0.01  C 
BRANCH 26 28
ATOM     28  CG1 ILE B   2      74.473  44.832  14.860  1.00 64.82 LIG 0.00  C 
ATOM     29  CD1 ILE B   2      75.466  43.881  14.231  1.00 66.82 LIG 0.01  C 
ENDBRANCH 26 28
ENDBRANCH 1 26
TORSDOF 10
ENDMDL
MODEL 60
USER: ADFR SOLUTION from run 2
USER: SCORE 10.835031 LL:  -1.785 LR:  -9.091 RR:   0.000 FEB:  -6.108
USER: RMSD 3.630766
USER: SEED 54237
USER: STATUS no improvement in best in 20 clusters for 5 generations
USER: GENES 12
USER: genes 0 Translation |==|  0.48255 0.64011 0.42952
USER: genes 1 Rotation |==|  0.40488 0.48172 0.65745 0.96457
USER: genes 2 Torsion [C]-CA--N-[C] |==|  0.83479
USER: genes 3 Torsion [N]-C--CA-[N] |==|  0.12041
USER: genes 4 Torsion [C]-CA--N-[H2] |==|  0.25186
USER: genes 5 Torsion [N]-CA--C-[N] |==|  0.89366
USER: genes 6 Torsion [C]-N--CA-[CB] |==|  0.87615
USER: genes 7 Torsion [N]-CA--CB-[CG] |==|  0.52192
USER: genes 8 Torsion [CA]-CB--CG-[CD2] |==|  0.79938
USER: genes 9 Torsion [N]-CA--C-[OXT] |==|  0.25127
USER: genes 10 Torsion [N]-CA--CB-[CG2] |==|  0.42897
USER: genes 11 Torsion [CA]-CB--CG1-[CD1] |==|  0.21941
ROOT
ATOM      1  CA  ILE B   2      75.769  49.188  15.740  1.00 64.17 LIG 0.18  C 
ENDROOT
BRANCH 1 2
ATOM      2  N   ILE B   2      74.766  49.176  14.682  1.00 64.56 LIG-0.35  N 
ATOM      3  C   ALA B   1      74.907  48.428  13.592  1.00 64.53 LIG 0.25  C 
ATOM      4 O    ALA B   1      75.879  47.694  13.404  1.00 64.21 LIG-0.27  OA
ATOM      5 H    ILE B   2      74.090  49.687  14.829  1.00 64.56 LIG 0.16  HD
BRANCH 3 6
ATOM      6  CA  ALA B   1      73.778  48.518  12.564  1.00 64.34 LIG 0.27  C 
ATOM      7  CB  ALA B   1      74.223  47.907  11.241  1.00 65.15 LIG 0.05  C 
BRANCH 6 8
ATOM      8  N   ALA B   1      73.340  49.928  12.350  1.00 63.44 LIG-0.07  N 
ATOM      9 H2   ALA B   1      73.812  50.288  11.687  1.00 63.44 LIG 0.28  HD
ATOM     10 H3   ALA B   1      72.475  49.942  12.140  1.00 63.44 LIG 0.28  HD
ATOM     11 H1   ALA B   1      73.471  50.396  13.096  1.00 63.44 LIG 0.28  HD
ENDBRANCH 6 8
ENDBRANCH 3 6
ENDBRANCH 1 2
BRANCH 1 12
ATOM     12  C   ILE B   2      75.973  47.797  16.331  1.00 63.93 LIG 0.24  C 
ATOM     13  N   HIS B   3      74.881  47.053  16.471  1.00 63.34 LIG-0.34  N 
ATOM     14 H    HIS B   3      74.090  47.311  16.251  1.00 63.34 LIG 0.16  HD
ATOM     15 O    ILE B   2      77.097  47.405  16.653  1.00 63.64 LIG-0.27  OA
BRANCH 13 16
ATOM     16  CA  HIS B   3      74.950  45.706  17.021  1.00 63.18 LIG 0.19  C 
BRANCH 16 17
ATOM     17  CB  HIS B   3      76.122  44.939  16.404  1.00 62.24 LIG 0.10  C 
BRANCH 17 18
ATOM     18  CG  HIS B   3      76.158  43.488  16.772  1.00 63.21 LIG 0.06  A 
ATOM     19  CD2 HIS B   3      76.467  42.869  17.937  1.00 62.69 LIG 0.14  A 
ATOM     20 NE2  HIS B   3      76.340  41.518  17.725  1.00 63.05 LIG-0.25  NA
ATOM     21  CE1 HIS B   3      75.965  41.313  16.475  1.00 63.79 LIG 0.23  A 
ATOM     22 ND1  HIS B   3      75.848  42.485  15.878  1.00 63.44 LIG-0.24  NA
ENDBRANCH 17 18
ENDBRANCH 16 17
BRANCH 16 23
ATOM     23  C   HIS B   3      75.117  45.771  18.534  1.00 63.55 LIG 0.20  C 
ATOM     24 OXT  HIS B   3      74.090  45.781  19.241  1.00 62.89 LIG-0.65  OA
ATOM     25 O    HIS B   3      76.279  45.806  18.996  1.00 64.85 LIG-0.65  OA
ENDBRANCH 16 23
ENDBRANCH 13 16
ENDBRANCH 1 12
BRANCH 1 26
ATOM     26  CB  ILE B   2      75.365  50.152  16.874  1.00 64.73 LIG 0.01  C 
ATOM     27  CG2 ILE B   2      76.016  49.718  18.185  1.00 64.62 LIG 0.01  C 
BRANCH 26 28
ATOM     28  CG1 ILE B   2      75.778  51.579  16.508  1.00 64.82 LIG 0.00  C 
ATOM     29  CD1 ILE B   2      74.840  52.262  15.539  1.00 66.82 LIG 0.01  C 
ENDBRANCH 26 28
ENDBRANCH 1 26
TORSDOF 10
ENDMDL
MODEL 61
USER: ADFR SOLUTION from run 79
USER: SCORE 10.684150 LL:  -2.270 LR:  -9.068 RR:   0.000 FEB:  -6.085
USER: RMSD 4.392739
USER: SEED 78
USER: STATUS no improvement in best in 25 clusters for 5 generations
USER: GENES 12
USER: genes 0 Translation |==|  0.39606 0.48853 0.69309
USER: genes 1 Rotation |==|  0.66306 0.93012 0.64059 0.63656
USER: genes 2 Torsion [C]-CA--N-[C] |==|  0.21644
USER: genes 3 Torsion [N]-C--CA-[N] |==|  0.92673
USER: genes 4 Torsion [C]-CA--N-[H2] |==|  0.07352
USER: genes 5 Torsion [N]-CA--C-[N] |==|  0.85118
USER: genes 6 Torsion [C]-N--CA-[CB] |==|  0.28923
USER: genes 7 Torsion [N]-CA--CB-[CG] |==|  0.74770
USER: genes 8 Torsion [CA]-CB--CG-[CD2] |==|  0.36031
USER: genes 9 Torsion [N]-CA--C-[OXT] |==|  0.03157
USER: genes 10 Torsion [N]-CA--CB-[CG2] |==|  0.44407
USER: genes 11 Torsion [CA]-CB--CG1-[CD1] |==|  0.62528
ROOT
ATOM      1  CA  ILE B   2      74.796  46.346  19.891  1.00 64.17 LIG 0.18  C 
ENDROOT
BRANCH 1 2
ATOM      2  N   ILE B   2      75.150  46.170  21.294  1.00 64.56 LIG-0.35  N 
ATOM      3  C   ALA B   1      76.402  45.935  21.676  1.00 64.53 LIG 0.25  C 
ATOM      4 O    ALA B   1      77.342  45.859  20.883  1.00 64.21 LIG-0.27  OA
ATOM      5 H    ILE B   2      74.487  46.231  21.837  1.00 64.56 LIG 0.16  HD
BRANCH 3 6
ATOM      6  CA  ALA B   1      76.625  45.766  23.180  1.00 64.34 LIG 0.27  C 
ATOM      7  CB  ALA B   1      76.622  44.287  23.548  1.00 65.15 LIG 0.05  C 
BRANCH 6 8
ATOM      8  N   ALA B   1      75.590  46.489  23.974  1.00 63.44 LIG-0.07  N 
ATOM      9 H2   ALA B   1      74.844  46.560  23.495  1.00 63.44 LIG 0.28  HD
ATOM     10 H3   ALA B   1      75.420  46.036  24.721  1.00 63.44 LIG 0.28  HD
ATOM     11 H1   ALA B   1      75.889  47.301  24.182  1.00 63.44 LIG 0.28  HD
ENDBRANCH 6 8
ENDBRANCH 3 6
ENDBRANCH 1 2
BRANCH 1 12
ATOM     12  C   ILE B   2      74.723  45.008  19.162  1.00 63.93 LIG 0.24  C 
ATOM     13  N   HIS B   3      75.797  44.231  19.255  1.00 63.34 LIG-0.34  N 
ATOM     14 H    HIS B   3      76.508  44.440  19.692  1.00 63.34 LIG 0.16  HD
ATOM     15 O    ILE B   2      73.715  44.686  18.530  1.00 63.64 LIG-0.27  OA
BRANCH 13 16
ATOM     16  CA  HIS B   3      75.845  42.929  18.604  1.00 63.18 LIG 0.19  C 
BRANCH 16 17
ATOM     17  CB  HIS B   3      76.714  42.996  17.345  1.00 62.24 LIG 0.10  C 
BRANCH 17 18
ATOM     18  CG  HIS B   3      75.954  43.334  16.100  1.00 63.21 LIG 0.06  A 
ATOM     19  CD2 HIS B   3      76.180  44.264  15.141  1.00 62.69 LIG 0.14  A 
ATOM     20 NE2  HIS B   3      75.170  44.148  14.217  1.00 63.05 LIG-0.25  NA
ATOM     21  CE1 HIS B   3      74.353  43.180  14.594  1.00 63.79 LIG 0.23  A 
ATOM     22 ND1  HIS B   3      74.803  42.672  15.727  1.00 63.44 LIG-0.24  NA
ENDBRANCH 17 18
ENDBRANCH 16 17
BRANCH 16 23
ATOM     23  C   HIS B   3      76.409  41.888  19.563  1.00 63.55 LIG 0.20  C 
ATOM     24 OXT  HIS B   3      76.534  42.200  20.764  1.00 62.89 LIG-0.65  OA
ATOM     25 O    HIS B   3      76.715  40.767  19.100  1.00 64.85 LIG-0.65  OA
ENDBRANCH 16 23
ENDBRANCH 13 16
ENDBRANCH 1 12
BRANCH 1 26
ATOM     26  CB  ILE B   2      75.819  47.245  19.170  1.00 64.73 LIG 0.01  C 
ATOM     27  CG2 ILE B   2      75.740  47.025  17.662  1.00 64.62 LIG 0.01  C 
BRANCH 26 28
ATOM     28  CG1 ILE B   2      75.554  48.711  19.520  1.00 64.82 LIG 0.00  C 
ATOM     29  CD1 ILE B   2      75.591  49.644  18.332  1.00 66.82 LIG 0.01  C 
ENDBRANCH 26 28
ENDBRANCH 1 26
TORSDOF 10
ENDMDL
MODEL 62
USER: ADFR SOLUTION from run 123
USER: SCORE 11.211868 LL:  -2.366 LR:  -9.060 RR:   0.000 FEB:  -6.077
USER: RMSD 6.849890
USER: SEED 122
USER: STATUS no improvement in best in 22 clusters for 5 generations
USER: GENES 12
USER: genes 0 Translation |==|  0.41348 0.55653 0.35889
USER: genes 1 Rotation |==|  0.36403 0.63049 0.03696 0.50867
USER: genes 2 Torsion [C]-CA--N-[C] |==|  0.74445
USER: genes 3 Torsion [N]-C--CA-[N] |==|  0.43937
USER: genes 4 Torsion [C]-CA--N-[H2] |==|  0.67251
USER: genes 5 Torsion [N]-CA--C-[N] |==|  0.26285
USER: genes 6 Torsion [C]-N--CA-[CB] |==|  0.41436
USER: genes 7 Torsion [N]-CA--CB-[CG] |==|  0.88234
USER: genes 8 Torsion [CA]-CB--CG-[CD2] |==|  0.39880
USER: genes 9 Torsion [N]-CA--C-[OXT] |==|  0.02015
USER: genes 10 Torsion [N]-CA--CB-[CG2] |==|  0.62650
USER: genes 11 Torsion [CA]-CB--CG1-[CD1] |==|  0.76425
ROOT
ATOM      1  CA  ILE B   2      74.992  47.621  14.628  1.00 64.17 LIG 0.18  C 
ENDROOT
BRANCH 1 2
ATOM      2  N   ILE B   2      75.121  47.298  13.212  1.00 64.56 LIG-0.35  N 
ATOM      3  C   ALA B   1      74.244  47.732  12.311  1.00 64.53 LIG 0.25  C 
ATOM      4 O    ALA B   1      73.276  48.436  12.604  1.00 64.21 LIG-0.27  OA
ATOM      5 H    ILE B   2      75.803  46.812  13.021  1.00 64.56 LIG 0.16  HD
BRANCH 3 6
ATOM      6  CA  ALA B   1      74.503  47.311  10.864  1.00 64.34 LIG 0.27  C 
ATOM      7  CB  ALA B   1      75.581  48.195  10.247  1.00 65.15 LIG 0.05  C 
BRANCH 6 8
ATOM      8  N   ALA B   1      73.261  47.376  10.041  1.00 63.44 LIG-0.07  N 
ATOM      9 H2   ALA B   1      73.062  46.562   9.740  1.00 63.44 LIG 0.28  HD
ATOM     10 H3   ALA B   1      72.590  47.680  10.539  1.00 63.44 LIG 0.28  HD
ATOM     11 H1   ALA B   1      73.391  47.924   9.351  1.00 63.44 LIG 0.28  HD
ENDBRANCH 6 8
ENDBRANCH 3 6
ENDBRANCH 1 2
BRANCH 1 12
ATOM     12  C   ILE B   2      75.762  48.888  14.983  1.00 63.93 LIG 0.24  C 
ATOM     13  N   HIS B   3      75.066  50.020  14.974  1.00 63.34 LIG-0.34  N 
ATOM     14 H    HIS B   3      74.229  50.070  14.783  1.00 63.34 LIG 0.16  HD
ATOM     15 O    ILE B   2      76.962  48.841  15.262  1.00 63.64 LIG-0.27  OA
BRANCH 13 16
ATOM     16  CA  HIS B   3      75.692  51.294  15.300  1.00 63.18 LIG 0.19  C 
BRANCH 16 17
ATOM     17  CB  HIS B   3      75.013  52.431  14.533  1.00 62.24 LIG 0.10  C 
BRANCH 17 18
ATOM     18  CG  HIS B   3      74.708  52.102  13.104  1.00 63.21 LIG 0.06  A 
ATOM     19  CD2 HIS B   3      73.660  52.439  12.314  1.00 62.69 LIG 0.14  A 
ATOM     20 NE2  HIS B   3      73.880  51.870  11.083  1.00 63.05 LIG-0.25  NA
ATOM     21  CE1 HIS B   3      75.023  51.208  11.114  1.00 63.79 LIG 0.23  A 
ATOM     22 ND1  HIS B   3      75.543  51.332  12.322  1.00 63.44 LIG-0.24  NA
ENDBRANCH 17 18
ENDBRANCH 16 17
BRANCH 16 23
ATOM     23  C   HIS B   3      75.594  51.555  16.798  1.00 63.55 LIG 0.20  C 
ATOM     24 OXT  HIS B   3      75.153  50.643  17.526  1.00 62.89 LIG-0.65  OA
ATOM     25 O    HIS B   3      75.965  52.669  17.226  1.00 64.85 LIG-0.65  OA
ENDBRANCH 16 23
ENDBRANCH 13 16
ENDBRANCH 1 12
BRANCH 1 26
ATOM     26  CB  ILE B   2      75.509  46.466  15.508  1.00 64.73 LIG 0.01  C 
ATOM     27  CG2 ILE B   2      74.523  46.189  16.640  1.00 64.62 LIG 0.01  C 
BRANCH 26 28
ATOM     28  CG1 ILE B   2      75.716  45.217  14.650  1.00 64.82 LIG 0.00  C 
ATOM     29  CD1 ILE B   2      74.467  44.388  14.456  1.00 66.82 LIG 0.01  C 
ENDBRANCH 26 28
ENDBRANCH 1 26
TORSDOF 10
ENDMDL
MODEL 63
USER: ADFR SOLUTION from run 62
USER: SCORE 10.919237 LL:  -1.881 LR:  -9.045 RR:   0.000 FEB:  -6.062
USER: RMSD 7.748511
USER: SEED 61
USER: STATUS no improvement in best in 15 clusters for 5 generations
USER: GENES 12
USER: genes 0 Translation |==|  0.46325 0.51099 0.17296
USER: genes 1 Rotation |==|  0.07150 0.61893 0.67821 0.64313
USER: genes 2 Torsion [C]-CA--N-[C] |==|  0.83872
USER: genes 3 Torsion [N]-C--CA-[N] |==|  0.14216
USER: genes 4 Torsion [C]-CA--N-[H2] |==|  0.35586
USER: genes 5 Torsion [N]-CA--C-[N] |==|  0.39118
USER: genes 6 Torsion [C]-N--CA-[CB] |==|  0.13376
USER: genes 7 Torsion [N]-CA--CB-[CG] |==|  0.65657
USER: genes 8 Torsion [CA]-CB--CG-[CD2] |==|  0.44731
USER: genes 9 Torsion [N]-CA--C-[OXT] |==|  0.46798
USER: genes 10 Torsion [N]-CA--CB-[CG2] |==|  0.26361
USER: genes 11 Torsion [CA]-CB--CG1-[CD1] |==|  0.13398
ROOT
ATOM      1  CA  ILE B   2      75.552  46.767  11.699  1.00 64.17 LIG 0.18  C 
ENDROOT
BRANCH 1 2
ATOM      2  N   ILE B   2      74.863  45.701  12.416  1.00 64.56 LIG-0.35  N 
ATOM      3  C   ALA B   1      75.416  45.086  13.457  1.00 64.53 LIG 0.25  C 
ATOM      4 O    ALA B   1      76.532  45.375  13.891  1.00 64.21 LIG-0.27  OA
ATOM      5 H    ILE B   2      74.083  45.513  12.107  1.00 64.56 LIG 0.16  HD
BRANCH 3 6
ATOM      6  CA  ALA B   1      74.579  43.983  14.108  1.00 64.34 LIG 0.27  C 
ATOM      7  CB  ALA B   1      75.397  43.266  15.176  1.00 65.15 LIG 0.05  C 
BRANCH 6 8
ATOM      8  N   ALA B   1      74.085  43.000  13.101  1.00 63.44 LIG-0.07  N 
ATOM      9 H2   ALA B   1      74.295  42.176  13.364  1.00 63.44 LIG 0.28  HD
ATOM     10 H3   ALA B   1      73.201  43.071  13.026  1.00 63.44 LIG 0.28  HD
ATOM     11 H1   ALA B   1      74.464  43.166  12.313  1.00 63.44 LIG 0.28  HD
ENDBRANCH 6 8
ENDBRANCH 3 6
ENDBRANCH 1 2
BRANCH 1 12
ATOM     12  C   ILE B   2      75.913  47.921  12.629  1.00 63.93 LIG 0.24  C 
ATOM     13  N   HIS B   3      77.097  48.489  12.426  1.00 63.34 LIG-0.34  N 
ATOM     14 H    HIS B   3      77.651  48.244  11.816  1.00 63.34 LIG 0.16  HD
ATOM     15 O    ILE B   2      75.134  48.290  13.510  1.00 63.64 LIG-0.27  OA
BRANCH 13 16
ATOM     16  CA  HIS B   3      77.552  49.602  13.248  1.00 63.18 LIG 0.19  C 
BRANCH 16 17
ATOM     17  CB  HIS B   3      77.349  49.284  14.732  1.00 62.24 LIG 0.10  C 
BRANCH 17 18
ATOM     18  CG  HIS B   3      76.515  50.293  15.460  1.00 63.21 LIG 0.06  A 
ATOM     19  CD2 HIS B   3      75.844  50.216  16.634  1.00 62.69 LIG 0.14  A 
ATOM     20 NE2  HIS B   3      75.241  51.433  16.838  1.00 63.05 LIG-0.25  NA
ATOM     21  CE1 HIS B   3      75.533  52.231  15.826  1.00 63.79 LIG 0.23  A 
ATOM     22 ND1  HIS B   3      76.301  51.567  14.981  1.00 63.44 LIG-0.24  NA
ENDBRANCH 17 18
ENDBRANCH 16 17
BRANCH 16 23
ATOM     23  C   HIS B   3      79.025  49.879  12.979  1.00 63.55 LIG 0.20  C 
ATOM     24 OXT  HIS B   3      79.519  50.931  13.432  1.00 62.89 LIG-0.65  OA
ATOM     25 O    HIS B   3      79.672  49.035  12.321  1.00 64.85 LIG-0.65  OA
ENDBRANCH 16 23
ENDBRANCH 13 16
ENDBRANCH 1 12
BRANCH 1 26
ATOM     26  CB  ILE B   2      74.681  47.314  10.550  1.00 64.73 LIG 0.01  C 
ATOM     27  CG2 ILE B   2      73.906  48.543  11.019  1.00 64.62 LIG 0.01  C 
BRANCH 26 28
ATOM     28  CG1 ILE B   2      75.567  47.655   9.351  1.00 64.82 LIG 0.00  C 
ATOM     29  CD1 ILE B   2      76.542  46.564   8.975  1.00 66.82 LIG 0.01  C 
ENDBRANCH 26 28
ENDBRANCH 1 26
TORSDOF 10
ENDMDL
MODEL 64
USER: ADFR SOLUTION from run 147
USER: SCORE 10.963848 LL:  -1.994 LR:  -9.015 RR:   0.000 FEB:  -6.032
USER: RMSD 6.164073
USER: SEED 146
USER: STATUS no improvement in best in 26 clusters for 5 generations
USER: GENES 12
USER: genes 0 Translation |==|  0.64017 0.50548 0.35487
USER: genes 1 Rotation |==|  0.09278 0.60938 0.41045 0.75336
USER: genes 2 Torsion [C]-CA--N-[C] |==|  0.78518
USER: genes 3 Torsion [N]-C--CA-[N] |==|  0.09525
USER: genes 4 Torsion [C]-CA--N-[H2] |==|  0.69479
USER: genes 5 Torsion [N]-CA--C-[N] |==|  0.93333
USER: genes 6 Torsion [C]-N--CA-[CB] |==|  0.87851
USER: genes 7 Torsion [N]-CA--CB-[CG] |==|  0.81022
USER: genes 8 Torsion [CA]-CB--CG-[CD2] |==|  0.05549
USER: genes 9 Torsion [N]-CA--C-[OXT] |==|  0.42501
USER: genes 10 Torsion [N]-CA--CB-[CG2] |==|  0.50049
USER: genes 11 Torsion [CA]-CB--CG1-[CD1] |==|  0.80721
ROOT
ATOM      1  CA  ILE B   2      77.542  46.664  14.564  1.00 64.17 LIG 0.18  C 
ENDROOT
BRANCH 1 2
ATOM      2  N   ILE B   2      76.333  46.100  13.977  1.00 64.56 LIG-0.35  N 
ATOM      3  C   ALA B   1      75.665  45.110  14.563  1.00 64.53 LIG 0.25  C 
ATOM      4 O    ALA B   1      76.011  44.611  15.635  1.00 64.21 LIG-0.27  OA
ATOM      5 H    ILE B   2      76.098  46.462  13.233  1.00 64.56 LIG 0.16  HD
BRANCH 3 6
ATOM      6  CA  ALA B   1      74.417  44.616  13.831  1.00 64.34 LIG 0.27  C 
ATOM      7  CB  ALA B   1      74.094  43.187  14.251  1.00 65.15 LIG 0.05  C 
BRANCH 6 8
ATOM      8  N   ALA B   1      74.584  44.685  12.350  1.00 63.44 LIG-0.07  N 
ATOM      9 H2   ALA B   1      74.063  45.327  12.022  1.00 63.44 LIG 0.28  HD
ATOM     10 H3   ALA B   1      75.433  44.863  12.155  1.00 63.44 LIG 0.28  HD
ATOM     11 H1   ALA B   1      74.355  43.904  11.989  1.00 63.44 LIG 0.28  HD
ENDBRANCH 6 8
ENDBRANCH 3 6
ENDBRANCH 1 2
BRANCH 1 12
ATOM     12  C   ILE B   2      77.215  47.607  15.718  1.00 63.93 LIG 0.24  C 
ATOM     13  N   HIS B   3      76.004  48.153  15.704  1.00 63.34 LIG-0.34  N 
ATOM     14 H    HIS B   3      75.415  48.006  15.094  1.00 63.34 LIG 0.16  HD
ATOM     15 O    ILE B   2      78.042  47.832  16.604  1.00 63.64 LIG-0.27  OA
BRANCH 13 16
ATOM     16  CA  HIS B   3      75.575  49.067  16.753  1.00 63.18 LIG 0.19  C 
BRANCH 16 17
ATOM     17  CB  HIS B   3      75.988  48.530  18.127  1.00 62.24 LIG 0.10  C 
BRANCH 17 18
ATOM     18  CG  HIS B   3      75.254  47.292  18.540  1.00 63.21 LIG 0.06  A 
ATOM     19  CD2 HIS B   3      74.571  46.374  17.813  1.00 62.69 LIG 0.14  A 
ATOM     20 NE2  HIS B   3      74.090  45.436  18.693  1.00 63.05 LIG-0.25  NA
ATOM     21  CE1 HIS B   3      74.464  45.764  19.918  1.00 63.79 LIG 0.23  A 
ATOM     22 ND1  HIS B   3      75.168  46.880  19.853  1.00 63.44 LIG-0.24  NA
ENDBRANCH 17 18
ENDBRANCH 16 17
BRANCH 16 23
ATOM     23  C   HIS B   3      76.195  50.441  16.532  1.00 63.55 LIG 0.20  C 
ATOM     24 OXT  HIS B   3      75.590  51.438  16.972  1.00 62.89 LIG-0.65  OA
ATOM     25 O    HIS B   3      77.285  50.503  15.922  1.00 64.85 LIG-0.65  OA
ENDBRANCH 16 23
ENDBRANCH 13 16
ENDBRANCH 1 12
BRANCH 1 26
ATOM     26  CB  ILE B   2      78.359  47.439  13.511  1.00 64.73 LIG 0.01  C 
ATOM     27  CG2 ILE B   2      79.621  48.015  14.148  1.00 64.62 LIG 0.01  C 
BRANCH 26 28
ATOM     28  CG1 ILE B   2      78.712  46.510  12.348  1.00 64.82 LIG 0.00  C 
ATOM     29  CD1 ILE B   2      79.715  45.435  12.701  1.00 66.82 LIG 0.01  C 
ENDBRANCH 26 28
ENDBRANCH 1 26
TORSDOF 10
ENDMDL
MODEL 65
USER: ADFR SOLUTION from run 168
USER: SCORE 10.497686 LL:  -1.912 LR:  -8.990 RR:   0.000 FEB:  -6.007
USER: RMSD 5.662829
USER: SEED 167
USER: STATUS no improvement in best in 26 clusters for 5 generations
USER: GENES 12
USER: genes 0 Translation |==|  0.46299 0.38799 0.49903
USER: genes 1 Rotation |==|  0.39140 0.66888 0.07413 0.66830
USER: genes 2 Torsion [C]-CA--N-[C] |==|  0.67365
USER: genes 3 Torsion [N]-C--CA-[N] |==|  0.51450
USER: genes 4 Torsion [C]-CA--N-[H2] |==|  0.85880
USER: genes 5 Torsion [N]-CA--C-[N] |==|  0.86148
USER: genes 6 Torsion [C]-N--CA-[CB] |==|  0.86611
USER: genes 7 Torsion [N]-CA--CB-[CG] |==|  0.66777
USER: genes 8 Torsion [CA]-CB--CG-[CD2] |==|  0.38343
USER: genes 9 Torsion [N]-CA--C-[OXT] |==|  0.55293
USER: genes 10 Torsion [N]-CA--CB-[CG2] |==|  0.50807
USER: genes 11 Torsion [CA]-CB--CG1-[CD1] |==|  0.87419
ROOT
ATOM      1  CA  ILE B   2      75.549  44.461  16.835  1.00 64.17 LIG 0.18  C 
ENDROOT
BRANCH 1 2
ATOM      2  N   ILE B   2      75.997  44.820  15.495  1.00 64.56 LIG-0.35  N 
ATOM      3  C   ALA B   1      75.224  44.644  14.427  1.00 64.53 LIG 0.25  C 
ATOM      4 O    ALA B   1      74.085  44.178  14.493  1.00 64.21 LIG-0.27  OA
ATOM      5 H    ILE B   2      76.790  45.149  15.463  1.00 64.56 LIG 0.16  HD
BRANCH 3 6
ATOM      6  CA  ALA B   1      75.828  45.062  13.085  1.00 64.34 LIG 0.27  C 
ATOM      7  CB  ALA B   1      76.344  46.494  13.166  1.00 65.15 LIG 0.05  C 
BRANCH 6 8
ATOM      8  N   ALA B   1      74.839  44.940  11.975  1.00 63.44 LIG-0.07  N 
ATOM      9 H2   ALA B   1      74.470  44.131  11.993  1.00 63.44 LIG 0.28  HD
ATOM     10 H3   ALA B   1      74.205  45.557  12.073  1.00 63.44 LIG 0.28  HD
ATOM     11 H1   ALA B   1      75.252  45.061  11.196  1.00 63.44 LIG 0.28  HD
ENDBRANCH 6 8
ENDBRANCH 3 6
ENDBRANCH 1 2
BRANCH 1 12
ATOM     12  C   ILE B   2      75.476  45.683  17.745  1.00 63.93 LIG 0.24  C 
ATOM     13  N   HIS B   3      76.553  46.461  17.769  1.00 63.34 LIG-0.34  N 
ATOM     14 H    HIS B   3      77.266  46.312  17.311  1.00 63.34 LIG 0.16  HD
ATOM     15 O    ILE B   2      74.465  45.917  18.410  1.00 63.64 LIG-0.27  OA
BRANCH 13 16
ATOM     16  CA  HIS B   3      76.602  47.658  18.597  1.00 63.18 LIG 0.19  C 
BRANCH 16 17
ATOM     17  CB  HIS B   3      75.333  48.492  18.401  1.00 62.24 LIG 0.10  C 
BRANCH 17 18
ATOM     18  CG  HIS B   3      75.590  49.872  17.878  1.00 63.21 LIG 0.06  A 
ATOM     19  CD2 HIS B   3      74.945  50.605  16.939  1.00 62.69 LIG 0.14  A 
ATOM     20 NE2  HIS B   3      75.599  51.810  16.845  1.00 63.05 LIG-0.25  NA
ATOM     21  CE1 HIS B   3      76.609  51.818  17.697  1.00 63.79 LIG 0.23  A 
ATOM     22 ND1  HIS B   3      76.626  50.660  18.333  1.00 63.44 LIG-0.24  NA
ENDBRANCH 17 18
ENDBRANCH 16 17
BRANCH 16 23
ATOM     23  C   HIS B   3      76.739  47.269  20.064  1.00 63.55 LIG 0.20  C 
ATOM     24 OXT  HIS B   3      76.437  48.116  20.929  1.00 62.89 LIG-0.65  OA
ATOM     25 O    HIS B   3      77.143  46.117  20.332  1.00 64.85 LIG-0.65  OA
ENDBRANCH 16 23
ENDBRANCH 13 16
ENDBRANCH 1 12
BRANCH 1 26
ATOM     26  CB  ILE B   2      76.493  43.424  17.475  1.00 64.73 LIG 0.01  C 
ATOM     27  CG2 ILE B   2      75.965  43.011  18.846  1.00 64.62 LIG 0.01  C 
BRANCH 26 28
ATOM     28  CG1 ILE B   2      76.625  42.210  16.555  1.00 64.82 LIG 0.00  C 
ATOM     29  CD1 ILE B   2      75.311  41.717  15.993  1.00 66.82 LIG 0.01  C 
ENDBRANCH 26 28
ENDBRANCH 1 26
TORSDOF 10
ENDMDL
MODEL 66
USER: ADFR SOLUTION from run 142
USER: SCORE 11.372061 LL:  -2.473 LR:  -8.993 RR:   0.000 FEB:  -6.010
USER: RMSD 7.364013
USER: SEED 141
USER: STATUS no improvement in best in 20 clusters for 5 generations
USER: GENES 12
USER: genes 0 Translation |==|  0.66766 0.50812 0.28381
USER: genes 1 Rotation |==|  0.84950 0.60043 0.80655 0.65423
USER: genes 2 Torsion [C]-CA--N-[C] |==|  0.74549
USER: genes 3 Torsion [N]-C--CA-[N] |==|  0.77196
USER: genes 4 Torsion [C]-CA--N-[H2] |==|  0.98887
USER: genes 5 Torsion [N]-CA--C-[N] |==|  0.44666
USER: genes 6 Torsion [C]-N--CA-[CB] |==|  0.25959
USER: genes 7 Torsion [N]-CA--CB-[CG] |==|  0.85831
USER: genes 8 Torsion [CA]-CB--CG-[CD2] |==|  0.30257
USER: genes 9 Torsion [N]-CA--C-[OXT] |==|  0.98601
USER: genes 10 Torsion [N]-CA--CB-[CG2] |==|  0.25418
USER: genes 11 Torsion [CA]-CB--CG1-[CD1] |==|  0.59046
ROOT
ATOM      1  CA  ILE B   2      77.851  46.713  13.445  1.00 64.17 LIG 0.18  C 
ENDROOT
BRANCH 1 2
ATOM      2  N   ILE B   2      76.852  45.662  13.590  1.00 64.56 LIG-0.35  N 
ATOM      3  C   ALA B   1      75.597  45.931  13.936  1.00 64.53 LIG 0.25  C 
ATOM      4 O    ALA B   1      75.191  47.075  14.148  1.00 64.21 LIG-0.27  OA
ATOM      5 H    ILE B   2      77.147  44.869  13.433  1.00 64.56 LIG 0.16  HD
BRANCH 3 6
ATOM      6  CA  ALA B   1      74.660  44.728  14.055  1.00 64.34 LIG 0.27  C 
ATOM      7  CB  ALA B   1      75.387  43.561  14.713  1.00 65.15 LIG 0.05  C 
BRANCH 6 8
ATOM      8  N   ALA B   1      74.129  44.311  12.725  1.00 63.44 LIG-0.07  N 
ATOM      9 H2   ALA B   1      74.411  44.879  12.101  1.00 63.44 LIG 0.28  HD
ATOM     10 H3   ALA B   1      74.419  43.492  12.533  1.00 63.44 LIG 0.28  HD
ATOM     11 H1   ALA B   1      73.239  44.312  12.748  1.00 63.44 LIG 0.28  HD
ENDBRANCH 6 8
ENDBRANCH 3 6
ENDBRANCH 1 2
BRANCH 1 12
ATOM     12  C   ILE B   2      77.914  47.229  12.011  1.00 63.93 LIG 0.24  C 
ATOM     13  N   HIS B   3      78.477  48.420  11.840  1.00 63.34 LIG-0.34  N 
ATOM     14 H    HIS B   3      78.797  48.899  12.480  1.00 63.34 LIG 0.16  HD
ATOM     15 O    ILE B   2      77.463  46.561  11.078  1.00 63.64 LIG-0.27  OA
BRANCH 13 16
ATOM     16  CA  HIS B   3      78.597  49.016  10.517  1.00 63.18 LIG 0.19  C 
BRANCH 16 17
ATOM     17  CB  HIS B   3      77.402  49.931  10.235  1.00 62.24 LIG 0.10  C 
BRANCH 17 18
ATOM     18  CG  HIS B   3      76.073  49.287  10.482  1.00 63.21 LIG 0.06  A 
ATOM     19  CD2 HIS B   3      75.149  49.489  11.452  1.00 62.69 LIG 0.14  A 
ATOM     20 NE2  HIS B   3      74.109  48.626  11.207  1.00 63.05 LIG-0.25  NA
ATOM     21  CE1 HIS B   3      74.382  47.919  10.124  1.00 63.79 LIG 0.23  A 
ATOM     22 ND1  HIS B   3      75.562  48.298   9.667  1.00 63.44 LIG-0.24  NA
ENDBRANCH 17 18
ENDBRANCH 16 17
BRANCH 16 23
ATOM     23  C   HIS B   3      79.890  49.817  10.422  1.00 63.55 LIG 0.20  C 
ATOM     24 OXT  HIS B   3      80.586  49.937  11.450  1.00 62.89 LIG-0.65  OA
ATOM     25 O    HIS B   3      80.196  50.311   9.315  1.00 64.85 LIG-0.65  OA
ENDBRANCH 16 23
ENDBRANCH 13 16
ENDBRANCH 1 12
BRANCH 1 26
ATOM     26  CB  ILE B   2      79.250  46.207  13.848  1.00 64.73 LIG 0.01  C 
ATOM     27  CG2 ILE B   2      79.980  45.655  12.626  1.00 64.62 LIG 0.01  C 
BRANCH 26 28
ATOM     28  CG1 ILE B   2      80.046  47.346  14.487  1.00 64.82 LIG 0.00  C 
ATOM     29  CD1 ILE B   2      81.534  47.281  14.225  1.00 66.82 LIG 0.01  C 
ENDBRANCH 26 28
ENDBRANCH 1 26
TORSDOF 10
ENDMDL
MODEL 67
USER: ADFR SOLUTION from run 175
USER: SCORE 10.765862 LL:  -2.454 LR:  -8.994 RR:   0.000 FEB:  -6.011
USER: RMSD 6.393703
USER: SEED 174
USER: STATUS no improvement in best in 24 clusters for 5 generations
USER: GENES 12
USER: genes 0 Translation |==|  0.60718 0.42476 0.33362
USER: genes 1 Rotation |==|  0.76987 0.15358 0.28115 0.59626
USER: genes 2 Torsion [C]-CA--N-[C] |==|  0.21111
USER: genes 3 Torsion [N]-C--CA-[N] |==|  0.05955
USER: genes 4 Torsion [C]-CA--N-[H2] |==|  0.61070
USER: genes 5 Torsion [N]-CA--C-[N] |==|  0.81309
USER: genes 6 Torsion [C]-N--CA-[CB] |==|  0.36063
USER: genes 7 Torsion [N]-CA--CB-[CG] |==|  0.85532
USER: genes 8 Torsion [CA]-CB--CG-[CD2] |==|  0.33738
USER: genes 9 Torsion [N]-CA--C-[OXT] |==|  0.01400
USER: genes 10 Torsion [N]-CA--CB-[CG2] |==|  0.47105
USER: genes 11 Torsion [CA]-CB--CG1-[CD1] |==|  0.72524
ROOT
ATOM      1  CA  ILE B   2      77.171  45.150  14.230  1.00 64.17 LIG 0.18  C 
ENDROOT
BRANCH 1 2
ATOM      2  N   ILE B   2      77.459  45.558  15.599  1.00 64.56 LIG-0.35  N 
ATOM      3  C   ALA B   1      77.150  46.770  16.049  1.00 64.53 LIG 0.25  C 
ATOM      4 O    ALA B   1      76.597  47.623  15.352  1.00 64.21 LIG-0.27  OA
ATOM      5 H    ILE B   2      77.840  44.952  16.076  1.00 64.56 LIG 0.16  HD
BRANCH 3 6
ATOM      6  CA  ALA B   1      77.516  47.059  17.506  1.00 64.34 LIG 0.27  C 
ATOM      7  CB  ALA B   1      77.964  48.509  17.655  1.00 65.15 LIG 0.05  C 
BRANCH 6 8
ATOM      8  N   ALA B   1      78.586  46.144  17.997  1.00 63.44 LIG-0.07  N 
ATOM      9 H2   ALA B   1      78.407  45.900  18.834  1.00 63.44 LIG 0.28  HD
ATOM     10 H3   ALA B   1      78.620  45.422  17.479  1.00 63.44 LIG 0.28  HD
ATOM     11 H1   ALA B   1      79.371  46.564  17.971  1.00 63.44 LIG 0.28  HD
ENDBRANCH 6 8
ENDBRANCH 3 6
ENDBRANCH 1 2
BRANCH 1 12
ATOM     12  C   ILE B   2      78.160  45.766  13.245  1.00 63.93 LIG 0.24  C 
ATOM     13  N   HIS B   3      78.093  47.084  13.094  1.00 63.34 LIG-0.34  N 
ATOM     14 H    HIS B   3      77.537  47.590  13.512  1.00 63.34 LIG 0.16  HD
ATOM     15 O    ILE B   2      78.967  45.061  12.636  1.00 63.64 LIG-0.27  OA
BRANCH 13 16
ATOM     16  CA  HIS B   3      78.988  47.786  12.184  1.00 63.18 LIG 0.19  C 
BRANCH 16 17
ATOM     17  CB  HIS B   3      78.190  48.711  11.262  1.00 62.24 LIG 0.10  C 
BRANCH 17 18
ATOM     18  CG  HIS B   3      77.059  48.032  10.552  1.00 63.21 LIG 0.06  A 
ATOM     19  CD2 HIS B   3      75.728  48.282  10.549  1.00 62.69 LIG 0.14  A 
ATOM     20 NE2  HIS B   3      75.142  47.353   9.725  1.00 63.05 LIG-0.25  NA
ATOM     21  CE1 HIS B   3      76.079  46.559   9.237  1.00 63.79 LIG 0.23  A 
ATOM     22 ND1  HIS B   3      77.246  46.948   9.721  1.00 63.44 LIG-0.24  NA
ENDBRANCH 17 18
ENDBRANCH 16 17
BRANCH 16 23
ATOM     23  C   HIS B   3      80.002  48.602  12.977  1.00 63.55 LIG 0.20  C 
ATOM     24 OXT  HIS B   3      80.003  48.493  14.219  1.00 62.89 LIG-0.65  OA
ATOM     25 O    HIS B   3      80.788  49.339  12.343  1.00 64.85 LIG-0.65  OA
ENDBRANCH 16 23
ENDBRANCH 13 16
ENDBRANCH 1 12
BRANCH 1 26
ATOM     26  CB  ILE B   2      75.744  45.563  13.818  1.00 64.73 LIG 0.01  C 
ATOM     27  CG2 ILE B   2      75.552  45.363  12.317  1.00 64.62 LIG 0.01  C 
BRANCH 26 28
ATOM     28  CG1 ILE B   2      74.722  44.744  14.610  1.00 64.82 LIG 0.00  C 
ATOM     29  CD1 ILE B   2      74.158  43.565  13.852  1.00 66.82 LIG 0.01  C 
ENDBRANCH 26 28
ENDBRANCH 1 26
TORSDOF 10
ENDMDL
MODEL 68
USER: ADFR SOLUTION from run 115
USER: SCORE 11.166241 LL:  -2.183 LR:  -8.984 RR:   0.000 FEB:  -6.001
USER: RMSD 5.579557
USER: SEED 114
USER: STATUS no improvement in best in 22 clusters for 5 generations
USER: GENES 12
USER: genes 0 Translation |==|  0.47066 0.37713 0.58095
USER: genes 1 Rotation |==|  0.97478 0.42702 0.42688 0.61795
USER: genes 2 Torsion [C]-CA--N-[C] |==|  0.82779
USER: genes 3 Torsion [N]-C--CA-[N] |==|  0.51656
USER: genes 4 Torsion [C]-CA--N-[H2] |==|  0.75191
USER: genes 5 Torsion [N]-CA--C-[N] |==|  0.37317
USER: genes 6 Torsion [C]-N--CA-[CB] |==|  0.85815
USER: genes 7 Torsion [N]-CA--CB-[CG] |==|  0.83560
USER: genes 8 Torsion [CA]-CB--CG-[CD2] |==|  0.91470
USER: genes 9 Torsion [N]-CA--C-[OXT] |==|  0.47280
USER: genes 10 Torsion [N]-CA--CB-[CG2] |==|  0.41995
USER: genes 11 Torsion [CA]-CB--CG1-[CD1] |==|  0.13859
ROOT
ATOM      1  CA  ILE B   2      75.635  44.257  18.125  1.00 64.17 LIG 0.18  C 
ENDROOT
BRANCH 1 2
ATOM      2  N   ILE B   2      75.020  44.026  19.426  1.00 64.56 LIG-0.35  N 
ATOM      3  C   ALA B   1      75.292  44.795  20.476  1.00 64.53 LIG 0.25  C 
ATOM      4 O    ALA B   1      76.067  45.752  20.423  1.00 64.21 LIG-0.27  OA
ATOM      5 H    ILE B   2      74.477  43.360  19.448  1.00 64.56 LIG 0.16  HD
BRANCH 3 6
ATOM      6  CA  ALA B   1      74.577  44.432  21.778  1.00 64.34 LIG 0.27  C 
ATOM      7  CB  ALA B   1      73.077  44.312  21.537  1.00 65.15 LIG 0.05  C 
BRANCH 6 8
ATOM      8  N   ALA B   1      74.840  45.436  22.850  1.00 63.44 LIG-0.07  N 
ATOM      9 H2   ALA B   1      75.570  45.203  23.303  1.00 63.44 LIG 0.28  HD
ATOM     10 H3   ALA B   1      74.963  46.237  22.482  1.00 63.44 LIG 0.28  HD
ATOM     11 H1   ALA B   1      74.144  45.468  23.403  1.00 63.44 LIG 0.28  HD
ENDBRANCH 6 8
ENDBRANCH 3 6
ENDBRANCH 1 2
BRANCH 1 12
ATOM     12  C   ILE B   2      75.259  45.626  17.565  1.00 63.93 LIG 0.24  C 
ATOM     13  N   HIS B   3      76.253  46.343  17.054  1.00 63.34 LIG-0.34  N 
ATOM     14 H    HIS B   3      77.072  46.082  17.025  1.00 63.34 LIG 0.16  HD
ATOM     15 O    ILE B   2      74.092  46.021  17.595  1.00 63.64 LIG-0.27  OA
BRANCH 13 16
ATOM     16  CA  HIS B   3      76.017  47.664  16.487  1.00 63.18 LIG 0.19  C 
BRANCH 16 17
ATOM     17  CB  HIS B   3      74.871  47.611  15.474  1.00 62.24 LIG 0.10  C 
BRANCH 17 18
ATOM     18  CG  HIS B   3      75.113  46.672  14.332  1.00 63.21 LIG 0.06  A 
ATOM     19  CD2 HIS B   3      76.259  46.288  13.720  1.00 62.69 LIG 0.14  A 
ATOM     20 NE2  HIS B   3      75.912  45.405  12.726  1.00 63.05 LIG-0.25  NA
ATOM     21  CE1 HIS B   3      74.600  45.251  12.728  1.00 63.79 LIG 0.23  A 
ATOM     22 ND1  HIS B   3      74.093  46.004  13.688  1.00 63.44 LIG-0.24  NA
ENDBRANCH 17 18
ENDBRANCH 16 17
BRANCH 16 23
ATOM     23  C   HIS B   3      75.676  48.652  17.596  1.00 63.55 LIG 0.20  C 
ATOM     24 OXT  HIS B   3      75.627  49.865  17.310  1.00 62.89 LIG-0.65  OA
ATOM     25 O    HIS B   3      75.457  48.199  18.741  1.00 64.85 LIG-0.65  OA
ENDBRANCH 16 23
ENDBRANCH 13 16
ENDBRANCH 1 12
BRANCH 1 26
ATOM     26  CB  ILE B   2      75.209  43.176  17.112  1.00 64.73 LIG 0.01  C 
ATOM     27  CG2 ILE B   2      75.224  43.749  15.697  1.00 64.62 LIG 0.01  C 
BRANCH 26 28
ATOM     28  CG1 ILE B   2      76.145  41.971  17.220  1.00 64.82 LIG 0.00  C 
ATOM     29  CD1 ILE B   2      76.340  41.468  18.632  1.00 66.82 LIG 0.01  C 
ENDBRANCH 26 28
ENDBRANCH 1 26
TORSDOF 10
ENDMDL
MODEL 69
USER: ADFR SOLUTION from run 13
USER: SCORE 10.817324 LL:  -2.063 LR:  -8.973 RR:   0.000 FEB:  -5.990
USER: RMSD 6.637001
USER: SEED 894623
USER: STATUS no improvement in best in 17 clusters for 5 generations
USER: GENES 12
USER: genes 0 Translation |==|  0.42224 0.50704 0.16522
USER: genes 1 Rotation |==|  0.23470 0.67059 0.84926 0.66892
USER: genes 2 Torsion [C]-CA--N-[C] |==|  0.16184
USER: genes 3 Torsion [N]-C--CA-[N] |==|  0.95845
USER: genes 4 Torsion [C]-CA--N-[H2] |==|  0.74475
USER: genes 5 Torsion [N]-CA--C-[N] |==|  0.05559
USER: genes 6 Torsion [C]-N--CA-[CB] |==|  0.36066
USER: genes 7 Torsion [N]-CA--CB-[CG] |==|  0.85280
USER: genes 8 Torsion [CA]-CB--CG-[CD2] |==|  0.38855
USER: genes 9 Torsion [N]-CA--C-[OXT] |==|  0.60126
USER: genes 10 Torsion [N]-CA--CB-[CG2] |==|  0.25760
USER: genes 11 Torsion [CA]-CB--CG1-[CD1] |==|  0.63409
ROOT
ATOM      1  CA  ILE B   2      75.090  46.693  11.577  1.00 64.17 LIG 0.18  C 
ENDROOT
BRANCH 1 2
ATOM      2  N   ILE B   2      74.851  45.429  12.262  1.00 64.56 LIG-0.35  N 
ATOM      3  C   ALA B   1      74.688  45.365  13.580  1.00 64.53 LIG 0.25  C 
ATOM      4 O    ALA B   1      74.719  46.359  14.308  1.00 64.21 LIG-0.27  OA
ATOM      5 H    ILE B   2      74.825  44.744  11.742  1.00 64.56 LIG 0.16  HD
BRANCH 3 6
ATOM      6  CA  ALA B   1      74.449  43.971  14.161  1.00 64.34 LIG 0.27  C 
ATOM      7  CB  ALA B   1      75.689  43.496  14.911  1.00 65.15 LIG 0.05  C 
BRANCH 6 8
ATOM      8  N   ALA B   1      74.090  42.986  13.100  1.00 63.44 LIG-0.07  N 
ATOM      9 H2   ALA B   1      73.205  42.953  13.013  1.00 63.44 LIG 0.28  HD
ATOM     10 H3   ALA B   1      74.455  43.236  12.328  1.00 63.44 LIG 0.28  HD
ATOM     11 H1   ALA B   1      74.397  42.181  13.326  1.00 63.44 LIG 0.28  HD
ENDBRANCH 6 8
ENDBRANCH 3 6
ENDBRANCH 1 2
BRANCH 1 12
ATOM     12  C   ILE B   2      76.341  47.387  12.109  1.00 63.93 LIG 0.24  C 
ATOM     13  N   HIS B   3      77.210  46.615  12.752  1.00 63.34 LIG-0.34  N 
ATOM     14 H    HIS B   3      77.104  45.771  12.880  1.00 63.34 LIG 0.16  HD
ATOM     15 O    ILE B   2      76.515  48.595  11.937  1.00 63.64 LIG-0.27  OA
BRANCH 13 16
ATOM     16  CA  HIS B   3      78.443  47.163  13.302  1.00 63.18 LIG 0.19  C 
BRANCH 16 17
ATOM     17  CB  HIS B   3      78.607  46.739  14.764  1.00 62.24 LIG 0.10  C 
BRANCH 17 18
ATOM     18  CG  HIS B   3      77.421  47.050  15.623  1.00 63.21 LIG 0.06  A 
ATOM     19  CD2 HIS B   3      76.822  46.340  16.610  1.00 62.69 LIG 0.14  A 
ATOM     20 NE2  HIS B   3      75.769  47.092  17.069  1.00 63.05 LIG-0.25  NA
ATOM     21  CE1 HIS B   3      75.721  48.225  16.390  1.00 63.79 LIG 0.23  A 
ATOM     22 ND1  HIS B   3      76.708  48.225  15.511  1.00 63.44 LIG-0.24  NA
ENDBRANCH 17 18
ENDBRANCH 16 17
BRANCH 16 23
ATOM     23  C   HIS B   3      79.636  46.678  12.489  1.00 63.55 LIG 0.20  C 
ATOM     24 OXT  HIS B   3      80.698  46.427  13.093  1.00 62.89 LIG-0.65  OA
ATOM     25 O    HIS B   3      79.492  46.549  11.253  1.00 64.85 LIG-0.65  OA
ENDBRANCH 16 23
ENDBRANCH 13 16
ENDBRANCH 1 12
BRANCH 1 26
ATOM     26  CB  ILE B   2      73.890  47.647  11.741  1.00 64.73 LIG 0.01  C 
ATOM     27  CG2 ILE B   2      74.102  48.552  12.952  1.00 64.62 LIG 0.01  C 
BRANCH 26 28
ATOM     28  CG1 ILE B   2      73.713  48.476  10.467  1.00 64.82 LIG 0.00  C 
ATOM     29  CD1 ILE B   2      73.547  49.958  10.715  1.00 66.82 LIG 0.01  C 
ENDBRANCH 26 28
ENDBRANCH 1 26
TORSDOF 10
ENDMDL
MODEL 70
USER: ADFR SOLUTION from run 21
USER: SCORE 11.200833 LL:  -2.384 LR:  -8.937 RR:   0.000 FEB:  -5.954
USER: RMSD 5.048256
USER: SEED 20
USER: STATUS no improvement in best in 14 clusters for 5 generations
USER: GENES 12
USER: genes 0 Translation |==|  0.44194 0.36628 0.52773
USER: genes 1 Rotation |==|  0.42484 0.89179 0.20803 0.57487
USER: genes 2 Torsion [C]-CA--N-[C] |==|  0.72598
USER: genes 3 Torsion [N]-C--CA-[N] |==|  0.40171
USER: genes 4 Torsion [C]-CA--N-[H2] |==|  0.98716
USER: genes 5 Torsion [N]-CA--C-[N] |==|  0.37507
USER: genes 6 Torsion [C]-N--CA-[CB] |==|  0.26909
USER: genes 7 Torsion [N]-CA--CB-[CG] |==|  0.91796
USER: genes 8 Torsion [CA]-CB--CG-[CD2] |==|  0.21538
USER: genes 9 Torsion [N]-CA--C-[OXT] |==|  0.31975
USER: genes 10 Torsion [N]-CA--CB-[CG2] |==|  0.78844
USER: genes 11 Torsion [CA]-CB--CG1-[CD1] |==|  0.76688
ROOT
ATOM      1  CA  ILE B   2      75.312  44.054  17.287  1.00 64.17 LIG 0.18  C 
ENDROOT
BRANCH 1 2
ATOM      2  N   ILE B   2      75.614  45.317  16.625  1.00 64.56 LIG-0.35  N 
ATOM      3  C   ALA B   1      74.795  46.362  16.703  1.00 64.53 LIG 0.25  C 
ATOM      4 O    ALA B   1      73.741  46.341  17.340  1.00 64.21 LIG-0.27  OA
ATOM      5 H    ILE B   2      76.355  45.320  16.189  1.00 64.56 LIG 0.16  HD
BRANCH 3 6
ATOM      6  CA  ALA B   1      75.239  47.620  15.954  1.00 64.34 LIG 0.27  C 
ATOM      7  CB  ALA B   1      76.018  48.539  16.888  1.00 65.15 LIG 0.05  C 
BRANCH 6 8
ATOM      8  N   ALA B   1      74.077  48.353  15.373  1.00 63.44 LIG-0.07  N 
ATOM      9 H2   ALA B   1      73.332  47.886  15.511  1.00 63.44 LIG 0.28  HD
ATOM     10 H3   ALA B   1      74.005  49.150  15.762  1.00 63.44 LIG 0.28  HD
ATOM     11 H1   ALA B   1      74.202  48.461  14.498  1.00 63.44 LIG 0.28  HD
ENDBRANCH 6 8
ENDBRANCH 3 6
ENDBRANCH 1 2
BRANCH 1 12
ATOM     12  C   ILE B   2      76.052  43.929  18.615  1.00 63.93 LIG 0.24  C 
ATOM     13  N   HIS B   3      75.338  43.486  19.644  1.00 63.34 LIG-0.34  N 
ATOM     14 H    HIS B   3      74.506  43.274  19.599  1.00 63.34 LIG 0.16  HD
ATOM     15 O    ILE B   2      77.245  44.227  18.704  1.00 63.64 LIG-0.27  OA
BRANCH 13 16
ATOM     16  CA  HIS B   3      75.936  43.323  20.963  1.00 63.18 LIG 0.19  C 
BRANCH 16 17
ATOM     17  CB  HIS B   3      75.646  44.548  21.834  1.00 62.24 LIG 0.10  C 
BRANCH 17 18
ATOM     18  CG  HIS B   3      75.493  45.821  21.059  1.00 63.21 LIG 0.06  A 
ATOM     19  CD2 HIS B   3      74.460  46.300  20.324  1.00 62.69 LIG 0.14  A 
ATOM     20 NE2  HIS B   3      74.849  47.519  19.825  1.00 63.05 LIG-0.25  NA
ATOM     21  CE1 HIS B   3      76.076  47.781  20.239  1.00 63.79 LIG 0.23  A 
ATOM     22 ND1  HIS B   3      76.488  46.772  20.986  1.00 63.44 LIG-0.24  NA
ENDBRANCH 17 18
ENDBRANCH 16 17
BRANCH 16 23
ATOM     23  C   HIS B   3      75.382  42.073  21.634  1.00 63.55 LIG 0.20  C 
ATOM     24 OXT  HIS B   3      76.167  41.132  21.868  1.00 62.89 LIG-0.65  OA
ATOM     25 O    HIS B   3      74.165  42.051  21.923  1.00 64.85 LIG-0.65  OA
ENDBRANCH 16 23
ENDBRANCH 13 16
ENDBRANCH 1 12
BRANCH 1 26
ATOM     26  CB  ILE B   2      75.695  42.856  16.395  1.00 64.73 LIG 0.01  C 
ATOM     27  CG2 ILE B   2      74.660  42.675  15.288  1.00 64.62 LIG 0.01  C 
BRANCH 26 28
ATOM     28  CG1 ILE B   2      77.089  43.078  15.805  1.00 64.82 LIG 0.00  C 
ATOM     29  CD1 ILE B   2      77.100  43.924  14.552  1.00 66.82 LIG 0.01  C 
ENDBRANCH 26 28
ENDBRANCH 1 26
TORSDOF 10
ENDMDL
MODEL 71
USER: ADFR SOLUTION from run 130
USER: SCORE 10.719603 LL:  -2.193 LR:  -8.931 RR:   0.000 FEB:  -5.948
USER: RMSD 5.186077
USER: SEED 129
USER: STATUS no improvement in best in 23 clusters for 5 generations
USER: GENES 12
USER: genes 0 Translation |==|  0.39373 0.41166 0.52542
USER: genes 1 Rotation |==|  0.37487 0.78895 0.20860 0.75679
USER: genes 2 Torsion [C]-CA--N-[C] |==|  0.52229
USER: genes 3 Torsion [N]-C--CA-[N] |==|  0.96650
USER: genes 4 Torsion [C]-CA--N-[H2] |==|  0.40780
USER: genes 5 Torsion [N]-CA--C-[N] |==|  0.49998
USER: genes 6 Torsion [C]-N--CA-[CB] |==|  0.46914
USER: genes 7 Torsion [N]-CA--CB-[CG] |==|  0.14907
USER: genes 8 Torsion [CA]-CB--CG-[CD2] |==|  0.26334
USER: genes 9 Torsion [N]-CA--C-[OXT] |==|  0.09521
USER: genes 10 Torsion [N]-CA--CB-[CG2] |==|  0.24963
USER: genes 11 Torsion [CA]-CB--CG1-[CD1] |==|  0.22169
ROOT
ATOM      1  CA  ILE B   2      74.770  44.905  17.250  1.00 64.17 LIG 0.18  C 
ENDROOT
BRANCH 1 2
ATOM      2  N   ILE B   2      74.626  46.093  16.419  1.00 64.56 LIG-0.35  N 
ATOM      3  C   ALA B   1      74.549  46.015  15.093  1.00 64.53 LIG 0.25  C 
ATOM      4 O    ALA B   1      74.584  44.946  14.481  1.00 64.21 LIG-0.27  OA
ATOM      5 H    ILE B   2      74.597  46.831  16.858  1.00 64.56 LIG 0.16  HD
BRANCH 3 6
ATOM      6  CA  ALA B   1      74.405  47.344  14.350  1.00 64.34 LIG 0.27  C 
ATOM      7  CB  ALA B   1      75.683  47.654  13.578  1.00 65.15 LIG 0.05  C 
BRANCH 6 8
ATOM      8  N   ALA B   1      74.090  48.465  15.281  1.00 63.44 LIG-0.07  N 
ATOM      9 H2   ALA B   1      74.464  49.215  14.981  1.00 63.44 LIG 0.28  HD
ATOM     10 H3   ALA B   1      73.208  48.573  15.329  1.00 63.44 LIG 0.28  HD
ATOM     11 H1   ALA B   1      74.410  48.277  16.090  1.00 63.44 LIG 0.28  HD
ENDBRANCH 6 8
ENDBRANCH 3 6
ENDBRANCH 1 2
BRANCH 1 12
ATOM     12  C   ILE B   2      74.637  45.242  18.732  1.00 63.93 LIG 0.24  C 
ATOM     13  N   HIS B   3      74.753  44.224  19.578  1.00 63.34 LIG-0.34  N 
ATOM     14 H    HIS B   3      74.893  43.410  19.337  1.00 63.34 LIG 0.16  HD
ATOM     15 O    ILE B   2      74.437  46.401  19.101  1.00 63.64 LIG-0.27  OA
BRANCH 13 16
ATOM     16  CA  HIS B   3      74.648  44.422  21.017  1.00 63.18 LIG 0.19  C 
BRANCH 16 17
ATOM     17  CB  HIS B   3      74.542  43.073  21.733  1.00 62.24 LIG 0.10  C 
BRANCH 17 18
ATOM     18  CG  HIS B   3      75.640  42.115  21.388  1.00 63.21 LIG 0.06  A 
ATOM     19  CD2 HIS B   3      76.818  41.849  22.002  1.00 62.69 LIG 0.14  A 
ATOM     20 NE2  HIS B   3      77.451  40.880  21.263  1.00 63.05 LIG-0.25  NA
ATOM     21  CE1 HIS B   3      76.689  40.559  20.232  1.00 63.79 LIG 0.23  A 
ATOM     22 ND1  HIS B   3      75.590  41.291  20.284  1.00 63.44 LIG-0.24  NA
ENDBRANCH 17 18
ENDBRANCH 16 17
BRANCH 16 23
ATOM     23  C   HIS B   3      75.867  45.180  21.528  1.00 63.55 LIG 0.20  C 
ATOM     24 OXT  HIS B   3      76.378  46.043  20.786  1.00 62.89 LIG-0.65  OA
ATOM     25 O    HIS B   3      76.294  44.905  22.671  1.00 64.85 LIG-0.65  OA
ENDBRANCH 16 23
ENDBRANCH 13 16
ENDBRANCH 1 12
BRANCH 1 26
ATOM     26  CB  ILE B   2      76.135  44.229  17.019  1.00 64.73 LIG 0.01  C 
ATOM     27  CG2 ILE B   2      77.173  44.801  17.981  1.00 64.62 LIG 0.01  C 
BRANCH 26 28
ATOM     28  CG1 ILE B   2      75.999  42.716  17.203  1.00 64.82 LIG 0.00  C 
ATOM     29  CD1 ILE B   2      75.416  42.000  16.006  1.00 66.82 LIG 0.01  C 
ENDBRANCH 26 28
ENDBRANCH 1 26
TORSDOF 10
ENDMDL
MODEL 72
USER: ADFR SOLUTION from run 35
USER: SCORE 11.078927 LL:  -2.257 LR:  -8.920 RR:   0.000 FEB:  -5.937
USER: RMSD 5.516973
USER: SEED 34
USER: STATUS no improvement in best in 27 clusters for 5 generations
USER: GENES 12
USER: genes 0 Translation |==|  0.43705 0.47845 0.55719
USER: genes 1 Rotation |==|  0.53603 0.58190 0.99187 0.50792
USER: genes 2 Torsion [C]-CA--N-[C] |==|  0.76203
USER: genes 3 Torsion [N]-C--CA-[N] |==|  0.89976
USER: genes 4 Torsion [C]-CA--N-[H2] |==|  0.00998
USER: genes 5 Torsion [N]-CA--C-[N] |==|  0.34157
USER: genes 6 Torsion [C]-N--CA-[CB] |==|  0.37360
USER: genes 7 Torsion [N]-CA--CB-[CG] |==|  0.92101
USER: genes 8 Torsion [CA]-CB--CG-[CD2] |==|  0.31355
USER: genes 9 Torsion [N]-CA--C-[OXT] |==|  0.58907
USER: genes 10 Torsion [N]-CA--CB-[CG2] |==|  0.43053
USER: genes 11 Torsion [CA]-CB--CG1-[CD1] |==|  0.42001
ROOT
ATOM      1  CA  ILE B   2      75.257  46.157  17.751  1.00 64.17 LIG 0.18  C 
ENDROOT
BRANCH 1 2
ATOM      2  N   ILE B   2      75.879  44.952  17.217  1.00 64.56 LIG-0.35  N 
ATOM      3  C   ALA B   1      75.548  44.461  16.026  1.00 64.53 LIG 0.25  C 
ATOM      4 O    ALA B   1      74.708  44.989  15.294  1.00 64.21 LIG-0.27  OA
ATOM      5 H    ILE B   2      76.466  44.597  17.735  1.00 64.56 LIG 0.16  HD
BRANCH 3 6
ATOM      6  CA  ALA B   1      76.279  43.188  15.597  1.00 64.34 LIG 0.27  C 
ATOM      7  CB  ALA B   1      75.556  41.960  16.140  1.00 65.15 LIG 0.05  C 
BRANCH 6 8
ATOM      8  N   ALA B   1      77.697  43.186  16.057  1.00 63.44 LIG-0.07  N 
ATOM      9 H2   ALA B   1      77.851  43.912  16.549  1.00 63.44 LIG 0.28  HD
ATOM     10 H3   ALA B   1      77.850  42.459  16.546  1.00 63.44 LIG 0.28  HD
ATOM     11 H1   ALA B   1      78.238  43.186  15.350  1.00 63.44 LIG 0.28  HD
ENDBRANCH 6 8
ENDBRANCH 3 6
ENDBRANCH 1 2
BRANCH 1 12
ATOM     12  C   ILE B   2      75.968  47.415  17.261  1.00 63.93 LIG 0.24  C 
ATOM     13  N   HIS B   3      75.215  48.301  16.618  1.00 63.34 LIG-0.34  N 
ATOM     14 H    HIS B   3      74.374  48.202  16.469  1.00 63.34 LIG 0.16  HD
ATOM     15 O    ILE B   2      77.172  47.580  17.465  1.00 63.64 LIG-0.27  OA
BRANCH 13 16
ATOM     16  CA  HIS B   3      75.780  49.542  16.107  1.00 63.18 LIG 0.19  C 
BRANCH 16 17
ATOM     17  CB  HIS B   3      75.297  49.796  14.677  1.00 62.24 LIG 0.10  C 
BRANCH 17 18
ATOM     18  CG  HIS B   3      74.979  48.548  13.912  1.00 63.21 LIG 0.06  A 
ATOM     19  CD2 HIS B   3      73.803  48.061  13.448  1.00 62.69 LIG 0.14  A 
ATOM     20 NE2  HIS B   3      74.077  46.874  12.814  1.00 63.05 LIG-0.25  NA
ATOM     21  CE1 HIS B   3      75.376  46.640  12.883  1.00 63.79 LIG 0.23  A 
ATOM     22 ND1  HIS B   3      75.943  47.636  13.542  1.00 63.44 LIG-0.24  NA
ENDBRANCH 17 18
ENDBRANCH 16 17
BRANCH 16 23
ATOM     23  C   HIS B   3      75.374  50.706  17.001  1.00 63.55 LIG 0.20  C 
ATOM     24 OXT  HIS B   3      75.215  51.826  16.475  1.00 62.89 LIG-0.65  OA
ATOM     25 O    HIS B   3      75.215  50.483  18.221  1.00 64.85 LIG-0.65  OA
ENDBRANCH 16 23
ENDBRANCH 13 16
ENDBRANCH 1 12
BRANCH 1 26
ATOM     26  CB  ILE B   2      75.271  46.151  19.292  1.00 64.73 LIG 0.01  C 
ATOM     27  CG2 ILE B   2      75.215  47.581  19.823  1.00 64.62 LIG 0.01  C 
BRANCH 26 28
ATOM     28  CG1 ILE B   2      74.090  45.331  19.815  1.00 64.82 LIG 0.00  C 
ATOM     29  CD1 ILE B   2      74.338  44.680  21.157  1.00 66.82 LIG 0.01  C 
ENDBRANCH 26 28
ENDBRANCH 1 26
TORSDOF 10
ENDMDL
MODEL 73
USER: ADFR SOLUTION from run 112
USER: SCORE 10.440654 LL:  -2.019 LR:  -8.917 RR:   0.000 FEB:  -5.934
USER: RMSD 4.849310
USER: SEED 111
USER: STATUS no improvement in best in 22 clusters for 5 generations
USER: GENES 12
USER: genes 0 Translation |==|  0.56997 0.49017 0.27658
USER: genes 1 Rotation |==|  0.30593 0.71747 0.31213 0.86021
USER: genes 2 Torsion [C]-CA--N-[C] |==|  0.79873
USER: genes 3 Torsion [N]-C--CA-[N] |==|  0.36715
USER: genes 4 Torsion [C]-CA--N-[H2] |==|  0.58523
USER: genes 5 Torsion [N]-CA--C-[N] |==|  0.52499
USER: genes 6 Torsion [C]-N--CA-[CB] |==|  0.36503
USER: genes 7 Torsion [N]-CA--CB-[CG] |==|  0.86156
USER: genes 8 Torsion [CA]-CB--CG-[CD2] |==|  0.40036
USER: genes 9 Torsion [N]-CA--C-[OXT] |==|  0.07063
USER: genes 10 Torsion [N]-CA--CB-[CG2] |==|  0.65110
USER: genes 11 Torsion [CA]-CB--CG1-[CD1] |==|  0.75752
ROOT
ATOM      1  CA  ILE B   2      76.752  46.377  13.331  1.00 64.17 LIG 0.18  C 
ENDROOT
BRANCH 1 2
ATOM      2  N   ILE B   2      75.963  47.255  12.477  1.00 64.56 LIG-0.35  N 
ATOM      3  C   ALA B   1      74.707  46.970  12.148  1.00 64.53 LIG 0.25  C 
ATOM      4 O    ALA B   1      74.124  45.958  12.543  1.00 64.21 LIG-0.27  OA
ATOM      5 H    ILE B   2      76.379  47.960  12.213  1.00 64.56 LIG 0.16  HD
BRANCH 3 6
ATOM      6  CA  ALA B   1      74.003  47.980  11.241  1.00 64.34 LIG 0.27  C 
ATOM      7  CB  ALA B   1      72.999  48.798  12.047  1.00 65.15 LIG 0.05  C 
BRANCH 6 8
ATOM      8  N   ALA B   1      73.313  47.311  10.101  1.00 63.44 LIG-0.07  N 
ATOM      9 H2   ALA B   1      73.307  47.855   9.397  1.00 63.44 LIG 0.28  HD
ATOM     10 H3   ALA B   1      73.745  46.561   9.892  1.00 63.44 LIG 0.28  HD
ATOM     11 H1   ALA B   1      72.477  47.116  10.333  1.00 63.44 LIG 0.28  HD
ENDBRANCH 6 8
ENDBRANCH 3 6
ENDBRANCH 1 2
BRANCH 1 12
ATOM     12  C   ILE B   2      76.283  46.440  14.782  1.00 63.93 LIG 0.24  C 
ATOM     13  N   HIS B   3      77.050  45.822  15.673  1.00 63.34 LIG-0.34  N 
ATOM     14 H    HIS B   3      77.774  45.400  15.478  1.00 63.34 LIG 0.16  HD
ATOM     15 O    ILE B   2      75.250  47.039  15.086  1.00 63.64 LIG-0.27  OA
BRANCH 13 16
ATOM     16  CA  HIS B   3      76.707  45.816  17.089  1.00 63.18 LIG 0.19  C 
BRANCH 16 17
ATOM     17  CB  HIS B   3      76.792  44.395  17.650  1.00 62.24 LIG 0.10  C 
BRANCH 17 18
ATOM     18  CG  HIS B   3      76.060  43.375  16.834  1.00 63.21 LIG 0.06  A 
ATOM     19  CD2 HIS B   3      76.346  42.080  16.557  1.00 62.69 LIG 0.14  A 
ATOM     20 NE2  HIS B   3      75.337  41.603  15.757  1.00 63.05 LIG-0.25  NA
ATOM     21  CE1 HIS B   3      74.460  42.570  15.550  1.00 63.79 LIG 0.23  A 
ATOM     22 ND1  HIS B   3      74.873  43.650  16.189  1.00 63.44 LIG-0.24  NA
ENDBRANCH 17 18
ENDBRANCH 16 17
BRANCH 16 23
ATOM     23  C   HIS B   3      77.654  46.729  17.857  1.00 63.55 LIG 0.20  C 
ATOM     24 OXT  HIS B   3      78.200  47.666  17.240  1.00 62.89 LIG-0.65  OA
ATOM     25 O    HIS B   3      77.836  46.499  19.073  1.00 64.85 LIG-0.65  OA
ENDBRANCH 16 23
ENDBRANCH 13 16
ENDBRANCH 1 12
BRANCH 1 26
ATOM     26  CB  ILE B   2      78.247  46.750  13.279  1.00 64.73 LIG 0.01  C 
ATOM     27  CG2 ILE B   2      79.080  45.528  12.903  1.00 64.62 LIG 0.01  C 
BRANCH 26 28
ATOM     28  CG1 ILE B   2      78.460  47.884  12.274  1.00 64.82 LIG 0.00  C 
ATOM     29  CD1 ILE B   2      78.679  47.414  10.854  1.00 66.82 LIG 0.01  C 
ENDBRANCH 26 28
ENDBRANCH 1 26
TORSDOF 10
ENDMDL
MODEL 74
USER: ADFR SOLUTION from run 145
USER: SCORE 10.633266 LL:  -2.494 LR:  -8.897 RR:   0.000 FEB:  -5.914
USER: RMSD 6.457446
USER: SEED 144
USER: STATUS no improvement in best in 20 clusters for 5 generations
USER: GENES 12
USER: genes 0 Translation |==|  0.54571 0.41044 0.35340
USER: genes 1 Rotation |==|  0.82495 0.29421 0.22756 0.66682
USER: genes 2 Torsion [C]-CA--N-[C] |==|  0.21549
USER: genes 3 Torsion [N]-C--CA-[N] |==|  0.06712
USER: genes 4 Torsion [C]-CA--N-[H2] |==|  0.61154
USER: genes 5 Torsion [N]-CA--C-[N] |==|  0.88467
USER: genes 6 Torsion [C]-N--CA-[CB] |==|  0.37892
USER: genes 7 Torsion [N]-CA--CB-[CG] |==|  0.20625
USER: genes 8 Torsion [CA]-CB--CG-[CD2] |==|  0.35265
USER: genes 9 Torsion [N]-CA--C-[OXT] |==|  0.45885
USER: genes 10 Torsion [N]-CA--CB-[CG2] |==|  0.41033
USER: genes 11 Torsion [CA]-CB--CG1-[CD1] |==|  0.17881
ROOT
ATOM      1  CA  ILE B   2      76.479  44.882  14.541  1.00 64.17 LIG 0.18  C 
ENDROOT
BRANCH 1 2
ATOM      2  N   ILE B   2      77.044  45.126  15.862  1.00 64.56 LIG-0.35  N 
ATOM      3  C   ALA B   1      76.396  45.836  16.781  1.00 64.53 LIG 0.25  C 
ATOM      4 O    ALA B   1      75.282  46.325  16.587  1.00 64.21 LIG-0.27  OA
ATOM      5 H    ILE B   2      77.819  44.774  15.987  1.00 64.56 LIG 0.16  HD
BRANCH 3 6
ATOM      6  CA  ALA B   1      77.112  46.014  18.121  1.00 64.34 LIG 0.27  C 
ATOM      7  CB  ALA B   1      76.776  47.377  18.717  1.00 65.15 LIG 0.05  C 
BRANCH 6 8
ATOM      8  N   ALA B   1      78.590  45.873  17.978  1.00 63.44 LIG-0.07  N 
ATOM      9 H2   ALA B   1      78.913  45.418  18.672  1.00 63.44 LIG 0.28  HD
ATOM     10 H3   ALA B   1      78.775  45.436  17.226  1.00 63.44 LIG 0.28  HD
ATOM     11 H1   ALA B   1      78.964  46.680  17.952  1.00 63.44 LIG 0.28  HD
ENDBRANCH 6 8
ENDBRANCH 3 6
ENDBRANCH 1 2
BRANCH 1 12
ATOM     12  C   ILE B   2      76.616  46.106  13.641  1.00 63.93 LIG 0.24  C 
ATOM     13  N   HIS B   3      76.370  47.281  14.210  1.00 63.34 LIG-0.34  N 
ATOM     14 H    HIS B   3      76.143  47.381  15.034  1.00 63.34 LIG 0.16  HD
ATOM     15 O    ILE B   2      76.940  45.988  12.458  1.00 63.64 LIG-0.27  OA
BRANCH 13 16
ATOM     16  CA  HIS B   3      76.471  48.522  13.453  1.00 63.18 LIG 0.19  C 
BRANCH 16 17
ATOM     17  CB  HIS B   3      75.285  49.437  13.771  1.00 62.24 LIG 0.10  C 
BRANCH 17 18
ATOM     18  CG  HIS B   3      75.366  50.089  15.117  1.00 63.21 LIG 0.06  A 
ATOM     19  CD2 HIS B   3      75.278  51.390  15.485  1.00 62.69 LIG 0.14  A 
ATOM     20 NE2  HIS B   3      75.421  51.436  16.850  1.00 63.05 LIG-0.25  NA
ATOM     21  CE1 HIS B   3      75.590  50.207  17.306  1.00 63.79 LIG 0.23  A 
ATOM     22 ND1  HIS B   3      75.560  49.375  16.280  1.00 63.44 LIG-0.24  NA
ENDBRANCH 17 18
ENDBRANCH 16 17
BRANCH 16 23
ATOM     23  C   HIS B   3      77.774  49.234  13.793  1.00 63.55 LIG 0.20  C 
ATOM     24 OXT  HIS B   3      78.155  50.154  13.042  1.00 62.89 LIG-0.65  OA
ATOM     25 O    HIS B   3      78.398  48.865  14.812  1.00 64.85 LIG-0.65  OA
ENDBRANCH 16 23
ENDBRANCH 13 16
ENDBRANCH 1 12
BRANCH 1 26
ATOM     26  CB  ILE B   2      74.987  44.505  14.638  1.00 64.73 LIG 0.01  C 
ATOM     27  CG2 ILE B   2      74.238  45.014  13.408  1.00 64.62 LIG 0.01  C 
BRANCH 26 28
ATOM     28  CG1 ILE B   2      74.847  42.988  14.770  1.00 64.82 LIG 0.00  C 
ATOM     29  CD1 ILE B   2      75.438  42.423  16.042  1.00 66.82 LIG 0.01  C 
ENDBRANCH 26 28
ENDBRANCH 1 26
TORSDOF 10
ENDMDL
MODEL 75
USER: ADFR SOLUTION from run 122
USER: SCORE 10.681339 LL:  -2.360 LR:  -8.904 RR:   0.000 FEB:  -5.921
USER: RMSD 6.060393
USER: SEED 121
USER: STATUS no improvement in best in 21 clusters for 5 generations
USER: GENES 12
USER: genes 0 Translation |==|  0.37850 0.48100 0.36125
USER: genes 1 Rotation |==|  0.35352 0.76099 0.13836 0.67216
USER: genes 2 Torsion [C]-CA--N-[C] |==|  0.60757
USER: genes 3 Torsion [N]-C--CA-[N] |==|  0.47852
USER: genes 4 Torsion [C]-CA--N-[H2] |==|  0.47816
USER: genes 5 Torsion [N]-CA--C-[N] |==|  0.94048
USER: genes 6 Torsion [C]-N--CA-[CB] |==|  0.21652
USER: genes 7 Torsion [N]-CA--CB-[CG] |==|  0.15793
USER: genes 8 Torsion [CA]-CB--CG-[CD2] |==|  0.79622
USER: genes 9 Torsion [N]-CA--C-[OXT] |==|  0.93879
USER: genes 10 Torsion [N]-CA--CB-[CG2] |==|  0.40648
USER: genes 11 Torsion [CA]-CB--CG1-[CD1] |==|  0.76202
ROOT
ATOM      1  CA  ILE B   2      74.598  46.205  14.665  1.00 64.17 LIG 0.18  C 
ENDROOT
BRANCH 1 2
ATOM      2  N   ILE B   2      74.607  47.041  13.471  1.00 64.56 LIG-0.35  N 
ATOM      3  C   ALA B   1      73.789  46.810  12.448  1.00 64.53 LIG 0.25  C 
ATOM      4 O    ALA B   1      72.969  45.890  12.439  1.00 64.21 LIG-0.27  OA
ATOM      5 H    ILE B   2      75.179  47.682  13.492  1.00 64.56 LIG 0.16  HD
BRANCH 3 6
ATOM      6  CA  ALA B   1      73.913  47.765  11.260  1.00 64.34 LIG 0.27  C 
ATOM      7  CB  ALA B   1      73.496  49.172  11.673  1.00 65.15 LIG 0.05  C 
BRANCH 6 8
ATOM      8  N   ALA B   1      73.091  47.312  10.101  1.00 63.44 LIG-0.07  N 
ATOM      9 H2   ALA B   1      73.093  47.942   9.472  1.00 63.44 LIG 0.28  HD
ATOM     10 H3   ALA B   1      73.434  46.561   9.769  1.00 63.44 LIG 0.28  HD
ATOM     11 H1   ALA B   1      72.255  47.163  10.370  1.00 63.44 LIG 0.28  HD
ENDBRANCH 6 8
ENDBRANCH 3 6
ENDBRANCH 1 2
BRANCH 1 12
ATOM     12  C   ILE B   2      74.791  47.036  15.929  1.00 63.93 LIG 0.24  C 
ATOM     13  N   HIS B   3      75.358  48.226  15.767  1.00 63.34 LIG-0.34  N 
ATOM     14 H    HIS B   3      75.615  48.540  15.008  1.00 63.34 LIG 0.16  HD
ATOM     15 O    ILE B   2      74.430  46.609  17.027  1.00 63.64 LIG-0.27  OA
BRANCH 13 16
ATOM     16  CA  HIS B   3      75.592  49.112  16.900  1.00 63.18 LIG 0.19  C 
BRANCH 16 17
ATOM     17  CB  HIS B   3      76.822  48.654  17.688  1.00 62.24 LIG 0.10  C 
BRANCH 17 18
ATOM     18  CG  HIS B   3      78.071  48.567  16.866  1.00 63.21 LIG 0.06  A 
ATOM     19  CD2 HIS B   3      78.460  47.674  15.925  1.00 62.69 LIG 0.14  A 
ATOM     20 NE2  HIS B   3      79.702  48.063  15.485  1.00 63.05 LIG-0.25  NA
ATOM     21  CE1 HIS B   3      80.064  49.157  16.132  1.00 63.79 LIG 0.23  A 
ATOM     22 ND1  HIS B   3      79.097  49.483  16.972  1.00 63.44 LIG-0.24  NA
ENDBRANCH 17 18
ENDBRANCH 16 17
BRANCH 16 23
ATOM     23  C   HIS B   3      75.798  50.540  16.410  1.00 63.55 LIG 0.20  C 
ATOM     24 OXT  HIS B   3      76.159  50.711  15.229  1.00 62.89 LIG-0.65  OA
ATOM     25 O    HIS B   3      75.590  51.474  17.215  1.00 64.85 LIG-0.65  OA
ENDBRANCH 16 23
ENDBRANCH 13 16
ENDBRANCH 1 12
BRANCH 1 26
ATOM     26  CB  ILE B   2      75.710  45.138  14.602  1.00 64.73 LIG 0.01  C 
ATOM     27  CG2 ILE B   2      76.251  44.863  16.003  1.00 64.62 LIG 0.01  C 
BRANCH 26 28
ATOM     28  CG1 ILE B   2      75.160  43.858  13.971  1.00 64.82 LIG 0.00  C 
ATOM     29  CD1 ILE B   2      74.478  42.931  14.951  1.00 66.82 LIG 0.01  C 
ENDBRANCH 26 28
ENDBRANCH 1 26
TORSDOF 10
ENDMDL
MODEL 76
USER: ADFR SOLUTION from run 149
USER: SCORE 11.393710 LL:  -2.676 LR:  -8.877 RR:   0.000 FEB:  -5.894
USER: RMSD 5.999664
USER: SEED 148
USER: STATUS no improvement in best in 29 clusters for 5 generations
USER: GENES 12
USER: genes 0 Translation |==|  0.60065 0.43189 0.36562
USER: genes 1 Rotation |==|  0.81915 0.25497 0.68918 0.72872
USER: genes 2 Torsion [C]-CA--N-[C] |==|  0.68951
USER: genes 3 Torsion [N]-C--CA-[N] |==|  0.58955
USER: genes 4 Torsion [C]-CA--N-[H2] |==|  0.68624
USER: genes 5 Torsion [N]-CA--C-[N] |==|  0.07777
USER: genes 6 Torsion [C]-N--CA-[CB] |==|  0.24547
USER: genes 7 Torsion [N]-CA--CB-[CG] |==|  0.11607
USER: genes 8 Torsion [CA]-CB--CG-[CD2] |==|  0.10771
USER: genes 9 Torsion [N]-CA--C-[OXT] |==|  0.52652
USER: genes 10 Torsion [N]-CA--CB-[CG2] |==|  0.65567
USER: genes 11 Torsion [CA]-CB--CG1-[CD1] |==|  0.64503
ROOT
ATOM      1  CA  ILE B   2      77.097  45.284  14.734  1.00 64.17 LIG 0.18  C 
ENDROOT
BRANCH 1 2
ATOM      2  N   ILE B   2      75.959  46.155  14.471  1.00 64.56 LIG-0.35  N 
ATOM      3  C   ALA B   1      75.584  47.097  15.331  1.00 64.53 LIG 0.25  C 
ATOM      4 O    ALA B   1      76.170  47.304  16.396  1.00 64.21 LIG-0.27  OA
ATOM      5 H    ILE B   2      75.563  46.005  13.722  1.00 64.56 LIG 0.16  HD
BRANCH 3 6
ATOM      6  CA  ALA B   1      74.369  47.933  14.926  1.00 64.34 LIG 0.27  C 
ATOM      7  CB  ALA B   1      74.227  47.948  13.408  1.00 65.15 LIG 0.05  C 
BRANCH 6 8
ATOM      8  N   ALA B   1      74.465  49.330  15.440  1.00 63.44 LIG-0.07  N 
ATOM      9 H2   ALA B   1      73.833  49.465  16.052  1.00 63.44 LIG 0.28  HD
ATOM     10 H3   ALA B   1      75.265  49.456  15.808  1.00 63.44 LIG 0.28  HD
ATOM     11 H1   ALA B   1      74.355  49.902  14.767  1.00 63.44 LIG 0.28  HD
ENDBRANCH 6 8
ENDBRANCH 3 6
ENDBRANCH 1 2
BRANCH 1 12
ATOM     12  C   ILE B   2      78.251  45.570  13.778  1.00 63.93 LIG 0.24  C 
ATOM     13  N   HIS B   3      78.329  46.810  13.307  1.00 63.34 LIG-0.34  N 
ATOM     14 H    HIS B   3      77.777  47.438  13.509  1.00 63.34 LIG 0.16  HD
ATOM     15 O    ILE B   2      79.055  44.686  13.475  1.00 63.64 LIG-0.27  OA
BRANCH 13 16
ATOM     16  CA  HIS B   3      79.389  47.204  12.389  1.00 63.18 LIG 0.19  C 
BRANCH 16 17
ATOM     17  CB  HIS B   3      78.965  46.940  10.942  1.00 62.24 LIG 0.10  C 
BRANCH 17 18
ATOM     18  CG  HIS B   3      77.545  47.314  10.648  1.00 63.21 LIG 0.06  A 
ATOM     19  CD2 HIS B   3      76.794  48.363  11.063  1.00 62.69 LIG 0.14  A 
ATOM     20 NE2  HIS B   3      75.552  48.223  10.493  1.00 63.05 LIG-0.25  NA
ATOM     21  CE1 HIS B   3      75.539  47.128   9.754  1.00 63.79 LIG 0.23  A 
ATOM     22 ND1  HIS B   3      76.730  46.560   9.830  1.00 63.44 LIG-0.24  NA
ENDBRANCH 17 18
ENDBRANCH 16 17
BRANCH 16 23
ATOM     23  C   HIS B   3      79.709  48.683  12.568  1.00 63.55 LIG 0.20  C 
ATOM     24 OXT  HIS B   3      80.465  49.227  11.739  1.00 62.89 LIG-0.65  OA
ATOM     25 O    HIS B   3      79.194  49.283  13.538  1.00 64.85 LIG-0.65  OA
ENDBRANCH 16 23
ENDBRANCH 13 16
ENDBRANCH 1 12
BRANCH 1 26
ATOM     26  CB  ILE B   2      76.701  43.800  14.598  1.00 64.73 LIG 0.01  C 
ATOM     27  CG2 ILE B   2      77.028  43.051  15.887  1.00 64.62 LIG 0.01  C 
BRANCH 26 28
ATOM     28  CG1 ILE B   2      75.211  43.693  14.270  1.00 64.82 LIG 0.00  C 
ATOM     29  CD1 ILE B   2      74.443  42.771  15.189  1.00 66.82 LIG 0.01  C 
ENDBRANCH 26 28
ENDBRANCH 1 26
TORSDOF 10
ENDMDL
MODEL 77
USER: ADFR SOLUTION from run 124
USER: SCORE 10.654816 LL:  -2.430 LR:  -8.873 RR:   0.000 FEB:  -5.890
USER: RMSD 5.775798
USER: SEED 123
USER: STATUS no improvement in best in 22 clusters for 5 generations
USER: GENES 12
USER: genes 0 Translation |==|  0.53115 0.33488 0.42099
USER: genes 1 Rotation |==|  0.73359 0.21079 0.23712 0.70661
USER: genes 2 Torsion [C]-CA--N-[C] |==|  0.56667
USER: genes 3 Torsion [N]-C--CA-[N] |==|  0.01356
USER: genes 4 Torsion [C]-CA--N-[H2] |==|  0.58082
USER: genes 5 Torsion [N]-CA--C-[N] |==|  0.04799
USER: genes 6 Torsion [C]-N--CA-[CB] |==|  0.16194
USER: genes 7 Torsion [N]-CA--CB-[CG] |==|  0.08284
USER: genes 8 Torsion [CA]-CB--CG-[CD2] |==|  0.14398
USER: genes 9 Torsion [N]-CA--C-[OXT] |==|  0.87439
USER: genes 10 Torsion [N]-CA--CB-[CG2] |==|  0.63188
USER: genes 11 Torsion [CA]-CB--CG1-[CD1] |==|  0.24286
ROOT
ATOM      1  CA  ILE B   2      76.315  43.465  15.606  1.00 64.17 LIG 0.18  C 
ENDROOT
BRANCH 1 2
ATOM      2  N   ILE B   2      77.150  44.034  16.656  1.00 64.56 LIG-0.35  N 
ATOM      3  C   ALA B   1      77.465  43.347  17.751  1.00 64.53 LIG 0.25  C 
ATOM      4 O    ALA B   1      77.085  42.192  17.949  1.00 64.21 LIG-0.27  OA
ATOM      5 H    ILE B   2      77.414  44.838  16.503  1.00 64.56 LIG 0.16  HD
BRANCH 3 6
ATOM      6  CA  ALA B   1      78.345  44.073  18.769  1.00 64.34 LIG 0.27  C 
ATOM      7  CB  ALA B   1      77.698  44.023  20.150  1.00 65.15 LIG 0.05  C 
BRANCH 6 8
ATOM      8  N   ALA B   1      78.590  45.490  18.375  1.00 63.44 LIG-0.07  N 
ATOM      9 H2   ALA B   1      79.378  45.755  18.694  1.00 63.44 LIG 0.28  HD
ATOM     10 H3   ALA B   1      78.592  45.555  17.488  1.00 63.44 LIG 0.28  HD
ATOM     11 H1   ALA B   1      77.946  46.006  18.708  1.00 63.44 LIG 0.28  HD
ENDBRANCH 6 8
ENDBRANCH 3 6
ENDBRANCH 1 2
BRANCH 1 12
ATOM     12  C   ILE B   2      76.567  44.145  14.263  1.00 63.93 LIG 0.24  C 
ATOM     13  N   HIS B   3      77.691  44.846  14.163  1.00 63.34 LIG-0.34  N 
ATOM     14 H    HIS B   3      78.264  44.933  14.799  1.00 63.34 LIG 0.16  HD
ATOM     15 O    ILE B   2      75.760  44.034  13.338  1.00 63.64 LIG-0.27  OA
BRANCH 13 16
ATOM     16  CA  HIS B   3      78.042  45.538  12.930  1.00 63.18 LIG 0.19  C 
BRANCH 16 17
ATOM     17  CB  HIS B   3      76.947  46.539  12.552  1.00 62.24 LIG 0.10  C 
BRANCH 17 18
ATOM     18  CG  HIS B   3      76.210  47.104  13.726  1.00 63.21 LIG 0.06  A 
ATOM     19  CD2 HIS B   3      76.657  47.695  14.861  1.00 62.69 LIG 0.14  A 
ATOM     20 NE2  HIS B   3      75.553  48.029  15.607  1.00 63.05 LIG-0.25  NA
ATOM     21  CE1 HIS B   3      74.465  47.658  14.954  1.00 63.79 LIG 0.23  A 
ATOM     22 ND1  HIS B   3      74.834  47.098  13.816  1.00 63.44 LIG-0.24  NA
ENDBRANCH 17 18
ENDBRANCH 16 17
BRANCH 16 23
ATOM     23  C   HIS B   3      79.368  46.268  13.103  1.00 63.55 LIG 0.20  C 
ATOM     24 OXT  HIS B   3      79.546  46.928  14.146  1.00 62.89 LIG-0.65  OA
ATOM     25 O    HIS B   3      80.218  46.166  12.191  1.00 64.85 LIG-0.65  OA
ENDBRANCH 16 23
ENDBRANCH 13 16
ENDBRANCH 1 12
BRANCH 1 26
ATOM     26  CB  ILE B   2      74.820  43.600  15.954  1.00 64.73 LIG 0.01  C 
ATOM     27  CG2 ILE B   2      74.106  42.270  15.725  1.00 64.62 LIG 0.01  C 
BRANCH 26 28
ATOM     28  CG1 ILE B   2      74.668  44.055  17.406  1.00 64.82 LIG 0.00  C 
ATOM     29  CD1 ILE B   2      74.692  45.556  17.587  1.00 66.82 LIG 0.01  C 
ENDBRANCH 26 28
ENDBRANCH 1 26
TORSDOF 10
ENDMDL
MODEL 78
USER: ADFR SOLUTION from run 81
USER: SCORE 11.049104 LL:  -2.368 LR:  -8.861 RR:   0.000 FEB:  -5.878
USER: RMSD 6.813702
USER: SEED 80
USER: STATUS no improvement in best in 28 clusters for 5 generations
USER: GENES 12
USER: genes 0 Translation |==|  0.51295 0.39555 0.51716
USER: genes 1 Rotation |==|  0.02322 0.45626 0.64164 0.52667
USER: genes 2 Torsion [C]-CA--N-[C] |==|  0.75231
USER: genes 3 Torsion [N]-C--CA-[N] |==|  0.99918
USER: genes 4 Torsion [C]-CA--N-[H2] |==|  0.77485
USER: genes 5 Torsion [N]-CA--C-[N] |==|  0.28725
USER: genes 6 Torsion [C]-N--CA-[CB] |==|  0.26527
USER: genes 7 Torsion [N]-CA--CB-[CG] |==|  0.89540
USER: genes 8 Torsion [CA]-CB--CG-[CD2] |==|  0.33351
USER: genes 9 Torsion [N]-CA--C-[OXT] |==|  0.92968
USER: genes 10 Torsion [N]-CA--CB-[CG2] |==|  0.72959
USER: genes 11 Torsion [CA]-CB--CG1-[CD1] |==|  0.74564
ROOT
ATOM      1  CA  ILE B   2      76.111  44.602  17.120  1.00 64.17 LIG 0.18  C 
ENDROOT
BRANCH 1 2
ATOM      2  N   ILE B   2      76.057  43.471  18.037  1.00 64.56 LIG-0.35  N 
ATOM      3  C   ALA B   1      76.949  43.315  19.011  1.00 64.53 LIG 0.25  C 
ATOM      4 O    ALA B   1      77.868  44.111  19.212  1.00 64.21 LIG-0.27  OA
ATOM      5 H    ILE B   2      75.408  42.926  17.890  1.00 64.56 LIG 0.16  HD
BRANCH 3 6
ATOM      6  CA  ALA B   1      76.772  42.078  19.893  1.00 64.34 LIG 0.27  C 
ATOM      7  CB  ALA B   1      78.030  41.219  19.850  1.00 65.15 LIG 0.05  C 
BRANCH 6 8
ATOM      8  N   ALA B   1      75.590  41.269  19.476  1.00 63.44 LIG-0.07  N 
ATOM      9 H2   ALA B   1      74.850  41.630  19.813  1.00 63.44 LIG 0.28  HD
ATOM     10 H3   ALA B   1      75.537  41.258  18.588  1.00 63.44 LIG 0.28  HD
ATOM     11 H1   ALA B   1      75.679  40.437  19.779  1.00 63.44 LIG 0.28  HD
ENDBRANCH 6 8
ENDBRANCH 3 6
ENDBRANCH 1 2
BRANCH 1 12
ATOM     12  C   ILE B   2      75.321  45.793  17.656  1.00 63.93 LIG 0.24  C 
ATOM     13  N   HIS B   3      76.036  46.785  18.174  1.00 63.34 LIG-0.34  N 
ATOM     14 H    HIS B   3      76.895  46.788  18.221  1.00 63.34 LIG 0.16  HD
ATOM     15 O    ILE B   2      74.090  45.811  17.600  1.00 63.64 LIG-0.27  OA
BRANCH 13 16
ATOM     16  CA  HIS B   3      75.395  47.976  18.715  1.00 63.18 LIG 0.19  C 
BRANCH 16 17
ATOM     17  CB  HIS B   3      75.215  47.842  20.229  1.00 62.24 LIG 0.10  C 
BRANCH 17 18
ATOM     18  CG  HIS B   3      74.856  46.459  20.677  1.00 63.21 LIG 0.06  A 
ATOM     19  CD2 HIS B   3      75.487  45.599  21.513  1.00 62.69 LIG 0.14  A 
ATOM     20 NE2  HIS B   3      74.722  44.460  21.576  1.00 63.05 LIG-0.25  NA
ATOM     21  CE1 HIS B   3      73.659  44.613  20.807  1.00 63.79 LIG 0.23  A 
ATOM     22 ND1  HIS B   3      73.715  45.811  20.253  1.00 63.44 LIG-0.24  NA
ENDBRANCH 17 18
ENDBRANCH 16 17
BRANCH 16 23
ATOM     23  C   HIS B   3      76.237  49.207  18.404  1.00 63.55 LIG 0.20  C 
ATOM     24 OXT  HIS B   3      77.461  49.053  18.222  1.00 62.89 LIG-0.65  OA
ATOM     25 O    HIS B   3      75.658  50.314  18.342  1.00 64.85 LIG-0.65  OA
ENDBRANCH 16 23
ENDBRANCH 13 16
ENDBRANCH 1 12
BRANCH 1 26
ATOM     26  CB  ILE B   2      75.548  44.221  15.736  1.00 64.73 LIG 0.01  C 
ATOM     27  CG2 ILE B   2      76.689  43.861  14.788  1.00 64.62 LIG 0.01  C 
BRANCH 26 28
ATOM     28  CG1 ILE B   2      74.573  43.051  15.881  1.00 64.82 LIG 0.00  C 
ATOM     29  CD1 ILE B   2      75.215  41.691  15.725  1.00 66.82 LIG 0.01  C 
ENDBRANCH 26 28
ENDBRANCH 1 26
TORSDOF 10
ENDMDL
MODEL 79
USER: ADFR SOLUTION from run 68
USER: SCORE 10.826706 LL:  -2.083 LR:  -8.856 RR:   0.000 FEB:  -5.873
USER: RMSD 5.510093
USER: SEED 67
USER: STATUS no improvement in best in 10 clusters for 5 generations
USER: GENES 12
USER: genes 0 Translation |==|  0.41004 0.43989 0.51873
USER: genes 1 Rotation |==|  0.54830 0.38152 0.98218 0.53358
USER: genes 2 Torsion [C]-CA--N-[C] |==|  0.74130
USER: genes 3 Torsion [N]-C--CA-[N] |==|  0.41088
USER: genes 4 Torsion [C]-CA--N-[H2] |==|  0.71816
USER: genes 5 Torsion [N]-CA--C-[N] |==|  0.34482
USER: genes 6 Torsion [C]-N--CA-[CB] |==|  0.45227
USER: genes 7 Torsion [N]-CA--CB-[CG] |==|  0.78861
USER: genes 8 Torsion [CA]-CB--CG-[CD2] |==|  0.08927
USER: genes 9 Torsion [N]-CA--C-[OXT] |==|  0.41664
USER: genes 10 Torsion [N]-CA--CB-[CG2] |==|  0.09451
USER: genes 11 Torsion [CA]-CB--CG1-[CD1] |==|  0.28693
ROOT
ATOM      1  CA  ILE B   2      74.953  45.434  17.145  1.00 64.17 LIG 0.18  C 
ENDROOT
BRANCH 1 2
ATOM      2  N   ILE B   2      75.395  44.899  15.863  1.00 64.56 LIG-0.35  N 
ATOM      3  C   ALA B   1      74.929  45.368  14.710  1.00 64.53 LIG 0.25  C 
ATOM      4 O    ALA B   1      74.106  46.284  14.642  1.00 64.21 LIG-0.27  OA
ATOM      5 H    ILE B   2      75.973  44.265  15.924  1.00 64.56 LIG 0.16  HD
BRANCH 3 6
ATOM      6  CA  ALA B   1      75.478  44.708  13.445  1.00 64.34 LIG 0.27  C 
ATOM      7  CB  ALA B   1      76.733  45.436  12.976  1.00 65.15 LIG 0.05  C 
BRANCH 6 8
ATOM      8  N   ALA B   1      74.465  44.686  12.350  1.00 63.44 LIG-0.07  N 
ATOM      9 H2   ALA B   1      74.103  43.875  12.297  1.00 63.44 LIG 0.28  HD
ATOM     10 H3   ALA B   1      73.829  45.284  12.523  1.00 63.44 LIG 0.28  HD
ATOM     11 H1   ALA B   1      74.859  44.887  11.578  1.00 63.44 LIG 0.28  HD
ENDBRANCH 6 8
ENDBRANCH 3 6
ENDBRANCH 1 2
BRANCH 1 12
ATOM     12  C   ILE B   2      75.880  46.542  17.636  1.00 63.93 LIG 0.24  C 
ATOM     13  N   HIS B   3      75.306  47.710  17.902  1.00 63.34 LIG-0.34  N 
ATOM     14 H    HIS B   3      74.465  47.867  17.813  1.00 63.34 LIG 0.16  HD
ATOM     15 O    ILE B   2      77.088  46.341  17.773  1.00 63.64 LIG-0.27  OA
BRANCH 13 16
ATOM     16  CA  HIS B   3      76.087  48.843  18.380  1.00 63.18 LIG 0.19  C 
BRANCH 16 17
ATOM     17  CB  HIS B   3      75.301  50.144  18.203  1.00 62.24 LIG 0.10  C 
BRANCH 17 18
ATOM     18  CG  HIS B   3      75.261  50.642  16.791  1.00 63.21 LIG 0.06  A 
ATOM     19  CD2 HIS B   3      75.260  49.978  15.610  1.00 62.69 LIG 0.14  A 
ATOM     20 NE2  HIS B   3      75.215  50.922  14.614  1.00 63.05 LIG-0.25  NA
ATOM     21  CE1 HIS B   3      75.188  52.124  15.161  1.00 63.79 LIG 0.23  A 
ATOM     22 ND1  HIS B   3      75.215  51.983  16.475  1.00 63.44 LIG-0.24  NA
ENDBRANCH 17 18
ENDBRANCH 16 17
BRANCH 16 23
ATOM     23  C   HIS B   3      76.437  48.651  19.851  1.00 63.55 LIG 0.20  C 
ATOM     24 OXT  HIS B   3      77.499  49.149  20.274  1.00 62.89 LIG-0.65  OA
ATOM     25 O    HIS B   3      75.638  48.006  20.565  1.00 64.85 LIG-0.65  OA
ENDBRANCH 16 23
ENDBRANCH 13 16
ENDBRANCH 1 12
BRANCH 1 26
ATOM     26  CB  ILE B   2      74.897  44.328  18.217  1.00 64.73 LIG 0.01  C 
ATOM     27  CG2 ILE B   2      76.009  43.309  17.978  1.00 64.62 LIG 0.01  C 
BRANCH 26 28
ATOM     28  CG1 ILE B   2      75.021  44.952  19.608  1.00 64.82 LIG 0.00  C 
ATOM     29  CD1 ILE B   2      73.714  45.043  20.362  1.00 66.82 LIG 0.01  C 
ENDBRANCH 26 28
ENDBRANCH 1 26
TORSDOF 10
ENDMDL
MODEL 80
USER: ADFR SOLUTION from run 144
USER: SCORE 11.059244 LL:  -2.335 LR:  -8.848 RR:   0.000 FEB:  -5.865
USER: RMSD 4.712872
USER: SEED 143
USER: STATUS no improvement in best in 13 clusters for 5 generations
USER: GENES 12
USER: genes 0 Translation |==|  0.59663 0.43754 0.44965
USER: genes 1 Rotation |==|  0.74906 0.23469 0.48174 0.84241
USER: genes 2 Torsion [C]-CA--N-[C] |==|  0.17744
USER: genes 3 Torsion [N]-C--CA-[N] |==|  0.54991
USER: genes 4 Torsion [C]-CA--N-[H2] |==|  0.67989
USER: genes 5 Torsion [N]-CA--C-[N] |==|  0.06698
USER: genes 6 Torsion [C]-N--CA-[CB] |==|  0.29114
USER: genes 7 Torsion [N]-CA--CB-[CG] |==|  0.87795
USER: genes 8 Torsion [CA]-CB--CG-[CD2] |==|  0.89050
USER: genes 9 Torsion [N]-CA--C-[OXT] |==|  0.18497
USER: genes 10 Torsion [N]-CA--CB-[CG2] |==|  0.56248
USER: genes 11 Torsion [CA]-CB--CG1-[CD1] |==|  0.70033
ROOT
ATOM      1  CA  ILE B   2      77.052  45.390  16.057  1.00 64.17 LIG 0.18  C 
ENDROOT
BRANCH 1 2
ATOM      2  N   ILE B   2      76.870  46.819  16.277  1.00 64.56 LIG-0.35  N 
ATOM      3  C   ALA B   1      75.873  47.494  15.712  1.00 64.53 LIG 0.25  C 
ATOM      4 O    ALA B   1      75.037  46.964  14.978  1.00 64.21 LIG-0.27  OA
ATOM      5 H    ILE B   2      77.456  47.175  16.796  1.00 64.56 LIG 0.16  HD
BRANCH 3 6
ATOM      6  CA  ALA B   1      75.809  48.989  16.029  1.00 64.34 LIG 0.27  C 
ATOM      7  CB  ALA B   1      76.155  49.229  17.494  1.00 65.15 LIG 0.05  C 
BRANCH 6 8
ATOM      8  N   ALA B   1      74.465  49.559  15.725  1.00 63.44 LIG-0.07  N 
ATOM      9 H2   ALA B   1      74.537  50.154  15.067  1.00 63.44 LIG 0.28  HD
ATOM     10 H3   ALA B   1      73.915  48.906  15.475  1.00 63.44 LIG 0.28  HD
ATOM     11 H1   ALA B   1      74.141  49.958  16.452  1.00 63.44 LIG 0.28  HD
ENDBRANCH 6 8
ENDBRANCH 3 6
ENDBRANCH 1 2
BRANCH 1 12
ATOM     12  C   ILE B   2      77.358  45.085  14.594  1.00 63.93 LIG 0.24  C 
ATOM     13  N   HIS B   3      77.892  46.076  13.888  1.00 63.34 LIG-0.34  N 
ATOM     14 H    HIS B   3      78.067  46.856  14.207  1.00 63.34 LIG 0.16  HD
ATOM     15 O    ILE B   2      77.118  43.975  14.116  1.00 63.64 LIG-0.27  OA
BRANCH 13 16
ATOM     16  CA  HIS B   3      78.231  45.905  12.482  1.00 63.18 LIG 0.19  C 
BRANCH 16 17
ATOM     17  CB  HIS B   3      77.205  46.618  11.597  1.00 62.24 LIG 0.10  C 
BRANCH 17 18
ATOM     18  CG  HIS B   3      75.785  46.403  12.021  1.00 63.21 LIG 0.06  A 
ATOM     19  CD2 HIS B   3      75.150  45.302  12.489  1.00 62.69 LIG 0.14  A 
ATOM     20 NE2  HIS B   3      73.844  45.656  12.725  1.00 63.05 LIG-0.25  NA
ATOM     21  CE1 HIS B   3      73.681  46.930  12.414  1.00 63.79 LIG 0.23  A 
ATOM     22 ND1  HIS B   3      74.838  47.405  11.987  1.00 63.44 LIG-0.24  NA
ENDBRANCH 17 18
ENDBRANCH 16 17
BRANCH 16 23
ATOM     23  C   HIS B   3      79.621  46.465  12.210  1.00 63.55 LIG 0.20  C 
ATOM     24 OXT  HIS B   3      80.599  45.893  12.732  1.00 62.89 LIG-0.65  OA
ATOM     25 O    HIS B   3      79.716  47.469  11.471  1.00 64.85 LIG-0.65  OA
ENDBRANCH 16 23
ENDBRANCH 13 16
ENDBRANCH 1 12
BRANCH 1 26
ATOM     26  CB  ILE B   2      75.794  44.601  16.472  1.00 64.73 LIG 0.01  C 
ATOM     27  CG2 ILE B   2      76.160  43.149  16.769  1.00 64.62 LIG 0.01  C 
BRANCH 26 28
ATOM     28  CG1 ILE B   2      75.152  45.261  17.694  1.00 64.82 LIG 0.00  C 
ATOM     29  CD1 ILE B   2      75.321  44.479  18.976  1.00 66.82 LIG 0.01  C 
ENDBRANCH 26 28
ENDBRANCH 1 26
TORSDOF 10
ENDMDL
MODEL 81
USER: ADFR SOLUTION from run 131
USER: SCORE 11.136172 LL:  -2.487 LR:  -8.855 RR:   0.000 FEB:  -5.872
USER: RMSD 5.938930
USER: SEED 130
USER: STATUS no improvement in best in 17 clusters for 5 generations
USER: GENES 12
USER: genes 0 Translation |==|  0.42869 0.53862 0.47667
USER: genes 1 Rotation |==|  0.60695 0.52852 0.98748 0.51071
USER: genes 2 Torsion [C]-CA--N-[C] |==|  0.77745
USER: genes 3 Torsion [N]-C--CA-[N] |==|  0.47650
USER: genes 4 Torsion [C]-CA--N-[H2] |==|  0.63050
USER: genes 5 Torsion [N]-CA--C-[N] |==|  0.29470
USER: genes 6 Torsion [C]-N--CA-[CB] |==|  0.37542
USER: genes 7 Torsion [N]-CA--CB-[CG] |==|  0.90483
USER: genes 8 Torsion [CA]-CB--CG-[CD2] |==|  0.31322
USER: genes 9 Torsion [N]-CA--C-[OXT] |==|  0.68403
USER: genes 10 Torsion [N]-CA--CB-[CG2] |==|  0.49364
USER: genes 11 Torsion [CA]-CB--CG1-[CD1] |==|  0.59976
ROOT
ATOM      1  CA  ILE B   2      75.163  47.285  16.483  1.00 64.17 LIG 0.18  C 
ENDROOT
BRANCH 1 2
ATOM      2  N   ILE B   2      75.497  46.199  15.570  1.00 64.56 LIG-0.35  N 
ATOM      3  C   ALA B   1      74.889  46.059  14.395  1.00 64.53 LIG 0.25  C 
ATOM      4 O    ALA B   1      74.017  46.832  13.996  1.00 64.21 LIG-0.27  OA
ATOM      5 H    ILE B   2      76.111  45.671  15.857  1.00 64.56 LIG 0.16  HD
BRANCH 3 6
ATOM      6  CA  ALA B   1      75.339  44.871  13.544  1.00 64.34 LIG 0.27  C 
ATOM      7  CB  ALA B   1      76.786  45.061  13.102  1.00 65.15 LIG 0.05  C 
BRANCH 6 8
ATOM      8  N   ALA B   1      74.464  44.686  12.350  1.00 63.44 LIG-0.07  N 
ATOM      9 H2   ALA B   1      74.240  43.828  12.277  1.00 63.44 LIG 0.28  HD
ATOM     10 H3   ALA B   1      73.728  45.178  12.442  1.00 63.44 LIG 0.28  HD
ATOM     11 H1   ALA B   1      74.902  44.942  11.619  1.00 63.44 LIG 0.28  HD
ENDBRANCH 6 8
ENDBRANCH 3 6
ENDBRANCH 1 2
BRANCH 1 12
ATOM     12  C   ILE B   2      75.843  48.588  16.073  1.00 63.93 LIG 0.24  C 
ATOM     13  N   HIS B   3      75.061  49.510  15.523  1.00 63.34 LIG-0.34  N 
ATOM     14 H    HIS B   3      74.217  49.410  15.390  1.00 63.34 LIG 0.16  HD
ATOM     15 O    ILE B   2      77.051  48.754  16.254  1.00 63.64 LIG-0.27  OA
BRANCH 13 16
ATOM     16  CA  HIS B   3      75.595  50.795  15.094  1.00 63.18 LIG 0.19  C 
BRANCH 16 17
ATOM     17  CB  HIS B   3      75.054  51.161  13.710  1.00 62.24 LIG 0.10  C 
BRANCH 17 18
ATOM     18  CG  HIS B   3      74.846  49.982  12.809  1.00 63.21 LIG 0.06  A 
ATOM     19  CD2 HIS B   3      73.715  49.431  12.307  1.00 62.69 LIG 0.14  A 
ATOM     20 NE2  HIS B   3      74.094  48.361  11.534  1.00 63.05 LIG-0.25  NA
ATOM     21  CE1 HIS B   3      75.411  48.258  11.558  1.00 63.79 LIG 0.23  A 
ATOM     22 ND1  HIS B   3      75.890  49.225  12.320  1.00 63.44 LIG-0.24  NA
ENDBRANCH 17 18
ENDBRANCH 16 17
BRANCH 16 23
ATOM     23  C   HIS B   3      75.215  51.877  16.097  1.00 63.55 LIG 0.20  C 
ATOM     24 OXT  HIS B   3      74.435  52.777  15.725  1.00 62.89 LIG-0.65  OA
ATOM     25 O    HIS B   3      75.699  51.809  17.248  1.00 64.85 LIG-0.65  OA
ENDBRANCH 16 23
ENDBRANCH 13 16
ENDBRANCH 1 12
BRANCH 1 26
ATOM     26  CB  ILE B   2      75.581  46.943  17.926  1.00 64.73 LIG 0.01  C 
ATOM     27  CG2 ILE B   2      75.273  48.116  18.853  1.00 64.62 LIG 0.01  C 
BRANCH 26 28
ATOM     28  CG1 ILE B   2      74.853  45.680  18.388  1.00 64.82 LIG 0.00  C 
ATOM     29  CD1 ILE B   2      74.465  45.692  19.849  1.00 66.82 LIG 0.01  C 
ENDBRANCH 26 28
ENDBRANCH 1 26
TORSDOF 10
ENDMDL
MODEL 82
USER: ADFR SOLUTION from run 123
USER: SCORE 10.889516 LL:  -2.453 LR:  -8.837 RR:   0.000 FEB:  -5.854
USER: RMSD 6.330603
USER: SEED 122
USER: STATUS no improvement in best in 22 clusters for 5 generations
USER: GENES 12
USER: genes 0 Translation |==|  0.44874 0.53554 0.34266
USER: genes 1 Rotation |==|  0.15611 0.59412 0.73438 0.76066
USER: genes 2 Torsion [C]-CA--N-[C] |==|  0.74182
USER: genes 3 Torsion [N]-C--CA-[N] |==|  0.32093
USER: genes 4 Torsion [C]-CA--N-[H2] |==|  0.98906
USER: genes 5 Torsion [N]-CA--C-[N] |==|  0.84037
USER: genes 6 Torsion [C]-N--CA-[CB] |==|  0.30865
USER: genes 7 Torsion [N]-CA--CB-[CG] |==|  0.80735
USER: genes 8 Torsion [CA]-CB--CG-[CD2] |==|  0.81925
USER: genes 9 Torsion [N]-CA--C-[OXT] |==|  0.48294
USER: genes 10 Torsion [N]-CA--CB-[CG2] |==|  0.50200
USER: genes 11 Torsion [CA]-CB--CG1-[CD1] |==|  0.88465
ROOT
ATOM      1  CA  ILE B   2      75.388  47.227  14.372  1.00 64.17 LIG 0.18  C 
ENDROOT
BRANCH 1 2
ATOM      2  N   ILE B   2      74.656  45.974  14.499  1.00 64.56 LIG-0.35  N 
ATOM      3  C   ALA B   1      75.220  44.801  14.224  1.00 64.53 LIG 0.25  C 
ATOM      4 O    ALA B   1      76.391  44.691  13.854  1.00 64.21 LIG-0.27  OA
ATOM      5 H    ILE B   2      73.843  46.064  14.764  1.00 64.56 LIG 0.16  HD
BRANCH 3 6
ATOM      6  CA  ALA B   1      74.330  43.570  14.398  1.00 64.34 LIG 0.27  C 
ATOM      7  CB  ALA B   1      74.962  42.603  15.394  1.00 65.15 LIG 0.05  C 
BRANCH 6 8
ATOM      8  N   ALA B   1      74.090  42.876  13.100  1.00 63.44 LIG-0.07  N 
ATOM      9 H2   ALA B   1      74.466  43.341  12.441  1.00 63.44 LIG 0.28  HD
ATOM     10 H3   ALA B   1      74.446  42.061  13.129  1.00 63.44 LIG 0.28  HD
ATOM     11 H1   ALA B   1      73.214  42.811  12.956  1.00 63.44 LIG 0.28  HD
ENDBRANCH 6 8
ENDBRANCH 3 6
ENDBRANCH 1 2
BRANCH 1 12
ATOM     12  C   ILE B   2      76.036  47.632  15.693  1.00 63.93 LIG 0.24  C 
ATOM     13  N   HIS B   3      75.216  47.772  16.729  1.00 63.34 LIG-0.34  N 
ATOM     14 H    HIS B   3      74.365  47.650  16.691  1.00 63.34 LIG 0.16  HD
ATOM     15 O    ILE B   2      77.252  47.812  15.771  1.00 63.64 LIG-0.27  OA
BRANCH 13 16
ATOM     16  CA  HIS B   3      75.717  48.152  18.042  1.00 63.18 LIG 0.19  C 
BRANCH 16 17
ATOM     17  CB  HIS B   3      75.248  49.565  18.401  1.00 62.24 LIG 0.10  C 
BRANCH 17 18
ATOM     18  CG  HIS B   3      75.884  50.642  17.578  1.00 63.21 LIG 0.06  A 
ATOM     19  CD2 HIS B   3      77.170  51.058  17.491  1.00 62.69 LIG 0.14  A 
ATOM     20 NE2  HIS B   3      77.204  52.086  16.581  1.00 63.05 LIG-0.25  NA
ATOM     21  CE1 HIS B   3      75.982  52.295  16.123  1.00 63.79 LIG 0.23  A 
ATOM     22 ND1  HIS B   3      75.166  51.437  16.709  1.00 63.44 LIG-0.24  NA
ENDBRANCH 17 18
ENDBRANCH 16 17
BRANCH 16 23
ATOM     23  C   HIS B   3      75.224  47.165  19.093  1.00 63.55 LIG 0.20  C 
ATOM     24 OXT  HIS B   3      75.658  47.278  20.257  1.00 62.89 LIG-0.65  OA
ATOM     25 O    HIS B   3      74.404  46.290  18.739  1.00 64.85 LIG-0.65  OA
ENDBRANCH 16 23
ENDBRANCH 13 16
ENDBRANCH 1 12
BRANCH 1 26
ATOM     26  CB  ILE B   2      74.459  48.367  13.909  1.00 64.73 LIG 0.01  C 
ATOM     27  CG2 ILE B   2      75.251  49.664  13.766  1.00 64.62 LIG 0.01  C 
BRANCH 26 28
ATOM     28  CG1 ILE B   2      73.797  47.985  12.584  1.00 64.82 LIG 0.00  C 
ATOM     29  CD1 ILE B   2      74.727  47.309  11.602  1.00 66.82 LIG 0.01  C 
ENDBRANCH 26 28
ENDBRANCH 1 26
TORSDOF 10
ENDMDL
MODEL 83
USER: ADFR SOLUTION from run 78
USER: SCORE 10.790158 LL:  -2.042 LR:  -8.837 RR:   0.000 FEB:  -5.854
USER: RMSD 7.289087
USER: SEED 77
USER: STATUS no improvement in best in 32 clusters for 5 generations
USER: GENES 12
USER: genes 0 Translation |==|  0.43334 0.56148 0.45692
USER: genes 1 Rotation |==|  0.60209 0.55335 0.98583 0.52644
USER: genes 2 Torsion [C]-CA--N-[C] |==|  0.77394
USER: genes 3 Torsion [N]-C--CA-[N] |==|  0.47943
USER: genes 4 Torsion [C]-CA--N-[H2] |==|  0.28384
USER: genes 5 Torsion [N]-CA--C-[N] |==|  0.33907
USER: genes 6 Torsion [C]-N--CA-[CB] |==|  0.41263
USER: genes 7 Torsion [N]-CA--CB-[CG] |==|  0.32153
USER: genes 8 Torsion [CA]-CB--CG-[CD2] |==|  0.75578
USER: genes 9 Torsion [N]-CA--C-[OXT] |==|  0.40546
USER: genes 10 Torsion [N]-CA--CB-[CG2] |==|  0.46180
USER: genes 11 Torsion [CA]-CB--CG1-[CD1] |==|  0.22729
ROOT
ATOM      1  CA  ILE B   2      75.215  47.714  16.171  1.00 64.17 LIG 0.18  C 
ENDROOT
BRANCH 1 2
ATOM      2  N   ILE B   2      75.521  46.521  15.391  1.00 64.56 LIG-0.35  N 
ATOM      3  C   ALA B   1      74.910  46.262  14.239  1.00 64.53 LIG 0.25  C 
ATOM      4 O    ALA B   1      74.058  47.006  13.750  1.00 64.21 LIG-0.27  OA
ATOM      5 H    ILE B   2      76.121  46.014  15.740  1.00 64.56 LIG 0.16  HD
BRANCH 3 6
ATOM      6  CA  ALA B   1      75.329  44.972  13.532  1.00 64.34 LIG 0.27  C 
ATOM      7  CB  ALA B   1      76.788  45.062  13.099  1.00 65.15 LIG 0.05  C 
BRANCH 6 8
ATOM      8  N   ALA B   1      74.465  44.686  12.350  1.00 63.44 LIG-0.07  N 
ATOM      9 H2   ALA B   1      74.898  44.910  11.605  1.00 63.44 LIG 0.28  HD
ATOM     10 H3   ALA B   1      74.268  43.819  12.329  1.00 63.44 LIG 0.28  HD
ATOM     11 H1   ALA B   1      73.714  45.160  12.410  1.00 63.44 LIG 0.28  HD
ENDBRANCH 6 8
ENDBRANCH 3 6
ENDBRANCH 1 2
BRANCH 1 12
ATOM     12  C   ILE B   2      75.954  48.936  15.635  1.00 63.93 LIG 0.24  C 
ATOM     13  N   HIS B   3      75.197  49.964  15.268  1.00 63.34 LIG-0.34  N 
ATOM     14 H    HIS B   3      74.338  49.972  15.315  1.00 63.34 LIG 0.16  HD
ATOM     15 O    ILE B   2      77.184  48.947  15.558  1.00 63.64 LIG-0.27  OA
BRANCH 13 16
ATOM     16  CA  HIS B   3      75.788  51.187  14.743  1.00 63.18 LIG 0.19  C 
BRANCH 16 17
ATOM     17  CB  HIS B   3      74.846  51.840  13.728  1.00 62.24 LIG 0.10  C 
BRANCH 17 18
ATOM     18  CG  HIS B   3      74.335  53.183  14.151  1.00 63.21 LIG 0.06  A 
ATOM     19  CD2 HIS B   3      73.255  53.537  14.887  1.00 62.69 LIG 0.14  A 
ATOM     20 NE2  HIS B   3      73.253  54.907  14.975  1.00 63.05 LIG-0.25  NA
ATOM     21  CE1 HIS B   3      74.297  55.381  14.317  1.00 63.79 LIG 0.23  A 
ATOM     22 ND1  HIS B   3      74.967  54.361  13.810  1.00 63.44 LIG-0.24  NA
ENDBRANCH 17 18
ENDBRANCH 16 17
BRANCH 16 23
ATOM     23  C   HIS B   3      76.070  52.159  15.882  1.00 63.55 LIG 0.20  C 
ATOM     24 OXT  HIS B   3      77.072  52.896  15.793  1.00 62.89 LIG-0.65  OA
ATOM     25 O    HIS B   3      75.278  52.176  16.850  1.00 64.85 LIG-0.65  OA
ENDBRANCH 16 23
ENDBRANCH 13 16
ENDBRANCH 1 12
BRANCH 1 26
ATOM     26  CB  ILE B   2      75.595  47.519  17.653  1.00 64.73 LIG 0.01  C 
ATOM     27  CG2 ILE B   2      75.591  48.863  18.376  1.00 64.62 LIG 0.01  C 
BRANCH 26 28
ATOM     28  CG1 ILE B   2      74.617  46.544  18.312  1.00 64.82 LIG 0.00  C 
ATOM     29  CD1 ILE B   2      74.937  45.088  18.061  1.00 66.82 LIG 0.01  C 
ENDBRANCH 26 28
ENDBRANCH 1 26
TORSDOF 10
ENDMDL
MODEL 84
USER: ADFR SOLUTION from run 129
USER: SCORE 10.496574 LL:  -1.751 LR:  -8.838 RR:   0.000 FEB:  -5.855
USER: RMSD 6.378844
USER: SEED 128
USER: STATUS no improvement in best in 18 clusters for 5 generations
USER: GENES 12
USER: genes 0 Translation |==|  0.37822 0.42550 0.61877
USER: genes 1 Rotation |==|  0.50861 0.56028 0.98974 0.58027
USER: genes 2 Torsion [C]-CA--N-[C] |==|  0.86667
USER: genes 3 Torsion [N]-C--CA-[N] |==|  0.94220
USER: genes 4 Torsion [C]-CA--N-[H2] |==|  0.74666
USER: genes 5 Torsion [N]-CA--C-[N] |==|  0.37162
USER: genes 6 Torsion [C]-N--CA-[CB] |==|  0.36023
USER: genes 7 Torsion [N]-CA--CB-[CG] |==|  0.35908
USER: genes 8 Torsion [CA]-CB--CG-[CD2] |==|  0.71395
USER: genes 9 Torsion [N]-CA--C-[OXT] |==|  0.37589
USER: genes 10 Torsion [N]-CA--CB-[CG2] |==|  0.76125
USER: genes 11 Torsion [CA]-CB--CG1-[CD1] |==|  0.63992
ROOT
ATOM      1  CA  ILE B   2      74.595  45.164  18.721  1.00 64.17 LIG 0.18  C 
ENDROOT
BRANCH 1 2
ATOM      2  N   ILE B   2      74.954  43.856  18.187  1.00 64.56 LIG-0.35  N 
ATOM      3  C   ALA B   1      75.408  43.707  16.946  1.00 64.53 LIG 0.25  C 
ATOM      4 O    ALA B   1      75.565  44.652  16.171  1.00 64.21 LIG-0.27  OA
ATOM      5 H    ILE B   2      74.845  43.206  18.739  1.00 64.56 LIG 0.16  HD
BRANCH 3 6
ATOM      6  CA  ALA B   1      75.740  42.276  16.520  1.00 64.34 LIG 0.27  C 
ATOM      7  CB  ALA B   1      74.618  41.714  15.653  1.00 65.15 LIG 0.05  C 
BRANCH 6 8
ATOM      8  N   ALA B   1      75.965  41.389  17.697  1.00 63.44 LIG-0.07  N 
ATOM      9 H2   ALA B   1      76.829  41.391  17.910  1.00 63.44 LIG 0.28  HD
ATOM     10 H3   ALA B   1      75.489  41.686  18.388  1.00 63.44 LIG 0.28  HD
ATOM     11 H1   ALA B   1      75.711  40.560  17.497  1.00 63.44 LIG 0.28  HD
ENDBRANCH 6 8
ENDBRANCH 3 6
ENDBRANCH 1 2
BRANCH 1 12
ATOM     12  C   ILE B   2      75.683  46.197  18.444  1.00 63.93 LIG 0.24  C 
ATOM     13  N   HIS B   3      75.272  47.370  17.976  1.00 63.34 LIG-0.34  N 
ATOM     14 H    HIS B   3      74.449  47.568  17.825  1.00 63.34 LIG 0.16  HD
ATOM     15 O    ILE B   2      76.869  45.936  18.654  1.00 63.64 LIG-0.27  OA
BRANCH 13 16
ATOM     16  CA  HIS B   3      76.218  48.437  17.677  1.00 63.18 LIG 0.19  C 
BRANCH 16 17
ATOM     17  CB  HIS B   3      75.971  48.988  16.270  1.00 62.24 LIG 0.10  C 
BRANCH 17 18
ATOM     18  CG  HIS B   3      75.848  50.480  16.216  1.00 63.21 LIG 0.06  A 
ATOM     19  CD2 HIS B   3      74.762  51.282  16.100  1.00 62.69 LIG 0.14  A 
ATOM     20 NE2  HIS B   3      75.215  52.579  16.100  1.00 63.05 LIG-0.25  NA
ATOM     21  CE1 HIS B   3      76.532  52.575  16.213  1.00 63.79 LIG 0.23  A 
ATOM     22 ND1  HIS B   3      76.939  51.320  16.285  1.00 63.44 LIG-0.24  NA
ENDBRANCH 17 18
ENDBRANCH 16 17
BRANCH 16 23
ATOM     23  C   HIS B   3      76.079  49.557  18.699  1.00 63.55 LIG 0.20  C 
ATOM     24 OXT  HIS B   3      77.119  50.048  19.182  1.00 62.89 LIG-0.65  OA
ATOM     25 O    HIS B   3      74.926  49.936  19.003  1.00 64.85 LIG-0.65  OA
ENDBRANCH 16 23
ENDBRANCH 13 16
ENDBRANCH 1 12
BRANCH 1 26
ATOM     26  CB  ILE B   2      74.357  45.094  20.242  1.00 64.73 LIG 0.01  C 
ATOM     27  CG2 ILE B   2      72.914  44.686  20.528  1.00 64.62 LIG 0.01  C 
BRANCH 26 28
ATOM     28  CG1 ILE B   2      75.337  44.103  20.872  1.00 64.82 LIG 0.00  C 
ATOM     29  CD1 ILE B   2      74.684  43.079  21.773  1.00 66.82 LIG 0.01  C 
ENDBRANCH 26 28
ENDBRANCH 1 26
TORSDOF 10
ENDMDL
MODEL 85
USER: ADFR SOLUTION from run 49
USER: SCORE 10.689402 LL:  -2.008 LR:  -8.816 RR:   0.000 FEB:  -5.833
USER: RMSD 7.461170
USER: SEED 48
USER: STATUS no improvement in best in 21 clusters for 5 generations
USER: GENES 12
USER: genes 0 Translation |==|  0.63210 0.47402 0.31272
USER: genes 1 Rotation |==|  0.02792 0.59279 0.36875 0.53607
USER: genes 2 Torsion [C]-CA--N-[C] |==|  0.55043
USER: genes 3 Torsion [N]-C--CA-[N] |==|  0.21600
USER: genes 4 Torsion [C]-CA--N-[H2] |==|  0.93878
USER: genes 5 Torsion [N]-CA--C-[N] |==|  0.44697
USER: genes 6 Torsion [C]-N--CA-[CB] |==|  0.28827
USER: genes 7 Torsion [N]-CA--CB-[CG] |==|  0.67931
USER: genes 8 Torsion [CA]-CB--CG-[CD2] |==|  0.26092
USER: genes 9 Torsion [N]-CA--C-[OXT] |==|  0.52492
USER: genes 10 Torsion [N]-CA--CB-[CG2] |==|  0.30510
USER: genes 11 Torsion [CA]-CB--CG1-[CD1] |==|  0.78375
ROOT
ATOM      1  CA  ILE B   2      77.451  46.074  13.900  1.00 64.17 LIG 0.18  C 
ENDROOT
BRANCH 1 2
ATOM      2  N   ILE B   2      76.137  45.450  13.998  1.00 64.56 LIG-0.35  N 
ATOM      3  C   ALA B   1      75.987  44.194  14.409  1.00 64.53 LIG 0.25  C 
ATOM      4 O    ALA B   1      76.935  43.480  14.741  1.00 64.21 LIG-0.27  OA
ATOM      5 H    ILE B   2      75.485  45.961  13.770  1.00 64.56 LIG 0.16  HD
BRANCH 3 6
ATOM      6  CA  ALA B   1      74.551  43.671  14.458  1.00 64.34 LIG 0.27  C 
ATOM      7  CB  ALA B   1      74.465  42.461  15.381  1.00 65.15 LIG 0.05  C 
BRANCH 6 8
ATOM      8  N   ALA B   1      74.050  43.310  13.100  1.00 63.44 LIG-0.07  N 
ATOM      9 H2   ALA B   1      74.524  43.743  12.484  1.00 63.44 LIG 0.28  HD
ATOM     10 H3   ALA B   1      74.134  42.433  12.976  1.00 63.44 LIG 0.28  HD
ATOM     11 H1   ALA B   1      73.192  43.538  13.030  1.00 63.44 LIG 0.28  HD
ENDBRANCH 6 8
ENDBRANCH 3 6
ENDBRANCH 1 2
BRANCH 1 12
ATOM     12  C   ILE B   2      77.344  47.595  13.846  1.00 63.93 LIG 0.24  C 
ATOM     13  N   HIS B   3      78.446  48.271  14.149  1.00 63.34 LIG-0.34  N 
ATOM     14 H    HIS B   3      79.193  47.904  14.368  1.00 63.34 LIG 0.16  HD
ATOM     15 O    ILE B   2      76.285  48.143  13.535  1.00 63.64 LIG-0.27  OA
BRANCH 13 16
ATOM     16  CA  HIS B   3      78.468  49.727  14.129  1.00 63.18 LIG 0.19  C 
BRANCH 16 17
ATOM     17  CB  HIS B   3      78.422  50.279  15.557  1.00 62.24 LIG 0.10  C 
BRANCH 17 18
ATOM     18  CG  HIS B   3      77.184  51.064  15.864  1.00 63.21 LIG 0.06  A 
ATOM     19  CD2 HIS B   3      76.009  50.693  16.426  1.00 62.69 LIG 0.14  A 
ATOM     20 NE2  HIS B   3      75.212  51.811  16.475  1.00 63.05 LIG-0.25  NA
ATOM     21  CE1 HIS B   3      75.874  52.833  15.963  1.00 63.79 LIG 0.23  A 
ATOM     22 ND1  HIS B   3      77.068  52.410  15.587  1.00 63.44 LIG-0.24  NA
ENDBRANCH 17 18
ENDBRANCH 16 17
BRANCH 16 23
ATOM     23  C   HIS B   3      79.728  50.220  13.429  1.00 63.55 LIG 0.20  C 
ATOM     24 OXT  HIS B   3      79.989  51.438  13.473  1.00 62.89 LIG-0.65  OA
ATOM     25 O    HIS B   3      80.444  49.376  12.845  1.00 64.85 LIG-0.65  OA
ENDBRANCH 16 23
ENDBRANCH 13 16
ENDBRANCH 1 12
BRANCH 1 26
ATOM     26  CB  ILE B   2      78.202  45.588  12.645  1.00 64.73 LIG 0.01  C 
ATOM     27  CG2 ILE B   2      78.302  46.718  11.624  1.00 64.62 LIG 0.01  C 
BRANCH 26 28
ATOM     28  CG1 ILE B   2      79.593  45.087  13.039  1.00 64.82 LIG 0.00  C 
ATOM     29  CD1 ILE B   2      80.596  46.190  13.293  1.00 66.82 LIG 0.01  C 
ENDBRANCH 26 28
ENDBRANCH 1 26
TORSDOF 10
ENDMDL
MODEL 86
USER: ADFR SOLUTION from run 20
USER: SCORE 10.781988 LL:  -2.059 LR:  -8.807 RR:   0.000 FEB:  -5.824
USER: RMSD 6.103263
USER: SEED 19
USER: STATUS no improvement in best in 19 clusters for 5 generations
USER: GENES 12
USER: genes 0 Translation |==|  0.54258 0.31840 0.48705
USER: genes 1 Rotation |==|  0.97951 0.50771 0.36118 0.52719
USER: genes 2 Torsion [C]-CA--N-[C] |==|  0.77136
USER: genes 3 Torsion [N]-C--CA-[N] |==|  0.96149
USER: genes 4 Torsion [C]-CA--N-[H2] |==|  0.41829
USER: genes 5 Torsion [N]-CA--C-[N] |==|  0.34448
USER: genes 6 Torsion [C]-N--CA-[CB] |==|  0.84652
USER: genes 7 Torsion [N]-CA--CB-[CG] |==|  0.84041
USER: genes 8 Torsion [CA]-CB--CG-[CD2] |==|  0.95834
USER: genes 9 Torsion [N]-CA--C-[OXT] |==|  0.29393
USER: genes 10 Torsion [N]-CA--CB-[CG2] |==|  0.10085
USER: genes 11 Torsion [CA]-CB--CG1-[CD1] |==|  0.65602
ROOT
ATOM      1  CA  ILE B   2      76.444  43.156  16.646  1.00 64.17 LIG 0.18  C 
ENDROOT
BRANCH 1 2
ATOM      2  N   ILE B   2      76.286  42.290  17.808  1.00 64.56 LIG-0.35  N 
ATOM      3  C   ALA B   1      77.067  42.404  18.878  1.00 64.53 LIG 0.25  C 
ATOM      4 O    ALA B   1      77.964  43.245  18.967  1.00 64.21 LIG-0.27  OA
ATOM      5 H    ILE B   2      75.653  41.713  17.736  1.00 64.56 LIG 0.16  HD
BRANCH 3 6
ATOM      6  CA  ALA B   1      76.788  41.425  20.020  1.00 64.34 LIG 0.27  C 
ATOM      7  CB  ALA B   1      77.906  40.391  20.108  1.00 65.15 LIG 0.05  C 
BRANCH 6 8
ATOM      8  N   ALA B   1      75.475  40.740  19.850  1.00 63.44 LIG-0.07  N 
ATOM      9 H2   ALA B   1      75.510  39.933  20.224  1.00 63.44 LIG 0.28  HD
ATOM     10 H3   ALA B   1      74.837  41.220  20.242  1.00 63.44 LIG 0.28  HD
ATOM     11 H1   ALA B   1      75.293  40.658  18.983  1.00 63.44 LIG 0.28  HD
ENDBRANCH 6 8
ENDBRANCH 3 6
ENDBRANCH 1 2
BRANCH 1 12
ATOM     12  C   ILE B   2      75.744  44.496  16.850  1.00 63.93 LIG 0.24  C 
ATOM     13  N   HIS B   3      76.501  45.579  16.712  1.00 63.34 LIG-0.34  N 
ATOM     14 H    HIS B   3      77.340  45.561  16.522  1.00 63.34 LIG 0.16  HD
ATOM     15 O    ILE B   2      74.544  44.547  17.123  1.00 63.64 LIG-0.27  OA
BRANCH 13 16
ATOM     16  CA  HIS B   3      75.945  46.915  16.880  1.00 63.18 LIG 0.19  C 
BRANCH 16 17
ATOM     17  CB  HIS B   3      74.748  47.114  15.948  1.00 62.24 LIG 0.10  C 
BRANCH 17 18
ATOM     18  CG  HIS B   3      75.066  46.905  14.499  1.00 63.21 LIG 0.06  A 
ATOM     19  CD2 HIS B   3      76.251  46.835  13.846  1.00 62.69 LIG 0.14  A 
ATOM     20 NE2  HIS B   3      75.970  46.630  12.517  1.00 63.05 LIG-0.25  NA
ATOM     21  CE1 HIS B   3      74.660  46.575  12.358  1.00 63.79 LIG 0.23  A 
ATOM     22 ND1  HIS B   3      74.090  46.737  13.539  1.00 63.44 LIG-0.24  NA
ENDBRANCH 17 18
ENDBRANCH 16 17
BRANCH 16 23
ATOM     23  C   HIS B   3      75.510  47.120  18.326  1.00 63.55 LIG 0.20  C 
ATOM     24 OXT  HIS B   3      76.213  47.847  19.056  1.00 62.89 LIG-0.65  OA
ATOM     25 O    HIS B   3      74.464  46.552  18.711  1.00 64.85 LIG-0.65  OA
ENDBRANCH 16 23
ENDBRANCH 13 16
ENDBRANCH 1 12
BRANCH 1 26
ATOM     26  CB  ILE B   2      75.874  42.490  15.378  1.00 64.73 LIG 0.01  C 
ATOM     27  CG2 ILE B   2      74.624  41.686  15.725  1.00 64.62 LIG 0.01  C 
BRANCH 26 28
ATOM     28  CG1 ILE B   2      75.558  43.561  14.332  1.00 64.82 LIG 0.00  C 
ATOM     29  CD1 ILE B   2      74.125  43.548  13.851  1.00 66.82 LIG 0.01  C 
ENDBRANCH 26 28
ENDBRANCH 1 26
TORSDOF 10
ENDMDL
