MODEL 1
USER: ADFR SOLUTION from run 87
USER: SCORE 20.423528 LL:  -6.053 LR: -16.958 RR:   0.000 FEB: -10.694
USER: RMSD 7.105814
USER: SEED 86
USER: STATUS no improvement in best in 4 clusters for 5 generations
USER: GENES 23
USER: genes 0 Translation |==|  0.60042 0.52165 0.70067
USER: genes 1 Rotation |==|  0.83985 0.74419 0.76648 0.56215
USER: genes 2 Torsion [C]-CA--CB-[CG] |==|  0.90180
USER: genes 3 Torsion [CA]-CB--CG-[CD1] |==|  0.29156
USER: genes 4 Torsion [N]-CA--C-[N] |==|  0.49059
USER: genes 5 Torsion [C]-N--CA-[CB] |==|  0.19151
USER: genes 6 Torsion [N]-CA--CB-[CG] |==|  0.74747
USER: genes 7 Torsion [CA]-CB--CG-[CD1] |==|  0.92567
USER: genes 8 Torsion [CE2]-CZ--OH-[HH] |==|  0.76662
USER: genes 9 Torsion [N]-CA--C-[N] |==|  0.83353
USER: genes 10 Torsion [C]-N--CA-[C] |==|  0.63918
USER: genes 11 Torsion [N]-CA--CB-[CG1] |==|  0.87015
USER: genes 12 Torsion [CA]-CB--CG1-[CD1] |==|  0.68334
USER: genes 13 Torsion [N]-CA--C-[N] |==|  0.18888
USER: genes 14 Torsion [N]-CA--C-[O] |==|  0.39359
USER: genes 15 Torsion [CB]-CA--N-[C] |==|  0.17908
USER: genes 16 Torsion [N]-C--CA-[N] |==|  0.24482
USER: genes 17 Torsion [C]-CA--N-[C] |==|  0.80739
USER: genes 18 Torsion [N]-C--CA-[N] |==|  0.06664
USER: genes 19 Torsion [C]-CA--CB-[CG1] |==|  0.51540
USER: genes 20 Torsion [C]-CA--N-[C] |==|  0.71388
USER: genes 21 Torsion [N]-C--CA-[N] |==|  0.80140
USER: genes 22 Torsion [C]-CA--N-[H3] |==|  0.12456
ROOT
ATOM      1  CA  PHE B   4      55.824  26.609   1.029  1.00 44.68 LIG 0.18  C 
ENDROOT
BRANCH 1 2
ATOM      2  CB  PHE B   4      56.850  26.140  -0.007  1.00 43.52 LIG 0.07  C 
BRANCH 2 3
ATOM      3  CG  PHE B   4      57.103  24.661   0.036  1.00 43.42 LIG-0.06  A 
ATOM      4  CD2 PHE B   4      57.827  24.098   1.081  1.00 43.71 LIG 0.01  A 
ATOM      5  CE2 PHE B   4      58.020  22.717   1.156  1.00 44.42 LIG 0.00  A 
ATOM      6  CZ  PHE B   4      57.484  21.889   0.170  1.00 44.23 LIG 0.00  A 
ATOM      7  CE1 PHE B   4      56.761  22.444  -0.879  1.00 42.62 LIG 0.00  A 
ATOM      8  CD1 PHE B   4      56.575  23.824  -0.942  1.00 43.35 LIG 0.01  A 
ENDBRANCH 2 3
ENDBRANCH 1 2
BRANCH 1 9
ATOM      9  C   PHE B   4      54.731  25.568   1.229  1.00 47.70 LIG 0.24  C 
ATOM     10 O    PHE B   4      54.560  25.039   2.327  1.00 47.98 LIG-0.27  OA
ATOM     11  N   TYR B   5      54.006  25.274   0.155  1.00 50.93 LIG-0.35  N 
ATOM     12 H    TYR B   5      54.119  25.651  -0.609  1.00 50.93 LIG 0.16  HD
BRANCH 11 13
ATOM     13  CA  TYR B   5      52.941  24.276   0.173  1.00 53.91 LIG 0.18  C 
BRANCH 13 14
ATOM     14  CB  TYR B   5      51.752  24.755   1.012  1.00 56.99 LIG 0.07  C 
BRANCH 14 15
ATOM     15  CG  TYR B   5      51.826  24.347   2.473  1.00 60.80 LIG-0.06  A 
ATOM     16  CD2 TYR B   5      51.208  25.111   3.463  1.00 62.97 LIG 0.01  A 
ATOM     17  CE2 TYR B   5      51.293  24.750   4.809  1.00 63.70 LIG 0.04  A 
ATOM     18  CZ  TYR B   5      52.002  23.613   5.171  1.00 64.21 LIG 0.07  A 
ATOM     19  CE1 TYR B   5      52.620  22.838   4.206  1.00 63.24 LIG 0.04  A 
ATOM     20  CD1 TYR B   5      52.529  23.205   2.870  1.00 61.93 LIG 0.01  A 
BRANCH 18 21
ATOM     21 OH   TYR B   5      52.106  23.259   6.496  1.00 64.43 LIG-0.36  OA
ATOM     22 HH   TYR B   5      52.740  23.683   6.851  1.00 64.43 LIG 0.22  HD
ENDBRANCH 18 21
ENDBRANCH 14 15
ENDBRANCH 13 14
BRANCH 13 23
ATOM     23  C   TYR B   5      52.479  24.034  -1.256  1.00 54.78 LIG 0.24  C 
ATOM     24  N   ILE B   6      51.998  25.090  -1.906  1.00 56.06 LIG-0.35  N 
ATOM     25 H    ILE B   6      51.935  25.876  -1.563  1.00 56.06 LIG 0.16  HD
ATOM     26 O    TYR B   5      52.563  22.915  -1.760  1.00 54.12 LIG-0.27  OA
BRANCH 24 27
ATOM     27  CA  ILE B   6      51.528  24.995  -3.284  1.00 57.79 LIG 0.18  C 
BRANCH 27 28
ATOM     28  CB  ILE B   6      49.985  25.106  -3.354  1.00 57.25 LIG 0.01  C 
ATOM     29  CG2 ILE B   6      49.487  24.706  -4.731  1.00 56.12 LIG 0.01  C 
BRANCH 28 30
ATOM     30  CG1 ILE B   6      49.356  24.196  -2.297  1.00 57.80 LIG 0.00  C 
ATOM     31  CD1 ILE B   6      48.567  23.052  -2.889  1.00 58.80 LIG 0.01  C 
ENDBRANCH 28 30
ENDBRANCH 27 28
BRANCH 27 32
ATOM     32  C   ILE B   6      52.153  26.089  -4.147  1.00 59.33 LIG 0.24  C 
ATOM     33 O    ILE B   6      51.466  27.009  -4.603  1.00 59.66 LIG-0.27  OA
ATOM     34  N   PRO B   7      53.473  26.003  -4.378  1.00 60.44 LIG-0.34  N 
ATOM     35  CA  PRO B   7      54.210  26.977  -5.187  1.00 61.29 LIG 0.17  C 
ATOM     36  CD  PRO B   7      54.384  24.970  -3.853  1.00 60.37 LIG 0.13  C 
ATOM     37  CB  PRO B   7      55.577  26.321  -5.341  1.00 61.79 LIG 0.04  C 
ATOM     38  CG  PRO B   7      55.739  25.615  -4.036  1.00 60.72 LIG 0.02  C 
BRANCH 35 39
ATOM     39  C   PRO B   7      53.550  27.262  -6.536  1.00 62.02 LIG 0.22  C 
ATOM     40 O    PRO B   7      53.541  28.398  -7.004  1.00 61.64 LIG-0.29  OA
ENDBRANCH 35 39
ENDBRANCH 27 32
ENDBRANCH 24 27
ENDBRANCH 13 23
ENDBRANCH 11 13
ENDBRANCH 1 9
BRANCH 1 41
ATOM     41  N   PHE B   4      56.489  26.901   2.287  1.00 40.22 LIG-0.35  N 
ATOM     42 H    PHE B   4      56.261  26.391   2.940  1.00 40.22 LIG 0.16  HD
ATOM     43  C   ALA B   3      57.375  27.884   2.384  1.00 36.80 LIG 0.24  C 
ATOM     44 O    ALA B   3      57.693  28.591   1.431  1.00 35.05 LIG-0.27  OA
BRANCH 43 45
ATOM     45  CA  ALA B   3      58.004  28.096   3.755  1.00 35.42 LIG 0.17  C 
ATOM     46  CB  ALA B   3      58.395  29.553   3.927  1.00 34.55 LIG 0.04  C 
BRANCH 45 47
ATOM     47  N   ALA B   3      59.180  27.242   3.846  1.00 34.22 LIG-0.35  N 
ATOM     48  C   VAL B   2      59.061  25.922   3.914  1.00 33.55 LIG 0.24  C 
ATOM     49 O    VAL B   2      57.971  25.352   3.928  1.00 34.35 LIG-0.27  OA
ATOM     50 H    ALA B   3      59.930  27.662   3.851  1.00 34.22 LIG 0.16  HD
BRANCH 48 51
ATOM     51  CA  VAL B   2      60.363  25.127   3.978  1.00 33.22 LIG 0.18  C 
BRANCH 51 52
ATOM     52  CB  VAL B   2      60.133  23.871   4.854  1.00 32.52 LIG 0.01  C 
ATOM     53  CG1 VAL B   2      61.440  23.117   5.060  1.00 33.02 LIG 0.01  C 
ATOM     54  CG2 VAL B   2      59.542  24.280   6.196  1.00 33.85 LIG 0.01  C 
ENDBRANCH 51 52
BRANCH 51 55
ATOM     55  N   VAL B   2      61.461  25.928   4.506  1.00 33.13 LIG-0.35  N 
ATOM     56 H    VAL B   2      61.444  26.032   5.360  1.00 33.13 LIG 0.16  HD
ATOM     57  C   ALA B   1      62.397  26.444   3.718  1.00 33.26 LIG 0.25  C 
ATOM     58 O    ALA B   1      62.403  26.303   2.498  1.00 33.25 LIG-0.27  OA
BRANCH 57 59
ATOM     59  CA  ALA B   1      63.493  27.249   4.404  1.00 31.51 LIG 0.27  C 
ATOM     60  CB  ALA B   1      64.059  26.470   5.590  1.00 29.23 LIG 0.05  C 
BRANCH 59 61
ATOM     61  N   ALA B   1      62.911  28.502   4.859  1.00 32.32 LIG-0.07  N 
ATOM     62 H3   ALA B   1      62.127  28.342   5.248  1.00 32.32 LIG 0.28  HD
ATOM     63 H2   ALA B   1      62.792  29.044   4.164  1.00 32.32 LIG 0.28  HD
ATOM     64 H1   ALA B   1      63.458  28.888   5.445  1.00 32.32 LIG 0.28  HD
ENDBRANCH 59 61
ENDBRANCH 57 59
ENDBRANCH 51 55
ENDBRANCH 48 51
ENDBRANCH 45 47
ENDBRANCH 43 45
ENDBRANCH 1 41
TORSDOF 21
ENDMDL
MODEL 2
USER: ADFR SOLUTION from run 136
USER: SCORE 20.034661 LL:  -6.173 LR: -16.895 RR:   0.000 FEB: -10.630
USER: RMSD 6.648170
USER: SEED 135
USER: STATUS no improvement in best in 2 clusters for 5 generations
USER: GENES 23
USER: genes 0 Translation |==|  0.59310 0.52310 0.70019
USER: genes 1 Rotation |==|  0.84841 0.73245 0.75906 0.58642
USER: genes 2 Torsion [C]-CA--CB-[CG] |==|  0.19377
USER: genes 3 Torsion [CA]-CB--CG-[CD1] |==|  0.10821
USER: genes 4 Torsion [N]-CA--C-[N] |==|  0.46788
USER: genes 5 Torsion [C]-N--CA-[CB] |==|  0.23880
USER: genes 6 Torsion [N]-CA--CB-[CG] |==|  0.58363
USER: genes 7 Torsion [CA]-CB--CG-[CD1] |==|  0.75645
USER: genes 8 Torsion [CE2]-CZ--OH-[HH] |==|  0.17188
USER: genes 9 Torsion [N]-CA--C-[N] |==|  0.76449
USER: genes 10 Torsion [C]-N--CA-[C] |==|  0.68705
USER: genes 11 Torsion [N]-CA--CB-[CG1] |==|  0.81199
USER: genes 12 Torsion [CA]-CB--CG1-[CD1] |==|  0.62674
USER: genes 13 Torsion [N]-CA--C-[N] |==|  0.36295
USER: genes 14 Torsion [N]-CA--C-[O] |==|  0.35788
USER: genes 15 Torsion [CB]-CA--N-[C] |==|  0.16815
USER: genes 16 Torsion [N]-C--CA-[N] |==|  0.27613
USER: genes 17 Torsion [C]-CA--N-[C] |==|  0.80728
USER: genes 18 Torsion [N]-C--CA-[N] |==|  0.06770
USER: genes 19 Torsion [C]-CA--CB-[CG1] |==|  0.50831
USER: genes 20 Torsion [C]-CA--N-[C] |==|  0.71815
USER: genes 21 Torsion [N]-C--CA-[N] |==|  0.78749
USER: genes 22 Torsion [C]-CA--N-[H3] |==|  0.11315
ROOT
ATOM      1  CA  PHE B   4      55.653  26.633   1.017  1.00 44.68 LIG 0.18  C 
ENDROOT
BRANCH 1 2
ATOM      2  CB  PHE B   4      56.637  26.007   0.024  1.00 43.52 LIG 0.07  C 
BRANCH 2 3
ATOM      3  CG  PHE B   4      56.111  25.953  -1.380  1.00 43.42 LIG-0.06  A 
ATOM      4  CD2 PHE B   4      56.317  24.826  -2.170  1.00 43.71 LIG 0.01  A 
ATOM      5  CE2 PHE B   4      55.783  24.748  -3.458  1.00 44.42 LIG 0.00  A 
ATOM      6  CZ  PHE B   4      55.035  25.812  -3.963  1.00 44.23 LIG 0.00  A 
ATOM      7  CE1 PHE B   4      54.828  26.942  -3.181  1.00 42.62 LIG 0.00  A 
ATOM      8  CD1 PHE B   4      55.365  27.007  -1.897  1.00 43.35 LIG 0.01  A 
ENDBRANCH 2 3
ENDBRANCH 1 2
BRANCH 1 9
ATOM      9  C   PHE B   4      54.456  25.722   1.250  1.00 47.70 LIG 0.24  C 
ATOM     10 O    PHE B   4      54.300  25.152   2.330  1.00 47.98 LIG-0.27  OA
ATOM     11  N   TYR B   5      53.623  25.585   0.224  1.00 50.93 LIG-0.35  N 
ATOM     12 H    TYR B   5      53.727  25.991  -0.527  1.00 50.93 LIG 0.16  HD
BRANCH 11 13
ATOM     13  CA  TYR B   5      52.444  24.725   0.276  1.00 53.91 LIG 0.18  C 
BRANCH 13 14
ATOM     14  CB  TYR B   5      51.246  25.468   0.873  1.00 56.99 LIG 0.07  C 
BRANCH 14 15
ATOM     15  CG  TYR B   5      50.272  24.569   1.615  1.00 60.80 LIG-0.06  A 
ATOM     16  CD2 TYR B   5      50.405  24.343   2.984  1.00 62.97 LIG 0.01  A 
ATOM     17  CE2 TYR B   5      49.524  23.500   3.665  1.00 63.70 LIG 0.04  A 
ATOM     18  CZ  TYR B   5      48.497  22.877   2.969  1.00 64.21 LIG 0.07  A 
ATOM     19  CE1 TYR B   5      48.343  23.089   1.611  1.00 63.24 LIG 0.04  A 
ATOM     20  CD1 TYR B   5      49.225  23.930   0.944  1.00 61.93 LIG 0.01  A 
BRANCH 18 21
ATOM     21 OH   TYR B   5      47.634  22.030   3.627  1.00 64.43 LIG-0.36  OA
ATOM     22 HH   TYR B   5      47.220  22.458   4.220  1.00 64.43 LIG 0.22  HD
ENDBRANCH 18 21
ENDBRANCH 14 15
ENDBRANCH 13 14
BRANCH 13 23
ATOM     23  C   TYR B   5      52.104  24.284  -1.140  1.00 54.78 LIG 0.24  C 
ATOM     24  N   ILE B   6      51.357  25.121  -1.853  1.00 56.06 LIG-0.35  N 
ATOM     25 H    ILE B   6      51.064  25.874  -1.558  1.00 56.06 LIG 0.16  HD
ATOM     26 O    TYR B   5      52.515  23.210  -1.577  1.00 54.12 LIG-0.27  OA
BRANCH 24 27
ATOM     27  CA  ILE B   6      50.965  24.821  -3.226  1.00 57.79 LIG 0.18  C 
BRANCH 27 28
ATOM     28  CB  ILE B   6      49.428  24.904  -3.397  1.00 57.25 LIG 0.01  C 
ATOM     29  CG2 ILE B   6      49.051  24.799  -4.863  1.00 56.12 LIG 0.01  C 
BRANCH 28 30
ATOM     30  CG1 ILE B   6      48.761  23.773  -2.613  1.00 57.80 LIG 0.00  C 
ATOM     31  CD1 ILE B   6      47.687  23.058  -3.398  1.00 58.80 LIG 0.01  C 
ENDBRANCH 28 30
ENDBRANCH 27 28
BRANCH 27 32
ATOM     32  C   ILE B   6      51.635  25.782  -4.205  1.00 59.33 LIG 0.24  C 
ATOM     33 O    ILE B   6      51.611  27.002  -4.015  1.00 59.66 LIG-0.27  OA
ATOM     34  N   PRO B   7      52.252  25.239  -5.267  1.00 60.44 LIG-0.34  N 
ATOM     35  CA  PRO B   7      52.938  26.033  -6.290  1.00 61.29 LIG 0.17  C 
ATOM     36  CD  PRO B   7      52.369  23.800  -5.564  1.00 60.37 LIG 0.13  C 
ATOM     37  CB  PRO B   7      53.247  25.000  -7.367  1.00 61.79 LIG 0.04  C 
ATOM     38  CG  PRO B   7      53.504  23.770  -6.563  1.00 60.72 LIG 0.02  C 
BRANCH 35 39
ATOM     39  C   PRO B   7      52.091  27.189  -6.822  1.00 62.02 LIG 0.22  C 
ATOM     40 O    PRO B   7      52.540  28.332  -6.859  1.00 61.64 LIG-0.29  OA
ENDBRANCH 35 39
ENDBRANCH 27 32
ENDBRANCH 24 27
ENDBRANCH 13 23
ENDBRANCH 11 13
ENDBRANCH 1 9
BRANCH 1 41
ATOM     41  N   PHE B   4      56.331  26.919   2.270  1.00 40.22 LIG-0.35  N 
ATOM     42 H    PHE B   4      56.007  26.510   2.954  1.00 40.22 LIG 0.16  HD
ATOM     43  C   ALA B   3      57.363  27.751   2.320  1.00 36.80 LIG 0.24  C 
ATOM     44 O    ALA B   3      57.813  28.314   1.324  1.00 35.05 LIG-0.27  OA
BRANCH 43 45
ATOM     45  CA  ALA B   3      57.989  27.975   3.690  1.00 35.42 LIG 0.17  C 
ATOM     46  CB  ALA B   3      58.360  29.437   3.860  1.00 34.55 LIG 0.04  C 
BRANCH 45 47
ATOM     47  N   ALA B   3      59.176  27.137   3.783  1.00 34.22 LIG-0.35  N 
ATOM     48  C   VAL B   2      59.075  25.815   3.854  1.00 33.55 LIG 0.24  C 
ATOM     49 O    VAL B   2      57.992  25.230   3.870  1.00 34.35 LIG-0.27  OA
ATOM     50 H    ALA B   3      59.920  27.567   3.787  1.00 34.22 LIG 0.16  HD
BRANCH 48 51
ATOM     51  CA  VAL B   2      60.387  25.038   3.920  1.00 33.22 LIG 0.18  C 
BRANCH 51 52
ATOM     52  CB  VAL B   2      60.171  23.776   4.791  1.00 32.52 LIG 0.01  C 
ATOM     53  CG1 VAL B   2      61.476  23.006   4.947  1.00 33.02 LIG 0.01  C 
ATOM     54  CG2 VAL B   2      59.630  24.179   6.156  1.00 33.85 LIG 0.01  C 
ENDBRANCH 51 52
BRANCH 51 55
ATOM     55  N   VAL B   2      61.473  25.852   4.454  1.00 33.13 LIG-0.35  N 
ATOM     56 H    VAL B   2      61.463  25.936   5.311  1.00 33.13 LIG 0.16  HD
ATOM     57  C   ALA B   1      62.387  26.408   3.668  1.00 33.26 LIG 0.25  C 
ATOM     58 O    ALA B   1      62.382  26.296   2.446  1.00 33.25 LIG-0.27  OA
BRANCH 57 59
ATOM     59  CA  ALA B   1      63.472  27.223   4.361  1.00 31.51 LIG 0.27  C 
ATOM     60  CB  ALA B   1      63.983  26.483   5.596  1.00 29.23 LIG 0.05  C 
BRANCH 59 61
ATOM     61  N   ALA B   1      62.895  28.502   4.746  1.00 32.32 LIG-0.07  N 
ATOM     62 H3   ALA B   1      62.072  28.375   5.057  1.00 32.32 LIG 0.28  HD
ATOM     63 H2   ALA B   1      62.864  29.039   4.038  1.00 32.32 LIG 0.28  HD
ATOM     64 H1   ALA B   1      63.397  28.875   5.379  1.00 32.32 LIG 0.28  HD
ENDBRANCH 59 61
ENDBRANCH 57 59
ENDBRANCH 51 55
ENDBRANCH 48 51
ENDBRANCH 45 47
ENDBRANCH 43 45
ENDBRANCH 1 41
TORSDOF 21
ENDMDL
MODEL 3
USER: ADFR SOLUTION from run 87
USER: SCORE 19.129566 LL:  -5.817 LR: -16.449 RR:   0.000 FEB: -10.185
USER: RMSD 6.767379
USER: SEED 86
USER: STATUS no improvement in best in 4 clusters for 5 generations
USER: GENES 23
USER: genes 0 Translation |==|  0.59920 0.53529 0.70230
USER: genes 1 Rotation |==|  0.83400 0.73320 0.78781 0.53506
USER: genes 2 Torsion [C]-CA--CB-[CG] |==|  0.96141
USER: genes 3 Torsion [CA]-CB--CG-[CD1] |==|  0.28702
USER: genes 4 Torsion [N]-CA--C-[N] |==|  0.45990
USER: genes 5 Torsion [C]-N--CA-[CB] |==|  0.22350
USER: genes 6 Torsion [N]-CA--CB-[CG] |==|  0.75804
USER: genes 7 Torsion [CA]-CB--CG-[CD1] |==|  0.90603
USER: genes 8 Torsion [CE2]-CZ--OH-[HH] |==|  0.74033
USER: genes 9 Torsion [N]-CA--C-[N] |==|  0.98928
USER: genes 10 Torsion [C]-N--CA-[C] |==|  0.20203
USER: genes 11 Torsion [N]-CA--CB-[CG1] |==|  0.70043
USER: genes 12 Torsion [CA]-CB--CG1-[CD1] |==|  0.03557
USER: genes 13 Torsion [N]-CA--C-[N] |==|  0.41645
USER: genes 14 Torsion [N]-CA--C-[O] |==|  0.53692
USER: genes 15 Torsion [CB]-CA--N-[C] |==|  0.14342
USER: genes 16 Torsion [N]-C--CA-[N] |==|  0.27584
USER: genes 17 Torsion [C]-CA--N-[C] |==|  0.81751
USER: genes 18 Torsion [N]-C--CA-[N] |==|  0.04843
USER: genes 19 Torsion [C]-CA--CB-[CG1] |==|  0.52229
USER: genes 20 Torsion [C]-CA--N-[C] |==|  0.71658
USER: genes 21 Torsion [N]-C--CA-[N] |==|  0.76746
USER: genes 22 Torsion [C]-CA--N-[H3] |==|  0.18268
ROOT
ATOM      1  CA  PHE B   4      55.795  26.834   1.069  1.00 44.68 LIG 0.18  C 
ENDROOT
BRANCH 1 2
ATOM      2  CB  PHE B   4      56.864  26.560   0.007  1.00 43.52 LIG 0.07  C 
BRANCH 2 3
ATOM      3  CG  PHE B   4      56.839  25.152  -0.512  1.00 43.42 LIG-0.06  A 
ATOM      4  CD2 PHE B   4      57.316  24.103   0.267  1.00 43.71 LIG 0.01  A 
ATOM      5  CE2 PHE B   4      57.244  22.784  -0.188  1.00 44.42 LIG 0.00  A 
ATOM      6  CZ  PHE B   4      56.692  22.513  -1.439  1.00 44.23 LIG 0.00  A 
ATOM      7  CE1 PHE B   4      56.215  23.556  -2.225  1.00 42.62 LIG 0.00  A 
ATOM      8  CD1 PHE B   4      56.291  24.867  -1.759  1.00 43.35 LIG 0.01  A 
ENDBRANCH 2 3
ENDBRANCH 1 2
BRANCH 1 9
ATOM      9  C   PHE B   4      54.754  25.724   1.098  1.00 47.70 LIG 0.24  C 
ATOM     10 O    PHE B   4      54.723  24.915   2.025  1.00 47.98 LIG-0.27  OA
ATOM     11  N   TYR B   5      53.914  25.690   0.070  1.00 50.93 LIG-0.35  N 
ATOM     12 H    TYR B   5      53.930  26.261  -0.573  1.00 50.93 LIG 0.16  HD
BRANCH 11 13
ATOM     13  CA  TYR B   5      52.877  24.671  -0.067  1.00 53.91 LIG 0.18  C 
BRANCH 13 14
ATOM     14  CB  TYR B   5      51.656  25.009   0.792  1.00 56.99 LIG 0.07  C 
BRANCH 14 15
ATOM     15  CG  TYR B   5      51.748  24.500   2.220  1.00 60.80 LIG-0.06  A 
ATOM     16  CD2 TYR B   5      51.200  25.225   3.277  1.00 62.97 LIG 0.01  A 
ATOM     17  CE2 TYR B   5      51.302  24.770   4.594  1.00 63.70 LIG 0.04  A 
ATOM     18  CZ  TYR B   5      51.958  23.575   4.856  1.00 64.21 LIG 0.07  A 
ATOM     19  CE1 TYR B   5      52.506  22.836   3.823  1.00 63.24 LIG 0.04  A 
ATOM     20  CD1 TYR B   5      52.398  23.298   2.518  1.00 61.93 LIG 0.01  A 
BRANCH 18 21
ATOM     21 OH   TYR B   5      52.080  23.127   6.152  1.00 64.43 LIG-0.36  OA
ATOM     22 HH   TYR B   5      52.812  23.388   6.471  1.00 64.43 LIG 0.22  HD
ENDBRANCH 18 21
ENDBRANCH 14 15
ENDBRANCH 13 14
BRANCH 13 23
ATOM     23  C   TYR B   5      52.457  24.600  -1.528  1.00 54.78 LIG 0.24  C 
ATOM     24  N   ILE B   6      53.018  25.485  -2.346  1.00 56.06 LIG-0.35  N 
ATOM     25 H    ILE B   6      53.587  26.079  -2.093  1.00 56.06 LIG 0.16  HD
ATOM     26 O    TYR B   5      51.645  23.756  -1.905  1.00 54.12 LIG-0.27  OA
BRANCH 24 27
ATOM     27  CA  ILE B   6      52.706  25.521  -3.770  1.00 57.79 LIG 0.18  C 
BRANCH 27 28
ATOM     28  CB  ILE B   6      52.806  24.108  -4.397  1.00 57.25 LIG 0.01  C 
ATOM     29  CG2 ILE B   6      51.571  23.807  -5.225  1.00 56.12 LIG 0.01  C 
BRANCH 28 30
ATOM     30  CG1 ILE B   6      54.051  24.026  -5.283  1.00 57.80 LIG 0.00  C 
ATOM     31  CD1 ILE B   6      55.000  25.185  -5.083  1.00 58.80 LIG 0.01  C 
ENDBRANCH 28 30
ENDBRANCH 27 28
BRANCH 27 32
ATOM     32  C   ILE B   6      51.305  26.080  -4.006  1.00 59.33 LIG 0.24  C 
ATOM     33 O    ILE B   6      50.412  25.932  -3.166  1.00 59.66 LIG-0.27  OA
ATOM     34  N   PRO B   7      51.097  26.740  -5.157  1.00 60.44 LIG-0.34  N 
ATOM     35  CA  PRO B   7      49.807  27.331  -5.522  1.00 61.29 LIG 0.17  C 
ATOM     36  CD  PRO B   7      52.101  27.002  -6.204  1.00 60.37 LIG 0.13  C 
ATOM     37  CB  PRO B   7      50.021  27.735  -6.975  1.00 61.79 LIG 0.04  C 
ATOM     38  CG  PRO B   7      51.461  28.125  -6.988  1.00 60.72 LIG 0.02  C 
BRANCH 35 39
ATOM     39  C   PRO B   7      48.634  26.365  -5.355  1.00 62.02 LIG 0.22  C 
ATOM     40 O    PRO B   7      47.536  26.621  -5.842  1.00 61.64 LIG-0.29  OA
ENDBRANCH 35 39
ENDBRANCH 27 32
ENDBRANCH 24 27
ENDBRANCH 13 23
ENDBRANCH 11 13
ENDBRANCH 1 9
BRANCH 1 41
ATOM     41  N   PHE B   4      56.420  26.984   2.372  1.00 40.22 LIG-0.35  N 
ATOM     42 H    PHE B   4      56.081  26.493   2.991  1.00 40.22 LIG 0.16  HD
ATOM     43  C   ALA B   3      57.433  27.821   2.557  1.00 36.80 LIG 0.24  C 
ATOM     44 O    ALA B   3      57.907  28.503   1.652  1.00 35.05 LIG-0.27  OA
BRANCH 43 45
ATOM     45  CA  ALA B   3      58.004  27.894   3.967  1.00 35.42 LIG 0.17  C 
ATOM     46  CB  ALA B   3      58.341  29.332   4.318  1.00 34.55 LIG 0.04  C 
BRANCH 45 47
ATOM     47  N   ALA B   3      59.203  27.069   4.009  1.00 34.22 LIG-0.35  N 
ATOM     48  C   VAL B   2      59.131  25.752   3.851  1.00 33.55 LIG 0.24  C 
ATOM     49 O    VAL B   2      58.065  25.158   3.688  1.00 34.35 LIG-0.27  OA
ATOM     50 H    ALA B   3      59.933  27.502   4.141  1.00 34.22 LIG 0.16  HD
BRANCH 48 51
ATOM     51  CA  VAL B   2      60.455  24.993   3.887  1.00 33.22 LIG 0.18  C 
BRANCH 51 52
ATOM     52  CB  VAL B   2      60.248  23.675   4.672  1.00 32.52 LIG 0.01  C 
ATOM     53  CG1 VAL B   2      61.582  22.978   4.905  1.00 33.02 LIG 0.01  C 
ATOM     54  CG2 VAL B   2      59.568  23.970   6.002  1.00 33.85 LIG 0.01  C 
ENDBRANCH 51 52
BRANCH 51 55
ATOM     55  N   VAL B   2      61.520  25.788   4.486  1.00 33.13 LIG-0.35  N 
ATOM     56 H    VAL B   2      61.493  25.824   5.345  1.00 33.13 LIG 0.16  HD
ATOM     57  C   ALA B   1      62.442  26.398   3.750  1.00 33.26 LIG 0.25  C 
ATOM     58 O    ALA B   1      62.460  26.354   2.523  1.00 33.25 LIG-0.27  OA
BRANCH 57 59
ATOM     59  CA  ALA B   1      63.503  27.185   4.508  1.00 31.51 LIG 0.27  C 
ATOM     60  CB  ALA B   1      63.872  26.465   5.804  1.00 29.23 LIG 0.05  C 
BRANCH 59 61
ATOM     61  N   ALA B   1      62.960  28.502   4.803  1.00 32.32 LIG-0.07  N 
ATOM     62 H3   ALA B   1      62.277  28.422   5.368  1.00 32.32 LIG 0.28  HD
ATOM     63 H2   ALA B   1      62.678  28.882   4.051  1.00 32.32 LIG 0.28  HD
ATOM     64 H1   ALA B   1      63.592  29.007   5.173  1.00 32.32 LIG 0.28  HD
ENDBRANCH 59 61
ENDBRANCH 57 59
ENDBRANCH 51 55
ENDBRANCH 48 51
ENDBRANCH 45 47
ENDBRANCH 43 45
ENDBRANCH 1 41
TORSDOF 21
ENDMDL
MODEL 4
USER: ADFR SOLUTION from run 6
USER: SCORE 18.657656 LL:  -5.044 LR: -16.328 RR:   0.000 FEB: -10.063
USER: RMSD 11.385345
USER: SEED 577743
USER: STATUS no improvement in best in 11 clusters for 5 generations
USER: GENES 23
USER: genes 0 Translation |==|  0.53455 0.49064 0.51555
USER: genes 1 Rotation |==|  0.07494 0.39115 0.73771 0.53118
USER: genes 2 Torsion [C]-CA--CB-[CG] |==|  0.43296
USER: genes 3 Torsion [CA]-CB--CG-[CD1] |==|  0.54776
USER: genes 4 Torsion [N]-CA--C-[N] |==|  0.55373
USER: genes 5 Torsion [C]-N--CA-[CB] |==|  0.21239
USER: genes 6 Torsion [N]-CA--CB-[CG] |==|  0.53067
USER: genes 7 Torsion [CA]-CB--CG-[CD1] |==|  0.54637
USER: genes 8 Torsion [CE2]-CZ--OH-[HH] |==|  0.62962
USER: genes 9 Torsion [N]-CA--C-[N] |==|  0.01667
USER: genes 10 Torsion [C]-N--CA-[C] |==|  0.83060
USER: genes 11 Torsion [N]-CA--CB-[CG1] |==|  0.42381
USER: genes 12 Torsion [CA]-CB--CG1-[CD1] |==|  0.65178
USER: genes 13 Torsion [N]-CA--C-[N] |==|  0.38709
USER: genes 14 Torsion [N]-CA--C-[O] |==|  0.84741
USER: genes 15 Torsion [CB]-CA--N-[C] |==|  0.35101
USER: genes 16 Torsion [N]-C--CA-[N] |==|  0.49968
USER: genes 17 Torsion [C]-CA--N-[C] |==|  0.52463
USER: genes 18 Torsion [N]-C--CA-[N] |==|  0.89333
USER: genes 19 Torsion [C]-CA--CB-[CG1] |==|  0.50736
USER: genes 20 Torsion [C]-CA--N-[C] |==|  0.74838
USER: genes 21 Torsion [N]-C--CA-[N] |==|  0.85104
USER: genes 22 Torsion [C]-CA--N-[H3] |==|  0.49973
ROOT
ATOM      1  CA  PHE B   4      54.292  26.098  -3.553  1.00 44.68 LIG 0.18  C 
ENDROOT
BRANCH 1 2
ATOM      2  CB  PHE B   4      52.904  25.480  -3.360  1.00 43.52 LIG 0.07  C 
BRANCH 2 3
ATOM      3  CG  PHE B   4      51.850  26.107  -4.225  1.00 43.42 LIG-0.06  A 
ATOM      4  CD2 PHE B   4      52.204  26.832  -5.358  1.00 43.71 LIG 0.01  A 
ATOM      5  CE2 PHE B   4      51.226  27.371  -6.197  1.00 44.42 LIG 0.00  A 
ATOM      6  CZ  PHE B   4      49.876  27.184  -5.896  1.00 44.23 LIG 0.00  A 
ATOM      7  CE1 PHE B   4      49.515  26.463  -4.764  1.00 42.62 LIG 0.00  A 
ATOM      8  CD1 PHE B   4      50.500  25.929  -3.936  1.00 43.35 LIG 0.01  A 
ENDBRANCH 2 3
ENDBRANCH 1 2
BRANCH 1 9
ATOM      9  C   PHE B   4      55.161  25.890  -2.320  1.00 47.70 LIG 0.24  C 
ATOM     10 O    PHE B   4      56.358  25.628  -2.430  1.00 47.98 LIG-0.27  OA
ATOM     11  N   TYR B   5      54.541  25.997  -1.150  1.00 50.93 LIG-0.35  N 
ATOM     12 H    TYR B   5      53.706  26.190  -1.072  1.00 50.93 LIG 0.16  HD
BRANCH 11 13
ATOM     13  CA  TYR B   5      55.224  25.798   0.125  1.00 53.91 LIG 0.18  C 
BRANCH 13 14
ATOM     14  CB  TYR B   5      56.083  27.013   0.486  1.00 56.99 LIG 0.07  C 
BRANCH 14 15
ATOM     15  CG  TYR B   5      57.024  26.777   1.655  1.00 60.80 LIG-0.06  A 
ATOM     16  CD2 TYR B   5      57.311  25.485   2.094  1.00 62.97 LIG 0.01  A 
ATOM     17  CE2 TYR B   5      58.159  25.264   3.182  1.00 63.70 LIG 0.04  A 
ATOM     18  CZ  TYR B   5      58.727  26.348   3.837  1.00 64.21 LIG 0.07  A 
ATOM     19  CE1 TYR B   5      58.460  27.639   3.417  1.00 63.24 LIG 0.04  A 
ATOM     20  CD1 TYR B   5      57.616  27.846   2.333  1.00 61.93 LIG 0.01  A 
BRANCH 18 21
ATOM     21 OH   TYR B   5      59.550  26.143   4.921  1.00 64.43 LIG-0.36  OA
ATOM     22 HH   TYR B   5      59.331  26.664   5.542  1.00 64.43 LIG 0.22  HD
ENDBRANCH 18 21
ENDBRANCH 14 15
ENDBRANCH 13 14
BRANCH 13 23
ATOM     23  C   TYR B   5      54.177  25.586   1.209  1.00 54.78 LIG 0.24  C 
ATOM     24  N   ILE B   6      52.916  25.497   0.799  1.00 56.06 LIG-0.35  N 
ATOM     25 H    ILE B   6      52.673  25.556  -0.024  1.00 56.06 LIG 0.16  HD
ATOM     26 O    TYR B   5      54.508  25.499   2.391  1.00 54.12 LIG-0.27  OA
BRANCH 24 27
ATOM     27  CA  ILE B   6      51.817  25.288   1.735  1.00 57.79 LIG 0.18  C 
BRANCH 27 28
ATOM     28  CB  ILE B   6      50.453  25.290   1.002  1.00 57.25 LIG 0.01  C 
ATOM     29  CG2 ILE B   6      50.606  24.740  -0.404  1.00 56.12 LIG 0.01  C 
BRANCH 28 30
ATOM     30  CG1 ILE B   6      49.449  24.438   1.781  1.00 57.80 LIG 0.00  C 
ATOM     31  CD1 ILE B   6      48.812  23.355   0.942  1.00 58.80 LIG 0.01  C 
ENDBRANCH 28 30
ENDBRANCH 27 28
BRANCH 27 32
ATOM     32  C   ILE B   6      51.986  23.968   2.484  1.00 59.33 LIG 0.24  C 
ATOM     33 O    ILE B   6      52.385  22.954   1.903  1.00 59.66 LIG-0.27  OA
ATOM     34  N   PRO B   7      51.687  23.967   3.794  1.00 60.44 LIG-0.34  N 
ATOM     35  CA  PRO B   7      51.799  22.778   4.642  1.00 61.29 LIG 0.17  C 
ATOM     36  CD  PRO B   7      51.239  25.127   4.585  1.00 60.37 LIG 0.13  C 
ATOM     37  CB  PRO B   7      51.135  23.225   5.938  1.00 61.79 LIG 0.04  C 
ATOM     38  CG  PRO B   7      51.502  24.669   6.002  1.00 60.72 LIG 0.02  C 
BRANCH 35 39
ATOM     39  C   PRO B   7      51.125  21.545   4.041  1.00 62.02 LIG 0.22  C 
ATOM     40 O    PRO B   7      49.944  21.575   3.704  1.00 61.64 LIG-0.29  OA
ENDBRANCH 35 39
ENDBRANCH 27 32
ENDBRANCH 24 27
ENDBRANCH 13 23
ENDBRANCH 11 13
ENDBRANCH 1 9
BRANCH 1 41
ATOM     41  N   PHE B   4      54.928  25.527  -4.728  1.00 40.22 LIG-0.35  N 
ATOM     42 H    PHE B   4      54.964  24.667  -4.735  1.00 40.22 LIG 0.16  HD
ATOM     43  C   ALA B   3      55.406  26.299  -5.695  1.00 36.80 LIG 0.24  C 
ATOM     44 O    ALA B   3      55.333  27.526  -5.665  1.00 35.05 LIG-0.27  OA
BRANCH 43 45
ATOM     45  CA  ALA B   3      56.054  25.587  -6.875  1.00 35.42 LIG 0.17  C 
ATOM     46  CB  ALA B   3      57.227  24.750  -6.397  1.00 34.55 LIG 0.04  C 
BRANCH 45 47
ATOM     47  N   ALA B   3      56.507  26.600  -7.817  1.00 34.22 LIG-0.35  N 
ATOM     48  C   VAL B   2      56.954  26.263  -9.021  1.00 33.55 LIG 0.24  C 
ATOM     49 O    VAL B   2      57.034  25.094  -9.398  1.00 34.35 LIG-0.27  OA
ATOM     50 H    ALA B   3      56.458  27.408  -7.527  1.00 34.22 LIG 0.16  HD
BRANCH 48 51
ATOM     51  CA  VAL B   2      57.376  27.412  -9.933  1.00 33.22 LIG 0.18  C 
BRANCH 51 52
ATOM     52  CB  VAL B   2      58.834  27.803  -9.593  1.00 32.52 LIG 0.01  C 
ATOM     53  CG1 VAL B   2      59.278  28.992 -10.435  1.00 33.02 LIG 0.01  C 
ATOM     54  CG2 VAL B   2      58.945  28.136  -8.111  1.00 33.85 LIG 0.01  C 
ENDBRANCH 51 52
BRANCH 51 55
ATOM     55  N   VAL B   2      56.489  28.562  -9.801  1.00 33.13 LIG-0.35  N 
ATOM     56 H    VAL B   2      56.726  29.122  -9.193  1.00 33.13 LIG 0.16  HD
ATOM     57  C   ALA B   1      55.413  28.712 -10.565  1.00 33.26 LIG 0.25  C 
ATOM     58 O    ALA B   1      55.075  27.898 -11.419  1.00 33.25 LIG-0.27  OA
BRANCH 57 59
ATOM     59  CA  ALA B   1      54.584  29.968 -10.328  1.00 31.51 LIG 0.27  C 
ATOM     60  CB  ALA B   1      55.376  31.210 -10.730  1.00 29.23 LIG 0.05  C 
BRANCH 59 61
ATOM     61  N   ALA B   1      54.249  30.024  -8.913  1.00 32.32 LIG-0.07  N 
ATOM     62 H3   ALA B   1      53.764  30.752  -8.751  1.00 32.32 LIG 0.28  HD
ATOM     63 H2   ALA B   1      54.996  30.053  -8.431  1.00 32.32 LIG 0.28  HD
ATOM     64 H1   ALA B   1      53.780  29.301  -8.690  1.00 32.32 LIG 0.28  HD
ENDBRANCH 59 61
ENDBRANCH 57 59
ENDBRANCH 51 55
ENDBRANCH 48 51
ENDBRANCH 45 47
ENDBRANCH 43 45
ENDBRANCH 1 41
TORSDOF 21
ENDMDL
MODEL 5
USER: ADFR SOLUTION from run 134
USER: SCORE 18.593296 LL:  -5.848 LR: -16.244 RR:   0.000 FEB:  -9.980
USER: RMSD 6.647962
USER: SEED 133
USER: STATUS searching
USER: GENES 23
USER: genes 0 Translation |==|  0.56396 0.43518 0.47491
USER: genes 1 Rotation |==|  0.70139 0.30740 0.61393 0.89921
USER: genes 2 Torsion [C]-CA--CB-[CG] |==|  0.12527
USER: genes 3 Torsion [CA]-CB--CG-[CD1] |==|  0.16957
USER: genes 4 Torsion [N]-CA--C-[N] |==|  0.41509
USER: genes 5 Torsion [C]-N--CA-[CB] |==|  0.48523
USER: genes 6 Torsion [N]-CA--CB-[CG] |==|  0.70645
USER: genes 7 Torsion [CA]-CB--CG-[CD1] |==|  0.74695
USER: genes 8 Torsion [CE2]-CZ--OH-[HH] |==|  0.72176
USER: genes 9 Torsion [N]-CA--C-[N] |==|  0.29356
USER: genes 10 Torsion [C]-N--CA-[C] |==|  0.63312
USER: genes 11 Torsion [N]-CA--CB-[CG1] |==|  0.88612
USER: genes 12 Torsion [CA]-CB--CG1-[CD1] |==|  0.54301
USER: genes 13 Torsion [N]-CA--C-[N] |==|  0.15046
USER: genes 14 Torsion [N]-CA--C-[O] |==|  0.25018
USER: genes 15 Torsion [CB]-CA--N-[C] |==|  0.28889
USER: genes 16 Torsion [N]-C--CA-[N] |==|  0.54409
USER: genes 17 Torsion [C]-CA--N-[C] |==|  0.55046
USER: genes 18 Torsion [N]-C--CA-[N] |==|  0.34761
USER: genes 19 Torsion [C]-CA--CB-[CG1] |==|  0.14097
USER: genes 20 Torsion [C]-CA--N-[C] |==|  0.76309
USER: genes 21 Torsion [N]-C--CA-[N] |==|  0.42370
USER: genes 22 Torsion [C]-CA--N-[H3] |==|  0.45502
ROOT
ATOM      1  CA  PHE B   4      54.976  25.182  -4.559  1.00 44.68 LIG 0.18  C 
ENDROOT
BRANCH 1 2
ATOM      2  CB  PHE B   4      53.826  24.247  -4.941  1.00 43.52 LIG 0.07  C 
BRANCH 2 3
ATOM      3  CG  PHE B   4      53.818  23.878  -6.396  1.00 43.42 LIG-0.06  A 
ATOM      4  CD2 PHE B   4      52.758  24.253  -7.215  1.00 43.71 LIG 0.01  A 
ATOM      5  CE2 PHE B   4      52.771  23.961  -8.581  1.00 44.42 LIG 0.00  A 
ATOM      6  CZ  PHE B   4      53.857  23.280  -9.132  1.00 44.23 LIG 0.00  A 
ATOM      7  CE1 PHE B   4      54.918  22.899  -8.320  1.00 42.62 LIG 0.00  A 
ATOM      8  CD1 PHE B   4      54.893  23.198  -6.959  1.00 43.35 LIG 0.01  A 
ENDBRANCH 2 3
ENDBRANCH 1 2
BRANCH 1 9
ATOM      9  C   PHE B   4      55.126  26.310  -5.572  1.00 47.70 LIG 0.24  C 
ATOM     10 O    PHE B   4      54.533  27.377  -5.417  1.00 47.98 LIG-0.27  OA
ATOM     11  N   TYR B   5      55.911  26.054  -6.612  1.00 50.93 LIG-0.35  N 
ATOM     12 H    TYR B   5      56.333  25.311  -6.715  1.00 50.93 LIG 0.16  HD
BRANCH 11 13
ATOM     13  CA  TYR B   5      56.135  27.017  -7.686  1.00 53.91 LIG 0.18  C 
BRANCH 13 14
ATOM     14  CB  TYR B   5      57.183  26.503  -8.678  1.00 56.99 LIG 0.07  C 
BRANCH 14 15
ATOM     15  CG  TYR B   5      58.533  27.189  -8.557  1.00 60.80 LIG-0.06  A 
ATOM     16  CD2 TYR B   5      59.504  26.712  -7.678  1.00 62.97 LIG 0.01  A 
ATOM     17  CE2 TYR B   5      60.738  27.353  -7.550  1.00 63.70 LIG 0.04  A 
ATOM     18  CZ  TYR B   5      61.005  28.483  -8.310  1.00 64.21 LIG 0.07  A 
ATOM     19  CE1 TYR B   5      60.058  28.973  -9.192  1.00 63.24 LIG 0.04  A 
ATOM     20  CD1 TYR B   5      58.835  28.327  -9.312  1.00 61.93 LIG 0.01  A 
BRANCH 18 21
ATOM     21 OH   TYR B   5      62.211  29.132  -8.177  1.00 64.43 LIG-0.36  OA
ATOM     22 HH   TYR B   5      62.114  29.807  -7.686  1.00 64.43 LIG 0.22  HD
ENDBRANCH 18 21
ENDBRANCH 14 15
ENDBRANCH 13 14
BRANCH 13 23
ATOM     23  C   TYR B   5      54.821  27.241  -8.419  1.00 54.78 LIG 0.24  C 
ATOM     24  N   ILE B   6      54.204  28.395  -8.183  1.00 56.06 LIG-0.35  N 
ATOM     25 H    ILE B   6      54.504  28.998  -7.648  1.00 56.06 LIG 0.16  HD
ATOM     26 O    TYR B   5      54.379  26.387  -9.187  1.00 54.12 LIG-0.27  OA
BRANCH 24 27
ATOM     27  CA  ILE B   6      52.940  28.736  -8.826  1.00 57.79 LIG 0.18  C 
BRANCH 27 28
ATOM     28  CB  ILE B   6      51.761  28.633  -7.827  1.00 57.25 LIG 0.01  C 
ATOM     29  CG2 ILE B   6      50.442  28.547  -8.571  1.00 56.12 LIG 0.01  C 
BRANCH 28 30
ATOM     30  CG1 ILE B   6      51.938  27.392  -6.950  1.00 57.80 LIG 0.00  C 
ATOM     31  CD1 ILE B   6      50.679  27.001  -6.212  1.00 58.80 LIG 0.01  C 
ENDBRANCH 28 30
ENDBRANCH 27 28
BRANCH 27 32
ATOM     32  C   ILE B   6      52.989  30.147  -9.407  1.00 59.33 LIG 0.24  C 
ATOM     33 O    ILE B   6      52.138  30.989  -9.104  1.00 59.66 LIG-0.27  OA
ATOM     34  N   PRO B   7      53.998  30.426 -10.248  1.00 60.44 LIG-0.34  N 
ATOM     35  CA  PRO B   7      54.176  31.734 -10.882  1.00 61.29 LIG 0.17  C 
ATOM     36  CD  PRO B   7      55.081  29.507 -10.644  1.00 60.37 LIG 0.13  C 
ATOM     37  CB  PRO B   7      55.282  31.470 -11.896  1.00 61.79 LIG 0.04  C 
ATOM     38  CG  PRO B   7      56.122  30.457 -11.193  1.00 60.72 LIG 0.02  C 
BRANCH 35 39
ATOM     39  C   PRO B   7      52.901  32.262 -11.541  1.00 62.02 LIG 0.22  C 
ATOM     40 O    PRO B   7      52.107  32.954 -10.908  1.00 61.64 LIG-0.29  OA
ENDBRANCH 35 39
ENDBRANCH 27 32
ENDBRANCH 24 27
ENDBRANCH 13 23
ENDBRANCH 11 13
ENDBRANCH 1 9
BRANCH 1 41
ATOM     41  N   PHE B   4      54.756  25.718  -3.227  1.00 40.22 LIG-0.35  N 
ATOM     42 H    PHE B   4      54.163  26.339  -3.183  1.00 40.22 LIG 0.16  HD
ATOM     43  C   ALA B   3      55.435  25.263  -2.181  1.00 36.80 LIG 0.24  C 
ATOM     44 O    ALA B   3      56.270  24.365  -2.269  1.00 35.05 LIG-0.27  OA
BRANCH 43 45
ATOM     45  CA  ALA B   3      55.120  25.904  -0.836  1.00 35.42 LIG 0.17  C 
ATOM     46  CB  ALA B   3      55.016  27.410  -0.990  1.00 34.55 LIG 0.04  C 
BRANCH 45 47
ATOM     47  N   ALA B   3      56.194  25.562   0.085  1.00 34.22 LIG-0.35  N 
ATOM     48  C   VAL B   2      56.028  25.671   1.398  1.00 33.55 LIG 0.24  C 
ATOM     49 O    VAL B   2      54.985  26.082   1.905  1.00 34.35 LIG-0.27  OA
ATOM     50 H    ALA B   3      56.919  25.294  -0.291  1.00 34.22 LIG 0.16  HD
BRANCH 48 51
ATOM     51  CA  VAL B   2      57.213  25.260   2.267  1.00 33.22 LIG 0.18  C 
BRANCH 51 52
ATOM     52  CB  VAL B   2      56.830  23.983   3.054  1.00 32.52 LIG 0.01  C 
ATOM     53  CG1 VAL B   2      56.270  22.924   2.113  1.00 33.02 LIG 0.01  C 
ATOM     54  CG2 VAL B   2      58.050  23.444   3.787  1.00 33.85 LIG 0.01  C 
ENDBRANCH 51 52
BRANCH 51 55
ATOM     55  N   VAL B   2      57.613  26.325   3.179  1.00 33.13 LIG-0.35  N 
ATOM     56 H    VAL B   2      57.264  26.268   3.963  1.00 33.13 LIG 0.16  HD
ATOM     57  C   ALA B   1      58.446  27.291   2.809  1.00 33.26 LIG 0.25  C 
ATOM     58 O    ALA B   1      58.925  27.372   1.682  1.00 33.25 LIG-0.27  OA
BRANCH 57 59
ATOM     59  CA  ALA B   1      58.788  28.333   3.867  1.00 31.51 LIG 0.27  C 
ATOM     60  CB  ALA B   1      57.752  29.456   3.859  1.00 29.23 LIG 0.05  C 
BRANCH 59 61
ATOM     61  N   ALA B   1      60.107  28.865   3.562  1.00 32.32 LIG-0.07  N 
ATOM     62 H3   ALA B   1      60.232  29.624   4.010  1.00 32.32 LIG 0.28  HD
ATOM     63 H2   ALA B   1      60.169  29.024   2.689  1.00 32.32 LIG 0.28  HD
ATOM     64 H1   ALA B   1      60.728  28.275   3.801  1.00 32.32 LIG 0.28  HD
ENDBRANCH 59 61
ENDBRANCH 57 59
ENDBRANCH 51 55
ENDBRANCH 48 51
ENDBRANCH 45 47
ENDBRANCH 43 45
ENDBRANCH 1 41
TORSDOF 21
ENDMDL
MODEL 6
USER: ADFR SOLUTION from run 93
USER: SCORE 19.083913 LL:  -5.587 LR: -16.208 RR:   0.000 FEB:  -9.944
USER: RMSD 6.923533
USER: SEED 92
USER: STATUS no improvement in best in 5 clusters for 5 generations
USER: GENES 23
USER: genes 0 Translation |==|  0.57839 0.43300 0.44753
USER: genes 1 Rotation |==|  0.64975 0.30546 0.60419 0.92293
USER: genes 2 Torsion [C]-CA--CB-[CG] |==|  0.77083
USER: genes 3 Torsion [CA]-CB--CG-[CD1] |==|  0.66311
USER: genes 4 Torsion [N]-CA--C-[N] |==|  0.58526
USER: genes 5 Torsion [C]-N--CA-[CB] |==|  0.85402
USER: genes 6 Torsion [N]-CA--CB-[CG] |==|  0.50128
USER: genes 7 Torsion [CA]-CB--CG-[CD1] |==|  0.11455
USER: genes 8 Torsion [CE2]-CZ--OH-[HH] |==|  0.34185
USER: genes 9 Torsion [N]-CA--C-[N] |==|  0.77778
USER: genes 10 Torsion [C]-N--CA-[C] |==|  0.64421
USER: genes 11 Torsion [N]-CA--CB-[CG1] |==|  0.73571
USER: genes 12 Torsion [CA]-CB--CG1-[CD1] |==|  0.33148
USER: genes 13 Torsion [N]-CA--C-[N] |==|  0.34840
USER: genes 14 Torsion [N]-CA--C-[O] |==|  0.45444
USER: genes 15 Torsion [CB]-CA--N-[C] |==|  0.18583
USER: genes 16 Torsion [N]-C--CA-[N] |==|  0.66303
USER: genes 17 Torsion [C]-CA--N-[C] |==|  0.59639
USER: genes 18 Torsion [N]-C--CA-[N] |==|  0.40838
USER: genes 19 Torsion [C]-CA--CB-[CG1] |==|  0.36315
USER: genes 20 Torsion [C]-CA--N-[C] |==|  0.62556
USER: genes 21 Torsion [N]-C--CA-[N] |==|  0.36450
USER: genes 22 Torsion [C]-CA--N-[H3] |==|  0.35991
ROOT
ATOM      1  CA  PHE B   4      55.312  25.146  -5.237  1.00 44.68 LIG 0.18  C 
ENDROOT
BRANCH 1 2
ATOM      2  CB  PHE B   4      54.041  24.319  -5.455  1.00 43.52 LIG 0.07  C 
BRANCH 2 3
ATOM      3  CG  PHE B   4      52.781  25.072  -5.141  1.00 43.42 LIG-0.06  A 
ATOM      4  CD2 PHE B   4      52.453  26.225  -5.846  1.00 43.71 LIG 0.01  A 
ATOM      5  CE2 PHE B   4      51.255  26.899  -5.596  1.00 44.42 LIG 0.00  A 
ATOM      6  CZ  PHE B   4      50.377  26.414  -4.627  1.00 44.23 LIG 0.00  A 
ATOM      7  CE1 PHE B   4      50.699  25.263  -3.917  1.00 42.62 LIG 0.00  A 
ATOM      8  CD1 PHE B   4      51.897  24.600  -4.177  1.00 43.35 LIG 0.01  A 
ENDBRANCH 2 3
ENDBRANCH 1 2
BRANCH 1 9
ATOM      9  C   PHE B   4      55.600  26.036  -6.438  1.00 47.70 LIG 0.24  C 
ATOM     10 O    PHE B   4      56.216  27.093  -6.305  1.00 47.98 LIG-0.27  OA
ATOM     11  N   TYR B   5      55.136  25.602  -7.605  1.00 50.93 LIG-0.35  N 
ATOM     12 H    TYR B   5      54.713  24.859  -7.699  1.00 50.93 LIG 0.16  HD
BRANCH 11 13
ATOM     13  CA  TYR B   5      55.302  26.352  -8.847  1.00 53.91 LIG 0.18  C 
BRANCH 13 14
ATOM     14  CB  TYR B   5      54.806  27.792  -8.691  1.00 56.99 LIG 0.07  C 
BRANCH 14 15
ATOM     15  CG  TYR B   5      54.939  28.629  -9.952  1.00 60.80 LIG-0.06  A 
ATOM     16  CD2 TYR B   5      55.355  29.958  -9.890  1.00 62.97 LIG 0.01  A 
ATOM     17  CE2 TYR B   5      55.458  30.736 -11.046  1.00 63.70 LIG 0.04  A 
ATOM     18  CZ  TYR B   5      55.143  30.178 -12.277  1.00 64.21 LIG 0.07  A 
ATOM     19  CE1 TYR B   5      54.732  28.859 -12.364  1.00 63.24 LIG 0.04  A 
ATOM     20  CD1 TYR B   5      54.634  28.095 -11.208  1.00 61.93 LIG 0.01  A 
BRANCH 18 21
ATOM     21 OH   TYR B   5      55.224  30.940 -13.419  1.00 64.43 LIG-0.36  OA
ATOM     22 HH   TYR B   5      55.745  30.572 -13.966  1.00 64.43 LIG 0.22  HD
ENDBRANCH 18 21
ENDBRANCH 14 15
ENDBRANCH 13 14
BRANCH 13 23
ATOM     23  C   TYR B   5      56.779  26.369  -9.209  1.00 54.78 LIG 0.24  C 
ATOM     24  N   ILE B   6      57.534  27.254  -8.564  1.00 56.06 LIG-0.35  N 
ATOM     25 H    ILE B   6      57.232  27.801  -7.974  1.00 56.06 LIG 0.16  HD
ATOM     26 O    TYR B   5      57.226  25.592 -10.052  1.00 54.12 LIG-0.27  OA
BRANCH 24 27
ATOM     27  CA  ILE B   6      58.967  27.368  -8.814  1.00 57.79 LIG 0.18  C 
BRANCH 27 28
ATOM     28  CB  ILE B   6      59.300  28.693  -9.543  1.00 57.25 LIG 0.01  C 
ATOM     29  CG2 ILE B   6      60.627  29.246  -9.057  1.00 56.12 LIG 0.01  C 
BRANCH 28 30
ATOM     30  CG1 ILE B   6      59.368  28.445 -11.051  1.00 57.80 LIG 0.00  C 
ATOM     31  CD1 ILE B   6      58.358  29.252 -11.832  1.00 58.80 LIG 0.01  C 
ENDBRANCH 28 30
ENDBRANCH 27 28
BRANCH 27 32
ATOM     32  C   ILE B   6      59.753  27.299  -7.506  1.00 59.33 LIG 0.24  C 
ATOM     33 O    ILE B   6      59.496  28.062  -6.569  1.00 59.66 LIG-0.27  OA
ATOM     34  N   PRO B   7      60.721  26.373  -7.426  1.00 60.44 LIG-0.34  N 
ATOM     35  CA  PRO B   7      61.558  26.189  -6.237  1.00 61.29 LIG 0.17  C 
ATOM     36  CD  PRO B   7      61.081  25.396  -8.468  1.00 60.37 LIG 0.13  C 
ATOM     37  CB  PRO B   7      62.625  25.216  -6.724  1.00 61.79 LIG 0.04  C 
ATOM     38  CG  PRO B   7      61.865  24.366  -7.686  1.00 60.72 LIG 0.02  C 
BRANCH 35 39
ATOM     39  C   PRO B   7      62.159  27.494  -5.716  1.00 62.02 LIG 0.22  C 
ATOM     40 O    PRO B   7      62.626  27.562  -4.581  1.00 61.64 LIG-0.29  OA
ENDBRANCH 35 39
ENDBRANCH 27 32
ENDBRANCH 24 27
ENDBRANCH 13 23
ENDBRANCH 11 13
ENDBRANCH 1 9
BRANCH 1 41
ATOM     41  N   PHE B   4      55.181  25.945  -4.029  1.00 40.22 LIG-0.35  N 
ATOM     42 H    PHE B   4      55.146  26.793  -4.162  1.00 40.22 LIG 0.16  HD
ATOM     43  C   ALA B   3      55.123  25.376  -2.832  1.00 36.80 LIG 0.24  C 
ATOM     44 O    ALA B   3      55.163  24.158  -2.670  1.00 35.05 LIG-0.27  OA
BRANCH 43 45
ATOM     45  CA  ALA B   3      54.990  26.315  -1.640  1.00 35.42 LIG 0.17  C 
ATOM     46  CB  ALA B   3      54.973  27.757  -2.115  1.00 34.55 LIG 0.04  C 
BRANCH 45 47
ATOM     47  N   ALA B   3      56.126  26.085  -0.759  1.00 34.22 LIG-0.35  N 
ATOM     48  C   VAL B   2      55.998  26.180   0.559  1.00 33.55 LIG 0.24  C 
ATOM     49 O    VAL B   2      54.938  26.486   1.104  1.00 34.35 LIG-0.27  OA
ATOM     50 H    ALA B   3      56.860  25.889  -1.162  1.00 34.22 LIG 0.16  HD
BRANCH 48 51
ATOM     51  CA  VAL B   2      57.250  25.891   1.383  1.00 33.22 LIG 0.18  C 
BRANCH 51 52
ATOM     52  CB  VAL B   2      57.277  24.382   1.728  1.00 32.52 LIG 0.01  C 
ATOM     53  CG1 VAL B   2      58.639  23.784   1.400  1.00 33.02 LIG 0.01  C 
ATOM     54  CG2 VAL B   2      56.957  24.186   3.204  1.00 33.85 LIG 0.01  C 
ENDBRANCH 51 52
BRANCH 51 55
ATOM     55  N   VAL B   2      57.297  26.698   2.597  1.00 33.13 LIG-0.35  N 
ATOM     56 H    VAL B   2      56.554  26.730   3.029  1.00 33.13 LIG 0.16  HD
ATOM     57  C   ALA B   1      58.404  27.322   2.984  1.00 33.26 LIG 0.25  C 
ATOM     58 O    ALA B   1      59.455  27.283   2.350  1.00 33.25 LIG-0.27  OA
BRANCH 57 59
ATOM     59  CA  ALA B   1      58.315  28.119   4.278  1.00 31.51 LIG 0.27  C 
ATOM     60  CB  ALA B   1      58.342  29.617   3.982  1.00 29.23 LIG 0.05  C 
BRANCH 59 61
ATOM     61  N   ALA B   1      59.451  27.752   5.110  1.00 32.32 LIG-0.07  N 
ATOM     62 H3   ALA B   1      59.864  28.488   5.391  1.00 32.32 LIG 0.28  HD
ATOM     63 H2   ALA B   1      60.018  27.257   4.637  1.00 32.32 LIG 0.28  HD
ATOM     64 H1   ALA B   1      59.166  27.287   5.813  1.00 32.32 LIG 0.28  HD
ENDBRANCH 59 61
ENDBRANCH 57 59
ENDBRANCH 51 55
ENDBRANCH 48 51
ENDBRANCH 45 47
ENDBRANCH 43 45
ENDBRANCH 1 41
TORSDOF 21
ENDMDL
MODEL 7
USER: ADFR SOLUTION from run 19
USER: SCORE 19.260857 LL:  -6.371 LR: -16.192 RR:   0.000 FEB:  -9.928
USER: RMSD 6.209795
USER: SEED 18
USER: STATUS no improvement in best in 3 clusters for 5 generations
USER: GENES 23
USER: genes 0 Translation |==|  0.56930 0.47495 0.64697
USER: genes 1 Rotation |==|  0.13944 0.34509 0.21932 0.63121
USER: genes 2 Torsion [C]-CA--CB-[CG] |==|  0.95319
USER: genes 3 Torsion [CA]-CB--CG-[CD1] |==|  0.30153
USER: genes 4 Torsion [N]-CA--C-[N] |==|  0.44148
USER: genes 5 Torsion [C]-N--CA-[CB] |==|  0.37451
USER: genes 6 Torsion [N]-CA--CB-[CG] |==|  0.82608
USER: genes 7 Torsion [CA]-CB--CG-[CD1] |==|  0.18524
USER: genes 8 Torsion [CE2]-CZ--OH-[HH] |==|  0.01663
USER: genes 9 Torsion [N]-CA--C-[N] |==|  0.77522
USER: genes 10 Torsion [C]-N--CA-[C] |==|  0.70084
USER: genes 11 Torsion [N]-CA--CB-[CG1] |==|  0.26237
USER: genes 12 Torsion [CA]-CB--CG1-[CD1] |==|  0.34295
USER: genes 13 Torsion [N]-CA--C-[N] |==|  0.40827
USER: genes 14 Torsion [N]-CA--C-[O] |==|  0.77351
USER: genes 15 Torsion [CB]-CA--N-[C] |==|  0.43922
USER: genes 16 Torsion [N]-C--CA-[N] |==|  0.30204
USER: genes 17 Torsion [C]-CA--N-[C] |==|  0.70354
USER: genes 18 Torsion [N]-C--CA-[N] |==|  0.42062
USER: genes 19 Torsion [C]-CA--CB-[CG1] |==|  0.95052
USER: genes 20 Torsion [C]-CA--N-[C] |==|  0.82222
USER: genes 21 Torsion [N]-C--CA-[N] |==|  0.15577
USER: genes 22 Torsion [C]-CA--N-[H3] |==|  0.02852
ROOT
ATOM      1  CA  PHE B   4      55.100  25.839  -0.300  1.00 44.68 LIG 0.18  C 
ENDROOT
BRANCH 1 2
ATOM      2  CB  PHE B   4      55.684  26.450  -1.578  1.00 43.52 LIG 0.07  C 
BRANCH 2 3
ATOM      3  CG  PHE B   4      55.525  25.571  -2.783  1.00 43.42 LIG-0.06  A 
ATOM      4  CD2 PHE B   4      56.237  24.382  -2.890  1.00 43.71 LIG 0.01  A 
ATOM      5  CE2 PHE B   4      56.052  23.533  -3.984  1.00 44.42 LIG 0.00  A 
ATOM      6  CZ  PHE B   4      55.145  23.881  -4.985  1.00 44.23 LIG 0.00  A 
ATOM      7  CE1 PHE B   4      54.432  25.070  -4.887  1.00 42.62 LIG 0.00  A 
ATOM      8  CD1 PHE B   4      54.624  25.907  -3.790  1.00 43.35 LIG 0.01  A 
ENDBRANCH 2 3
ENDBRANCH 1 2
BRANCH 1 9
ATOM      9  C   PHE B   4      54.148  24.696  -0.625  1.00 47.70 LIG 0.24  C 
ATOM     10 O    PHE B   4      54.514  23.525  -0.529  1.00 47.98 LIG-0.27  OA
ATOM     11  N   TYR B   5      52.931  25.051  -1.022  1.00 50.93 LIG-0.35  N 
ATOM     12 H    TYR B   5      52.672  25.868  -1.081  1.00 50.93 LIG 0.16  HD
BRANCH 11 13
ATOM     13  CA  TYR B   5      51.910  24.077  -1.399  1.00 53.91 LIG 0.18  C 
BRANCH 13 14
ATOM     14  CB  TYR B   5      50.557  24.426  -0.772  1.00 56.99 LIG 0.07  C 
BRANCH 14 15
ATOM     15  CG  TYR B   5      50.558  24.400   0.747  1.00 60.80 LIG-0.06  A 
ATOM     16  CD2 TYR B   5      49.806  23.458   1.447  1.00 62.97 LIG 0.01  A 
ATOM     17  CE2 TYR B   5      49.789  23.444   2.844  1.00 63.70 LIG 0.04  A 
ATOM     18  CZ  TYR B   5      50.532  24.382   3.547  1.00 64.21 LIG 0.07  A 
ATOM     19  CE1 TYR B   5      51.289  25.324   2.873  1.00 63.24 LIG 0.04  A 
ATOM     20  CD1 TYR B   5      51.299  25.327   1.484  1.00 61.93 LIG 0.01  A 
BRANCH 18 21
ATOM     21 OH   TYR B   5      50.507  24.388   4.923  1.00 64.43 LIG-0.36  OA
ATOM     22 HH   TYR B   5      50.071  23.725   5.199  1.00 64.43 LIG 0.22  HD
ENDBRANCH 18 21
ENDBRANCH 14 15
ENDBRANCH 13 14
BRANCH 13 23
ATOM     23  C   TYR B   5      51.774  24.079  -2.915  1.00 54.78 LIG 0.24  C 
ATOM     24  N   ILE B   6      51.029  25.048  -3.438  1.00 56.06 LIG-0.35  N 
ATOM     25 H    ILE B   6      50.631  25.651  -2.971  1.00 56.06 LIG 0.16  HD
ATOM     26 O    TYR B   5      52.338  23.223  -3.595  1.00 54.12 LIG-0.27  OA
BRANCH 24 27
ATOM     27  CA  ILE B   6      50.823  25.168  -4.877  1.00 57.79 LIG 0.18  C 
BRANCH 27 28
ATOM     28  CB  ILE B   6      49.320  25.329  -5.213  1.00 57.25 LIG 0.01  C 
ATOM     29  CG2 ILE B   6      48.465  24.695  -4.132  1.00 56.12 LIG 0.01  C 
BRANCH 28 30
ATOM     30  CG1 ILE B   6      48.978  26.815  -5.333  1.00 57.80 LIG 0.00  C 
ATOM     31  CD1 ILE B   6      48.366  27.178  -6.666  1.00 58.80 LIG 0.01  C 
ENDBRANCH 28 30
ENDBRANCH 27 28
BRANCH 27 32
ATOM     32  C   ILE B   6      51.598  26.357  -5.439  1.00 59.33 LIG 0.24  C 
ATOM     33 O    ILE B   6      51.774  27.377  -4.765  1.00 59.66 LIG-0.27  OA
ATOM     34  N   PRO B   7      52.077  26.237  -6.688  1.00 60.44 LIG-0.34  N 
ATOM     35  CA  PRO B   7      52.838  27.294  -7.360  1.00 61.29 LIG 0.17  C 
ATOM     36  CD  PRO B   7      51.953  25.055  -7.559  1.00 60.37 LIG 0.13  C 
ATOM     37  CB  PRO B   7      52.936  26.780  -8.791  1.00 61.79 LIG 0.04  C 
ATOM     38  CG  PRO B   7      53.028  25.304  -8.593  1.00 60.72 LIG 0.02  C 
BRANCH 35 39
ATOM     39  C   PRO B   7      52.164  28.664  -7.282  1.00 62.02 LIG 0.22  C 
ATOM     40 O    PRO B   7      51.261  28.965  -8.058  1.00 61.64 LIG-0.29  OA
ENDBRANCH 35 39
ENDBRANCH 27 32
ENDBRANCH 24 27
ENDBRANCH 13 23
ENDBRANCH 11 13
ENDBRANCH 1 9
BRANCH 1 41
ATOM     41  N   PHE B   4      56.174  25.379   0.564  1.00 40.22 LIG-0.35  N 
ATOM     42 H    PHE B   4      56.919  25.230   0.161  1.00 40.22 LIG 0.16  HD
ATOM     43  C   ALA B   3      55.986  25.215   1.867  1.00 36.80 LIG 0.24  C 
ATOM     44 O    ALA B   3      54.913  25.447   2.419  1.00 35.05 LIG-0.27  OA
BRANCH 43 45
ATOM     45  CA  ALA B   3      57.185  24.725   2.669  1.00 35.42 LIG 0.17  C 
ATOM     46  CB  ALA B   3      56.780  23.556   3.548  1.00 34.55 LIG 0.04  C 
BRANCH 45 47
ATOM     47  N   ALA B   3      57.659  25.833   3.486  1.00 34.22 LIG-0.35  N 
ATOM     48  C   VAL B   2      58.784  26.471   3.185  1.00 33.55 LIG 0.24  C 
ATOM     49 O    VAL B   2      59.493  26.156   2.230  1.00 34.35 LIG-0.27  OA
ATOM     50 H    ALA B   3      57.158  26.025   4.157  1.00 34.22 LIG 0.16  HD
BRANCH 48 51
ATOM     51  CA  VAL B   2      59.168  27.633   4.097  1.00 33.22 LIG 0.18  C 
BRANCH 51 52
ATOM     52  CB  VAL B   2      58.461  28.914   3.591  1.00 32.52 LIG 0.01  C 
ATOM     53  CG1 VAL B   2      57.989  28.730   2.154  1.00 33.02 LIG 0.01  C 
ATOM     54  CG2 VAL B   2      57.281  29.242   4.495  1.00 33.85 LIG 0.01  C 
ENDBRANCH 51 52
BRANCH 51 55
ATOM     55  N   VAL B   2      60.612  27.828   4.147  1.00 33.13 LIG-0.35  N 
ATOM     56 H    VAL B   2      60.878  28.582   3.828  1.00 33.13 LIG 0.16  HD
ATOM     57  C   ALA B   1      61.429  26.908   4.646  1.00 33.26 LIG 0.25  C 
ATOM     58 O    ALA B   1      61.041  25.829   5.083  1.00 33.25 LIG-0.27  OA
BRANCH 57 59
ATOM     59  CA  ALA B   1      62.914  27.249   4.647  1.00 31.51 LIG 0.27  C 
ATOM     60  CB  ALA B   1      63.712  26.139   5.326  1.00 29.23 LIG 0.05  C 
BRANCH 59 61
ATOM     61  N   ALA B   1      63.086  28.502   5.367  1.00 32.32 LIG-0.07  N 
ATOM     62 H3   ALA B   1      62.325  28.718   5.773  1.00 32.32 LIG 0.28  HD
ATOM     63 H2   ALA B   1      63.309  29.146   4.794  1.00 32.32 LIG 0.28  HD
ATOM     64 H1   ALA B   1      63.730  28.409   5.974  1.00 32.32 LIG 0.28  HD
ENDBRANCH 59 61
ENDBRANCH 57 59
ENDBRANCH 51 55
ENDBRANCH 48 51
ENDBRANCH 45 47
ENDBRANCH 43 45
ENDBRANCH 1 41
TORSDOF 21
ENDMDL
MODEL 8
USER: ADFR SOLUTION from run 31
USER: SCORE 19.943261 LL:  -5.446 LR: -16.104 RR:   0.000 FEB:  -9.840
USER: RMSD 5.932443
USER: SEED 30
USER: STATUS 1 or 2 clusters left
USER: GENES 23
USER: genes 0 Translation |==|  0.54290 0.44313 0.50441
USER: genes 1 Rotation |==|  0.61573 0.44077 0.27897 0.92923
USER: genes 2 Torsion [C]-CA--CB-[CG] |==|  0.24935
USER: genes 3 Torsion [CA]-CB--CG-[CD1] |==|  0.25481
USER: genes 4 Torsion [N]-CA--C-[N] |==|  0.13322
USER: genes 5 Torsion [C]-N--CA-[CB] |==|  0.52223
USER: genes 6 Torsion [N]-CA--CB-[CG] |==|  0.65671
USER: genes 7 Torsion [CA]-CB--CG-[CD1] |==|  0.78326
USER: genes 8 Torsion [CE2]-CZ--OH-[HH] |==|  0.76862
USER: genes 9 Torsion [N]-CA--C-[N] |==|  0.30755
USER: genes 10 Torsion [C]-N--CA-[C] |==|  0.59934
USER: genes 11 Torsion [N]-CA--CB-[CG1] |==|  0.84171
USER: genes 12 Torsion [CA]-CB--CG1-[CD1] |==|  0.77563
USER: genes 13 Torsion [N]-CA--C-[N] |==|  0.16941
USER: genes 14 Torsion [N]-CA--C-[O] |==|  0.50291
USER: genes 15 Torsion [CB]-CA--N-[C] |==|  0.14412
USER: genes 16 Torsion [N]-C--CA-[N] |==|  0.39822
USER: genes 17 Torsion [C]-CA--N-[C] |==|  0.75800
USER: genes 18 Torsion [N]-C--CA-[N] |==|  0.47564
USER: genes 19 Torsion [C]-CA--CB-[CG1] |==|  0.90080
USER: genes 20 Torsion [C]-CA--N-[C] |==|  0.70560
USER: genes 21 Torsion [N]-C--CA-[N] |==|  0.47283
USER: genes 22 Torsion [C]-CA--N-[H3] |==|  0.25403
ROOT
ATOM      1  CA  PHE B   4      54.486  25.314  -3.829  1.00 44.68 LIG 0.18  C 
ENDROOT
BRANCH 1 2
ATOM      2  CB  PHE B   4      53.467  25.868  -2.830  1.00 43.52 LIG 0.07  C 
BRANCH 2 3
ATOM      3  CG  PHE B   4      52.051  25.488  -3.152  1.00 43.42 LIG-0.06  A 
ATOM      4  CD2 PHE B   4      51.299  26.252  -4.038  1.00 43.71 LIG 0.01  A 
ATOM      5  CE2 PHE B   4      50.000  25.873  -4.385  1.00 44.42 LIG 0.00  A 
ATOM      6  CZ  PHE B   4      49.446  24.717  -3.836  1.00 44.23 LIG 0.00  A 
ATOM      7  CE1 PHE B   4      50.191  23.950  -2.947  1.00 42.62 LIG 0.00  A 
ATOM      8  CD1 PHE B   4      51.486  24.338  -2.611  1.00 43.35 LIG 0.01  A 
ENDBRANCH 2 3
ENDBRANCH 1 2
BRANCH 1 9
ATOM      9  C   PHE B   4      54.712  26.286  -4.978  1.00 47.70 LIG 0.24  C 
ATOM     10 O    PHE B   4      53.982  27.266  -5.126  1.00 47.98 LIG-0.27  OA
ATOM     11  N   TYR B   5      55.721  25.997  -5.793  1.00 50.93 LIG-0.35  N 
ATOM     12 H    TYR B   5      56.237  25.317  -5.684  1.00 50.93 LIG 0.16  HD
BRANCH 11 13
ATOM     13  CA  TYR B   5      56.050  26.811  -6.959  1.00 53.91 LIG 0.18  C 
BRANCH 13 14
ATOM     14  CB  TYR B   5      57.124  26.136  -7.817  1.00 56.99 LIG 0.07  C 
BRANCH 14 15
ATOM     15  CG  TYR B   5      58.358  26.992  -8.045  1.00 60.80 LIG-0.06  A 
ATOM     16  CD2 TYR B   5      59.525  26.776  -7.313  1.00 62.97 LIG 0.01  A 
ATOM     17  CE2 TYR B   5      60.655  27.575  -7.505  1.00 63.70 LIG 0.04  A 
ATOM     18  CZ  TYR B   5      60.617  28.600  -8.440  1.00 64.21 LIG 0.07  A 
ATOM     19  CE1 TYR B   5      59.471  28.830  -9.181  1.00 63.24 LIG 0.04  A 
ATOM     20  CD1 TYR B   5      58.354  28.029  -8.982  1.00 61.93 LIG 0.01  A 
BRANCH 18 21
ATOM     21 OH   TYR B   5      61.718  29.404  -8.624  1.00 64.43 LIG-0.36  OA
ATOM     22 HH   TYR B   5      61.721  30.014  -8.046  1.00 64.43 LIG 0.22  HD
ENDBRANCH 18 21
ENDBRANCH 14 15
ENDBRANCH 13 14
BRANCH 13 23
ATOM     23  C   TYR B   5      54.791  26.999  -7.791  1.00 54.78 LIG 0.24  C 
ATOM     24  N   ILE B   6      54.278  28.226  -7.815  1.00 56.06 LIG-0.35  N 
ATOM     25 H    ILE B   6      54.614  28.894  -7.391  1.00 56.06 LIG 0.16  HD
ATOM     26 O    TYR B   5      54.298  26.053  -8.404  1.00 54.12 LIG-0.27  OA
BRANCH 24 27
ATOM     27  CA  ILE B   6      53.076  28.541  -8.579  1.00 57.79 LIG 0.18  C 
BRANCH 27 28
ATOM     28  CB  ILE B   6      51.810  28.440  -7.693  1.00 57.25 LIG 0.01  C 
ATOM     29  CG2 ILE B   6      50.565  28.720  -8.514  1.00 56.12 LIG 0.01  C 
BRANCH 28 30
ATOM     30  CG1 ILE B   6      51.720  27.040  -7.084  1.00 57.80 LIG 0.00  C 
ATOM     31  CD1 ILE B   6      51.149  26.014  -8.035  1.00 58.80 LIG 0.01  C 
ENDBRANCH 28 30
ENDBRANCH 27 28
BRANCH 27 32
ATOM     32  C   ILE B   6      53.165  29.944  -9.176  1.00 59.33 LIG 0.24  C 
ATOM     33 O    ILE B   6      52.348  30.818  -8.869  1.00 59.66 LIG-0.27  OA
ATOM     34  N   PRO B   7      54.169  30.179 -10.036  1.00 60.44 LIG-0.34  N 
ATOM     35  CA  PRO B   7      54.381  31.474 -10.688  1.00 61.29 LIG 0.17  C 
ATOM     36  CD  PRO B   7      55.212  29.219 -10.439  1.00 60.37 LIG 0.13  C 
ATOM     37  CB  PRO B   7      55.461  31.160 -11.716  1.00 61.79 LIG 0.04  C 
ATOM     38  CG  PRO B   7      56.277  30.126 -11.015  1.00 60.72 LIG 0.02  C 
BRANCH 35 39
ATOM     39  C   PRO B   7      53.115  32.038 -11.332  1.00 62.02 LIG 0.22  C 
ATOM     40 O    PRO B   7      53.139  33.109 -11.933  1.00 61.64 LIG-0.29  OA
ENDBRANCH 35 39
ENDBRANCH 27 32
ENDBRANCH 24 27
ENDBRANCH 13 23
ENDBRANCH 11 13
ENDBRANCH 1 9
BRANCH 1 41
ATOM     41  N   PHE B   4      55.738  25.026  -3.149  1.00 40.22 LIG-0.35  N 
ATOM     42 H    PHE B   4      56.434  25.374  -3.516  1.00 40.22 LIG 0.16  HD
ATOM     43  C   ALA B   3      55.769  24.279  -2.053  1.00 36.80 LIG 0.24  C 
ATOM     44 O    ALA B   3      54.758  23.802  -1.543  1.00 35.05 LIG-0.27  OA
BRANCH 43 45
ATOM     45  CA  ALA B   3      57.140  24.044  -1.432  1.00 35.42 LIG 0.17  C 
ATOM     46  CB  ALA B   3      57.703  22.716  -1.904  1.00 34.55 LIG 0.04  C 
BRANCH 45 47
ATOM     47  N   ALA B   3      56.981  24.040   0.016  1.00 34.22 LIG-0.35  N 
ATOM     48  C   VAL B   2      57.033  25.169   0.711  1.00 33.55 LIG 0.24  C 
ATOM     49 O    VAL B   2      57.239  26.264   0.188  1.00 34.35 LIG-0.27  OA
ATOM     50 H    ALA B   3      56.855  23.263   0.362  1.00 34.22 LIG 0.16  HD
BRANCH 48 51
ATOM     51  CA  VAL B   2      56.827  25.047   2.219  1.00 33.22 LIG 0.18  C 
BRANCH 51 52
ATOM     52  CB  VAL B   2      55.372  24.589   2.482  1.00 32.52 LIG 0.01  C 
ATOM     53  CG1 VAL B   2      54.424  25.210   1.464  1.00 33.02 LIG 0.01  C 
ATOM     54  CG2 VAL B   2      55.290  23.070   2.421  1.00 33.85 LIG 0.01  C 
ENDBRANCH 51 52
BRANCH 51 55
ATOM     55  N   VAL B   2      57.105  26.302   2.908  1.00 33.13 LIG-0.35  N 
ATOM     56 H    VAL B   2      56.499  26.904   2.803  1.00 33.13 LIG 0.16  HD
ATOM     57  C   ALA B   1      58.205  26.479   3.629  1.00 33.26 LIG 0.25  C 
ATOM     58 O    ALA B   1      59.072  25.618   3.758  1.00 33.25 LIG-0.27  OA
BRANCH 57 59
ATOM     59  CA  ALA B   1      58.362  27.835   4.305  1.00 31.51 LIG 0.27  C 
ATOM     60  CB  ALA B   1      58.610  28.922   3.262  1.00 29.23 LIG 0.05  C 
BRANCH 59 61
ATOM     61  N   ALA B   1      59.489  27.752   5.221  1.00 32.32 LIG-0.07  N 
ATOM     62 H3   ALA B   1      60.232  28.001   4.801  1.00 32.32 LIG 0.28  HD
ATOM     63 H2   ALA B   1      59.578  26.915   5.508  1.00 32.32 LIG 0.28  HD
ATOM     64 H1   ALA B   1      59.347  28.290   5.916  1.00 32.32 LIG 0.28  HD
ENDBRANCH 59 61
ENDBRANCH 57 59
ENDBRANCH 51 55
ENDBRANCH 48 51
ENDBRANCH 45 47
ENDBRANCH 43 45
ENDBRANCH 1 41
TORSDOF 21
ENDMDL
MODEL 9
USER: ADFR SOLUTION from run 93
USER: SCORE 17.296207 LL:  -4.865 LR: -16.037 RR:   0.000 FEB:  -9.772
USER: RMSD 5.515640
USER: SEED 92
USER: STATUS no improvement in best in 5 clusters for 5 generations
USER: GENES 23
USER: genes 0 Translation |==|  0.53275 0.47359 0.49939
USER: genes 1 Rotation |==|  0.84370 0.46559 0.74828 0.76277
USER: genes 2 Torsion [C]-CA--CB-[CG] |==|  0.31801
USER: genes 3 Torsion [CA]-CB--CG-[CD1] |==|  0.37966
USER: genes 4 Torsion [N]-CA--C-[N] |==|  0.50151
USER: genes 5 Torsion [C]-N--CA-[CB] |==|  0.53760
USER: genes 6 Torsion [N]-CA--CB-[CG] |==|  0.69838
USER: genes 7 Torsion [CA]-CB--CG-[CD1] |==|  0.76901
USER: genes 8 Torsion [CE2]-CZ--OH-[HH] |==|  0.81823
USER: genes 9 Torsion [N]-CA--C-[N] |==|  0.74721
USER: genes 10 Torsion [C]-N--CA-[C] |==|  0.18125
USER: genes 11 Torsion [N]-CA--CB-[CG1] |==|  0.86858
USER: genes 12 Torsion [CA]-CB--CG1-[CD1] |==|  0.41417
USER: genes 13 Torsion [N]-CA--C-[N] |==|  0.11978
USER: genes 14 Torsion [N]-CA--C-[O] |==|  0.35929
USER: genes 15 Torsion [CB]-CA--N-[C] |==|  0.17516
USER: genes 16 Torsion [N]-C--CA-[N] |==|  0.60776
USER: genes 17 Torsion [C]-CA--N-[C] |==|  0.51687
USER: genes 18 Torsion [N]-C--CA-[N] |==|  0.35000
USER: genes 19 Torsion [C]-CA--CB-[CG1] |==|  0.20730
USER: genes 20 Torsion [C]-CA--N-[C] |==|  0.67578
USER: genes 21 Torsion [N]-C--CA-[N] |==|  0.23516
USER: genes 22 Torsion [C]-CA--N-[H3] |==|  0.49616
ROOT
ATOM      1  CA  PHE B   4      54.250  25.816  -3.953  1.00 44.68 LIG 0.18  C 
ENDROOT
BRANCH 1 2
ATOM      2  CB  PHE B   4      54.375  24.458  -4.651  1.00 43.52 LIG 0.07  C 
BRANCH 2 3
ATOM      3  CG  PHE B   4      55.603  24.339  -5.504  1.00 43.42 LIG-0.06  A 
ATOM      4  CD2 PHE B   4      56.022  25.405  -6.293  1.00 43.71 LIG 0.01  A 
ATOM      5  CE2 PHE B   4      57.195  25.320  -7.047  1.00 44.42 LIG 0.00  A 
ATOM      6  CZ  PHE B   4      57.956  24.151  -7.013  1.00 44.23 LIG 0.00  A 
ATOM      7  CE1 PHE B   4      57.542  23.080  -6.229  1.00 42.62 LIG 0.00  A 
ATOM      8  CD1 PHE B   4      56.371  23.179  -5.481  1.00 43.35 LIG 0.01  A 
ENDBRANCH 2 3
ENDBRANCH 1 2
BRANCH 1 9
ATOM      9  C   PHE B   4      53.043  26.588  -4.467  1.00 47.70 LIG 0.24  C 
ATOM     10 O    PHE B   4      52.159  26.960  -3.696  1.00 47.98 LIG-0.27  OA
ATOM     11  N   TYR B   5      53.012  26.810  -5.776  1.00 50.93 LIG-0.35  N 
ATOM     12 H    TYR B   5      53.634  26.559  -6.314  1.00 50.93 LIG 0.16  HD
BRANCH 11 13
ATOM     13  CA  TYR B   5      51.909  27.509  -6.431  1.00 53.91 LIG 0.18  C 
BRANCH 13 14
ATOM     14  CB  TYR B   5      51.969  27.332  -7.951  1.00 56.99 LIG 0.07  C 
BRANCH 14 15
ATOM     15  CG  TYR B   5      52.372  28.590  -8.701  1.00 60.80 LIG-0.06  A 
ATOM     16  CD2 TYR B   5      53.696  28.803  -9.084  1.00 62.97 LIG 0.01  A 
ATOM     17  CE2 TYR B   5      54.073  29.968  -9.756  1.00 63.70 LIG 0.04  A 
ATOM     18  CZ  TYR B   5      53.116  30.929 -10.050  1.00 64.21 LIG 0.07  A 
ATOM     19  CE1 TYR B   5      51.795  30.737  -9.684  1.00 63.24 LIG 0.04  A 
ATOM     20  CD1 TYR B   5      51.431  29.575  -9.017  1.00 61.93 LIG 0.01  A 
BRANCH 18 21
ATOM     21 OH   TYR B   5      53.481  32.088 -10.695  1.00 64.43 LIG-0.36  OA
ATOM     22 HH   TYR B   5      53.990  32.537 -10.200  1.00 64.43 LIG 0.22  HD
ENDBRANCH 18 21
ENDBRANCH 14 15
ENDBRANCH 13 14
BRANCH 13 23
ATOM     23  C   TYR B   5      50.597  26.939  -5.912  1.00 54.78 LIG 0.24  C 
ATOM     24  N   ILE B   6      50.085  25.922  -6.599  1.00 56.06 LIG-0.35  N 
ATOM     25 H    ILE B   6      50.449  25.586  -7.303  1.00 56.06 LIG 0.16  HD
ATOM     26 O    TYR B   5      50.065  27.407  -4.907  1.00 54.12 LIG-0.27  OA
BRANCH 24 27
ATOM     27  CA  ILE B   6      48.836  25.280  -6.204  1.00 57.79 LIG 0.18  C 
BRANCH 27 28
ATOM     28  CB  ILE B   6      48.913  24.760  -4.748  1.00 57.25 LIG 0.01  C 
ATOM     29  CG2 ILE B   6      47.737  23.851  -4.446  1.00 56.12 LIG 0.01  C 
BRANCH 28 30
ATOM     30  CG1 ILE B   6      50.221  23.993  -4.545  1.00 57.80 LIG 0.00  C 
ATOM     31  CD1 ILE B   6      50.753  24.088  -3.133  1.00 58.80 LIG 0.01  C 
ENDBRANCH 28 30
ENDBRANCH 27 28
BRANCH 27 32
ATOM     32  C   ILE B   6      47.663  26.248  -6.334  1.00 59.33 LIG 0.24  C 
ATOM     33 O    ILE B   6      46.799  26.322  -5.454  1.00 59.66 LIG-0.27  OA
ATOM     34  N   PRO B   7      47.622  27.011  -7.439  1.00 60.44 LIG-0.34  N 
ATOM     35  CA  PRO B   7      46.559  27.985  -7.702  1.00 61.29 LIG 0.17  C 
ATOM     36  CD  PRO B   7      48.617  27.025  -8.525  1.00 60.37 LIG 0.13  C 
ATOM     37  CB  PRO B   7      46.830  28.398  -9.144  1.00 61.79 LIG 0.04  C 
ATOM     38  CG  PRO B   7      48.319  28.336  -9.217  1.00 60.72 LIG 0.02  C 
BRANCH 35 39
ATOM     39  C   PRO B   7      45.156  27.408  -7.519  1.00 62.02 LIG 0.22  C 
ATOM     40 O    PRO B   7      44.324  27.986  -6.824  1.00 61.64 LIG-0.29  OA
ENDBRANCH 35 39
ENDBRANCH 27 32
ENDBRANCH 24 27
ENDBRANCH 13 23
ENDBRANCH 11 13
ENDBRANCH 1 9
BRANCH 1 41
ATOM     41  N   PHE B   4      54.162  25.627  -2.515  1.00 40.22 LIG-0.35  N 
ATOM     42 H    PHE B   4      53.424  25.892  -2.163  1.00 40.22 LIG 0.16  HD
ATOM     43  C   ALA B   3      55.161  25.085  -1.830  1.00 36.80 LIG 0.24  C 
ATOM     44 O    ALA B   3      56.202  24.704  -2.360  1.00 35.05 LIG-0.27  OA
BRANCH 43 45
ATOM     45  CA  ALA B   3      54.954  24.942  -0.328  1.00 35.42 LIG 0.17  C 
ATOM     46  CB  ALA B   3      53.872  25.897   0.141  1.00 34.55 LIG 0.04  C 
BRANCH 45 47
ATOM     47  N   ALA B   3      56.217  25.245   0.329  1.00 34.22 LIG-0.35  N 
ATOM     48  C   VAL B   2      56.362  25.083   1.639  1.00 33.55 LIG 0.24  C 
ATOM     49 O    VAL B   2      55.448  24.696   2.367  1.00 34.35 LIG-0.27  OA
ATOM     50 H    ALA B   3      56.836  25.529  -0.195  1.00 34.22 LIG 0.16  HD
BRANCH 48 51
ATOM     51  CA  VAL B   2      57.738  25.407   2.214  1.00 33.22 LIG 0.18  C 
BRANCH 51 52
ATOM     52  CB  VAL B   2      58.397  24.090   2.690  1.00 32.52 LIG 0.01  C 
ATOM     53  CG1 VAL B   2      58.879  23.273   1.499  1.00 33.02 LIG 0.01  C 
ATOM     54  CG2 VAL B   2      59.562  24.404   3.620  1.00 33.85 LIG 0.01  C 
ENDBRANCH 51 52
BRANCH 51 55
ATOM     55  N   VAL B   2      57.656  26.367   3.309  1.00 33.13 LIG-0.35  N 
ATOM     56 H    VAL B   2      57.218  26.085   3.994  1.00 33.13 LIG 0.16  HD
ATOM     57  C   ALA B   1      58.215  27.569   3.234  1.00 33.26 LIG 0.25  C 
ATOM     58 O    ALA B   1      58.823  27.968   2.244  1.00 33.25 LIG-0.27  OA
BRANCH 57 59
ATOM     59  CA  ALA B   1      58.062  28.465   4.455  1.00 31.51 LIG 0.27  C 
ATOM     60  CB  ALA B   1      58.169  29.934   4.052  1.00 29.23 LIG 0.05  C 
BRANCH 59 61
ATOM     61  N   ALA B   1      59.119  28.126   5.397  1.00 32.32 LIG-0.07  N 
ATOM     62 H3   ALA B   1      59.060  28.652   6.111  1.00 32.32 LIG 0.28  HD
ATOM     63 H2   ALA B   1      59.911  28.240   5.008  1.00 32.32 LIG 0.28  HD
ATOM     64 H1   ALA B   1      59.031  27.276   5.647  1.00 32.32 LIG 0.28  HD
ENDBRANCH 59 61
ENDBRANCH 57 59
ENDBRANCH 51 55
ENDBRANCH 48 51
ENDBRANCH 45 47
ENDBRANCH 43 45
ENDBRANCH 1 41
TORSDOF 21
ENDMDL
MODEL 10
USER: ADFR SOLUTION from run 124
USER: SCORE 18.101464 LL:  -5.921 LR: -15.876 RR:   0.000 FEB:  -9.612
USER: RMSD 5.039537
USER: SEED 123
USER: STATUS searching
USER: GENES 23
USER: genes 0 Translation |==|  0.62088 0.37329 0.48753
USER: genes 1 Rotation |==|  0.69526 0.50546 0.72659 0.90062
USER: genes 2 Torsion [C]-CA--CB-[CG] |==|  0.53694
USER: genes 3 Torsion [CA]-CB--CG-[CD1] |==|  0.81812
USER: genes 4 Torsion [N]-CA--C-[N] |==|  0.13471
USER: genes 5 Torsion [C]-N--CA-[CB] |==|  0.41938
USER: genes 6 Torsion [N]-CA--CB-[CG] |==|  0.59326
USER: genes 7 Torsion [CA]-CB--CG-[CD1] |==|  0.11134
USER: genes 8 Torsion [CE2]-CZ--OH-[HH] |==|  0.04190
USER: genes 9 Torsion [N]-CA--C-[N] |==|  0.70722
USER: genes 10 Torsion [C]-N--CA-[C] |==|  0.61944
USER: genes 11 Torsion [N]-CA--CB-[CG1] |==|  0.14940
USER: genes 12 Torsion [CA]-CB--CG1-[CD1] |==|  0.65959
USER: genes 13 Torsion [N]-CA--C-[N] |==|  0.18412
USER: genes 14 Torsion [N]-CA--C-[O] |==|  0.83647
USER: genes 15 Torsion [CB]-CA--N-[C] |==|  0.79994
USER: genes 16 Torsion [N]-C--CA-[N] |==|  0.89140
USER: genes 17 Torsion [C]-CA--N-[C] |==|  0.59921
USER: genes 18 Torsion [N]-C--CA-[N] |==|  0.42044
USER: genes 19 Torsion [C]-CA--CB-[CG1] |==|  0.49589
USER: genes 20 Torsion [C]-CA--N-[C] |==|  0.68308
USER: genes 21 Torsion [N]-C--CA-[N] |==|  0.32365
USER: genes 22 Torsion [C]-CA--N-[H3] |==|  0.37288
ROOT
ATOM      1  CA  PHE B   4      56.299  24.161  -4.247  1.00 44.68 LIG 0.18  C 
ENDROOT
BRANCH 1 2
ATOM      2  CB  PHE B   4      56.055  22.723  -3.782  1.00 43.52 LIG 0.07  C 
BRANCH 2 3
ATOM      3  CG  PHE B   4      56.726  22.396  -2.481  1.00 43.42 LIG-0.06  A 
ATOM      4  CD2 PHE B   4      55.972  22.056  -1.362  1.00 43.71 LIG 0.01  A 
ATOM      5  CE2 PHE B   4      56.592  21.698  -0.163  1.00 44.42 LIG 0.00  A 
ATOM      6  CZ  PHE B   4      57.985  21.683  -0.082  1.00 44.23 LIG 0.00  A 
ATOM      7  CE1 PHE B   4      58.745  22.024  -1.194  1.00 42.62 LIG 0.00  A 
ATOM      8  CD1 PHE B   4      58.114  22.379  -2.385  1.00 43.35 LIG 0.01  A 
ENDBRANCH 2 3
ENDBRANCH 1 2
BRANCH 1 9
ATOM      9  C   PHE B   4      55.352  24.541  -5.376  1.00 47.70 LIG 0.24  C 
ATOM     10 O    PHE B   4      54.652  23.690  -5.923  1.00 47.98 LIG-0.27  OA
ATOM     11  N   TYR B   5      55.350  25.823  -5.724  1.00 50.93 LIG-0.35  N 
ATOM     12 H    TYR B   5      55.832  26.420  -5.336  1.00 50.93 LIG 0.16  HD
BRANCH 11 13
ATOM     13  CA  TYR B   5      54.521  26.344  -6.808  1.00 53.91 LIG 0.18  C 
BRANCH 13 14
ATOM     14  CB  TYR B   5      54.148  27.809  -6.561  1.00 56.99 LIG 0.07  C 
BRANCH 14 15
ATOM     15  CG  TYR B   5      52.771  28.188  -7.079  1.00 60.80 LIG-0.06  A 
ATOM     16  CD2 TYR B   5      52.550  29.423  -7.688  1.00 62.97 LIG 0.01  A 
ATOM     17  CE2 TYR B   5      51.280  29.783  -8.147  1.00 63.70 LIG 0.04  A 
ATOM     18  CZ  TYR B   5      50.221  28.899  -7.995  1.00 64.21 LIG 0.07  A 
ATOM     19  CE1 TYR B   5      50.418  27.667  -7.397  1.00 63.24 LIG 0.04  A 
ATOM     20  CD1 TYR B   5      51.684  27.319  -6.945  1.00 61.93 LIG 0.01  A 
BRANCH 18 21
ATOM     21 OH   TYR B   5      48.963  29.252  -8.426  1.00 64.43 LIG-0.36  OA
ATOM     22 HH   TYR B   5      49.018  29.919  -8.935  1.00 64.43 LIG 0.22  HD
ENDBRANCH 18 21
ENDBRANCH 14 15
ENDBRANCH 13 14
BRANCH 13 23
ATOM     23  C   TYR B   5      55.303  26.241  -8.109  1.00 54.78 LIG 0.24  C 
ATOM     24  N   ILE B   6      55.792  27.378  -8.594  1.00 56.06 LIG-0.35  N 
ATOM     25 H    ILE B   6      55.686  28.144  -8.219  1.00 56.06 LIG 0.16  HD
ATOM     26 O    TYR B   5      55.463  25.151  -8.658  1.00 54.12 LIG-0.27  OA
BRANCH 24 27
ATOM     27  CA  ILE B   6      56.565  27.416  -9.831  1.00 57.79 LIG 0.18  C 
BRANCH 27 28
ATOM     28  CB  ILE B   6      55.697  27.907 -11.015  1.00 57.25 LIG 0.01  C 
ATOM     29  CG2 ILE B   6      54.617  26.891 -11.338  1.00 56.12 LIG 0.01  C 
BRANCH 28 30
ATOM     30  CG1 ILE B   6      55.052  29.247 -10.658  1.00 57.80 LIG 0.00  C 
ATOM     31  CD1 ILE B   6      53.544  29.223 -10.744  1.00 58.80 LIG 0.01  C 
ENDBRANCH 28 30
ENDBRANCH 27 28
BRANCH 27 32
ATOM     32  C   ILE B   6      57.781  28.327  -9.683  1.00 59.33 LIG 0.24  C 
ATOM     33 O    ILE B   6      57.870  29.378 -10.326  1.00 59.66 LIG-0.27  OA
ATOM     34  N   PRO B   7      58.736  27.936  -8.823  1.00 60.44 LIG-0.34  N 
ATOM     35  CA  PRO B   7      59.958  28.705  -8.576  1.00 61.29 LIG 0.17  C 
ATOM     36  CD  PRO B   7      58.709  26.724  -7.985  1.00 60.37 LIG 0.13  C 
ATOM     37  CB  PRO B   7      60.794  27.748  -7.736  1.00 61.79 LIG 0.04  C 
ATOM     38  CG  PRO B   7      59.755  27.035  -6.938  1.00 60.72 LIG 0.02  C 
BRANCH 35 39
ATOM     39  C   PRO B   7      60.674  29.126  -9.860  1.00 62.02 LIG 0.22  C 
ATOM     40 O    PRO B   7      61.061  28.285 -10.668  1.00 61.64 LIG-0.29  OA
ENDBRANCH 35 39
ENDBRANCH 27 32
ENDBRANCH 24 27
ENDBRANCH 13 23
ENDBRANCH 11 13
ENDBRANCH 1 9
BRANCH 1 41
ATOM     41  N   PHE B   4      56.152  25.075  -3.126  1.00 40.22 LIG-0.35  N 
ATOM     42 H    PHE B   4      56.888  25.413  -2.840  1.00 40.22 LIG 0.16  HD
ATOM     43  C   ALA B   3      54.959  25.342  -2.610  1.00 36.80 LIG 0.24  C 
ATOM     44 O    ALA B   3      53.919  24.854  -3.047  1.00 35.05 LIG-0.27  OA
BRANCH 43 45
ATOM     45  CA  ALA B   3      54.930  26.312  -1.436  1.00 35.42 LIG 0.17  C 
ATOM     46  CB  ALA B   3      54.989  27.742  -1.941  1.00 34.55 LIG 0.04  C 
BRANCH 45 47
ATOM     47  N   ALA B   3      56.080  26.026  -0.591  1.00 34.22 LIG-0.35  N 
ATOM     48  C   VAL B   2      56.001  26.136   0.730  1.00 33.55 LIG 0.24  C 
ATOM     49 O    VAL B   2      54.978  26.502   1.307  1.00 34.35 LIG-0.27  OA
ATOM     50 H    ALA B   3      56.789  25.788  -1.016  1.00 34.22 LIG 0.16  HD
BRANCH 48 51
ATOM     51  CA  VAL B   2      57.262  25.784   1.516  1.00 33.22 LIG 0.18  C 
BRANCH 51 52
ATOM     52  CB  VAL B   2      57.273  24.259   1.776  1.00 32.52 LIG 0.01  C 
ATOM     53  CG1 VAL B   2      58.534  23.854   2.528  1.00 33.02 LIG 0.01  C 
ATOM     54  CG2 VAL B   2      56.036  23.863   2.571  1.00 33.85 LIG 0.01  C 
ENDBRANCH 51 52
BRANCH 51 55
ATOM     55  N   VAL B   2      57.342  26.522   2.771  1.00 33.13 LIG-0.35  N 
ATOM     56 H    VAL B   2      56.729  26.318   3.340  1.00 33.13 LIG 0.16  HD
ATOM     57  C   ALA B   1      58.287  27.427   2.997  1.00 33.26 LIG 0.25  C 
ATOM     58 O    ALA B   1      59.146  27.722   2.171  1.00 33.25 LIG-0.27  OA
BRANCH 57 59
ATOM     59  CA  ALA B   1      58.258  28.112   4.356  1.00 31.51 LIG 0.27  C 
ATOM     60  CB  ALA B   1      58.164  29.627   4.185  1.00 29.23 LIG 0.05  C 
BRANCH 59 61
ATOM     61  N   ALA B   1      59.482  27.763   5.061  1.00 32.32 LIG-0.07  N 
ATOM     62 H3   ALA B   1      59.834  28.494   5.425  1.00 32.32 LIG 0.28  HD
ATOM     63 H2   ALA B   1      60.064  27.409   4.488  1.00 32.32 LIG 0.28  HD
ATOM     64 H1   ALA B   1      59.299  27.173   5.700  1.00 32.32 LIG 0.28  HD
ENDBRANCH 59 61
ENDBRANCH 57 59
ENDBRANCH 51 55
ENDBRANCH 48 51
ENDBRANCH 45 47
ENDBRANCH 43 45
ENDBRANCH 1 41
TORSDOF 21
ENDMDL
MODEL 11
USER: ADFR SOLUTION from run 173
USER: SCORE 18.196437 LL:  -4.858 LR: -15.871 RR:   0.000 FEB:  -9.607
USER: RMSD 4.641081
USER: SEED 172
USER: STATUS no improvement in best in 18 clusters for 5 generations
USER: GENES 23
USER: genes 0 Translation |==|  0.47102 0.40061 0.50990
USER: genes 1 Rotation |==|  0.53307 0.28240 0.48630 0.94874
USER: genes 2 Torsion [C]-CA--CB-[CG] |==|  0.48655
USER: genes 3 Torsion [CA]-CB--CG-[CD1] |==|  0.09356
USER: genes 4 Torsion [N]-CA--C-[N] |==|  0.87389
USER: genes 5 Torsion [C]-N--CA-[CB] |==|  0.47786
USER: genes 6 Torsion [N]-CA--CB-[CG] |==|  0.79558
USER: genes 7 Torsion [CA]-CB--CG-[CD1] |==|  0.10249
USER: genes 8 Torsion [CE2]-CZ--OH-[HH] |==|  0.83699
USER: genes 9 Torsion [N]-CA--C-[N] |==|  0.41888
USER: genes 10 Torsion [C]-N--CA-[C] |==|  0.69456
USER: genes 11 Torsion [N]-CA--CB-[CG1] |==|  0.91393
USER: genes 12 Torsion [CA]-CB--CG1-[CD1] |==|  0.38265
USER: genes 13 Torsion [N]-CA--C-[N] |==|  0.40624
USER: genes 14 Torsion [N]-CA--C-[O] |==|  0.36719
USER: genes 15 Torsion [CB]-CA--N-[C] |==|  0.44314
USER: genes 16 Torsion [N]-C--CA-[N] |==|  0.44811
USER: genes 17 Torsion [C]-CA--N-[C] |==|  0.62248
USER: genes 18 Torsion [N]-C--CA-[N] |==|  0.38520
USER: genes 19 Torsion [C]-CA--CB-[CG1] |==|  0.85172
USER: genes 20 Torsion [C]-CA--N-[C] |==|  0.77093
USER: genes 21 Torsion [N]-C--CA-[N] |==|  0.43036
USER: genes 22 Torsion [C]-CA--N-[H3] |==|  0.66057
ROOT
ATOM      1  CA  PHE B   4      52.815  24.612  -3.693  1.00 44.68 LIG 0.18  C 
ENDROOT
BRANCH 1 2
ATOM      2  CB  PHE B   4      51.290  24.679  -3.812  1.00 43.52 LIG 0.07  C 
BRANCH 2 3
ATOM      3  CG  PHE B   4      50.578  24.307  -2.544  1.00 43.42 LIG-0.06  A 
ATOM      4  CD2 PHE B   4      49.378  23.606  -2.587  1.00 43.71 LIG 0.01  A 
ATOM      5  CE2 PHE B   4      48.739  23.209  -1.410  1.00 44.42 LIG 0.00  A 
ATOM      6  CZ  PHE B   4      49.307  23.522  -0.175  1.00 44.23 LIG 0.00  A 
ATOM      7  CE1 PHE B   4      50.504  24.225  -0.124  1.00 42.62 LIG 0.00  A 
ATOM      8  CD1 PHE B   4      51.132  24.614  -1.306  1.00 43.35 LIG 0.01  A 
ENDBRANCH 2 3
ENDBRANCH 1 2
BRANCH 1 9
ATOM      9  C   PHE B   4      53.482  24.882  -5.035  1.00 47.70 LIG 0.24  C 
ATOM     10 O    PHE B   4      53.956  23.960  -5.699  1.00 47.98 LIG-0.27  OA
ATOM     11  N   TYR B   5      53.524  26.153  -5.416  1.00 50.93 LIG-0.35  N 
ATOM     12 H    TYR B   5      53.185  26.797  -4.957  1.00 50.93 LIG 0.16  HD
BRANCH 11 13
ATOM     13  CA  TYR B   5      54.155  26.582  -6.662  1.00 53.91 LIG 0.18  C 
BRANCH 13 14
ATOM     14  CB  TYR B   5      53.881  28.064  -6.935  1.00 56.99 LIG 0.07  C 
BRANCH 14 15
ATOM     15  CG  TYR B   5      52.460  28.354  -7.385  1.00 60.80 LIG-0.06  A 
ATOM     16  CD2 TYR B   5      52.195  29.343  -8.332  1.00 62.97 LIG 0.01  A 
ATOM     17  CE2 TYR B   5      50.888  29.627  -8.733  1.00 63.70 LIG 0.04  A 
ATOM     18  CZ  TYR B   5      49.833  28.913  -8.181  1.00 64.21 LIG 0.07  A 
ATOM     19  CE1 TYR B   5      50.071  27.924  -7.242  1.00 63.24 LIG 0.04  A 
ATOM     20  CD1 TYR B   5      51.376  27.650  -6.852  1.00 61.93 LIG 0.01  A 
BRANCH 18 21
ATOM     21 OH   TYR B   5      48.539  29.197  -8.555  1.00 64.43 LIG-0.36  OA
ATOM     22 HH   TYR B   5      48.368  30.002  -8.384  1.00 64.43 LIG 0.22  HD
ENDBRANCH 18 21
ENDBRANCH 14 15
ENDBRANCH 13 14
BRANCH 13 23
ATOM     23  C   TYR B   5      55.656  26.364  -6.545  1.00 54.78 LIG 0.24  C 
ATOM     24  N   ILE B   6      56.305  26.116  -7.679  1.00 56.06 LIG-0.35  N 
ATOM     25 H    ILE B   6      55.924  26.071  -8.449  1.00 56.06 LIG 0.16  HD
ATOM     26 O    TYR B   5      56.214  26.426  -5.450  1.00 54.12 LIG-0.27  OA
BRANCH 24 27
ATOM     27  CA  ILE B   6      57.746  25.895  -7.706  1.00 57.79 LIG 0.18  C 
BRANCH 27 28
ATOM     28  CB  ILE B   6      58.094  24.586  -8.457  1.00 57.25 LIG 0.01  C 
ATOM     29  CG2 ILE B   6      59.392  24.002  -7.929  1.00 56.12 LIG 0.01  C 
BRANCH 28 30
ATOM     30  CG1 ILE B   6      56.963  23.573  -8.274  1.00 57.80 LIG 0.00  C 
ATOM     31  CD1 ILE B   6      56.621  22.828  -9.543  1.00 58.80 LIG 0.01  C 
ENDBRANCH 28 30
ENDBRANCH 27 28
BRANCH 27 32
ATOM     32  C   ILE B   6      58.463  27.067  -8.374  1.00 59.33 LIG 0.24  C 
ATOM     33 O    ILE B   6      57.934  27.691  -9.299  1.00 59.66 LIG-0.27  OA
ATOM     34  N   PRO B   7      59.681  27.384  -7.905  1.00 60.44 LIG-0.34  N 
ATOM     35  CA  PRO B   7      60.487  28.481  -8.445  1.00 61.29 LIG 0.17  C 
ATOM     36  CD  PRO B   7      60.382  26.727  -6.787  1.00 60.37 LIG 0.13  C 
ATOM     37  CB  PRO B   7      61.834  28.277  -7.762  1.00 61.79 LIG 0.04  C 
ATOM     38  CG  PRO B   7      61.434  27.751  -6.424  1.00 60.72 LIG 0.02  C 
BRANCH 35 39
ATOM     39  C   PRO B   7      60.601  28.450  -9.969  1.00 62.02 LIG 0.22  C 
ATOM     40 O    PRO B   7      60.409  29.465 -10.635  1.00 61.64 LIG-0.29  OA
ENDBRANCH 35 39
ENDBRANCH 27 32
ENDBRANCH 24 27
ENDBRANCH 13 23
ENDBRANCH 11 13
ENDBRANCH 1 9
BRANCH 1 41
ATOM     41  N   PHE B   4      53.275  25.561  -2.694  1.00 40.22 LIG-0.35  N 
ATOM     42 H    PHE B   4      52.721  26.194  -2.518  1.00 40.22 LIG 0.16  HD
ATOM     43  C   ALA B   3      54.463  25.431  -2.117  1.00 36.80 LIG 0.24  C 
ATOM     44 O    ALA B   3      55.232  24.508  -2.378  1.00 35.05 LIG-0.27  OA
BRANCH 43 45
ATOM     45  CA  ALA B   3      54.837  26.489  -1.087  1.00 35.42 LIG 0.17  C 
ATOM     46  CB  ALA B   3      55.284  27.760  -1.786  1.00 34.55 LIG 0.04  C 
BRANCH 45 47
ATOM     47  N   ALA B   3      55.917  25.955  -0.269  1.00 34.22 LIG-0.35  N 
ATOM     48  C   VAL B   2      55.906  26.097   1.052  1.00 33.55 LIG 0.24  C 
ATOM     49 O    VAL B   2      55.014  26.696   1.650  1.00 34.35 LIG-0.27  OA
ATOM     50 H    ALA B   3      56.538  25.555  -0.708  1.00 34.22 LIG 0.16  HD
BRANCH 48 51
ATOM     51  CA  VAL B   2      57.076  25.474   1.809  1.00 33.22 LIG 0.18  C 
BRANCH 51 52
ATOM     52  CB  VAL B   2      56.625  24.106   2.377  1.00 32.52 LIG 0.01  C 
ATOM     53  CG1 VAL B   2      55.349  24.262   3.194  1.00 33.02 LIG 0.01  C 
ATOM     54  CG2 VAL B   2      56.403  23.122   1.236  1.00 33.85 LIG 0.01  C 
ENDBRANCH 51 52
BRANCH 51 55
ATOM     55  N   VAL B   2      57.555  26.343   2.877  1.00 33.13 LIG-0.35  N 
ATOM     56 H    VAL B   2      57.244  26.149   3.656  1.00 33.13 LIG 0.16  HD
ATOM     57  C   ALA B   1      58.398  27.342   2.647  1.00 33.26 LIG 0.25  C 
ATOM     58 O    ALA B   1      58.823  27.620   1.529  1.00 33.25 LIG-0.27  OA
BRANCH 57 59
ATOM     59  CA  ALA B   1      58.825  28.161   3.858  1.00 31.51 LIG 0.27  C 
ATOM     60  CB  ALA B   1      57.797  29.252   4.150  1.00 29.23 LIG 0.05  C 
BRANCH 59 61
ATOM     61  N   ALA B   1      60.119  28.758   3.562  1.00 32.32 LIG-0.07  N 
ATOM     62 H3   ALA B   1      60.711  28.504   4.175  1.00 32.32 LIG 0.28  HD
ATOM     63 H2   ALA B   1      60.046  29.645   3.571  1.00 32.32 LIG 0.28  HD
ATOM     64 H1   ALA B   1      60.392  28.491   2.758  1.00 32.32 LIG 0.28  HD
ENDBRANCH 59 61
ENDBRANCH 57 59
ENDBRANCH 51 55
ENDBRANCH 48 51
ENDBRANCH 45 47
ENDBRANCH 43 45
ENDBRANCH 1 41
TORSDOF 21
ENDMDL
MODEL 12
USER: ADFR SOLUTION from run 189
USER: SCORE 19.554192 LL:  -6.584 LR: -15.856 RR:   0.000 FEB:  -9.592
USER: RMSD 1.891922
USER: SEED 188
USER: STATUS no improvement in best in 2 clusters for 5 generations
USER: GENES 23
USER: genes 0 Translation |==|  0.44109 0.36301 0.63318
USER: genes 1 Rotation |==|  0.48145 0.50988 0.51397 0.99936
USER: genes 2 Torsion [C]-CA--CB-[CG] |==|  0.48465
USER: genes 3 Torsion [CA]-CB--CG-[CD1] |==|  0.42878
USER: genes 4 Torsion [N]-CA--C-[N] |==|  0.94832
USER: genes 5 Torsion [C]-N--CA-[CB] |==|  0.23271
USER: genes 6 Torsion [N]-CA--CB-[CG] |==|  0.49574
USER: genes 7 Torsion [CA]-CB--CG-[CD1] |==|  0.65730
USER: genes 8 Torsion [CE2]-CZ--OH-[HH] |==|  0.89487
USER: genes 9 Torsion [N]-CA--C-[N] |==|  0.22566
USER: genes 10 Torsion [C]-N--CA-[C] |==|  0.85556
USER: genes 11 Torsion [N]-CA--CB-[CG1] |==|  0.76926
USER: genes 12 Torsion [CA]-CB--CG1-[CD1] |==|  0.32876
USER: genes 13 Torsion [N]-CA--C-[N] |==|  0.85584
USER: genes 14 Torsion [N]-CA--C-[O] |==|  0.25593
USER: genes 15 Torsion [CB]-CA--N-[C] |==|  0.40892
USER: genes 16 Torsion [N]-C--CA-[N] |==|  0.33480
USER: genes 17 Torsion [C]-CA--N-[C] |==|  0.80392
USER: genes 18 Torsion [N]-C--CA-[N] |==|  0.35311
USER: genes 19 Torsion [C]-CA--CB-[CG1] |==|  0.18145
USER: genes 20 Torsion [C]-CA--N-[C] |==|  0.77864
USER: genes 21 Torsion [N]-C--CA-[N] |==|  0.20669
USER: genes 22 Torsion [C]-CA--N-[H3] |==|  0.84047
ROOT
ATOM      1  CA  PHE B   4      52.119  23.992  -0.642  1.00 44.68 LIG 0.18  C 
ENDROOT
BRANCH 1 2
ATOM      2  CB  PHE B   4      51.115  24.081   0.511  1.00 43.52 LIG 0.07  C 
BRANCH 2 3
ATOM      3  CG  PHE B   4      51.758  24.019   1.865  1.00 43.42 LIG-0.06  A 
ATOM      4  CD2 PHE B   4      53.008  23.431   2.029  1.00 43.71 LIG 0.01  A 
ATOM      5  CE2 PHE B   4      53.636  23.419   3.276  1.00 44.42 LIG 0.00  A 
ATOM      6  CZ  PHE B   4      53.003  24.000   4.375  1.00 44.23 LIG 0.00  A 
ATOM      7  CE1 PHE B   4      51.753  24.587   4.221  1.00 42.62 LIG 0.00  A 
ATOM      8  CD1 PHE B   4      51.138  24.593   2.970  1.00 43.35 LIG 0.01  A 
ENDBRANCH 2 3
ENDBRANCH 1 2
BRANCH 1 9
ATOM      9  C   PHE B   4      51.407  23.922  -1.986  1.00 47.70 LIG 0.24  C 
ATOM     10 O    PHE B   4      50.882  22.876  -2.366  1.00 47.98 LIG-0.27  OA
ATOM     11  N   TYR B   5      51.407  25.042  -2.700  1.00 50.93 LIG-0.35  N 
ATOM     12 H    TYR B   5      51.766  25.776  -2.430  1.00 50.93 LIG 0.16  HD
BRANCH 11 13
ATOM     13  CA  TYR B   5      50.793  25.133  -4.022  1.00 53.91 LIG 0.18  C 
BRANCH 13 14
ATOM     14  CB  TYR B   5      49.289  25.401  -3.913  1.00 56.99 LIG 0.07  C 
BRANCH 14 15
ATOM     15  CG  TYR B   5      48.592  25.545  -5.255  1.00 60.80 LIG-0.06  A 
ATOM     16  CD2 TYR B   5      48.672  24.538  -6.216  1.00 62.97 LIG 0.01  A 
ATOM     17  CE2 TYR B   5      48.049  24.675  -7.459  1.00 63.70 LIG 0.04  A 
ATOM     18  CZ  TYR B   5      47.337  25.833  -7.743  1.00 64.21 LIG 0.07  A 
ATOM     19  CE1 TYR B   5      47.240  26.844  -6.804  1.00 63.24 LIG 0.04  A 
ATOM     20  CD1 TYR B   5      47.863  26.695  -5.571  1.00 61.93 LIG 0.01  A 
BRANCH 18 21
ATOM     21 OH   TYR B   5      46.735  25.986  -8.971  1.00 64.43 LIG-0.36  OA
ATOM     22 HH   TYR B   5      47.230  25.662  -9.568  1.00 64.43 LIG 0.22  HD
ENDBRANCH 18 21
ENDBRANCH 14 15
ENDBRANCH 13 14
BRANCH 13 23
ATOM     23  C   TYR B   5      51.450  26.275  -4.784  1.00 54.78 LIG 0.24  C 
ATOM     24  N   ILE B   6      52.616  26.003  -5.361  1.00 56.06 LIG-0.35  N 
ATOM     25 H    ILE B   6      53.005  25.237  -5.321  1.00 56.06 LIG 0.16  HD
ATOM     26 O    TYR B   5      50.907  27.377  -4.851  1.00 54.12 LIG-0.27  OA
BRANCH 24 27
ATOM     27  CA  ILE B   6      53.347  27.007  -6.127  1.00 57.79 LIG 0.18  C 
BRANCH 27 28
ATOM     28  CB  ILE B   6      54.587  26.387  -6.817  1.00 57.25 LIG 0.01  C 
ATOM     29  CG2 ILE B   6      54.989  27.212  -8.026  1.00 56.12 LIG 0.01  C 
BRANCH 28 30
ATOM     30  CG1 ILE B   6      55.751  26.329  -5.825  1.00 57.80 LIG 0.00  C 
ATOM     31  CD1 ILE B   6      56.226  24.921  -5.549  1.00 58.80 LIG 0.01  C 
ENDBRANCH 28 30
ENDBRANCH 27 28
BRANCH 27 32
ATOM     32  C   ILE B   6      52.448  27.646  -7.183  1.00 59.33 LIG 0.24  C 
ATOM     33 O    ILE B   6      52.346  28.874  -7.273  1.00 59.66 LIG-0.27  OA
ATOM     34  N   PRO B   7      51.786  26.814  -8.004  1.00 60.44 LIG-0.34  N 
ATOM     35  CA  PRO B   7      50.887  27.280  -9.063  1.00 61.29 LIG 0.17  C 
ATOM     36  CD  PRO B   7      51.866  25.343  -8.002  1.00 60.37 LIG 0.13  C 
ATOM     37  CB  PRO B   7      50.221  25.991  -9.530  1.00 61.79 LIG 0.04  C 
ATOM     38  CG  PRO B   7      51.315  24.990  -9.366  1.00 60.72 LIG 0.02  C 
BRANCH 35 39
ATOM     39  C   PRO B   7      49.872  28.315  -8.580  1.00 62.02 LIG 0.22  C 
ATOM     40 O    PRO B   7      50.116  29.516  -8.651  1.00 61.64 LIG-0.29  OA
ENDBRANCH 35 39
ENDBRANCH 27 32
ENDBRANCH 24 27
ENDBRANCH 13 23
ENDBRANCH 11 13
ENDBRANCH 1 9
BRANCH 1 41
ATOM     41  N   PHE B   4      53.022  25.129  -0.600  1.00 40.22 LIG-0.35  N 
ATOM     42 H    PHE B   4      52.670  25.856  -0.304  1.00 40.22 LIG 0.16  HD
ATOM     43  C   ALA B   3      54.284  25.020  -0.995  1.00 36.80 LIG 0.24  C 
ATOM     44 O    ALA B   3      54.766  23.966  -1.402  1.00 35.05 LIG-0.27  OA
BRANCH 43 45
ATOM     45  CA  ALA B   3      55.133  26.282  -0.908  1.00 35.42 LIG 0.17  C 
ATOM     46  CB  ALA B   3      55.630  26.670  -2.289  1.00 34.55 LIG 0.04  C 
BRANCH 45 47
ATOM     47  N   ALA B   3      56.258  26.005  -0.025  1.00 34.22 LIG-0.35  N 
ATOM     48  C   VAL B   2      56.079  25.855   1.282  1.00 33.55 LIG 0.24  C 
ATOM     49 O    VAL B   2      54.977  25.962   1.819  1.00 34.35 LIG-0.27  OA
ATOM     50 H    ALA B   3      57.020  25.951  -0.420  1.00 34.22 LIG 0.16  HD
BRANCH 48 51
ATOM     51  CA  VAL B   2      57.326  25.541   2.104  1.00 33.22 LIG 0.18  C 
BRANCH 51 52
ATOM     52  CB  VAL B   2      57.228  24.082   2.613  1.00 32.52 LIG 0.01  C 
ATOM     53  CG1 VAL B   2      57.271  23.106   1.444  1.00 33.02 LIG 0.01  C 
ATOM     54  CG2 VAL B   2      58.369  23.797   3.580  1.00 33.85 LIG 0.01  C 
ENDBRANCH 51 52
BRANCH 51 55
ATOM     55  N   VAL B   2      57.485  26.466   3.221  1.00 33.13 LIG-0.35  N 
ATOM     56 H    VAL B   2      57.226  26.152   3.979  1.00 33.13 LIG 0.16  HD
ATOM     57  C   ALA B   1      57.990  27.683   3.059  1.00 33.26 LIG 0.25  C 
ATOM     58 O    ALA B   1      58.341  28.127   1.969  1.00 33.25 LIG-0.27  OA
BRANCH 57 59
ATOM     59  CA  ALA B   1      58.111  28.539   4.313  1.00 31.51 LIG 0.27  C 
ATOM     60  CB  ALA B   1      58.349  30.000   3.937  1.00 29.23 LIG 0.05  C 
BRANCH 59 61
ATOM     61  N   ALA B   1      59.230  28.034   5.093  1.00 32.32 LIG-0.07  N 
ATOM     62 H3   ALA B   1      59.097  27.175   5.282  1.00 32.32 LIG 0.28  HD
ATOM     63 H2   ALA B   1      59.297  28.496   5.851  1.00 32.32 LIG 0.28  HD
ATOM     64 H1   ALA B   1      59.982  28.121   4.625  1.00 32.32 LIG 0.28  HD
ENDBRANCH 59 61
ENDBRANCH 57 59
ENDBRANCH 51 55
ENDBRANCH 48 51
ENDBRANCH 45 47
ENDBRANCH 43 45
ENDBRANCH 1 41
TORSDOF 21
ENDMDL
MODEL 13
USER: ADFR SOLUTION from run 181
USER: SCORE 17.879806 LL:  -5.068 LR: -15.676 RR:   0.000 FEB:  -9.412
USER: RMSD 11.268186
USER: SEED 180
USER: STATUS searching
USER: GENES 23
USER: genes 0 Translation |==|  0.53271 0.48525 0.51767
USER: genes 1 Rotation |==|  0.08608 0.36078 0.74151 0.53089
USER: genes 2 Torsion [C]-CA--CB-[CG] |==|  0.43073
USER: genes 3 Torsion [CA]-CB--CG-[CD1] |==|  0.05227
USER: genes 4 Torsion [N]-CA--C-[N] |==|  0.53649
USER: genes 5 Torsion [C]-N--CA-[CB] |==|  0.21098
USER: genes 6 Torsion [N]-CA--CB-[CG] |==|  0.52388
USER: genes 7 Torsion [CA]-CB--CG-[CD1] |==|  0.56437
USER: genes 8 Torsion [CE2]-CZ--OH-[HH] |==|  0.69243
USER: genes 9 Torsion [N]-CA--C-[N] |==|  0.01956
USER: genes 10 Torsion [C]-N--CA-[C] |==|  0.84408
USER: genes 11 Torsion [N]-CA--CB-[CG1] |==|  0.04454
USER: genes 12 Torsion [CA]-CB--CG1-[CD1] |==|  0.35132
USER: genes 13 Torsion [N]-CA--C-[N] |==|  0.40556
USER: genes 14 Torsion [N]-CA--C-[O] |==|  0.75637
USER: genes 15 Torsion [CB]-CA--N-[C] |==|  0.35592
USER: genes 16 Torsion [N]-C--CA-[N] |==|  0.51554
USER: genes 17 Torsion [C]-CA--N-[C] |==|  0.52231
USER: genes 18 Torsion [N]-C--CA-[N] |==|  0.30726
USER: genes 19 Torsion [C]-CA--CB-[CG1] |==|  0.14001
USER: genes 20 Torsion [C]-CA--N-[C] |==|  0.80758
USER: genes 21 Torsion [N]-C--CA-[N] |==|  0.42687
USER: genes 22 Torsion [C]-CA--N-[H3] |==|  0.49965
ROOT
ATOM      1  CA  PHE B   4      54.250  26.009  -3.501  1.00 44.68 LIG 0.18  C 
ENDROOT
BRANCH 1 2
ATOM      2  CB  PHE B   4      52.947  25.226  -3.312  1.00 43.52 LIG 0.07  C 
BRANCH 2 3
ATOM      3  CG  PHE B   4      51.798  25.785  -4.100  1.00 43.42 LIG-0.06  A 
ATOM      4  CD2 PHE B   4      50.486  25.504  -3.733  1.00 43.71 LIG 0.01  A 
ATOM      5  CE2 PHE B   4      49.413  26.066  -4.429  1.00 44.42 LIG 0.00  A 
ATOM      6  CZ  PHE B   4      49.657  26.916  -5.507  1.00 44.23 LIG 0.00  A 
ATOM      7  CE1 PHE B   4      50.965  27.199  -5.881  1.00 42.62 LIG 0.00  A 
ATOM      8  CD1 PHE B   4      52.027  26.634  -5.178  1.00 43.35 LIG 0.01  A 
ENDBRANCH 2 3
ENDBRANCH 1 2
BRANCH 1 9
ATOM      9  C   PHE B   4      55.172  25.835  -2.302  1.00 47.70 LIG 0.24  C 
ATOM     10 O    PHE B   4      56.371  25.606  -2.458  1.00 47.98 LIG-0.27  OA
ATOM     11  N   TYR B   5      54.596  25.935  -1.109  1.00 50.93 LIG-0.35  N 
ATOM     12 H    TYR B   5      53.760  26.104  -0.999  1.00 50.93 LIG 0.16  HD
BRANCH 11 13
ATOM     13  CA  TYR B   5      55.335  25.764   0.139  1.00 53.91 LIG 0.18  C 
BRANCH 13 14
ATOM     14  CB  TYR B   5      56.183  27.001   0.451  1.00 56.99 LIG 0.07  C 
BRANCH 14 15
ATOM     15  CG  TYR B   5      57.134  26.816   1.621  1.00 60.80 LIG-0.06  A 
ATOM     16  CD2 TYR B   5      57.543  25.544   2.018  1.00 62.97 LIG 0.01  A 
ATOM     17  CE2 TYR B   5      58.401  25.370   3.106  1.00 63.70 LIG 0.04  A 
ATOM     18  CZ  TYR B   5      58.855  26.480   3.804  1.00 64.21 LIG 0.07  A 
ATOM     19  CE1 TYR B   5      58.466  27.753   3.426  1.00 63.24 LIG 0.04  A 
ATOM     20  CD1 TYR B   5      57.613  27.914   2.342  1.00 61.93 LIG 0.01  A 
BRANCH 18 21
ATOM     21 OH   TYR B   5      59.686  26.318   4.889  1.00 64.43 LIG-0.36  OA
ATOM     22 HH   TYR B   5      59.274  26.523   5.592  1.00 64.43 LIG 0.22  HD
ENDBRANCH 18 21
ENDBRANCH 14 15
ENDBRANCH 13 14
BRANCH 13 23
ATOM     23  C   TYR B   5      54.338  25.545   1.267  1.00 54.78 LIG 0.24  C 
ATOM     24  N   ILE B   6      53.065  25.404   0.909  1.00 56.06 LIG-0.35  N 
ATOM     25 H    ILE B   6      52.790  25.434   0.095  1.00 56.06 LIG 0.16  HD
ATOM     26 O    TYR B   5      54.716  25.498   2.437  1.00 54.12 LIG-0.27  OA
BRANCH 24 27
ATOM     27  CA  ILE B   6      52.011  25.181   1.892  1.00 57.79 LIG 0.18  C 
BRANCH 27 28
ATOM     28  CB  ILE B   6      50.636  25.000   1.202  1.00 57.25 LIG 0.01  C 
ATOM     29  CG2 ILE B   6      49.792  26.250   1.366  1.00 56.12 LIG 0.01  C 
BRANCH 28 30
ATOM     30  CG1 ILE B   6      50.843  24.711  -0.286  1.00 57.80 LIG 0.00  C 
ATOM     31  CD1 ILE B   6      50.141  23.457  -0.752  1.00 58.80 LIG 0.01  C 
ENDBRANCH 28 30
ENDBRANCH 27 28
BRANCH 27 32
ATOM     32  C   ILE B   6      52.314  23.952   2.745  1.00 59.33 LIG 0.24  C 
ATOM     33 O    ILE B   6      52.901  22.976   2.268  1.00 59.66 LIG-0.27  OA
ATOM     34  N   PRO B   7      51.920  23.988   4.028  1.00 60.44 LIG-0.34  N 
ATOM     35  CA  PRO B   7      52.141  22.885   4.967  1.00 61.29 LIG 0.17  C 
ATOM     36  CD  PRO B   7      51.248  25.114   4.702  1.00 60.37 LIG 0.13  C 
ATOM     37  CB  PRO B   7      51.322  23.306   6.181  1.00 61.79 LIG 0.04  C 
ATOM     38  CG  PRO B   7      51.467  24.791   6.163  1.00 60.72 LIG 0.02  C 
BRANCH 35 39
ATOM     39  C   PRO B   7      51.703  21.529   4.415  1.00 62.02 LIG 0.22  C 
ATOM     40 O    PRO B   7      50.547  21.138   4.553  1.00 61.64 LIG-0.29  OA
ENDBRANCH 35 39
ENDBRANCH 27 32
ENDBRANCH 24 27
ENDBRANCH 13 23
ENDBRANCH 11 13
ENDBRANCH 1 9
BRANCH 1 41
ATOM     41  N   PHE B   4      54.911  25.580  -4.721  1.00 40.22 LIG-0.35  N 
ATOM     42 H    PHE B   4      55.022  24.730  -4.789  1.00 40.22 LIG 0.16  HD
ATOM     43  C   ALA B   3      55.301  26.457  -5.637  1.00 36.80 LIG 0.24  C 
ATOM     44 O    ALA B   3      55.120  27.667  -5.520  1.00 35.05 LIG-0.27  OA
BRANCH 43 45
ATOM     45  CA  ALA B   3      55.987  25.889  -6.872  1.00 35.42 LIG 0.17  C 
ATOM     46  CB  ALA B   3      57.157  25.013  -6.461  1.00 34.55 LIG 0.04  C 
BRANCH 45 47
ATOM     47  N   ALA B   3      56.452  27.007  -7.681  1.00 34.22 LIG-0.35  N 
ATOM     48  C   VAL B   2      56.949  26.810  -8.896  1.00 33.55 LIG 0.24  C 
ATOM     49 O    VAL B   2      57.066  25.691  -9.394  1.00 34.35 LIG-0.27  OA
ATOM     50 H    ALA B   3      56.376  27.777  -7.307  1.00 34.22 LIG 0.16  HD
BRANCH 48 51
ATOM     51  CA  VAL B   2      57.379  28.059  -9.662  1.00 33.22 LIG 0.18  C 
BRANCH 51 52
ATOM     52  CB  VAL B   2      56.688  28.053 -11.046  1.00 32.52 LIG 0.01  C 
ATOM     53  CG1 VAL B   2      55.190  27.818 -10.894  1.00 33.02 LIG 0.01  C 
ATOM     54  CG2 VAL B   2      56.944  29.375 -11.756  1.00 33.85 LIG 0.01  C 
ENDBRANCH 51 52
BRANCH 51 55
ATOM     55  N   VAL B   2      58.828  28.130  -9.811  1.00 33.13 LIG-0.35  N 
ATOM     56 H    VAL B   2      59.107  28.016 -10.617  1.00 33.13 LIG 0.16  HD
ATOM     57  C   ALA B   1      59.631  28.354  -8.777  1.00 33.26 LIG 0.25  C 
ATOM     58 O    ALA B   1      59.224  28.500  -7.628  1.00 33.25 LIG-0.27  OA
BRANCH 57 59
ATOM     59  CA  ALA B   1      61.123  28.417  -9.079  1.00 31.51 LIG 0.27  C 
ATOM     60  CB  ALA B   1      61.727  27.014  -9.059  1.00 29.23 LIG 0.05  C 
BRANCH 59 61
ATOM     61  N   ALA B   1      61.752  29.248  -8.063  1.00 32.32 LIG-0.07  N 
ATOM     62 H3   ALA B   1      62.626  29.297  -8.219  1.00 32.32 LIG 0.28  HD
ATOM     63 H2   ALA B   1      61.614  28.891  -7.260  1.00 32.32 LIG 0.28  HD
ATOM     64 H1   ALA B   1      61.400  30.065  -8.089  1.00 32.32 LIG 0.28  HD
ENDBRANCH 59 61
ENDBRANCH 57 59
ENDBRANCH 51 55
ENDBRANCH 48 51
ENDBRANCH 45 47
ENDBRANCH 43 45
ENDBRANCH 1 41
TORSDOF 21
ENDMDL
MODEL 14
USER: ADFR SOLUTION from run 86
USER: SCORE 19.829338 LL:  -6.637 LR: -15.618 RR:   0.000 FEB:  -9.354
USER: RMSD 4.047254
USER: SEED 85
USER: STATUS searching
USER: GENES 23
USER: genes 0 Translation |==|  0.52603 0.44992 0.62783
USER: genes 1 Rotation |==|  0.21824 0.40028 0.10495 0.56784
USER: genes 2 Torsion [C]-CA--CB-[CG] |==|  0.04267
USER: genes 3 Torsion [CA]-CB--CG-[CD1] |==|  0.74718
USER: genes 4 Torsion [N]-CA--C-[N] |==|  0.43685
USER: genes 5 Torsion [C]-N--CA-[CB] |==|  0.28333
USER: genes 6 Torsion [N]-CA--CB-[CG] |==|  0.44016
USER: genes 7 Torsion [CA]-CB--CG-[CD1] |==|  0.20577
USER: genes 8 Torsion [CE2]-CZ--OH-[HH] |==|  0.71954
USER: genes 9 Torsion [N]-CA--C-[N] |==|  0.36742
USER: genes 10 Torsion [C]-N--CA-[C] |==|  0.86462
USER: genes 11 Torsion [N]-CA--CB-[CG1] |==|  0.13199
USER: genes 12 Torsion [CA]-CB--CG1-[CD1] |==|  0.29405
USER: genes 13 Torsion [N]-CA--C-[N] |==|  0.36691
USER: genes 14 Torsion [N]-CA--C-[O] |==|  0.34314
USER: genes 15 Torsion [CB]-CA--N-[C] |==|  0.21235
USER: genes 16 Torsion [N]-C--CA-[N] |==|  0.38222
USER: genes 17 Torsion [C]-CA--N-[C] |==|  0.72598
USER: genes 18 Torsion [N]-C--CA-[N] |==|  0.94963
USER: genes 19 Torsion [C]-CA--CB-[CG1] |==|  0.22632
USER: genes 20 Torsion [C]-CA--N-[C] |==|  0.81779
USER: genes 21 Torsion [N]-C--CA-[N] |==|  0.12705
USER: genes 22 Torsion [C]-CA--N-[H3] |==|  0.85035
ROOT
ATOM      1  CA  PHE B   4      54.094  25.426  -0.774  1.00 44.68 LIG 0.18  C 
ENDROOT
BRANCH 1 2
ATOM      2  CB  PHE B   4      55.399  25.883  -1.432  1.00 43.52 LIG 0.07  C 
BRANCH 2 3
ATOM      3  CG  PHE B   4      55.346  25.869  -2.932  1.00 43.42 LIG-0.06  A 
ATOM      4  CD2 PHE B   4      54.954  27.002  -3.636  1.00 43.71 LIG 0.01  A 
ATOM      5  CE2 PHE B   4      54.955  27.012  -5.033  1.00 44.42 LIG 0.00  A 
ATOM      6  CZ  PHE B   4      55.350  25.872  -5.733  1.00 44.23 LIG 0.00  A 
ATOM      7  CE1 PHE B   4      55.740  24.735  -5.036  1.00 42.62 LIG 0.00  A 
ATOM      8  CD1 PHE B   4      55.736  24.738  -3.643  1.00 43.35 LIG 0.01  A 
ENDBRANCH 2 3
ENDBRANCH 1 2
BRANCH 1 9
ATOM      9  C   PHE B   4      53.195  24.715  -1.777  1.00 47.70 LIG 0.24  C 
ATOM     10 O    PHE B   4      53.155  23.486  -1.826  1.00 47.98 LIG-0.27  OA
ATOM     11  N   TYR B   5      52.487  25.502  -2.579  1.00 50.93 LIG-0.35  N 
ATOM     12 H    TYR B   5      52.508  26.361  -2.539  1.00 50.93 LIG 0.16  HD
BRANCH 11 13
ATOM     13  CA  TYR B   5      51.600  24.978  -3.614  1.00 53.91 LIG 0.18  C 
BRANCH 13 14
ATOM     14  CB  TYR B   5      50.136  25.041  -3.169  1.00 56.99 LIG 0.07  C 
BRANCH 14 15
ATOM     15  CG  TYR B   5      49.142  25.016  -4.317  1.00 60.80 LIG-0.06  A 
ATOM     16  CD2 TYR B   5      48.447  26.166  -4.688  1.00 62.97 LIG 0.01  A 
ATOM     17  CE2 TYR B   5      47.517  26.142  -5.730  1.00 63.70 LIG 0.04  A 
ATOM     18  CZ  TYR B   5      47.280  24.954  -6.409  1.00 64.21 LIG 0.07  A 
ATOM     19  CE1 TYR B   5      47.961  23.801  -6.061  1.00 63.24 LIG 0.04  A 
ATOM     20  CD1 TYR B   5      48.885  23.838  -5.024  1.00 61.93 LIG 0.01  A 
BRANCH 18 21
ATOM     21 OH   TYR B   5      46.353  24.915  -7.424  1.00 64.43 LIG-0.36  OA
ATOM     22 HH   TYR B   5      45.638  24.578  -7.139  1.00 64.43 LIG 0.22  HD
ENDBRANCH 18 21
ENDBRANCH 14 15
ENDBRANCH 13 14
BRANCH 13 23
ATOM     23  C   TYR B   5      51.775  25.816  -4.873  1.00 54.78 LIG 0.24  C 
ATOM     24  N   ILE B   6      51.937  25.145  -6.009  1.00 56.06 LIG-0.35  N 
ATOM     25 H    ILE B   6      51.951  24.286  -6.061  1.00 56.06 LIG 0.16  HD
ATOM     26 O    TYR B   5      51.758  27.045  -4.814  1.00 54.12 LIG-0.27  OA
BRANCH 24 27
ATOM     27  CA  ILE B   6      52.109  25.827  -7.287  1.00 57.79 LIG 0.18  C 
BRANCH 27 28
ATOM     28  CB  ILE B   6      52.039  24.826  -8.466  1.00 57.25 LIG 0.01  C 
ATOM     29  CG2 ILE B   6      53.303  23.989  -8.527  1.00 56.12 LIG 0.01  C 
BRANCH 28 30
ATOM     30  CG1 ILE B   6      50.824  23.912  -8.292  1.00 57.80 LIG 0.00  C 
ATOM     31  CD1 ILE B   6      49.691  24.242  -9.235  1.00 58.80 LIG 0.01  C 
ENDBRANCH 28 30
ENDBRANCH 27 28
BRANCH 27 32
ATOM     32  C   ILE B   6      51.045  26.906  -7.474  1.00 59.33 LIG 0.24  C 
ATOM     33 O    ILE B   6      49.852  26.666  -7.258  1.00 59.66 LIG-0.27  OA
ATOM     34  N   PRO B   7      51.467  28.116  -7.874  1.00 60.44 LIG-0.34  N 
ATOM     35  CA  PRO B   7      50.563  29.248  -8.096  1.00 61.29 LIG 0.17  C 
ATOM     36  CD  PRO B   7      52.864  28.513  -8.122  1.00 60.37 LIG 0.13  C 
ATOM     37  CB  PRO B   7      51.471  30.280  -8.752  1.00 61.79 LIG 0.04  C 
ATOM     38  CG  PRO B   7      52.780  30.023  -8.084  1.00 60.72 LIG 0.02  C 
BRANCH 35 39
ATOM     39  C   PRO B   7      49.360  28.895  -8.971  1.00 62.02 LIG 0.22  C 
ATOM     40 O    PRO B   7      48.214  29.073  -8.566  1.00 61.64 LIG-0.29  OA
ENDBRANCH 35 39
ENDBRANCH 27 32
ENDBRANCH 24 27
ENDBRANCH 13 23
ENDBRANCH 11 13
ENDBRANCH 1 9
BRANCH 1 41
ATOM     41  N   PHE B   4      54.387  24.558   0.354  1.00 40.22 LIG-0.35  N 
ATOM     42 H    PHE B   4      54.260  23.721   0.206  1.00 40.22 LIG 0.16  HD
ATOM     43  C   ALA B   3      54.815  25.053   1.509  1.00 36.80 LIG 0.24  C 
ATOM     44 O    ALA B   3      54.999  26.254   1.691  1.00 35.05 LIG-0.27  OA
BRANCH 43 45
ATOM     45  CA  ALA B   3      55.085  24.047   2.620  1.00 35.42 LIG 0.17  C 
ATOM     46  CB  ALA B   3      53.938  24.049   3.613  1.00 34.55 LIG 0.04  C 
BRANCH 45 47
ATOM     47  N   ALA B   3      56.326  24.429   3.278  1.00 34.22 LIG-0.35  N 
ATOM     48  C   VAL B   2      57.473  23.834   2.972  1.00 33.55 LIG 0.24  C 
ATOM     49 O    VAL B   2      57.551  22.925   2.146  1.00 34.35 LIG-0.27  OA
ATOM     50 H    ALA B   3      56.245  25.054   3.863  1.00 34.22 LIG 0.16  HD
BRANCH 48 51
ATOM     51  CA  VAL B   2      58.713  24.336   3.707  1.00 33.22 LIG 0.18  C 
BRANCH 51 52
ATOM     52  CB  VAL B   2      59.096  23.301   4.793  1.00 32.52 LIG 0.01  C 
ATOM     53  CG1 VAL B   2      59.887  22.152   4.180  1.00 33.02 LIG 0.01  C 
ATOM     54  CG2 VAL B   2      59.912  23.979   5.885  1.00 33.85 LIG 0.01  C 
ENDBRANCH 51 52
BRANCH 51 55
ATOM     55  N   VAL B   2      58.496  25.650   4.301  1.00 33.13 LIG-0.35  N 
ATOM     56 H    VAL B   2      58.516  25.656   5.161  1.00 33.13 LIG 0.16  HD
ATOM     57  C   ALA B   1      58.288  26.731   3.560  1.00 33.26 LIG 0.25  C 
ATOM     58 O    ALA B   1      58.246  26.708   2.333  1.00 33.25 LIG-0.27  OA
BRANCH 57 59
ATOM     59  CA  ALA B   1      58.090  28.041   4.312  1.00 31.51 LIG 0.27  C 
ATOM     60  CB  ALA B   1      58.205  29.225   3.354  1.00 29.23 LIG 0.05  C 
BRANCH 59 61
ATOM     61  N   ALA B   1      59.114  28.127   5.341  1.00 32.32 LIG-0.07  N 
ATOM     62 H3   ALA B   1      59.091  27.394   5.845  1.00 32.32 LIG 0.28  HD
ATOM     63 H2   ALA B   1      58.964  28.841   5.851  1.00 32.32 LIG 0.28  HD
ATOM     64 H1   ALA B   1      59.914  28.199   4.959  1.00 32.32 LIG 0.28  HD
ENDBRANCH 59 61
ENDBRANCH 57 59
ENDBRANCH 51 55
ENDBRANCH 48 51
ENDBRANCH 45 47
ENDBRANCH 43 45
ENDBRANCH 1 41
TORSDOF 21
ENDMDL
MODEL 15
USER: ADFR SOLUTION from run 93
USER: SCORE 18.289495 LL:  -5.434 LR: -15.614 RR:   0.000 FEB:  -9.350
USER: RMSD 5.633910
USER: SEED 92
USER: STATUS no improvement in best in 5 clusters for 5 generations
USER: GENES 23
USER: genes 0 Translation |==|  0.57866 0.43615 0.46950
USER: genes 1 Rotation |==|  0.75387 0.45870 0.75540 0.84441
USER: genes 2 Torsion [C]-CA--CB-[CG] |==|  0.34510
USER: genes 3 Torsion [CA]-CB--CG-[CD1] |==|  0.30679
USER: genes 4 Torsion [N]-CA--C-[N] |==|  0.40956
USER: genes 5 Torsion [C]-N--CA-[CB] |==|  0.18479
USER: genes 6 Torsion [N]-CA--CB-[CG] |==|  0.63794
USER: genes 7 Torsion [CA]-CB--CG-[CD1] |==|  0.68891
USER: genes 8 Torsion [CE2]-CZ--OH-[HH] |==|  0.31821
USER: genes 9 Torsion [N]-CA--C-[N] |==|  0.76129
USER: genes 10 Torsion [C]-N--CA-[C] |==|  0.79482
USER: genes 11 Torsion [N]-CA--CB-[CG1] |==|  0.84821
USER: genes 12 Torsion [CA]-CB--CG1-[CD1] |==|  0.89178
USER: genes 13 Torsion [N]-CA--C-[N] |==|  0.86111
USER: genes 14 Torsion [N]-CA--C-[O] |==|  0.88736
USER: genes 15 Torsion [CB]-CA--N-[C] |==|  0.19495
USER: genes 16 Torsion [N]-C--CA-[N] |==|  0.51534
USER: genes 17 Torsion [C]-CA--N-[C] |==|  0.53174
USER: genes 18 Torsion [N]-C--CA-[N] |==|  0.38560
USER: genes 19 Torsion [C]-CA--CB-[CG1] |==|  0.54334
USER: genes 20 Torsion [C]-CA--N-[C] |==|  0.78553
USER: genes 21 Torsion [N]-C--CA-[N] |==|  0.19708
USER: genes 22 Torsion [C]-CA--N-[H3] |==|  0.50906
ROOT
ATOM      1  CA  PHE B   4      55.318  25.199  -4.693  1.00 44.68 LIG 0.18  C 
ENDROOT
BRANCH 1 2
ATOM      2  CB  PHE B   4      55.236  23.672  -4.789  1.00 43.52 LIG 0.07  C 
BRANCH 2 3
ATOM      3  CG  PHE B   4      56.569  23.019  -5.012  1.00 43.42 LIG-0.06  A 
ATOM      4  CD2 PHE B   4      57.257  23.206  -6.206  1.00 43.71 LIG 0.01  A 
ATOM      5  CE2 PHE B   4      58.522  22.646  -6.399  1.00 44.42 LIG 0.00  A 
ATOM      6  CZ  PHE B   4      59.103  21.886  -5.384  1.00 44.23 LIG 0.00  A 
ATOM      7  CE1 PHE B   4      58.421  21.692  -4.189  1.00 42.62 LIG 0.00  A 
ATOM      8  CD1 PHE B   4      57.160  22.257  -4.010  1.00 43.35 LIG 0.01  A 
ENDBRANCH 2 3
ENDBRANCH 1 2
BRANCH 1 9
ATOM      9  C   PHE B   4      54.402  25.862  -5.712  1.00 47.70 LIG 0.24  C 
ATOM     10 O    PHE B   4      53.231  26.119  -5.432  1.00 47.98 LIG-0.27  OA
ATOM     11  N   TYR B   5      54.944  26.122  -6.896  1.00 50.93 LIG-0.35  N 
ATOM     12 H    TYR B   5      55.764  25.951  -7.089  1.00 50.93 LIG 0.16  HD
BRANCH 11 13
ATOM     13  CA  TYR B   5      54.192  26.728  -7.992  1.00 53.91 LIG 0.18  C 
BRANCH 13 14
ATOM     14  CB  TYR B   5      53.792  28.167  -7.655  1.00 56.99 LIG 0.07  C 
BRANCH 14 15
ATOM     15  CG  TYR B   5      52.322  28.469  -7.892  1.00 60.80 LIG-0.06  A 
ATOM     16  CD2 TYR B   5      51.333  27.870  -7.113  1.00 62.97 LIG 0.01  A 
ATOM     17  CE2 TYR B   5      49.979  28.130  -7.342  1.00 63.70 LIG 0.04  A 
ATOM     18  CZ  TYR B   5      49.611  28.997  -8.361  1.00 64.21 LIG 0.07  A 
ATOM     19  CE1 TYR B   5      50.576  29.606  -9.145  1.00 63.24 LIG 0.04  A 
ATOM     20  CD1 TYR B   5      51.919  29.341  -8.907  1.00 61.93 LIG 0.01  A 
BRANCH 18 21
ATOM     21 OH   TYR B   5      48.280  29.245  -8.607  1.00 64.43 LIG-0.36  OA
ATOM     22 HH   TYR B   5      48.109  30.050  -8.439  1.00 64.43 LIG 0.22  HD
ENDBRANCH 18 21
ENDBRANCH 14 15
ENDBRANCH 13 14
BRANCH 13 23
ATOM     23  C   TYR B   5      55.066  26.730  -9.237  1.00 54.78 LIG 0.24  C 
ATOM     24  N   ILE B   6      55.891  27.764  -9.375  1.00 56.06 LIG-0.35  N 
ATOM     25 H    ILE B   6      55.947  28.412  -8.812  1.00 56.06 LIG 0.16  HD
ATOM     26 O    TYR B   5      54.997  25.811 -10.052  1.00 54.12 LIG-0.27  OA
BRANCH 24 27
ATOM     27  CA  ILE B   6      56.787  27.884 -10.520  1.00 57.79 LIG 0.18  C 
BRANCH 27 28
ATOM     28  CB  ILE B   6      57.339  29.325 -10.645  1.00 57.25 LIG 0.01  C 
ATOM     29  CG2 ILE B   6      58.181  29.463 -11.901  1.00 56.12 LIG 0.01  C 
BRANCH 28 30
ATOM     30  CG1 ILE B   6      56.177  30.319 -10.694  1.00 57.80 LIG 0.00  C 
ATOM     31  CD1 ILE B   6      55.002  29.820 -11.503  1.00 58.80 LIG 0.01  C 
ENDBRANCH 28 30
ENDBRANCH 27 28
BRANCH 27 32
ATOM     32  C   ILE B   6      57.952  26.904 -10.404  1.00 59.33 LIG 0.24  C 
ATOM     33 O    ILE B   6      58.258  26.166 -11.346  1.00 59.66 LIG-0.27  OA
ATOM     34  N   PRO B   7      58.623  26.890  -9.241  1.00 60.44 LIG-0.34  N 
ATOM     35  CA  PRO B   7      59.761  26.005  -8.982  1.00 61.29 LIG 0.17  C 
ATOM     36  CD  PRO B   7      58.361  27.752  -8.074  1.00 60.37 LIG 0.13  C 
ATOM     37  CB  PRO B   7      60.003  26.196  -7.489  1.00 61.79 LIG 0.04  C 
ATOM     38  CG  PRO B   7      59.649  27.631  -7.291  1.00 60.72 LIG 0.02  C 
BRANCH 35 39
ATOM     39  C   PRO B   7      59.482  24.546  -9.341  1.00 62.02 LIG 0.22  C 
ATOM     40 O    PRO B   7      58.395  24.033  -9.088  1.00 61.64 LIG-0.29  OA
ENDBRANCH 35 39
ENDBRANCH 27 32
ENDBRANCH 24 27
ENDBRANCH 13 23
ENDBRANCH 11 13
ENDBRANCH 1 9
BRANCH 1 41
ATOM     41  N   PHE B   4      54.981  25.628  -3.346  1.00 40.22 LIG-0.35  N 
ATOM     42 H    PHE B   4      54.227  26.036  -3.278  1.00 40.22 LIG 0.16  HD
ATOM     43  C   ALA B   3      55.794  25.391  -2.325  1.00 36.80 LIG 0.24  C 
ATOM     44 O    ALA B   3      56.861  24.794  -2.448  1.00 35.05 LIG-0.27  OA
BRANCH 43 45
ATOM     45  CA  ALA B   3      55.335  25.892  -0.962  1.00 35.42 LIG 0.17  C 
ATOM     46  CB  ALA B   3      55.010  27.373  -1.034  1.00 34.55 LIG 0.04  C 
BRANCH 45 47
ATOM     47  N   ALA B   3      56.413  25.656  -0.012  1.00 34.22 LIG-0.35  N 
ATOM     48  C   VAL B   2      56.212  25.785   1.294  1.00 33.55 LIG 0.24  C 
ATOM     49 O    VAL B   2      55.130  26.129   1.771  1.00 34.35 LIG-0.27  OA
ATOM     50 H    ALA B   3      57.163  25.433  -0.367  1.00 34.22 LIG 0.16  HD
BRANCH 48 51
ATOM     51  CA  VAL B   2      57.406  25.486   2.196  1.00 33.22 LIG 0.18  C 
BRANCH 51 52
ATOM     52  CB  VAL B   2      57.264  24.045   2.744  1.00 32.52 LIG 0.01  C 
ATOM     53  CG1 VAL B   2      58.198  23.829   3.928  1.00 33.02 LIG 0.01  C 
ATOM     54  CG2 VAL B   2      55.821  23.792   3.157  1.00 33.85 LIG 0.01  C 
ENDBRANCH 51 52
BRANCH 51 55
ATOM     55  N   VAL B   2      57.513  26.444   3.290  1.00 33.13 LIG-0.35  N 
ATOM     56 H    VAL B   2      57.239  26.146   4.049  1.00 33.13 LIG 0.16  HD
ATOM     57  C   ALA B   1      57.995  27.668   3.109  1.00 33.26 LIG 0.25  C 
ATOM     58 O    ALA B   1      58.368  28.090   2.018  1.00 33.25 LIG-0.27  OA
BRANCH 57 59
ATOM     59  CA  ALA B   1      58.061  28.560   4.342  1.00 31.51 LIG 0.27  C 
ATOM     60  CB  ALA B   1      58.362  30.002   3.937  1.00 29.23 LIG 0.05  C 
BRANCH 59 61
ATOM     61  N   ALA B   1      59.114  28.052   5.207  1.00 32.32 LIG-0.07  N 
ATOM     62 H3   ALA B   1      59.139  28.531   5.957  1.00 32.32 LIG 0.28  HD
ATOM     63 H2   ALA B   1      59.898  28.114   4.790  1.00 32.32 LIG 0.28  HD
ATOM     64 H1   ALA B   1      58.950  27.200   5.405  1.00 32.32 LIG 0.28  HD
ENDBRANCH 59 61
ENDBRANCH 57 59
ENDBRANCH 51 55
ENDBRANCH 48 51
ENDBRANCH 45 47
ENDBRANCH 43 45
ENDBRANCH 1 41
TORSDOF 21
ENDMDL
MODEL 16
USER: ADFR SOLUTION from run 165
USER: SCORE 20.816414 LL:  -6.176 LR: -15.583 RR:   0.000 FEB:  -9.319
USER: RMSD 9.172792
USER: SEED 164
USER: STATUS no improvement in best in 2 clusters for 5 generations
USER: GENES 23
USER: genes 0 Translation |==|  0.58727 0.49187 0.70137
USER: genes 1 Rotation |==|  0.13897 0.35074 0.19559 0.56868
USER: genes 2 Torsion [C]-CA--CB-[CG] |==|  0.06903
USER: genes 3 Torsion [CA]-CB--CG-[CD1] |==|  0.73024
USER: genes 4 Torsion [N]-CA--C-[N] |==|  0.37936
USER: genes 5 Torsion [C]-N--CA-[CB] |==|  0.88711
USER: genes 6 Torsion [N]-CA--CB-[CG] |==|  0.70691
USER: genes 7 Torsion [CA]-CB--CG-[CD1] |==|  0.49925
USER: genes 8 Torsion [CE2]-CZ--OH-[HH] |==|  0.51650
USER: genes 9 Torsion [N]-CA--C-[N] |==|  0.82661
USER: genes 10 Torsion [C]-N--CA-[C] |==|  0.83251
USER: genes 11 Torsion [N]-CA--CB-[CG1] |==|  0.76704
USER: genes 12 Torsion [CA]-CB--CG1-[CD1] |==|  0.16423
USER: genes 13 Torsion [N]-CA--C-[N] |==|  0.36192
USER: genes 14 Torsion [N]-CA--C-[O] |==|  0.53369
USER: genes 15 Torsion [CB]-CA--N-[C] |==|  0.85153
USER: genes 16 Torsion [N]-C--CA-[N] |==|  0.90607
USER: genes 17 Torsion [C]-CA--N-[C] |==|  0.80604
USER: genes 18 Torsion [N]-C--CA-[N] |==|  0.36741
USER: genes 19 Torsion [C]-CA--CB-[CG1] |==|  0.99798
USER: genes 20 Torsion [C]-CA--N-[C] |==|  0.86645
USER: genes 21 Torsion [N]-C--CA-[N] |==|  0.11965
USER: genes 22 Torsion [C]-CA--N-[H3] |==|  0.67137
ROOT
ATOM      1  CA  PHE B   4      55.518  26.118   1.046  1.00 44.68 LIG 0.18  C 
ENDROOT
BRANCH 1 2
ATOM      2  CB  PHE B   4      56.362  26.422  -0.195  1.00 43.52 LIG 0.07  C 
BRANCH 2 3
ATOM      3  CG  PHE B   4      55.628  26.193  -1.484  1.00 43.42 LIG-0.06  A 
ATOM      4  CD2 PHE B   4      54.821  27.188  -2.025  1.00 43.71 LIG 0.01  A 
ATOM      5  CE2 PHE B   4      54.179  27.001  -3.251  1.00 44.42 LIG 0.00  A 
ATOM      6  CZ  PHE B   4      54.345  25.801  -3.943  1.00 44.23 LIG 0.00  A 
ATOM      7  CE1 PHE B   4      55.147  24.801  -3.408  1.00 42.62 LIG 0.00  A 
ATOM      8  CD1 PHE B   4      55.783  25.000  -2.184  1.00 43.35 LIG 0.01  A 
ENDBRANCH 2 3
ENDBRANCH 1 2
BRANCH 1 9
ATOM      9  C   PHE B   4      54.414  25.119   0.727  1.00 47.70 LIG 0.24  C 
ATOM     10 O    PHE B   4      54.661  23.917   0.633  1.00 47.98 LIG-0.27  OA
ATOM     11  N   TYR B   5      53.201  25.632   0.550  1.00 50.93 LIG-0.35  N 
ATOM     12 H    TYR B   5      53.027  26.471   0.625  1.00 50.93 LIG 0.16  HD
BRANCH 11 13
ATOM     13  CA  TYR B   5      52.041  24.813   0.210  1.00 53.91 LIG 0.18  C 
BRANCH 13 14
ATOM     14  CB  TYR B   5      52.410  23.736  -0.815  1.00 56.99 LIG 0.07  C 
BRANCH 14 15
ATOM     15  CG  TYR B   5      51.904  24.023  -2.218  1.00 60.80 LIG-0.06  A 
ATOM     16  CD2 TYR B   5      51.157  25.169  -2.490  1.00 62.97 LIG 0.01  A 
ATOM     17  CE2 TYR B   5      50.673  25.425  -3.775  1.00 63.70 LIG 0.04  A 
ATOM     18  CZ  TYR B   5      50.940  24.527  -4.799  1.00 64.21 LIG 0.07  A 
ATOM     19  CE1 TYR B   5      51.683  23.386  -4.554  1.00 63.24 LIG 0.04  A 
ATOM     20  CD1 TYR B   5      52.160  23.141  -3.272  1.00 61.93 LIG 0.01  A 
BRANCH 18 21
ATOM     21 OH   TYR B   5      50.453  24.762  -6.065  1.00 64.43 LIG-0.36  OA
ATOM     22 HH   TYR B   5      50.621  24.102  -6.557  1.00 64.43 LIG 0.22  HD
ENDBRANCH 18 21
ENDBRANCH 14 15
ENDBRANCH 13 14
BRANCH 13 23
ATOM     23  C   TYR B   5      51.531  24.144   1.477  1.00 54.78 LIG 0.24  C 
ATOM     24  N   ILE B   6      52.369  23.305   2.078  1.00 56.06 LIG-0.35  N 
ATOM     25 H    ILE B   6      53.160  23.127   1.789  1.00 56.06 LIG 0.16  HD
ATOM     26 O    TYR B   5      50.403  24.388   1.904  1.00 54.12 LIG-0.27  OA
BRANCH 24 27
ATOM     27  CA  ILE B   6      52.006  22.603   3.304  1.00 57.79 LIG 0.18  C 
BRANCH 27 28
ATOM     28  CB  ILE B   6      53.142  21.654   3.760  1.00 57.25 LIG 0.01  C 
ATOM     29  CG2 ILE B   6      53.060  21.409   5.255  1.00 56.12 LIG 0.01  C 
BRANCH 28 30
ATOM     30  CG1 ILE B   6      53.031  20.324   3.014  1.00 57.80 LIG 0.00  C 
ATOM     31  CD1 ILE B   6      53.116  20.475   1.513  1.00 58.80 LIG 0.01  C 
ENDBRANCH 28 30
ENDBRANCH 27 28
BRANCH 27 32
ATOM     32  C   ILE B   6      51.694  23.593   4.425  1.00 59.33 LIG 0.24  C 
ATOM     33 O    ILE B   6      52.466  24.520   4.687  1.00 59.66 LIG-0.27  OA
ATOM     34  N   PRO B   7      50.547  23.409   5.098  1.00 60.44 LIG-0.34  N 
ATOM     35  CA  PRO B   7      50.114  24.276   6.197  1.00 61.29 LIG 0.17  C 
ATOM     36  CD  PRO B   7      49.544  22.360   4.841  1.00 60.37 LIG 0.13  C 
ATOM     37  CB  PRO B   7      48.915  23.527   6.765  1.00 61.79 LIG 0.04  C 
ATOM     38  CG  PRO B   7      48.322  22.904   5.546  1.00 60.72 LIG 0.02  C 
BRANCH 35 39
ATOM     39  C   PRO B   7      51.202  24.508   7.245  1.00 62.02 LIG 0.22  C 
ATOM     40 O    PRO B   7      50.933  25.023   8.327  1.00 61.64 LIG-0.29  OA
ENDBRANCH 35 39
ENDBRANCH 27 32
ENDBRANCH 24 27
ENDBRANCH 13 23
ENDBRANCH 11 13
ENDBRANCH 1 9
BRANCH 1 41
ATOM     41  N   PHE B   4      56.369  25.617   2.112  1.00 40.22 LIG-0.35  N 
ATOM     42 H    PHE B   4      56.297  26.040   2.857  1.00 40.22 LIG 0.16  HD
ATOM     43  C   ALA B   3      57.181  24.586   1.916  1.00 36.80 LIG 0.24  C 
ATOM     44 O    ALA B   3      57.255  23.991   0.844  1.00 35.05 LIG-0.27  OA
BRANCH 43 45
ATOM     45  CA  ALA B   3      58.026  24.153   3.107  1.00 35.42 LIG 0.17  C 
ATOM     46  CB  ALA B   3      57.248  23.176   3.969  1.00 34.55 LIG 0.04  C 
BRANCH 45 47
ATOM     47  N   ALA B   3      58.365  25.344   3.872  1.00 34.22 LIG-0.35  N 
ATOM     48  C   VAL B   2      59.211  26.248   3.391  1.00 33.55 LIG 0.24  C 
ATOM     49 O    VAL B   2      59.767  26.124   2.300  1.00 34.35 LIG-0.27  OA
ATOM     50 H    ALA B   3      57.978  25.402   4.638  1.00 34.22 LIG 0.16  HD
BRANCH 48 51
ATOM     51  CA  VAL B   2      59.470  27.469   4.269  1.00 33.22 LIG 0.18  C 
BRANCH 51 52
ATOM     52  CB  VAL B   2      58.720  28.681   3.665  1.00 32.52 LIG 0.01  C 
ATOM     53  CG1 VAL B   2      57.988  28.275   2.392  1.00 33.02 LIG 0.01  C 
ATOM     54  CG2 VAL B   2      57.736  29.238   4.684  1.00 33.85 LIG 0.01  C 
ENDBRANCH 51 52
BRANCH 51 55
ATOM     55  N   VAL B   2      60.894  27.754   4.394  1.00 33.13 LIG-0.35  N 
ATOM     56 H    VAL B   2      61.102  28.579   4.260  1.00 33.13 LIG 0.16  HD
ATOM     57  C   ALA B   1      61.778  26.809   4.688  1.00 33.26 LIG 0.25  C 
ATOM     58 O    ALA B   1      61.473  25.632   4.861  1.00 33.25 LIG-0.27  OA
BRANCH 57 59
ATOM     59  CA  ALA B   1      63.232  27.250   4.800  1.00 31.51 LIG 0.27  C 
ATOM     60  CB  ALA B   1      64.054  26.187   5.525  1.00 29.23 LIG 0.05  C 
BRANCH 59 61
ATOM     61  N   ALA B   1      63.265  28.502   5.539  1.00 32.32 LIG-0.07  N 
ATOM     62 H3   ALA B   1      63.603  29.143   5.023  1.00 32.32 LIG 0.28  HD
ATOM     63 H2   ALA B   1      63.775  28.406   6.263  1.00 32.32 LIG 0.28  HD
ATOM     64 H1   ALA B   1      62.439  28.724   5.785  1.00 32.32 LIG 0.28  HD
ENDBRANCH 59 61
ENDBRANCH 57 59
ENDBRANCH 51 55
ENDBRANCH 48 51
ENDBRANCH 45 47
ENDBRANCH 43 45
ENDBRANCH 1 41
TORSDOF 21
ENDMDL
MODEL 17
USER: ADFR SOLUTION from run 81
USER: SCORE 19.933125 LL:  -6.080 LR: -15.494 RR:   0.000 FEB:  -9.230
USER: RMSD 6.707272
USER: SEED 80
USER: STATUS searching
USER: GENES 23
USER: genes 0 Translation |==|  0.56797 0.48304 0.69786
USER: genes 1 Rotation |==|  0.19718 0.32479 0.17291 0.64358
USER: genes 2 Torsion [C]-CA--CB-[CG] |==|  0.03351
USER: genes 3 Torsion [CA]-CB--CG-[CD1] |==|  0.27494
USER: genes 4 Torsion [N]-CA--C-[N] |==|  0.42735
USER: genes 5 Torsion [C]-N--CA-[CB] |==|  0.23987
USER: genes 6 Torsion [N]-CA--CB-[CG] |==|  0.97900
USER: genes 7 Torsion [CA]-CB--CG-[CD1] |==|  0.23448
USER: genes 8 Torsion [CE2]-CZ--OH-[HH] |==|  0.12253
USER: genes 9 Torsion [N]-CA--C-[N] |==|  0.31799
USER: genes 10 Torsion [C]-N--CA-[C] |==|  0.74413
USER: genes 11 Torsion [N]-CA--CB-[CG1] |==|  0.69892
USER: genes 12 Torsion [CA]-CB--CG1-[CD1] |==|  0.76798
USER: genes 13 Torsion [N]-CA--C-[N] |==|  0.39030
USER: genes 14 Torsion [N]-CA--C-[O] |==|  0.90340
USER: genes 15 Torsion [CB]-CA--N-[C] |==|  0.83690
USER: genes 16 Torsion [N]-C--CA-[N] |==|  0.85014
USER: genes 17 Torsion [C]-CA--N-[C] |==|  0.79936
USER: genes 18 Torsion [N]-C--CA-[N] |==|  0.38135
USER: genes 19 Torsion [C]-CA--CB-[CG1] |==|  0.97765
USER: genes 20 Torsion [C]-CA--N-[C] |==|  0.85715
USER: genes 21 Torsion [N]-C--CA-[N] |==|  0.16970
USER: genes 22 Torsion [C]-CA--N-[H3] |==|  0.64555
ROOT
ATOM      1  CA  PHE B   4      55.069  25.972   0.959  1.00 44.68 LIG 0.18  C 
ENDROOT
BRANCH 1 2
ATOM      2  CB  PHE B   4      55.886  26.786  -0.049  1.00 43.52 LIG 0.07  C 
BRANCH 2 3
ATOM      3  CG  PHE B   4      55.598  26.425  -1.477  1.00 43.42 LIG-0.06  A 
ATOM      4  CD2 PHE B   4      56.153  25.282  -2.043  1.00 43.71 LIG 0.01  A 
ATOM      5  CE2 PHE B   4      55.845  24.911  -3.354  1.00 44.42 LIG 0.00  A 
ATOM      6  CZ  PHE B   4      54.973  25.695  -4.108  1.00 44.23 LIG 0.00  A 
ATOM      7  CE1 PHE B   4      54.416  26.840  -3.550  1.00 42.62 LIG 0.00  A 
ATOM      8  CD1 PHE B   4      54.730  27.199  -2.241  1.00 43.35 LIG 0.01  A 
ENDBRANCH 2 3
ENDBRANCH 1 2
BRANCH 1 9
ATOM      9  C   PHE B   4      54.382  24.793   0.284  1.00 47.70 LIG 0.24  C 
ATOM     10 O    PHE B   4      54.898  23.677   0.289  1.00 47.98 LIG-0.27  OA
ATOM     11  N   TYR B   5      53.222  25.060  -0.306  1.00 50.93 LIG-0.35  N 
ATOM     12 H    TYR B   5      52.856  25.838  -0.302  1.00 50.93 LIG 0.16  HD
BRANCH 11 13
ATOM     13  CA  TYR B   5      52.452  24.047  -1.023  1.00 53.91 LIG 0.18  C 
BRANCH 13 14
ATOM     14  CB  TYR B   5      51.537  23.273  -0.069  1.00 56.99 LIG 0.07  C 
BRANCH 14 15
ATOM     15  CG  TYR B   5      51.764  23.597   1.398  1.00 60.80 LIG-0.06  A 
ATOM     16  CD2 TYR B   5      52.582  22.793   2.191  1.00 62.97 LIG 0.01  A 
ATOM     17  CE2 TYR B   5      52.776  23.076   3.545  1.00 63.70 LIG 0.04  A 
ATOM     18  CZ  TYR B   5      52.145  24.175   4.112  1.00 64.21 LIG 0.07  A 
ATOM     19  CE1 TYR B   5      51.332  24.989   3.344  1.00 63.24 LIG 0.04  A 
ATOM     20  CD1 TYR B   5      51.147  24.699   1.998  1.00 61.93 LIG 0.01  A 
BRANCH 18 21
ATOM     21 OH   TYR B   5      52.315  24.452   5.449  1.00 64.43 LIG-0.36  OA
ATOM     22 HH   TYR B   5      53.126  24.367   5.652  1.00 64.43 LIG 0.22  HD
ENDBRANCH 18 21
ENDBRANCH 14 15
ENDBRANCH 13 14
BRANCH 13 23
ATOM     23  C   TYR B   5      51.602  24.740  -2.078  1.00 54.78 LIG 0.24  C 
ATOM     24  N   ILE B   6      51.898  24.466  -3.345  1.00 56.06 LIG-0.35  N 
ATOM     25 H    ILE B   6      52.530  23.935  -3.586  1.00 56.06 LIG 0.16  HD
ATOM     26 O    TYR B   5      50.694  25.502  -1.749  1.00 54.12 LIG-0.27  OA
BRANCH 24 27
ATOM     27  CA  ILE B   6      51.156  25.059  -4.452  1.00 57.79 LIG 0.18  C 
BRANCH 27 28
ATOM     28  CB  ILE B   6      52.080  25.311  -5.669  1.00 57.25 LIG 0.01  C 
ATOM     29  CG2 ILE B   6      51.451  24.759  -6.935  1.00 56.12 LIG 0.01  C 
BRANCH 28 30
ATOM     30  CG1 ILE B   6      52.321  26.814  -5.828  1.00 57.80 LIG 0.00  C 
ATOM     31  CD1 ILE B   6      51.219  27.516  -6.586  1.00 58.80 LIG 0.01  C 
ENDBRANCH 28 30
ENDBRANCH 27 28
BRANCH 27 32
ATOM     32  C   ILE B   6      49.998  24.158  -4.875  1.00 59.33 LIG 0.24  C 
ATOM     33 O    ILE B   6      50.127  22.930  -4.906  1.00 59.66 LIG-0.27  OA
ATOM     34  N   PRO B   7      48.844  24.762  -5.201  1.00 60.44 LIG-0.34  N 
ATOM     35  CA  PRO B   7      47.647  24.029  -5.625  1.00 61.29 LIG 0.17  C 
ATOM     36  CD  PRO B   7      48.577  26.211  -5.162  1.00 60.37 LIG 0.13  C 
ATOM     37  CB  PRO B   7      46.721  25.143  -6.099  1.00 61.79 LIG 0.04  C 
ATOM     38  CG  PRO B   7      47.066  26.259  -5.170  1.00 60.72 LIG 0.02  C 
BRANCH 35 39
ATOM     39  C   PRO B   7      47.928  23.003  -6.723  1.00 62.02 LIG 0.22  C 
ATOM     40 O    PRO B   7      48.774  23.222  -7.586  1.00 61.64 LIG-0.29  OA
ENDBRANCH 35 39
ENDBRANCH 27 32
ENDBRANCH 24 27
ENDBRANCH 13 23
ENDBRANCH 11 13
ENDBRANCH 1 9
BRANCH 1 41
ATOM     41  N   PHE B   4      55.930  25.513   2.037  1.00 40.22 LIG-0.35  N 
ATOM     42 H    PHE B   4      55.693  25.775   2.821  1.00 40.22 LIG 0.16  HD
ATOM     43  C   ALA B   3      56.989  24.752   1.794  1.00 36.80 LIG 0.24  C 
ATOM     44 O    ALA B   3      57.299  24.383   0.664  1.00 35.05 LIG-0.27  OA
BRANCH 43 45
ATOM     45  CA  ALA B   3      57.817  24.337   3.003  1.00 35.42 LIG 0.17  C 
ATOM     46  CB  ALA B   3      57.008  23.411   3.893  1.00 34.55 LIG 0.04  C 
BRANCH 45 47
ATOM     47  N   ALA B   3      58.186  25.543   3.729  1.00 34.22 LIG-0.35  N 
ATOM     48  C   VAL B   2      59.094  26.382   3.244  1.00 33.55 LIG 0.24  C 
ATOM     49 O    VAL B   2      59.684  26.182   2.183  1.00 34.35 LIG-0.27  OA
ATOM     50 H    ALA B   3      57.773  25.655   4.475  1.00 34.22 LIG 0.16  HD
BRANCH 48 51
ATOM     51  CA  VAL B   2      59.380  27.627   4.079  1.00 33.22 LIG 0.18  C 
BRANCH 51 52
ATOM     52  CB  VAL B   2      58.612  28.822   3.464  1.00 32.52 LIG 0.01  C 
ATOM     53  CG1 VAL B   2      57.988  28.427   2.131  1.00 33.02 LIG 0.01  C 
ATOM     54  CG2 VAL B   2      57.535  29.295   4.431  1.00 33.85 LIG 0.01  C 
ENDBRANCH 51 52
BRANCH 51 55
ATOM     55  N   VAL B   2      60.808  27.915   4.151  1.00 33.13 LIG-0.35  N 
ATOM     56 H    VAL B   2      61.016  28.724   3.943  1.00 33.13 LIG 0.16  HD
ATOM     57  C   ALA B   1      61.694  26.994   4.508  1.00 33.26 LIG 0.25  C 
ATOM     58 O    ALA B   1      61.388  25.837   4.786  1.00 33.25 LIG-0.27  OA
BRANCH 57 59
ATOM     59  CA  ALA B   1      63.151  27.435   4.552  1.00 31.51 LIG 0.27  C 
ATOM     60  CB  ALA B   1      64.049  26.262   4.941  1.00 29.23 LIG 0.05  C 
BRANCH 59 61
ATOM     61  N   ALA B   1      63.267  28.502   5.535  1.00 32.32 LIG-0.07  N 
ATOM     62 H3   ALA B   1      63.670  29.204   5.165  1.00 32.32 LIG 0.28  HD
ATOM     63 H2   ALA B   1      63.746  28.217   6.228  1.00 32.32 LIG 0.28  HD
ATOM     64 H1   ALA B   1      62.455  28.739   5.812  1.00 32.32 LIG 0.28  HD
ENDBRANCH 59 61
ENDBRANCH 57 59
ENDBRANCH 51 55
ENDBRANCH 48 51
ENDBRANCH 45 47
ENDBRANCH 43 45
ENDBRANCH 1 41
TORSDOF 21
ENDMDL
MODEL 18
USER: ADFR SOLUTION from run 180
USER: SCORE 18.949741 LL:  -6.347 LR: -15.461 RR:   0.000 FEB:  -9.197
USER: RMSD 4.531283
USER: SEED 179
USER: STATUS no improvement in best in 3 clusters for 5 generations
USER: GENES 23
USER: genes 0 Translation |==|  0.52738 0.45147 0.62452
USER: genes 1 Rotation |==|  0.22532 0.39798 0.10251 0.57839
USER: genes 2 Torsion [C]-CA--CB-[CG] |==|  0.03756
USER: genes 3 Torsion [CA]-CB--CG-[CD1] |==|  0.24604
USER: genes 4 Torsion [N]-CA--C-[N] |==|  0.42691
USER: genes 5 Torsion [C]-N--CA-[CB] |==|  0.24001
USER: genes 6 Torsion [N]-CA--CB-[CG] |==|  0.51569
USER: genes 7 Torsion [CA]-CB--CG-[CD1] |==|  0.11621
USER: genes 8 Torsion [CE2]-CZ--OH-[HH] |==|  0.83705
USER: genes 9 Torsion [N]-CA--C-[N] |==|  0.44725
USER: genes 10 Torsion [C]-N--CA-[C] |==|  0.16217
USER: genes 11 Torsion [N]-CA--CB-[CG1] |==|  0.88142
USER: genes 12 Torsion [CA]-CB--CG1-[CD1] |==|  0.63796
USER: genes 13 Torsion [N]-CA--C-[N] |==|  0.21667
USER: genes 14 Torsion [N]-CA--C-[O] |==|  0.51816
USER: genes 15 Torsion [CB]-CA--N-[C] |==|  0.21414
USER: genes 16 Torsion [N]-C--CA-[N] |==|  0.37443
USER: genes 17 Torsion [C]-CA--N-[C] |==|  0.72238
USER: genes 18 Torsion [N]-C--CA-[N] |==|  0.95474
USER: genes 19 Torsion [C]-CA--CB-[CG1] |==|  0.60006
USER: genes 20 Torsion [C]-CA--N-[C] |==|  0.80663
USER: genes 21 Torsion [N]-C--CA-[N] |==|  0.13693
USER: genes 22 Torsion [C]-CA--N-[H3] |==|  0.17992
ROOT
ATOM      1  CA  PHE B   4      54.126  25.451  -0.856  1.00 44.68 LIG 0.18  C 
ENDROOT
BRANCH 1 2
ATOM      2  CB  PHE B   4      55.423  25.979  -1.476  1.00 43.52 LIG 0.07  C 
BRANCH 2 3
ATOM      3  CG  PHE B   4      55.417  25.955  -2.976  1.00 43.42 LIG-0.06  A 
ATOM      4  CD2 PHE B   4      55.852  24.829  -3.667  1.00 43.71 LIG 0.01  A 
ATOM      5  CE2 PHE B   4      55.798  24.779  -5.062  1.00 44.42 LIG 0.00  A 
ATOM      6  CZ  PHE B   4      55.305  25.873  -5.774  1.00 44.23 LIG 0.00  A 
ATOM      7  CE1 PHE B   4      54.871  27.003  -5.091  1.00 42.62 LIG 0.00  A 
ATOM      8  CD1 PHE B   4      54.929  27.039  -3.700  1.00 43.35 LIG 0.01  A 
ENDBRANCH 2 3
ENDBRANCH 1 2
BRANCH 1 9
ATOM      9  C   PHE B   4      53.278  24.726  -1.892  1.00 47.70 LIG 0.24  C 
ATOM     10 O    PHE B   4      53.341  23.503  -2.013  1.00 47.98 LIG-0.27  OA
ATOM     11  N   TYR B   5      52.498  25.495  -2.644  1.00 50.93 LIG-0.35  N 
ATOM     12 H    TYR B   5      52.446  26.349  -2.553  1.00 50.93 LIG 0.16  HD
BRANCH 11 13
ATOM     13  CA  TYR B   5      51.646  24.959  -3.702  1.00 53.91 LIG 0.18  C 
BRANCH 13 14
ATOM     14  CB  TYR B   5      50.292  24.511  -3.145  1.00 56.99 LIG 0.07  C 
BRANCH 14 15
ATOM     15  CG  TYR B   5      49.406  23.818  -4.166  1.00 60.80 LIG-0.06  A 
ATOM     16  CD2 TYR B   5      48.037  24.078  -4.222  1.00 62.97 LIG 0.01  A 
ATOM     17  CE2 TYR B   5      47.217  23.426  -5.146  1.00 63.70 LIG 0.04  A 
ATOM     18  CZ  TYR B   5      47.771  22.506  -6.024  1.00 64.21 LIG 0.07  A 
ATOM     19  CE1 TYR B   5      49.128  22.234  -5.990  1.00 63.24 LIG 0.04  A 
ATOM     20  CD1 TYR B   5      49.934  22.889  -5.068  1.00 61.93 LIG 0.01  A 
BRANCH 18 21
ATOM     21 OH   TYR B   5      46.969  21.845  -6.926  1.00 64.43 LIG-0.36  OA
ATOM     22 HH   TYR B   5      46.374  21.419  -6.512  1.00 64.43 LIG 0.22  HD
ENDBRANCH 18 21
ENDBRANCH 14 15
ENDBRANCH 13 14
BRANCH 13 23
ATOM     23  C   TYR B   5      51.424  26.045  -4.743  1.00 54.78 LIG 0.24  C 
ATOM     24  N   ILE B   6      51.015  25.638  -5.941  1.00 56.06 LIG-0.35  N 
ATOM     25 H    ILE B   6      50.879  24.814  -6.147  1.00 56.06 LIG 0.16  HD
ATOM     26 O    TYR B   5      51.614  27.228  -4.464  1.00 54.12 LIG-0.27  OA
BRANCH 24 27
ATOM     27  CA  ILE B   6      50.759  26.579  -7.026  1.00 57.79 LIG 0.18  C 
BRANCH 27 28
ATOM     28  CB  ILE B   6      49.596  27.538  -6.669  1.00 57.25 LIG 0.01  C 
ATOM     29  CG2 ILE B   6      49.074  28.225  -7.916  1.00 56.12 LIG 0.01  C 
BRANCH 28 30
ATOM     30  CG1 ILE B   6      48.466  26.749  -6.005  1.00 57.80 LIG 0.00  C 
ATOM     31  CD1 ILE B   6      47.111  27.024  -6.615  1.00 58.80 LIG 0.01  C 
ENDBRANCH 28 30
ENDBRANCH 27 28
BRANCH 27 32
ATOM     32  C   ILE B   6      52.009  27.397  -7.342  1.00 59.33 LIG 0.24  C 
ATOM     33 O    ILE B   6      52.129  28.558  -6.937  1.00 59.66 LIG-0.27  OA
ATOM     34  N   PRO B   7      52.964  26.794  -8.069  1.00 60.44 LIG-0.34  N 
ATOM     35  CA  PRO B   7      54.217  27.452  -8.451  1.00 61.29 LIG 0.17  C 
ATOM     36  CD  PRO B   7      52.934  25.408  -8.568  1.00 60.37 LIG 0.13  C 
ATOM     37  CB  PRO B   7      54.827  26.465  -9.439  1.00 61.79 LIG 0.04  C 
ATOM     38  CG  PRO B   7      54.390  25.150  -8.886  1.00 60.72 LIG 0.02  C 
BRANCH 35 39
ATOM     39  C   PRO B   7      54.007  28.834  -9.068  1.00 62.02 LIG 0.22  C 
ATOM     40 O    PRO B   7      54.950  29.459  -9.546  1.00 61.64 LIG-0.29  OA
ENDBRANCH 35 39
ENDBRANCH 27 32
ENDBRANCH 24 27
ENDBRANCH 13 23
ENDBRANCH 11 13
ENDBRANCH 1 9
BRANCH 1 41
ATOM     41  N   PHE B   4      54.433  24.572   0.259  1.00 40.22 LIG-0.35  N 
ATOM     42 H    PHE B   4      54.354  23.733   0.087  1.00 40.22 LIG 0.16  HD
ATOM     43  C   ALA B   3      54.803  25.059   1.437  1.00 36.80 LIG 0.24  C 
ATOM     44 O    ALA B   3      54.919  26.263   1.653  1.00 35.05 LIG-0.27  OA
BRANCH 43 45
ATOM     45  CA  ALA B   3      55.095  24.040   2.530  1.00 35.42 LIG 0.17  C 
ATOM     46  CB  ALA B   3      53.953  24.008   3.530  1.00 34.55 LIG 0.04  C 
BRANCH 45 47
ATOM     47  N   ALA B   3      56.333  24.431   3.189  1.00 34.22 LIG-0.35  N 
ATOM     48  C   VAL B   2      57.484  23.842   2.886  1.00 33.55 LIG 0.24  C 
ATOM     49 O    VAL B   2      57.568  22.931   2.063  1.00 34.35 LIG-0.27  OA
ATOM     50 H    ALA B   3      56.248  25.058   3.771  1.00 34.22 LIG 0.16  HD
BRANCH 48 51
ATOM     51  CA  VAL B   2      58.720  24.354   3.620  1.00 33.22 LIG 0.18  C 
BRANCH 51 52
ATOM     52  CB  VAL B   2      59.136  23.304   4.678  1.00 32.52 LIG 0.01  C 
ATOM     53  CG1 VAL B   2      59.670  23.990   5.929  1.00 33.02 LIG 0.01  C 
ATOM     54  CG2 VAL B   2      57.944  22.424   5.028  1.00 33.85 LIG 0.01  C 
ENDBRANCH 51 52
BRANCH 51 55
ATOM     55  N   VAL B   2      58.482  25.649   4.245  1.00 33.13 LIG-0.35  N 
ATOM     56 H    VAL B   2      58.456  25.627   5.105  1.00 33.13 LIG 0.16  HD
ATOM     57  C   ALA B   1      58.321  26.757   3.531  1.00 33.26 LIG 0.25  C 
ATOM     58 O    ALA B   1      58.344  26.775   2.303  1.00 33.25 LIG-0.27  OA
BRANCH 57 59
ATOM     59  CA  ALA B   1      58.092  28.042   4.315  1.00 31.51 LIG 0.27  C 
ATOM     60  CB  ALA B   1      58.180  29.252   3.387  1.00 29.23 LIG 0.05  C 
BRANCH 59 61
ATOM     61  N   ALA B   1      59.114  28.127   5.347  1.00 32.32 LIG-0.07  N 
ATOM     62 H3   ALA B   1      59.914  28.207   4.966  1.00 32.32 LIG 0.28  HD
ATOM     63 H2   ALA B   1      59.096  27.390   5.844  1.00 32.32 LIG 0.28  HD
ATOM     64 H1   ALA B   1      58.959  28.836   5.861  1.00 32.32 LIG 0.28  HD
ENDBRANCH 59 61
ENDBRANCH 57 59
ENDBRANCH 51 55
ENDBRANCH 48 51
ENDBRANCH 45 47
ENDBRANCH 43 45
ENDBRANCH 1 41
TORSDOF 21
ENDMDL
MODEL 19
USER: ADFR SOLUTION from run 93
USER: SCORE 18.095735 LL:  -5.563 LR: -15.440 RR:   0.000 FEB:  -9.176
USER: RMSD 4.664137
USER: SEED 92
USER: STATUS no improvement in best in 5 clusters for 5 generations
USER: GENES 23
USER: genes 0 Translation |==|  0.56692 0.43515 0.46721
USER: genes 1 Rotation |==|  0.68478 0.34653 0.62290 0.92095
USER: genes 2 Torsion [C]-CA--CB-[CG] |==|  0.78032
USER: genes 3 Torsion [CA]-CB--CG-[CD1] |==|  0.72182
USER: genes 4 Torsion [N]-CA--C-[N] |==|  0.60607
USER: genes 5 Torsion [C]-N--CA-[CB] |==|  0.87182
USER: genes 6 Torsion [N]-CA--CB-[CG] |==|  0.63291
USER: genes 7 Torsion [CA]-CB--CG-[CD1] |==|  0.13366
USER: genes 8 Torsion [CE2]-CZ--OH-[HH] |==|  0.93468
USER: genes 9 Torsion [N]-CA--C-[N] |==|  0.78872
USER: genes 10 Torsion [C]-N--CA-[C] |==|  0.13841
USER: genes 11 Torsion [N]-CA--CB-[CG1] |==|  0.89435
USER: genes 12 Torsion [CA]-CB--CG1-[CD1] |==|  0.45771
USER: genes 13 Torsion [N]-CA--C-[N] |==|  0.16080
USER: genes 14 Torsion [N]-CA--C-[O] |==|  0.45227
USER: genes 15 Torsion [CB]-CA--N-[C] |==|  0.20476
USER: genes 16 Torsion [N]-C--CA-[N] |==|  0.58802
USER: genes 17 Torsion [C]-CA--N-[C] |==|  0.56246
USER: genes 18 Torsion [N]-C--CA-[N] |==|  0.40749
USER: genes 19 Torsion [C]-CA--CB-[CG1] |==|  0.51248
USER: genes 20 Torsion [C]-CA--N-[C] |==|  0.80785
USER: genes 21 Torsion [N]-C--CA-[N] |==|  0.20990
USER: genes 22 Torsion [C]-CA--N-[H3] |==|  0.30819
ROOT
ATOM      1  CA  PHE B   4      55.045  25.182  -4.750  1.00 44.68 LIG 0.18  C 
ENDROOT
BRANCH 1 2
ATOM      2  CB  PHE B   4      53.909  24.160  -4.848  1.00 43.52 LIG 0.07  C 
BRANCH 2 3
ATOM      3  CG  PHE B   4      52.585  24.697  -4.390  1.00 43.42 LIG-0.06  A 
ATOM      4  CD2 PHE B   4      51.795  25.457  -5.246  1.00 43.71 LIG 0.01  A 
ATOM      5  CE2 PHE B   4      50.538  25.914  -4.843  1.00 44.42 LIG 0.00  A 
ATOM      6  CZ  PHE B   4      50.066  25.607  -3.567  1.00 44.23 LIG 0.00  A 
ATOM      7  CE1 PHE B   4      50.851  24.850  -2.705  1.00 42.62 LIG 0.00  A 
ATOM      8  CD1 PHE B   4      52.103  24.400  -3.119  1.00 43.35 LIG 0.01  A 
ENDBRANCH 2 3
ENDBRANCH 1 2
BRANCH 1 9
ATOM      9  C   PHE B   4      55.004  26.161  -5.915  1.00 47.70 LIG 0.24  C 
ATOM     10 O    PHE B   4      55.572  27.251  -5.842  1.00 47.98 LIG-0.27  OA
ATOM     11  N   TYR B   5      54.317  25.765  -6.981  1.00 50.93 LIG-0.35  N 
ATOM     12 H    TYR B   5      53.928  25.000  -7.036  1.00 50.93 LIG 0.16  HD
BRANCH 11 13
ATOM     13  CA  TYR B   5      54.157  26.599  -8.169  1.00 53.91 LIG 0.18  C 
BRANCH 13 14
ATOM     14  CB  TYR B   5      53.778  28.033  -7.789  1.00 56.99 LIG 0.07  C 
BRANCH 14 15
ATOM     15  CG  TYR B   5      52.607  28.590  -8.581  1.00 60.80 LIG-0.06  A 
ATOM     16  CD2 TYR B   5      52.670  29.860  -9.154  1.00 62.97 LIG 0.01  A 
ATOM     17  CE2 TYR B   5      51.587  30.383  -9.865  1.00 63.70 LIG 0.04  A 
ATOM     18  CZ  TYR B   5      50.431  29.629 -10.005  1.00 64.21 LIG 0.07  A 
ATOM     19  CE1 TYR B   5      50.347  28.365  -9.448  1.00 63.24 LIG 0.04  A 
ATOM     20  CD1 TYR B   5      51.430  27.854  -8.744  1.00 61.93 LIG 0.01  A 
BRANCH 18 21
ATOM     21 OH   TYR B   5      49.352  30.143 -10.688  1.00 64.43 LIG-0.36  OA
ATOM     22 HH   TYR B   5      49.391  30.982 -10.682  1.00 64.43 LIG 0.22  HD
ENDBRANCH 18 21
ENDBRANCH 14 15
ENDBRANCH 13 14
BRANCH 13 23
ATOM     23  C   TYR B   5      55.474  26.616  -8.931  1.00 54.78 LIG 0.24  C 
ATOM     24  N   ILE B   6      56.438  27.377  -8.423  1.00 56.06 LIG-0.35  N 
ATOM     25 H    ILE B   6      56.352  27.848  -7.708  1.00 56.06 LIG 0.16  HD
ATOM     26 O    TYR B   5      55.614  25.947  -9.954  1.00 54.12 LIG-0.27  OA
BRANCH 24 27
ATOM     27  CA  ILE B   6      57.751  27.476  -9.052  1.00 57.79 LIG 0.18  C 
BRANCH 27 28
ATOM     28  CB  ILE B   6      58.560  26.170  -8.861  1.00 57.25 LIG 0.01  C 
ATOM     29  CG2 ILE B   6      60.044  26.435  -9.037  1.00 56.12 LIG 0.01  C 
BRANCH 28 30
ATOM     30  CG1 ILE B   6      58.301  25.605  -7.463  1.00 57.80 LIG 0.00  C 
ATOM     31  CD1 ILE B   6      58.744  24.169  -7.311  1.00 58.80 LIG 0.01  C 
ENDBRANCH 28 30
ENDBRANCH 27 28
BRANCH 27 32
ATOM     32  C   ILE B   6      57.616  27.774 -10.544  1.00 59.33 LIG 0.24  C 
ATOM     33 O    ILE B   6      58.099  27.015 -11.390  1.00 59.66 LIG-0.27  OA
ATOM     34  N   PRO B   7      56.949  28.888 -10.885  1.00 60.44 LIG-0.34  N 
ATOM     35  CA  PRO B   7      56.740  29.304 -12.275  1.00 61.29 LIG 0.17  C 
ATOM     36  CD  PRO B   7      56.306  29.837  -9.959  1.00 60.37 LIG 0.13  C 
ATOM     37  CB  PRO B   7      56.162  30.706 -12.123  1.00 61.79 LIG 0.04  C 
ATOM     38  CG  PRO B   7      55.360  30.585 -10.870  1.00 60.72 LIG 0.02  C 
BRANCH 35 39
ATOM     39  C   PRO B   7      58.023  29.294 -13.105  1.00 62.02 LIG 0.22  C 
ATOM     40 O    PRO B   7      57.977  29.307 -14.333  1.00 61.64 LIG-0.29  OA
ENDBRANCH 35 39
ENDBRANCH 27 32
ENDBRANCH 24 27
ENDBRANCH 13 23
ENDBRANCH 11 13
ENDBRANCH 1 9
BRANCH 1 41
ATOM     41  N   PHE B   4      54.964  25.891  -3.483  1.00 40.22 LIG-0.35  N 
ATOM     42 H    PHE B   4      54.683  26.701  -3.543  1.00 40.22 LIG 0.16  HD
ATOM     43  C   ALA B   3      55.306  25.303  -2.344  1.00 36.80 LIG 0.24  C 
ATOM     44 O    ALA B   3      55.694  24.139  -2.285  1.00 35.05 LIG-0.27  OA
BRANCH 43 45
ATOM     45  CA  ALA B   3      55.182  26.147  -1.082  1.00 35.42 LIG 0.17  C 
ATOM     46  CB  ALA B   3      55.354  27.617  -1.421  1.00 34.55 LIG 0.04  C 
BRANCH 45 47
ATOM     47  N   ALA B   3      56.217  25.717  -0.153  1.00 34.22 LIG-0.35  N 
ATOM     48  C   VAL B   2      56.097  25.936   1.152  1.00 33.55 LIG 0.24  C 
ATOM     49 O    VAL B   2      55.134  26.525   1.642  1.00 34.35 LIG-0.27  OA
ATOM     50 H    ALA B   3      56.888  25.324  -0.518  1.00 34.22 LIG 0.16  HD
BRANCH 48 51
ATOM     51  CA  VAL B   2      57.231  25.418   2.032  1.00 33.22 LIG 0.18  C 
BRANCH 51 52
ATOM     52  CB  VAL B   2      56.886  23.978   2.486  1.00 32.52 LIG 0.01  C 
ATOM     53  CG1 VAL B   2      57.937  23.459   3.458  1.00 33.02 LIG 0.01  C 
ATOM     54  CG2 VAL B   2      55.510  23.959   3.137  1.00 33.85 LIG 0.01  C 
ENDBRANCH 51 52
BRANCH 51 55
ATOM     55  N   VAL B   2      57.459  26.280   3.186  1.00 33.13 LIG-0.35  N 
ATOM     56 H    VAL B   2      57.238  25.928   3.939  1.00 33.13 LIG 0.16  HD
ATOM     57  C   ALA B   1      57.965  27.501   3.062  1.00 33.26 LIG 0.25  C 
ATOM     58 O    ALA B   1      58.262  28.000   1.980  1.00 33.25 LIG-0.27  OA
BRANCH 57 59
ATOM     59  CA  ALA B   1      58.162  28.287   4.352  1.00 31.51 LIG 0.27  C 
ATOM     60  CB  ALA B   1      58.364  29.769   4.043  1.00 29.23 LIG 0.05  C 
BRANCH 59 61
ATOM     61  N   ALA B   1      59.333  27.752   5.029  1.00 32.32 LIG-0.07  N 
ATOM     62 H3   ALA B   1      59.989  28.353   5.008  1.00 32.32 LIG 0.28  HD
ATOM     63 H2   ALA B   1      59.600  27.009   4.620  1.00 32.32 LIG 0.28  HD
ATOM     64 H1   ALA B   1      59.128  27.568   5.875  1.00 32.32 LIG 0.28  HD
ENDBRANCH 59 61
ENDBRANCH 57 59
ENDBRANCH 51 55
ENDBRANCH 48 51
ENDBRANCH 45 47
ENDBRANCH 43 45
ENDBRANCH 1 41
TORSDOF 21
ENDMDL
MODEL 20
USER: ADFR SOLUTION from run 139
USER: SCORE 18.233229 LL:  -5.899 LR: -15.441 RR:   0.000 FEB:  -9.177
USER: RMSD 7.226355
USER: SEED 138
USER: STATUS no improvement in best in 1 clusters for 5 generations
USER: GENES 23
USER: genes 0 Translation |==|  0.58953 0.52132 0.70205
USER: genes 1 Rotation |==|  0.84764 0.74569 0.75785 0.54794
USER: genes 2 Torsion [C]-CA--CB-[CG] |==|  0.20225
USER: genes 3 Torsion [CA]-CB--CG-[CD1] |==|  0.60895
USER: genes 4 Torsion [N]-CA--C-[N] |==|  0.46108
USER: genes 5 Torsion [C]-N--CA-[CB] |==|  0.21736
USER: genes 6 Torsion [N]-CA--CB-[CG] |==|  0.74611
USER: genes 7 Torsion [CA]-CB--CG-[CD1] |==|  0.92847
USER: genes 8 Torsion [CE2]-CZ--OH-[HH] |==|  0.72244
USER: genes 9 Torsion [N]-CA--C-[N] |==|  0.05315
USER: genes 10 Torsion [C]-N--CA-[C] |==|  0.18304
USER: genes 11 Torsion [N]-CA--CB-[CG1] |==|  0.63748
USER: genes 12 Torsion [CA]-CB--CG1-[CD1] |==|  0.09258
USER: genes 13 Torsion [N]-CA--C-[N] |==|  0.37724
USER: genes 14 Torsion [N]-CA--C-[O] |==|  0.45803
USER: genes 15 Torsion [CB]-CA--N-[C] |==|  0.15993
USER: genes 16 Torsion [N]-C--CA-[N] |==|  0.27734
USER: genes 17 Torsion [C]-CA--N-[C] |==|  0.81507
USER: genes 18 Torsion [N]-C--CA-[N] |==|  0.39236
USER: genes 19 Torsion [C]-CA--CB-[CG1] |==|  0.49007
USER: genes 20 Torsion [C]-CA--N-[C] |==|  0.85555
USER: genes 21 Torsion [N]-C--CA-[N] |==|  0.35578
USER: genes 22 Torsion [C]-CA--N-[H3] |==|  0.94456
ROOT
ATOM      1  CA  PHE B   4      55.571  26.604   1.063  1.00 44.68 LIG 0.18  C 
ENDROOT
BRANCH 1 2
ATOM      2  CB  PHE B   4      56.529  26.173  -0.051  1.00 43.52 LIG 0.07  C 
BRANCH 2 3
ATOM      3  CG  PHE B   4      55.914  26.227  -1.419  1.00 43.42 LIG-0.06  A 
ATOM      4  CD2 PHE B   4      55.101  27.294  -1.787  1.00 43.71 LIG 0.01  A 
ATOM      5  CE2 PHE B   4      54.570  27.378  -3.076  1.00 44.42 LIG 0.00  A 
ATOM      6  CZ  PHE B   4      54.854  26.379  -4.007  1.00 44.23 LIG 0.00  A 
ATOM      7  CE1 PHE B   4      55.663  25.309  -3.647  1.00 42.62 LIG 0.00  A 
ATOM      8  CD1 PHE B   4      56.187  25.237  -2.358  1.00 43.35 LIG 0.01  A 
ENDBRANCH 2 3
ENDBRANCH 1 2
BRANCH 1 9
ATOM      9  C   PHE B   4      54.509  25.541   1.314  1.00 47.70 LIG 0.24  C 
ATOM     10 O    PHE B   4      54.539  24.850   2.331  1.00 47.98 LIG-0.27  OA
ATOM     11  N   TYR B   5      53.582  25.414   0.370  1.00 50.93 LIG-0.35  N 
ATOM     12 H    TYR B   5      53.556  25.904  -0.336  1.00 50.93 LIG 0.16  HD
BRANCH 11 13
ATOM     13  CA  TYR B   5      52.513  24.422   0.445  1.00 53.91 LIG 0.18  C 
BRANCH 13 14
ATOM     14  CB  TYR B   5      51.405  24.878   1.399  1.00 56.99 LIG 0.07  C 
BRANCH 14 15
ATOM     15  CG  TYR B   5      51.595  24.410   2.831  1.00 60.80 LIG-0.06  A 
ATOM     16  CD2 TYR B   5      51.054  25.127   3.898  1.00 62.97 LIG 0.01  A 
ATOM     17  CE2 TYR B   5      51.244  24.710   5.217  1.00 63.70 LIG 0.04  A 
ATOM     18  CZ  TYR B   5      51.983  23.562   5.473  1.00 64.21 LIG 0.07  A 
ATOM     19  CE1 TYR B   5      52.525  22.832   4.430  1.00 63.24 LIG 0.04  A 
ATOM     20  CD1 TYR B   5      52.329  23.256   3.122  1.00 61.93 LIG 0.01  A 
BRANCH 18 21
ATOM     21 OH   TYR B   5      52.192  23.153   6.770  1.00 64.43 LIG-0.36  OA
ATOM     22 HH   TYR B   5      52.958  23.389   7.019  1.00 64.43 LIG 0.22  HD
ENDBRANCH 18 21
ENDBRANCH 14 15
ENDBRANCH 13 14
BRANCH 13 23
ATOM     23  C   TYR B   5      51.928  24.234  -0.947  1.00 54.78 LIG 0.24  C 
ATOM     24  N   ILE B   6      52.685  24.637  -1.963  1.00 56.06 LIG-0.35  N 
ATOM     25 H    ILE B   6      53.463  24.991  -1.870  1.00 56.06 LIG 0.16  HD
ATOM     26 O    TYR B   5      50.816  23.728  -1.095  1.00 54.12 LIG-0.27  OA
BRANCH 24 27
ATOM     27  CA  ILE B   6      52.245  24.507  -3.348  1.00 57.79 LIG 0.18  C 
BRANCH 27 28
ATOM     28  CB  ILE B   6      51.882  23.038  -3.681  1.00 57.25 LIG 0.01  C 
ATOM     29  CG2 ILE B   6      50.380  22.886  -3.835  1.00 56.12 LIG 0.01  C 
BRANCH 28 30
ATOM     30  CG1 ILE B   6      52.577  22.619  -4.977  1.00 57.80 LIG 0.00  C 
ATOM     31  CD1 ILE B   6      53.927  23.271  -5.165  1.00 58.80 LIG 0.01  C 
ENDBRANCH 28 30
ENDBRANCH 27 28
BRANCH 27 32
ATOM     32  C   ILE B   6      51.036  25.400  -3.619  1.00 59.33 LIG 0.24  C 
ATOM     33 O    ILE B   6      50.101  25.467  -2.815  1.00 59.66 LIG-0.27  OA
ATOM     34  N   PRO B   7      51.045  26.106  -4.761  1.00 60.44 LIG-0.34  N 
ATOM     35  CA  PRO B   7      49.957  27.004  -5.158  1.00 61.29 LIG 0.17  C 
ATOM     36  CD  PRO B   7      52.123  26.124  -5.766  1.00 60.37 LIG 0.13  C 
ATOM     37  CB  PRO B   7      50.322  27.362  -6.593  1.00 61.79 LIG 0.04  C 
ATOM     38  CG  PRO B   7      51.813  27.382  -6.546  1.00 60.72 LIG 0.02  C 
BRANCH 35 39
ATOM     39  C   PRO B   7      48.576  26.358  -5.055  1.00 62.02 LIG 0.22  C 
ATOM     40 O    PRO B   7      47.557  27.044  -5.082  1.00 61.64 LIG-0.29  OA
ENDBRANCH 35 39
ENDBRANCH 27 32
ENDBRANCH 24 27
ENDBRANCH 13 23
ENDBRANCH 11 13
ENDBRANCH 1 9
BRANCH 1 41
ATOM     41  N   PHE B   4      56.317  26.878   2.279  1.00 40.22 LIG-0.35  N 
ATOM     42 H    PHE B   4      56.075  26.413   2.960  1.00 40.22 LIG 0.16  HD
ATOM     43  C   ALA B   3      57.288  27.782   2.300  1.00 36.80 LIG 0.24  C 
ATOM     44 O    ALA B   3      57.622  28.425   1.308  1.00 35.05 LIG-0.27  OA
BRANCH 43 45
ATOM     45  CA  ALA B   3      57.997  27.984   3.633  1.00 35.42 LIG 0.17  C 
ATOM     46  CB  ALA B   3      58.264  29.461   3.860  1.00 34.55 LIG 0.04  C 
BRANCH 45 47
ATOM     47  N   ALA B   3      59.249  27.243   3.592  1.00 34.22 LIG-0.35  N 
ATOM     48  C   VAL B   2      59.256  25.916   3.538  1.00 33.55 LIG 0.24  C 
ATOM     49 O    VAL B   2      58.225  25.245   3.544  1.00 34.35 LIG-0.27  OA
ATOM     50 H    ALA B   3      59.956  27.731   3.607  1.00 34.22 LIG 0.16  HD
BRANCH 48 51
ATOM     51  CA  VAL B   2      60.627  25.249   3.472  1.00 33.22 LIG 0.18  C 
BRANCH 51 52
ATOM     52  CB  VAL B   2      60.958  24.946   1.990  1.00 32.52 LIG 0.01  C 
ATOM     53  CG1 VAL B   2      62.358  24.358   1.865  1.00 33.02 LIG 0.01  C 
ATOM     54  CG2 VAL B   2      59.928  23.982   1.419  1.00 33.85 LIG 0.01  C 
ENDBRANCH 51 52
BRANCH 51 55
ATOM     55  N   VAL B   2      60.675  24.029   4.269  1.00 33.13 LIG-0.35  N 
ATOM     56 H    VAL B   2      60.963  23.339   3.843  1.00 33.13 LIG 0.16  HD
ATOM     57  C   ALA B   1      60.300  24.006   5.543  1.00 33.26 LIG 0.25  C 
ATOM     58 O    ALA B   1      59.873  24.992   6.137  1.00 33.25 LIG-0.27  OA
BRANCH 57 59
ATOM     59  CA  ALA B   1      60.414  22.666   6.259  1.00 31.51 LIG 0.27  C 
ATOM     60  CB  ALA B   1      59.025  22.115   6.576  1.00 29.23 LIG 0.05  C 
BRANCH 59 61
ATOM     61  N   ALA B   1      61.162  22.877   7.488  1.00 32.32 LIG-0.07  N 
ATOM     62 H3   ALA B   1      61.629  23.632   7.426  1.00 32.32 LIG 0.28  HD
ATOM     63 H2   ALA B   1      61.719  22.195   7.618  1.00 32.32 LIG 0.28  HD
ATOM     64 H1   ALA B   1      60.598  22.933   8.174  1.00 32.32 LIG 0.28  HD
ENDBRANCH 59 61
ENDBRANCH 57 59
ENDBRANCH 51 55
ENDBRANCH 48 51
ENDBRANCH 45 47
ENDBRANCH 43 45
ENDBRANCH 1 41
TORSDOF 21
ENDMDL
MODEL 21
USER: ADFR SOLUTION from run 75
USER: SCORE 19.904299 LL:  -6.157 LR: -15.391 RR:   0.000 FEB:  -9.127
USER: RMSD 7.415927
USER: SEED 74
USER: STATUS 1 or 2 clusters left
USER: GENES 23
USER: genes 0 Translation |==|  0.58047 0.52084 0.69313
USER: genes 1 Rotation |==|  0.24567 0.19189 0.23087 0.63401
USER: genes 2 Torsion [C]-CA--CB-[CG] |==|  0.12414
USER: genes 3 Torsion [CA]-CB--CG-[CD1] |==|  0.77518
USER: genes 4 Torsion [N]-CA--C-[N] |==|  0.35612
USER: genes 5 Torsion [C]-N--CA-[CB] |==|  0.24937
USER: genes 6 Torsion [N]-CA--CB-[CG] |==|  0.08229
USER: genes 7 Torsion [CA]-CB--CG-[CD1] |==|  0.09525
USER: genes 8 Torsion [CE2]-CZ--OH-[HH] |==|  0.12845
USER: genes 9 Torsion [N]-CA--C-[N] |==|  0.03935
USER: genes 10 Torsion [C]-N--CA-[C] |==|  0.57820
USER: genes 11 Torsion [N]-CA--CB-[CG1] |==|  0.05751
USER: genes 12 Torsion [CA]-CB--CG1-[CD1] |==|  0.56172
USER: genes 13 Torsion [N]-CA--C-[N] |==|  0.28512
USER: genes 14 Torsion [N]-CA--C-[O] |==|  0.21675
USER: genes 15 Torsion [CB]-CA--N-[C] |==|  0.87221
USER: genes 16 Torsion [N]-C--CA-[N] |==|  0.42195
USER: genes 17 Torsion [C]-CA--N-[C] |==|  0.81153
USER: genes 18 Torsion [N]-C--CA-[N] |==|  0.08053
USER: genes 19 Torsion [C]-CA--CB-[CG1] |==|  0.33738
USER: genes 20 Torsion [C]-CA--N-[C] |==|  0.71486
USER: genes 21 Torsion [N]-C--CA-[N] |==|  0.78931
USER: genes 22 Torsion [C]-CA--N-[H3] |==|  0.77248
ROOT
ATOM      1  CA  PHE B   4      55.360  26.596   0.842  1.00 44.68 LIG 0.18  C 
ENDROOT
BRANCH 1 2
ATOM      2  CB  PHE B   4      56.014  27.283  -0.361  1.00 43.52 LIG 0.07  C 
BRANCH 2 3
ATOM      3  CG  PHE B   4      55.559  26.731  -1.680  1.00 43.42 LIG-0.06  A 
ATOM      4  CD2 PHE B   4      54.614  27.410  -2.442  1.00 43.71 LIG 0.01  A 
ATOM      5  CE2 PHE B   4      54.227  26.930  -3.696  1.00 44.42 LIG 0.00  A 
ATOM      6  CZ  PHE B   4      54.790  25.754  -4.190  1.00 44.23 LIG 0.00  A 
ATOM      7  CE1 PHE B   4      55.733  25.069  -3.433  1.00 42.62 LIG 0.00  A 
ATOM      8  CD1 PHE B   4      56.111  25.559  -2.185  1.00 43.35 LIG 0.01  A 
ENDBRANCH 2 3
ENDBRANCH 1 2
BRANCH 1 9
ATOM      9  C   PHE B   4      55.350  25.083   0.670  1.00 47.70 LIG 0.24  C 
ATOM     10 O    PHE B   4      56.395  24.436   0.726  1.00 47.98 LIG-0.27  OA
ATOM     11  N   TYR B   5      54.161  24.533   0.449  1.00 50.93 LIG-0.35  N 
ATOM     12 H    TYR B   5      53.429  24.984   0.420  1.00 50.93 LIG 0.16  HD
BRANCH 11 13
ATOM     13  CA  TYR B   5      53.984  23.099   0.234  1.00 53.91 LIG 0.18  C 
BRANCH 13 14
ATOM     14  CB  TYR B   5      53.748  22.369   1.559  1.00 56.99 LIG 0.07  C 
BRANCH 14 15
ATOM     15  CG  TYR B   5      53.063  23.217   2.616  1.00 60.80 LIG-0.06  A 
ATOM     16  CD2 TYR B   5      53.360  23.056   3.969  1.00 62.97 LIG 0.01  A 
ATOM     17  CE2 TYR B   5      52.717  23.820   4.945  1.00 63.70 LIG 0.04  A 
ATOM     18  CZ  TYR B   5      51.765  24.756   4.564  1.00 64.21 LIG 0.07  A 
ATOM     19  CE1 TYR B   5      51.457  24.937   3.227  1.00 63.24 LIG 0.04  A 
ATOM     20  CD1 TYR B   5      52.104  24.172   2.265  1.00 61.93 LIG 0.01  A 
BRANCH 18 21
ATOM     21 OH   TYR B   5      51.112  25.502   5.519  1.00 64.43 LIG-0.36  OA
ATOM     22 HH   TYR B   5      51.670  25.798   6.073  1.00 64.43 LIG 0.22  HD
ENDBRANCH 18 21
ENDBRANCH 14 15
ENDBRANCH 13 14
BRANCH 13 23
ATOM     23  C   TYR B   5      52.780  22.890  -0.673  1.00 54.78 LIG 0.24  C 
ATOM     24  N   ILE B   6      52.328  23.967  -1.309  1.00 56.06 LIG-0.35  N 
ATOM     25 H    ILE B   6      52.673  24.751  -1.230  1.00 56.06 LIG 0.16  HD
ATOM     26 O    TYR B   5      52.275  21.775  -0.796  1.00 54.12 LIG-0.27  OA
BRANCH 24 27
ATOM     27  CA  ILE B   6      51.184  23.902  -2.213  1.00 57.79 LIG 0.18  C 
BRANCH 27 28
ATOM     28  CB  ILE B   6      49.853  24.068  -1.439  1.00 57.25 LIG 0.01  C 
ATOM     29  CG2 ILE B   6      49.204  22.716  -1.205  1.00 56.12 LIG 0.01  C 
BRANCH 28 30
ATOM     30  CG1 ILE B   6      50.122  24.747  -0.095  1.00 57.80 LIG 0.00  C 
ATOM     31  CD1 ILE B   6      49.044  24.484   0.931  1.00 58.80 LIG 0.01  C 
ENDBRANCH 28 30
ENDBRANCH 27 28
BRANCH 27 32
ATOM     32  C   ILE B   6      51.281  24.980  -3.290  1.00 59.33 LIG 0.24  C 
ATOM     33 O    ILE B   6      51.008  26.158  -3.036  1.00 59.66 LIG-0.27  OA
ATOM     34  N   PRO B   7      51.679  24.588  -4.511  1.00 60.44 LIG-0.34  N 
ATOM     35  CA  PRO B   7      51.819  25.508  -5.643  1.00 61.29 LIG 0.17  C 
ATOM     36  CD  PRO B   7      52.061  23.220  -4.905  1.00 60.37 LIG 0.13  C 
ATOM     37  CB  PRO B   7      52.051  24.565  -6.816  1.00 61.79 LIG 0.04  C 
ATOM     38  CG  PRO B   7      52.828  23.458  -6.186  1.00 60.72 LIG 0.02  C 
BRANCH 35 39
ATOM     39  C   PRO B   7      50.593  26.398  -5.849  1.00 62.02 LIG 0.22  C 
ATOM     40 O    PRO B   7      50.402  27.379  -5.135  1.00 61.64 LIG-0.29  OA
ENDBRANCH 35 39
ENDBRANCH 27 32
ENDBRANCH 24 27
ENDBRANCH 13 23
ENDBRANCH 11 13
ENDBRANCH 1 9
BRANCH 1 41
ATOM     41  N   PHE B   4      56.056  26.967   2.062  1.00 40.22 LIG-0.35  N 
ATOM     42 H    PHE B   4      55.542  27.189   2.715  1.00 40.22 LIG 0.16  HD
ATOM     43  C   ALA B   3      57.381  26.954   2.129  1.00 36.80 LIG 0.24  C 
ATOM     44 O    ALA B   3      58.092  26.621   1.184  1.00 35.05 LIG-0.27  OA
BRANCH 43 45
ATOM     45  CA  ALA B   3      57.997  27.366   3.459  1.00 35.42 LIG 0.17  C 
ATOM     46  CB  ALA B   3      58.190  28.871   3.499  1.00 34.55 LIG 0.04  C 
BRANCH 45 47
ATOM     47  N   ALA B   3      59.280  26.689   3.589  1.00 34.22 LIG-0.35  N 
ATOM     48  C   VAL B   2      59.343  25.371   3.740  1.00 33.55 LIG 0.24  C 
ATOM     49 O    VAL B   2      58.341  24.659   3.804  1.00 34.35 LIG-0.27  OA
ATOM     50 H    ALA B   3      59.965  27.207   3.558  1.00 34.22 LIG 0.16  HD
BRANCH 48 51
ATOM     51  CA  VAL B   2      60.742  24.767   3.838  1.00 33.22 LIG 0.18  C 
BRANCH 51 52
ATOM     52  CB  VAL B   2      60.665  23.478   4.690  1.00 32.52 LIG 0.01  C 
ATOM     53  CG1 VAL B   2      61.160  22.279   3.891  1.00 33.02 LIG 0.01  C 
ATOM     54  CG2 VAL B   2      61.495  23.646   5.956  1.00 33.85 LIG 0.01  C 
ENDBRANCH 51 52
BRANCH 51 55
ATOM     55  N   VAL B   2      61.699  25.707   4.411  1.00 33.13 LIG-0.35  N 
ATOM     56 H    VAL B   2      61.644  25.790   5.266  1.00 33.13 LIG 0.16  HD
ATOM     57  C   ALA B   1      62.572  26.368   3.660  1.00 33.26 LIG 0.25  C 
ATOM     58 O    ALA B   1      62.630  26.254   2.439  1.00 33.25 LIG-0.27  OA
BRANCH 57 59
ATOM     59  CA  ALA B   1      63.521  27.308   4.391  1.00 31.51 LIG 0.27  C 
ATOM     60  CB  ALA B   1      64.079  26.630   5.641  1.00 29.23 LIG 0.05  C 
BRANCH 59 61
ATOM     61  N   ALA B   1      62.776  28.502   4.758  1.00 32.32 LIG-0.07  N 
ATOM     62 H3   ALA B   1      62.735  29.053   4.061  1.00 32.32 LIG 0.28  HD
ATOM     63 H2   ALA B   1      63.184  28.911   5.435  1.00 32.32 LIG 0.28  HD
ATOM     64 H1   ALA B   1      61.952  28.274   5.004  1.00 32.32 LIG 0.28  HD
ENDBRANCH 59 61
ENDBRANCH 57 59
ENDBRANCH 51 55
ENDBRANCH 48 51
ENDBRANCH 45 47
ENDBRANCH 43 45
ENDBRANCH 1 41
TORSDOF 21
ENDMDL
MODEL 22
USER: ADFR SOLUTION from run 93
USER: SCORE 18.046942 LL:  -5.243 LR: -15.359 RR:   0.000 FEB:  -9.094
USER: RMSD 5.024170
USER: SEED 92
USER: STATUS no improvement in best in 5 clusters for 5 generations
USER: GENES 23
USER: genes 0 Translation |==|  0.58276 0.44456 0.46541
USER: genes 1 Rotation |==|  0.75611 0.45587 0.75767 0.84069
USER: genes 2 Torsion [C]-CA--CB-[CG] |==|  0.35518
USER: genes 3 Torsion [CA]-CB--CG-[CD1] |==|  0.33204
USER: genes 4 Torsion [N]-CA--C-[N] |==|  0.41278
USER: genes 5 Torsion [C]-N--CA-[CB] |==|  0.17450
USER: genes 6 Torsion [N]-CA--CB-[CG] |==|  0.63085
USER: genes 7 Torsion [CA]-CB--CG-[CD1] |==|  0.69901
USER: genes 8 Torsion [CE2]-CZ--OH-[HH] |==|  0.31999
USER: genes 9 Torsion [N]-CA--C-[N] |==|  0.82330
USER: genes 10 Torsion [C]-N--CA-[C] |==|  0.15603
USER: genes 11 Torsion [N]-CA--CB-[CG1] |==|  0.88332
USER: genes 12 Torsion [CA]-CB--CG1-[CD1] |==|  0.36706
USER: genes 13 Torsion [N]-CA--C-[N] |==|  0.15424
USER: genes 14 Torsion [N]-CA--C-[O] |==|  0.43695
USER: genes 15 Torsion [CB]-CA--N-[C] |==|  0.18378
USER: genes 16 Torsion [N]-C--CA-[N] |==|  0.52717
USER: genes 17 Torsion [C]-CA--N-[C] |==|  0.52874
USER: genes 18 Torsion [N]-C--CA-[N] |==|  0.38869
USER: genes 19 Torsion [C]-CA--CB-[CG1] |==|  0.54143
USER: genes 20 Torsion [C]-CA--N-[C] |==|  0.78605
USER: genes 21 Torsion [N]-C--CA-[N] |==|  0.20214
USER: genes 22 Torsion [C]-CA--N-[H3] |==|  0.50852
ROOT
ATOM      1  CA  PHE B   4      55.413  25.337  -4.794  1.00 44.68 LIG 0.18  C 
ENDROOT
BRANCH 1 2
ATOM      2  CB  PHE B   4      55.346  23.812  -4.920  1.00 43.52 LIG 0.07  C 
BRANCH 2 3
ATOM      3  CG  PHE B   4      56.694  23.168  -5.056  1.00 43.42 LIG-0.06  A 
ATOM      4  CD2 PHE B   4      57.544  23.520  -6.099  1.00 43.71 LIG 0.01  A 
ATOM      5  CE2 PHE B   4      58.822  22.964  -6.200  1.00 44.42 LIG 0.00  A 
ATOM      6  CZ  PHE B   4      59.252  22.041  -5.247  1.00 44.23 LIG 0.00  A 
ATOM      7  CE1 PHE B   4      58.407  21.681  -4.204  1.00 42.62 LIG 0.00  A 
ATOM      8  CD1 PHE B   4      57.136  22.244  -4.114  1.00 43.35 LIG 0.01  A 
ENDBRANCH 2 3
ENDBRANCH 1 2
BRANCH 1 9
ATOM      9  C   PHE B   4      54.500  26.012  -5.809  1.00 47.70 LIG 0.24  C 
ATOM     10 O    PHE B   4      53.331  26.273  -5.528  1.00 47.98 LIG-0.27  OA
ATOM     11  N   TYR B   5      55.044  26.277  -6.991  1.00 50.93 LIG-0.35  N 
ATOM     12 H    TYR B   5      55.864  26.103  -7.185  1.00 50.93 LIG 0.16  HD
BRANCH 11 13
ATOM     13  CA  TYR B   5      54.295  26.894  -8.083  1.00 53.91 LIG 0.18  C 
BRANCH 13 14
ATOM     14  CB  TYR B   5      53.823  28.300  -7.701  1.00 56.99 LIG 0.07  C 
BRANCH 14 15
ATOM     15  CG  TYR B   5      52.363  28.567  -8.024  1.00 60.80 LIG-0.06  A 
ATOM     16  CD2 TYR B   5      51.344  27.954  -7.297  1.00 62.97 LIG 0.01  A 
ATOM     17  CE2 TYR B   5      50.000  28.181  -7.604  1.00 63.70 LIG 0.04  A 
ATOM     18  CZ  TYR B   5      49.673  29.032  -8.651  1.00 64.21 LIG 0.07  A 
ATOM     19  CE1 TYR B   5      50.667  29.655  -9.384  1.00 63.24 LIG 0.04  A 
ATOM     20  CD1 TYR B   5      51.999  29.422  -9.068  1.00 61.93 LIG 0.01  A 
BRANCH 18 21
ATOM     21 OH   TYR B   5      48.353  29.249  -8.974  1.00 64.43 LIG-0.36  OA
ATOM     22 HH   TYR B   5      48.157  30.054  -8.832  1.00 64.43 LIG 0.22  HD
ENDBRANCH 18 21
ENDBRANCH 14 15
ENDBRANCH 13 14
BRANCH 13 23
ATOM     23  C   TYR B   5      55.200  26.984  -9.302  1.00 54.78 LIG 0.24  C 
ATOM     24  N   ILE B   6      56.275  27.758  -9.181  1.00 56.06 LIG-0.35  N 
ATOM     25 H    ILE B   6      56.471  28.199  -8.469  1.00 56.06 LIG 0.16  HD
ATOM     26 O    TYR B   5      54.933  26.361 -10.328  1.00 54.12 LIG-0.27  OA
BRANCH 24 27
ATOM     27  CA  ILE B   6      57.227  27.927 -10.273  1.00 57.79 LIG 0.18  C 
BRANCH 27 28
ATOM     28  CB  ILE B   6      57.955  26.596 -10.587  1.00 57.25 LIG 0.01  C 
ATOM     29  CG2 ILE B   6      59.208  26.857 -11.403  1.00 56.12 LIG 0.01  C 
BRANCH 28 30
ATOM     30  CG1 ILE B   6      58.330  25.895  -9.279  1.00 57.80 LIG 0.00  C 
ATOM     31  CD1 ILE B   6      57.955  24.432  -9.261  1.00 58.80 LIG 0.01  C 
ENDBRANCH 28 30
ENDBRANCH 27 28
BRANCH 27 32
ATOM     32  C   ILE B   6      56.526  28.428 -11.533  1.00 59.33 LIG 0.24  C 
ATOM     33 O    ILE B   6      56.612  27.808 -12.598  1.00 59.66 LIG-0.27  OA
ATOM     34  N   PRO B   7      55.813  29.561 -11.425  1.00 60.44 LIG-0.34  N 
ATOM     35  CA  PRO B   7      55.087  30.163 -12.546  1.00 61.29 LIG 0.17  C 
ATOM     36  CD  PRO B   7      55.619  30.353 -10.197  1.00 60.37 LIG 0.13  C 
ATOM     37  CB  PRO B   7      54.661  31.514 -11.984  1.00 61.79 LIG 0.04  C 
ATOM     38  CG  PRO B   7      54.414  31.197 -10.547  1.00 60.72 LIG 0.02  C 
BRANCH 35 39
ATOM     39  C   PRO B   7      55.938  30.303 -13.808  1.00 62.02 LIG 0.22  C 
ATOM     40 O    PRO B   7      55.412  30.388 -14.915  1.00 61.64 LIG-0.29  OA
ENDBRANCH 35 39
ENDBRANCH 27 32
ENDBRANCH 24 27
ENDBRANCH 13 23
ENDBRANCH 11 13
ENDBRANCH 1 9
BRANCH 1 41
ATOM     41  N   PHE B   4      55.060  25.738  -3.443  1.00 40.22 LIG-0.35  N 
ATOM     42 H    PHE B   4      54.328  26.186  -3.381  1.00 40.22 LIG 0.16  HD
ATOM     43  C   ALA B   3      55.828  25.421  -2.409  1.00 36.80 LIG 0.24  C 
ATOM     44 O    ALA B   3      56.863  24.769  -2.523  1.00 35.05 LIG-0.27  OA
BRANCH 43 45
ATOM     45  CA  ALA B   3      55.357  25.899  -1.041  1.00 35.42 LIG 0.17  C 
ATOM     46  CB  ALA B   3      55.017  27.377  -1.097  1.00 34.55 LIG 0.04  C 
BRANCH 45 47
ATOM     47  N   ALA B   3      56.432  25.662  -0.089  1.00 34.22 LIG-0.35  N 
ATOM     48  C   VAL B   2      56.228  25.793   1.217  1.00 33.55 LIG 0.24  C 
ATOM     49 O    VAL B   2      55.146  26.140   1.690  1.00 34.35 LIG-0.27  OA
ATOM     50 H    ALA B   3      57.182  25.437  -0.442  1.00 34.22 LIG 0.16  HD
BRANCH 48 51
ATOM     51  CA  VAL B   2      57.420  25.493   2.122  1.00 33.22 LIG 0.18  C 
BRANCH 51 52
ATOM     52  CB  VAL B   2      57.288  24.043   2.648  1.00 32.52 LIG 0.01  C 
ATOM     53  CG1 VAL B   2      58.230  23.815   3.824  1.00 33.02 LIG 0.01  C 
ATOM     54  CG2 VAL B   2      55.849  23.776   3.066  1.00 33.85 LIG 0.01  C 
ENDBRANCH 51 52
BRANCH 51 55
ATOM     55  N   VAL B   2      57.511  26.437   3.230  1.00 33.13 LIG-0.35  N 
ATOM     56 H    VAL B   2      57.238  26.124   3.983  1.00 33.13 LIG 0.16  HD
ATOM     57  C   ALA B   1      57.979  27.669   3.068  1.00 33.26 LIG 0.25  C 
ATOM     58 O    ALA B   1      58.351  28.110   1.984  1.00 33.25 LIG-0.27  OA
BRANCH 57 59
ATOM     59  CA  ALA B   1      58.030  28.544   4.313  1.00 31.51 LIG 0.27  C 
ATOM     60  CB  ALA B   1      58.270  30.002   3.927  1.00 29.23 LIG 0.05  C 
BRANCH 59 61
ATOM     61  N   ALA B   1      59.114  28.063   5.155  1.00 32.32 LIG-0.07  N 
ATOM     62 H3   ALA B   1      59.134  28.533   5.911  1.00 32.32 LIG 0.28  HD
ATOM     63 H2   ALA B   1      59.888  28.159   4.727  1.00 32.32 LIG 0.28  HD
ATOM     64 H1   ALA B   1      58.984  27.204   5.345  1.00 32.32 LIG 0.28  HD
ENDBRANCH 59 61
ENDBRANCH 57 59
ENDBRANCH 51 55
ENDBRANCH 48 51
ENDBRANCH 45 47
ENDBRANCH 43 45
ENDBRANCH 1 41
TORSDOF 21
ENDMDL
MODEL 23
USER: ADFR SOLUTION from run 177
USER: SCORE 18.128123 LL:  -6.494 LR: -15.315 RR:   0.000 FEB:  -9.051
USER: RMSD 5.828955
USER: SEED 176
USER: STATUS no improvement in best in 11 clusters for 5 generations
USER: GENES 23
USER: genes 0 Translation |==|  0.55404 0.41590 0.62269
USER: genes 1 Rotation |==|  0.17708 0.37614 0.13893 0.50334
USER: genes 2 Torsion [C]-CA--CB-[CG] |==|  0.14171
USER: genes 3 Torsion [CA]-CB--CG-[CD1] |==|  0.63890
USER: genes 4 Torsion [N]-CA--C-[N] |==|  0.27988
USER: genes 5 Torsion [C]-N--CA-[CB] |==|  0.43084
USER: genes 6 Torsion [N]-CA--CB-[CG] |==|  0.87713
USER: genes 7 Torsion [CA]-CB--CG-[CD1] |==|  0.74592
USER: genes 8 Torsion [CE2]-CZ--OH-[HH] |==|  0.83231
USER: genes 9 Torsion [N]-CA--C-[N] |==|  0.67878
USER: genes 10 Torsion [C]-N--CA-[C] |==|  0.84165
USER: genes 11 Torsion [N]-CA--CB-[CG1] |==|  0.80328
USER: genes 12 Torsion [CA]-CB--CG1-[CD1] |==|  0.92201
USER: genes 13 Torsion [N]-CA--C-[N] |==|  0.38090
USER: genes 14 Torsion [N]-CA--C-[O] |==|  0.82028
USER: genes 15 Torsion [CB]-CA--N-[C] |==|  0.41280
USER: genes 16 Torsion [N]-C--CA-[N] |==|  0.20425
USER: genes 17 Torsion [C]-CA--N-[C] |==|  0.77054
USER: genes 18 Torsion [N]-C--CA-[N] |==|  0.97815
USER: genes 19 Torsion [C]-CA--CB-[CG1] |==|  0.89602
USER: genes 20 Torsion [C]-CA--N-[C] |==|  0.76402
USER: genes 21 Torsion [N]-C--CA-[N] |==|  0.14023
USER: genes 22 Torsion [C]-CA--N-[H3] |==|  0.48774
ROOT
ATOM      1  CA  PHE B   4      54.745  24.864  -0.901  1.00 44.68 LIG 0.18  C 
ENDROOT
BRANCH 1 2
ATOM      2  CB  PHE B   4      55.978  24.895  -1.810  1.00 43.52 LIG 0.07  C 
BRANCH 2 3
ATOM      3  CG  PHE B   4      55.675  25.351  -3.207  1.00 43.42 LIG-0.06  A 
ATOM      4  CD2 PHE B   4      54.997  26.545  -3.430  1.00 43.71 LIG 0.01  A 
ATOM      5  CE2 PHE B   4      54.760  27.002  -4.728  1.00 44.42 LIG 0.00  A 
ATOM      6  CZ  PHE B   4      55.206  26.253  -5.817  1.00 44.23 LIG 0.00  A 
ATOM      7  CE1 PHE B   4      55.883  25.058  -5.603  1.00 42.62 LIG 0.00  A 
ATOM      8  CD1 PHE B   4      56.113  24.614  -4.302  1.00 43.35 LIG 0.01  A 
ENDBRANCH 2 3
ENDBRANCH 1 2
BRANCH 1 9
ATOM      9  C   PHE B   4      53.603  24.096  -1.553  1.00 47.70 LIG 0.24  C 
ATOM     10 O    PHE B   4      53.815  23.040  -2.148  1.00 47.98 LIG-0.27  OA
ATOM     11  N   TYR B   5      52.399  24.646  -1.444  1.00 50.93 LIG-0.35  N 
ATOM     12 H    TYR B   5      52.250  25.379  -1.020  1.00 50.93 LIG 0.16  HD
BRANCH 11 13
ATOM     13  CA  TYR B   5      51.205  24.051  -2.038  1.00 53.91 LIG 0.18  C 
BRANCH 13 14
ATOM     14  CB  TYR B   5      49.942  24.490  -1.292  1.00 56.99 LIG 0.07  C 
BRANCH 14 15
ATOM     15  CG  TYR B   5      50.075  24.449   0.221  1.00 60.80 LIG-0.06  A 
ATOM     16  CD2 TYR B   5      50.572  25.544   0.927  1.00 62.97 LIG 0.01  A 
ATOM     17  CE2 TYR B   5      50.715  25.501   2.315  1.00 63.70 LIG 0.04  A 
ATOM     18  CZ  TYR B   5      50.356  24.352   3.006  1.00 64.21 LIG 0.07  A 
ATOM     19  CE1 TYR B   5      49.857  23.254   2.327  1.00 63.24 LIG 0.04  A 
ATOM     20  CD1 TYR B   5      49.718  23.308   0.946  1.00 61.93 LIG 0.01  A 
BRANCH 18 21
ATOM     21 OH   TYR B   5      50.510  24.293   4.372  1.00 64.43 LIG-0.36  OA
ATOM     22 HH   TYR B   5      51.321  24.398   4.568  1.00 64.43 LIG 0.22  HD
ENDBRANCH 18 21
ENDBRANCH 14 15
ENDBRANCH 13 14
BRANCH 13 23
ATOM     23  C   TYR B   5      51.110  24.499  -3.488  1.00 54.78 LIG 0.24  C 
ATOM     24  N   ILE B   6      50.063  25.255  -3.804  1.00 56.06 LIG-0.35  N 
ATOM     25 H    ILE B   6      49.455  25.491  -3.243  1.00 56.06 LIG 0.16  HD
ATOM     26 O    TYR B   5      51.972  24.172  -4.303  1.00 54.12 LIG-0.27  OA
BRANCH 24 27
ATOM     27  CA  ILE B   6      49.858  25.757  -5.158  1.00 57.79 LIG 0.18  C 
BRANCH 27 28
ATOM     28  CB  ILE B   6      48.583  26.633  -5.240  1.00 57.25 LIG 0.01  C 
ATOM     29  CG2 ILE B   6      48.535  27.377  -6.562  1.00 56.12 LIG 0.01  C 
BRANCH 28 30
ATOM     30  CG1 ILE B   6      47.343  25.748  -5.102  1.00 57.80 LIG 0.00  C 
ATOM     31  CD1 ILE B   6      47.563  24.335  -5.590  1.00 58.80 LIG 0.01  C 
ENDBRANCH 28 30
ENDBRANCH 27 28
BRANCH 27 32
ATOM     32  C   ILE B   6      51.062  26.572  -5.624  1.00 59.33 LIG 0.24  C 
ATOM     33 O    ILE B   6      51.615  27.377  -4.868  1.00 59.66 LIG-0.27  OA
ATOM     34  N   PRO B   7      51.488  26.367  -6.881  1.00 60.44 LIG-0.34  N 
ATOM     35  CA  PRO B   7      52.629  27.075  -7.467  1.00 61.29 LIG 0.17  C 
ATOM     36  CD  PRO B   7      50.922  25.408  -7.846  1.00 60.37 LIG 0.13  C 
ATOM     37  CB  PRO B   7      52.552  26.679  -8.936  1.00 61.79 LIG 0.04  C 
ATOM     38  CG  PRO B   7      52.035  25.282  -8.862  1.00 60.72 LIG 0.02  C 
BRANCH 35 39
ATOM     39  C   PRO B   7      52.563  28.590  -7.271  1.00 62.02 LIG 0.22  C 
ATOM     40 O    PRO B   7      51.669  29.252  -7.792  1.00 61.64 LIG-0.29  OA
ENDBRANCH 35 39
ENDBRANCH 27 32
ENDBRANCH 24 27
ENDBRANCH 13 23
ENDBRANCH 11 13
ENDBRANCH 1 9
BRANCH 1 41
ATOM     41  N   PHE B   4      55.091  24.276   0.382  1.00 40.22 LIG-0.35  N 
ATOM     42 H    PHE B   4      55.709  23.679   0.347  1.00 40.22 LIG 0.16  HD
ATOM     43  C   ALA B   3      54.482  24.654   1.498  1.00 36.80 LIG 0.24  C 
ATOM     44 O    ALA B   3      53.610  25.520   1.520  1.00 35.05 LIG-0.27  OA
BRANCH 43 45
ATOM     45  CA  ALA B   3      54.927  23.964   2.781  1.00 35.42 LIG 0.17  C 
ATOM     46  CB  ALA B   3      53.929  24.238   3.891  1.00 34.55 LIG 0.04  C 
BRANCH 45 47
ATOM     47  N   ALA B   3      56.238  24.486   3.139  1.00 34.22 LIG-0.35  N 
ATOM     48  C   VAL B   2      57.341  24.002   2.580  1.00 33.55 LIG 0.24  C 
ATOM     49 O    VAL B   2      57.324  23.085   1.759  1.00 34.35 LIG-0.27  OA
ATOM     50 H    ALA B   3      56.227  25.114   3.725  1.00 34.22 LIG 0.16  HD
BRANCH 48 51
ATOM     51  CA  VAL B   2      58.656  24.644   3.012  1.00 33.22 LIG 0.18  C 
BRANCH 51 52
ATOM     52  CB  VAL B   2      59.498  23.588   3.768  1.00 32.52 LIG 0.01  C 
ATOM     53  CG1 VAL B   2      58.600  22.703   4.624  1.00 33.02 LIG 0.01  C 
ATOM     54  CG2 VAL B   2      60.276  22.740   2.771  1.00 33.85 LIG 0.01  C 
ENDBRANCH 51 52
BRANCH 51 55
ATOM     55  N   VAL B   2      58.437  25.820   3.846  1.00 33.13 LIG-0.35  N 
ATOM     56 H    VAL B   2      58.463  25.663   4.692  1.00 33.13 LIG 0.16  HD
ATOM     57  C   ALA B   1      58.219  27.022   3.325  1.00 33.26 LIG 0.25  C 
ATOM     58 O    ALA B   1      58.168  27.232   2.116  1.00 33.25 LIG-0.27  OA
BRANCH 57 59
ATOM     59  CA  ALA B   1      58.018  28.163   4.313  1.00 31.51 LIG 0.27  C 
ATOM     60  CB  ALA B   1      58.004  29.503   3.579  1.00 29.23 LIG 0.05  C 
BRANCH 59 61
ATOM     61  N   ALA B   1      59.114  28.127   5.269  1.00 32.32 LIG-0.07  N 
ATOM     62 H3   ALA B   1      59.052  28.824   5.818  1.00 32.32 LIG 0.28  HD
ATOM     63 H2   ALA B   1      59.889  28.161   4.834  1.00 32.32 LIG 0.28  HD
ATOM     64 H1   ALA B   1      59.071  27.374   5.741  1.00 32.32 LIG 0.28  HD
ENDBRANCH 59 61
ENDBRANCH 57 59
ENDBRANCH 51 55
ENDBRANCH 48 51
ENDBRANCH 45 47
ENDBRANCH 43 45
ENDBRANCH 1 41
TORSDOF 21
ENDMDL
MODEL 24
USER: ADFR SOLUTION from run 177
USER: SCORE 18.780779 LL:  -6.071 LR: -15.308 RR:   0.000 FEB:  -9.044
USER: RMSD 4.886425
USER: SEED 176
USER: STATUS no improvement in best in 11 clusters for 5 generations
USER: GENES 23
USER: genes 0 Translation |==|  0.52369 0.43550 0.62780
USER: genes 1 Rotation |==|  0.22185 0.40701 0.09750 0.54450
USER: genes 2 Torsion [C]-CA--CB-[CG] |==|  0.07752
USER: genes 3 Torsion [CA]-CB--CG-[CD1] |==|  0.71528
USER: genes 4 Torsion [N]-CA--C-[N] |==|  0.40934
USER: genes 5 Torsion [C]-N--CA-[CB] |==|  0.29305
USER: genes 6 Torsion [N]-CA--CB-[CG] |==|  0.84961
USER: genes 7 Torsion [CA]-CB--CG-[CD1] |==|  0.70563
USER: genes 8 Torsion [CE2]-CZ--OH-[HH] |==|  0.78572
USER: genes 9 Torsion [N]-CA--C-[N] |==|  0.35821
USER: genes 10 Torsion [C]-N--CA-[C] |==|  0.86667
USER: genes 11 Torsion [N]-CA--CB-[CG1] |==|  0.12353
USER: genes 12 Torsion [CA]-CB--CG1-[CD1] |==|  0.53581
USER: genes 13 Torsion [N]-CA--C-[N] |==|  0.39010
USER: genes 14 Torsion [N]-CA--C-[O] |==|  0.84236
USER: genes 15 Torsion [CB]-CA--N-[C] |==|  0.22269
USER: genes 16 Torsion [N]-C--CA-[N] |==|  0.37371
USER: genes 17 Torsion [C]-CA--N-[C] |==|  0.81149
USER: genes 18 Torsion [N]-C--CA-[N] |==|  0.86858
USER: genes 19 Torsion [C]-CA--CB-[CG1] |==|  0.08511
USER: genes 20 Torsion [C]-CA--N-[C] |==|  0.81826
USER: genes 21 Torsion [N]-C--CA-[N] |==|  0.15660
USER: genes 22 Torsion [C]-CA--N-[H3] |==|  0.17125
ROOT
ATOM      1  CA  PHE B   4      54.040  25.188  -0.775  1.00 44.68 LIG 0.18  C 
ENDROOT
BRANCH 1 2
ATOM      2  CB  PHE B   4      55.407  25.510  -1.384  1.00 43.52 LIG 0.07  C 
BRANCH 2 3
ATOM      3  CG  PHE B   4      55.356  25.756  -2.863  1.00 43.42 LIG-0.06  A 
ATOM      4  CD2 PHE B   4      54.943  26.988  -3.361  1.00 43.71 LIG 0.01  A 
ATOM      5  CE2 PHE B   4      54.945  27.242  -4.735  1.00 44.42 LIG 0.00  A 
ATOM      6  CZ  PHE B   4      55.362  26.249  -5.621  1.00 44.23 LIG 0.00  A 
ATOM      7  CE1 PHE B   4      55.774  25.015  -5.132  1.00 42.62 LIG 0.00  A 
ATOM      8  CD1 PHE B   4      55.768  24.775  -3.759  1.00 43.35 LIG 0.01  A 
ENDBRANCH 2 3
ENDBRANCH 1 2
BRANCH 1 9
ATOM      9  C   PHE B   4      53.122  24.536  -1.800  1.00 47.70 LIG 0.24  C 
ATOM     10 O    PHE B   4      53.110  23.314  -1.946  1.00 47.98 LIG-0.27  OA
ATOM     11  N   TYR B   5      52.369  25.365  -2.514  1.00 50.93 LIG-0.35  N 
ATOM     12 H    TYR B   5      52.371  26.218  -2.406  1.00 50.93 LIG 0.16  HD
BRANCH 11 13
ATOM     13  CA  TYR B   5      51.459  24.901  -3.558  1.00 53.91 LIG 0.18  C 
BRANCH 13 14
ATOM     14  CB  TYR B   5      50.002  24.972  -3.089  1.00 56.99 LIG 0.07  C 
BRANCH 14 15
ATOM     15  CG  TYR B   5      49.740  24.241  -1.783  1.00 60.80 LIG-0.06  A 
ATOM     16  CD2 TYR B   5      50.182  24.764  -0.569  1.00 62.97 LIG 0.01  A 
ATOM     17  CE2 TYR B   5      49.961  24.084   0.632  1.00 63.70 LIG 0.04  A 
ATOM     18  CZ  TYR B   5      49.290  22.869   0.617  1.00 64.21 LIG 0.07  A 
ATOM     19  CE1 TYR B   5      48.839  22.333  -0.576  1.00 63.24 LIG 0.04  A 
ATOM     20  CD1 TYR B   5      49.063  23.018  -1.763  1.00 61.93 LIG 0.01  A 
BRANCH 18 21
ATOM     21 OH   TYR B   5      49.083  22.183   1.792  1.00 64.43 LIG-0.36  OA
ATOM     22 HH   TYR B   5      49.795  21.801   2.023  1.00 64.43 LIG 0.22  HD
ENDBRANCH 18 21
ENDBRANCH 14 15
ENDBRANCH 13 14
BRANCH 13 23
ATOM     23  C   TYR B   5      51.633  25.788  -4.782  1.00 54.78 LIG 0.24  C 
ATOM     24  N   ILE B   6      51.836  25.162  -5.938  1.00 56.06 LIG-0.35  N 
ATOM     25 H    ILE B   6      51.875  24.307  -6.020  1.00 56.06 LIG 0.16  HD
ATOM     26 O    TYR B   5      51.579  27.013  -4.681  1.00 54.12 LIG-0.27  OA
BRANCH 24 27
ATOM     27  CA  ILE B   6      52.012  25.895  -7.187  1.00 57.79 LIG 0.18  C 
BRANCH 27 28
ATOM     28  CB  ILE B   6      51.974  24.937  -8.403  1.00 57.25 LIG 0.01  C 
ATOM     29  CG2 ILE B   6      53.283  24.179  -8.522  1.00 56.12 LIG 0.01  C 
BRANCH 28 30
ATOM     30  CG1 ILE B   6      50.819  23.947  -8.241  1.00 57.80 LIG 0.00  C 
ATOM     31  CD1 ILE B   6      50.888  22.790  -9.210  1.00 58.80 LIG 0.01  C 
ENDBRANCH 28 30
ENDBRANCH 27 28
BRANCH 27 32
ATOM     32  C   ILE B   6      50.930  26.961  -7.348  1.00 59.33 LIG 0.24  C 
ATOM     33 O    ILE B   6      49.763  26.738  -7.012  1.00 59.66 LIG-0.27  OA
ATOM     34  N   PRO B   7      51.310  28.142  -7.862  1.00 60.44 LIG-0.34  N 
ATOM     35  CA  PRO B   7      50.386  29.259  -8.076  1.00 61.29 LIG 0.17  C 
ATOM     36  CD  PRO B   7      52.679  28.519  -8.259  1.00 60.37 LIG 0.13  C 
ATOM     37  CB  PRO B   7      51.229  30.244  -8.877  1.00 61.79 LIG 0.04  C 
ATOM     38  CG  PRO B   7      52.593  30.028  -8.313  1.00 60.72 LIG 0.02  C 
BRANCH 35 39
ATOM     39  C   PRO B   7      49.112  28.851  -8.816  1.00 62.02 LIG 0.22  C 
ATOM     40 O    PRO B   7      49.170  28.314  -9.919  1.00 61.64 LIG-0.29  OA
ENDBRANCH 35 39
ENDBRANCH 27 32
ENDBRANCH 24 27
ENDBRANCH 13 23
ENDBRANCH 11 13
ENDBRANCH 1 9
BRANCH 1 41
ATOM     41  N   PHE B   4      54.205  24.327   0.384  1.00 40.22 LIG-0.35  N 
ATOM     42 H    PHE B   4      54.058  23.493   0.235  1.00 40.22 LIG 0.16  HD
ATOM     43  C   ALA B   3      54.556  24.822   1.564  1.00 36.80 LIG 0.24  C 
ATOM     44 O    ALA B   3      54.772  26.018   1.747  1.00 35.05 LIG-0.27  OA
BRANCH 43 45
ATOM     45  CA  ALA B   3      54.695  23.822   2.705  1.00 35.42 LIG 0.17  C 
ATOM     46  CB  ALA B   3      53.507  23.936   3.643  1.00 34.55 LIG 0.04  C 
BRANCH 45 47
ATOM     47  N   ALA B   3      55.931  24.121   3.414  1.00 34.22 LIG-0.35  N 
ATOM     48  C   VAL B   2      57.112  23.930   2.838  1.00 33.55 LIG 0.24  C 
ATOM     49 O    VAL B   2      57.232  23.475   1.701  1.00 34.35 LIG-0.27  OA
ATOM     50 H    ALA B   3      55.824  24.422   4.212  1.00 34.22 LIG 0.16  HD
BRANCH 48 51
ATOM     51  CA  VAL B   2      58.338  24.304   3.668  1.00 33.22 LIG 0.18  C 
BRANCH 51 52
ATOM     52  CB  VAL B   2      58.555  23.216   4.747  1.00 32.52 LIG 0.01  C 
ATOM     53  CG1 VAL B   2      58.072  21.861   4.244  1.00 33.02 LIG 0.01  C 
ATOM     54  CG2 VAL B   2      60.030  23.145   5.117  1.00 33.85 LIG 0.01  C 
ENDBRANCH 51 52
BRANCH 51 55
ATOM     55  N   VAL B   2      58.196  25.618   4.283  1.00 33.13 LIG-0.35  N 
ATOM     56 H    VAL B   2      58.159  25.604   5.142  1.00 33.13 LIG 0.16  HD
ATOM     57  C   ALA B   1      58.130  26.730   3.560  1.00 33.26 LIG 0.25  C 
ATOM     58 O    ALA B   1      58.167  26.738   2.333  1.00 33.25 LIG-0.27  OA
BRANCH 57 59
ATOM     59  CA  ALA B   1      57.995  28.035   4.334  1.00 31.51 LIG 0.27  C 
ATOM     60  CB  ALA B   1      58.012  29.224   3.375  1.00 29.23 LIG 0.05  C 
BRANCH 59 61
ATOM     61  N   ALA B   1      59.111  28.124   5.263  1.00 32.32 LIG-0.07  N 
ATOM     62 H3   ALA B   1      59.875  28.138   4.808  1.00 32.32 LIG 0.28  HD
ATOM     63 H2   ALA B   1      59.103  27.419   5.806  1.00 32.32 LIG 0.28  HD
ATOM     64 H1   ALA B   1      59.039  28.869   5.743  1.00 32.32 LIG 0.28  HD
ENDBRANCH 59 61
ENDBRANCH 57 59
ENDBRANCH 51 55
ENDBRANCH 48 51
ENDBRANCH 45 47
ENDBRANCH 43 45
ENDBRANCH 1 41
TORSDOF 21
ENDMDL
MODEL 25
USER: ADFR SOLUTION from run 62
USER: SCORE 18.924418 LL:  -5.765 LR: -15.296 RR:   0.000 FEB:  -9.032
USER: RMSD 3.710657
USER: SEED 61
USER: STATUS no improvement in best in 4 clusters for 5 generations
USER: GENES 23
USER: genes 0 Translation |==|  0.53694 0.54332 0.53725
USER: genes 1 Rotation |==|  0.80204 0.52827 0.89288 0.56010
USER: genes 2 Torsion [C]-CA--CB-[CG] |==|  0.79948
USER: genes 3 Torsion [CA]-CB--CG-[CD1] |==|  0.25027
USER: genes 4 Torsion [N]-CA--C-[N] |==|  0.59444
USER: genes 5 Torsion [C]-N--CA-[CB] |==|  0.16460
USER: genes 6 Torsion [N]-CA--CB-[CG] |==|  0.66461
USER: genes 7 Torsion [CA]-CB--CG-[CD1] |==|  0.16638
USER: genes 8 Torsion [CE2]-CZ--OH-[HH] |==|  0.64335
USER: genes 9 Torsion [N]-CA--C-[N] |==|  0.91666
USER: genes 10 Torsion [C]-N--CA-[C] |==|  0.15289
USER: genes 11 Torsion [N]-CA--CB-[CG1] |==|  0.88914
USER: genes 12 Torsion [CA]-CB--CG1-[CD1] |==|  0.83869
USER: genes 13 Torsion [N]-CA--C-[N] |==|  0.13274
USER: genes 14 Torsion [N]-CA--C-[O] |==|  0.86833
USER: genes 15 Torsion [CB]-CA--N-[C] |==|  0.17681
USER: genes 16 Torsion [N]-C--CA-[N] |==|  0.47519
USER: genes 17 Torsion [C]-CA--N-[C] |==|  0.78233
USER: genes 18 Torsion [N]-C--CA-[N] |==|  0.97411
USER: genes 19 Torsion [C]-CA--CB-[CG1] |==|  0.56884
USER: genes 20 Torsion [C]-CA--N-[C] |==|  0.66670
USER: genes 21 Torsion [N]-C--CA-[N] |==|  0.31856
USER: genes 22 Torsion [C]-CA--N-[H3] |==|  0.45856
ROOT
ATOM      1  CA  PHE B   4      54.348  26.967  -3.016  1.00 44.68 LIG 0.18  C 
ENDROOT
BRANCH 1 2
ATOM      2  CB  PHE B   4      55.669  26.575  -3.685  1.00 43.52 LIG 0.07  C 
BRANCH 2 3
ATOM      3  CG  PHE B   4      55.812  25.097  -3.897  1.00 43.42 LIG-0.06  A 
ATOM      4  CD2 PHE B   4      56.345  24.287  -2.899  1.00 43.71 LIG 0.01  A 
ATOM      5  CE2 PHE B   4      56.430  22.903  -3.069  1.00 44.42 LIG 0.00  A 
ATOM      6  CZ  PHE B   4      55.979  22.323  -4.255  1.00 44.23 LIG 0.00  A 
ATOM      7  CE1 PHE B   4      55.448  23.126  -5.258  1.00 42.62 LIG 0.00  A 
ATOM      8  CD1 PHE B   4      55.368  24.505  -5.075  1.00 43.35 LIG 0.01  A 
ENDBRANCH 2 3
ENDBRANCH 1 2
BRANCH 1 9
ATOM      9  C   PHE B   4      53.178  26.807  -3.978  1.00 47.70 LIG 0.24  C 
ATOM     10 O    PHE B   4      52.036  26.633  -3.556  1.00 47.98 LIG-0.27  OA
ATOM     11  N   TYR B   5      53.480  26.855  -5.271  1.00 50.93 LIG-0.35  N 
ATOM     12 H    TYR B   5      54.277  26.985  -5.566  1.00 50.93 LIG 0.16  HD
BRANCH 11 13
ATOM     13  CA  TYR B   5      52.479  26.689  -6.320  1.00 53.91 LIG 0.18  C 
BRANCH 13 14
ATOM     14  CB  TYR B   5      51.384  27.754  -6.210  1.00 56.99 LIG 0.07  C 
BRANCH 14 15
ATOM     15  CG  TYR B   5      49.989  27.184  -6.019  1.00 60.80 LIG-0.06  A 
ATOM     16  CD2 TYR B   5      48.972  27.456  -6.932  1.00 62.97 LIG 0.01  A 
ATOM     17  CE2 TYR B   5      47.683  26.951  -6.748  1.00 63.70 LIG 0.04  A 
ATOM     18  CZ  TYR B   5      47.408  26.164  -5.638  1.00 64.21 LIG 0.07  A 
ATOM     19  CE1 TYR B   5      48.403  25.877  -4.720  1.00 63.24 LIG 0.04  A 
ATOM     20  CD1 TYR B   5      49.681  26.384  -4.914  1.00 61.93 LIG 0.01  A 
BRANCH 18 21
ATOM     21 OH   TYR B   5      46.137  25.677  -5.437  1.00 64.43 LIG-0.36  OA
ATOM     22 HH   TYR B   5      45.884  25.865  -4.659  1.00 64.43 LIG 0.22  HD
ENDBRANCH 18 21
ENDBRANCH 14 15
ENDBRANCH 13 14
BRANCH 13 23
ATOM     23  C   TYR B   5      53.167  26.817  -7.671  1.00 54.78 LIG 0.24  C 
ATOM     24  N   ILE B   6      54.235  27.607  -7.716  1.00 56.06 LIG-0.35  N 
ATOM     25 H    ILE B   6      54.542  28.037  -7.037  1.00 56.06 LIG 0.16  HD
ATOM     26 O    TYR B   5      52.741  26.207  -8.651  1.00 54.12 LIG-0.27  OA
BRANCH 24 27
ATOM     27  CA  ILE B   6      54.990  27.811  -8.947  1.00 57.79 LIG 0.18  C 
BRANCH 27 28
ATOM     28  CB  ILE B   6      55.696  26.506  -9.390  1.00 57.25 LIG 0.01  C 
ATOM     29  CG2 ILE B   6      56.823  26.816 -10.358  1.00 56.12 LIG 0.01  C 
BRANCH 28 30
ATOM     30  CG1 ILE B   6      56.257  25.785  -8.163  1.00 57.80 LIG 0.00  C 
ATOM     31  CD1 ILE B   6      57.229  26.627  -7.371  1.00 58.80 LIG 0.01  C 
ENDBRANCH 28 30
ENDBRANCH 27 28
BRANCH 27 32
ATOM     32  C   ILE B   6      54.075  28.297 -10.070  1.00 59.33 LIG 0.24  C 
ATOM     33 O    ILE B   6      54.107  27.772 -11.188  1.00 59.66 LIG-0.27  OA
ATOM     34  N   PRO B   7      53.239  29.307  -9.781  1.00 60.44 LIG-0.34  N 
ATOM     35  CA  PRO B   7      52.305  29.879 -10.755  1.00 61.29 LIG 0.17  C 
ATOM     36  CD  PRO B   7      53.098  29.975  -8.475  1.00 60.37 LIG 0.13  C 
ATOM     37  CB  PRO B   7      51.779  31.112 -10.032  1.00 61.79 LIG 0.04  C 
ATOM     38  CG  PRO B   7      51.759  30.663  -8.610  1.00 60.72 LIG 0.02  C 
BRANCH 35 39
ATOM     39  C   PRO B   7      52.965  30.226 -12.089  1.00 62.02 LIG 0.22  C 
ATOM     40 O    PRO B   7      54.023  30.848 -12.124  1.00 61.64 LIG-0.29  OA
ENDBRANCH 35 39
ENDBRANCH 27 32
ENDBRANCH 24 27
ENDBRANCH 13 23
ENDBRANCH 11 13
ENDBRANCH 1 9
BRANCH 1 41
ATOM     41  N   PHE B   4      54.141  26.165  -1.822  1.00 40.22 LIG-0.35  N 
ATOM     42 H    PHE B   4      53.454  25.649  -1.851  1.00 40.22 LIG 0.16  HD
ATOM     43  C   ALA B   3      54.967  26.247  -0.787  1.00 36.80 LIG 0.24  C 
ATOM     44 O    ALA B   3      55.950  26.985  -0.776  1.00 35.05 LIG-0.27  OA
BRANCH 43 45
ATOM     45  CA  ALA B   3      54.646  25.361   0.409  1.00 35.42 LIG 0.17  C 
ATOM     46  CB  ALA B   3      53.373  25.839   1.083  1.00 34.55 LIG 0.04  C 
BRANCH 45 47
ATOM     47  N   ALA B   3      55.767  25.434   1.335  1.00 34.22 LIG-0.35  N 
ATOM     48  C   VAL B   2      56.881  24.747   1.114  1.00 33.55 LIG 0.24  C 
ATOM     49 O    VAL B   2      57.022  24.002   0.145  1.00 34.35 LIG-0.27  OA
ATOM     50 H    ALA B   3      55.641  25.947   2.013  1.00 34.22 LIG 0.16  HD
BRANCH 48 51
ATOM     51  CA  VAL B   2      58.000  24.923   2.137  1.00 33.22 LIG 0.18  C 
BRANCH 51 52
ATOM     52  CB  VAL B   2      58.199  23.583   2.888  1.00 32.52 LIG 0.01  C 
ATOM     53  CG1 VAL B   2      58.811  23.826   4.261  1.00 33.02 LIG 0.01  C 
ATOM     54  CG2 VAL B   2      56.862  22.867   3.026  1.00 33.85 LIG 0.01  C 
ENDBRANCH 51 52
BRANCH 51 55
ATOM     55  N   VAL B   2      57.711  26.001   3.076  1.00 33.13 LIG-0.35  N 
ATOM     56 H    VAL B   2      56.992  25.887   3.534  1.00 33.13 LIG 0.16  HD
ATOM     57  C   ALA B   1      58.504  27.059   3.198  1.00 33.26 LIG 0.25  C 
ATOM     58 O    ALA B   1      59.519  27.220   2.526  1.00 33.25 LIG-0.27  OA
BRANCH 57 59
ATOM     59  CA  ALA B   1      58.088  28.103   4.226  1.00 31.51 LIG 0.27  C 
ATOM     60  CB  ALA B   1      57.977  29.478   3.571  1.00 29.23 LIG 0.05  C 
BRANCH 59 61
ATOM     61  N   ALA B   1      59.097  28.127   5.274  1.00 32.32 LIG-0.07  N 
ATOM     62 H3   ALA B   1      58.998  28.862   5.765  1.00 32.32 LIG 0.28  HD
ATOM     63 H2   ALA B   1      59.907  28.124   4.906  1.00 32.32 LIG 0.28  HD
ATOM     64 H1   ALA B   1      59.004  27.410   5.792  1.00 32.32 LIG 0.28  HD
ENDBRANCH 59 61
ENDBRANCH 57 59
ENDBRANCH 51 55
ENDBRANCH 48 51
ENDBRANCH 45 47
ENDBRANCH 43 45
ENDBRANCH 1 41
TORSDOF 21
ENDMDL
MODEL 26
USER: ADFR SOLUTION from run 118
USER: SCORE 18.355795 LL:  -5.830 LR: -15.283 RR:   0.000 FEB:  -9.018
USER: RMSD 7.186022
USER: SEED 117
USER: STATUS no improvement in best in 13 clusters for 5 generations
USER: GENES 23
USER: genes 0 Translation |==|  0.54177 0.51537 0.55942
USER: genes 1 Rotation |==|  0.17650 0.42712 0.12610 0.51547
USER: genes 2 Torsion [C]-CA--CB-[CG] |==|  0.89014
USER: genes 3 Torsion [CA]-CB--CG-[CD1] |==|  0.31005
USER: genes 4 Torsion [N]-CA--C-[N] |==|  0.36172
USER: genes 5 Torsion [C]-N--CA-[CB] |==|  0.82524
USER: genes 6 Torsion [N]-CA--CB-[CG] |==|  0.79242
USER: genes 7 Torsion [CA]-CB--CG-[CD1] |==|  0.77143
USER: genes 8 Torsion [CE2]-CZ--OH-[HH] |==|  0.91314
USER: genes 9 Torsion [N]-CA--C-[N] |==|  0.03128
USER: genes 10 Torsion [C]-N--CA-[C] |==|  0.59461
USER: genes 11 Torsion [N]-CA--CB-[CG1] |==|  0.20449
USER: genes 12 Torsion [CA]-CB--CG1-[CD1] |==|  0.58414
USER: genes 13 Torsion [N]-CA--C-[N] |==|  0.46636
USER: genes 14 Torsion [N]-CA--C-[O] |==|  0.26853
USER: genes 15 Torsion [CB]-CA--N-[C] |==|  0.22483
USER: genes 16 Torsion [N]-C--CA-[N] |==|  0.51500
USER: genes 17 Torsion [C]-CA--N-[C] |==|  0.74509
USER: genes 18 Torsion [N]-C--CA-[N] |==|  0.34816
USER: genes 19 Torsion [C]-CA--CB-[CG1] |==|  0.39168
USER: genes 20 Torsion [C]-CA--N-[C] |==|  0.88327
USER: genes 21 Torsion [N]-C--CA-[N] |==|  0.14061
USER: genes 22 Torsion [C]-CA--N-[H3] |==|  0.34977
ROOT
ATOM      1  CA  PHE B   4      54.460  26.506  -2.467  1.00 44.68 LIG 0.18  C 
ENDROOT
BRANCH 1 2
ATOM      2  CB  PHE B   4      55.714  26.586  -3.342  1.00 43.52 LIG 0.07  C 
BRANCH 2 3
ATOM      3  CG  PHE B   4      55.853  25.431  -4.290  1.00 43.42 LIG-0.06  A 
ATOM      4  CD2 PHE B   4      56.065  24.143  -3.809  1.00 43.71 LIG 0.01  A 
ATOM      5  CE2 PHE B   4      56.140  23.056  -4.682  1.00 44.42 LIG 0.00  A 
ATOM      6  CZ  PHE B   4      56.004  23.261  -6.055  1.00 44.23 LIG 0.00  A 
ATOM      7  CE1 PHE B   4      55.795  24.545  -6.544  1.00 42.62 LIG 0.00  A 
ATOM      8  CD1 PHE B   4      55.721  25.621  -5.662  1.00 43.35 LIG 0.01  A 
ENDBRANCH 2 3
ENDBRANCH 1 2
BRANCH 1 9
ATOM      9  C   PHE B   4      53.268  25.991  -3.263  1.00 47.70 LIG 0.24  C 
ATOM     10 O    PHE B   4      53.203  24.811  -3.606  1.00 47.98 LIG-0.27  OA
ATOM     11  N   TYR B   5      52.339  26.892  -3.562  1.00 50.93 LIG-0.35  N 
ATOM     12 H    TYR B   5      52.380  27.714  -3.315  1.00 50.93 LIG 0.16  HD
BRANCH 11 13
ATOM     13  CA  TYR B   5      51.150  26.567  -4.345  1.00 53.91 LIG 0.18  C 
BRANCH 13 14
ATOM     14  CB  TYR B   5      51.527  26.117  -5.759  1.00 56.99 LIG 0.07  C 
BRANCH 14 15
ATOM     15  CG  TYR B   5      51.964  27.252  -6.670  1.00 60.80 LIG-0.06  A 
ATOM     16  CD2 TYR B   5      53.315  27.541  -6.859  1.00 62.97 LIG 0.01  A 
ATOM     17  CE2 TYR B   5      53.719  28.597  -7.679  1.00 63.70 LIG 0.04  A 
ATOM     18  CZ  TYR B   5      52.761  29.372  -8.317  1.00 64.21 LIG 0.07  A 
ATOM     19  CE1 TYR B   5      51.415  29.102  -8.148  1.00 63.24 LIG 0.04  A 
ATOM     20  CD1 TYR B   5      51.025  28.049  -7.331  1.00 61.93 LIG 0.01  A 
BRANCH 18 21
ATOM     21 OH   TYR B   5      53.148  30.426  -9.113  1.00 64.43 LIG-0.36  OA
ATOM     22 HH   TYR B   5      53.862  30.755  -8.816  1.00 64.43 LIG 0.22  HD
ENDBRANCH 18 21
ENDBRANCH 14 15
ENDBRANCH 13 14
BRANCH 13 23
ATOM     23  C   TYR B   5      50.402  25.441  -3.646  1.00 54.78 LIG 0.24  C 
ATOM     24  N   ILE B   6      50.801  25.146  -2.413  1.00 56.06 LIG-0.35  N 
ATOM     25 H    ILE B   6      51.445  25.548  -2.008  1.00 56.06 LIG 0.16  HD
ATOM     26 O    TYR B   5      49.478  24.857  -4.211  1.00 54.12 LIG-0.27  OA
BRANCH 24 27
ATOM     27  CA  ILE B   6      50.164  24.093  -1.630  1.00 57.79 LIG 0.18  C 
BRANCH 27 28
ATOM     28  CB  ILE B   6      50.893  22.740  -1.820  1.00 57.25 LIG 0.01  C 
ATOM     29  CG2 ILE B   6      51.145  22.476  -3.293  1.00 56.12 LIG 0.01  C 
BRANCH 28 30
ATOM     30  CG1 ILE B   6      52.224  22.763  -1.067  1.00 57.80 LIG 0.00  C 
ATOM     31  CD1 ILE B   6      53.287  21.905  -1.713  1.00 58.80 LIG 0.01  C 
ENDBRANCH 28 30
ENDBRANCH 27 28
BRANCH 27 32
ATOM     32  C   ILE B   6      50.146  24.453  -0.146  1.00 59.33 LIG 0.24  C 
ATOM     33 O    ILE B   6      50.811  25.401   0.285  1.00 59.66 LIG-0.27  OA
ATOM     34  N   PRO B   7      49.375  23.700   0.655  1.00 60.44 LIG-0.34  N 
ATOM     35  CA  PRO B   7      49.258  23.925   2.098  1.00 61.29 LIG 0.17  C 
ATOM     36  CD  PRO B   7      48.520  22.576   0.235  1.00 60.37 LIG 0.13  C 
ATOM     37  CB  PRO B   7      48.486  22.699   2.568  1.00 61.79 LIG 0.04  C 
ATOM     38  CG  PRO B   7      47.582  22.429   1.412  1.00 60.72 LIG 0.02  C 
BRANCH 35 39
ATOM     39  C   PRO B   7      50.610  24.062   2.797  1.00 62.02 LIG 0.22  C 
ATOM     40 O    PRO B   7      51.089  25.170   3.029  1.00 61.64 LIG-0.29  OA
ENDBRANCH 35 39
ENDBRANCH 27 32
ENDBRANCH 24 27
ENDBRANCH 13 23
ENDBRANCH 11 13
ENDBRANCH 1 9
BRANCH 1 41
ATOM     41  N   PHE B   4      54.713  25.654  -1.317  1.00 40.22 LIG-0.35  N 
ATOM     42 H    PHE B   4      54.420  24.849  -1.396  1.00 40.22 LIG 0.16  HD
ATOM     43  C   ALA B   3      55.349  26.114  -0.248  1.00 36.80 LIG 0.24  C 
ATOM     44 O    ALA B   3      55.769  27.266  -0.167  1.00 35.05 LIG-0.27  OA
BRANCH 43 45
ATOM     45  CA  ALA B   3      55.553  25.129   0.896  1.00 35.42 LIG 0.17  C 
ATOM     46  CB  ALA B   3      54.221  24.527   1.306  1.00 34.55 LIG 0.04  C 
BRANCH 45 47
ATOM     47  N   ALA B   3      56.146  25.854   2.011  1.00 34.22 LIG-0.35  N 
ATOM     48  C   VAL B   2      57.463  25.920   2.158  1.00 33.55 LIG 0.24  C 
ATOM     49 O    VAL B   2      58.248  25.365   1.390  1.00 34.35 LIG-0.27  OA
ATOM     50 H    ALA B   3      55.579  26.220   2.544  1.00 34.22 LIG 0.16  HD
BRANCH 48 51
ATOM     51  CA  VAL B   2      57.972  26.730   3.349  1.00 33.22 LIG 0.18  C 
BRANCH 51 52
ATOM     52  CB  VAL B   2      58.689  27.994   2.816  1.00 32.52 LIG 0.01  C 
ATOM     53  CG1 VAL B   2      58.377  29.196   3.698  1.00 33.02 LIG 0.01  C 
ATOM     54  CG2 VAL B   2      60.192  27.751   2.768  1.00 33.85 LIG 0.01  C 
ENDBRANCH 51 52
BRANCH 51 55
ATOM     55  N   VAL B   2      58.866  25.947   4.194  1.00 33.13 LIG-0.35  N 
ATOM     56 H    VAL B   2      59.559  26.377   4.468  1.00 33.13 LIG 0.16  HD
ATOM     57  C   ALA B   1      58.614  24.681   4.502  1.00 33.26 LIG 0.25  C 
ATOM     58 O    ALA B   1      57.629  24.072   4.092  1.00 33.25 LIG-0.27  OA
BRANCH 57 59
ATOM     59  CA  ALA B   1      59.626  23.988   5.404  1.00 31.51 LIG 0.27  C 
ATOM     60  CB  ALA B   1      59.096  22.626   5.848  1.00 29.23 LIG 0.05  C 
BRANCH 59 61
ATOM     61  N   ALA B   1      59.853  24.840   6.562  1.00 32.32 LIG-0.07  N 
ATOM     62 H3   ALA B   1      59.712  24.373   7.306  1.00 32.32 LIG 0.28  HD
ATOM     63 H2   ALA B   1      59.294  25.531   6.537  1.00 32.32 LIG 0.28  HD
ATOM     64 H1   ALA B   1      60.692  25.136   6.553  1.00 32.32 LIG 0.28  HD
ENDBRANCH 59 61
ENDBRANCH 57 59
ENDBRANCH 51 55
ENDBRANCH 48 51
ENDBRANCH 45 47
ENDBRANCH 43 45
ENDBRANCH 1 41
TORSDOF 21
ENDMDL
MODEL 27
USER: ADFR SOLUTION from run 65
USER: SCORE 19.089717 LL:  -5.615 LR: -15.271 RR:   0.000 FEB:  -9.007
USER: RMSD 11.406110
USER: SEED 64
USER: STATUS searching
USER: GENES 23
USER: genes 0 Translation |==|  0.51266 0.52073 0.50691
USER: genes 1 Rotation |==|  0.12199 0.27162 0.72379 0.56979
USER: genes 2 Torsion [C]-CA--CB-[CG] |==|  0.41880
USER: genes 3 Torsion [CA]-CB--CG-[CD1] |==|  0.59715
USER: genes 4 Torsion [N]-CA--C-[N] |==|  0.48731
USER: genes 5 Torsion [C]-N--CA-[CB] |==|  0.19023
USER: genes 6 Torsion [N]-CA--CB-[CG] |==|  0.50138
USER: genes 7 Torsion [CA]-CB--CG-[CD1] |==|  0.59953
USER: genes 8 Torsion [CE2]-CZ--OH-[HH] |==|  0.67695
USER: genes 9 Torsion [N]-CA--C-[N] |==|  0.04599
USER: genes 10 Torsion [C]-N--CA-[C] |==|  0.83887
USER: genes 11 Torsion [N]-CA--CB-[CG1] |==|  0.04324
USER: genes 12 Torsion [CA]-CB--CG1-[CD1] |==|  0.38734
USER: genes 13 Torsion [N]-CA--C-[N] |==|  0.42514
USER: genes 14 Torsion [N]-CA--C-[O] |==|  0.88435
USER: genes 15 Torsion [CB]-CA--N-[C] |==|  0.83321
USER: genes 16 Torsion [N]-C--CA-[N] |==|  0.92346
USER: genes 17 Torsion [C]-CA--N-[C] |==|  0.80387
USER: genes 18 Torsion [N]-C--CA-[N] |==|  0.61064
USER: genes 19 Torsion [C]-CA--CB-[CG1] |==|  0.30523
USER: genes 20 Torsion [C]-CA--N-[C] |==|  0.59058
USER: genes 21 Torsion [N]-C--CA-[N] |==|  0.43253
USER: genes 22 Torsion [C]-CA--N-[H3] |==|  0.30438
ROOT
ATOM      1  CA  PHE B   4      53.783  26.594  -3.767  1.00 44.68 LIG 0.18  C 
ENDROOT
BRANCH 1 2
ATOM      2  CB  PHE B   4      52.729  25.487  -3.858  1.00 43.52 LIG 0.07  C 
BRANCH 2 3
ATOM      3  CG  PHE B   4      51.394  25.976  -4.336  1.00 43.42 LIG-0.06  A 
ATOM      4  CD2 PHE B   4      51.310  26.957  -5.319  1.00 43.71 LIG 0.01  A 
ATOM      5  CE2 PHE B   4      50.071  27.377  -5.808  1.00 44.42 LIG 0.00  A 
ATOM      6  CZ  PHE B   4      48.900  26.810  -5.304  1.00 44.23 LIG 0.00  A 
ATOM      7  CE1 PHE B   4      48.975  25.832  -4.320  1.00 42.62 LIG 0.00  A 
ATOM      8  CD1 PHE B   4      50.218  25.421  -3.842  1.00 43.35 LIG 0.01  A 
ENDBRANCH 2 3
ENDBRANCH 1 2
BRANCH 1 9
ATOM      9  C   PHE B   4      54.806  26.290  -2.680  1.00 47.70 LIG 0.24  C 
ATOM     10 O    PHE B   4      55.991  26.119  -2.962  1.00 47.98 LIG-0.27  OA
ATOM     11  N   TYR B   5      54.330  26.212  -1.443  1.00 50.93 LIG-0.35  N 
ATOM     12 H    TYR B   5      53.503  26.340  -1.244  1.00 50.93 LIG 0.16  HD
BRANCH 11 13
ATOM     13  CA  TYR B   5      55.173  25.898  -0.292  1.00 53.91 LIG 0.18  C 
BRANCH 13 14
ATOM     14  CB  TYR B   5      56.151  27.040   0.001  1.00 56.99 LIG 0.07  C 
BRANCH 14 15
ATOM     15  CG  TYR B   5      57.070  26.774   1.181  1.00 60.80 LIG-0.06  A 
ATOM     16  CD2 TYR B   5      57.543  25.490   1.447  1.00 62.97 LIG 0.01  A 
ATOM     17  CE2 TYR B   5      58.371  25.239   2.543  1.00 63.70 LIG 0.04  A 
ATOM     18  CZ  TYR B   5      58.731  26.285   3.383  1.00 64.21 LIG 0.07  A 
ATOM     19  CE1 TYR B   5      58.277  27.568   3.137  1.00 63.24 LIG 0.04  A 
ATOM     20  CD1 TYR B   5      57.454  27.806   2.043  1.00 61.93 LIG 0.01  A 
BRANCH 18 21
ATOM     21 OH   TYR B   5      59.531  26.045   4.476  1.00 64.43 LIG-0.36  OA
ATOM     22 HH   TYR B   5      59.105  26.217   5.179  1.00 64.43 LIG 0.22  HD
ENDBRANCH 18 21
ENDBRANCH 14 15
ENDBRANCH 13 14
BRANCH 13 23
ATOM     23  C   TYR B   5      54.279  25.682   0.920  1.00 54.78 LIG 0.24  C 
ATOM     24  N   ILE B   6      52.990  25.471   0.671  1.00 56.06 LIG-0.35  N 
ATOM     25 H    ILE B   6      52.651  25.457  -0.119  1.00 56.06 LIG 0.16  HD
ATOM     26 O    TYR B   5      54.751  25.699   2.056  1.00 54.12 LIG-0.27  OA
BRANCH 24 27
ATOM     27  CA  ILE B   6      52.028  25.244   1.743  1.00 57.79 LIG 0.18  C 
BRANCH 27 28
ATOM     28  CB  ILE B   6      50.605  25.022   1.176  1.00 57.25 LIG 0.01  C 
ATOM     29  CG2 ILE B   6      49.746  26.252   1.402  1.00 56.12 LIG 0.01  C 
BRANCH 28 30
ATOM     30  CG1 ILE B   6      50.690  24.723  -0.322  1.00 57.80 LIG 0.00  C 
ATOM     31  CD1 ILE B   6      49.738  23.637  -0.767  1.00 58.80 LIG 0.01  C 
ENDBRANCH 28 30
ENDBRANCH 27 28
BRANCH 27 32
ATOM     32  C   ILE B   6      52.430  24.036   2.587  1.00 59.33 LIG 0.24  C 
ATOM     33 O    ILE B   6      53.109  23.123   2.106  1.00 59.66 LIG-0.27  OA
ATOM     34  N   PRO B   7      52.019  24.020   3.865  1.00 60.44 LIG-0.34  N 
ATOM     35  CA  PRO B   7      52.326  22.930   4.794  1.00 61.29 LIG 0.17  C 
ATOM     36  CD  PRO B   7      51.239  25.072   4.541  1.00 60.37 LIG 0.13  C 
ATOM     37  CB  PRO B   7      51.457  23.260   6.000  1.00 61.79 LIG 0.04  C 
ATOM     38  CG  PRO B   7      51.468  24.752   6.001  1.00 60.72 LIG 0.02  C 
BRANCH 35 39
ATOM     39  C   PRO B   7      52.019  21.546   4.220  1.00 62.02 LIG 0.22  C 
ATOM     40 O    PRO B   7      50.994  21.348   3.572  1.00 61.64 LIG-0.29  OA
ENDBRANCH 35 39
ENDBRANCH 27 32
ENDBRANCH 24 27
ENDBRANCH 13 23
ENDBRANCH 11 13
ENDBRANCH 1 9
BRANCH 1 41
ATOM     41  N   PHE B   4      54.439  26.760  -5.053  1.00 40.22 LIG-0.35  N 
ATOM     42 H    PHE B   4      54.357  27.543  -5.399  1.00 40.22 LIG 0.16  HD
ATOM     43  C   ALA B   3      55.103  25.761  -5.620  1.00 36.80 LIG 0.24  C 
ATOM     44 O    ALA B   3      55.214  24.654  -5.098  1.00 35.05 LIG-0.27  OA
BRANCH 43 45
ATOM     45  CA  ALA B   3      55.745  26.053  -6.970  1.00 35.42 LIG 0.17  C 
ATOM     46  CB  ALA B   3      57.181  26.504  -6.776  1.00 34.55 LIG 0.04  C 
BRANCH 45 47
ATOM     47  N   ALA B   3      54.968  27.100  -7.618  1.00 34.22 LIG-0.35  N 
ATOM     48  C   VAL B   2      53.748  26.858  -8.082  1.00 33.55 LIG 0.24  C 
ATOM     49 O    VAL B   2      53.219  25.749  -8.015  1.00 34.35 LIG-0.27  OA
ATOM     50 H    ALA B   3      55.363  27.862  -7.669  1.00 34.22 LIG 0.16  HD
BRANCH 48 51
ATOM     51  CA  VAL B   2      53.018  28.039  -8.717  1.00 33.22 LIG 0.18  C 
BRANCH 51 52
ATOM     52  CB  VAL B   2      53.711  29.348  -8.268  1.00 32.52 LIG 0.01  C 
ATOM     53  CG1 VAL B   2      54.448  29.990  -9.437  1.00 33.02 LIG 0.01  C 
ATOM     54  CG2 VAL B   2      52.676  30.311  -7.705  1.00 33.85 LIG 0.01  C 
ENDBRANCH 51 52
BRANCH 51 55
ATOM     55  N   VAL B   2      51.604  28.056  -8.362  1.00 33.13 LIG-0.35  N 
ATOM     56 H    VAL B   2      51.433  27.750  -7.576  1.00 33.13 LIG 0.16  HD
ATOM     57  C   ALA B   1      50.675  28.511  -9.194  1.00 33.26 LIG 0.25  C 
ATOM     58 O    ALA B   1      50.928  28.930 -10.321  1.00 33.25 LIG-0.27  OA
BRANCH 57 59
ATOM     59  CA  ALA B   1      49.239  28.483  -8.688  1.00 31.51 LIG 0.27  C 
ATOM     60  CB  ALA B   1      48.624  27.103  -8.913  1.00 29.23 LIG 0.05  C 
BRANCH 59 61
ATOM     61  N   ALA B   1      48.486  29.492  -9.418  1.00 32.32 LIG-0.07  N 
ATOM     62 H3   ALA B   1      47.917  29.094  -9.974  1.00 32.32 LIG 0.28  HD
ATOM     63 H2   ALA B   1      49.047  30.002  -9.884  1.00 32.32 LIG 0.28  HD
ATOM     64 H1   ALA B   1      48.033  29.997  -8.843  1.00 32.32 LIG 0.28  HD
ENDBRANCH 59 61
ENDBRANCH 57 59
ENDBRANCH 51 55
ENDBRANCH 48 51
ENDBRANCH 45 47
ENDBRANCH 43 45
ENDBRANCH 1 41
TORSDOF 21
ENDMDL
MODEL 28
USER: ADFR SOLUTION from run 36
USER: SCORE 17.686952 LL:  -6.090 LR: -15.248 RR:   0.000 FEB:  -8.984
USER: RMSD 6.654774
USER: SEED 35
USER: STATUS no improvement in best in 19 clusters for 5 generations
USER: GENES 23
USER: genes 0 Translation |==|  0.62773 0.49205 0.71476
USER: genes 1 Rotation |==|  0.72920 0.45638 0.94222 0.50125
USER: genes 2 Torsion [C]-CA--CB-[CG] |==|  0.39657
USER: genes 3 Torsion [CA]-CB--CG-[CD1] |==|  0.49834
USER: genes 4 Torsion [N]-CA--C-[N] |==|  0.84267
USER: genes 5 Torsion [C]-N--CA-[CB] |==|  0.35482
USER: genes 6 Torsion [N]-CA--CB-[CG] |==|  0.59317
USER: genes 7 Torsion [CA]-CB--CG-[CD1] |==|  0.53875
USER: genes 8 Torsion [CE2]-CZ--OH-[HH] |==|  0.21728
USER: genes 9 Torsion [N]-CA--C-[N] |==|  0.23176
USER: genes 10 Torsion [C]-N--CA-[C] |==|  0.82796
USER: genes 11 Torsion [N]-CA--CB-[CG1] |==|  0.86275
USER: genes 12 Torsion [CA]-CB--CG1-[CD1] |==|  0.52766
USER: genes 13 Torsion [N]-CA--C-[N] |==|  0.86978
USER: genes 14 Torsion [N]-CA--C-[O] |==|  0.28643
USER: genes 15 Torsion [CB]-CA--N-[C] |==|  0.53415
USER: genes 16 Torsion [N]-C--CA-[N] |==|  0.05307
USER: genes 17 Torsion [C]-CA--N-[C] |==|  0.77044
USER: genes 18 Torsion [N]-C--CA-[N] |==|  0.83049
USER: genes 19 Torsion [C]-CA--CB-[CG1] |==|  0.24945
USER: genes 20 Torsion [C]-CA--N-[C] |==|  0.64592
USER: genes 21 Torsion [N]-C--CA-[N] |==|  0.13799
USER: genes 22 Torsion [C]-CA--N-[H3] |==|  0.23885
ROOT
ATOM      1  CA  PHE B   4      56.459  26.121   1.377  1.00 44.68 LIG 0.18  C 
ENDROOT
BRANCH 1 2
ATOM      2  CB  PHE B   4      57.965  25.964   1.151  1.00 43.52 LIG 0.07  C 
BRANCH 2 3
ATOM      3  CG  PHE B   4      58.797  26.620   2.213  1.00 43.42 LIG-0.06  A 
ATOM      4  CD2 PHE B   4      58.193  27.256   3.292  1.00 43.71 LIG 0.01  A 
ATOM      5  CE2 PHE B   4      58.962  27.822   4.312  1.00 44.42 LIG 0.00  A 
ATOM      6  CZ  PHE B   4      60.353  27.752   4.249  1.00 44.23 LIG 0.00  A 
ATOM      7  CE1 PHE B   4      60.965  27.120   3.173  1.00 42.62 LIG 0.00  A 
ATOM      8  CD1 PHE B   4      60.186  26.559   2.163  1.00 43.35 LIG 0.01  A 
ENDBRANCH 2 3
ENDBRANCH 1 2
BRANCH 1 9
ATOM      9  C   PHE B   4      55.724  26.316   0.058  1.00 47.70 LIG 0.24  C 
ATOM     10 O    PHE B   4      55.144  27.373  -0.188  1.00 47.98 LIG-0.27  OA
ATOM     11  N   TYR B   5      55.745  25.283  -0.776  1.00 50.93 LIG-0.35  N 
ATOM     12 H    TYR B   5      56.159  24.548  -0.608  1.00 50.93 LIG 0.16  HD
BRANCH 11 13
ATOM     13  CA  TYR B   5      55.064  25.298  -2.068  1.00 53.91 LIG 0.18  C 
BRANCH 13 14
ATOM     14  CB  TYR B   5      56.018  24.903  -3.198  1.00 56.99 LIG 0.07  C 
BRANCH 14 15
ATOM     15  CG  TYR B   5      55.739  25.609  -4.514  1.00 60.80 LIG-0.06  A 
ATOM     16  CD2 TYR B   5      54.889  26.712  -4.569  1.00 62.97 LIG 0.01  A 
ATOM     17  CE2 TYR B   5      54.614  27.351  -5.780  1.00 63.70 LIG 0.04  A 
ATOM     18  CZ  TYR B   5      55.196  26.882  -6.949  1.00 64.21 LIG 0.07  A 
ATOM     19  CE1 TYR B   5      56.047  25.791  -6.919  1.00 63.24 LIG 0.04  A 
ATOM     20  CD1 TYR B   5      56.313  25.164  -5.708  1.00 61.93 LIG 0.01  A 
BRANCH 18 21
ATOM     21 OH   TYR B   5      54.918  27.492  -8.151  1.00 64.43 LIG-0.36  OA
ATOM     22 HH   TYR B   5      55.363  28.202  -8.214  1.00 64.43 LIG 0.22  HD
ENDBRANCH 18 21
ENDBRANCH 14 15
ENDBRANCH 13 14
BRANCH 13 23
ATOM     23  C   TYR B   5      53.909  24.309  -2.019  1.00 54.78 LIG 0.24  C 
ATOM     24  N   ILE B   6      52.777  24.752  -1.482  1.00 56.06 LIG-0.35  N 
ATOM     25 H    ILE B   6      52.673  25.546  -1.168  1.00 56.06 LIG 0.16  HD
ATOM     26 O    TYR B   5      54.042  23.170  -2.464  1.00 54.12 LIG-0.27  OA
BRANCH 24 27
ATOM     27  CA  ILE B   6      51.592  23.906  -1.380  1.00 57.79 LIG 0.18  C 
BRANCH 27 28
ATOM     28  CB  ILE B   6      50.448  24.638  -0.635  1.00 57.25 LIG 0.01  C 
ATOM     29  CG2 ILE B   6      49.316  23.675  -0.327  1.00 56.12 LIG 0.01  C 
BRANCH 28 30
ATOM     30  CG1 ILE B   6      50.984  25.235   0.667  1.00 57.80 LIG 0.00  C 
ATOM     31  CD1 ILE B   6      49.894  25.760   1.573  1.00 58.80 LIG 0.01  C 
ENDBRANCH 28 30
ENDBRANCH 27 28
BRANCH 27 32
ATOM     32  C   ILE B   6      51.105  23.485  -2.765  1.00 59.33 LIG 0.24  C 
ATOM     33 O    ILE B   6      50.807  22.310  -3.004  1.00 59.66 LIG-0.27  OA
ATOM     34  N   PRO B   7      51.013  24.447  -3.698  1.00 60.44 LIG-0.34  N 
ATOM     35  CA  PRO B   7      50.563  24.194  -5.069  1.00 61.29 LIG 0.17  C 
ATOM     36  CD  PRO B   7      51.309  25.877  -3.505  1.00 60.37 LIG 0.13  C 
ATOM     37  CB  PRO B   7      50.861  25.514  -5.769  1.00 61.79 LIG 0.04  C 
ATOM     38  CG  PRO B   7      50.612  26.511  -4.688  1.00 60.72 LIG 0.02  C 
BRANCH 35 39
ATOM     39  C   PRO B   7      51.276  23.014  -5.729  1.00 62.02 LIG 0.22  C 
ATOM     40 O    PRO B   7      50.717  21.926  -5.844  1.00 61.64 LIG-0.29  OA
ENDBRANCH 35 39
ENDBRANCH 27 32
ENDBRANCH 24 27
ENDBRANCH 13 23
ENDBRANCH 11 13
ENDBRANCH 1 9
BRANCH 1 41
ATOM     41  N   PHE B   4      55.941  24.961   2.084  1.00 40.22 LIG-0.35  N 
ATOM     42 H    PHE B   4      56.543  24.447   2.418  1.00 40.22 LIG 0.16  HD
ATOM     43  C   ALA B   3      54.636  24.745   2.186  1.00 36.80 LIG 0.24  C 
ATOM     44 O    ALA B   3      53.796  25.503   1.709  1.00 35.05 LIG-0.27  OA
BRANCH 43 45
ATOM     45  CA  ALA B   3      54.214  23.495   2.947  1.00 35.42 LIG 0.17  C 
ATOM     46  CB  ALA B   3      53.008  23.799   3.818  1.00 34.55 LIG 0.04  C 
BRANCH 45 47
ATOM     47  N   ALA B   3      55.338  23.070   3.769  1.00 34.22 LIG-0.35  N 
ATOM     48  C   VAL B   2      56.321  22.339   3.257  1.00 33.55 LIG 0.24  C 
ATOM     49 O    VAL B   2      56.329  21.963   2.085  1.00 34.35 LIG-0.27  OA
ATOM     50 H    ALA B   3      55.303  23.329   4.588  1.00 34.22 LIG 0.16  HD
BRANCH 48 51
ATOM     51  CA  VAL B   2      57.459  21.975   4.206  1.00 33.22 LIG 0.18  C 
BRANCH 51 52
ATOM     52  CB  VAL B   2      56.884  21.130   5.368  1.00 32.52 LIG 0.01  C 
ATOM     53  CG1 VAL B   2      56.922  19.648   5.021  1.00 33.02 LIG 0.01  C 
ATOM     54  CG2 VAL B   2      57.679  21.394   6.640  1.00 33.85 LIG 0.01  C 
ENDBRANCH 51 52
BRANCH 51 55
ATOM     55  N   VAL B   2      58.138  23.160   4.717  1.00 33.13 LIG-0.35  N 
ATOM     56 H    VAL B   2      57.613  23.743   5.069  1.00 33.13 LIG 0.16  HD
ATOM     57  C   ALA B   1      59.455  23.306   4.636  1.00 33.26 LIG 0.25  C 
ATOM     58 O    ALA B   1      60.194  22.474   4.116  1.00 33.25 LIG-0.27  OA
BRANCH 57 59
ATOM     59  CA  ALA B   1      60.033  24.588   5.222  1.00 31.51 LIG 0.27  C 
ATOM     60  CB  ALA B   1      61.556  24.506   5.278  1.00 29.23 LIG 0.05  C 
BRANCH 59 61
ATOM     61  N   ALA B   1      59.490  24.753   6.562  1.00 32.32 LIG-0.07  N 
ATOM     62 H3   ALA B   1      59.992  24.304   7.143  1.00 32.32 LIG 0.28  HD
ATOM     63 H2   ALA B   1      58.657  24.440   6.586  1.00 32.32 LIG 0.28  HD
ATOM     64 H1   ALA B   1      59.488  25.616   6.777  1.00 32.32 LIG 0.28  HD
ENDBRANCH 59 61
ENDBRANCH 57 59
ENDBRANCH 51 55
ENDBRANCH 48 51
ENDBRANCH 45 47
ENDBRANCH 43 45
ENDBRANCH 1 41
TORSDOF 21
ENDMDL
MODEL 29
USER: ADFR SOLUTION from run 81
USER: SCORE 19.965184 LL:  -6.254 LR: -15.226 RR:   0.000 FEB:  -8.962
USER: RMSD 6.048626
USER: SEED 80
USER: STATUS searching
USER: GENES 23
USER: genes 0 Translation |==|  0.55596 0.46445 0.65509
USER: genes 1 Rotation |==|  0.19034 0.33266 0.14611 0.52953
USER: genes 2 Torsion [C]-CA--CB-[CG] |==|  0.10911
USER: genes 3 Torsion [CA]-CB--CG-[CD1] |==|  0.20715
USER: genes 4 Torsion [N]-CA--C-[N] |==|  0.41589
USER: genes 5 Torsion [C]-N--CA-[CB] |==|  0.24105
USER: genes 6 Torsion [N]-CA--CB-[CG] |==|  0.92951
USER: genes 7 Torsion [CA]-CB--CG-[CD1] |==|  0.25399
USER: genes 8 Torsion [CE2]-CZ--OH-[HH] |==|  0.33543
USER: genes 9 Torsion [N]-CA--C-[N] |==|  0.41804
USER: genes 10 Torsion [C]-N--CA-[C] |==|  0.82429
USER: genes 11 Torsion [N]-CA--CB-[CG1] |==|  0.66505
USER: genes 12 Torsion [CA]-CB--CG1-[CD1] |==|  0.08792
USER: genes 13 Torsion [N]-CA--C-[N] |==|  0.42069
USER: genes 14 Torsion [N]-CA--C-[O] |==|  0.56242
USER: genes 15 Torsion [CB]-CA--N-[C] |==|  0.85409
USER: genes 16 Torsion [N]-C--CA-[N] |==|  0.85796
USER: genes 17 Torsion [C]-CA--N-[C] |==|  0.79704
USER: genes 18 Torsion [N]-C--CA-[N] |==|  0.46447
USER: genes 19 Torsion [C]-CA--CB-[CG1] |==|  0.51979
USER: genes 20 Torsion [C]-CA--N-[C] |==|  0.78889
USER: genes 21 Torsion [N]-C--CA-[N] |==|  0.12009
USER: genes 22 Torsion [C]-CA--N-[H3] |==|  0.71134
ROOT
ATOM      1  CA  PHE B   4      54.790  25.665  -0.100  1.00 44.68 LIG 0.18  C 
ENDROOT
BRANCH 1 2
ATOM      2  CB  PHE B   4      55.993  25.883  -1.022  1.00 43.52 LIG 0.07  C 
BRANCH 2 3
ATOM      3  CG  PHE B   4      55.630  25.900  -2.478  1.00 43.42 LIG-0.06  A 
ATOM      4  CD2 PHE B   4      55.884  24.794  -3.282  1.00 43.71 LIG 0.01  A 
ATOM      5  CE2 PHE B   4      55.499  24.782  -4.625  1.00 44.42 LIG 0.00  A 
ATOM      6  CZ  PHE B   4      54.854  25.892  -5.170  1.00 44.23 LIG 0.00  A 
ATOM      7  CE1 PHE B   4      54.599  27.002  -4.373  1.00 42.62 LIG 0.00  A 
ATOM      8  CD1 PHE B   4      54.987  27.001  -3.035  1.00 43.35 LIG 0.01  A 
ENDBRANCH 2 3
ENDBRANCH 1 2
BRANCH 1 9
ATOM      9  C   PHE B   4      53.826  24.644  -0.687  1.00 47.70 LIG 0.24  C 
ATOM     10 O    PHE B   4      53.933  23.449  -0.415  1.00 47.98 LIG-0.27  OA
ATOM     11  N   TYR B   5      52.897  25.127  -1.505  1.00 50.93 LIG-0.35  N 
ATOM     12 H    TYR B   5      52.817  25.963  -1.688  1.00 50.93 LIG 0.16  HD
BRANCH 11 13
ATOM     13  CA  TYR B   5      51.916  24.276  -2.173  1.00 53.91 LIG 0.18  C 
BRANCH 13 14
ATOM     14  CB  TYR B   5      50.689  24.048  -1.286  1.00 56.99 LIG 0.07  C 
BRANCH 14 15
ATOM     15  CG  TYR B   5      50.971  24.186   0.201  1.00 60.80 LIG-0.06  A 
ATOM     16  CD2 TYR B   5      51.377  23.088   0.958  1.00 62.97 LIG 0.01  A 
ATOM     17  CE2 TYR B   5      51.617  23.206   2.329  1.00 63.70 LIG 0.04  A 
ATOM     18  CZ  TYR B   5      51.450  24.436   2.949  1.00 64.21 LIG 0.07  A 
ATOM     19  CE1 TYR B   5      51.052  25.541   2.217  1.00 63.24 LIG 0.04  A 
ATOM     20  CD1 TYR B   5      50.817  25.412   0.854  1.00 61.93 LIG 0.01  A 
BRANCH 18 21
ATOM     21 OH   TYR B   5      51.666  24.560   4.302  1.00 64.43 LIG-0.36  OA
ATOM     22 HH   TYR B   5      52.271  25.127   4.440  1.00 64.43 LIG 0.22  HD
ENDBRANCH 18 21
ENDBRANCH 14 15
ENDBRANCH 13 14
BRANCH 13 23
ATOM     23  C   TYR B   5      51.481  24.958  -3.462  1.00 54.78 LIG 0.24  C 
ATOM     24  N   ILE B   6      51.110  24.157  -4.456  1.00 56.06 LIG-0.35  N 
ATOM     25 H    ILE B   6      51.109  23.299  -4.405  1.00 56.06 LIG 0.16  HD
ATOM     26 O    TYR B   5      51.476  26.186  -3.550  1.00 54.12 LIG-0.27  OA
BRANCH 24 27
ATOM     27  CA  ILE B   6      50.665  24.684  -5.741  1.00 57.79 LIG 0.18  C 
BRANCH 27 28
ATOM     28  CB  ILE B   6      50.414  23.539  -6.754  1.00 57.25 LIG 0.01  C 
ATOM     29  CG2 ILE B   6      48.960  23.528  -7.191  1.00 56.12 LIG 0.01  C 
BRANCH 28 30
ATOM     30  CG1 ILE B   6      51.316  23.727  -7.975  1.00 57.80 LIG 0.00  C 
ATOM     31  CD1 ILE B   6      52.637  24.380  -7.644  1.00 58.80 LIG 0.01  C 
ENDBRANCH 28 30
ENDBRANCH 27 28
BRANCH 27 32
ATOM     32  C   ILE B   6      49.388  25.505  -5.579  1.00 59.33 LIG 0.24  C 
ATOM     33 O    ILE B   6      48.589  25.265  -4.668  1.00 59.66 LIG-0.27  OA
ATOM     34  N   PRO B   7      49.183  26.494  -6.464  1.00 60.44 LIG-0.34  N 
ATOM     35  CA  PRO B   7      48.005  27.365  -6.435  1.00 61.29 LIG 0.17  C 
ATOM     36  CD  PRO B   7      50.088  26.883  -7.560  1.00 60.37 LIG 0.13  C 
ATOM     37  CB  PRO B   7      48.122  28.133  -7.746  1.00 61.79 LIG 0.04  C 
ATOM     38  CG  PRO B   7      49.599  28.273  -7.901  1.00 60.72 LIG 0.02  C 
BRANCH 35 39
ATOM     39  C   PRO B   7      46.689  26.594  -6.331  1.00 62.02 LIG 0.22  C 
ATOM     40 O    PRO B   7      45.633  27.102  -6.698  1.00 61.64 LIG-0.29  OA
ENDBRANCH 35 39
ENDBRANCH 27 32
ENDBRANCH 24 27
ENDBRANCH 13 23
ENDBRANCH 11 13
ENDBRANCH 1 9
BRANCH 1 41
ATOM     41  N   PHE B   4      55.245  25.243   1.214  1.00 40.22 LIG-0.35  N 
ATOM     42 H    PHE B   4      54.937  25.709   1.868  1.00 40.22 LIG 0.16  HD
ATOM     43  C   ALA B   3      56.070  24.214   1.358  1.00 36.80 LIG 0.24  C 
ATOM     44 O    ALA B   3      56.486  23.556   0.407  1.00 35.05 LIG-0.27  OA
BRANCH 43 45
ATOM     45  CA  ALA B   3      56.480  23.867   2.783  1.00 35.42 LIG 0.17  C 
ATOM     46  CB  ALA B   3      55.293  23.304   3.543  1.00 34.55 LIG 0.04  C 
BRANCH 45 47
ATOM     47  N   ALA B   3      56.957  25.085   3.421  1.00 34.22 LIG-0.35  N 
ATOM     48  C   VAL B   2      58.134  25.609   3.098  1.00 33.55 LIG 0.24  C 
ATOM     49 O    VAL B   2      58.888  25.094   2.273  1.00 34.35 LIG-0.27  OA
ATOM     50 H    ALA B   3      56.423  25.418   4.006  1.00 34.22 LIG 0.16  HD
BRANCH 48 51
ATOM     51  CA  VAL B   2      58.518  26.902   3.812  1.00 33.22 LIG 0.18  C 
BRANCH 51 52
ATOM     52  CB  VAL B   2      57.614  28.044   3.287  1.00 32.52 LIG 0.01  C 
ATOM     53  CG1 VAL B   2      58.075  29.387   3.840  1.00 33.02 LIG 0.01  C 
ATOM     54  CG2 VAL B   2      57.640  28.064   1.765  1.00 33.85 LIG 0.01  C 
ENDBRANCH 51 52
BRANCH 51 55
ATOM     55  N   VAL B   2      59.926  27.230   3.618  1.00 33.13 LIG-0.35  N 
ATOM     56 H    VAL B   2      60.067  27.863   3.053  1.00 33.13 LIG 0.16  HD
ATOM     57  C   ALA B   1      60.892  26.594   4.270  1.00 33.26 LIG 0.25  C 
ATOM     58 O    ALA B   1      60.681  25.680   5.062  1.00 33.25 LIG-0.27  OA
BRANCH 57 59
ATOM     59  CA  ALA B   1      62.317  27.047   3.981  1.00 31.51 LIG 0.27  C 
ATOM     60  CB  ALA B   1      63.266  26.535   5.062  1.00 29.23 LIG 0.05  C 
BRANCH 59 61
ATOM     61  N   ALA B   1      62.328  28.502   3.953  1.00 32.32 LIG-0.07  N 
ATOM     62 H3   ALA B   1      62.371  28.783   3.110  1.00 32.32 LIG 0.28  HD
ATOM     63 H2   ALA B   1      63.036  28.803   4.401  1.00 32.32 LIG 0.28  HD
ATOM     64 H1   ALA B   1      61.584  28.812   4.331  1.00 32.32 LIG 0.28  HD
ENDBRANCH 59 61
ENDBRANCH 57 59
ENDBRANCH 51 55
ENDBRANCH 48 51
ENDBRANCH 45 47
ENDBRANCH 43 45
ENDBRANCH 1 41
TORSDOF 21
ENDMDL
MODEL 30
USER: ADFR SOLUTION from run 65
USER: SCORE 19.370359 LL:  -5.271 LR: -15.217 RR:   0.000 FEB:  -8.953
USER: RMSD 11.318579
USER: SEED 64
USER: STATUS searching
USER: GENES 23
USER: genes 0 Translation |==|  0.50787 0.50375 0.51409
USER: genes 1 Rotation |==|  0.13502 0.24904 0.72183 0.56784
USER: genes 2 Torsion [C]-CA--CB-[CG] |==|  0.40530
USER: genes 3 Torsion [CA]-CB--CG-[CD1] |==|  0.59616
USER: genes 4 Torsion [N]-CA--C-[N] |==|  0.47222
USER: genes 5 Torsion [C]-N--CA-[CB] |==|  0.18493
USER: genes 6 Torsion [N]-CA--CB-[CG] |==|  0.49772
USER: genes 7 Torsion [CA]-CB--CG-[CD1] |==|  0.60080
USER: genes 8 Torsion [CE2]-CZ--OH-[HH] |==|  0.67742
USER: genes 9 Torsion [N]-CA--C-[N] |==|  0.03957
USER: genes 10 Torsion [C]-N--CA-[C] |==|  0.83854
USER: genes 11 Torsion [N]-CA--CB-[CG1] |==|  0.05387
USER: genes 12 Torsion [CA]-CB--CG1-[CD1] |==|  0.38818
USER: genes 13 Torsion [N]-CA--C-[N] |==|  0.43324
USER: genes 14 Torsion [N]-CA--C-[O] |==|  0.88425
USER: genes 15 Torsion [CB]-CA--N-[C] |==|  0.84633
USER: genes 16 Torsion [N]-C--CA-[N] |==|  0.97026
USER: genes 17 Torsion [C]-CA--N-[C] |==|  0.79698
USER: genes 18 Torsion [N]-C--CA-[N] |==|  0.12700
USER: genes 19 Torsion [C]-CA--CB-[CG1] |==|  0.21212
USER: genes 20 Torsion [C]-CA--N-[C] |==|  0.16516
USER: genes 21 Torsion [N]-C--CA-[N] |==|  0.47134
USER: genes 22 Torsion [C]-CA--N-[H3] |==|  0.29634
ROOT
ATOM      1  CA  PHE B   4      53.672  26.314  -3.589  1.00 44.68 LIG 0.18  C 
ENDROOT
BRANCH 1 2
ATOM      2  CB  PHE B   4      52.726  25.117  -3.731  1.00 43.52 LIG 0.07  C 
BRANCH 2 3
ATOM      3  CG  PHE B   4      51.320  25.509  -4.076  1.00 43.42 LIG-0.06  A 
ATOM      4  CD2 PHE B   4      51.073  26.572  -4.939  1.00 43.71 LIG 0.01  A 
ATOM      5  CE2 PHE B   4      49.768  26.907  -5.307  1.00 44.42 LIG 0.00  A 
ATOM      6  CZ  PHE B   4      48.696  26.171  -4.801  1.00 44.23 LIG 0.00  A 
ATOM      7  CE1 PHE B   4      48.934  25.110  -3.936  1.00 42.62 LIG 0.00  A 
ATOM      8  CD1 PHE B   4      50.241  24.785  -3.578  1.00 43.35 LIG 0.01  A 
ENDBRANCH 2 3
ENDBRANCH 1 2
BRANCH 1 9
ATOM      9  C   PHE B   4      54.722  26.059  -2.516  1.00 47.70 LIG 0.24  C 
ATOM     10 O    PHE B   4      55.907  25.915  -2.817  1.00 47.98 LIG-0.27  OA
ATOM     11  N   TYR B   5      54.271  25.991  -1.269  1.00 50.93 LIG-0.35  N 
ATOM     12 H    TYR B   5      53.445  26.101  -1.058  1.00 50.93 LIG 0.16  HD
BRANCH 11 13
ATOM     13  CA  TYR B   5      55.144  25.723  -0.129  1.00 53.91 LIG 0.18  C 
BRANCH 13 14
ATOM     14  CB  TYR B   5      56.127  26.876   0.095  1.00 56.99 LIG 0.07  C 
BRANCH 14 15
ATOM     15  CG  TYR B   5      57.055  26.671   1.281  1.00 60.80 LIG-0.06  A 
ATOM     16  CD2 TYR B   5      57.534  25.403   1.605  1.00 62.97 LIG 0.01  A 
ATOM     17  CE2 TYR B   5      58.371  25.209   2.707  1.00 63.70 LIG 0.04  A 
ATOM     18  CZ  TYR B   5      58.732  26.295   3.492  1.00 64.21 LIG 0.07  A 
ATOM     19  CE1 TYR B   5      58.272  27.563   3.187  1.00 63.24 LIG 0.04  A 
ATOM     20  CD1 TYR B   5      57.441  27.745   2.088  1.00 61.93 LIG 0.01  A 
BRANCH 18 21
ATOM     21 OH   TYR B   5      59.541  26.111   4.590  1.00 64.43 LIG-0.36  OA
ATOM     22 HH   TYR B   5      59.118  26.313   5.287  1.00 64.43 LIG 0.22  HD
ENDBRANCH 18 21
ENDBRANCH 14 15
ENDBRANCH 13 14
BRANCH 13 23
ATOM     23  C   TYR B   5      54.282  25.553   1.113  1.00 54.78 LIG 0.24  C 
ATOM     24  N   ILE B   6      52.980  25.380   0.906  1.00 56.06 LIG-0.35  N 
ATOM     25 H    ILE B   6      52.615  25.365   0.127  1.00 56.06 LIG 0.16  HD
ATOM     26 O    TYR B   5      54.788  25.573   2.234  1.00 54.12 LIG-0.27  OA
BRANCH 24 27
ATOM     27  CA  ILE B   6      52.044  25.199   2.011  1.00 57.79 LIG 0.18  C 
BRANCH 27 28
ATOM     28  CB  ILE B   6      50.597  25.016   1.490  1.00 57.25 LIG 0.01  C 
ATOM     29  CG2 ILE B   6      49.813  26.307   1.639  1.00 56.12 LIG 0.01  C 
BRANCH 28 30
ATOM     30  CG1 ILE B   6      50.630  24.602   0.018  1.00 57.80 LIG 0.00  C 
ATOM     31  CD1 ILE B   6      49.604  23.547  -0.326  1.00 58.80 LIG 0.01  C 
ENDBRANCH 28 30
ENDBRANCH 27 28
BRANCH 27 32
ATOM     32  C   ILE B   6      52.432  23.990   2.859  1.00 59.33 LIG 0.24  C 
ATOM     33 O    ILE B   6      53.112  23.073   2.386  1.00 59.66 LIG-0.27  OA
ATOM     34  N   PRO B   7      52.008  23.978   4.133  1.00 60.44 LIG-0.34  N 
ATOM     35  CA  PRO B   7      52.302  22.886   5.066  1.00 61.29 LIG 0.17  C 
ATOM     36  CD  PRO B   7      51.227  25.034   4.801  1.00 60.37 LIG 0.13  C 
ATOM     37  CB  PRO B   7      51.422  23.222   6.264  1.00 61.79 LIG 0.04  C 
ATOM     38  CG  PRO B   7      51.441  24.714   6.264  1.00 60.72 LIG 0.02  C 
BRANCH 35 39
ATOM     39  C   PRO B   7      51.994  21.504   4.490  1.00 62.02 LIG 0.22  C 
ATOM     40 O    PRO B   7      50.974  21.310   3.833  1.00 61.64 LIG-0.29  OA
ENDBRANCH 35 39
ENDBRANCH 27 32
ENDBRANCH 24 27
ENDBRANCH 13 23
ENDBRANCH 11 13
ENDBRANCH 1 9
BRANCH 1 41
ATOM     41  N   PHE B   4      54.304  26.599  -4.866  1.00 40.22 LIG-0.35  N 
ATOM     42 H    PHE B   4      54.201  27.405  -5.146  1.00 40.22 LIG 0.16  HD
ATOM     43  C   ALA B   3      54.981  25.664  -5.522  1.00 36.80 LIG 0.24  C 
ATOM     44 O    ALA B   3      55.124  24.522  -5.094  1.00 35.05 LIG-0.27  OA
BRANCH 43 45
ATOM     45  CA  ALA B   3      55.596  26.080  -6.852  1.00 35.42 LIG 0.17  C 
ATOM     46  CB  ALA B   3      57.107  26.146  -6.727  1.00 34.55 LIG 0.04  C 
BRANCH 45 47
ATOM     47  N   ALA B   3      55.060  27.387  -7.204  1.00 34.22 LIG-0.35  N 
ATOM     48  C   VAL B   2      53.807  27.522  -7.622  1.00 33.55 LIG 0.24  C 
ATOM     49 O    VAL B   2      53.045  26.565  -7.757  1.00 34.35 LIG-0.27  OA
ATOM     50 H    ALA B   3      55.615  28.038  -7.118  1.00 34.22 LIG 0.16  HD
BRANCH 48 51
ATOM     51  CA  VAL B   2      53.347  28.942  -7.937  1.00 33.22 LIG 0.18  C 
BRANCH 51 52
ATOM     52  CB  VAL B   2      51.992  28.869  -8.681  1.00 32.52 LIG 0.01  C 
ATOM     53  CG1 VAL B   2      50.863  28.561  -7.706  1.00 33.02 LIG 0.01  C 
ATOM     54  CG2 VAL B   2      51.725  30.187  -9.396  1.00 33.85 LIG 0.01  C 
ENDBRANCH 51 52
BRANCH 51 55
ATOM     55  N   VAL B   2      54.332  29.668  -8.730  1.00 33.13 LIG-0.35  N 
ATOM     56 H    VAL B   2      54.627  30.385  -8.358  1.00 33.13 LIG 0.16  HD
ATOM     57  C   ALA B   1      54.726  29.241  -9.924  1.00 33.26 LIG 0.25  C 
ATOM     58 O    ALA B   1      54.285  28.224 -10.455  1.00 33.25 LIG-0.27  OA
BRANCH 57 59
ATOM     59  CA  ALA B   1      55.769  30.090 -10.638  1.00 31.51 LIG 0.27  C 
ATOM     60  CB  ALA B   1      55.159  31.416 -11.086  1.00 29.23 LIG 0.05  C 
BRANCH 59 61
ATOM     61  N   ALA B   1      56.244  29.341 -11.792  1.00 32.32 LIG-0.07  N 
ATOM     62 H3   ALA B   1      55.913  29.700 -12.535  1.00 32.32 LIG 0.28  HD
ATOM     63 H2   ALA B   1      55.978  28.495 -11.727  1.00 32.32 LIG 0.28  HD
ATOM     64 H1   ALA B   1      57.133  29.372 -11.819  1.00 32.32 LIG 0.28  HD
ENDBRANCH 59 61
ENDBRANCH 57 59
ENDBRANCH 51 55
ENDBRANCH 48 51
ENDBRANCH 45 47
ENDBRANCH 43 45
ENDBRANCH 1 41
TORSDOF 21
ENDMDL
MODEL 31
USER: ADFR SOLUTION from run 96
USER: SCORE 20.356397 LL:  -6.446 LR: -15.207 RR:   0.000 FEB:  -8.943
USER: RMSD 8.316272
USER: SEED 95
USER: STATUS no improvement in best in 3 clusters for 5 generations
USER: GENES 23
USER: genes 0 Translation |==|  0.63465 0.43453 0.68316
USER: genes 1 Rotation |==|  0.95961 0.63364 0.63720 0.54559
USER: genes 2 Torsion [C]-CA--CB-[CG] |==|  0.25762
USER: genes 3 Torsion [CA]-CB--CG-[CD1] |==|  0.50712
USER: genes 4 Torsion [N]-CA--C-[N] |==|  0.84449
USER: genes 5 Torsion [C]-N--CA-[CB] |==|  0.88749
USER: genes 6 Torsion [N]-CA--CB-[CG] |==|  0.46610
USER: genes 7 Torsion [CA]-CB--CG-[CD1] |==|  0.14433
USER: genes 8 Torsion [CE2]-CZ--OH-[HH] |==|  0.22164
USER: genes 9 Torsion [N]-CA--C-[N] |==|  0.87333
USER: genes 10 Torsion [C]-N--CA-[C] |==|  0.60981
USER: genes 11 Torsion [N]-CA--CB-[CG1] |==|  0.07688
USER: genes 12 Torsion [CA]-CB--CG1-[CD1] |==|  0.40388
USER: genes 13 Torsion [N]-CA--C-[N] |==|  0.48333
USER: genes 14 Torsion [N]-CA--C-[O] |==|  0.53609
USER: genes 15 Torsion [CB]-CA--N-[C] |==|  0.88205
USER: genes 16 Torsion [N]-C--CA-[N] |==|  0.99514
USER: genes 17 Torsion [C]-CA--N-[C] |==|  0.70493
USER: genes 18 Torsion [N]-C--CA-[N] |==|  0.95769
USER: genes 19 Torsion [C]-CA--CB-[CG1] |==|  0.52136
USER: genes 20 Torsion [C]-CA--N-[C] |==|  0.79723
USER: genes 21 Torsion [N]-C--CA-[N] |==|  0.05131
USER: genes 22 Torsion [C]-CA--N-[H3] |==|  0.07204
ROOT
ATOM      1  CA  PHE B   4      56.620  25.172   0.595  1.00 44.68 LIG 0.18  C 
ENDROOT
BRANCH 1 2
ATOM      2  CB  PHE B   4      56.527  24.530  -0.793  1.00 43.52 LIG 0.07  C 
BRANCH 2 3
ATOM      3  CG  PHE B   4      55.858  25.408  -1.809  1.00 43.42 LIG-0.06  A 
ATOM      4  CD2 PHE B   4      55.485  26.708  -1.485  1.00 43.71 LIG 0.01  A 
ATOM      5  CE2 PHE B   4      54.912  27.548  -2.443  1.00 44.42 LIG 0.00  A 
ATOM      6  CZ  PHE B   4      54.707  27.080  -3.741  1.00 44.23 LIG 0.00  A 
ATOM      7  CE1 PHE B   4      55.075  25.781  -4.072  1.00 42.62 LIG 0.00  A 
ATOM      8  CD1 PHE B   4      55.647  24.953  -3.107  1.00 43.35 LIG 0.01  A 
ENDBRANCH 2 3
ENDBRANCH 1 2
BRANCH 1 9
ATOM      9  C   PHE B   4      55.426  24.785   1.459  1.00 47.70 LIG 0.24  C 
ATOM     10 O    PHE B   4      54.610  25.632   1.819  1.00 47.98 LIG-0.27  OA
ATOM     11  N   TYR B   5      55.345  23.502   1.793  1.00 50.93 LIG-0.35  N 
ATOM     12 H    TYR B   5      55.910  22.908   1.533  1.00 50.93 LIG 0.16  HD
BRANCH 11 13
ATOM     13  CA  TYR B   5      54.279  22.975   2.641  1.00 53.91 LIG 0.18  C 
BRANCH 13 14
ATOM     14  CB  TYR B   5      53.965  23.935   3.792  1.00 56.99 LIG 0.07  C 
BRANCH 14 15
ATOM     15  CG  TYR B   5      52.684  23.602   4.538  1.00 60.80 LIG-0.06  A 
ATOM     16  CD2 TYR B   5      51.710  24.575   4.758  1.00 62.97 LIG 0.01  A 
ATOM     17  CE2 TYR B   5      50.541  24.278   5.462  1.00 63.70 LIG 0.04  A 
ATOM     18  CZ  TYR B   5      50.343  22.994   5.950  1.00 64.21 LIG 0.07  A 
ATOM     19  CE1 TYR B   5      51.294  22.011   5.740  1.00 63.24 LIG 0.04  A 
ATOM     20  CD1 TYR B   5      52.453  22.318   5.038  1.00 61.93 LIG 0.01  A 
BRANCH 18 21
ATOM     21 OH   TYR B   5      49.203  22.695   6.660  1.00 64.43 LIG-0.36  OA
ATOM     22 HH   TYR B   5      48.565  22.571   6.127  1.00 64.43 LIG 0.22  HD
ENDBRANCH 18 21
ENDBRANCH 14 15
ENDBRANCH 13 14
BRANCH 13 23
ATOM     23  C   TYR B   5      53.031  22.789   1.791  1.00 54.78 LIG 0.24  C 
ATOM     24  N   ILE B   6      52.715  23.795   0.980  1.00 56.06 LIG-0.35  N 
ATOM     25 H    ILE B   6      53.169  24.524   0.921  1.00 56.06 LIG 0.16  HD
ATOM     26 O    TYR B   5      52.372  21.753   1.864  1.00 54.12 LIG-0.27  OA
BRANCH 24 27
ATOM     27  CA  ILE B   6      51.547  23.742   0.108  1.00 57.79 LIG 0.18  C 
BRANCH 27 28
ATOM     28  CB  ILE B   6      50.345  24.483   0.742  1.00 57.25 LIG 0.01  C 
ATOM     29  CG2 ILE B   6      49.476  23.513   1.522  1.00 56.12 LIG 0.01  C 
BRANCH 28 30
ATOM     30  CG1 ILE B   6      50.854  25.582   1.676  1.00 57.80 LIG 0.00  C 
ATOM     31  CD1 ILE B   6      49.971  26.809   1.687  1.00 58.80 LIG 0.01  C 
ENDBRANCH 28 30
ENDBRANCH 27 28
BRANCH 27 32
ATOM     32  C   ILE B   6      51.859  24.356  -1.255  1.00 59.33 LIG 0.24  C 
ATOM     33 O    ILE B   6      52.942  24.909  -1.470  1.00 59.66 LIG-0.27  OA
ATOM     34  N   PRO B   7      50.908  24.261  -2.198  1.00 60.44 LIG-0.34  N 
ATOM     35  CA  PRO B   7      51.062  24.803  -3.551  1.00 61.29 LIG 0.17  C 
ATOM     36  CD  PRO B   7      49.602  23.593  -2.054  1.00 60.37 LIG 0.13  C 
ATOM     37  CB  PRO B   7      49.662  24.656  -4.134  1.00 61.79 LIG 0.04  C 
ATOM     38  CG  PRO B   7      49.181  23.398  -3.493  1.00 60.72 LIG 0.02  C 
BRANCH 35 39
ATOM     39  C   PRO B   7      51.548  26.252  -3.566  1.00 62.02 LIG 0.22  C 
ATOM     40 O    PRO B   7      51.501  26.920  -4.596  1.00 61.64 LIG-0.29  OA
ENDBRANCH 35 39
ENDBRANCH 27 32
ENDBRANCH 24 27
ENDBRANCH 13 23
ENDBRANCH 11 13
ENDBRANCH 1 9
BRANCH 1 41
ATOM     41  N   PHE B   4      57.863  24.783   1.238  1.00 40.22 LIG-0.35  N 
ATOM     42 H    PHE B   4      58.269  25.419   1.649  1.00 40.22 LIG 0.16  HD
ATOM     43  C   ALA B   3      58.309  23.534   1.174  1.00 36.80 LIG 0.24  C 
ATOM     44 O    ALA B   3      57.703  22.640   0.589  1.00 35.05 LIG-0.27  OA
BRANCH 43 45
ATOM     45  CA  ALA B   3      59.626  23.247   1.884  1.00 35.42 LIG 0.17  C 
ATOM     46  CB  ALA B   3      59.413  22.218   2.979  1.00 34.55 LIG 0.04  C 
BRANCH 45 47
ATOM     47  N   ALA B   3      60.110  24.497   2.451  1.00 34.22 LIG-0.35  N 
ATOM     48  C   VAL B   2      61.137  25.142   1.908  1.00 33.55 LIG 0.24  C 
ATOM     49 O    VAL B   2      61.744  24.717   0.925  1.00 34.35 LIG-0.27  OA
ATOM     50 H    ALA B   3      59.683  24.766   3.147  1.00 34.22 LIG 0.16  HD
BRANCH 48 51
ATOM     51  CA  VAL B   2      61.540  26.456   2.572  1.00 33.22 LIG 0.18  C 
BRANCH 51 52
ATOM     52  CB  VAL B   2      62.868  26.237   3.336  1.00 32.52 LIG 0.01  C 
ATOM     53  CG1 VAL B   2      63.213  27.464   4.169  1.00 33.02 LIG 0.01  C 
ATOM     54  CG2 VAL B   2      62.753  25.008   4.228  1.00 33.85 LIG 0.01  C 
ENDBRANCH 51 52
BRANCH 51 55
ATOM     55  N   VAL B   2      60.503  26.948   3.473  1.00 33.13 LIG-0.35  N 
ATOM     56 H    VAL B   2      60.694  26.867   4.308  1.00 33.13 LIG 0.16  HD
ATOM     57  C   ALA B   1      59.370  27.472   3.021  1.00 33.26 LIG 0.25  C 
ATOM     58 O    ALA B   1      59.101  27.568   1.827  1.00 33.25 LIG-0.27  OA
BRANCH 57 59
ATOM     59  CA  ALA B   1      58.382  27.958   4.073  1.00 31.51 LIG 0.27  C 
ATOM     60  CB  ALA B   1      57.758  29.284   3.642  1.00 29.23 LIG 0.05  C 
BRANCH 59 61
ATOM     61  N   ALA B   1      59.104  28.127   5.324  1.00 32.32 LIG-0.07  N 
ATOM     62 H3   ALA B   1      59.963  28.285   5.152  1.00 32.32 LIG 0.28  HD
ATOM     63 H2   ALA B   1      59.032  27.387   5.812  1.00 32.32 LIG 0.28  HD
ATOM     64 H1   ALA B   1      58.762  28.814   5.774  1.00 32.32 LIG 0.28  HD
ENDBRANCH 59 61
ENDBRANCH 57 59
ENDBRANCH 51 55
ENDBRANCH 48 51
ENDBRANCH 45 47
ENDBRANCH 43 45
ENDBRANCH 1 41
TORSDOF 21
ENDMDL
MODEL 32
USER: ADFR SOLUTION from run 181
USER: SCORE 18.201347 LL:  -4.841 LR: -15.166 RR:   0.000 FEB:  -8.901
USER: RMSD 10.688702
USER: SEED 180
USER: STATUS searching
USER: GENES 23
USER: genes 0 Translation |==|  0.51381 0.51751 0.51529
USER: genes 1 Rotation |==|  0.13469 0.23486 0.69892 0.58176
USER: genes 2 Torsion [C]-CA--CB-[CG] |==|  0.41802
USER: genes 3 Torsion [CA]-CB--CG-[CD1] |==|  0.63135
USER: genes 4 Torsion [N]-CA--C-[N] |==|  0.43281
USER: genes 5 Torsion [C]-N--CA-[CB] |==|  0.22057
USER: genes 6 Torsion [N]-CA--CB-[CG] |==|  0.50457
USER: genes 7 Torsion [CA]-CB--CG-[CD1] |==|  0.59040
USER: genes 8 Torsion [CE2]-CZ--OH-[HH] |==|  0.69758
USER: genes 9 Torsion [N]-CA--C-[N] |==|  0.03836
USER: genes 10 Torsion [C]-N--CA-[C] |==|  0.84987
USER: genes 11 Torsion [N]-CA--CB-[CG1] |==|  0.05192
USER: genes 12 Torsion [CA]-CB--CG1-[CD1] |==|  0.21448
USER: genes 13 Torsion [N]-CA--C-[N] |==|  0.41855
USER: genes 14 Torsion [N]-CA--C-[O] |==|  0.91235
USER: genes 15 Torsion [CB]-CA--N-[C] |==|  0.83875
USER: genes 16 Torsion [N]-C--CA-[N] |==|  0.40853
USER: genes 17 Torsion [C]-CA--N-[C] |==|  0.53519
USER: genes 18 Torsion [N]-C--CA-[N] |==|  0.71170
USER: genes 19 Torsion [C]-CA--CB-[CG1] |==|  0.21316
USER: genes 20 Torsion [C]-CA--N-[C] |==|  0.73633
USER: genes 21 Torsion [N]-C--CA-[N] |==|  0.62757
USER: genes 22 Torsion [C]-CA--N-[H3] |==|  0.71342
ROOT
ATOM      1  CA  PHE B   4      53.810  26.541  -3.560  1.00 44.68 LIG 0.18  C 
ENDROOT
BRANCH 1 2
ATOM      2  CB  PHE B   4      52.880  25.367  -3.879  1.00 43.52 LIG 0.07  C 
BRANCH 2 3
ATOM      3  CG  PHE B   4      51.521  25.796  -4.348  1.00 43.42 LIG-0.06  A 
ATOM      4  CD2 PHE B   4      51.389  26.738  -5.363  1.00 43.71 LIG 0.01  A 
ATOM      5  CE2 PHE B   4      50.128  27.102  -5.843  1.00 44.42 LIG 0.00  A 
ATOM      6  CZ  PHE B   4      48.985  26.516  -5.297  1.00 44.23 LIG 0.00  A 
ATOM      7  CE1 PHE B   4      49.109  25.576  -4.281  1.00 42.62 LIG 0.00  A 
ATOM      8  CD1 PHE B   4      50.373  25.222  -3.813  1.00 43.35 LIG 0.01  A 
ENDBRANCH 2 3
ENDBRANCH 1 2
BRANCH 1 9
ATOM      9  C   PHE B   4      54.810  26.169  -2.473  1.00 47.70 LIG 0.24  C 
ATOM     10 O    PHE B   4      55.950  25.808  -2.765  1.00 47.98 LIG-0.27  OA
ATOM     11  N   TYR B   5      54.365  26.248  -1.224  1.00 50.93 LIG-0.35  N 
ATOM     12 H    TYR B   5      53.572  26.509  -1.020  1.00 50.93 LIG 0.16  HD
BRANCH 11 13
ATOM     13  CA  TYR B   5      55.189  25.897  -0.071  1.00 53.91 LIG 0.18  C 
BRANCH 13 14
ATOM     14  CB  TYR B   5      56.155  27.032   0.282  1.00 56.99 LIG 0.07  C 
BRANCH 14 15
ATOM     15  CG  TYR B   5      57.072  26.718   1.451  1.00 60.80 LIG-0.06  A 
ATOM     16  CD2 TYR B   5      57.502  25.414   1.695  1.00 62.97 LIG 0.01  A 
ATOM     17  CE2 TYR B   5      58.328  25.118   2.782  1.00 63.70 LIG 0.04  A 
ATOM     18  CZ  TYR B   5      58.731  26.138   3.633  1.00 64.21 LIG 0.07  A 
ATOM     19  CE1 TYR B   5      58.320  27.440   3.409  1.00 63.24 LIG 0.04  A 
ATOM     20  CD1 TYR B   5      57.499  27.723   2.324  1.00 61.93 LIG 0.01  A 
BRANCH 18 21
ATOM     21 OH   TYR B   5      59.530  25.855   4.717  1.00 64.43 LIG-0.36  OA
ATOM     22 HH   TYR B   5      59.083  25.934   5.424  1.00 64.43 LIG 0.22  HD
ENDBRANCH 18 21
ENDBRANCH 14 15
ENDBRANCH 13 14
BRANCH 13 23
ATOM     23  C   TYR B   5      54.274  25.632   1.116  1.00 54.78 LIG 0.24  C 
ATOM     24  N   ILE B   6      52.982  25.481   0.841  1.00 56.06 LIG-0.35  N 
ATOM     25 H    ILE B   6      52.652  25.529   0.049  1.00 56.06 LIG 0.16  HD
ATOM     26 O    TYR B   5      54.732  25.561   2.256  1.00 54.12 LIG-0.27  OA
BRANCH 24 27
ATOM     27  CA  ILE B   6      52.000  25.217   1.887  1.00 57.79 LIG 0.18  C 
BRANCH 27 28
ATOM     28  CB  ILE B   6      50.594  24.981   1.283  1.00 57.25 LIG 0.01  C 
ATOM     29  CG2 ILE B   6      49.733  26.220   1.445  1.00 56.12 LIG 0.01  C 
BRANCH 28 30
ATOM     30  CG1 ILE B   6      50.724  24.636  -0.201  1.00 57.80 LIG 0.00  C 
ATOM     31  CD1 ILE B   6      51.166  23.212  -0.444  1.00 58.80 LIG 0.01  C 
ENDBRANCH 28 30
ENDBRANCH 27 28
BRANCH 27 32
ATOM     32  C   ILE B   6      52.405  24.000   2.717  1.00 59.33 LIG 0.24  C 
ATOM     33 O    ILE B   6      53.074  23.088   2.222  1.00 59.66 LIG-0.27  OA
ATOM     34  N   PRO B   7      52.006  23.977   3.999  1.00 60.44 LIG-0.34  N 
ATOM     35  CA  PRO B   7      52.317  22.878   4.916  1.00 61.29 LIG 0.17  C 
ATOM     36  CD  PRO B   7      51.239  25.028   4.692  1.00 60.37 LIG 0.13  C 
ATOM     37  CB  PRO B   7      51.462  23.203   6.134  1.00 61.79 LIG 0.04  C 
ATOM     38  CG  PRO B   7      51.481  24.695   6.147  1.00 60.72 LIG 0.02  C 
BRANCH 35 39
ATOM     39  C   PRO B   7      51.998  21.501   4.335  1.00 62.02 LIG 0.22  C 
ATOM     40 O    PRO B   7      51.067  21.352   3.547  1.00 61.64 LIG-0.29  OA
ENDBRANCH 35 39
ENDBRANCH 27 32
ENDBRANCH 24 27
ENDBRANCH 13 23
ENDBRANCH 11 13
ENDBRANCH 1 9
BRANCH 1 41
ATOM     41  N   PHE B   4      54.500  26.967  -4.765  1.00 40.22 LIG-0.35  N 
ATOM     42 H    PHE B   4      54.375  27.791  -4.978  1.00 40.22 LIG 0.16  HD
ATOM     43  C   ALA B   3      55.256  26.125  -5.459  1.00 36.80 LIG 0.24  C 
ATOM     44 O    ALA B   3      55.428  24.955  -5.126  1.00 35.05 LIG-0.27  OA
BRANCH 43 45
ATOM     45  CA  ALA B   3      55.925  26.686  -6.707  1.00 35.42 LIG 0.17  C 
ATOM     46  CB  ALA B   3      55.047  26.445  -7.921  1.00 34.55 LIG 0.04  C 
BRANCH 45 47
ATOM     47  N   ALA B   3      57.207  26.013  -6.868  1.00 34.22 LIG-0.35  N 
ATOM     48  C   VAL B   2      58.115  26.470  -7.722  1.00 33.55 LIG 0.24  C 
ATOM     49 O    VAL B   2      57.923  27.456  -8.433  1.00 34.35 LIG-0.27  OA
ATOM     50 H    ALA B   3      57.312  25.317  -6.374  1.00 34.22 LIG 0.16  HD
BRANCH 48 51
ATOM     51  CA  VAL B   2      59.431  25.700  -7.787  1.00 33.22 LIG 0.18  C 
BRANCH 51 52
ATOM     52  CB  VAL B   2      59.212  24.295  -7.175  1.00 32.52 LIG 0.01  C 
ATOM     53  CG1 VAL B   2      58.475  23.393  -8.157  1.00 33.02 LIG 0.01  C 
ATOM     54  CG2 VAL B   2      60.555  23.681  -6.802  1.00 33.85 LIG 0.01  C 
ENDBRANCH 51 52
BRANCH 51 55
ATOM     55  N   VAL B   2      60.505  26.402  -7.093  1.00 33.13 LIG-0.35  N 
ATOM     56 H    VAL B   2      60.537  26.250  -6.247  1.00 33.13 LIG 0.16  HD
ATOM     57  C   ALA B   1      61.349  27.203  -7.732  1.00 33.26 LIG 0.25  C 
ATOM     58 O    ALA B   1      61.284  27.425  -8.938  1.00 33.25 LIG-0.27  OA
BRANCH 57 59
ATOM     59  CA  ALA B   1      62.430  27.862  -6.886  1.00 31.51 LIG 0.27  C 
ATOM     60  CB  ALA B   1      62.104  27.716  -5.401  1.00 29.23 LIG 0.05  C 
BRANCH 59 61
ATOM     61  N   ALA B   1      62.489  29.269  -7.250  1.00 32.32 LIG-0.07  N 
ATOM     62 H3   ALA B   1      63.195  29.412  -7.772  1.00 32.32 LIG 0.28  HD
ATOM     63 H2   ALA B   1      62.560  29.764  -6.514  1.00 32.32 LIG 0.28  HD
ATOM     64 H1   ALA B   1      61.748  29.494  -7.688  1.00 32.32 LIG 0.28  HD
ENDBRANCH 59 61
ENDBRANCH 57 59
ENDBRANCH 51 55
ENDBRANCH 48 51
ENDBRANCH 45 47
ENDBRANCH 43 45
ENDBRANCH 1 41
TORSDOF 21
ENDMDL
MODEL 33
USER: ADFR SOLUTION from run 62
USER: SCORE 18.799149 LL:  -6.004 LR: -15.147 RR:   0.000 FEB:  -8.882
USER: RMSD 4.471953
USER: SEED 61
USER: STATUS no improvement in best in 4 clusters for 5 generations
USER: GENES 23
USER: genes 0 Translation |==|  0.53589 0.53728 0.52982
USER: genes 1 Rotation |==|  0.80978 0.53093 0.88456 0.57205
USER: genes 2 Torsion [C]-CA--CB-[CG] |==|  0.78426
USER: genes 3 Torsion [CA]-CB--CG-[CD1] |==|  0.22930
USER: genes 4 Torsion [N]-CA--C-[N] |==|  0.59790
USER: genes 5 Torsion [C]-N--CA-[CB] |==|  0.17847
USER: genes 6 Torsion [N]-CA--CB-[CG] |==|  0.65655
USER: genes 7 Torsion [CA]-CB--CG-[CD1] |==|  0.16237
USER: genes 8 Torsion [CE2]-CZ--OH-[HH] |==|  0.56236
USER: genes 9 Torsion [N]-CA--C-[N] |==|  0.82719
USER: genes 10 Torsion [C]-N--CA-[C] |==|  0.64418
USER: genes 11 Torsion [N]-CA--CB-[CG1] |==|  0.14313
USER: genes 12 Torsion [CA]-CB--CG1-[CD1] |==|  0.74005
USER: genes 13 Torsion [N]-CA--C-[N] |==|  0.17303
USER: genes 14 Torsion [N]-CA--C-[O] |==|  0.89214
USER: genes 15 Torsion [CB]-CA--N-[C] |==|  0.17758
USER: genes 16 Torsion [N]-C--CA-[N] |==|  0.48268
USER: genes 17 Torsion [C]-CA--N-[C] |==|  0.77968
USER: genes 18 Torsion [N]-C--CA-[N] |==|  0.99054
USER: genes 19 Torsion [C]-CA--CB-[CG1] |==|  0.51502
USER: genes 20 Torsion [C]-CA--N-[C] |==|  0.65556
USER: genes 21 Torsion [N]-C--CA-[N] |==|  0.31719
USER: genes 22 Torsion [C]-CA--N-[H3] |==|  0.45523
ROOT
ATOM      1  CA  PHE B   4      54.323  26.867  -3.200  1.00 44.68 LIG 0.18  C 
ENDROOT
BRANCH 1 2
ATOM      2  CB  PHE B   4      55.599  26.403  -3.909  1.00 43.52 LIG 0.07  C 
BRANCH 2 3
ATOM      3  CG  PHE B   4      55.742  24.910  -3.958  1.00 43.42 LIG-0.06  A 
ATOM      4  CD2 PHE B   4      56.486  24.239  -2.993  1.00 43.71 LIG 0.01  A 
ATOM      5  CE2 PHE B   4      56.578  22.846  -3.001  1.00 44.42 LIG 0.00  A 
ATOM      6  CZ  PHE B   4      55.920  22.115  -3.990  1.00 44.23 LIG 0.00  A 
ATOM      7  CE1 PHE B   4      55.177  22.778  -4.960  1.00 42.62 LIG 0.00  A 
ATOM      8  CD1 PHE B   4      55.092  24.169  -4.939  1.00 43.35 LIG 0.01  A 
ENDBRANCH 2 3
ENDBRANCH 1 2
BRANCH 1 9
ATOM      9  C   PHE B   4      53.108  26.718  -4.105  1.00 47.70 LIG 0.24  C 
ATOM     10 O    PHE B   4      51.977  26.625  -3.629  1.00 47.98 LIG-0.27  OA
ATOM     11  N   TYR B   5      53.357  26.684  -5.409  1.00 50.93 LIG-0.35  N 
ATOM     12 H    TYR B   5      54.147  26.758  -5.742  1.00 50.93 LIG 0.16  HD
BRANCH 11 13
ATOM     13  CA  TYR B   5      52.306  26.516  -6.408  1.00 53.91 LIG 0.18  C 
BRANCH 13 14
ATOM     14  CB  TYR B   5      51.338  27.703  -6.395  1.00 56.99 LIG 0.07  C 
BRANCH 14 15
ATOM     15  CG  TYR B   5      49.887  27.311  -6.174  1.00 60.80 LIG-0.06  A 
ATOM     16  CD2 TYR B   5      48.904  27.649  -7.104  1.00 62.97 LIG 0.01  A 
ATOM     17  CE2 TYR B   5      47.566  27.309  -6.894  1.00 63.70 LIG 0.04  A 
ATOM     18  CZ  TYR B   5      47.207  26.622  -5.742  1.00 64.21 LIG 0.07  A 
ATOM     19  CE1 TYR B   5      48.165  26.273  -4.807  1.00 63.24 LIG 0.04  A 
ATOM     20  CD1 TYR B   5      49.494  26.616  -5.027  1.00 61.93 LIG 0.01  A 
BRANCH 18 21
ATOM     21 OH   TYR B   5      45.889  26.298  -5.517  1.00 64.43 LIG-0.36  OA
ATOM     22 HH   TYR B   5      45.766  26.177  -4.694  1.00 64.43 LIG 0.22  HD
ENDBRANCH 18 21
ENDBRANCH 14 15
ENDBRANCH 13 14
BRANCH 13 23
ATOM     23  C   TYR B   5      52.953  26.414  -7.781  1.00 54.78 LIG 0.24  C 
ATOM     24  N   ILE B   6      53.641  27.477  -8.188  1.00 56.06 LIG-0.35  N 
ATOM     25 H    ILE B   6      53.729  28.197  -7.726  1.00 56.06 LIG 0.16  HD
ATOM     26 O    TYR B   5      52.836  25.391  -8.455  1.00 54.12 LIG-0.27  OA
BRANCH 24 27
ATOM     27  CA  ILE B   6      54.315  27.507  -9.481  1.00 57.79 LIG 0.18  C 
BRANCH 27 28
ATOM     28  CB  ILE B   6      53.612  28.486 -10.453  1.00 57.25 LIG 0.01  C 
ATOM     29  CG2 ILE B   6      52.254  27.944 -10.861  1.00 56.12 LIG 0.01  C 
BRANCH 28 30
ATOM     30  CG1 ILE B   6      53.440  29.847  -9.776  1.00 57.80 LIG 0.00  C 
ATOM     31  CD1 ILE B   6      52.101  30.007  -9.094  1.00 58.80 LIG 0.01  C 
ENDBRANCH 28 30
ENDBRANCH 27 28
BRANCH 27 32
ATOM     32  C   ILE B   6      55.778  27.916  -9.322  1.00 59.33 LIG 0.24  C 
ATOM     33 O    ILE B   6      56.208  28.950  -9.842  1.00 59.66 LIG-0.27  OA
ATOM     34  N   PRO B   7      56.561  27.107  -8.590  1.00 60.44 LIG-0.34  N 
ATOM     35  CA  PRO B   7      57.982  27.369  -8.350  1.00 61.29 LIG 0.17  C 
ATOM     36  CD  PRO B   7      56.137  25.875  -7.901  1.00 60.37 LIG 0.13  C 
ATOM     37  CB  PRO B   7      58.456  26.077  -7.695  1.00 61.79 LIG 0.04  C 
ATOM     38  CG  PRO B   7      57.258  25.662  -6.909  1.00 60.72 LIG 0.02  C 
BRANCH 35 39
ATOM     39  C   PRO B   7      58.759  27.689  -9.627  1.00 62.02 LIG 0.22  C 
ATOM     40 O    PRO B   7      58.521  27.092 -10.674  1.00 61.64 LIG-0.29  OA
ENDBRANCH 35 39
ENDBRANCH 27 32
ENDBRANCH 24 27
ENDBRANCH 13 23
ENDBRANCH 11 13
ENDBRANCH 1 9
BRANCH 1 41
ATOM     41  N   PHE B   4      54.140  26.115  -1.970  1.00 40.22 LIG-0.35  N 
ATOM     42 H    PHE B   4      53.436  25.622  -1.953  1.00 40.22 LIG 0.16  HD
ATOM     43  C   ALA B   3      55.010  26.207  -0.972  1.00 36.80 LIG 0.24  C 
ATOM     44 O    ALA B   3      56.015  26.911  -1.028  1.00 35.05 LIG-0.27  OA
BRANCH 43 45
ATOM     45  CA  ALA B   3      54.710  25.374   0.268  1.00 35.42 LIG 0.17  C 
ATOM     46  CB  ALA B   3      53.444  25.877   0.937  1.00 34.55 LIG 0.04  C 
BRANCH 45 47
ATOM     47  N   ALA B   3      55.844  25.495   1.173  1.00 34.22 LIG-0.35  N 
ATOM     48  C   VAL B   2      56.951  24.789   0.979  1.00 33.55 LIG 0.24  C 
ATOM     49 O    VAL B   2      57.076  23.988   0.053  1.00 34.35 LIG-0.27  OA
ATOM     50 H    ALA B   3      55.729  26.047   1.822  1.00 34.22 LIG 0.16  HD
BRANCH 48 51
ATOM     51  CA  VAL B   2      58.084  25.018   1.976  1.00 33.22 LIG 0.18  C 
BRANCH 51 52
ATOM     52  CB  VAL B   2      58.386  23.681   2.696  1.00 32.52 LIG 0.01  C 
ATOM     53  CG1 VAL B   2      59.419  23.889   3.796  1.00 33.02 LIG 0.01  C 
ATOM     54  CG2 VAL B   2      57.101  23.109   3.280  1.00 33.85 LIG 0.01  C 
ENDBRANCH 51 52
BRANCH 51 55
ATOM     55  N   VAL B   2      57.754  26.059   2.942  1.00 33.13 LIG-0.35  N 
ATOM     56 H    VAL B   2      57.026  25.919   3.378  1.00 33.13 LIG 0.16  HD
ATOM     57  C   ALA B   1      58.525  27.126   3.117  1.00 33.26 LIG 0.25  C 
ATOM     58 O    ALA B   1      59.553  27.325   2.476  1.00 33.25 LIG-0.27  OA
BRANCH 57 59
ATOM     59  CA  ALA B   1      58.066  28.129   4.167  1.00 31.51 LIG 0.27  C 
ATOM     60  CB  ALA B   1      57.959  29.525   3.557  1.00 29.23 LIG 0.05  C 
BRANCH 59 61
ATOM     61  N   ALA B   1      59.043  28.127   5.246  1.00 32.32 LIG-0.07  N 
ATOM     62 H3   ALA B   1      58.932  28.852   5.748  1.00 32.32 LIG 0.28  HD
ATOM     63 H2   ALA B   1      59.864  28.128   4.903  1.00 32.32 LIG 0.28  HD
ATOM     64 H1   ALA B   1      58.931  27.400   5.746  1.00 32.32 LIG 0.28  HD
ENDBRANCH 59 61
ENDBRANCH 57 59
ENDBRANCH 51 55
ENDBRANCH 48 51
ENDBRANCH 45 47
ENDBRANCH 43 45
ENDBRANCH 1 41
TORSDOF 21
ENDMDL
MODEL 34
USER: ADFR SOLUTION from run 81
USER: SCORE 18.707218 LL:  -6.138 LR: -15.127 RR:   0.000 FEB:  -8.862
USER: RMSD 3.074883
USER: SEED 80
USER: STATUS searching
USER: GENES 23
USER: genes 0 Translation |==|  0.48428 0.35744 0.64982
USER: genes 1 Rotation |==|  0.35892 0.51792 0.33393 0.94966
USER: genes 2 Torsion [C]-CA--CB-[CG] |==|  0.29418
USER: genes 3 Torsion [CA]-CB--CG-[CD1] |==|  0.25071
USER: genes 4 Torsion [N]-CA--C-[N] |==|  0.77425
USER: genes 5 Torsion [C]-N--CA-[CB] |==|  0.26755
USER: genes 6 Torsion [N]-CA--CB-[CG] |==|  0.80410
USER: genes 7 Torsion [CA]-CB--CG-[CD1] |==|  0.23800
USER: genes 8 Torsion [CE2]-CZ--OH-[HH] |==|  0.22913
USER: genes 9 Torsion [N]-CA--C-[N] |==|  0.25615
USER: genes 10 Torsion [C]-N--CA-[C] |==|  0.76689
USER: genes 11 Torsion [N]-CA--CB-[CG1] |==|  0.81823
USER: genes 12 Torsion [CA]-CB--CG1-[CD1] |==|  0.93695
USER: genes 13 Torsion [N]-CA--C-[N] |==|  0.38525
USER: genes 14 Torsion [N]-CA--C-[O] |==|  0.90227
USER: genes 15 Torsion [CB]-CA--N-[C] |==|  0.84017
USER: genes 16 Torsion [N]-C--CA-[N] |==|  0.86902
USER: genes 17 Torsion [C]-CA--N-[C] |==|  0.84447
USER: genes 18 Torsion [N]-C--CA-[N] |==|  0.47076
USER: genes 19 Torsion [C]-CA--CB-[CG1] |==|  0.48604
USER: genes 20 Torsion [C]-CA--N-[C] |==|  0.78452
USER: genes 21 Torsion [N]-C--CA-[N] |==|  0.27865
USER: genes 22 Torsion [C]-CA--N-[H3] |==|  0.79863
ROOT
ATOM      1  CA  PHE B   4      53.123  23.900  -0.230  1.00 44.68 LIG 0.18  C 
ENDROOT
BRANCH 1 2
ATOM      2  CB  PHE B   4      52.629  25.124   0.546  1.00 43.52 LIG 0.07  C 
BRANCH 2 3
ATOM      3  CG  PHE B   4      51.857  24.772   1.783  1.00 43.42 LIG-0.06  A 
ATOM      4  CD2 PHE B   4      50.486  24.544   1.720  1.00 43.71 LIG 0.01  A 
ATOM      5  CE2 PHE B   4      49.771  24.162   2.857  1.00 44.42 LIG 0.00  A 
ATOM      6  CZ  PHE B   4      50.436  24.010   4.074  1.00 44.23 LIG 0.00  A 
ATOM      7  CE1 PHE B   4      51.805  24.239   4.146  1.00 42.62 LIG 0.00  A 
ATOM      8  CD1 PHE B   4      52.507  24.618   3.003  1.00 43.35 LIG 0.01  A 
ENDBRANCH 2 3
ENDBRANCH 1 2
BRANCH 1 9
ATOM      9  C   PHE B   4      52.307  23.687  -1.497  1.00 47.70 LIG 0.24  C 
ATOM     10 O    PHE B   4      51.977  22.555  -1.851  1.00 47.98 LIG-0.27  OA
ATOM     11  N   TYR B   5      51.998  24.785  -2.179  1.00 50.93 LIG-0.35  N 
ATOM     12 H    TYR B   5      52.220  25.576  -1.927  1.00 50.93 LIG 0.16  HD
BRANCH 11 13
ATOM     13  CA  TYR B   5      51.246  24.750  -3.430  1.00 53.91 LIG 0.18  C 
BRANCH 13 14
ATOM     14  CB  TYR B   5      49.756  25.003  -3.184  1.00 56.99 LIG 0.07  C 
BRANCH 14 15
ATOM     15  CG  TYR B   5      49.046  23.860  -2.479  1.00 60.80 LIG-0.06  A 
ATOM     16  CD2 TYR B   5      48.363  22.885  -3.204  1.00 62.97 LIG 0.01  A 
ATOM     17  CE2 TYR B   5      47.691  21.844  -2.558  1.00 63.70 LIG 0.04  A 
ATOM     18  CZ  TYR B   5      47.704  21.778  -1.171  1.00 64.21 LIG 0.07  A 
ATOM     19  CE1 TYR B   5      48.379  22.732  -0.431  1.00 63.24 LIG 0.04  A 
ATOM     20  CD1 TYR B   5      49.044  23.762  -1.084  1.00 61.93 LIG 0.01  A 
BRANCH 18 21
ATOM     21 OH   TYR B   5      47.031  20.767  -0.524  1.00 64.43 LIG-0.36  OA
ATOM     22 HH   TYR B   5      47.508  20.076  -0.511  1.00 64.43 LIG 0.22  HD
ENDBRANCH 18 21
ENDBRANCH 14 15
ENDBRANCH 13 14
BRANCH 13 23
ATOM     23  C   TYR B   5      51.790  25.829  -4.353  1.00 54.78 LIG 0.24  C 
ATOM     24  N   ILE B   6      52.753  25.457  -5.192  1.00 56.06 LIG-0.35  N 
ATOM     25 H    ILE B   6      53.073  24.659  -5.230  1.00 56.06 LIG 0.16  HD
ATOM     26 O    TYR B   5      51.342  26.975  -4.310  1.00 54.12 LIG-0.27  OA
BRANCH 24 27
ATOM     27  CA  ILE B   6      53.356  26.393  -6.134  1.00 57.79 LIG 0.18  C 
BRANCH 27 28
ATOM     28  CB  ILE B   6      54.793  25.955  -6.511  1.00 57.25 LIG 0.01  C 
ATOM     29  CG2 ILE B   6      55.349  26.847  -7.605  1.00 56.12 LIG 0.01  C 
BRANCH 28 30
ATOM     30  CG1 ILE B   6      55.693  26.033  -5.277  1.00 57.80 LIG 0.00  C 
ATOM     31  CD1 ILE B   6      55.173  26.978  -4.219  1.00 58.80 LIG 0.01  C 
ENDBRANCH 28 30
ENDBRANCH 27 28
BRANCH 27 32
ATOM     32  C   ILE B   6      52.513  26.507  -7.402  1.00 59.33 LIG 0.24  C 
ATOM     33 O    ILE B   6      52.001  25.507  -7.916  1.00 59.66 LIG-0.27  OA
ATOM     34  N   PRO B   7      52.353  27.735  -7.920  1.00 60.44 LIG-0.34  N 
ATOM     35  CA  PRO B   7      51.573  28.000  -9.131  1.00 61.29 LIG 0.17  C 
ATOM     36  CD  PRO B   7      52.889  28.991  -7.365  1.00 60.37 LIG 0.13  C 
ATOM     37  CB  PRO B   7      51.893  29.460  -9.425  1.00 61.79 LIG 0.04  C 
ATOM     38  CG  PRO B   7      52.042  30.035  -8.057  1.00 60.72 LIG 0.02  C 
BRANCH 35 39
ATOM     39  C   PRO B   7      51.939  27.080 -10.296  1.00 62.02 LIG 0.22  C 
ATOM     40 O    PRO B   7      53.099  26.710 -10.464  1.00 61.64 LIG-0.29  OA
ENDBRANCH 35 39
ENDBRANCH 27 32
ENDBRANCH 24 27
ENDBRANCH 13 23
ENDBRANCH 11 13
ENDBRANCH 1 9
BRANCH 1 41
ATOM     41  N   PHE B   4      54.533  24.053  -0.550  1.00 40.22 LIG-0.35  N 
ATOM     42 H    PHE B   4      55.038  23.423  -0.253  1.00 40.22 LIG 0.16  HD
ATOM     43  C   ALA B   3      54.971  25.094  -1.245  1.00 36.80 LIG 0.24  C 
ATOM     44 O    ALA B   3      54.225  25.974  -1.668  1.00 35.05 LIG-0.27  OA
BRANCH 43 45
ATOM     45  CA  ALA B   3      56.469  25.147  -1.516  1.00 35.42 LIG 0.17  C 
ATOM     46  CB  ALA B   3      56.845  24.116  -2.563  1.00 34.55 LIG 0.04  C 
BRANCH 45 47
ATOM     47  N   ALA B   3      57.160  24.873  -0.264  1.00 34.22 LIG-0.35  N 
ATOM     48  C   VAL B   2      56.926  25.604   0.820  1.00 33.55 LIG 0.24  C 
ATOM     49 O    VAL B   2      56.145  26.555   0.825  1.00 34.35 LIG-0.27  OA
ATOM     50 H    ALA B   3      57.712  24.215  -0.295  1.00 34.22 LIG 0.16  HD
BRANCH 48 51
ATOM     51  CA  VAL B   2      57.688  25.207   2.082  1.00 33.22 LIG 0.18  C 
BRANCH 51 52
ATOM     52  CB  VAL B   2      57.163  23.833   2.564  1.00 32.52 LIG 0.01  C 
ATOM     53  CG1 VAL B   2      57.979  23.336   3.751  1.00 33.02 LIG 0.01  C 
ATOM     54  CG2 VAL B   2      55.694  23.947   2.945  1.00 33.85 LIG 0.01  C 
ENDBRANCH 51 52
BRANCH 51 55
ATOM     55  N   VAL B   2      57.553  26.208   3.134  1.00 33.13 LIG-0.35  N 
ATOM     56 H    VAL B   2      56.994  25.996   3.753  1.00 33.13 LIG 0.16  HD
ATOM     57  C   ALA B   1      58.242  27.342   3.118  1.00 33.26 LIG 0.25  C 
ATOM     58 O    ALA B   1      59.026  27.641   2.221  1.00 33.25 LIG-0.27  OA
BRANCH 57 59
ATOM     59  CA  ALA B   1      58.013  28.291   4.287  1.00 31.51 LIG 0.27  C 
ATOM     60  CB  ALA B   1      57.952  29.735   3.793  1.00 29.23 LIG 0.05  C 
BRANCH 59 61
ATOM     61  N   ALA B   1      59.115  28.127   5.222  1.00 32.32 LIG-0.07  N 
ATOM     62 H3   ALA B   1      59.033  27.349   5.645  1.00 32.32 LIG 0.28  HD
ATOM     63 H2   ALA B   1      59.102  28.789   5.816  1.00 32.32 LIG 0.28  HD
ATOM     64 H1   ALA B   1      59.886  28.142   4.778  1.00 32.32 LIG 0.28  HD
ENDBRANCH 59 61
ENDBRANCH 57 59
ENDBRANCH 51 55
ENDBRANCH 48 51
ENDBRANCH 45 47
ENDBRANCH 43 45
ENDBRANCH 1 41
TORSDOF 21
ENDMDL
MODEL 35
USER: ADFR SOLUTION from run 195
USER: SCORE 19.750486 LL:  -5.359 LR: -15.134 RR:   0.000 FEB:  -8.870
USER: RMSD 11.393751
USER: SEED 194
USER: STATUS searching
USER: GENES 23
USER: genes 0 Translation |==|  0.53904 0.49790 0.54401
USER: genes 1 Rotation |==|  0.76038 0.07823 0.43601 0.51477
USER: genes 2 Torsion [C]-CA--CB-[CG] |==|  0.40695
USER: genes 3 Torsion [CA]-CB--CG-[CD1] |==|  0.86086
USER: genes 4 Torsion [N]-CA--C-[N] |==|  0.08259
USER: genes 5 Torsion [C]-N--CA-[CB] |==|  0.53442
USER: genes 6 Torsion [N]-CA--CB-[CG] |==|  0.88551
USER: genes 7 Torsion [CA]-CB--CG-[CD1] |==|  0.75017
USER: genes 8 Torsion [CE2]-CZ--OH-[HH] |==|  0.67666
USER: genes 9 Torsion [N]-CA--C-[N] |==|  0.42381
USER: genes 10 Torsion [C]-N--CA-[C] |==|  0.75766
USER: genes 11 Torsion [N]-CA--CB-[CG1] |==|  0.38794
USER: genes 12 Torsion [CA]-CB--CG1-[CD1] |==|  0.28532
USER: genes 13 Torsion [N]-CA--C-[N] |==|  0.38592
USER: genes 14 Torsion [N]-CA--C-[O] |==|  0.87728
USER: genes 15 Torsion [CB]-CA--N-[C] |==|  0.19444
USER: genes 16 Torsion [N]-C--CA-[N] |==|  0.39358
USER: genes 17 Torsion [C]-CA--N-[C] |==|  0.83117
USER: genes 18 Torsion [N]-C--CA-[N] |==|  0.14127
USER: genes 19 Torsion [C]-CA--CB-[CG1] |==|  0.21135
USER: genes 20 Torsion [C]-CA--N-[C] |==|  0.13534
USER: genes 21 Torsion [N]-C--CA-[N] |==|  0.38514
USER: genes 22 Torsion [C]-CA--N-[H3] |==|  0.26066
ROOT
ATOM      1  CA  PHE B   4      54.397  26.217  -2.849  1.00 44.68 LIG 0.18  C 
ENDROOT
BRANCH 1 2
ATOM      2  CB  PHE B   4      54.614  27.377  -3.826  1.00 43.52 LIG 0.07  C 
BRANCH 2 3
ATOM      3  CG  PHE B   4      54.927  26.926  -5.222  1.00 43.42 LIG-0.06  A 
ATOM      4  CD2 PHE B   4      54.264  27.483  -6.310  1.00 43.71 LIG 0.01  A 
ATOM      5  CE2 PHE B   4      54.589  27.108  -7.616  1.00 44.42 LIG 0.00  A 
ATOM      6  CZ  PHE B   4      55.590  26.160  -7.834  1.00 44.23 LIG 0.00  A 
ATOM      7  CE1 PHE B   4      56.255  25.597  -6.752  1.00 42.62 LIG 0.00  A 
ATOM      8  CD1 PHE B   4      55.922  25.981  -5.455  1.00 43.35 LIG 0.01  A 
ENDBRANCH 2 3
ENDBRANCH 1 2
BRANCH 1 9
ATOM      9  C   PHE B   4      54.887  26.577  -1.453  1.00 47.70 LIG 0.24  C 
ATOM     10 O    PHE B   4      55.805  27.382  -1.296  1.00 47.98 LIG-0.27  OA
ATOM     11  N   TYR B   5      54.275  25.963  -0.447  1.00 50.93 LIG-0.35  N 
ATOM     12 H    TYR B   5      53.627  25.407  -0.556  1.00 50.93 LIG 0.16  HD
BRANCH 11 13
ATOM     13  CA  TYR B   5      54.646  26.175   0.949  1.00 53.91 LIG 0.18  C 
BRANCH 13 14
ATOM     14  CB  TYR B   5      53.996  25.127   1.857  1.00 56.99 LIG 0.07  C 
BRANCH 14 15
ATOM     15  CG  TYR B   5      52.552  24.815   1.500  1.00 60.80 LIG-0.06  A 
ATOM     16  CD2 TYR B   5      52.242  23.809   0.585  1.00 62.97 LIG 0.01  A 
ATOM     17  CE2 TYR B   5      50.917  23.534   0.240  1.00 63.70 LIG 0.04  A 
ATOM     18  CZ  TYR B   5      49.891  24.271   0.815  1.00 64.21 LIG 0.07  A 
ATOM     19  CE1 TYR B   5      50.175  25.270   1.729  1.00 63.24 LIG 0.04  A 
ATOM     20  CD1 TYR B   5      51.497  25.535   2.066  1.00 61.93 LIG 0.01  A 
BRANCH 18 21
ATOM     21 OH   TYR B   5      48.584  24.019   0.468  1.00 64.43 LIG-0.36  OA
ATOM     22 HH   TYR B   5      48.258  24.697   0.093  1.00 64.43 LIG 0.22  HD
ENDBRANCH 18 21
ENDBRANCH 14 15
ENDBRANCH 13 14
BRANCH 13 23
ATOM     23  C   TYR B   5      56.159  26.070   1.070  1.00 54.78 LIG 0.24  C 
ATOM     24  N   ILE B   6      56.720  26.755   2.062  1.00 56.06 LIG-0.35  N 
ATOM     25 H    ILE B   6      56.279  27.242   2.617  1.00 56.06 LIG 0.16  HD
ATOM     26 O    TYR B   5      56.803  25.377   0.283  1.00 54.12 LIG-0.27  OA
BRANCH 24 27
ATOM     27  CA  ILE B   6      58.160  26.735   2.291  1.00 57.79 LIG 0.18  C 
BRANCH 27 28
ATOM     28  CB  ILE B   6      58.639  28.056   2.941  1.00 57.25 LIG 0.01  C 
ATOM     29  CG2 ILE B   6      57.470  28.792   3.569  1.00 56.12 LIG 0.01  C 
BRANCH 28 30
ATOM     30  CG1 ILE B   6      59.689  27.752   4.011  1.00 57.80 LIG 0.00  C 
ATOM     31  CD1 ILE B   6      61.102  28.036   3.555  1.00 58.80 LIG 0.01  C 
ENDBRANCH 28 30
ENDBRANCH 27 28
BRANCH 27 32
ATOM     32  C   ILE B   6      58.552  25.561   3.186  1.00 59.33 LIG 0.24  C 
ATOM     33 O    ILE B   6      57.861  25.248   4.161  1.00 59.66 LIG-0.27  OA
ATOM     34  N   PRO B   7      59.668  24.890   2.858  1.00 60.44 LIG-0.34  N 
ATOM     35  CA  PRO B   7      60.168  23.744   3.622  1.00 61.29 LIG 0.17  C 
ATOM     36  CD  PRO B   7      60.537  25.159   1.700  1.00 60.37 LIG 0.13  C 
ATOM     37  CB  PRO B   7      61.541  23.503   3.007  1.00 61.79 LIG 0.04  C 
ATOM     38  CG  PRO B   7      61.319  23.870   1.578  1.00 60.72 LIG 0.02  C 
BRANCH 35 39
ATOM     39  C   PRO B   7      60.244  24.009   5.125  1.00 62.02 LIG 0.22  C 
ATOM     40 O    PRO B   7      60.699  25.067   5.554  1.00 61.64 LIG-0.29  OA
ENDBRANCH 35 39
ENDBRANCH 27 32
ENDBRANCH 24 27
ENDBRANCH 13 23
ENDBRANCH 11 13
ENDBRANCH 1 9
BRANCH 1 41
ATOM     41  N   PHE B   4      52.990  25.854  -2.818  1.00 40.22 LIG-0.35  N 
ATOM     42 H    PHE B   4      52.584  26.053  -2.087  1.00 40.22 LIG 0.16  HD
ATOM     43  C   ALA B   3      52.411  25.262  -3.855  1.00 36.80 LIG 0.24  C 
ATOM     44 O    ALA B   3      53.012  24.999  -4.894  1.00 35.05 LIG-0.27  OA
BRANCH 43 45
ATOM     45  CA  ALA B   3      50.933  24.925  -3.705  1.00 35.42 LIG 0.17  C 
ATOM     46  CB  ALA B   3      50.769  23.471  -3.303  1.00 34.55 LIG 0.04  C 
BRANCH 45 47
ATOM     47  N   ALA B   3      50.285  25.173  -4.985  1.00 34.22 LIG-0.35  N 
ATOM     48  C   VAL B   2      50.282  26.386  -5.526  1.00 33.55 LIG 0.24  C 
ATOM     49 O    VAL B   2      50.797  27.360  -4.978  1.00 34.35 LIG-0.27  OA
ATOM     50 H    ALA B   3      49.918  24.483  -5.342  1.00 34.22 LIG 0.16  HD
BRANCH 48 51
ATOM     51  CA  VAL B   2      49.596  26.520  -6.883  1.00 33.22 LIG 0.18  C 
BRANCH 51 52
ATOM     52  CB  VAL B   2      49.547  28.020  -7.265  1.00 32.52 LIG 0.01  C 
ATOM     53  CG1 VAL B   2      50.915  28.496  -7.735  1.00 33.02 LIG 0.01  C 
ATOM     54  CG2 VAL B   2      48.508  28.239  -8.356  1.00 33.85 LIG 0.01  C 
ENDBRANCH 51 52
BRANCH 51 55
ATOM     55  N   VAL B   2      48.255  25.947  -6.871  1.00 33.13 LIG-0.35  N 
ATOM     56 H    VAL B   2      48.092  25.418  -7.530  1.00 33.13 LIG 0.16  HD
ATOM     57  C   ALA B   1      47.377  26.232  -5.917  1.00 33.26 LIG 0.25  C 
ATOM     58 O    ALA B   1      47.615  27.002  -4.991  1.00 33.25 LIG-0.27  OA
BRANCH 57 59
ATOM     59  CA  ALA B   1      46.018  25.553  -6.023  1.00 31.51 LIG 0.27  C 
ATOM     60  CB  ALA B   1      44.984  26.521  -6.595  1.00 29.23 LIG 0.05  C 
BRANCH 59 61
ATOM     61  N   ALA B   1      45.622  25.130  -4.688  1.00 32.32 LIG-0.07  N 
ATOM     62 H3   ALA B   1      45.117  25.759  -4.314  1.00 32.32 LIG 0.28  HD
ATOM     63 H2   ALA B   1      46.348  25.000  -4.190  1.00 32.32 LIG 0.28  HD
ATOM     64 H1   ALA B   1      45.160  24.372  -4.742  1.00 32.32 LIG 0.28  HD
ENDBRANCH 59 61
ENDBRANCH 57 59
ENDBRANCH 51 55
ENDBRANCH 48 51
ENDBRANCH 45 47
ENDBRANCH 43 45
ENDBRANCH 1 41
TORSDOF 21
ENDMDL
MODEL 36
USER: ADFR SOLUTION from run 89
USER: SCORE 18.535061 LL:  -6.022 LR: -15.122 RR:   0.000 FEB:  -8.858
USER: RMSD 5.799089
USER: SEED 88
USER: STATUS no improvement in best in 5 clusters for 5 generations
USER: GENES 23
USER: genes 0 Translation |==|  0.57607 0.44479 0.46851
USER: genes 1 Rotation |==|  0.68867 0.30147 0.60099 0.90594
USER: genes 2 Torsion [C]-CA--CB-[CG] |==|  0.80451
USER: genes 3 Torsion [CA]-CB--CG-[CD1] |==|  0.72068
USER: genes 4 Torsion [N]-CA--C-[N] |==|  0.46543
USER: genes 5 Torsion [C]-N--CA-[CB] |==|  0.50149
USER: genes 6 Torsion [N]-CA--CB-[CG] |==|  0.51599
USER: genes 7 Torsion [CA]-CB--CG-[CD1] |==|  0.15805
USER: genes 8 Torsion [CE2]-CZ--OH-[HH] |==|  0.84766
USER: genes 9 Torsion [N]-CA--C-[N] |==|  0.43520
USER: genes 10 Torsion [C]-N--CA-[C] |==|  0.86667
USER: genes 11 Torsion [N]-CA--CB-[CG1] |==|  0.44448
USER: genes 12 Torsion [CA]-CB--CG1-[CD1] |==|  0.37050
USER: genes 13 Torsion [N]-CA--C-[N] |==|  0.35259
USER: genes 14 Torsion [N]-CA--C-[O] |==|  0.91703
USER: genes 15 Torsion [CB]-CA--N-[C] |==|  0.21210
USER: genes 16 Torsion [N]-C--CA-[N] |==|  0.62811
USER: genes 17 Torsion [C]-CA--N-[C] |==|  0.55292
USER: genes 18 Torsion [N]-C--CA-[N] |==|  0.39771
USER: genes 19 Torsion [C]-CA--CB-[CG1] |==|  0.54079
USER: genes 20 Torsion [C]-CA--N-[C] |==|  0.78995
USER: genes 21 Torsion [N]-C--CA-[N] |==|  0.22089
USER: genes 22 Torsion [C]-CA--N-[H3] |==|  0.71534
ROOT
ATOM      1  CA  PHE B   4      55.258  25.341  -4.717  1.00 44.68 LIG 0.18  C 
ENDROOT
BRANCH 1 2
ATOM      2  CB  PHE B   4      54.038  24.486  -5.075  1.00 43.52 LIG 0.07  C 
BRANCH 2 3
ATOM      3  CG  PHE B   4      52.736  25.217  -4.925  1.00 43.42 LIG-0.06  A 
ATOM      4  CD2 PHE B   4      52.280  26.064  -5.929  1.00 43.71 LIG 0.01  A 
ATOM      5  CE2 PHE B   4      51.043  26.703  -5.819  1.00 44.42 LIG 0.00  A 
ATOM      6  CZ  PHE B   4      50.254  26.495  -4.688  1.00 44.23 LIG 0.00  A 
ATOM      7  CE1 PHE B   4      50.704  25.652  -3.679  1.00 42.62 LIG 0.00  A 
ATOM      8  CD1 PHE B   4      51.940  25.019  -3.801  1.00 43.35 LIG 0.01  A 
ENDBRANCH 2 3
ENDBRANCH 1 2
BRANCH 1 9
ATOM      9  C   PHE B   4      55.491  26.427  -5.759  1.00 47.70 LIG 0.24  C 
ATOM     10 O    PHE B   4      55.278  27.609  -5.494  1.00 47.98 LIG-0.27  OA
ATOM     11  N   TYR B   5      55.918  26.009  -6.946  1.00 50.93 LIG-0.35  N 
ATOM     12 H    TYR B   5      56.076  25.183  -7.128  1.00 50.93 LIG 0.16  HD
BRANCH 11 13
ATOM     13  CA  TYR B   5      56.161  26.920  -8.061  1.00 53.91 LIG 0.18  C 
BRANCH 13 14
ATOM     14  CB  TYR B   5      56.633  26.157  -9.302  1.00 56.99 LIG 0.07  C 
BRANCH 14 15
ATOM     15  CG  TYR B   5      57.037  27.055 -10.459  1.00 60.80 LIG-0.06  A 
ATOM     16  CD2 TYR B   5      56.441  26.920 -11.713  1.00 62.97 LIG 0.01  A 
ATOM     17  CE2 TYR B   5      56.825  27.731 -12.784  1.00 63.70 LIG 0.04  A 
ATOM     18  CZ  TYR B   5      57.815  28.686 -12.599  1.00 64.21 LIG 0.07  A 
ATOM     19  CE1 TYR B   5      58.418  28.840 -11.363  1.00 63.24 LIG 0.04  A 
ATOM     20  CD1 TYR B   5      58.027  28.029 -10.305  1.00 61.93 LIG 0.01  A 
BRANCH 18 21
ATOM     21 OH   TYR B   5      58.213  29.476 -13.653  1.00 64.43 LIG-0.36  OA
ATOM     22 HH   TYR B   5      58.446  28.989 -14.297  1.00 64.43 LIG 0.22  HD
ENDBRANCH 18 21
ENDBRANCH 14 15
ENDBRANCH 13 14
BRANCH 13 23
ATOM     23  C   TYR B   5      54.864  27.647  -8.384  1.00 54.78 LIG 0.24  C 
ATOM     24  N   ILE B   6      54.984  28.815  -9.009  1.00 56.06 LIG-0.35  N 
ATOM     25 H    ILE B   6      55.738  29.167  -9.227  1.00 56.06 LIG 0.16  HD
ATOM     26 O    TYR B   5      53.778  27.156  -8.079  1.00 54.12 LIG-0.27  OA
BRANCH 24 27
ATOM     27  CA  ILE B   6      53.819  29.609  -9.382  1.00 57.79 LIG 0.18  C 
BRANCH 27 28
ATOM     28  CB  ILE B   6      54.219  30.781 -10.312  1.00 57.25 LIG 0.01  C 
ATOM     29  CG2 ILE B   6      55.281  30.335 -11.299  1.00 56.12 LIG 0.01  C 
BRANCH 28 30
ATOM     30  CG1 ILE B   6      52.988  31.278 -11.071  1.00 57.80 LIG 0.00  C 
ATOM     31  CD1 ILE B   6      52.851  32.783 -11.063  1.00 58.80 LIG 0.01  C 
ENDBRANCH 28 30
ENDBRANCH 27 28
BRANCH 27 32
ATOM     32  C   ILE B   6      52.772  28.744 -10.080  1.00 59.33 LIG 0.24  C 
ATOM     33 O    ILE B   6      53.072  28.044 -11.052  1.00 59.66 LIG-0.27  OA
ATOM     34  N   PRO B   7      51.524  28.779  -9.585  1.00 60.44 LIG-0.34  N 
ATOM     35  CA  PRO B   7      50.416  28.004 -10.150  1.00 61.29 LIG 0.17  C 
ATOM     36  CD  PRO B   7      51.073  29.550  -8.413  1.00 60.37 LIG 0.13  C 
ATOM     37  CB  PRO B   7      49.205  28.561  -9.410  1.00 61.79 LIG 0.04  C 
ATOM     38  CG  PRO B   7      49.769  28.868  -8.064  1.00 60.72 LIG 0.02  C 
BRANCH 35 39
ATOM     39  C   PRO B   7      50.288  28.154 -11.665  1.00 62.02 LIG 0.22  C 
ATOM     40 O    PRO B   7      50.634  29.190 -12.226  1.00 61.64 LIG-0.29  OA
ENDBRANCH 35 39
ENDBRANCH 27 32
ENDBRANCH 24 27
ENDBRANCH 13 23
ENDBRANCH 11 13
ENDBRANCH 1 9
BRANCH 1 41
ATOM     41  N   PHE B   4      55.081  25.927  -3.399  1.00 40.22 LIG-0.35  N 
ATOM     42 H    PHE B   4      54.869  26.760  -3.403  1.00 40.22 LIG 0.16  HD
ATOM     43  C   ALA B   3      55.243  25.204  -2.299  1.00 36.80 LIG 0.24  C 
ATOM     44 O    ALA B   3      55.534  24.011  -2.322  1.00 35.05 LIG-0.27  OA
BRANCH 43 45
ATOM     45  CA  ALA B   3      55.035  25.928  -0.975  1.00 35.42 LIG 0.17  C 
ATOM     46  CB  ALA B   3      55.003  27.428  -1.203  1.00 34.55 LIG 0.04  C 
BRANCH 45 47
ATOM     47  N   ALA B   3      56.137  25.574  -0.092  1.00 34.22 LIG-0.35  N 
ATOM     48  C   VAL B   2      56.041  25.741   1.221  1.00 33.55 LIG 0.24  C 
ATOM     49 O    VAL B   2      55.043  26.219   1.760  1.00 34.35 LIG-0.27  OA
ATOM     50 H    ALA B   3      56.830  25.258  -0.491  1.00 34.22 LIG 0.16  HD
BRANCH 48 51
ATOM     51  CA  VAL B   2      57.249  25.310   2.049  1.00 33.22 LIG 0.18  C 
BRANCH 51 52
ATOM     52  CB  VAL B   2      57.019  23.860   2.540  1.00 32.52 LIG 0.01  C 
ATOM     53  CG1 VAL B   2      58.001  23.510   3.651  1.00 33.02 LIG 0.01  C 
ATOM     54  CG2 VAL B   2      55.587  23.705   3.035  1.00 33.85 LIG 0.01  C 
ENDBRANCH 51 52
BRANCH 51 55
ATOM     55  N   VAL B   2      57.481  26.205   3.177  1.00 33.13 LIG-0.35  N 
ATOM     56 H    VAL B   2      57.239  25.884   3.938  1.00 33.13 LIG 0.16  HD
ATOM     57  C   ALA B   1      58.020  27.408   3.021  1.00 33.26 LIG 0.25  C 
ATOM     58 O    ALA B   1      58.346  27.862   1.927  1.00 33.25 LIG-0.27  OA
BRANCH 57 59
ATOM     59  CA  ALA B   1      58.217  28.232   4.286  1.00 31.51 LIG 0.27  C 
ATOM     60  CB  ALA B   1      58.364  29.712   3.938  1.00 29.23 LIG 0.05  C 
BRANCH 59 61
ATOM     61  N   ALA B   1      59.418  27.752   4.952  1.00 32.32 LIG-0.07  N 
ATOM     62 H3   ALA B   1      59.190  27.237   5.641  1.00 32.32 LIG 0.28  HD
ATOM     63 H2   ALA B   1      59.892  28.445   5.246  1.00 32.32 LIG 0.28  HD
ATOM     64 H1   ALA B   1      59.907  27.280   4.378  1.00 32.32 LIG 0.28  HD
ENDBRANCH 59 61
ENDBRANCH 57 59
ENDBRANCH 51 55
ENDBRANCH 48 51
ENDBRANCH 45 47
ENDBRANCH 43 45
ENDBRANCH 1 41
TORSDOF 21
ENDMDL
MODEL 37
USER: ADFR SOLUTION from run 197
USER: SCORE 18.499901 LL:  -5.413 LR: -15.083 RR:   0.000 FEB:  -8.819
USER: RMSD 4.349053
USER: SEED 196
USER: STATUS no improvement in best in 8 clusters for 5 generations
USER: GENES 23
USER: genes 0 Translation |==|  0.51684 0.53608 0.53254
USER: genes 1 Rotation |==|  0.82776 0.53713 0.87429 0.53317
USER: genes 2 Torsion [C]-CA--CB-[CG] |==|  0.79321
USER: genes 3 Torsion [CA]-CB--CG-[CD1] |==|  0.25753
USER: genes 4 Torsion [N]-CA--C-[N] |==|  0.58377
USER: genes 5 Torsion [C]-N--CA-[CB] |==|  0.14578
USER: genes 6 Torsion [N]-CA--CB-[CG] |==|  0.64984
USER: genes 7 Torsion [CA]-CB--CG-[CD1] |==|  0.13559
USER: genes 8 Torsion [CE2]-CZ--OH-[HH] |==|  0.19420
USER: genes 9 Torsion [N]-CA--C-[N] |==|  0.67077
USER: genes 10 Torsion [C]-N--CA-[C] |==|  0.80805
USER: genes 11 Torsion [N]-CA--CB-[CG1] |==|  0.78406
USER: genes 12 Torsion [CA]-CB--CG1-[CD1] |==|  0.19012
USER: genes 13 Torsion [N]-CA--C-[N] |==|  0.34243
USER: genes 14 Torsion [N]-CA--C-[O] |==|  0.60294
USER: genes 15 Torsion [CB]-CA--N-[C] |==|  0.20192
USER: genes 16 Torsion [N]-C--CA-[N] |==|  0.45938
USER: genes 17 Torsion [C]-CA--N-[C] |==|  0.80428
USER: genes 18 Torsion [N]-C--CA-[N] |==|  0.97117
USER: genes 19 Torsion [C]-CA--CB-[CG1] |==|  0.88342
USER: genes 20 Torsion [C]-CA--N-[C] |==|  0.65046
USER: genes 21 Torsion [N]-C--CA-[N] |==|  0.31978
USER: genes 22 Torsion [C]-CA--N-[H3] |==|  0.11045
ROOT
ATOM      1  CA  PHE B   4      53.880  26.847  -3.133  1.00 44.68 LIG 0.18  C 
ENDROOT
BRANCH 1 2
ATOM      2  CB  PHE B   4      55.126  26.608  -3.991  1.00 43.52 LIG 0.07  C 
BRANCH 2 3
ATOM      3  CG  PHE B   4      55.398  25.156  -4.251  1.00 43.42 LIG-0.06  A 
ATOM      4  CD2 PHE B   4      56.109  24.393  -3.330  1.00 43.71 LIG 0.01  A 
ATOM      5  CE2 PHE B   4      56.318  23.028  -3.541  1.00 44.42 LIG 0.00  A 
ATOM      6  CZ  PHE B   4      55.813  22.420  -4.689  1.00 44.23 LIG 0.00  A 
ATOM      7  CE1 PHE B   4      55.104  23.176  -5.616  1.00 42.62 LIG 0.00  A 
ATOM      8  CD1 PHE B   4      54.901  24.536  -5.393  1.00 43.35 LIG 0.01  A 
ENDBRANCH 2 3
ENDBRANCH 1 2
BRANCH 1 9
ATOM      9  C   PHE B   4      52.608  26.616  -3.937  1.00 47.70 LIG 0.24  C 
ATOM     10 O    PHE B   4      51.572  26.251  -3.383  1.00 47.98 LIG-0.27  OA
ATOM     11  N   TYR B   5      52.705  26.819  -5.246  1.00 50.93 LIG-0.35  N 
ATOM     12 H    TYR B   5      53.427  27.083  -5.632  1.00 50.93 LIG 0.16  HD
BRANCH 11 13
ATOM     13  CA  TYR B   5      51.585  26.613  -6.160  1.00 53.91 LIG 0.18  C 
BRANCH 13 14
ATOM     14  CB  TYR B   5      50.343  27.376  -5.691  1.00 56.99 LIG 0.07  C 
BRANCH 14 15
ATOM     15  CG  TYR B   5      49.105  26.508  -5.550  1.00 60.80 LIG-0.06  A 
ATOM     16  CD2 TYR B   5      47.884  26.905  -6.095  1.00 62.97 LIG 0.01  A 
ATOM     17  CE2 TYR B   5      46.739  26.119  -5.949  1.00 63.70 LIG 0.04  A 
ATOM     18  CZ  TYR B   5      46.815  24.922  -5.251  1.00 64.21 LIG 0.07  A 
ATOM     19  CE1 TYR B   5      48.016  24.505  -4.705  1.00 63.24 LIG 0.04  A 
ATOM     20  CD1 TYR B   5      49.149  25.294  -4.857  1.00 61.93 LIG 0.01  A 
BRANCH 18 21
ATOM     21 OH   TYR B   5      45.689  24.149  -5.085  1.00 64.43 LIG-0.36  OA
ATOM     22 HH   TYR B   5      45.467  23.815  -5.824  1.00 64.43 LIG 0.22  HD
ENDBRANCH 18 21
ENDBRANCH 14 15
ENDBRANCH 13 14
BRANCH 13 23
ATOM     23  C   TYR B   5      51.987  27.112  -7.540  1.00 54.78 LIG 0.24  C 
ATOM     24  N   ILE B   6      51.263  28.109  -8.039  1.00 56.06 LIG-0.35  N 
ATOM     25 H    ILE B   6      50.596  28.469  -7.632  1.00 56.06 LIG 0.16  HD
ATOM     26 O    TYR B   5      52.938  26.608  -8.136  1.00 54.12 LIG-0.27  OA
BRANCH 24 27
ATOM     27  CA  ILE B   6      51.547  28.684  -9.349  1.00 57.79 LIG 0.18  C 
BRANCH 27 28
ATOM     28  CB  ILE B   6      50.407  29.629  -9.802  1.00 57.25 LIG 0.01  C 
ATOM     29  CG2 ILE B   6      50.891  30.554 -10.903  1.00 56.12 LIG 0.01  C 
BRANCH 28 30
ATOM     30  CG1 ILE B   6      49.225  28.800 -10.310  1.00 57.80 LIG 0.00  C 
ATOM     31  CD1 ILE B   6      48.530  28.023  -9.216  1.00 58.80 LIG 0.01  C 
ENDBRANCH 28 30
ENDBRANCH 27 28
BRANCH 27 32
ATOM     32  C   ILE B   6      52.865  29.456  -9.329  1.00 59.33 LIG 0.24  C 
ATOM     33 O    ILE B   6      53.050  30.377  -8.527  1.00 59.66 LIG-0.27  OA
ATOM     34  N   PRO B   7      53.804  29.083 -10.214  1.00 60.44 LIG-0.34  N 
ATOM     35  CA  PRO B   7      55.115  29.730 -10.313  1.00 61.29 LIG 0.17  C 
ATOM     36  CD  PRO B   7      53.696  27.979 -11.184  1.00 60.37 LIG 0.13  C 
ATOM     37  CB  PRO B   7      55.694  29.123 -11.585  1.00 61.79 LIG 0.04  C 
ATOM     38  CG  PRO B   7      55.142  27.738 -11.556  1.00 60.72 LIG 0.02  C 
BRANCH 35 39
ATOM     39  C   PRO B   7      55.030  31.254 -10.384  1.00 62.02 LIG 0.22  C 
ATOM     40 O    PRO B   7      55.802  31.894 -11.093  1.00 61.64 LIG-0.29  OA
ENDBRANCH 35 39
ENDBRANCH 27 32
ENDBRANCH 24 27
ENDBRANCH 13 23
ENDBRANCH 11 13
ENDBRANCH 1 9
BRANCH 1 41
ATOM     41  N   PHE B   4      53.911  25.984  -1.965  1.00 40.22 LIG-0.35  N 
ATOM     42 H    PHE B   4      53.352  25.331  -1.986  1.00 40.22 LIG 0.16  HD
ATOM     43  C   ALA B   3      54.749  26.214  -0.962  1.00 36.80 LIG 0.24  C 
ATOM     44 O    ALA B   3      55.547  27.148  -0.961  1.00 35.05 LIG-0.27  OA
BRANCH 43 45
ATOM     45  CA  ALA B   3      54.687  25.242   0.210  1.00 35.42 LIG 0.17  C 
ATOM     46  CB  ALA B   3      53.441  25.504   1.036  1.00 34.55 LIG 0.04  C 
BRANCH 45 47
ATOM     47  N   ALA B   3      55.881  25.439   1.019  1.00 34.22 LIG-0.35  N 
ATOM     48  C   VAL B   2      57.076  25.066   0.575  1.00 33.55 LIG 0.24  C 
ATOM     49 O    VAL B   2      57.240  24.520  -0.516  1.00 34.35 LIG-0.27  OA
ATOM     50 H    ALA B   3      55.741  25.807   1.783  1.00 34.22 LIG 0.16  HD
BRANCH 48 51
ATOM     51  CA  VAL B   2      58.259  25.347   1.498  1.00 33.22 LIG 0.18  C 
BRANCH 51 52
ATOM     52  CB  VAL B   2      58.819  23.997   2.008  1.00 32.52 LIG 0.01  C 
ATOM     53  CG1 VAL B   2      57.683  23.051   2.372  1.00 33.02 LIG 0.01  C 
ATOM     54  CG2 VAL B   2      59.705  23.371   0.939  1.00 33.85 LIG 0.01  C 
ENDBRANCH 51 52
BRANCH 51 55
ATOM     55  N   VAL B   2      57.883  26.204   2.616  1.00 33.13 LIG-0.35  N 
ATOM     56 H    VAL B   2      57.214  25.914   3.073  1.00 33.13 LIG 0.16  HD
ATOM     57  C   ALA B   1      58.530  27.331   2.888  1.00 33.26 LIG 0.25  C 
ATOM     58 O    ALA B   1      59.473  27.743   2.218  1.00 33.25 LIG-0.27  OA
BRANCH 57 59
ATOM     59  CA  ALA B   1      58.039  28.121   4.093  1.00 31.51 LIG 0.27  C 
ATOM     60  CB  ALA B   1      57.693  29.552   3.684  1.00 29.23 LIG 0.05  C 
BRANCH 59 61
ATOM     61  N   ALA B   1      59.099  28.127   5.089  1.00 32.32 LIG-0.07  N 
ATOM     62 H3   ALA B   1      59.886  28.227   4.685  1.00 32.32 LIG 0.28  HD
ATOM     63 H2   ALA B   1      59.092  27.357   5.535  1.00 32.32 LIG 0.28  HD
ATOM     64 H1   ALA B   1      58.970  28.800   5.656  1.00 32.32 LIG 0.28  HD
ENDBRANCH 59 61
ENDBRANCH 57 59
ENDBRANCH 51 55
ENDBRANCH 48 51
ENDBRANCH 45 47
ENDBRANCH 43 45
ENDBRANCH 1 41
TORSDOF 21
ENDMDL
MODEL 38
USER: ADFR SOLUTION from run 81
USER: SCORE 18.434347 LL:  -5.697 LR: -15.078 RR:   0.000 FEB:  -8.813
USER: RMSD 2.895806
USER: SEED 80
USER: STATUS searching
USER: GENES 23
USER: genes 0 Translation |==|  0.48115 0.35958 0.65376
USER: genes 1 Rotation |==|  0.35911 0.52425 0.34429 0.95312
USER: genes 2 Torsion [C]-CA--CB-[CG] |==|  0.29995
USER: genes 3 Torsion [CA]-CB--CG-[CD1] |==|  0.23102
USER: genes 4 Torsion [N]-CA--C-[N] |==|  0.81668
USER: genes 5 Torsion [C]-N--CA-[CB] |==|  0.18452
USER: genes 6 Torsion [N]-CA--CB-[CG] |==|  0.57480
USER: genes 7 Torsion [CA]-CB--CG-[CD1] |==|  0.02724
USER: genes 8 Torsion [CE2]-CZ--OH-[HH] |==|  0.64751
USER: genes 9 Torsion [N]-CA--C-[N] |==|  0.44126
USER: genes 10 Torsion [C]-N--CA-[C] |==|  0.60171
USER: genes 11 Torsion [N]-CA--CB-[CG1] |==|  0.88413
USER: genes 12 Torsion [CA]-CB--CG1-[CD1] |==|  0.50559
USER: genes 13 Torsion [N]-CA--C-[N] |==|  0.15373
USER: genes 14 Torsion [N]-CA--C-[O] |==|  0.70415
USER: genes 15 Torsion [CB]-CA--N-[C] |==|  0.84100
USER: genes 16 Torsion [N]-C--CA-[N] |==|  0.87014
USER: genes 17 Torsion [C]-CA--N-[C] |==|  0.84594
USER: genes 18 Torsion [N]-C--CA-[N] |==|  0.46610
USER: genes 19 Torsion [C]-CA--CB-[CG1] |==|  0.47989
USER: genes 20 Torsion [C]-CA--N-[C] |==|  0.78001
USER: genes 21 Torsion [N]-C--CA-[N] |==|  0.27083
USER: genes 22 Torsion [C]-CA--N-[H3] |==|  0.80140
ROOT
ATOM      1  CA  PHE B   4      53.051  23.935  -0.133  1.00 44.68 LIG 0.18  C 
ENDROOT
BRANCH 1 2
ATOM      2  CB  PHE B   4      52.541  25.131   0.678  1.00 43.52 LIG 0.07  C 
BRANCH 2 3
ATOM      3  CG  PHE B   4      51.867  24.737   1.959  1.00 43.42 LIG-0.06  A 
ATOM      4  CD2 PHE B   4      50.487  24.578   2.012  1.00 43.71 LIG 0.01  A 
ATOM      5  CE2 PHE B   4      49.859  24.158   3.187  1.00 44.42 LIG 0.00  A 
ATOM      6  CZ  PHE B   4      50.623  23.896   4.324  1.00 44.23 LIG 0.00  A 
ATOM      7  CE1 PHE B   4      52.004  24.055   4.280  1.00 42.62 LIG 0.00  A 
ATOM      8  CD1 PHE B   4      52.617  24.474   3.101  1.00 43.35 LIG 0.01  A 
ENDBRANCH 2 3
ENDBRANCH 1 2
BRANCH 1 9
ATOM      9  C   PHE B   4      52.199  23.712  -1.375  1.00 47.70 LIG 0.24  C 
ATOM     10 O    PHE B   4      51.665  22.623  -1.584  1.00 47.98 LIG-0.27  OA
ATOM     11  N   TYR B   5      52.092  24.748  -2.198  1.00 50.93 LIG-0.35  N 
ATOM     12 H    TYR B   5      52.458  25.512  -2.048  1.00 50.93 LIG 0.16  HD
BRANCH 11 13
ATOM     13  CA  TYR B   5      51.337  24.688  -3.447  1.00 53.91 LIG 0.18  C 
BRANCH 13 14
ATOM     14  CB  TYR B   5      49.840  24.513  -3.177  1.00 56.99 LIG 0.07  C 
BRANCH 14 15
ATOM     15  CG  TYR B   5      49.090  23.817  -4.300  1.00 60.80 LIG-0.06  A 
ATOM     16  CD2 TYR B   5      47.697  23.747  -4.296  1.00 62.97 LIG 0.01  A 
ATOM     17  CE2 TYR B   5      47.006  23.091  -5.317  1.00 63.70 LIG 0.04  A 
ATOM     18  CZ  TYR B   5      47.714  22.498  -6.353  1.00 64.21 LIG 0.07  A 
ATOM     19  CE1 TYR B   5      49.096  22.559  -6.380  1.00 63.24 LIG 0.04  A 
ATOM     20  CD1 TYR B   5      49.773  23.215  -5.360  1.00 61.93 LIG 0.01  A 
BRANCH 18 21
ATOM     21 OH   TYR B   5      47.043  21.834  -7.353  1.00 64.43 LIG-0.36  OA
ATOM     22 HH   TYR B   5      47.358  21.059  -7.435  1.00 64.43 LIG 0.22  HD
ENDBRANCH 18 21
ENDBRANCH 14 15
ENDBRANCH 13 14
BRANCH 13 23
ATOM     23  C   TYR B   5      51.558  25.986  -4.210  1.00 54.78 LIG 0.24  C 
ATOM     24  N   ILE B   6      51.322  25.947  -5.518  1.00 56.06 LIG-0.35  N 
ATOM     25 H    ILE B   6      51.063  25.243  -5.938  1.00 56.06 LIG 0.16  HD
ATOM     26 O    TYR B   5      51.928  27.002  -3.623  1.00 54.12 LIG-0.27  OA
BRANCH 24 27
ATOM     27  CA  ILE B   6      51.490  27.124  -6.364  1.00 57.79 LIG 0.18  C 
BRANCH 27 28
ATOM     28  CB  ILE B   6      52.892  27.142  -7.021  1.00 57.25 LIG 0.01  C 
ATOM     29  CG2 ILE B   6      53.218  28.532  -7.535  1.00 56.12 LIG 0.01  C 
BRANCH 28 30
ATOM     30  CG1 ILE B   6      53.944  26.713  -5.997  1.00 57.80 LIG 0.00  C 
ATOM     31  CD1 ILE B   6      55.353  26.749  -6.541  1.00 58.80 LIG 0.01  C 
ENDBRANCH 28 30
ENDBRANCH 27 28
BRANCH 27 32
ATOM     32  C   ILE B   6      50.420  27.166  -7.453  1.00 59.33 LIG 0.24  C 
ATOM     33 O    ILE B   6      50.731  27.236  -8.647  1.00 59.66 LIG-0.27  OA
ATOM     34  N   PRO B   7      49.140  27.116  -7.053  1.00 60.44 LIG-0.34  N 
ATOM     35  CA  PRO B   7      48.007  27.148  -7.982  1.00 61.29 LIG 0.17  C 
ATOM     36  CD  PRO B   7      48.666  26.996  -5.662  1.00 60.37 LIG 0.13  C 
ATOM     37  CB  PRO B   7      46.812  27.309  -7.050  1.00 61.79 LIG 0.04  C 
ATOM     38  CG  PRO B   7      47.238  26.533  -5.849  1.00 60.72 LIG 0.02  C 
BRANCH 35 39
ATOM     39  C   PRO B   7      48.100  28.279  -9.005  1.00 62.02 LIG 0.22  C 
ATOM     40 O    PRO B   7      47.378  29.269  -8.916  1.00 61.64 LIG-0.29  OA
ENDBRANCH 35 39
ENDBRANCH 27 32
ENDBRANCH 24 27
ENDBRANCH 13 23
ENDBRANCH 11 13
ENDBRANCH 1 9
BRANCH 1 41
ATOM     41  N   PHE B   4      54.442  24.141  -0.497  1.00 40.22 LIG-0.35  N 
ATOM     42 H    PHE B   4      54.978  23.524  -0.231  1.00 40.22 LIG 0.16  HD
ATOM     43  C   ALA B   3      54.821  25.210  -1.186  1.00 36.80 LIG 0.24  C 
ATOM     44 O    ALA B   3      54.032  26.072  -1.565  1.00 35.05 LIG-0.27  OA
BRANCH 43 45
ATOM     45  CA  ALA B   3      56.306  25.319  -1.506  1.00 35.42 LIG 0.17  C 
ATOM     46  CB  ALA B   3      56.678  24.328  -2.593  1.00 34.55 LIG 0.04  C 
BRANCH 45 47
ATOM     47  N   ALA B   3      57.049  25.035  -0.286  1.00 34.22 LIG-0.35  N 
ATOM     48  C   VAL B   2      56.824  25.723   0.827  1.00 33.55 LIG 0.24  C 
ATOM     49 O    VAL B   2      56.006  26.641   0.887  1.00 34.35 LIG-0.27  OA
ATOM     50 H    ALA B   3      57.626  24.402  -0.356  1.00 34.22 LIG 0.16  HD
BRANCH 48 51
ATOM     51  CA  VAL B   2      57.642  25.319   2.050  1.00 33.22 LIG 0.18  C 
BRANCH 51 52
ATOM     52  CB  VAL B   2      57.160  23.929   2.531  1.00 32.52 LIG 0.01  C 
ATOM     53  CG1 VAL B   2      58.064  23.404   3.639  1.00 33.02 LIG 0.01  C 
ATOM     54  CG2 VAL B   2      55.722  24.025   3.025  1.00 33.85 LIG 0.01  C 
ENDBRANCH 51 52
BRANCH 51 55
ATOM     55  N   VAL B   2      57.534  26.301   3.123  1.00 33.13 LIG-0.35  N 
ATOM     56 H    VAL B   2      56.988  26.081   3.749  1.00 33.13 LIG 0.16  HD
ATOM     57  C   ALA B   1      58.229  27.432   3.113  1.00 33.26 LIG 0.25  C 
ATOM     58 O    ALA B   1      58.994  27.745   2.205  1.00 33.25 LIG-0.27  OA
BRANCH 57 59
ATOM     59  CA  ALA B   1      58.028  28.361   4.303  1.00 31.51 LIG 0.27  C 
ATOM     60  CB  ALA B   1      58.034  29.818   3.846  1.00 29.23 LIG 0.05  C 
BRANCH 59 61
ATOM     61  N   ALA B   1      59.114  28.127   5.243  1.00 32.32 LIG-0.07  N 
ATOM     62 H3   ALA B   1      59.002  27.336   5.635  1.00 32.32 LIG 0.28  HD
ATOM     63 H2   ALA B   1      59.114  28.766   5.862  1.00 32.32 LIG 0.28  HD
ATOM     64 H1   ALA B   1      59.890  28.135   4.808  1.00 32.32 LIG 0.28  HD
ENDBRANCH 59 61
ENDBRANCH 57 59
ENDBRANCH 51 55
ENDBRANCH 48 51
ENDBRANCH 45 47
ENDBRANCH 43 45
ENDBRANCH 1 41
TORSDOF 21
ENDMDL
MODEL 39
USER: ADFR SOLUTION from run 14
USER: SCORE 17.823433 LL:  -6.450 LR: -15.071 RR:   0.000 FEB:  -8.807
USER: RMSD 5.208543
USER: SEED 712280
USER: STATUS no improvement in best in 10 clusters for 5 generations
USER: GENES 23
USER: genes 0 Translation |==|  0.60437 0.45663 0.54526
USER: genes 1 Rotation |==|  0.83132 0.43281 0.79961 0.71434
USER: genes 2 Torsion [C]-CA--CB-[CG] |==|  0.82434
USER: genes 3 Torsion [CA]-CB--CG-[CD1] |==|  0.26154
USER: genes 4 Torsion [N]-CA--C-[N] |==|  0.54019
USER: genes 5 Torsion [C]-N--CA-[CB] |==|  0.47647
USER: genes 6 Torsion [N]-CA--CB-[CG] |==|  0.54670
USER: genes 7 Torsion [CA]-CB--CG-[CD1] |==|  0.97358
USER: genes 8 Torsion [CE2]-CZ--OH-[HH] |==|  0.40144
USER: genes 9 Torsion [N]-CA--C-[N] |==|  0.29439
USER: genes 10 Torsion [C]-N--CA-[C] |==|  0.66932
USER: genes 11 Torsion [N]-CA--CB-[CG1] |==|  0.89106
USER: genes 12 Torsion [CA]-CB--CG1-[CD1] |==|  0.64312
USER: genes 13 Torsion [N]-CA--C-[N] |==|  0.20800
USER: genes 14 Torsion [N]-CA--C-[O] |==|  0.41952
USER: genes 15 Torsion [CB]-CA--N-[C] |==|  0.39726
USER: genes 16 Torsion [N]-C--CA-[N] |==|  0.44788
USER: genes 17 Torsion [C]-CA--N-[C] |==|  0.80806
USER: genes 18 Torsion [N]-C--CA-[N] |==|  0.37932
USER: genes 19 Torsion [C]-CA--CB-[CG1] |==|  0.40155
USER: genes 20 Torsion [C]-CA--N-[C] |==|  0.86538
USER: genes 21 Torsion [N]-C--CA-[N] |==|  0.18687
USER: genes 22 Torsion [C]-CA--N-[H3] |==|  0.02189
ROOT
ATOM      1  CA  PHE B   4      55.916  25.536  -2.818  1.00 44.68 LIG 0.18  C 
ENDROOT
BRANCH 1 2
ATOM      2  CB  PHE B   4      56.375  24.333  -3.647  1.00 43.52 LIG 0.07  C 
BRANCH 2 3
ATOM      3  CG  PHE B   4      55.313  23.287  -3.814  1.00 43.42 LIG-0.06  A 
ATOM      4  CD2 PHE B   4      55.102  22.330  -2.827  1.00 43.71 LIG 0.01  A 
ATOM      5  CE2 PHE B   4      54.079  21.387  -2.951  1.00 44.42 LIG 0.00  A 
ATOM      6  CZ  PHE B   4      53.259  21.400  -4.080  1.00 44.23 LIG 0.00  A 
ATOM      7  CE1 PHE B   4      53.466  22.351  -5.072  1.00 42.62 LIG 0.00  A 
ATOM      8  CD1 PHE B   4      54.489  23.287  -4.935  1.00 43.35 LIG 0.01  A 
ENDBRANCH 2 3
ENDBRANCH 1 2
BRANCH 1 9
ATOM      9  C   PHE B   4      54.774  26.273  -3.506  1.00 47.70 LIG 0.24  C 
ATOM     10 O    PHE B   4      53.794  26.652  -2.866  1.00 47.98 LIG-0.27  OA
ATOM     11  N   TYR B   5      54.909  26.457  -4.815  1.00 50.93 LIG-0.35  N 
ATOM     12 H    TYR B   5      55.599  26.201  -5.260  1.00 50.93 LIG 0.16  HD
BRANCH 11 13
ATOM     13  CA  TYR B   5      53.892  27.119  -5.626  1.00 53.91 LIG 0.18  C 
BRANCH 13 14
ATOM     14  CB  TYR B   5      54.402  27.377  -7.047  1.00 56.99 LIG 0.07  C 
BRANCH 14 15
ATOM     15  CG  TYR B   5      53.583  28.398  -7.818  1.00 60.80 LIG-0.06  A 
ATOM     16  CD2 TYR B   5      54.032  28.902  -9.038  1.00 62.97 LIG 0.01  A 
ATOM     17  CE2 TYR B   5      53.291  29.856  -9.740  1.00 63.70 LIG 0.04  A 
ATOM     18  CZ  TYR B   5      52.089  30.311  -9.216  1.00 64.21 LIG 0.07  A 
ATOM     19  CE1 TYR B   5      51.622  29.822  -8.009  1.00 63.24 LIG 0.04  A 
ATOM     20  CD1 TYR B   5      52.366  28.872  -7.321  1.00 61.93 LIG 0.01  A 
BRANCH 18 21
ATOM     21 OH   TYR B   5      51.361  31.264  -9.891  1.00 64.43 LIG-0.36  OA
ATOM     22 HH   TYR B   5      50.541  31.113  -9.791  1.00 64.43 LIG 0.22  HD
ENDBRANCH 18 21
ENDBRANCH 14 15
ENDBRANCH 13 14
BRANCH 13 23
ATOM     23  C   TYR B   5      52.665  26.222  -5.691  1.00 54.78 LIG 0.24  C 
ATOM     24  N   ILE B   6      51.618  26.602  -4.965  1.00 56.06 LIG-0.35  N 
ATOM     25 H    ILE B   6      51.606  27.308  -4.474  1.00 56.06 LIG 0.16  HD
ATOM     26 O    TYR B   5      52.666  25.209  -6.390  1.00 54.12 LIG-0.27  OA
BRANCH 24 27
ATOM     27  CA  ILE B   6      50.377  25.834  -4.944  1.00 57.79 LIG 0.18  C 
BRANCH 27 28
ATOM     28  CB  ILE B   6      50.055  25.337  -3.514  1.00 57.25 LIG 0.01  C 
ATOM     29  CG2 ILE B   6      49.084  24.172  -3.564  1.00 56.12 LIG 0.01  C 
BRANCH 28 30
ATOM     30  CG1 ILE B   6      51.346  24.899  -2.819  1.00 57.80 LIG 0.00  C 
ATOM     31  CD1 ILE B   6      51.261  23.513  -2.223  1.00 58.80 LIG 0.01  C 
ENDBRANCH 28 30
ENDBRANCH 27 28
BRANCH 27 32
ATOM     32  C   ILE B   6      49.211  26.672  -5.463  1.00 59.33 LIG 0.24  C 
ATOM     33 O    ILE B   6      48.371  27.141  -4.688  1.00 59.66 LIG-0.27  OA
ATOM     34  N   PRO B   7      49.150  26.877  -6.788  1.00 60.44 LIG-0.34  N 
ATOM     35  CA  PRO B   7      48.090  27.659  -7.431  1.00 61.29 LIG 0.17  C 
ATOM     36  CD  PRO B   7      50.117  26.395  -7.790  1.00 60.37 LIG 0.13  C 
ATOM     37  CB  PRO B   7      48.329  27.395  -8.913  1.00 61.79 LIG 0.04  C 
ATOM     38  CG  PRO B   7      49.815  27.278  -8.980  1.00 60.72 LIG 0.02  C 
BRANCH 35 39
ATOM     39  C   PRO B   7      46.686  27.248  -6.988  1.00 62.02 LIG 0.22  C 
ATOM     40 O    PRO B   7      45.766  28.062  -6.981  1.00 61.64 LIG-0.29  OA
ENDBRANCH 35 39
ENDBRANCH 27 32
ENDBRANCH 24 27
ENDBRANCH 13 23
ENDBRANCH 11 13
ENDBRANCH 1 9
BRANCH 1 41
ATOM     41  N   PHE B   4      55.515  25.099  -1.491  1.00 40.22 LIG-0.35  N 
ATOM     42 H    PHE B   4      55.113  24.339  -1.470  1.00 40.22 LIG 0.16  HD
ATOM     43  C   ALA B   3      55.766  25.838  -0.419  1.00 36.80 LIG 0.24  C 
ATOM     44 O    ALA B   3      56.354  26.916  -0.475  1.00 35.05 LIG-0.27  OA
BRANCH 43 45
ATOM     45  CA  ALA B   3      55.296  25.277   0.917  1.00 35.42 LIG 0.17  C 
ATOM     46  CB  ALA B   3      53.803  25.501   1.078  1.00 34.55 LIG 0.04  C 
BRANCH 45 47
ATOM     47  N   ALA B   3      56.027  25.962   1.973  1.00 34.22 LIG-0.35  N 
ATOM     48  C   VAL B   2      57.328  25.759   2.145  1.00 33.55 LIG 0.24  C 
ATOM     49 O    VAL B   2      57.977  24.977   1.451  1.00 34.35 LIG-0.27  OA
ATOM     50 H    ALA B   3      55.551  26.490   2.456  1.00 34.22 LIG 0.16  HD
BRANCH 48 51
ATOM     51  CA  VAL B   2      57.995  26.551   3.266  1.00 33.22 LIG 0.18  C 
BRANCH 51 52
ATOM     52  CB  VAL B   2      58.745  27.754   2.643  1.00 32.52 LIG 0.01  C 
ATOM     53  CG1 VAL B   2      58.669  28.965   3.563  1.00 33.02 LIG 0.01  C 
ATOM     54  CG2 VAL B   2      60.198  27.377   2.386  1.00 33.85 LIG 0.01  C 
ENDBRANCH 51 52
BRANCH 51 55
ATOM     55  N   VAL B   2      58.907  25.724   4.047  1.00 33.13 LIG-0.35  N 
ATOM     56 H    VAL B   2      59.682  26.075   4.173  1.00 33.13 LIG 0.16  HD
ATOM     57  C   ALA B   1      58.552  24.532   4.512  1.00 33.26 LIG 0.25  C 
ATOM     58 O    ALA B   1      57.448  24.033   4.312  1.00 33.25 LIG-0.27  OA
BRANCH 57 59
ATOM     59  CA  ALA B   1      59.600  23.781   5.323  1.00 31.51 LIG 0.27  C 
ATOM     60  CB  ALA B   1      59.121  22.363   5.625  1.00 29.23 LIG 0.05  C 
BRANCH 59 61
ATOM     61  N   ALA B   1      59.818  24.511   6.562  1.00 32.32 LIG-0.07  N 
ATOM     62 H3   ALA B   1      59.218  25.165   6.631  1.00 32.32 LIG 0.28  HD
ATOM     63 H2   ALA B   1      60.637  24.860   6.562  1.00 32.32 LIG 0.28  HD
ATOM     64 H1   ALA B   1      59.731  23.957   7.252  1.00 32.32 LIG 0.28  HD
ENDBRANCH 59 61
ENDBRANCH 57 59
ENDBRANCH 51 55
ENDBRANCH 48 51
ENDBRANCH 45 47
ENDBRANCH 43 45
ENDBRANCH 1 41
TORSDOF 21
ENDMDL
MODEL 40
USER: ADFR SOLUTION from run 123
USER: SCORE 17.829948 LL:  -5.843 LR: -15.073 RR:   0.000 FEB:  -8.809
USER: RMSD 7.389149
USER: SEED 122
USER: STATUS no improvement in best in 5 clusters for 5 generations
USER: GENES 23
USER: genes 0 Translation |==|  0.59697 0.51722 0.70003
USER: genes 1 Rotation |==|  0.29905 0.39320 0.05518 0.51861
USER: genes 2 Torsion [C]-CA--CB-[CG] |==|  0.54848
USER: genes 3 Torsion [CA]-CB--CG-[CD1] |==|  0.79973
USER: genes 4 Torsion [N]-CA--C-[N] |==|  0.62629
USER: genes 5 Torsion [C]-N--CA-[CB] |==|  0.81111
USER: genes 6 Torsion [N]-CA--CB-[CG] |==|  0.78083
USER: genes 7 Torsion [CA]-CB--CG-[CD1] |==|  0.24522
USER: genes 8 Torsion [CE2]-CZ--OH-[HH] |==|  0.00059
USER: genes 9 Torsion [N]-CA--C-[N] |==|  0.60556
USER: genes 10 Torsion [C]-N--CA-[C] |==|  0.12960
USER: genes 11 Torsion [N]-CA--CB-[CG1] |==|  0.90580
USER: genes 12 Torsion [CA]-CB--CG1-[CD1] |==|  0.83555
USER: genes 13 Torsion [N]-CA--C-[N] |==|  0.14433
USER: genes 14 Torsion [N]-CA--C-[O] |==|  0.70858
USER: genes 15 Torsion [CB]-CA--N-[C] |==|  0.79357
USER: genes 16 Torsion [N]-C--CA-[N] |==|  0.14655
USER: genes 17 Torsion [C]-CA--N-[C] |==|  0.16753
USER: genes 18 Torsion [N]-C--CA-[N] |==|  0.96258
USER: genes 19 Torsion [C]-CA--CB-[CG1] |==|  0.99342
USER: genes 20 Torsion [C]-CA--N-[C] |==|  0.77773
USER: genes 21 Torsion [N]-C--CA-[N] |==|  0.79744
USER: genes 22 Torsion [C]-CA--N-[H3] |==|  0.04843
ROOT
ATOM      1  CA  PHE B   4      55.743  26.536   1.013  1.00 44.68 LIG 0.18  C 
ENDROOT
BRANCH 1 2
ATOM      2  CB  PHE B   4      57.244  26.828   0.925  1.00 43.52 LIG 0.07  C 
BRANCH 2 3
ATOM      3  CG  PHE B   4      57.871  27.120   2.257  1.00 43.42 LIG-0.06  A 
ATOM      4  CD2 PHE B   4      58.757  26.217   2.835  1.00 43.71 LIG 0.01  A 
ATOM      5  CE2 PHE B   4      59.386  26.507   4.048  1.00 44.42 LIG 0.00  A 
ATOM      6  CZ  PHE B   4      59.123  27.716   4.691  1.00 44.23 LIG 0.00  A 
ATOM      7  CE1 PHE B   4      58.237  28.623   4.122  1.00 42.62 LIG 0.00  A 
ATOM      8  CD1 PHE B   4      57.617  28.321   2.911  1.00 43.35 LIG 0.01  A 
ENDBRANCH 2 3
ENDBRANCH 1 2
BRANCH 1 9
ATOM      9  C   PHE B   4      55.246  25.841  -0.247  1.00 47.70 LIG 0.24  C 
ATOM     10 O    PHE B   4      54.133  25.316  -0.279  1.00 47.98 LIG-0.27  OA
ATOM     11  N   TYR B   5      56.087  25.834  -1.276  1.00 50.93 LIG-0.35  N 
ATOM     12 H    TYR B   5      56.860  26.210  -1.257  1.00 50.93 LIG 0.16  HD
BRANCH 11 13
ATOM     13  CA  TYR B   5      55.773  25.184  -2.545  1.00 53.91 LIG 0.18  C 
BRANCH 13 14
ATOM     14  CB  TYR B   5      55.714  23.662  -2.385  1.00 56.99 LIG 0.07  C 
BRANCH 14 15
ATOM     15  CG  TYR B   5      57.078  22.995  -2.347  1.00 60.80 LIG-0.06  A 
ATOM     16  CD2 TYR B   5      57.671  22.510  -3.512  1.00 62.97 LIG 0.01  A 
ATOM     17  CE2 TYR B   5      58.916  21.877  -3.478  1.00 63.70 LIG 0.04  A 
ATOM     18  CZ  TYR B   5      59.575  21.728  -2.265  1.00 64.21 LIG 0.07  A 
ATOM     19  CE1 TYR B   5      59.008  22.206  -1.097  1.00 63.24 LIG 0.04  A 
ATOM     20  CD1 TYR B   5      57.770  22.834  -1.143  1.00 61.93 LIG 0.01  A 
BRANCH 18 21
ATOM     21 OH   TYR B   5      60.794  21.090  -2.218  1.00 64.43 LIG-0.36  OA
ATOM     22 HH   TYR B   5      61.014  20.849  -2.992  1.00 64.43 LIG 0.22  HD
ENDBRANCH 18 21
ENDBRANCH 14 15
ENDBRANCH 13 14
BRANCH 13 23
ATOM     23  C   TYR B   5      54.421  25.688  -3.027  1.00 54.78 LIG 0.24  C 
ATOM     24  N   ILE B   6      53.633  24.792  -3.614  1.00 56.06 LIG-0.35  N 
ATOM     25 H    ILE B   6      53.849  23.968  -3.732  1.00 56.06 LIG 0.16  HD
ATOM     26 O    TYR B   5      54.097  26.864  -2.865  1.00 54.12 LIG-0.27  OA
BRANCH 24 27
ATOM     27  CA  ILE B   6      52.309  25.144  -4.115  1.00 57.79 LIG 0.18  C 
BRANCH 27 28
ATOM     28  CB  ILE B   6      51.299  25.305  -2.953  1.00 57.25 LIG 0.01  C 
ATOM     29  CG2 ILE B   6      49.884  25.054  -3.441  1.00 56.12 LIG 0.01  C 
BRANCH 28 30
ATOM     30  CG1 ILE B   6      51.640  24.317  -1.836  1.00 57.80 LIG 0.00  C 
ATOM     31  CD1 ILE B   6      51.611  22.876  -2.287  1.00 58.80 LIG 0.01  C 
ENDBRANCH 28 30
ENDBRANCH 27 28
BRANCH 27 32
ATOM     32  C   ILE B   6      52.361  26.439  -4.923  1.00 59.33 LIG 0.24  C 
ATOM     33 O    ILE B   6      51.598  27.377  -4.670  1.00 59.66 LIG-0.27  OA
ATOM     34  N   PRO B   7      53.272  26.507  -5.907  1.00 60.44 LIG-0.34  N 
ATOM     35  CA  PRO B   7      53.439  27.683  -6.766  1.00 61.29 LIG 0.17  C 
ATOM     36  CD  PRO B   7      54.248  25.463  -6.265  1.00 60.37 LIG 0.13  C 
ATOM     37  CB  PRO B   7      54.397  27.182  -7.840  1.00 61.79 LIG 0.04  C 
ATOM     38  CG  PRO B   7      55.262  26.236  -7.077  1.00 60.72 LIG 0.02  C 
BRANCH 35 39
ATOM     39  C   PRO B   7      52.122  28.189  -7.355  1.00 62.02 LIG 0.22  C 
ATOM     40 O    PRO B   7      51.842  27.987  -8.534  1.00 61.64 LIG-0.29  OA
ENDBRANCH 35 39
ENDBRANCH 27 32
ENDBRANCH 24 27
ENDBRANCH 13 23
ENDBRANCH 11 13
ENDBRANCH 1 9
BRANCH 1 41
ATOM     41  N   PHE B   4      55.465  25.727   2.187  1.00 40.22 LIG-0.35  N 
ATOM     42 H    PHE B   4      55.093  26.152   2.835  1.00 40.22 LIG 0.16  HD
ATOM     43  C   ALA B   3      55.773  24.437   2.222  1.00 36.80 LIG 0.24  C 
ATOM     44 O    ALA B   3      56.294  23.851   1.276  1.00 35.05 LIG-0.27  OA
BRANCH 43 45
ATOM     45  CA  ALA B   3      55.436  23.693   3.508  1.00 35.42 LIG 0.17  C 
ATOM     46  CB  ALA B   3      55.692  22.208   3.332  1.00 34.55 LIG 0.04  C 
BRANCH 45 47
ATOM     47  N   ALA B   3      54.032  23.933   3.809  1.00 34.22 LIG-0.35  N 
ATOM     48  C   VAL B   2      53.080  23.565   2.959  1.00 33.55 LIG 0.24  C 
ATOM     49 O    VAL B   2      53.322  23.032   1.877  1.00 34.35 LIG-0.27  OA
ATOM     50 H    ALA B   3      53.886  24.321   4.561  1.00 34.22 LIG 0.16  HD
BRANCH 48 51
ATOM     51  CA  VAL B   2      51.642  23.842   3.393  1.00 33.22 LIG 0.18  C 
BRANCH 51 52
ATOM     52  CB  VAL B   2      51.076  24.989   2.521  1.00 32.52 LIG 0.01  C 
ATOM     53  CG1 VAL B   2      52.140  25.507   1.562  1.00 33.02 LIG 0.01  C 
ATOM     54  CG2 VAL B   2      49.863  24.494   1.745  1.00 33.85 LIG 0.01  C 
ENDBRANCH 51 52
BRANCH 51 55
ATOM     55  N   VAL B   2      51.559  24.182   4.808  1.00 33.13 LIG-0.35  N 
ATOM     56 H    VAL B   2      51.496  25.025   4.966  1.00 33.13 LIG 0.16  HD
ATOM     57  C   ALA B   1      51.581  23.253   5.757  1.00 33.26 LIG 0.25  C 
ATOM     58 O    ALA B   1      51.688  22.053   5.522  1.00 33.25 LIG-0.27  OA
BRANCH 57 59
ATOM     59  CA  ALA B   1      51.473  23.749   7.193  1.00 31.51 LIG 0.27  C 
ATOM     60  CB  ALA B   1      50.332  24.755   7.323  1.00 29.23 LIG 0.05  C 
BRANCH 59 61
ATOM     61  N   ALA B   1      52.737  24.376   7.548  1.00 32.32 LIG-0.07  N 
ATOM     62 H3   ALA B   1      53.194  24.563   6.808  1.00 32.32 LIG 0.28  HD
ATOM     63 H2   ALA B   1      53.212  23.821   8.056  1.00 32.32 LIG 0.28  HD
ATOM     64 H1   ALA B   1      52.580  25.127   7.997  1.00 32.32 LIG 0.28  HD
ENDBRANCH 59 61
ENDBRANCH 57 59
ENDBRANCH 51 55
ENDBRANCH 48 51
ENDBRANCH 45 47
ENDBRANCH 43 45
ENDBRANCH 1 41
TORSDOF 21
ENDMDL
MODEL 41
USER: ADFR SOLUTION from run 176
USER: SCORE 17.323988 LL:  -5.485 LR: -15.073 RR:   0.000 FEB:  -8.809
USER: RMSD 6.185471
USER: SEED 175
USER: STATUS no improvement in best in 9 clusters for 5 generations
USER: GENES 23
USER: genes 0 Translation |==|  0.52268 0.44685 0.50435
USER: genes 1 Rotation |==|  0.64297 0.34091 0.25686 0.88096
USER: genes 2 Torsion [C]-CA--CB-[CG] |==|  0.23418
USER: genes 3 Torsion [CA]-CB--CG-[CD1] |==|  0.32454
USER: genes 4 Torsion [N]-CA--C-[N] |==|  0.40385
USER: genes 5 Torsion [C]-N--CA-[CB] |==|  0.25000
USER: genes 6 Torsion [N]-CA--CB-[CG] |==|  0.61542
USER: genes 7 Torsion [CA]-CB--CG-[CD1] |==|  0.30162
USER: genes 8 Torsion [CE2]-CZ--OH-[HH] |==|  0.26785
USER: genes 9 Torsion [N]-CA--C-[N] |==|  0.33827
USER: genes 10 Torsion [C]-N--CA-[C] |==|  0.80547
USER: genes 11 Torsion [N]-CA--CB-[CG1] |==|  0.74644
USER: genes 12 Torsion [CA]-CB--CG1-[CD1] |==|  0.02332
USER: genes 13 Torsion [N]-CA--C-[N] |==|  0.83978
USER: genes 14 Torsion [N]-CA--C-[O] |==|  0.88505
USER: genes 15 Torsion [CB]-CA--N-[C] |==|  0.52225
USER: genes 16 Torsion [N]-C--CA-[N] |==|  0.93135
USER: genes 17 Torsion [C]-CA--N-[C] |==|  0.60719
USER: genes 18 Torsion [N]-C--CA-[N] |==|  0.58330
USER: genes 19 Torsion [C]-CA--CB-[CG1] |==|  0.87603
USER: genes 20 Torsion [C]-CA--N-[C] |==|  0.68819
USER: genes 21 Torsion [N]-C--CA-[N] |==|  0.42407
USER: genes 22 Torsion [C]-CA--N-[H3] |==|  0.14832
ROOT
ATOM      1  CA  PHE B   4      54.016  25.375  -3.830  1.00 44.68 LIG 0.18  C 
ENDROOT
BRANCH 1 2
ATOM      2  CB  PHE B   4      52.859  26.221  -3.291  1.00 43.52 LIG 0.07  C 
BRANCH 2 3
ATOM      3  CG  PHE B   4      51.672  26.256  -4.208  1.00 43.42 LIG-0.06  A 
ATOM      4  CD2 PHE B   4      51.788  26.769  -5.496  1.00 43.71 LIG 0.01  A 
ATOM      5  CE2 PHE B   4      50.701  26.754  -6.373  1.00 44.42 LIG 0.00  A 
ATOM      6  CZ  PHE B   4      49.481  26.223  -5.954  1.00 44.23 LIG 0.00  A 
ATOM      7  CE1 PHE B   4      49.356  25.712  -4.668  1.00 42.62 LIG 0.00  A 
ATOM      8  CD1 PHE B   4      50.449  25.731  -3.803  1.00 43.35 LIG 0.01  A 
ENDBRANCH 2 3
ENDBRANCH 1 2
BRANCH 1 9
ATOM      9  C   PHE B   4      54.887  26.182  -4.784  1.00 47.70 LIG 0.24  C 
ATOM     10 O    PHE B   4      55.818  26.866  -4.359  1.00 47.98 LIG-0.27  OA
ATOM     11  N   TYR B   5      54.566  26.103  -6.070  1.00 50.93 LIG-0.35  N 
ATOM     12 H    TYR B   5      53.921  25.618  -6.368  1.00 50.93 LIG 0.16  HD
BRANCH 11 13
ATOM     13  CA  TYR B   5      55.283  26.839  -7.108  1.00 53.91 LIG 0.18  C 
BRANCH 13 14
ATOM     14  CB  TYR B   5      56.453  26.017  -7.657  1.00 56.99 LIG 0.07  C 
BRANCH 14 15
ATOM     15  CG  TYR B   5      57.718  26.826  -7.885  1.00 60.80 LIG-0.06  A 
ATOM     16  CD2 TYR B   5      57.806  27.737  -8.937  1.00 62.97 LIG 0.01  A 
ATOM     17  CE2 TYR B   5      58.976  28.467  -9.162  1.00 63.70 LIG 0.04  A 
ATOM     18  CZ  TYR B   5      60.069  28.284  -8.326  1.00 64.21 LIG 0.07  A 
ATOM     19  CE1 TYR B   5      60.003  27.388  -7.274  1.00 63.24 LIG 0.04  A 
ATOM     20  CD1 TYR B   5      58.835  26.669  -7.059  1.00 61.93 LIG 0.01  A 
BRANCH 18 21
ATOM     21 OH   TYR B   5      61.231  28.985  -8.551  1.00 64.43 LIG-0.36  OA
ATOM     22 HH   TYR B   5      61.247  29.667  -8.061  1.00 64.43 LIG 0.22  HD
ENDBRANCH 18 21
ENDBRANCH 14 15
ENDBRANCH 13 14
BRANCH 13 23
ATOM     23  C   TYR B   5      54.314  27.147  -8.240  1.00 54.78 LIG 0.24  C 
ATOM     24  N   ILE B   6      54.152  28.432  -8.543  1.00 56.06 LIG-0.35  N 
ATOM     25 H    ILE B   6      54.555  29.075  -8.137  1.00 56.06 LIG 0.16  HD
ATOM     26 O    TYR B   5      53.731  26.239  -8.830  1.00 54.12 LIG-0.27  OA
BRANCH 24 27
ATOM     27  CA  ILE B   6      53.258  28.863  -9.611  1.00 57.79 LIG 0.18  C 
BRANCH 27 28
ATOM     28  CB  ILE B   6      53.029  30.393  -9.562  1.00 57.25 LIG 0.01  C 
ATOM     29  CG2 ILE B   6      52.824  30.943 -10.962  1.00 56.12 LIG 0.01  C 
BRANCH 28 30
ATOM     30  CG1 ILE B   6      51.801  30.702  -8.704  1.00 57.80 LIG 0.00  C 
ATOM     31  CD1 ILE B   6      51.265  29.491  -7.977  1.00 58.80 LIG 0.01  C 
ENDBRANCH 28 30
ENDBRANCH 27 28
BRANCH 27 32
ATOM     32  C   ILE B   6      53.820  28.479 -10.978  1.00 59.33 LIG 0.24  C 
ATOM     33 O    ILE B   6      53.172  27.773 -11.757  1.00 59.66 LIG-0.27  OA
ATOM     34  N   PRO B   7      55.039  28.948 -11.289  1.00 60.44 LIG-0.34  N 
ATOM     35  CA  PRO B   7      55.708  28.664 -12.562  1.00 61.29 LIG 0.17  C 
ATOM     36  CD  PRO B   7      55.876  29.823 -10.449  1.00 60.37 LIG 0.13  C 
ATOM     37  CB  PRO B   7      57.115  29.202 -12.330  1.00 61.79 LIG 0.04  C 
ATOM     38  CG  PRO B   7      56.864  30.380 -11.450  1.00 60.72 LIG 0.02  C 
BRANCH 35 39
ATOM     39  C   PRO B   7      55.707  27.179 -12.923  1.00 62.02 LIG 0.22  C 
ATOM     40 O    PRO B   7      55.920  26.324 -12.067  1.00 61.64 LIG-0.29  OA
ENDBRANCH 35 39
ENDBRANCH 27 32
ENDBRANCH 24 27
ENDBRANCH 13 23
ENDBRANCH 11 13
ENDBRANCH 1 9
BRANCH 1 41
ATOM     41  N   PHE B   4      54.808  24.860  -2.726  1.00 40.22 LIG-0.35  N 
ATOM     42 H    PHE B   4      54.471  24.999  -1.947  1.00 40.22 LIG 0.16  HD
ATOM     43  C   ALA B   3      55.956  24.229  -2.939  1.00 36.80 LIG 0.24  C 
ATOM     44 O    ALA B   3      56.409  24.032  -4.064  1.00 35.05 LIG-0.27  OA
BRANCH 43 45
ATOM     45  CA  ALA B   3      56.698  23.737  -1.703  1.00 35.42 LIG 0.17  C 
ATOM     46  CB  ALA B   3      56.361  22.280  -1.440  1.00 34.55 LIG 0.04  C 
BRANCH 45 47
ATOM     47  N   ALA B   3      56.289  24.563  -0.576  1.00 34.22 LIG-0.35  N 
ATOM     48  C   VAL B   2      57.164  24.936   0.350  1.00 33.55 LIG 0.24  C 
ATOM     49 O    VAL B   2      58.346  24.594   0.325  1.00 34.35 LIG-0.27  OA
ATOM     50 H    ALA B   3      55.456  24.776  -0.570  1.00 34.22 LIG 0.16  HD
BRANCH 48 51
ATOM     51  CA  VAL B   2      56.628  25.823   1.470  1.00 33.22 LIG 0.18  C 
BRANCH 51 52
ATOM     52  CB  VAL B   2      55.422  26.629   0.928  1.00 32.52 LIG 0.01  C 
ATOM     53  CG1 VAL B   2      55.735  27.197  -0.450  1.00 33.02 LIG 0.01  C 
ATOM     54  CG2 VAL B   2      54.192  25.733   0.862  1.00 33.85 LIG 0.01  C 
ENDBRANCH 51 52
BRANCH 51 55
ATOM     55  N   VAL B   2      57.653  26.720   1.990  1.00 33.13 LIG-0.35  N 
ATOM     56 H    VAL B   2      57.908  27.326   1.435  1.00 33.13 LIG 0.16  HD
ATOM     57  C   ALA B   1      58.140  26.594   3.219  1.00 33.26 LIG 0.25  C 
ATOM     58 O    ALA B   1      57.782  25.714   3.998  1.00 33.25 LIG-0.27  OA
BRANCH 57 59
ATOM     59  CA  ALA B   1      59.199  27.606   3.636  1.00 31.51 LIG 0.27  C 
ATOM     60  CB  ALA B   1      60.587  27.126   3.217  1.00 29.23 LIG 0.05  C 
BRANCH 59 61
ATOM     61  N   ALA B   1      59.134  27.753   5.082  1.00 32.32 LIG-0.07  N 
ATOM     62 H3   ALA B   1      59.197  26.953   5.465  1.00 32.32 LIG 0.28  HD
ATOM     63 H2   ALA B   1      58.360  28.129   5.309  1.00 32.32 LIG 0.28  HD
ATOM     64 H1   ALA B   1      59.806  28.267   5.358  1.00 32.32 LIG 0.28  HD
ENDBRANCH 59 61
ENDBRANCH 57 59
ENDBRANCH 51 55
ENDBRANCH 48 51
ENDBRANCH 45 47
ENDBRANCH 43 45
ENDBRANCH 1 41
TORSDOF 21
ENDMDL
MODEL 42
USER: ADFR SOLUTION from run 96
USER: SCORE 18.502048 LL:  -6.125 LR: -15.038 RR:   0.000 FEB:  -8.774
USER: RMSD 6.729418
USER: SEED 95
USER: STATUS no improvement in best in 3 clusters for 5 generations
USER: GENES 23
USER: genes 0 Translation |==|  0.60703 0.41017 0.58094
USER: genes 1 Rotation |==|  0.93308 0.53992 0.72545 0.60009
USER: genes 2 Torsion [C]-CA--CB-[CG] |==|  0.20686
USER: genes 3 Torsion [CA]-CB--CG-[CD1] |==|  0.46888
USER: genes 4 Torsion [N]-CA--C-[N] |==|  0.89315
USER: genes 5 Torsion [C]-N--CA-[CB] |==|  0.85604
USER: genes 6 Torsion [N]-CA--CB-[CG] |==|  0.74438
USER: genes 7 Torsion [CA]-CB--CG-[CD1] |==|  0.14699
USER: genes 8 Torsion [CE2]-CZ--OH-[HH] |==|  0.54505
USER: genes 9 Torsion [N]-CA--C-[N] |==|  0.78055
USER: genes 10 Torsion [C]-N--CA-[C] |==|  0.59671
USER: genes 11 Torsion [N]-CA--CB-[CG1] |==|  0.75590
USER: genes 12 Torsion [CA]-CB--CG1-[CD1] |==|  0.65472
USER: genes 13 Torsion [N]-CA--C-[N] |==|  0.35556
USER: genes 14 Torsion [N]-CA--C-[O] |==|  0.41386
USER: genes 15 Torsion [CB]-CA--N-[C] |==|  0.45208
USER: genes 16 Torsion [N]-C--CA-[N] |==|  0.38234
USER: genes 17 Torsion [C]-CA--N-[C] |==|  0.76537
USER: genes 18 Torsion [N]-C--CA-[N] |==|  0.96021
USER: genes 19 Torsion [C]-CA--CB-[CG1] |==|  0.56648
USER: genes 20 Torsion [C]-CA--N-[C] |==|  0.81429
USER: genes 21 Torsion [N]-C--CA-[N] |==|  0.07005
USER: genes 22 Torsion [C]-CA--N-[H3] |==|  0.11242
ROOT
ATOM      1  CA  PHE B   4      55.978  24.770  -1.935  1.00 44.68 LIG 0.18  C 
ENDROOT
BRANCH 1 2
ATOM      2  CB  PHE B   4      56.277  24.073  -3.265  1.00 43.52 LIG 0.07  C 
BRANCH 2 3
ATOM      3  CG  PHE B   4      56.014  24.939  -4.462  1.00 43.42 LIG-0.06  A 
ATOM      4  CD2 PHE B   4      55.376  26.167  -4.320  1.00 43.71 LIG 0.01  A 
ATOM      5  CE2 PHE B   4      55.177  27.003  -5.421  1.00 44.42 LIG 0.00  A 
ATOM      6  CZ  PHE B   4      55.619  26.602  -6.682  1.00 44.23 LIG 0.00  A 
ATOM      7  CE1 PHE B   4      56.254  25.375  -6.833  1.00 42.62 LIG 0.00  A 
ATOM      8  CD1 PHE B   4      56.448  24.551  -5.726  1.00 43.35 LIG 0.01  A 
ENDBRANCH 2 3
ENDBRANCH 1 2
BRANCH 1 9
ATOM      9  C   PHE B   4      54.477  24.873  -1.696  1.00 47.70 LIG 0.24  C 
ATOM     10 O    PHE B   4      53.864  25.902  -1.978  1.00 47.98 LIG-0.27  OA
ATOM     11  N   TYR B   5      53.901  23.802  -1.162  1.00 50.93 LIG-0.35  N 
ATOM     12 H    TYR B   5      54.327  23.079  -0.973  1.00 50.93 LIG 0.16  HD
BRANCH 11 13
ATOM     13  CA  TYR B   5      52.477  23.751  -0.843  1.00 53.91 LIG 0.18  C 
BRANCH 13 14
ATOM     14  CB  TYR B   5      52.059  24.953   0.008  1.00 56.99 LIG 0.07  C 
BRANCH 14 15
ATOM     15  CG  TYR B   5      52.130  24.702   1.505  1.00 60.80 LIG-0.06  A 
ATOM     16  CD2 TYR B   5      51.035  24.963   2.328  1.00 62.97 LIG 0.01  A 
ATOM     17  CE2 TYR B   5      51.104  24.752   3.707  1.00 63.70 LIG 0.04  A 
ATOM     18  CZ  TYR B   5      52.279  24.275   4.269  1.00 64.21 LIG 0.07  A 
ATOM     19  CE1 TYR B   5      53.377  24.004   3.472  1.00 63.24 LIG 0.04  A 
ATOM     20  CD1 TYR B   5      53.297  24.217   2.101  1.00 61.93 LIG 0.01  A 
BRANCH 18 21
ATOM     21 OH   TYR B   5      52.363  24.081   5.629  1.00 64.43 LIG-0.36  OA
ATOM     22 HH   TYR B   5      53.170  24.009   5.853  1.00 64.43 LIG 0.22  HD
ENDBRANCH 18 21
ENDBRANCH 14 15
ENDBRANCH 13 14
BRANCH 13 23
ATOM     23  C   TYR B   5      51.688  23.761  -2.144  1.00 54.78 LIG 0.24  C 
ATOM     24  N   ILE B   6      51.541  24.943  -2.734  1.00 56.06 LIG-0.35  N 
ATOM     25 H    ILE B   6      51.859  25.679  -2.421  1.00 56.06 LIG 0.16  HD
ATOM     26 O    TYR B   5      51.227  22.718  -2.605  1.00 54.12 LIG-0.27  OA
BRANCH 24 27
ATOM     27  CA  ILE B   6      50.812  25.090  -3.989  1.00 57.79 LIG 0.18  C 
BRANCH 27 28
ATOM     28  CB  ILE B   6      49.326  25.439  -3.732  1.00 57.25 LIG 0.01  C 
ATOM     29  CG2 ILE B   6      48.764  26.251  -4.884  1.00 56.12 LIG 0.01  C 
BRANCH 28 30
ATOM     30  CG1 ILE B   6      48.517  24.150  -3.570  1.00 57.80 LIG 0.00  C 
ATOM     31  CD1 ILE B   6      47.353  24.054  -4.528  1.00 58.80 LIG 0.01  C 
ENDBRANCH 28 30
ENDBRANCH 27 28
BRANCH 27 32
ATOM     32  C   ILE B   6      51.442  26.176  -4.859  1.00 59.33 LIG 0.24  C 
ATOM     33 O    ILE B   6      51.666  27.303  -4.406  1.00 59.66 LIG-0.27  OA
ATOM     34  N   PRO B   7      51.743  25.844  -6.125  1.00 60.44 LIG-0.34  N 
ATOM     35  CA  PRO B   7      52.351  26.778  -7.077  1.00 61.29 LIG 0.17  C 
ATOM     36  CD  PRO B   7      51.551  24.523  -6.748  1.00 60.37 LIG 0.13  C 
ATOM     37  CB  PRO B   7      52.267  26.018  -8.394  1.00 61.79 LIG 0.04  C 
ATOM     38  CG  PRO B   7      52.454  24.604  -7.958  1.00 60.72 LIG 0.02  C 
BRANCH 35 39
ATOM     39  C   PRO B   7      51.632  28.126  -7.138  1.00 62.02 LIG 0.22  C 
ATOM     40 O    PRO B   7      52.250  29.157  -7.394  1.00 61.64 LIG-0.29  OA
ENDBRANCH 35 39
ENDBRANCH 27 32
ENDBRANCH 24 27
ENDBRANCH 13 23
ENDBRANCH 11 13
ENDBRANCH 1 9
BRANCH 1 41
ATOM     41  N   PHE B   4      56.621  24.054  -0.846  1.00 40.22 LIG-0.35  N 
ATOM     42 H    PHE B   4      56.865  23.252  -1.039  1.00 40.22 LIG 0.16  HD
ATOM     43  C   ALA B   3      56.801  24.623   0.339  1.00 36.80 LIG 0.24  C 
ATOM     44 O    ALA B   3      56.453  25.776   0.584  1.00 35.05 LIG-0.27  OA
BRANCH 43 45
ATOM     45  CA  ALA B   3      57.484  23.773   1.403  1.00 35.42 LIG 0.17  C 
ATOM     46  CB  ALA B   3      56.453  23.230   2.375  1.00 34.55 LIG 0.04  C 
BRANCH 45 47
ATOM     47  N   ALA B   3      58.444  24.616   2.102  1.00 34.22 LIG-0.35  N 
ATOM     48  C   VAL B   2      59.666  24.804   1.618  1.00 33.55 LIG 0.24  C 
ATOM     49 O    VAL B   2      60.062  24.269   0.584  1.00 34.35 LIG-0.27  OA
ATOM     50 H    ALA B   3      58.151  24.966   2.830  1.00 34.22 LIG 0.16  HD
BRANCH 48 51
ATOM     51  CA  VAL B   2      60.577  25.728   2.422  1.00 33.22 LIG 0.18  C 
BRANCH 51 52
ATOM     52  CB  VAL B   2      61.664  24.872   3.114  1.00 32.52 LIG 0.01  C 
ATOM     53  CG1 VAL B   2      62.208  25.590   4.343  1.00 33.02 LIG 0.01  C 
ATOM     54  CG2 VAL B   2      61.082  23.521   3.509  1.00 33.85 LIG 0.01  C 
ENDBRANCH 51 52
BRANCH 51 55
ATOM     55  N   VAL B   2      59.830  26.505   3.404  1.00 33.13 LIG-0.35  N 
ATOM     56 H    VAL B   2      60.010  26.307   4.222  1.00 33.13 LIG 0.16  HD
ATOM     57  C   ALA B   1      58.952  27.434   3.046  1.00 33.26 LIG 0.25  C 
ATOM     58 O    ALA B   1      58.691  27.698   1.876  1.00 33.25 LIG-0.27  OA
BRANCH 57 59
ATOM     59  CA  ALA B   1      58.252  28.178   4.177  1.00 31.51 LIG 0.27  C 
ATOM     60  CB  ALA B   1      57.993  29.629   3.777  1.00 29.23 LIG 0.05  C 
BRANCH 59 61
ATOM     61  N   ALA B   1      59.114  28.127   5.348  1.00 32.32 LIG-0.07  N 
ATOM     62 H3   ALA B   1      59.960  28.245   5.100  1.00 32.32 LIG 0.28  HD
ATOM     63 H2   ALA B   1      59.030  27.335   5.745  1.00 32.32 LIG 0.28  HD
ATOM     64 H1   ALA B   1      58.880  28.770   5.917  1.00 32.32 LIG 0.28  HD
ENDBRANCH 59 61
ENDBRANCH 57 59
ENDBRANCH 51 55
ENDBRANCH 48 51
ENDBRANCH 45 47
ENDBRANCH 43 45
ENDBRANCH 1 41
TORSDOF 21
ENDMDL
MODEL 43
USER: ADFR SOLUTION from run 133
USER: SCORE 18.749301 LL:  -6.287 LR: -15.033 RR:   0.000 FEB:  -8.769
USER: RMSD 5.561792
USER: SEED 132
USER: STATUS no improvement in best in 5 clusters for 5 generations
USER: GENES 23
USER: genes 0 Translation |==|  0.53449 0.45326 0.60908
USER: genes 1 Rotation |==|  0.20623 0.39653 0.11237 0.55232
USER: genes 2 Torsion [C]-CA--CB-[CG] |==|  0.05921
USER: genes 3 Torsion [CA]-CB--CG-[CD1] |==|  0.72406
USER: genes 4 Torsion [N]-CA--C-[N] |==|  0.38033
USER: genes 5 Torsion [C]-N--CA-[CB] |==|  0.24441
USER: genes 6 Torsion [N]-CA--CB-[CG] |==|  0.93837
USER: genes 7 Torsion [CA]-CB--CG-[CD1] |==|  0.24465
USER: genes 8 Torsion [CE2]-CZ--OH-[HH] |==|  0.70609
USER: genes 9 Torsion [N]-CA--C-[N] |==|  0.23538
USER: genes 10 Torsion [C]-N--CA-[C] |==|  0.84291
USER: genes 11 Torsion [N]-CA--CB-[CG1] |==|  0.68735
USER: genes 12 Torsion [CA]-CB--CG1-[CD1] |==|  0.77998
USER: genes 13 Torsion [N]-CA--C-[N] |==|  0.87723
USER: genes 14 Torsion [N]-CA--C-[O] |==|  0.91227
USER: genes 15 Torsion [CB]-CA--N-[C] |==|  0.25964
USER: genes 16 Torsion [N]-C--CA-[N] |==|  0.33459
USER: genes 17 Torsion [C]-CA--N-[C] |==|  0.79445
USER: genes 18 Torsion [N]-C--CA-[N] |==|  0.93213
USER: genes 19 Torsion [C]-CA--CB-[CG1] |==|  0.45980
USER: genes 20 Torsion [C]-CA--N-[C] |==|  0.80563
USER: genes 21 Torsion [N]-C--CA-[N] |==|  0.12342
USER: genes 22 Torsion [C]-CA--N-[H3] |==|  0.16226
ROOT
ATOM      1  CA  PHE B   4      54.291  25.481  -1.238  1.00 44.68 LIG 0.18  C 
ENDROOT
BRANCH 1 2
ATOM      2  CB  PHE B   4      55.587  25.837  -1.973  1.00 43.52 LIG 0.07  C 
BRANCH 2 3
ATOM      3  CG  PHE B   4      55.433  25.876  -3.465  1.00 43.42 LIG-0.06  A 
ATOM      4  CD2 PHE B   4      54.938  27.012  -4.096  1.00 43.71 LIG 0.01  A 
ATOM      5  CE2 PHE B   4      54.844  27.074  -5.488  1.00 44.42 LIG 0.00  A 
ATOM      6  CZ  PHE B   4      55.247  25.984  -6.258  1.00 44.23 LIG 0.00  A 
ATOM      7  CE1 PHE B   4      55.740  24.843  -5.635  1.00 42.62 LIG 0.00  A 
ATOM      8  CD1 PHE B   4      55.830  24.794  -4.245  1.00 43.35 LIG 0.01  A 
ENDBRANCH 2 3
ENDBRANCH 1 2
BRANCH 1 9
ATOM      9  C   PHE B   4      53.319  24.757  -2.160  1.00 47.70 LIG 0.24  C 
ATOM     10 O    PHE B   4      53.466  23.562  -2.415  1.00 47.98 LIG-0.27  OA
ATOM     11  N   TYR B   5      52.338  25.496  -2.664  1.00 50.93 LIG-0.35  N 
ATOM     12 H    TYR B   5      52.230  26.329  -2.479  1.00 50.93 LIG 0.16  HD
BRANCH 11 13
ATOM     13  CA  TYR B   5      51.342  24.960  -3.587  1.00 53.91 LIG 0.18  C 
BRANCH 13 14
ATOM     14  CB  TYR B   5      50.155  24.360  -2.829  1.00 56.99 LIG 0.07  C 
BRANCH 14 15
ATOM     15  CG  TYR B   5      50.476  23.965  -1.398  1.00 60.80 LIG-0.06  A 
ATOM     16  CD2 TYR B   5      50.889  22.670  -1.087  1.00 62.97 LIG 0.01  A 
ATOM     17  CE2 TYR B   5      51.166  22.298   0.231  1.00 63.70 LIG 0.04  A 
ATOM     18  CZ  TYR B   5      51.027  23.231   1.249  1.00 64.21 LIG 0.07  A 
ATOM     19  CE1 TYR B   5      50.622  24.523   0.964  1.00 63.24 LIG 0.04  A 
ATOM     20  CD1 TYR B   5      50.351  24.882  -0.350  1.00 61.93 LIG 0.01  A 
BRANCH 18 21
ATOM     21 OH   TYR B   5      51.279  22.869   2.552  1.00 64.43 LIG-0.36  OA
ATOM     22 HH   TYR B   5      50.553  22.795   2.968  1.00 64.43 LIG 0.22  HD
ENDBRANCH 18 21
ENDBRANCH 14 15
ENDBRANCH 13 14
BRANCH 13 23
ATOM     23  C   TYR B   5      50.846  26.091  -4.476  1.00 54.78 LIG 0.24  C 
ATOM     24  N   ILE B   6      51.578  26.358  -5.554  1.00 56.06 LIG-0.35  N 
ATOM     25 H    ILE B   6      52.298  25.935  -5.761  1.00 56.06 LIG 0.16  HD
ATOM     26 O    TYR B   5      49.818  26.705  -4.193  1.00 54.12 LIG-0.27  OA
BRANCH 24 27
ATOM     27  CA  ILE B   6      51.210  27.413  -6.491  1.00 57.79 LIG 0.18  C 
BRANCH 27 28
ATOM     28  CB  ILE B   6      52.208  27.481  -7.673  1.00 57.25 LIG 0.01  C 
ATOM     29  CG2 ILE B   6      51.468  27.403  -8.996  1.00 56.12 LIG 0.01  C 
BRANCH 28 30
ATOM     30  CG1 ILE B   6      52.999  28.788  -7.603  1.00 57.80 LIG 0.00  C 
ATOM     31  CD1 ILE B   6      52.230  29.978  -8.125  1.00 58.80 LIG 0.01  C 
ENDBRANCH 28 30
ENDBRANCH 27 28
BRANCH 27 32
ATOM     32  C   ILE B   6      49.799  27.191  -7.032  1.00 59.33 LIG 0.24  C 
ATOM     33 O    ILE B   6      48.999  28.127  -7.126  1.00 59.66 LIG-0.27  OA
ATOM     34  N   PRO B   7      49.479  25.941  -7.403  1.00 60.44 LIG-0.34  N 
ATOM     35  CA  PRO B   7      48.165  25.575  -7.940  1.00 61.29 LIG 0.17  C 
ATOM     36  CD  PRO B   7      50.368  24.766  -7.366  1.00 60.37 LIG 0.13  C 
ATOM     37  CB  PRO B   7      48.227  24.053  -7.973  1.00 61.79 LIG 0.04  C 
ATOM     38  CG  PRO B   7      49.663  23.801  -8.292  1.00 60.72 LIG 0.02  C 
BRANCH 35 39
ATOM     39  C   PRO B   7      47.004  26.089  -7.089  1.00 62.02 LIG 0.22  C 
ATOM     40 O    PRO B   7      47.120  26.206  -5.871  1.00 61.64 LIG-0.29  OA
ENDBRANCH 35 39
ENDBRANCH 27 32
ENDBRANCH 24 27
ENDBRANCH 13 23
ENDBRANCH 11 13
ENDBRANCH 1 9
BRANCH 1 41
ATOM     41  N   PHE B   4      54.591  24.668  -0.072  1.00 40.22 LIG-0.35  N 
ATOM     42 H    PHE B   4      54.644  23.824  -0.227  1.00 40.22 LIG 0.16  HD
ATOM     43  C   ALA B   3      54.765  25.218   1.123  1.00 36.80 LIG 0.24  C 
ATOM     44 O    ALA B   3      54.696  26.430   1.315  1.00 35.05 LIG-0.27  OA
BRANCH 43 45
ATOM     45  CA  ALA B   3      55.071  24.264   2.271  1.00 35.42 LIG 0.17  C 
ATOM     46  CB  ALA B   3      53.989  24.361   3.330  1.00 34.55 LIG 0.04  C 
BRANCH 45 47
ATOM     47  N   ALA B   3      56.362  24.638   2.831  1.00 34.22 LIG-0.35  N 
ATOM     48  C   VAL B   2      57.491  24.367   2.186  1.00 33.55 LIG 0.24  C 
ATOM     49 O    VAL B   2      57.515  23.773   1.108  1.00 34.35 LIG-0.27  OA
ATOM     50 H    ALA B   3      56.322  25.036   3.592  1.00 34.22 LIG 0.16  HD
BRANCH 48 51
ATOM     51  CA  VAL B   2      58.782  24.829   2.856  1.00 33.22 LIG 0.18  C 
BRANCH 51 52
ATOM     52  CB  VAL B   2      59.401  23.632   3.616  1.00 32.52 LIG 0.01  C 
ATOM     53  CG1 VAL B   2      60.845  23.931   3.998  1.00 33.02 LIG 0.01  C 
ATOM     54  CG2 VAL B   2      58.578  23.331   4.862  1.00 33.85 LIG 0.01  C 
ENDBRANCH 51 52
BRANCH 51 55
ATOM     55  N   VAL B   2      58.551  25.950   3.761  1.00 33.13 LIG-0.35  N 
ATOM     56 H    VAL B   2      58.638  25.754   4.594  1.00 33.13 LIG 0.16  HD
ATOM     57  C   ALA B   1      58.234  27.160   3.316  1.00 33.26 LIG 0.25  C 
ATOM     58 O    ALA B   1      58.096  27.424   2.124  1.00 33.25 LIG-0.27  OA
BRANCH 57 59
ATOM     59  CA  ALA B   1      58.034  28.240   4.371  1.00 31.51 LIG 0.27  C 
ATOM     60  CB  ALA B   1      58.049  29.623   3.724  1.00 29.23 LIG 0.05  C 
BRANCH 59 61
ATOM     61  N   ALA B   1      59.114  28.127   5.339  1.00 32.32 LIG-0.07  N 
ATOM     62 H3   ALA B   1      59.896  28.218   4.924  1.00 32.32 LIG 0.28  HD
ATOM     63 H2   ALA B   1      59.079  27.330   5.732  1.00 32.32 LIG 0.28  HD
ATOM     64 H1   ALA B   1      59.029  28.765   5.954  1.00 32.32 LIG 0.28  HD
ENDBRANCH 59 61
ENDBRANCH 57 59
ENDBRANCH 51 55
ENDBRANCH 48 51
ENDBRANCH 45 47
ENDBRANCH 43 45
ENDBRANCH 1 41
TORSDOF 21
ENDMDL
MODEL 44
USER: ADFR SOLUTION from run 195
USER: SCORE 18.569586 LL:  -5.022 LR: -15.016 RR:   0.000 FEB:  -8.752
USER: RMSD 11.219320
USER: SEED 194
USER: STATUS searching
USER: GENES 23
USER: genes 0 Translation |==|  0.54618 0.48834 0.53932
USER: genes 1 Rotation |==|  0.33500 0.97174 0.50466 0.51452
USER: genes 2 Torsion [C]-CA--CB-[CG] |==|  0.38418
USER: genes 3 Torsion [CA]-CB--CG-[CD1] |==|  0.90762
USER: genes 4 Torsion [N]-CA--C-[N] |==|  0.16028
USER: genes 5 Torsion [C]-N--CA-[CB] |==|  0.53455
USER: genes 6 Torsion [N]-CA--CB-[CG] |==|  0.88105
USER: genes 7 Torsion [CA]-CB--CG-[CD1] |==|  0.75362
USER: genes 8 Torsion [CE2]-CZ--OH-[HH] |==|  0.67781
USER: genes 9 Torsion [N]-CA--C-[N] |==|  0.42092
USER: genes 10 Torsion [C]-N--CA-[C] |==|  0.76149
USER: genes 11 Torsion [N]-CA--CB-[CG1] |==|  0.39914
USER: genes 12 Torsion [CA]-CB--CG1-[CD1] |==|  0.25734
USER: genes 13 Torsion [N]-CA--C-[N] |==|  0.37390
USER: genes 14 Torsion [N]-CA--C-[O] |==|  0.87867
USER: genes 15 Torsion [CB]-CA--N-[C] |==|  0.17766
USER: genes 16 Torsion [N]-C--CA-[N] |==|  0.35125
USER: genes 17 Torsion [C]-CA--N-[C] |==|  0.51275
USER: genes 18 Torsion [N]-C--CA-[N] |==|  0.00207
USER: genes 19 Torsion [C]-CA--CB-[CG1] |==|  0.20599
USER: genes 20 Torsion [C]-CA--N-[C] |==|  0.70000
USER: genes 21 Torsion [N]-C--CA-[N] |==|  0.55827
USER: genes 22 Torsion [C]-CA--N-[H3] |==|  0.02024
ROOT
ATOM      1  CA  PHE B   4      54.563  26.060  -2.965  1.00 44.68 LIG 0.18  C 
ENDROOT
BRANCH 1 2
ATOM      2  CB  PHE B   4      55.394  26.799  -4.017  1.00 43.52 LIG 0.07  C 
BRANCH 2 3
ATOM      3  CG  PHE B   4      55.831  25.922  -5.153  1.00 43.42 LIG-0.06  A 
ATOM      4  CD2 PHE B   4      56.004  26.450  -6.428  1.00 43.71 LIG 0.01  A 
ATOM      5  CE2 PHE B   4      56.463  25.651  -7.478  1.00 44.42 LIG 0.00  A 
ATOM      6  CZ  PHE B   4      56.750  24.306  -7.249  1.00 44.23 LIG 0.00  A 
ATOM      7  CE1 PHE B   4      56.578  23.770  -5.978  1.00 42.62 LIG 0.00  A 
ATOM      8  CD1 PHE B   4      56.120  24.578  -4.939  1.00 43.35 LIG 0.01  A 
ENDBRANCH 2 3
ENDBRANCH 1 2
BRANCH 1 9
ATOM      9  C   PHE B   4      54.967  26.474  -1.556  1.00 47.70 LIG 0.24  C 
ATOM     10 O    PHE B   4      55.865  27.295  -1.375  1.00 47.98 LIG-0.27  OA
ATOM     11  N   TYR B   5      54.303  25.887  -0.567  1.00 50.93 LIG-0.35  N 
ATOM     12 H    TYR B   5      53.669  25.320  -0.693  1.00 50.93 LIG 0.16  HD
BRANCH 11 13
ATOM     13  CA  TYR B   5      54.590  26.152   0.840  1.00 53.91 LIG 0.18  C 
BRANCH 13 14
ATOM     14  CB  TYR B   5      53.899  25.128   1.746  1.00 56.99 LIG 0.07  C 
BRANCH 14 15
ATOM     15  CG  TYR B   5      52.470  24.812   1.339  1.00 60.80 LIG-0.06  A 
ATOM     16  CD2 TYR B   5      52.189  23.771   0.456  1.00 62.97 LIG 0.01  A 
ATOM     17  CE2 TYR B   5      50.878  23.492   0.064  1.00 63.70 LIG 0.04  A 
ATOM     18  CZ  TYR B   5      49.836  24.262   0.562  1.00 64.21 LIG 0.07  A 
ATOM     19  CE1 TYR B   5      50.090  25.298   1.443  1.00 63.24 LIG 0.04  A 
ATOM     20  CD1 TYR B   5      51.398  25.566   1.827  1.00 61.93 LIG 0.01  A 
BRANCH 18 21
ATOM     21 OH   TYR B   5      48.542  24.007   0.168  1.00 64.43 LIG-0.36  OA
ATOM     22 HH   TYR B   5      48.242  24.669  -0.254  1.00 64.43 LIG 0.22  HD
ENDBRANCH 18 21
ENDBRANCH 14 15
ENDBRANCH 13 14
BRANCH 13 23
ATOM     23  C   TYR B   5      56.094  26.072   1.052  1.00 54.78 LIG 0.24  C 
ATOM     24  N   ILE B   6      56.591  26.815   2.036  1.00 56.06 LIG-0.35  N 
ATOM     25 H    ILE B   6      56.115  27.325   2.539  1.00 56.06 LIG 0.16  HD
ATOM     26 O    TYR B   5      56.789  25.346   0.341  1.00 54.12 LIG-0.27  OA
BRANCH 24 27
ATOM     27  CA  ILE B   6      58.016  26.824   2.348  1.00 57.79 LIG 0.18  C 
BRANCH 27 28
ATOM     28  CB  ILE B   6      58.438  28.171   2.984  1.00 57.25 LIG 0.01  C 
ATOM     29  CG2 ILE B   6      57.239  28.860   3.610  1.00 56.12 LIG 0.01  C 
BRANCH 28 30
ATOM     30  CG1 ILE B   6      59.504  27.923   4.053  1.00 57.80 LIG 0.00  C 
ATOM     31  CD1 ILE B   6      60.914  28.031   3.522  1.00 58.80 LIG 0.01  C 
ENDBRANCH 28 30
ENDBRANCH 27 28
BRANCH 27 32
ATOM     32  C   ILE B   6      58.372  25.683   3.298  1.00 59.33 LIG 0.24  C 
ATOM     33 O    ILE B   6      57.673  25.438   4.287  1.00 59.66 LIG-0.27  OA
ATOM     34  N   PRO B   7      59.467  24.963   3.004  1.00 60.44 LIG-0.34  N 
ATOM     35  CA  PRO B   7      59.932  23.840   3.821  1.00 61.29 LIG 0.17  C 
ATOM     36  CD  PRO B   7      60.343  25.150   1.834  1.00 60.37 LIG 0.13  C 
ATOM     37  CB  PRO B   7      61.297  23.529   3.220  1.00 61.79 LIG 0.04  C 
ATOM     38  CG  PRO B   7      61.085  23.834   1.775  1.00 60.72 LIG 0.02  C 
BRANCH 35 39
ATOM     39  C   PRO B   7      60.018  24.174   5.311  1.00 62.02 LIG 0.22  C 
ATOM     40 O    PRO B   7      60.496  25.241   5.689  1.00 61.64 LIG-0.29  OA
ENDBRANCH 35 39
ENDBRANCH 27 32
ENDBRANCH 24 27
ENDBRANCH 13 23
ENDBRANCH 11 13
ENDBRANCH 1 9
BRANCH 1 41
ATOM     41  N   PHE B   4      53.149  26.311  -3.186  1.00 40.22 LIG-0.35  N 
ATOM     42 H    PHE B   4      52.756  26.736  -2.550  1.00 40.22 LIG 0.16  HD
ATOM     43  C   ALA B   3      52.543  25.902  -4.293  1.00 36.80 LIG 0.24  C 
ATOM     44 O    ALA B   3      53.130  25.306  -5.193  1.00 35.05 LIG-0.27  OA
BRANCH 43 45
ATOM     45  CA  ALA B   3      51.058  26.220  -4.411  1.00 35.42 LIG 0.17  C 
ATOM     46  CB  ALA B   3      50.247  24.937  -4.371  1.00 34.55 LIG 0.04  C 
BRANCH 45 47
ATOM     47  N   ALA B   3      50.847  26.914  -5.673  1.00 34.22 LIG-0.35  N 
ATOM     48  C   VAL B   2      49.651  27.393  -5.997  1.00 33.55 LIG 0.24  C 
ATOM     49 O    VAL B   2      48.664  27.262  -5.275  1.00 34.35 LIG-0.27  OA
ATOM     50 H    ALA B   3      51.546  26.979  -6.169  1.00 34.22 LIG 0.16  HD
BRANCH 48 51
ATOM     51  CA  VAL B   2      49.555  28.125  -7.333  1.00 33.22 LIG 0.18  C 
BRANCH 51 52
ATOM     52  CB  VAL B   2      48.471  27.437  -8.197  1.00 32.52 LIG 0.01  C 
ATOM     53  CG1 VAL B   2      47.079  27.781  -7.681  1.00 33.02 LIG 0.01  C 
ATOM     54  CG2 VAL B   2      48.617  27.871  -9.649  1.00 33.85 LIG 0.01  C 
ENDBRANCH 51 52
BRANCH 51 55
ATOM     55  N   VAL B   2      50.834  28.146  -8.033  1.00 33.13 LIG-0.35  N 
ATOM     56 H    VAL B   2      51.071  27.386  -8.359  1.00 33.13 LIG 0.16  HD
ATOM     57  C   ALA B   1      51.556  29.255  -8.145  1.00 33.26 LIG 0.25  C 
ATOM     58 O    ALA B   1      51.217  30.331  -7.661  1.00 33.25 LIG-0.27  OA
BRANCH 57 59
ATOM     59  CA  ALA B   1      52.866  29.136  -8.913  1.00 31.51 LIG 0.27  C 
ATOM     60  CB  ALA B   1      53.548  27.806  -8.597  1.00 29.23 LIG 0.05  C 
BRANCH 59 61
ATOM     61  N   ALA B   1      53.721  30.244  -8.517  1.00 32.32 LIG-0.07  N 
ATOM     62 H3   ALA B   1      53.343  30.685  -7.843  1.00 32.32 LIG 0.28  HD
ATOM     63 H2   ALA B   1      53.832  30.796  -9.206  1.00 32.32 LIG 0.28  HD
ATOM     64 H1   ALA B   1      54.513  29.930  -8.258  1.00 32.32 LIG 0.28  HD
ENDBRANCH 59 61
ENDBRANCH 57 59
ENDBRANCH 51 55
ENDBRANCH 48 51
ENDBRANCH 45 47
ENDBRANCH 43 45
ENDBRANCH 1 41
TORSDOF 21
ENDMDL
MODEL 45
USER: ADFR SOLUTION from run 89
USER: SCORE 17.965436 LL:  -5.490 LR: -15.022 RR:   0.000 FEB:  -8.757
USER: RMSD 5.567329
USER: SEED 88
USER: STATUS no improvement in best in 5 clusters for 5 generations
USER: GENES 23
USER: genes 0 Translation |==|  0.52089 0.40381 0.51625
USER: genes 1 Rotation |==|  0.67642 0.44977 0.27128 0.90502
USER: genes 2 Torsion [C]-CA--CB-[CG] |==|  0.20383
USER: genes 3 Torsion [CA]-CB--CG-[CD1] |==|  0.33402
USER: genes 4 Torsion [N]-CA--C-[N] |==|  0.20748
USER: genes 5 Torsion [C]-N--CA-[CB] |==|  0.48333
USER: genes 6 Torsion [N]-CA--CB-[CG] |==|  0.62644
USER: genes 7 Torsion [CA]-CB--CG-[CD1] |==|  0.20105
USER: genes 8 Torsion [CE2]-CZ--OH-[HH] |==|  0.46388
USER: genes 9 Torsion [N]-CA--C-[N] |==|  0.46871
USER: genes 10 Torsion [C]-N--CA-[C] |==|  0.86858
USER: genes 11 Torsion [N]-CA--CB-[CG1] |==|  0.41741
USER: genes 12 Torsion [CA]-CB--CG1-[CD1] |==|  0.29441
USER: genes 13 Torsion [N]-CA--C-[N] |==|  0.33685
USER: genes 14 Torsion [N]-CA--C-[O] |==|  0.82933
USER: genes 15 Torsion [CB]-CA--N-[C] |==|  0.79407
USER: genes 16 Torsion [N]-C--CA-[N] |==|  0.69845
USER: genes 17 Torsion [C]-CA--N-[C] |==|  0.81311
USER: genes 18 Torsion [N]-C--CA-[N] |==|  0.43224
USER: genes 19 Torsion [C]-CA--CB-[CG1] |==|  0.98458
USER: genes 20 Torsion [C]-CA--N-[C] |==|  0.80561
USER: genes 21 Torsion [N]-C--CA-[N] |==|  0.54928
USER: genes 22 Torsion [C]-CA--N-[H3] |==|  0.18320
ROOT
ATOM      1  CA  PHE B   4      53.975  24.665  -3.536  1.00 44.68 LIG 0.18  C 
ENDROOT
BRANCH 1 2
ATOM      2  CB  PHE B   4      52.887  24.998  -2.510  1.00 43.52 LIG 0.07  C 
BRANCH 2 3
ATOM      3  CG  PHE B   4      51.524  25.149  -3.118  1.00 43.42 LIG-0.06  A 
ATOM      4  CD2 PHE B   4      51.299  26.079  -4.128  1.00 43.71 LIG 0.01  A 
ATOM      5  CE2 PHE B   4      50.046  26.187  -4.736  1.00 44.42 LIG 0.00  A 
ATOM      6  CZ  PHE B   4      49.004  25.356  -4.326  1.00 44.23 LIG 0.00  A 
ATOM      7  CE1 PHE B   4      49.220  24.426  -3.316  1.00 42.62 LIG 0.00  A 
ATOM      8  CD1 PHE B   4      50.475  24.327  -2.718  1.00 43.35 LIG 0.01  A 
ENDBRANCH 2 3
ENDBRANCH 1 2
BRANCH 1 9
ATOM      9  C   PHE B   4      54.317  25.881  -4.386  1.00 47.70 LIG 0.24  C 
ATOM     10 O    PHE B   4      53.984  27.011  -4.030  1.00 47.98 LIG-0.27  OA
ATOM     11  N   TYR B   5      54.973  25.633  -5.514  1.00 50.93 LIG-0.35  N 
ATOM     12 H    TYR B   5      55.214  24.844  -5.758  1.00 50.93 LIG 0.16  HD
BRANCH 11 13
ATOM     13  CA  TYR B   5      55.349  26.685  -6.454  1.00 53.91 LIG 0.18  C 
BRANCH 13 14
ATOM     14  CB  TYR B   5      56.219  26.129  -7.585  1.00 56.99 LIG 0.07  C 
BRANCH 14 15
ATOM     15  CG  TYR B   5      57.437  26.979  -7.899  1.00 60.80 LIG-0.06  A 
ATOM     16  CD2 TYR B   5      57.506  27.727  -9.074  1.00 62.97 LIG 0.01  A 
ATOM     17  CE2 TYR B   5      58.634  28.494  -9.376  1.00 63.70 LIG 0.04  A 
ATOM     18  CZ  TYR B   5      59.704  28.514  -8.493  1.00 64.21 LIG 0.07  A 
ATOM     19  CE1 TYR B   5      59.657  27.783  -7.319  1.00 63.24 LIG 0.04  A 
ATOM     20  CD1 TYR B   5      58.530  27.025  -7.029  1.00 61.93 LIG 0.01  A 
BRANCH 18 21
ATOM     21 OH   TYR B   5      60.827  29.252  -8.789  1.00 64.43 LIG-0.36  OA
ATOM     22 HH   TYR B   5      61.309  29.317  -8.104  1.00 64.43 LIG 0.22  HD
ENDBRANCH 18 21
ENDBRANCH 14 15
ENDBRANCH 13 14
BRANCH 13 23
ATOM     23  C   TYR B   5      54.081  27.282  -7.047  1.00 54.78 LIG 0.24  C 
ATOM     24  N   ILE B   6      54.229  28.404  -7.745  1.00 56.06 LIG-0.35  N 
ATOM     25 H    ILE B   6      54.984  28.796  -7.868  1.00 56.06 LIG 0.16  HD
ATOM     26 O    TYR B   5      52.993  26.733  -6.880  1.00 54.12 LIG-0.27  OA
BRANCH 24 27
ATOM     27  CA  ILE B   6      53.094  29.075  -8.371  1.00 57.79 LIG 0.18  C 
BRANCH 27 28
ATOM     28  CB  ILE B   6      53.569  30.188  -9.336  1.00 57.25 LIG 0.01  C 
ATOM     29  CG2 ILE B   6      54.927  29.841  -9.918  1.00 56.12 LIG 0.01  C 
BRANCH 28 30
ATOM     30  CG1 ILE B   6      52.553  30.355 -10.467  1.00 57.80 LIG 0.00  C 
ATOM     31  CD1 ILE B   6      51.716  31.605 -10.335  1.00 58.80 LIG 0.01  C 
ENDBRANCH 28 30
ENDBRANCH 27 28
BRANCH 27 32
ATOM     32  C   ILE B   6      52.228  28.076  -9.136  1.00 59.33 LIG 0.24  C 
ATOM     33 O    ILE B   6      52.703  27.392 -10.048  1.00 59.66 LIG-0.27  OA
ATOM     34  N   PRO B   7      50.941  27.977  -8.767  1.00 60.44 LIG-0.34  N 
ATOM     35  CA  PRO B   7      49.990  27.065  -9.408  1.00 61.29 LIG 0.17  C 
ATOM     36  CD  PRO B   7      50.289  28.719  -7.673  1.00 60.37 LIG 0.13  C 
ATOM     37  CB  PRO B   7      48.656  27.495  -8.811  1.00 61.79 LIG 0.04  C 
ATOM     38  CG  PRO B   7      49.042  27.899  -7.428  1.00 60.72 LIG 0.02  C 
BRANCH 35 39
ATOM     39  C   PRO B   7      50.000  27.161 -10.934  1.00 62.02 LIG 0.22  C 
ATOM     40 O    PRO B   7      49.707  28.212 -11.499  1.00 61.64 LIG-0.29  OA
ENDBRANCH 35 39
ENDBRANCH 27 32
ENDBRANCH 24 27
ENDBRANCH 13 23
ENDBRANCH 11 13
ENDBRANCH 1 9
BRANCH 1 41
ATOM     41  N   PHE B   4      55.158  24.166  -2.857  1.00 40.22 LIG-0.35  N 
ATOM     42 H    PHE B   4      55.284  23.318  -2.931  1.00 40.22 LIG 0.16  HD
ATOM     43  C   ALA B   3      55.960  24.981  -2.184  1.00 36.80 LIG 0.24  C 
ATOM     44 O    ALA B   3      55.764  26.192  -2.104  1.00 35.05 LIG-0.27  OA
BRANCH 43 45
ATOM     45  CA  ALA B   3      57.168  24.342  -1.511  1.00 35.42 LIG 0.17  C 
ATOM     46  CB  ALA B   3      57.347  22.919  -2.007  1.00 34.55 LIG 0.04  C 
BRANCH 45 47
ATOM     47  N   ALA B   3      56.936  24.352  -0.073  1.00 34.22 LIG-0.35  N 
ATOM     48  C   VAL B   2      56.899  25.493   0.605  1.00 33.55 LIG 0.24  C 
ATOM     49 O    VAL B   2      57.079  26.588   0.074  1.00 34.35 LIG-0.27  OA
ATOM     50 H    ALA B   3      56.830  23.575   0.279  1.00 34.22 LIG 0.16  HD
BRANCH 48 51
ATOM     51  CA  VAL B   2      56.623  25.382   2.102  1.00 33.22 LIG 0.18  C 
BRANCH 51 52
ATOM     52  CB  VAL B   2      55.095  25.248   2.313  1.00 32.52 LIG 0.01  C 
ATOM     53  CG1 VAL B   2      54.357  25.406   0.990  1.00 33.02 LIG 0.01  C 
ATOM     54  CG2 VAL B   2      54.778  23.895   2.935  1.00 33.85 LIG 0.01  C 
ENDBRANCH 51 52
BRANCH 51 55
ATOM     55  N   VAL B   2      57.145  26.528   2.836  1.00 33.13 LIG-0.35  N 
ATOM     56 H    VAL B   2      56.540  27.052   3.150  1.00 33.13 LIG 0.16  HD
ATOM     57  C   ALA B   1      58.449  26.728   2.993  1.00 33.26 LIG 0.25  C 
ATOM     58 O    ALA B   1      59.305  25.982   2.525  1.00 33.25 LIG-0.27  OA
BRANCH 57 59
ATOM     59  CA  ALA B   1      58.854  27.959   3.793  1.00 31.51 LIG 0.27  C 
ATOM     60  CB  ALA B   1      57.985  29.153   3.405  1.00 29.23 LIG 0.05  C 
BRANCH 59 61
ATOM     61  N   ALA B   1      60.252  28.241   3.504  1.00 32.32 LIG-0.07  N 
ATOM     62 H3   ALA B   1      60.337  28.479   2.651  1.00 32.32 LIG 0.28  HD
ATOM     63 H2   ALA B   1      60.740  27.514   3.659  1.00 32.32 LIG 0.28  HD
ATOM     64 H1   ALA B   1      60.535  28.904   4.026  1.00 32.32 LIG 0.28  HD
ENDBRANCH 59 61
ENDBRANCH 57 59
ENDBRANCH 51 55
ENDBRANCH 48 51
ENDBRANCH 45 47
ENDBRANCH 43 45
ENDBRANCH 1 41
TORSDOF 21
ENDMDL
MODEL 46
USER: ADFR SOLUTION from run 134
USER: SCORE 17.947531 LL:  -5.606 LR: -15.024 RR:   0.000 FEB:  -8.759
USER: RMSD 7.384159
USER: SEED 133
USER: STATUS searching
USER: GENES 23
USER: genes 0 Translation |==|  0.55429 0.51166 0.52967
USER: genes 1 Rotation |==|  0.10341 0.40118 0.21866 0.56164
USER: genes 2 Torsion [C]-CA--CB-[CG] |==|  0.03998
USER: genes 3 Torsion [CA]-CB--CG-[CD1] |==|  0.25046
USER: genes 4 Torsion [N]-CA--C-[N] |==|  0.38286
USER: genes 5 Torsion [C]-N--CA-[CB] |==|  0.79444
USER: genes 6 Torsion [N]-CA--CB-[CG] |==|  0.63629
USER: genes 7 Torsion [CA]-CB--CG-[CD1] |==|  0.83456
USER: genes 8 Torsion [CE2]-CZ--OH-[HH] |==|  0.95091
USER: genes 9 Torsion [N]-CA--C-[N] |==|  0.13351
USER: genes 10 Torsion [C]-N--CA-[C] |==|  0.80758
USER: genes 11 Torsion [N]-CA--CB-[CG1] |==|  0.27531
USER: genes 12 Torsion [CA]-CB--CG1-[CD1] |==|  0.75644
USER: genes 13 Torsion [N]-CA--C-[N] |==|  0.39719
USER: genes 14 Torsion [N]-CA--C-[O] |==|  0.26144
USER: genes 15 Torsion [CB]-CA--N-[C] |==|  0.37533
USER: genes 16 Torsion [N]-C--CA-[N] |==|  0.49137
USER: genes 17 Torsion [C]-CA--N-[C] |==|  0.58979
USER: genes 18 Torsion [N]-C--CA-[N] |==|  0.41437
USER: genes 19 Torsion [C]-CA--CB-[CG1] |==|  0.39514
USER: genes 20 Torsion [C]-CA--N-[C] |==|  0.83608
USER: genes 21 Torsion [N]-C--CA-[N] |==|  0.14061
USER: genes 22 Torsion [C]-CA--N-[H3] |==|  0.35433
ROOT
ATOM      1  CA  PHE B   4      54.751  26.444  -3.204  1.00 44.68 LIG 0.18  C 
ENDROOT
BRANCH 1 2
ATOM      2  CB  PHE B   4      55.421  26.674  -4.562  1.00 43.52 LIG 0.07  C 
BRANCH 2 3
ATOM      3  CG  PHE B   4      54.504  26.433  -5.725  1.00 43.42 LIG-0.06  A 
ATOM      4  CD2 PHE B   4      54.368  25.158  -6.266  1.00 43.71 LIG 0.01  A 
ATOM      5  CE2 PHE B   4      53.476  24.917  -7.313  1.00 44.42 LIG 0.00  A 
ATOM      6  CZ  PHE B   4      52.712  25.965  -7.826  1.00 44.23 LIG 0.00  A 
ATOM      7  CE1 PHE B   4      52.844  27.241  -7.293  1.00 42.62 LIG 0.00  A 
ATOM      8  CD1 PHE B   4      53.737  27.469  -6.248  1.00 43.35 LIG 0.01  A 
ENDBRANCH 2 3
ENDBRANCH 1 2
BRANCH 1 9
ATOM      9  C   PHE B   4      53.436  25.694  -3.361  1.00 47.70 LIG 0.24  C 
ATOM     10 O    PHE B   4      53.423  24.474  -3.520  1.00 47.98 LIG-0.27  OA
ATOM     11  N   TYR B   5      52.336  26.438  -3.327  1.00 50.93 LIG-0.35  N 
ATOM     12 H    TYR B   5      52.345  27.290  -3.207  1.00 50.93 LIG 0.16  HD
BRANCH 11 13
ATOM     13  CA  TYR B   5      50.999  25.876  -3.493  1.00 53.91 LIG 0.18  C 
BRANCH 13 14
ATOM     14  CB  TYR B   5      50.738  25.496  -4.953  1.00 56.99 LIG 0.07  C 
BRANCH 14 15
ATOM     15  CG  TYR B   5      49.419  26.015  -5.498  1.00 60.80 LIG-0.06  A 
ATOM     16  CD2 TYR B   5      49.385  26.881  -6.590  1.00 62.97 LIG 0.01  A 
ATOM     17  CE2 TYR B   5      48.175  27.377  -7.080  1.00 63.70 LIG 0.04  A 
ATOM     18  CZ  TYR B   5      46.985  27.002  -6.473  1.00 64.21 LIG 0.07  A 
ATOM     19  CE1 TYR B   5      46.993  26.140  -5.390  1.00 63.24 LIG 0.04  A 
ATOM     20  CD1 TYR B   5      48.203  25.652  -4.912  1.00 61.93 LIG 0.01  A 
BRANCH 18 21
ATOM     21 OH   TYR B   5      45.788  27.499  -6.936  1.00 64.43 LIG-0.36  OA
ATOM     22 HH   TYR B   5      45.931  28.179  -7.408  1.00 64.43 LIG 0.22  HD
ENDBRANCH 18 21
ENDBRANCH 14 15
ENDBRANCH 13 14
BRANCH 13 23
ATOM     23  C   TYR B   5      50.885  24.632  -2.625  1.00 54.78 LIG 0.24  C 
ATOM     24  N   ILE B   6      51.298  24.752  -1.367  1.00 56.06 LIG-0.35  N 
ATOM     25 H    ILE B   6      51.620  25.477  -1.035  1.00 56.06 LIG 0.16  HD
ATOM     26 O    TYR B   5      50.426  23.587  -3.085  1.00 54.12 LIG-0.27  OA
BRANCH 24 27
ATOM     27  CA  ILE B   6      51.237  23.636  -0.429  1.00 57.79 LIG 0.18  C 
BRANCH 27 28
ATOM     28  CB  ILE B   6      52.023  23.955   0.867  1.00 57.25 LIG 0.01  C 
ATOM     29  CG2 ILE B   6      53.046  25.047   0.611  1.00 56.12 LIG 0.01  C 
BRANCH 28 30
ATOM     30  CG1 ILE B   6      51.052  24.407   1.959  1.00 57.80 LIG 0.00  C 
ATOM     31  CD1 ILE B   6      50.778  25.893   1.934  1.00 58.80 LIG 0.01  C 
ENDBRANCH 28 30
ENDBRANCH 27 28
BRANCH 27 32
ATOM     32  C   ILE B   6      49.789  23.304  -0.073  1.00 59.33 LIG 0.24  C 
ATOM     33 O    ILE B   6      48.945  24.197   0.050  1.00 59.66 LIG-0.27  OA
ATOM     34  N   PRO B   7      49.484  22.007   0.090  1.00 60.44 LIG-0.34  N 
ATOM     35  CA  PRO B   7      48.140  21.536   0.433  1.00 61.29 LIG 0.17  C 
ATOM     36  CD  PRO B   7      50.406  20.868  -0.069  1.00 60.37 LIG 0.13  C 
ATOM     37  CB  PRO B   7      48.366  20.060   0.734  1.00 61.79 LIG 0.04  C 
ATOM     38  CG  PRO B   7      49.454  19.704  -0.223  1.00 60.72 LIG 0.02  C 
BRANCH 35 39
ATOM     39  C   PRO B   7      47.525  22.281   1.618  1.00 62.02 LIG 0.22  C 
ATOM     40 O    PRO B   7      46.794  23.252   1.439  1.00 61.64 LIG-0.29  OA
ENDBRANCH 35 39
ENDBRANCH 27 32
ENDBRANCH 24 27
ENDBRANCH 13 23
ENDBRANCH 11 13
ENDBRANCH 1 9
BRANCH 1 41
ATOM     41  N   PHE B   4      55.652  25.719  -2.324  1.00 40.22 LIG-0.35  N 
ATOM     42 H    PHE B   4      56.049  25.050  -2.691  1.00 40.22 LIG 0.16  HD
ATOM     43  C   ALA B   3      55.824  26.086  -1.061  1.00 36.80 LIG 0.24  C 
ATOM     44 O    ALA B   3      55.252  27.054  -0.565  1.00 35.05 LIG-0.27  OA
BRANCH 43 45
ATOM     45  CA  ALA B   3      56.790  25.246  -0.236  1.00 35.42 LIG 0.17  C 
ATOM     46  CB  ALA B   3      56.277  23.822  -0.125  1.00 34.55 LIG 0.04  C 
BRANCH 45 47
ATOM     47  N   ALA B   3      56.895  25.851   1.084  1.00 34.22 LIG-0.35  N 
ATOM     48  C   VAL B   2      58.027  25.792   1.775  1.00 33.55 LIG 0.24  C 
ATOM     49 O    VAL B   2      59.030  25.212   1.360  1.00 34.35 LIG-0.27  OA
ATOM     50 H    ALA B   3      56.178  26.236   1.362  1.00 34.22 LIG 0.16  HD
BRANCH 48 51
ATOM     51  CA  VAL B   2      58.028  26.484   3.135  1.00 33.22 LIG 0.18  C 
BRANCH 51 52
ATOM     52  CB  VAL B   2      58.441  27.963   2.937  1.00 32.52 LIG 0.01  C 
ATOM     53  CG1 VAL B   2      57.644  28.869   3.867  1.00 33.02 LIG 0.01  C 
ATOM     54  CG2 VAL B   2      59.932  28.120   3.198  1.00 33.85 LIG 0.01  C 
ENDBRANCH 51 52
BRANCH 51 55
ATOM     55  N   VAL B   2      58.920  25.823   4.080  1.00 33.13 LIG-0.35  N 
ATOM     56 H    VAL B   2      59.543  26.328   4.390  1.00 33.13 LIG 0.16  HD
ATOM     57  C   ALA B   1      58.766  24.548   4.419  1.00 33.26 LIG 0.25  C 
ATOM     58 O    ALA B   1      57.883  23.831   3.957  1.00 33.25 LIG-0.27  OA
BRANCH 57 59
ATOM     59  CA  ALA B   1      59.763  23.989   5.425  1.00 31.51 LIG 0.27  C 
ATOM     60  CB  ALA B   1      59.332  22.596   5.881  1.00 29.23 LIG 0.05  C 
BRANCH 59 61
ATOM     61  N   ALA B   1      59.809  24.896   6.562  1.00 32.32 LIG-0.07  N 
ATOM     62 H3   ALA B   1      59.677  24.438   7.313  1.00 32.32 LIG 0.28  HD
ATOM     63 H2   ALA B   1      59.174  25.513   6.476  1.00 32.32 LIG 0.28  HD
ATOM     64 H1   ALA B   1      60.606  25.292   6.593  1.00 32.32 LIG 0.28  HD
ENDBRANCH 59 61
ENDBRANCH 57 59
ENDBRANCH 51 55
ENDBRANCH 48 51
ENDBRANCH 45 47
ENDBRANCH 43 45
ENDBRANCH 1 41
TORSDOF 21
ENDMDL
MODEL 47
USER: ADFR SOLUTION from run 60
USER: SCORE 19.283860 LL:  -5.911 LR: -14.989 RR:   0.000 FEB:  -8.725
USER: RMSD 1.733081
USER: SEED 59
USER: STATUS no improvement in best in 2 clusters for 5 generations
USER: GENES 23
USER: genes 0 Translation |==|  0.46444 0.37581 0.63598
USER: genes 1 Rotation |==|  0.43489 0.54570 0.29490 0.94901
USER: genes 2 Torsion [C]-CA--CB-[CG] |==|  0.28662
USER: genes 3 Torsion [CA]-CB--CG-[CD1] |==|  0.36265
USER: genes 4 Torsion [N]-CA--C-[N] |==|  0.09701
USER: genes 5 Torsion [C]-N--CA-[CB] |==|  0.87874
USER: genes 6 Torsion [N]-CA--CB-[CG] |==|  0.39411
USER: genes 7 Torsion [CA]-CB--CG-[CD1] |==|  0.67496
USER: genes 8 Torsion [CE2]-CZ--OH-[HH] |==|  0.71691
USER: genes 9 Torsion [N]-CA--C-[N] |==|  0.33971
USER: genes 10 Torsion [C]-N--CA-[C] |==|  0.62519
USER: genes 11 Torsion [N]-CA--CB-[CG1] |==|  0.22259
USER: genes 12 Torsion [CA]-CB--CG1-[CD1] |==|  0.62982
USER: genes 13 Torsion [N]-CA--C-[N] |==|  0.42576
USER: genes 14 Torsion [N]-CA--C-[O] |==|  0.29204
USER: genes 15 Torsion [CB]-CA--N-[C] |==|  0.80180
USER: genes 16 Torsion [N]-C--CA-[N] |==|  0.85000
USER: genes 17 Torsion [C]-CA--N-[C] |==|  0.83112
USER: genes 18 Torsion [N]-C--CA-[N] |==|  0.48332
USER: genes 19 Torsion [C]-CA--CB-[CG1] |==|  0.88730
USER: genes 20 Torsion [C]-CA--N-[C] |==|  0.76128
USER: genes 21 Torsion [N]-C--CA-[N] |==|  0.32028
USER: genes 22 Torsion [C]-CA--N-[H3] |==|  0.81045
ROOT
ATOM      1  CA  PHE B   4      52.662  24.203  -0.572  1.00 44.68 LIG 0.18  C 
ENDROOT
BRANCH 1 2
ATOM      2  CB  PHE B   4      52.333  25.214   0.530  1.00 43.52 LIG 0.07  C 
BRANCH 2 3
ATOM      3  CG  PHE B   4      51.373  24.685   1.554  1.00 43.42 LIG-0.06  A 
ATOM      4  CD2 PHE B   4      50.214  24.024   1.162  1.00 43.71 LIG 0.01  A 
ATOM      5  CE2 PHE B   4      49.344  23.481   2.111  1.00 44.42 LIG 0.00  A 
ATOM      6  CZ  PHE B   4      49.637  23.605   3.469  1.00 44.23 LIG 0.00  A 
ATOM      7  CE1 PHE B   4      50.792  24.268   3.869  1.00 42.62 LIG 0.00  A 
ATOM      8  CD1 PHE B   4      51.652  24.803   2.912  1.00 43.35 LIG 0.01  A 
ENDBRANCH 2 3
ENDBRANCH 1 2
BRANCH 1 9
ATOM      9  C   PHE B   4      51.914  24.530  -1.858  1.00 47.70 LIG 0.24  C 
ATOM     10 O    PHE B   4      50.878  25.193  -1.831  1.00 47.98 LIG-0.27  OA
ATOM     11  N   TYR B   5      52.445  24.048  -2.976  1.00 50.93 LIG-0.35  N 
ATOM     12 H    TYR B   5      53.174  23.593  -2.996  1.00 50.93 LIG 0.16  HD
BRANCH 11 13
ATOM     13  CA  TYR B   5      51.835  24.247  -4.287  1.00 53.91 LIG 0.18  C 
BRANCH 13 14
ATOM     14  CB  TYR B   5      50.321  24.026  -4.230  1.00 56.99 LIG 0.07  C 
BRANCH 14 15
ATOM     15  CG  TYR B   5      49.525  24.988  -5.095  1.00 60.80 LIG-0.06  A 
ATOM     16  CD2 TYR B   5      49.690  25.012  -6.479  1.00 62.97 LIG 0.01  A 
ATOM     17  CE2 TYR B   5      48.975  25.910  -7.275  1.00 63.70 LIG 0.04  A 
ATOM     18  CZ  TYR B   5      48.085  26.793  -6.681  1.00 64.21 LIG 0.07  A 
ATOM     19  CE1 TYR B   5      47.901  26.785  -5.309  1.00 63.24 LIG 0.04  A 
ATOM     20  CD1 TYR B   5      48.617  25.887  -4.528  1.00 61.93 LIG 0.01  A 
BRANCH 18 21
ATOM     21 OH   TYR B   5      47.389  27.694  -7.454  1.00 64.43 LIG-0.36  OA
ATOM     22 HH   TYR B   5      47.745  28.452  -7.390  1.00 64.43 LIG 0.22  HD
ENDBRANCH 18 21
ENDBRANCH 14 15
ENDBRANCH 13 14
BRANCH 13 23
ATOM     23  C   TYR B   5      52.114  25.672  -4.741  1.00 54.78 LIG 0.24  C 
ATOM     24  N   ILE B   6      52.754  25.807  -5.899  1.00 56.06 LIG-0.35  N 
ATOM     25 H    ILE B   6      53.011  25.145  -6.385  1.00 56.06 LIG 0.16  HD
ATOM     26 O    TYR B   5      51.753  26.629  -4.058  1.00 54.12 LIG-0.27  OA
BRANCH 24 27
ATOM     27  CA  ILE B   6      53.077  27.118  -6.450  1.00 57.79 LIG 0.18  C 
BRANCH 27 28
ATOM     28  CB  ILE B   6      54.575  27.454  -6.246  1.00 57.25 LIG 0.01  C 
ATOM     29  CG2 ILE B   6      55.033  27.013  -4.868  1.00 56.12 LIG 0.01  C 
BRANCH 28 30
ATOM     30  CG1 ILE B   6      55.410  26.747  -7.315  1.00 57.80 LIG 0.00  C 
ATOM     31  CD1 ILE B   6      56.624  26.044  -6.754  1.00 58.80 LIG 0.01  C 
ENDBRANCH 28 30
ENDBRANCH 27 28
BRANCH 27 32
ATOM     32  C   ILE B   6      52.744  27.179  -7.939  1.00 59.33 LIG 0.24  C 
ATOM     33 O    ILE B   6      52.736  26.156  -8.631  1.00 59.66 LIG-0.27  OA
ATOM     34  N   PRO B   7      52.457  28.387  -8.451  1.00 60.44 LIG-0.34  N 
ATOM     35  CA  PRO B   7      52.119  28.602  -9.860  1.00 61.29 LIG 0.17  C 
ATOM     36  CD  PRO B   7      52.405  29.658  -7.707  1.00 60.37 LIG 0.13  C 
ATOM     37  CB  PRO B   7      52.121  30.121  -9.979  1.00 61.79 LIG 0.04  C 
ATOM     38  CG  PRO B   7      51.614  30.545  -8.642  1.00 60.72 LIG 0.02  C 
BRANCH 35 39
ATOM     39  C   PRO B   7      53.108  27.944 -10.823  1.00 62.02 LIG 0.22  C 
ATOM     40 O    PRO B   7      52.809  26.918 -11.428  1.00 61.64 LIG-0.29  OA
ENDBRANCH 35 39
ENDBRANCH 27 32
ENDBRANCH 24 27
ENDBRANCH 13 23
ENDBRANCH 11 13
ENDBRANCH 1 9
BRANCH 1 41
ATOM     41  N   PHE B   4      54.096  24.176  -0.808  1.00 40.22 LIG-0.35  N 
ATOM     42 H    PHE B   4      54.491  23.464  -0.532  1.00 40.22 LIG 0.16  HD
ATOM     43  C   ALA B   3      54.714  25.188  -1.403  1.00 36.80 LIG 0.24  C 
ATOM     44 O    ALA B   3      54.122  26.190  -1.798  1.00 35.05 LIG-0.27  OA
BRANCH 43 45
ATOM     45  CA  ALA B   3      56.219  25.048  -1.591  1.00 35.42 LIG 0.17  C 
ATOM     46  CB  ALA B   3      56.517  23.925  -2.568  1.00 34.55 LIG 0.04  C 
BRANCH 45 47
ATOM     47  N   ALA B   3      56.808  24.758  -0.292  1.00 34.22 LIG-0.35  N 
ATOM     48  C   VAL B   2      56.691  25.614   0.716  1.00 33.55 LIG 0.24  C 
ATOM     49 O    VAL B   2      56.111  26.694   0.609  1.00 34.35 LIG-0.27  OA
ATOM     50 H    ALA B   3      57.222  24.007  -0.244  1.00 34.22 LIG 0.16  HD
BRANCH 48 51
ATOM     51  CA  VAL B   2      57.326  25.193   2.039  1.00 33.22 LIG 0.18  C 
BRANCH 51 52
ATOM     52  CB  VAL B   2      56.603  23.924   2.552  1.00 32.52 LIG 0.01  C 
ATOM     53  CG1 VAL B   2      55.101  24.033   2.319  1.00 33.02 LIG 0.01  C 
ATOM     54  CG2 VAL B   2      57.158  22.694   1.846  1.00 33.85 LIG 0.01  C 
ENDBRANCH 51 52
BRANCH 51 55
ATOM     55  N   VAL B   2      57.264  26.258   3.034  1.00 33.13 LIG-0.35  N 
ATOM     56 H    VAL B   2      56.582  26.213   3.557  1.00 33.13 LIG 0.16  HD
ATOM     57  C   ALA B   1      58.190  27.206   3.108  1.00 33.26 LIG 0.25  C 
ATOM     58 O    ALA B   1      59.151  27.269   2.345  1.00 33.25 LIG-0.27  OA
BRANCH 57 59
ATOM     59  CA  ALA B   1      58.008  28.248   4.203  1.00 31.51 LIG 0.27  C 
ATOM     60  CB  ALA B   1      57.993  29.652   3.601  1.00 29.23 LIG 0.05  C 
BRANCH 59 61
ATOM     61  N   ALA B   1      59.114  28.115   5.138  1.00 32.32 LIG-0.07  N 
ATOM     62 H3   ALA B   1      59.042  27.345   5.576  1.00 32.32 LIG 0.28  HD
ATOM     63 H2   ALA B   1      59.095  28.789   5.719  1.00 32.32 LIG 0.28  HD
ATOM     64 H1   ALA B   1      59.884  28.131   4.692  1.00 32.32 LIG 0.28  HD
ENDBRANCH 59 61
ENDBRANCH 57 59
ENDBRANCH 51 55
ENDBRANCH 48 51
ENDBRANCH 45 47
ENDBRANCH 43 45
ENDBRANCH 1 41
TORSDOF 21
ENDMDL
MODEL 48
USER: ADFR SOLUTION from run 177
USER: SCORE 19.303151 LL:  -6.522 LR: -14.976 RR:   0.000 FEB:  -8.712
USER: RMSD 4.580707
USER: SEED 176
USER: STATUS no improvement in best in 11 clusters for 5 generations
USER: GENES 23
USER: genes 0 Translation |==|  0.52932 0.44953 0.61198
USER: genes 1 Rotation |==|  0.20455 0.40705 0.10851 0.52840
USER: genes 2 Torsion [C]-CA--CB-[CG] |==|  0.07665
USER: genes 3 Torsion [CA]-CB--CG-[CD1] |==|  0.71657
USER: genes 4 Torsion [N]-CA--C-[N] |==|  0.41411
USER: genes 5 Torsion [C]-N--CA-[CB] |==|  0.20383
USER: genes 6 Torsion [N]-CA--CB-[CG] |==|  0.52317
USER: genes 7 Torsion [CA]-CB--CG-[CD1] |==|  0.70665
USER: genes 8 Torsion [CE2]-CZ--OH-[HH] |==|  0.09520
USER: genes 9 Torsion [N]-CA--C-[N] |==|  0.23287
USER: genes 10 Torsion [C]-N--CA-[C] |==|  0.84538
USER: genes 11 Torsion [N]-CA--CB-[CG1] |==|  0.69518
USER: genes 12 Torsion [CA]-CB--CG1-[CD1] |==|  0.62461
USER: genes 13 Torsion [N]-CA--C-[N] |==|  0.87573
USER: genes 14 Torsion [N]-CA--C-[O] |==|  0.94000
USER: genes 15 Torsion [CB]-CA--N-[C] |==|  0.23461
USER: genes 16 Torsion [N]-C--CA-[N] |==|  0.37238
USER: genes 17 Torsion [C]-CA--N-[C] |==|  0.78382
USER: genes 18 Torsion [N]-C--CA-[N] |==|  0.92742
USER: genes 19 Torsion [C]-CA--CB-[CG1] |==|  0.57545
USER: genes 20 Torsion [C]-CA--N-[C] |==|  0.80226
USER: genes 21 Torsion [N]-C--CA-[N] |==|  0.14882
USER: genes 22 Torsion [C]-CA--N-[H3] |==|  0.16366
ROOT
ATOM      1  CA  PHE B   4      54.171  25.419  -1.167  1.00 44.68 LIG 0.18  C 
ENDROOT
BRANCH 1 2
ATOM      2  CB  PHE B   4      55.509  25.626  -1.882  1.00 43.52 LIG 0.07  C 
BRANCH 2 3
ATOM      3  CG  PHE B   4      55.370  25.796  -3.366  1.00 43.42 LIG-0.06  A 
ATOM      4  CD2 PHE B   4      55.003  27.025  -3.905  1.00 43.71 LIG 0.01  A 
ATOM      5  CE2 PHE B   4      54.925  27.205  -5.288  1.00 44.42 LIG 0.00  A 
ATOM      6  CZ  PHE B   4      55.215  26.140  -6.142  1.00 44.23 LIG 0.00  A 
ATOM      7  CE1 PHE B   4      55.579  24.909  -5.610  1.00 42.62 LIG 0.00  A 
ATOM      8  CD1 PHE B   4      55.654  24.743  -4.229  1.00 43.35 LIG 0.01  A 
ENDBRANCH 2 3
ENDBRANCH 1 2
BRANCH 1 9
ATOM      9  C   PHE B   4      53.147  24.777  -2.093  1.00 47.70 LIG 0.24  C 
ATOM     10 O    PHE B   4      53.031  23.554  -2.151  1.00 47.98 LIG-0.27  OA
ATOM     11  N   TYR B   5      52.420  25.616  -2.824  1.00 50.93 LIG-0.35  N 
ATOM     12 H    TYR B   5      52.495  26.471  -2.776  1.00 50.93 LIG 0.16  HD
BRANCH 11 13
ATOM     13  CA  TYR B   5      51.417  25.160  -3.782  1.00 53.91 LIG 0.18  C 
BRANCH 13 14
ATOM     14  CB  TYR B   5      50.172  24.629  -3.066  1.00 56.99 LIG 0.07  C 
BRANCH 14 15
ATOM     15  CG  TYR B   5      49.172  23.955  -3.990  1.00 60.80 LIG-0.06  A 
ATOM     16  CD2 TYR B   5      49.426  22.692  -4.522  1.00 62.97 LIG 0.01  A 
ATOM     17  CE2 TYR B   5      48.518  22.078  -5.387  1.00 63.70 LIG 0.04  A 
ATOM     18  CZ  TYR B   5      47.343  22.735  -5.724  1.00 64.21 LIG 0.07  A 
ATOM     19  CE1 TYR B   5      47.067  23.987  -5.206  1.00 63.24 LIG 0.04  A 
ATOM     20  CD1 TYR B   5      47.977  24.587  -4.345  1.00 61.93 LIG 0.01  A 
BRANCH 18 21
ATOM     21 OH   TYR B   5      46.450  22.147  -6.591  1.00 64.43 LIG-0.36  OA
ATOM     22 HH   TYR B   5      46.456  21.314  -6.478  1.00 64.43 LIG 0.22  HD
ENDBRANCH 18 21
ENDBRANCH 14 15
ENDBRANCH 13 14
BRANCH 13 23
ATOM     23  C   TYR B   5      51.023  26.333  -4.667  1.00 54.78 LIG 0.24  C 
ATOM     24  N   ILE B   6      51.812  26.576  -5.709  1.00 56.06 LIG-0.35  N 
ATOM     25 H    ILE B   6      52.515  26.117  -5.896  1.00 56.06 LIG 0.16  HD
ATOM     26 O    TYR B   5      50.021  27.000  -4.412  1.00 54.12 LIG-0.27  OA
BRANCH 24 27
ATOM     27  CA  ILE B   6      51.543  27.668  -6.638  1.00 57.79 LIG 0.18  C 
BRANCH 27 28
ATOM     28  CB  ILE B   6      52.577  27.685  -7.791  1.00 57.25 LIG 0.01  C 
ATOM     29  CG2 ILE B   6      51.873  27.747  -9.134  1.00 56.12 LIG 0.01  C 
BRANCH 28 30
ATOM     30  CG1 ILE B   6      53.497  28.898  -7.636  1.00 57.80 LIG 0.00  C 
ATOM     31  CD1 ILE B   6      53.728  29.639  -8.933  1.00 58.80 LIG 0.01  C 
ENDBRANCH 28 30
ENDBRANCH 27 28
BRANCH 27 32
ATOM     32  C   ILE B   6      50.137  27.549  -7.223  1.00 59.33 LIG 0.24  C 
ATOM     33 O    ILE B   6      49.401  28.537  -7.314  1.00 59.66 LIG-0.27  OA
ATOM     34  N   PRO B   7      49.749  26.331  -7.634  1.00 60.44 LIG-0.34  N 
ATOM     35  CA  PRO B   7      48.430  26.063  -8.214  1.00 61.29 LIG 0.17  C 
ATOM     36  CD  PRO B   7      50.560  25.101  -7.602  1.00 60.37 LIG 0.13  C 
ATOM     37  CB  PRO B   7      48.397  24.541  -8.285  1.00 61.79 LIG 0.04  C 
ATOM     38  CG  PRO B   7      49.822  24.205  -8.571  1.00 60.72 LIG 0.02  C 
BRANCH 35 39
ATOM     39  C   PRO B   7      47.280  26.629  -7.382  1.00 62.02 LIG 0.22  C 
ATOM     40 O    PRO B   7      47.432  26.881  -6.189  1.00 61.64 LIG-0.29  OA
ENDBRANCH 35 39
ENDBRANCH 27 32
ENDBRANCH 24 27
ENDBRANCH 13 23
ENDBRANCH 11 13
ENDBRANCH 1 9
BRANCH 1 41
ATOM     41  N   PHE B   4      54.365  24.606   0.022  1.00 40.22 LIG-0.35  N 
ATOM     42 H    PHE B   4      54.214  23.767  -0.089  1.00 40.22 LIG 0.16  HD
ATOM     43  C   ALA B   3      54.746  25.149   1.171  1.00 36.80 LIG 0.24  C 
ATOM     44 O    ALA B   3      54.966  26.350   1.300  1.00 35.05 LIG-0.27  OA
BRANCH 43 45
ATOM     45  CA  ALA B   3      54.913  24.196   2.348  1.00 35.42 LIG 0.17  C 
ATOM     46  CB  ALA B   3      53.756  24.358   3.316  1.00 34.55 LIG 0.04  C 
BRANCH 45 47
ATOM     47  N   ALA B   3      56.172  24.515   3.007  1.00 34.22 LIG-0.35  N 
ATOM     48  C   VAL B   2      57.331  24.116   2.495  1.00 33.55 LIG 0.24  C 
ATOM     49 O    VAL B   2      57.408  23.445   1.466  1.00 34.35 LIG-0.27  OA
ATOM     50 H    ALA B   3      56.094  24.969   3.732  1.00 34.22 LIG 0.16  HD
BRANCH 48 51
ATOM     51  CA  VAL B   2      58.586  24.532   3.257  1.00 33.22 LIG 0.18  C 
BRANCH 51 52
ATOM     52  CB  VAL B   2      59.011  23.367   4.183  1.00 32.52 LIG 0.01  C 
ATOM     53  CG1 VAL B   2      59.772  23.896   5.392  1.00 33.02 LIG 0.01  C 
ATOM     54  CG2 VAL B   2      57.780  22.591   4.633  1.00 33.85 LIG 0.01  C 
ENDBRANCH 51 52
BRANCH 51 55
ATOM     55  N   VAL B   2      58.374  25.751   4.028  1.00 33.13 LIG-0.35  N 
ATOM     56 H    VAL B   2      58.342  25.630   4.879  1.00 33.13 LIG 0.16  HD
ATOM     57  C   ALA B   1      58.242  26.937   3.446  1.00 33.26 LIG 0.25  C 
ATOM     58 O    ALA B   1      58.272  27.097   2.229  1.00 33.25 LIG-0.27  OA
BRANCH 57 59
ATOM     59  CA  ALA B   1      58.038  28.128   4.373  1.00 31.51 LIG 0.27  C 
ATOM     60  CB  ALA B   1      58.052  29.430   3.575  1.00 29.23 LIG 0.05  C 
BRANCH 59 61
ATOM     61  N   ALA B   1      59.116  28.127   5.350  1.00 32.32 LIG-0.07  N 
ATOM     62 H3   ALA B   1      59.898  28.179   4.929  1.00 32.32 LIG 0.28  HD
ATOM     63 H2   ALA B   1      59.085  27.376   5.825  1.00 32.32 LIG 0.28  HD
ATOM     64 H1   ALA B   1      59.024  28.826   5.894  1.00 32.32 LIG 0.28  HD
ENDBRANCH 59 61
ENDBRANCH 57 59
ENDBRANCH 51 55
ENDBRANCH 48 51
ENDBRANCH 45 47
ENDBRANCH 43 45
ENDBRANCH 1 41
TORSDOF 21
ENDMDL
