MODEL 1
USER: ADFR SOLUTION from run 116
USER: SCORE 20.054759 LL:  -5.339 LR: -17.486 RR:   0.000 FEB: -10.923
USER: RMSD 6.016020
USER: SEED 115
USER: STATUS no improvement in best in 4 clusters for 5 generations
USER: GENES 24
USER: genes 0 Translation |==|  0.52294 0.43770 0.46957
USER: genes 1 Rotation |==|  0.70071 0.31087 0.62004 0.89942
USER: genes 2 Torsion [C]-CA--CB-[CG] |==|  0.83977
USER: genes 3 Torsion [CA]-CB--CG-[CD2] |==|  0.22725
USER: genes 4 Torsion [CE2]-CZ--OH-[HH] |==|  0.77495
USER: genes 5 Torsion [N]-CA--C-[N] |==|  0.39822
USER: genes 6 Torsion [C]-N--CA-[CB] |==|  0.49493
USER: genes 7 Torsion [N]-CA--C-[N] |==|  0.40006
USER: genes 8 Torsion [C]-N--CA-[C] |==|  0.56263
USER: genes 9 Torsion [N]-CA--CB-[CG2] |==|  0.33954
USER: genes 10 Torsion [CA]-CB--CG1-[CD1] |==|  0.64112
USER: genes 11 Torsion [N]-CA--C-[N] |==|  0.44159
USER: genes 12 Torsion [N]-CA--C-[O] |==|  0.24634
USER: genes 13 Torsion [N]-CA--CB-[CG] |==|  0.66242
USER: genes 14 Torsion [CA]-CB--CG-[CD2] |==|  0.72336
USER: genes 15 Torsion [CB]-CA--N-[C] |==|  0.30948
USER: genes 16 Torsion [N]-C--CA-[N] |==|  0.51204
USER: genes 17 Torsion [C]-CA--N-[C] |==|  0.55541
USER: genes 18 Torsion [N]-C--CA-[N] |==|  0.34721
USER: genes 19 Torsion [C]-CA--CB-[CG2] |==|  0.14922
USER: genes 20 Torsion [CA]-CB--CG1-[CD1] |==|  0.89200
USER: genes 21 Torsion [C]-CA--N-[C] |==|  0.78558
USER: genes 22 Torsion [N]-C--CA-[N] |==|  0.45039
USER: genes 23 Torsion [C]-CA--N-[H3] |==|  0.32587
ROOT
ATOM      1  CA  TYR B   4      54.868  25.080  -3.421  1.00 23.69 LIG 0.18  C 
ENDROOT
BRANCH 1 2
ATOM      2  CB  TYR B   4      53.651  24.220  -3.761  1.00 21.78 LIG 0.07  C 
BRANCH 2 3
ATOM      3  CG  TYR B   4      52.381  25.035  -3.879  1.00 24.88 LIG-0.06  A 
ATOM      4  CD2 TYR B   4      52.084  25.720  -5.057  1.00 24.05 LIG 0.01  A 
ATOM      5  CE2 TYR B   4      50.900  26.438  -5.198  1.00 20.83 LIG 0.04  A 
ATOM      6  CZ  TYR B   4      49.996  26.480  -4.154  1.00 22.15 LIG 0.07  A 
ATOM      7  CE1 TYR B   4      50.264  25.812  -2.963  1.00 19.14 LIG 0.04  A 
ATOM      8  CD1 TYR B   4      51.454  25.093  -2.831  1.00 18.71 LIG 0.01  A 
BRANCH 6 9
ATOM      9 OH   TYR B   4      48.823  27.181  -4.314  1.00 23.41 LIG-0.36  OA
ATOM     10 HH   TYR B   4      48.965  27.999  -4.186  1.00 23.41 LIG 0.22  HD
ENDBRANCH 6 9
ENDBRANCH 2 3
ENDBRANCH 1 2
BRANCH 1 11
ATOM     11  C   TYR B   4      55.087  26.177  -4.461  1.00 26.86 LIG 0.24  C 
ATOM     12 O    TYR B   4      54.501  27.256  -4.377  1.00 26.35 LIG-0.27  OA
ATOM     13  N   PHE B   5      55.930  25.883  -5.446  1.00 27.52 LIG-0.35  N 
ATOM     14 H    PHE B   5      56.357  25.138  -5.501  1.00 27.52 LIG 0.16  HD
BRANCH 13 15
ATOM     15  CA  PHE B   5      56.207  26.813  -6.537  1.00 31.98 LIG 0.18  C 
BRANCH 15 16
ATOM     16  C   PHE B   5      54.938  27.163  -7.302  1.00 33.78 LIG 0.24  C 
ATOM     17  N   ILE B   6      54.852  28.411  -7.748  1.00 31.71 LIG-0.35  N 
ATOM     18 H    ILE B   6      55.459  29.007  -7.625  1.00 31.71 LIG 0.16  HD
ATOM     19 O    PHE B   5      54.053  26.322  -7.483  1.00 29.51 LIG-0.27  OA
BRANCH 17 20
ATOM     20  CA  ILE B   6      53.695  28.877  -8.498  1.00 36.87 LIG 0.18  C 
BRANCH 20 21
ATOM     21  CB  ILE B   6      52.542  29.263  -7.550  1.00 37.14 LIG 0.01  C 
ATOM     22  CG2 ILE B   6      52.144  30.711  -7.778  1.00 36.45 LIG 0.01  C 
BRANCH 21 23
ATOM     23  CG1 ILE B   6      51.340  28.346  -7.797  1.00 37.87 LIG 0.00  C 
ATOM     24  CD1 ILE B   6      50.035  29.080  -8.009  1.00 36.09 LIG 0.01  C 
ENDBRANCH 21 23
ENDBRANCH 20 21
BRANCH 20 25
ATOM     25  C   ILE B   6      54.093  30.096  -9.331  1.00 41.32 LIG 0.24  C 
ATOM     26 O    ILE B   6      55.088  30.760  -9.035  1.00 41.04 LIG-0.27  OA
ATOM     27  N   PRO B   7      53.321  30.399 -10.390  1.00 42.91 LIG-0.34  N 
ATOM     28  CA  PRO B   7      53.601  31.541 -11.265  1.00 43.88 LIG 0.17  C 
ATOM     29  CD  PRO B   7      52.087  29.709 -10.810  1.00 40.67 LIG 0.13  C 
ATOM     30  CB  PRO B   7      52.303  31.690 -12.052  1.00 44.00 LIG 0.04  C 
ATOM     31  CG  PRO B   7      51.857  30.271 -12.201  1.00 40.06 LIG 0.02  C 
BRANCH 28 32
ATOM     32  C   PRO B   7      53.967  32.810 -10.498  1.00 46.53 LIG 0.22  C 
ATOM     33 O    PRO B   7      55.136  33.050 -10.193  1.00 48.18 LIG-0.29  OA
ENDBRANCH 28 32
ENDBRANCH 20 25
ENDBRANCH 17 20
ENDBRANCH 15 16
BRANCH 15 34
ATOM     34  CB  PHE B   5      57.243  26.242  -7.507  1.00 34.18 LIG 0.07  C 
BRANCH 34 35
ATOM     35  CG  PHE B   5      58.467  27.105  -7.653  1.00 39.37 LIG-0.06  A 
ATOM     36  CD2 PHE B   5      58.607  27.961  -8.743  1.00 41.89 LIG 0.01  A 
ATOM     37  CE2 PHE B   5      59.759  28.737  -8.900  1.00 44.83 LIG 0.00  A 
ATOM     38  CZ  PHE B   5      60.784  28.661  -7.960  1.00 42.42 LIG 0.00  A 
ATOM     39  CE1 PHE B   5      60.654  27.809  -6.866  1.00 44.61 LIG 0.00  A 
ATOM     40  CD1 PHE B   5      59.499  27.037  -6.717  1.00 43.39 LIG 0.01  A 
ENDBRANCH 34 35
ENDBRANCH 15 34
ENDBRANCH 13 15
ENDBRANCH 1 11
BRANCH 1 41
ATOM     41  N   TYR B   4      54.719  25.663  -2.099  1.00 19.41 LIG-0.35  N 
ATOM     42 H    TYR B   4      54.102  26.259  -2.031  1.00 19.41 LIG 0.16  HD
ATOM     43  C   ALA B   3      55.501  25.272  -1.103  1.00 19.00 LIG 0.24  C 
ATOM     44 O    ALA B   3      56.351  24.392  -1.236  1.00 18.56 LIG-0.27  OA
BRANCH 43 45
ATOM     45  CA  ALA B   3      55.279  25.949   0.246  1.00 21.06 LIG 0.17  C 
ATOM     46  CB  ALA B   3      55.379  27.456   0.098  1.00 20.02 LIG 0.04  C 
BRANCH 45 47
ATOM     47  N   ALA B   3      56.287  25.470   1.178  1.00 19.71 LIG-0.35  N 
ATOM     48 H    ALA B   3      56.982  25.124   0.808  1.00 19.71 LIG 0.16  HD
ATOM     49  C   ILE B   2      56.116  25.573   2.490  1.00 19.11 LIG 0.24  C 
ATOM     50 O    ILE B   2      55.137  26.112   2.997  1.00 19.33 LIG-0.27  OA
BRANCH 49 51
ATOM     51  CA  ILE B   2      57.228  25.004   3.357  1.00 18.55 LIG 0.18  C 
BRANCH 51 52
ATOM     52  CB  ILE B   2      56.691  23.780   4.129  1.00 21.29 LIG 0.01  C 
ATOM     53  CG2 ILE B   2      56.072  22.773   3.162  1.00 18.18 LIG 0.01  C 
BRANCH 52 54
ATOM     54  CG1 ILE B   2      57.824  23.138   4.933  1.00 26.11 LIG 0.00  C 
ATOM     55  CD1 ILE B   2      59.163  23.109   4.217  1.00 36.60 LIG 0.01  C 
ENDBRANCH 52 54
ENDBRANCH 51 52
BRANCH 51 56
ATOM     56  N   ILE B   2      57.717  26.019   4.274  1.00 18.11 LIG-0.35  N 
ATOM     57 H    ILE B   2      57.434  25.933   5.081  1.00 18.11 LIG 0.16  HD
ATOM     58  C   ALA B   1      58.532  26.987   3.876  1.00 22.52 LIG 0.25  C 
ATOM     59 O    ALA B   1      58.938  27.091   2.720  1.00 25.87 LIG-0.27  OA
BRANCH 58 60
ATOM     60  CA  ALA B   1      58.955  27.983   4.945  1.00 19.14 LIG 0.27  C 
ATOM     61  CB  ALA B   1      57.815  28.957   5.224  1.00 16.49 LIG 0.05  C 
BRANCH 60 62
ATOM     62  N   ALA B   1      60.138  28.706   4.503  1.00 20.16 LIG-0.07  N 
ATOM     63 H3   ALA B   1      59.946  29.572   4.430  1.00 20.16 LIG 0.28  HD
ATOM     64 H2   ALA B   1      60.398  28.393   3.712  1.00 20.16 LIG 0.28  HD
ATOM     65 H1   ALA B   1      60.793  28.596   5.096  1.00 20.16 LIG 0.28  HD
ENDBRANCH 60 62
ENDBRANCH 58 60
ENDBRANCH 51 56
ENDBRANCH 49 51
ENDBRANCH 45 47
ENDBRANCH 43 45
ENDBRANCH 1 41
TORSDOF 22
ENDMDL
MODEL 2
USER: ADFR SOLUTION from run 128
USER: SCORE 20.414739 LL:  -6.154 LR: -16.749 RR:   0.000 FEB: -10.186
USER: RMSD 6.534383
USER: SEED 127
USER: STATUS no improvement in best in 4 clusters for 5 generations
USER: GENES 24
USER: genes 0 Translation |==|  0.56280 0.53047 0.65659
USER: genes 1 Rotation |==|  0.83517 0.74352 0.77499 0.55228
USER: genes 2 Torsion [C]-CA--CB-[CG] |==|  0.16004
USER: genes 3 Torsion [CA]-CB--CG-[CD2] |==|  0.15372
USER: genes 4 Torsion [CE2]-CZ--OH-[HH] |==|  0.24017
USER: genes 5 Torsion [N]-CA--C-[N] |==|  0.45040
USER: genes 6 Torsion [C]-N--CA-[CB] |==|  0.22179
USER: genes 7 Torsion [N]-CA--C-[N] |==|  0.80589
USER: genes 8 Torsion [C]-N--CA-[C] |==|  0.67590
USER: genes 9 Torsion [N]-CA--CB-[CG2] |==|  0.38925
USER: genes 10 Torsion [CA]-CB--CG1-[CD1] |==|  0.21732
USER: genes 11 Torsion [N]-CA--C-[N] |==|  0.39169
USER: genes 12 Torsion [N]-CA--C-[O] |==|  0.87132
USER: genes 13 Torsion [N]-CA--CB-[CG] |==|  0.71109
USER: genes 14 Torsion [CA]-CB--CG-[CD2] |==|  0.25560
USER: genes 15 Torsion [CB]-CA--N-[C] |==|  0.15091
USER: genes 16 Torsion [N]-C--CA-[N] |==|  0.27865
USER: genes 17 Torsion [C]-CA--N-[C] |==|  0.82680
USER: genes 18 Torsion [N]-C--CA-[N] |==|  0.04338
USER: genes 19 Torsion [C]-CA--CB-[CG2] |==|  0.47395
USER: genes 20 Torsion [CA]-CB--CG1-[CD1] |==|  0.45051
USER: genes 21 Torsion [C]-CA--N-[C] |==|  0.70060
USER: genes 22 Torsion [N]-C--CA-[N] |==|  0.88287
USER: genes 23 Torsion [C]-CA--N-[H3] |==|  0.41568
ROOT
ATOM      1  CA  TYR B   4      55.705  26.611   1.489  1.00 23.69 LIG 0.18  C 
ENDROOT
BRANCH 1 2
ATOM      2  CB  TYR B   4      56.797  26.117   0.541  1.00 21.78 LIG 0.07  C 
BRANCH 2 3
ATOM      3  CG  TYR B   4      56.267  25.807  -0.843  1.00 24.88 LIG-0.06  A 
ATOM      4  CD2 TYR B   4      55.572  26.773  -1.568  1.00 24.05 LIG 0.01  A 
ATOM      5  CE2 TYR B   4      55.115  26.520  -2.859  1.00 20.83 LIG 0.04  A 
ATOM      6  CZ  TYR B   4      55.351  25.287  -3.439  1.00 22.15 LIG 0.07  A 
ATOM      7  CE1 TYR B   4      56.038  24.299  -2.739  1.00 19.14 LIG 0.04  A 
ATOM      8  CD1 TYR B   4      56.493  24.564  -1.446  1.00 18.71 LIG 0.01  A 
BRANCH 6 9
ATOM      9 OH   TYR B   4      54.908  25.057  -4.721  1.00 23.41 LIG-0.36  OA
ATOM     10 HH   TYR B   4      55.487  25.321  -5.269  1.00 23.41 LIG 0.22  HD
ENDBRANCH 6 9
ENDBRANCH 2 3
ENDBRANCH 1 2
BRANCH 1 11
ATOM     11  C   TYR B   4      54.572  25.594   1.615  1.00 26.86 LIG 0.24  C 
ATOM     12 O    TYR B   4      54.459  24.894   2.621  1.00 26.35 LIG-0.27  OA
ATOM     13  N   PHE B   5      53.743  25.516   0.579  1.00 27.52 LIG-0.35  N 
ATOM     14 H    PHE B   5      53.805  26.015  -0.119  1.00 27.52 LIG 0.16  HD
BRANCH 13 15
ATOM     15  CA  PHE B   5      52.639  24.561   0.535  1.00 31.98 LIG 0.18  C 
BRANCH 15 16
ATOM     16  C   PHE B   5      52.201  24.287  -0.897  1.00 33.78 LIG 0.24  C 
ATOM     17  N   ILE B   6      51.586  25.287  -1.520  1.00 31.71 LIG-0.35  N 
ATOM     18 H    ILE B   6      51.430  26.052  -1.160  1.00 31.71 LIG 0.16  HD
ATOM     19 O    PHE B   5      52.410  23.194  -1.427  1.00 29.51 LIG-0.27  OA
BRANCH 17 20
ATOM     20  CA  ILE B   6      51.119  25.162  -2.892  1.00 36.87 LIG 0.18  C 
BRANCH 20 21
ATOM     21  CB  ILE B   6      49.606  25.439  -2.988  1.00 37.14 LIG 0.01  C 
ATOM     22  CG2 ILE B   6      49.303  26.243  -4.240  1.00 36.45 LIG 0.01  C 
BRANCH 21 23
ATOM     23  CG1 ILE B   6      48.838  24.114  -3.019  1.00 37.87 LIG 0.00  C 
ATOM     24  CD1 ILE B   6      48.689  23.454  -1.667  1.00 36.09 LIG 0.01  C 
ENDBRANCH 21 23
ENDBRANCH 20 21
BRANCH 20 25
ATOM     25  C   ILE B   6      51.872  26.160  -3.773  1.00 41.32 LIG 0.24  C 
ATOM     26 O    ILE B   6      52.138  27.289  -3.357  1.00 41.04 LIG-0.27  OA
ATOM     27  N   PRO B   7      52.231  25.749  -5.003  1.00 42.91 LIG-0.34  N 
ATOM     28  CA  PRO B   7      52.957  26.613  -5.939  1.00 43.88 LIG 0.17  C 
ATOM     29  CD  PRO B   7      51.928  24.446  -5.624  1.00 40.67 LIG 0.13  C 
ATOM     30  CB  PRO B   7      52.808  25.875  -7.265  1.00 44.00 LIG 0.04  C 
ATOM     31  CG  PRO B   7      52.839  24.443  -6.837  1.00 40.06 LIG 0.02  C 
BRANCH 28 32
ATOM     32  C   PRO B   7      52.403  28.035  -5.997  1.00 46.53 LIG 0.22  C 
ATOM     33 O    PRO B   7      51.193  28.240  -6.087  1.00 48.18 LIG-0.29  OA
ENDBRANCH 28 32
ENDBRANCH 20 25
ENDBRANCH 17 20
ENDBRANCH 15 16
BRANCH 15 34
ATOM     34  CB  PHE B   5      51.441  25.057   1.346  1.00 34.18 LIG 0.07  C 
BRANCH 34 35
ATOM     35  CG  PHE B   5      51.287  24.363   2.673  1.00 39.37 LIG-0.06  A 
ATOM     36  CD2 PHE B   5      51.872  24.890   3.822  1.00 41.89 LIG 0.01  A 
ATOM     37  CE2 PHE B   5      51.761  24.230   5.049  1.00 44.83 LIG 0.00  A 
ATOM     38  CZ  PHE B   5      51.057  23.031   5.133  1.00 42.42 LIG 0.00  A 
ATOM     39  CE1 PHE B   5      50.468  22.496   3.991  1.00 44.61 LIG 0.00  A 
ATOM     40  CD1 PHE B   5      50.584  23.163   2.769  1.00 43.39 LIG 0.01  A 
ENDBRANCH 34 35
ENDBRANCH 15 34
ENDBRANCH 13 15
ENDBRANCH 1 11
BRANCH 1 41
ATOM     41  N   TYR B   4      56.266  26.903   2.796  1.00 19.41 LIG-0.35  N 
ATOM     42 H    TYR B   4      55.884  26.503   3.454  1.00 19.41 LIG 0.16  HD
ATOM     43  C   ALA B   3      57.293  27.733   2.912  1.00 19.00 LIG 0.24  C 
ATOM     44 O    ALA B   3      57.832  28.261   1.939  1.00 18.56 LIG-0.27  OA
BRANCH 43 45
ATOM     45  CA  ALA B   3      57.807  27.990   4.326  1.00 21.06 LIG 0.17  C 
ATOM     46  CB  ALA B   3      58.141  29.459   4.503  1.00 20.02 LIG 0.04  C 
BRANCH 45 47
ATOM     47  N   ALA B   3      58.992  27.177   4.545  1.00 19.71 LIG-0.35  N 
ATOM     48 H    ALA B   3      59.710  27.625   4.697  1.00 19.71 LIG 0.16  HD
ATOM     49  C   ILE B   2      58.935  25.853   4.506  1.00 19.11 LIG 0.24  C 
ATOM     50 O    ILE B   2      57.891  25.231   4.332  1.00 19.33 LIG-0.27  OA
BRANCH 49 51
ATOM     51  CA  ILE B   2      60.250  25.119   4.718  1.00 18.55 LIG 0.18  C 
BRANCH 51 52
ATOM     52  CB  ILE B   2      60.012  23.913   5.650  1.00 21.29 LIG 0.01  C 
ATOM     53  CG2 ILE B   2      61.255  23.026   5.697  1.00 18.18 LIG 0.01  C 
BRANCH 52 54
ATOM     54  CG1 ILE B   2      59.642  24.406   7.051  1.00 26.11 LIG 0.00  C 
ATOM     55  CD1 ILE B   2      58.980  23.361   7.930  1.00 36.60 LIG 0.01  C 
ENDBRANCH 52 54
ENDBRANCH 51 52
BRANCH 51 56
ATOM     56  N   ILE B   2      61.241  26.020   5.282  1.00 18.11 LIG-0.35  N 
ATOM     57 H    ILE B   2      61.105  26.225   6.105  1.00 18.11 LIG 0.16  HD
ATOM     58  C   ALA B   1      62.262  26.474   4.566  1.00 22.52 LIG 0.25  C 
ATOM     59 O    ALA B   1      62.450  26.162   3.392  1.00 25.87 LIG-0.27  OA
BRANCH 58 60
ATOM     60  CA  ALA B   1      63.214  27.415   5.287  1.00 19.14 LIG 0.27  C 
ATOM     61  CB  ALA B   1      64.166  26.612   6.169  1.00 16.49 LIG 0.05  C 
BRANCH 60 62
ATOM     62  N   ALA B   1      62.455  28.358   6.096  1.00 20.16 LIG-0.07  N 
ATOM     63 H3   ALA B   1      62.934  28.590   6.809  1.00 20.16 LIG 0.28  HD
ATOM     64 H2   ALA B   1      61.695  27.978   6.360  1.00 20.16 LIG 0.28  HD
ATOM     65 H1   ALA B   1      62.272  29.083   5.613  1.00 20.16 LIG 0.28  HD
ENDBRANCH 60 62
ENDBRANCH 58 60
ENDBRANCH 51 56
ENDBRANCH 49 51
ENDBRANCH 45 47
ENDBRANCH 43 45
ENDBRANCH 1 41
TORSDOF 22
ENDMDL
MODEL 3
USER: ADFR SOLUTION from run 32
USER: SCORE 20.484992 LL:  -6.550 LR: -16.724 RR:   0.000 FEB: -10.162
USER: RMSD 5.571649
USER: SEED 31
USER: STATUS no improvement in best in 2 clusters for 5 generations
USER: GENES 24
USER: genes 0 Translation |==|  0.39313 0.44004 0.51642
USER: genes 1 Rotation |==|  0.68543 0.30157 0.45237 0.91710
USER: genes 2 Torsion [C]-CA--CB-[CG] |==|  0.10532
USER: genes 3 Torsion [CA]-CB--CG-[CD2] |==|  0.16186
USER: genes 4 Torsion [CE2]-CZ--OH-[HH] |==|  0.36774
USER: genes 5 Torsion [N]-CA--C-[N] |==|  0.24933
USER: genes 6 Torsion [C]-N--CA-[CB] |==|  0.51007
USER: genes 7 Torsion [N]-CA--C-[N] |==|  0.43668
USER: genes 8 Torsion [C]-N--CA-[C] |==|  0.56668
USER: genes 9 Torsion [N]-CA--CB-[CG2] |==|  0.38622
USER: genes 10 Torsion [CA]-CB--CG1-[CD1] |==|  0.74867
USER: genes 11 Torsion [N]-CA--C-[N] |==|  0.40022
USER: genes 12 Torsion [N]-CA--C-[O] |==|  0.38485
USER: genes 13 Torsion [N]-CA--CB-[CG] |==|  0.34957
USER: genes 14 Torsion [CA]-CB--CG-[CD2] |==|  0.76839
USER: genes 15 Torsion [CB]-CA--N-[C] |==|  0.12979
USER: genes 16 Torsion [N]-C--CA-[N] |==|  0.98778
USER: genes 17 Torsion [C]-CA--N-[C] |==|  0.60283
USER: genes 18 Torsion [N]-C--CA-[N] |==|  0.44889
USER: genes 19 Torsion [C]-CA--CB-[CG2] |==|  0.82396
USER: genes 20 Torsion [CA]-CB--CG1-[CD1] |==|  0.20892
USER: genes 21 Torsion [C]-CA--N-[C] |==|  0.51667
USER: genes 22 Torsion [N]-C--CA-[N] |==|  0.77167
USER: genes 23 Torsion [C]-CA--N-[H3] |==|  0.73095
ROOT
ATOM      1  CA  TYR B   4      52.142  25.119  -2.191  1.00 23.69 LIG 0.18  C 
ENDROOT
BRANCH 1 2
ATOM      2  CB  TYR B   4      50.615  25.157  -2.246  1.00 21.78 LIG 0.07  C 
BRANCH 2 3
ATOM      3  CG  TYR B   4      50.092  25.399  -3.646  1.00 24.88 LIG-0.06  A 
ATOM      4  CD2 TYR B   4      50.420  24.529  -4.685  1.00 24.05 LIG 0.01  A 
ATOM      5  CE2 TYR B   4      49.912  24.711  -5.969  1.00 20.83 LIG 0.04  A 
ATOM      6  CZ  TYR B   4      49.068  25.774  -6.227  1.00 22.15 LIG 0.07  A 
ATOM      7  CE1 TYR B   4      48.725  26.664  -5.212  1.00 19.14 LIG 0.04  A 
ATOM      8  CD1 TYR B   4      49.238  26.472  -3.928  1.00 18.71 LIG 0.01  A 
BRANCH 6 9
ATOM      9 OH   TYR B   4      48.561  25.932  -7.496  1.00 23.41 LIG-0.36  OA
ATOM     10 HH   TYR B   4      47.733  26.069  -7.453  1.00 23.41 LIG 0.22  HD
ENDBRANCH 6 9
ENDBRANCH 2 3
ENDBRANCH 1 2
BRANCH 1 11
ATOM     11  C   TYR B   4      52.763  26.147  -3.134  1.00 26.86 LIG 0.24  C 
ATOM     12 O    TYR B   4      52.198  27.216  -3.365  1.00 26.35 LIG-0.27  OA
ATOM     13  N   PHE B   5      53.925  25.805  -3.682  1.00 27.52 LIG-0.35  N 
ATOM     14 H    PHE B   5      54.334  25.069  -3.511  1.00 27.52 LIG 0.16  HD
BRANCH 13 15
ATOM     15  CA  PHE B   5      54.617  26.666  -4.638  1.00 31.98 LIG 0.18  C 
BRANCH 15 16
ATOM     16  C   PHE B   5      53.711  27.044  -5.801  1.00 33.78 LIG 0.24  C 
ATOM     17  N   ILE B   6      54.038  28.151  -6.458  1.00 31.71 LIG-0.35  N 
ATOM     18 H    ILE B   6      54.713  28.645  -6.259  1.00 31.71 LIG 0.16  HD
ATOM     19 O    PHE B   5      52.734  26.351  -6.096  1.00 29.51 LIG-0.27  OA
BRANCH 17 20
ATOM     20  CA  ILE B   6      53.260  28.625  -7.592  1.00 36.87 LIG 0.18  C 
BRANCH 20 21
ATOM     21  CB  ILE B   6      52.041  29.445  -7.123  1.00 37.14 LIG 0.01  C 
ATOM     22  CG2 ILE B   6      51.854  30.658  -8.017  1.00 36.45 LIG 0.01  C 
BRANCH 21 23
ATOM     23  CG1 ILE B   6      50.784  28.570  -7.158  1.00 37.87 LIG 0.00  C 
ATOM     24  CD1 ILE B   6      50.034  28.620  -8.469  1.00 36.09 LIG 0.01  C 
ENDBRANCH 21 23
ENDBRANCH 20 21
BRANCH 20 25
ATOM     25  C   ILE B   6      54.145  29.501  -8.479  1.00 41.32 LIG 0.24  C 
ATOM     26 O    ILE B   6      55.003  30.233  -7.982  1.00 41.04 LIG-0.27  OA
ATOM     27  N   PRO B   7      53.951  29.429  -9.808  1.00 42.91 LIG-0.34  N 
ATOM     28  CA  PRO B   7      54.737  30.218 -10.761  1.00 43.88 LIG 0.17  C 
ATOM     29  CD  PRO B   7      52.929  28.631 -10.511  1.00 40.67 LIG 0.13  C 
ATOM     30  CB  PRO B   7      53.935  30.088 -12.052  1.00 44.00 LIG 0.04  C 
ATOM     31  CG  PRO B   7      53.397  28.697 -11.952  1.00 40.06 LIG 0.02  C 
BRANCH 28 32
ATOM     32  C   PRO B   7      54.920  31.673 -10.332  1.00 46.53 LIG 0.22  C 
ATOM     33 O    PRO B   7      56.003  32.242 -10.469  1.00 48.18 LIG-0.29  OA
ENDBRANCH 28 32
ENDBRANCH 20 25
ENDBRANCH 17 20
ENDBRANCH 15 16
BRANCH 15 34
ATOM     34  CB  PHE B   5      55.882  25.995  -5.177  1.00 34.18 LIG 0.07  C 
BRANCH 34 35
ATOM     35  CG  PHE B   5      55.934  25.933  -6.680  1.00 39.37 LIG-0.06  A 
ATOM     36  CD2 PHE B   5      55.287  24.912  -7.372  1.00 41.89 LIG 0.01  A 
ATOM     37  CE2 PHE B   5      55.363  24.831  -8.765  1.00 44.83 LIG 0.00  A 
ATOM     38  CZ  PHE B   5      56.092  25.779  -9.478  1.00 42.42 LIG 0.00  A 
ATOM     39  CE1 PHE B   5      56.742  26.805  -8.797  1.00 44.61 LIG 0.00  A 
ATOM     40  CD1 PHE B   5      56.660  26.877  -7.404  1.00 43.39 LIG 0.01  A 
ENDBRANCH 34 35
ENDBRANCH 15 34
ENDBRANCH 13 15
ENDBRANCH 1 11
BRANCH 1 41
ATOM     41  N   TYR B   4      52.603  25.340  -0.832  1.00 19.41 LIG-0.35  N 
ATOM     42 H    TYR B   4      53.242  25.910  -0.752  1.00 19.41 LIG 0.16  HD
ATOM     43  C   ALA B   3      52.046  24.688   0.178  1.00 19.00 LIG 0.24  C 
ATOM     44 O    ALA B   3      51.110  23.903   0.024  1.00 18.56 LIG-0.27  OA
BRANCH 43 45
ATOM     45  CA  ALA B   3      52.604  24.976   1.569  1.00 21.06 LIG 0.17  C 
ATOM     46  CB  ALA B   3      51.537  25.611   2.440  1.00 20.02 LIG 0.04  C 
BRANCH 45 47
ATOM     47  N   ALA B   3      53.742  25.872   1.437  1.00 19.71 LIG-0.35  N 
ATOM     48 H    ALA B   3      53.658  26.469   0.824  1.00 19.71 LIG 0.16  HD
ATOM     49  C   ILE B   2      54.808  25.750   2.217  1.00 19.11 LIG 0.24  C 
ATOM     50 O    ILE B   2      54.887  24.920   3.118  1.00 19.33 LIG-0.27  OA
BRANCH 49 51
ATOM     51  CA  ILE B   2      55.943  26.727   1.957  1.00 18.55 LIG 0.18  C 
BRANCH 51 52
ATOM     52  CB  ILE B   2      56.713  26.282   0.695  1.00 21.29 LIG 0.01  C 
ATOM     53  CG2 ILE B   2      57.360  24.917   0.922  1.00 18.18 LIG 0.01  C 
BRANCH 52 54
ATOM     54  CG1 ILE B   2      55.762  26.242  -0.504  1.00 26.11 LIG 0.00  C 
ATOM     55  CD1 ILE B   2      55.396  27.606  -1.061  1.00 36.60 LIG 0.01  C 
ENDBRANCH 52 54
ENDBRANCH 51 52
BRANCH 51 56
ATOM     56  N   ILE B   2      56.828  26.785   3.108  1.00 18.11 LIG-0.35  N 
ATOM     57 H    ILE B   2      56.643  26.217   3.725  1.00 18.11 LIG 0.16  HD
ATOM     58  C   ALA B   1      57.830  27.652   3.176  1.00 22.52 LIG 0.25  C 
ATOM     59 O    ALA B   1      58.089  28.452   2.278  1.00 25.87 LIG-0.27  OA
BRANCH 58 60
ATOM     60  CA  ALA B   1      58.667  27.603   4.445  1.00 19.14 LIG 0.27  C 
ATOM     61  CB  ALA B   1      58.864  26.154   4.879  1.00 16.49 LIG 0.05  C 
BRANCH 60 62
ATOM     62  N   ALA B   1      58.006  28.358   5.499  1.00 20.16 LIG-0.07  N 
ATOM     63 H3   ALA B   1      58.350  29.178   5.537  1.00 20.16 LIG 0.28  HD
ATOM     64 H2   ALA B   1      58.130  27.948   6.279  1.00 20.16 LIG 0.28  HD
ATOM     65 H1   ALA B   1      57.135  28.410   5.326  1.00 20.16 LIG 0.28  HD
ENDBRANCH 60 62
ENDBRANCH 58 60
ENDBRANCH 51 56
ENDBRANCH 49 51
ENDBRANCH 45 47
ENDBRANCH 43 45
ENDBRANCH 1 41
TORSDOF 22
ENDMDL
MODEL 4
USER: ADFR SOLUTION from run 131
USER: SCORE 19.764074 LL:  -6.484 LR: -16.698 RR:   0.000 FEB: -10.136
USER: RMSD 5.411957
USER: SEED 130
USER: STATUS no improvement in best in 3 clusters for 5 generations
USER: GENES 24
USER: genes 0 Translation |==|  0.50291 0.44337 0.59610
USER: genes 1 Rotation |==|  0.23137 0.38479 0.09952 0.56464
USER: genes 2 Torsion [C]-CA--CB-[CG] |==|  0.09415
USER: genes 3 Torsion [CA]-CB--CG-[CD2] |==|  0.20055
USER: genes 4 Torsion [CE2]-CZ--OH-[HH] |==|  0.13438
USER: genes 5 Torsion [N]-CA--C-[N] |==|  0.37664
USER: genes 6 Torsion [C]-N--CA-[CB] |==|  0.24581
USER: genes 7 Torsion [N]-CA--C-[N] |==|  0.38355
USER: genes 8 Torsion [C]-N--CA-[C] |==|  0.19335
USER: genes 9 Torsion [N]-CA--CB-[CG2] |==|  0.49550
USER: genes 10 Torsion [CA]-CB--CG1-[CD1] |==|  0.32078
USER: genes 11 Torsion [N]-CA--C-[N] |==|  0.34491
USER: genes 12 Torsion [N]-CA--C-[O] |==|  0.88980
USER: genes 13 Torsion [N]-CA--CB-[CG] |==|  0.96524
USER: genes 14 Torsion [CA]-CB--CG-[CD2] |==|  0.70643
USER: genes 15 Torsion [CB]-CA--N-[C] |==|  0.22864
USER: genes 16 Torsion [N]-C--CA-[N] |==|  0.35714
USER: genes 17 Torsion [C]-CA--N-[C] |==|  0.74485
USER: genes 18 Torsion [N]-C--CA-[N] |==|  0.95127
USER: genes 19 Torsion [C]-CA--CB-[CG2] |==|  0.25494
USER: genes 20 Torsion [CA]-CB--CG1-[CD1] |==|  0.35880
USER: genes 21 Torsion [C]-CA--N-[C] |==|  0.78133
USER: genes 22 Torsion [N]-C--CA-[N] |==|  0.17114
USER: genes 23 Torsion [C]-CA--N-[H3] |==|  0.83671
ROOT
ATOM      1  CA  TYR B   4      54.447  25.174  -0.099  1.00 23.69 LIG 0.18  C 
ENDROOT
BRANCH 1 2
ATOM      2  CB  TYR B   4      55.813  25.508  -0.697  1.00 21.78 LIG 0.07  C 
BRANCH 2 3
ATOM      3  CG  TYR B   4      55.737  25.827  -2.175  1.00 24.88 LIG-0.06  A 
ATOM      4  CD2 TYR B   4      55.176  27.026  -2.613  1.00 24.05 LIG 0.01  A 
ATOM      5  CE2 TYR B   4      55.136  27.354  -3.965  1.00 20.83 LIG 0.04  A 
ATOM      6  CZ  TYR B   4      55.660  26.479  -4.898  1.00 22.15 LIG 0.07  A 
ATOM      7  CE1 TYR B   4      56.223  25.272  -4.494  1.00 19.14 LIG 0.04  A 
ATOM      8  CD1 TYR B   4      56.259  24.952  -3.135  1.00 18.71 LIG 0.01  A 
BRANCH 6 9
ATOM      9 OH   TYR B   4      55.629  26.825  -6.230  1.00 23.41 LIG-0.36  OA
ATOM     10 HH   TYR B   4      55.917  27.608  -6.323  1.00 23.41 LIG 0.22  HD
ENDBRANCH 6 9
ENDBRANCH 2 3
ENDBRANCH 1 2
BRANCH 1 11
ATOM     11  C   TYR B   4      53.558  24.448  -1.106  1.00 26.86 LIG 0.24  C 
ATOM     12 O    TYR B   4      53.716  23.251  -1.344  1.00 26.35 LIG-0.27  OA
ATOM     13  N   PHE B   5      52.629  25.190  -1.702  1.00 27.52 LIG-0.35  N 
ATOM     14 H    PHE B   5      52.500  26.022  -1.527  1.00 27.52 LIG 0.16  HD
BRANCH 13 15
ATOM     15  CA  PHE B   5      51.733  24.648  -2.719  1.00 31.98 LIG 0.18  C 
BRANCH 15 16
ATOM     16  C   PHE B   5      51.336  25.713  -3.732  1.00 33.78 LIG 0.24  C 
ATOM     17  N   ILE B   6      51.319  25.329  -5.004  1.00 31.71 LIG-0.35  N 
ATOM     18 H    ILE B   6      51.517  24.535  -5.268  1.00 31.71 LIG 0.16  HD
ATOM     19 O    PHE B   5      51.055  26.858  -3.372  1.00 29.51 LIG-0.27  OA
BRANCH 17 20
ATOM     20  CA  ILE B   6      50.953  26.245  -6.074  1.00 36.87 LIG 0.18  C 
BRANCH 20 21
ATOM     21  CB  ILE B   6      49.617  26.950  -5.765  1.00 37.14 LIG 0.01  C 
ATOM     22  CG2 ILE B   6      49.277  27.929  -6.876  1.00 36.45 LIG 0.01  C 
BRANCH 21 23
ATOM     23  CG1 ILE B   6      48.503  25.909  -5.627  1.00 37.87 LIG 0.00  C 
ATOM     24  CD1 ILE B   6      47.897  25.833  -4.244  1.00 36.09 LIG 0.01  C 
ENDBRANCH 21 23
ENDBRANCH 20 21
BRANCH 20 25
ATOM     25  C   ILE B   6      52.053  27.295  -6.235  1.00 41.32 LIG 0.24  C 
ATOM     26 O    ILE B   6      52.409  27.983  -5.276  1.00 41.04 LIG-0.27  OA
ATOM     27  N   PRO B   7      52.610  27.424  -7.452  1.00 42.91 LIG-0.34  N 
ATOM     28  CA  PRO B   7      53.673  28.394  -7.731  1.00 43.88 LIG 0.17  C 
ATOM     29  CD  PRO B   7      52.236  26.694  -8.678  1.00 40.67 LIG 0.13  C 
ATOM     30  CB  PRO B   7      53.710  28.427  -9.256  1.00 44.00 LIG 0.04  C 
ATOM     31  CG  PRO B   7      53.388  27.012  -9.612  1.00 40.06 LIG 0.02  C 
BRANCH 28 32
ATOM     32  C   PRO B   7      53.407  29.770  -7.124  1.00 46.53 LIG 0.22  C 
ATOM     33 O    PRO B   7      52.276  30.256  -7.129  1.00 48.18 LIG-0.29  OA
ENDBRANCH 28 32
ENDBRANCH 20 25
ENDBRANCH 17 20
ENDBRANCH 15 16
BRANCH 15 34
ATOM     34  CB  PHE B   5      50.473  24.050  -2.091  1.00 34.18 LIG 0.07  C 
BRANCH 34 35
ATOM     35  CG  PHE B   5      50.567  23.881  -0.599  1.00 39.37 LIG-0.06  A 
ATOM     36  CD2 PHE B   5      50.742  22.619  -0.036  1.00 41.89 LIG 0.01  A 
ATOM     37  CE2 PHE B   5      50.795  22.455   1.351  1.00 44.83 LIG 0.00  A 
ATOM     38  CZ  PHE B   5      50.673  23.561   2.188  1.00 42.42 LIG 0.00  A 
ATOM     39  CE1 PHE B   5      50.500  24.827   1.636  1.00 44.61 LIG 0.00  A 
ATOM     40  CD1 PHE B   5      50.448  24.982   0.248  1.00 43.39 LIG 0.01  A 
ENDBRANCH 34 35
ENDBRANCH 15 34
ENDBRANCH 13 15
ENDBRANCH 1 11
BRANCH 1 41
ATOM     41  N   TYR B   4      54.605  24.372   1.101  1.00 19.41 LIG-0.35  N 
ATOM     42 H    TYR B   4      54.512  23.524   0.988  1.00 19.41 LIG 0.16  HD
ATOM     43  C   ALA B   3      54.872  24.952   2.263  1.00 19.00 LIG 0.24  C 
ATOM     44 O    ALA B   3      55.028  26.168   2.375  1.00 18.56 LIG-0.27  OA
BRANCH 43 45
ATOM     45  CA  ALA B   3      55.008  24.030   3.471  1.00 21.06 LIG 0.17  C 
ATOM     46  CB  ALA B   3      53.841  24.233   4.419  1.00 20.02 LIG 0.04  C 
BRANCH 45 47
ATOM     47  N   ALA B   3      56.259  24.331   4.147  1.00 19.71 LIG-0.35  N 
ATOM     48 H    ALA B   3      56.206  24.951   4.741  1.00 19.71 LIG 0.16  HD
ATOM     49  C   ILE B   2      57.377  23.681   3.848  1.00 19.11 LIG 0.24  C 
ATOM     50 O    ILE B   2      57.422  22.767   3.030  1.00 19.33 LIG-0.27  OA
BRANCH 49 51
ATOM     51  CA  ILE B   2      58.624  24.112   4.603  1.00 18.55 LIG 0.18  C 
BRANCH 51 52
ATOM     52  CB  ILE B   2      58.951  23.060   5.683  1.00 21.29 LIG 0.01  C 
ATOM     53  CG2 ILE B   2      59.912  22.010   5.128  1.00 18.18 LIG 0.01  C 
BRANCH 52 54
ATOM     54  CG1 ILE B   2      59.548  23.749   6.913  1.00 26.11 LIG 0.00  C 
ATOM     55  CD1 ILE B   2      58.885  23.375   8.226  1.00 36.60 LIG 0.01  C 
ENDBRANCH 52 54
ENDBRANCH 51 52
BRANCH 51 56
ATOM     56  N   ILE B   2      58.421  25.421   5.201  1.00 18.11 LIG-0.35  N 
ATOM     57 H    ILE B   2      58.244  25.402   6.042  1.00 18.11 LIG 0.16  HD
ATOM     58  C   ALA B   1      58.508  26.536   4.489  1.00 22.52 LIG 0.25  C 
ATOM     59 O    ALA B   1      58.774  26.548   3.288  1.00 25.87 LIG-0.27  OA
BRANCH 58 60
ATOM     60  CA  ALA B   1      58.263  27.832   5.248  1.00 19.14 LIG 0.27  C 
ATOM     61  CB  ALA B   1      58.326  29.014   4.286  1.00 16.49 LIG 0.05  C 
BRANCH 60 62
ATOM     62  N   ALA B   1      59.260  27.983   6.297  1.00 20.16 LIG-0.07  N 
ATOM     63 H3   ALA B   1      59.217  27.288   6.850  1.00 20.16 LIG 0.28  HD
ATOM     64 H2   ALA B   1      59.103  28.733   6.749  1.00 20.16 LIG 0.28  HD
ATOM     65 H1   ALA B   1      60.072  28.021   5.932  1.00 20.16 LIG 0.28  HD
ENDBRANCH 60 62
ENDBRANCH 58 60
ENDBRANCH 51 56
ENDBRANCH 49 51
ENDBRANCH 45 47
ENDBRANCH 43 45
ENDBRANCH 1 41
TORSDOF 22
ENDMDL
MODEL 5
USER: ADFR SOLUTION from run 75
USER: SCORE 19.193164 LL:  -5.545 LR: -16.378 RR:   0.000 FEB:  -9.815
USER: RMSD 11.164315
USER: SEED 74
USER: STATUS no improvement in best in 9 clusters for 5 generations
USER: GENES 24
USER: genes 0 Translation |==|  0.50637 0.50326 0.49040
USER: genes 1 Rotation |==|  0.07202 0.40634 0.73847 0.53453
USER: genes 2 Torsion [C]-CA--CB-[CG] |==|  0.42686
USER: genes 3 Torsion [CA]-CB--CG-[CD2] |==|  0.05796
USER: genes 4 Torsion [CE2]-CZ--OH-[HH] |==|  0.62677
USER: genes 5 Torsion [N]-CA--C-[N] |==|  0.53434
USER: genes 6 Torsion [C]-N--CA-[CB] |==|  0.24158
USER: genes 7 Torsion [N]-CA--C-[N] |==|  0.98935
USER: genes 8 Torsion [C]-N--CA-[C] |==|  0.82171
USER: genes 9 Torsion [N]-CA--CB-[CG2] |==|  0.74195
USER: genes 10 Torsion [CA]-CB--CG1-[CD1] |==|  0.27407
USER: genes 11 Torsion [N]-CA--C-[N] |==|  0.39570
USER: genes 12 Torsion [N]-CA--C-[O] |==|  0.91483
USER: genes 13 Torsion [N]-CA--CB-[CG] |==|  0.56217
USER: genes 14 Torsion [CA]-CB--CG-[CD2] |==|  0.08184
USER: genes 15 Torsion [CB]-CA--N-[C] |==|  0.36997
USER: genes 16 Torsion [N]-C--CA-[N] |==|  0.47778
USER: genes 17 Torsion [C]-CA--N-[C] |==|  0.51457
USER: genes 18 Torsion [N]-C--CA-[N] |==|  0.91056
USER: genes 19 Torsion [C]-CA--CB-[CG2] |==|  0.48802
USER: genes 20 Torsion [CA]-CB--CG1-[CD1] |==|  0.31262
USER: genes 21 Torsion [C]-CA--N-[C] |==|  0.78220
USER: genes 22 Torsion [N]-C--CA-[N] |==|  0.82424
USER: genes 23 Torsion [C]-CA--N-[H3] |==|  0.14341
ROOT
ATOM      1  CA  TYR B   4      54.520  26.162  -2.874  1.00 23.69 LIG 0.18  C 
ENDROOT
BRANCH 1 2
ATOM      2  CB  TYR B   4      53.157  25.504  -2.664  1.00 21.78 LIG 0.07  C 
BRANCH 2 3
ATOM      3  CG  TYR B   4      52.075  26.125  -3.521  1.00 24.88 LIG-0.06  A 
ATOM      4  CD2 TYR B   4      52.405  26.851  -4.664  1.00 24.05 LIG 0.01  A 
ATOM      5  CE2 TYR B   4      51.422  27.392  -5.487  1.00 20.83 LIG 0.04  A 
ATOM      6  CZ  TYR B   4      50.088  27.213  -5.170  1.00 22.15 LIG 0.07  A 
ATOM      7  CE1 TYR B   4      49.725  26.497  -4.033  1.00 19.14 LIG 0.04  A 
ATOM      8  CD1 TYR B   4      50.719  25.957  -3.215  1.00 18.71 LIG 0.01  A 
BRANCH 6 9
ATOM      9 OH   TYR B   4      49.127  27.740  -6.002  1.00 23.41 LIG-0.36  OA
ATOM     10 HH   TYR B   4      48.541  28.129  -5.542  1.00 23.41 LIG 0.22  HD
ENDBRANCH 6 9
ENDBRANCH 2 3
ENDBRANCH 1 2
BRANCH 1 11
ATOM     11  C   TYR B   4      55.406  26.022  -1.639  1.00 26.86 LIG 0.24  C 
ATOM     12 O    TYR B   4      56.587  25.688  -1.740  1.00 26.35 LIG-0.27  OA
ATOM     13  N   PHE B   5      54.820  26.270  -0.472  1.00 27.52 LIG-0.35  N 
ATOM     14 H    PHE B   5      54.001  26.521  -0.394  1.00 27.52 LIG 0.16  HD
BRANCH 13 15
ATOM     15  CA  PHE B   5      55.526  26.135   0.799  1.00 31.98 LIG 0.18  C 
BRANCH 15 16
ATOM     16  C   PHE B   5      54.572  25.764   1.927  1.00 33.78 LIG 0.24  C 
ATOM     17  N   ILE B   6      53.285  25.705   1.604  1.00 31.71 LIG-0.35  N 
ATOM     18 H    ILE B   6      52.980  25.863   0.816  1.00 31.71 LIG 0.16  HD
ATOM     19 O    PHE B   5      54.991  25.540   3.065  1.00 29.51 LIG-0.27  OA
BRANCH 17 20
ATOM     20  CA  ILE B   6      52.267  25.358   2.584  1.00 36.87 LIG 0.18  C 
BRANCH 20 21
ATOM     21  CB  ILE B   6      50.854  25.477   1.978  1.00 37.14 LIG 0.01  C 
ATOM     22  CG2 ILE B   6      50.285  26.858   2.253  1.00 36.45 LIG 0.01  C 
BRANCH 21 23
ATOM     23  CG1 ILE B   6      50.915  25.228   0.469  1.00 37.87 LIG 0.00  C 
ATOM     24  CD1 ILE B   6      50.532  23.824   0.058  1.00 36.09 LIG 0.01  C 
ENDBRANCH 21 23
ENDBRANCH 20 21
BRANCH 20 25
ATOM     25  C   ILE B   6      52.493  23.922   3.058  1.00 41.32 LIG 0.24  C 
ATOM     26 O    ILE B   6      52.877  23.054   2.272  1.00 41.04 LIG-0.27  OA
ATOM     27  N   PRO B   7      52.264  23.658   4.357  1.00 42.91 LIG-0.34  N 
ATOM     28  CA  PRO B   7      52.447  22.321   4.931  1.00 43.88 LIG 0.17  C 
ATOM     29  CD  PRO B   7      51.761  24.598   5.376  1.00 40.67 LIG 0.13  C 
ATOM     30  CB  PRO B   7      51.736  22.430   6.276  1.00 44.00 LIG 0.04  C 
ATOM     31  CG  PRO B   7      52.014  23.845   6.668  1.00 40.06 LIG 0.02  C 
BRANCH 28 32
ATOM     32  C   PRO B   7      51.874  21.208   4.057  1.00 46.53 LIG 0.22  C 
ATOM     33 O    PRO B   7      50.894  21.408   3.338  1.00 48.18 LIG-0.29  OA
ENDBRANCH 28 32
ENDBRANCH 20 25
ENDBRANCH 17 20
ENDBRANCH 15 16
BRANCH 15 34
ATOM     34  CB  PHE B   5      56.268  27.422   1.165  1.00 34.18 LIG 0.07  C 
BRANCH 34 35
ATOM     35  CG  PHE B   5      57.405  27.207   2.126  1.00 39.37 LIG-0.06  A 
ATOM     36  CD2 PHE B   5      58.101  26.000   2.145  1.00 41.89 LIG 0.01  A 
ATOM     37  CE2 PHE B   5      59.135  25.784   3.061  1.00 44.83 LIG 0.00  A 
ATOM     38  CZ  PHE B   5      59.480  26.782   3.969  1.00 42.42 LIG 0.00  A 
ATOM     39  CE1 PHE B   5      58.793  27.993   3.958  1.00 44.61 LIG 0.00  A 
ATOM     40  CD1 PHE B   5      57.761  28.199   3.038  1.00 43.39 LIG 0.01  A 
ENDBRANCH 34 35
ENDBRANCH 15 34
ENDBRANCH 13 15
ENDBRANCH 1 11
BRANCH 1 41
ATOM     41  N   TYR B   4      55.181  25.591  -4.035  1.00 19.41 LIG-0.35  N 
ATOM     42 H    TYR B   4      55.170  24.732  -4.074  1.00 19.41 LIG 0.16  HD
ATOM     43  C   ALA B   3      55.744  26.380  -4.939  1.00 19.00 LIG 0.24  C 
ATOM     44 O    ALA B   3      55.709  27.608  -4.860  1.00 18.56 LIG-0.27  OA
BRANCH 43 45
ATOM     45  CA  ALA B   3      56.426  25.691  -6.117  1.00 21.06 LIG 0.17  C 
ATOM     46  CB  ALA B   3      57.649  24.929  -5.642  1.00 20.02 LIG 0.04  C 
BRANCH 45 47
ATOM     47  N   ALA B   3      56.812  26.702  -7.088  1.00 19.71 LIG-0.35  N 
ATOM     48 H    ALA B   3      56.673  27.512  -6.835  1.00 19.71 LIG 0.16  HD
ATOM     49  C   ILE B   2      57.334  26.366  -8.260  1.00 19.11 LIG 0.24  C 
ATOM     50 O    ILE B   2      57.567  25.205  -8.582  1.00 19.33 LIG-0.27  OA
BRANCH 49 51
ATOM     51  CA  ILE B   2      57.665  27.515  -9.199  1.00 18.55 LIG 0.18  C 
BRANCH 51 52
ATOM     52  CB  ILE B   2      59.110  27.986  -8.934  1.00 21.29 LIG 0.01  C 
ATOM     53  CG2 ILE B   2      59.508  29.069  -9.935  1.00 18.18 LIG 0.01  C 
BRANCH 52 54
ATOM     54  CG1 ILE B   2      59.231  28.502  -7.497  1.00 26.11 LIG 0.00  C 
ATOM     55  CD1 ILE B   2      60.102  27.647  -6.594  1.00 36.60 LIG 0.01  C 
ENDBRANCH 52 54
ENDBRANCH 51 52
BRANCH 51 56
ATOM     56  N   ILE B   2      56.723  28.606  -9.008  1.00 18.11 LIG-0.35  N 
ATOM     57 H    ILE B   2      57.028  29.258  -8.539  1.00 18.11 LIG 0.16  HD
ATOM     58  C   ALA B   1      55.502  28.573  -9.524  1.00 22.52 LIG 0.25  C 
ATOM     59 O    ALA B   1      55.083  27.636 -10.202  1.00 25.87 LIG-0.27  OA
BRANCH 58 60
ATOM     60  CA  ALA B   1      54.624  29.781  -9.234  1.00 19.14 LIG 0.27  C 
ATOM     61  CB  ALA B   1      55.304  31.047  -9.747  1.00 16.49 LIG 0.05  C 
BRANCH 60 62
ATOM     62  N   ALA B   1      54.385  29.883  -7.803  1.00 20.16 LIG-0.07  N 
ATOM     63 H3   ALA B   1      55.161  29.852  -7.369  1.00 20.16 LIG 0.28  HD
ATOM     64 H2   ALA B   1      53.871  29.206  -7.539  1.00 20.16 LIG 0.28  HD
ATOM     65 H1   ALA B   1      53.976  30.653  -7.623  1.00 20.16 LIG 0.28  HD
ENDBRANCH 60 62
ENDBRANCH 58 60
ENDBRANCH 51 56
ENDBRANCH 49 51
ENDBRANCH 45 47
ENDBRANCH 43 45
ENDBRANCH 1 41
TORSDOF 22
ENDMDL
MODEL 6
USER: ADFR SOLUTION from run 128
USER: SCORE 20.253348 LL:  -5.903 LR: -16.225 RR:   0.000 FEB:  -9.662
USER: RMSD 7.017420
USER: SEED 127
USER: STATUS no improvement in best in 4 clusters for 5 generations
USER: GENES 24
USER: genes 0 Translation |==|  0.55709 0.52408 0.66744
USER: genes 1 Rotation |==|  0.85935 0.73421 0.74744 0.56921
USER: genes 2 Torsion [C]-CA--CB-[CG] |==|  0.23437
USER: genes 3 Torsion [CA]-CB--CG-[CD2] |==|  0.08699
USER: genes 4 Torsion [CE2]-CZ--OH-[HH] |==|  0.23373
USER: genes 5 Torsion [N]-CA--C-[N] |==|  0.44422
USER: genes 6 Torsion [C]-N--CA-[CB] |==|  0.16810
USER: genes 7 Torsion [N]-CA--C-[N] |==|  0.06142
USER: genes 8 Torsion [C]-N--CA-[C] |==|  0.83331
USER: genes 9 Torsion [N]-CA--CB-[CG2] |==|  0.26247
USER: genes 10 Torsion [CA]-CB--CG1-[CD1] |==|  0.54465
USER: genes 11 Torsion [N]-CA--C-[N] |==|  0.40416
USER: genes 12 Torsion [N]-CA--C-[O] |==|  0.90839
USER: genes 13 Torsion [N]-CA--CB-[CG] |==|  0.69804
USER: genes 14 Torsion [CA]-CB--CG-[CD2] |==|  0.32675
USER: genes 15 Torsion [CB]-CA--N-[C] |==|  0.17344
USER: genes 16 Torsion [N]-C--CA-[N] |==|  0.28055
USER: genes 17 Torsion [C]-CA--N-[C] |==|  0.82157
USER: genes 18 Torsion [N]-C--CA-[N] |==|  0.08960
USER: genes 19 Torsion [C]-CA--CB-[CG2] |==|  0.40391
USER: genes 20 Torsion [CA]-CB--CG1-[CD1] |==|  0.27426
USER: genes 21 Torsion [C]-CA--N-[C] |==|  0.69122
USER: genes 22 Torsion [N]-C--CA-[N] |==|  0.82317
USER: genes 23 Torsion [C]-CA--N-[H3] |==|  0.46280
ROOT
ATOM      1  CA  TYR B   4      55.585  26.505   1.773  1.00 23.69 LIG 0.18  C 
ENDROOT
BRANCH 1 2
ATOM      2  CB  TYR B   4      56.518  25.822   0.775  1.00 21.78 LIG 0.07  C 
BRANCH 2 3
ATOM      3  CG  TYR B   4      56.106  26.064  -0.662  1.00 24.88 LIG-0.06  A 
ATOM      4  CD2 TYR B   4      55.476  27.252  -1.029  1.00 24.05 LIG 0.01  A 
ATOM      5  CE2 TYR B   4      55.130  27.509  -2.352  1.00 20.83 LIG 0.04  A 
ATOM      6  CZ  TYR B   4      55.410  26.571  -3.328  1.00 22.15 LIG 0.07  A 
ATOM      7  CE1 TYR B   4      56.033  25.372  -2.994  1.00 19.14 LIG 0.04  A 
ATOM      8  CD1 TYR B   4      56.378  25.124  -1.664  1.00 18.71 LIG 0.01  A 
BRANCH 6 9
ATOM      9 OH   TYR B   4      55.076  26.846  -4.635  1.00 23.41 LIG-0.36  OA
ATOM     10 HH   TYR B   4      55.686  27.301  -4.990  1.00 23.41 LIG 0.22  HD
ENDBRANCH 6 9
ENDBRANCH 2 3
ENDBRANCH 1 2
BRANCH 1 11
ATOM     11  C   TYR B   4      54.357  25.647   2.071  1.00 26.86 LIG 0.24  C 
ATOM     12 O    TYR B   4      54.276  24.998   3.114  1.00 26.35 LIG-0.27  OA
ATOM     13  N   PHE B   5      53.411  25.643   1.138  1.00 27.52 LIG-0.35  N 
ATOM     14 H    PHE B   5      53.452  26.108   0.415  1.00 27.52 LIG 0.16  HD
BRANCH 13 15
ATOM     15  CA  PHE B   5      52.199  24.837   1.260  1.00 31.98 LIG 0.18  C 
BRANCH 15 16
ATOM     16  C   PHE B   5      51.321  24.965   0.023  1.00 33.78 LIG 0.24  C 
ATOM     17  N   ILE B   6      51.934  25.358  -1.088  1.00 31.71 LIG-0.35  N 
ATOM     18 H    ILE B   6      52.773  25.538  -1.135  1.00 31.71 LIG 0.16  HD
ATOM     19 O    PHE B   5      50.114  24.717   0.074  1.00 29.51 LIG-0.27  OA
BRANCH 17 20
ATOM     20  CA  ILE B   6      51.214  25.517  -2.343  1.00 36.87 LIG 0.18  C 
BRANCH 20 21
ATOM     21  CB  ILE B   6      52.158  25.994  -3.464  1.00 37.14 LIG 0.01  C 
ATOM     22  CG2 ILE B   6      52.676  24.802  -4.249  1.00 36.45 LIG 0.01  C 
BRANCH 21 23
ATOM     23  CG1 ILE B   6      51.411  26.951  -4.398  1.00 37.87 LIG 0.00  C 
ATOM     24  CD1 ILE B   6      52.097  27.180  -5.725  1.00 36.09 LIG 0.01  C 
ENDBRANCH 21 23
ENDBRANCH 20 21
BRANCH 20 25
ATOM     25  C   ILE B   6      50.594  24.178  -2.740  1.00 41.32 LIG 0.24  C 
ATOM     26 O    ILE B   6      51.169  23.119  -2.483  1.00 41.04 LIG-0.27  OA
ATOM     27  N   PRO B   7      49.405  24.211  -3.368  1.00 42.91 LIG-0.34  N 
ATOM     28  CA  PRO B   7      48.709  22.994  -3.798  1.00 43.88 LIG 0.17  C 
ATOM     29  CD  PRO B   7      48.649  25.412  -3.768  1.00 40.67 LIG 0.13  C 
ATOM     30  CB  PRO B   7      47.645  23.530  -4.749  1.00 44.00 LIG 0.04  C 
ATOM     31  CG  PRO B   7      47.289  24.839  -4.122  1.00 40.06 LIG 0.02  C 
BRANCH 28 32
ATOM     32  C   PRO B   7      49.633  21.978  -4.468  1.00 46.53 LIG 0.22  C 
ATOM     33 O    PRO B   7      50.596  22.346  -5.141  1.00 48.18 LIG-0.29  OA
ENDBRANCH 28 32
ENDBRANCH 20 25
ENDBRANCH 17 20
ENDBRANCH 15 16
BRANCH 15 34
ATOM     34  CB  PHE B   5      51.392  25.228   2.499  1.00 34.18 LIG 0.07  C 
BRANCH 34 35
ATOM     35  CG  PHE B   5      51.430  24.193   3.592  1.00 39.37 LIG-0.06  A 
ATOM     36  CD2 PHE B   5      51.982  24.494   4.835  1.00 41.89 LIG 0.01  A 
ATOM     37  CE2 PHE B   5      52.051  23.525   5.840  1.00 44.83 LIG 0.00  A 
ATOM     38  CZ  PHE B   5      51.565  22.242   5.605  1.00 42.42 LIG 0.00  A 
ATOM     39  CE1 PHE B   5      51.011  21.931   4.366  1.00 44.61 LIG 0.00  A 
ATOM     40  CD1 PHE B   5      50.946  22.906   3.368  1.00 43.39 LIG 0.01  A 
ENDBRANCH 34 35
ENDBRANCH 15 34
ENDBRANCH 13 15
ENDBRANCH 1 11
BRANCH 1 41
ATOM     41  N   TYR B   4      56.297  26.808   3.002  1.00 19.41 LIG-0.35  N 
ATOM     42 H    TYR B   4      55.997  26.411   3.704  1.00 19.41 LIG 0.16  HD
ATOM     43  C   ALA B   3      57.328  27.641   2.991  1.00 19.00 LIG 0.24  C 
ATOM     44 O    ALA B   3      57.745  28.164   1.957  1.00 18.56 LIG-0.27  OA
BRANCH 43 45
ATOM     45  CA  ALA B   3      58.005  27.908   4.331  1.00 21.06 LIG 0.17  C 
ATOM     46  CB  ALA B   3      58.338  29.382   4.465  1.00 20.02 LIG 0.04  C 
BRANCH 45 47
ATOM     47  N   ALA B   3      59.220  27.112   4.405  1.00 19.71 LIG-0.35  N 
ATOM     48 H    ALA B   3      59.946  27.571   4.444  1.00 19.71 LIG 0.16  HD
ATOM     49  C   ILE B   2      59.174  25.787   4.412  1.00 19.11 LIG 0.24  C 
ATOM     50 O    ILE B   2      58.123  25.152   4.404  1.00 19.33 LIG-0.27  OA
BRANCH 49 51
ATOM     51  CA  ILE B   2      60.515  25.071   4.459  1.00 18.55 LIG 0.18  C 
BRANCH 51 52
ATOM     52  CB  ILE B   2      60.323  23.679   5.098  1.00 21.29 LIG 0.01  C 
ATOM     53  CG2 ILE B   2      61.265  22.665   4.451  1.00 18.18 LIG 0.01  C 
BRANCH 52 54
ATOM     54  CG1 ILE B   2      60.567  23.764   6.607  1.00 26.11 LIG 0.00  C 
ATOM     55  CD1 ILE B   2      59.304  23.867   7.442  1.00 36.60 LIG 0.01  C 
ENDBRANCH 52 54
ENDBRANCH 51 52
BRANCH 51 56
ATOM     56  N   ILE B   2      61.477  25.857   5.213  1.00 18.11 LIG-0.35  N 
ATOM     57 H    ILE B   2      61.311  25.906   6.055  1.00 18.11 LIG 0.16  HD
ATOM     58  C   ALA B   1      62.515  26.440   4.628  1.00 22.52 LIG 0.25  C 
ATOM     59 O    ALA B   1      62.745  26.351   3.424  1.00 25.87 LIG-0.27  OA
BRANCH 58 60
ATOM     60  CA  ALA B   1      63.433  27.237   5.543  1.00 19.14 LIG 0.27  C 
ATOM     61  CB  ALA B   1      63.968  26.335   6.651  1.00 16.49 LIG 0.05  C 
BRANCH 60 62
ATOM     62  N   ALA B   1      62.703  28.358   6.116  1.00 20.16 LIG-0.07  N 
ATOM     63 H3   ALA B   1      63.171  28.704   6.789  1.00 20.16 LIG 0.28  HD
ATOM     64 H2   ALA B   1      61.915  28.076   6.417  1.00 20.16 LIG 0.28  HD
ATOM     65 H1   ALA B   1      62.576  28.980   5.492  1.00 20.16 LIG 0.28  HD
ENDBRANCH 60 62
ENDBRANCH 58 60
ENDBRANCH 51 56
ENDBRANCH 49 51
ENDBRANCH 45 47
ENDBRANCH 43 45
ENDBRANCH 1 41
TORSDOF 22
ENDMDL
MODEL 7
USER: ADFR SOLUTION from run 54
USER: SCORE 20.743911 LL:  -7.008 LR: -16.210 RR:   0.000 FEB:  -9.647
USER: RMSD 4.380433
USER: SEED 53
USER: STATUS no improvement in best in 1 clusters for 5 generations
USER: GENES 24
USER: genes 0 Translation |==|  0.49097 0.45735 0.59876
USER: genes 1 Rotation |==|  0.23558 0.40170 0.09219 0.56410
USER: genes 2 Torsion [C]-CA--CB-[CG] |==|  0.07833
USER: genes 3 Torsion [CA]-CB--CG-[CD2] |==|  0.21257
USER: genes 4 Torsion [CE2]-CZ--OH-[HH] |==|  0.14349
USER: genes 5 Torsion [N]-CA--C-[N] |==|  0.42231
USER: genes 6 Torsion [C]-N--CA-[CB] |==|  0.28133
USER: genes 7 Torsion [N]-CA--C-[N] |==|  0.34659
USER: genes 8 Torsion [C]-N--CA-[C] |==|  0.86782
USER: genes 9 Torsion [N]-CA--CB-[CG2] |==|  0.81393
USER: genes 10 Torsion [CA]-CB--CG1-[CD1] |==|  0.29369
USER: genes 11 Torsion [N]-CA--C-[N] |==|  0.35563
USER: genes 12 Torsion [N]-CA--C-[O] |==|  0.28494
USER: genes 13 Torsion [N]-CA--CB-[CG] |==|  0.42608
USER: genes 14 Torsion [CA]-CB--CG-[CD2] |==|  0.71750
USER: genes 15 Torsion [CB]-CA--N-[C] |==|  0.20085
USER: genes 16 Torsion [N]-C--CA-[N] |==|  0.38750
USER: genes 17 Torsion [C]-CA--N-[C] |==|  0.78597
USER: genes 18 Torsion [N]-C--CA-[N] |==|  0.90086
USER: genes 19 Torsion [C]-CA--CB-[CG2] |==|  0.20759
USER: genes 20 Torsion [CA]-CB--CG1-[CD1] |==|  0.33248
USER: genes 21 Torsion [C]-CA--N-[C] |==|  0.80038
USER: genes 22 Torsion [N]-C--CA-[N] |==|  0.18043
USER: genes 23 Torsion [C]-CA--N-[H3] |==|  0.83553
ROOT
ATOM      1  CA  TYR B   4      54.196  25.404  -0.029  1.00 23.69 LIG 0.18  C 
ENDROOT
BRANCH 1 2
ATOM      2  CB  TYR B   4      55.587  25.722  -0.578  1.00 21.78 LIG 0.07  C 
BRANCH 2 3
ATOM      3  CG  TYR B   4      55.573  26.000  -2.066  1.00 24.88 LIG-0.06  A 
ATOM      4  CD2 TYR B   4      55.115  27.223  -2.555  1.00 24.05 LIG 0.01  A 
ATOM      5  CE2 TYR B   4      55.136  27.511  -3.916  1.00 20.83 LIG 0.04  A 
ATOM      6  CZ  TYR B   4      55.617  26.571  -4.808  1.00 22.15 LIG 0.07  A 
ATOM      7  CE1 TYR B   4      56.077  25.339  -4.353  1.00 19.14 LIG 0.04  A 
ATOM      8  CD1 TYR B   4      56.053  25.059  -2.986  1.00 18.71 LIG 0.01  A 
BRANCH 6 9
ATOM      9 OH   TYR B   4      55.647  26.877  -6.150  1.00 23.41 LIG-0.36  OA
ATOM     10 HH   TYR B   4      56.036  27.613  -6.261  1.00 23.41 LIG 0.22  HD
ENDBRANCH 6 9
ENDBRANCH 2 3
ENDBRANCH 1 2
BRANCH 1 11
ATOM     11  C   TYR B   4      53.303  24.777  -1.097  1.00 26.86 LIG 0.24  C 
ATOM     12 O    TYR B   4      53.203  23.555  -1.201  1.00 26.35 LIG-0.27  OA
ATOM     13  N   PHE B   5      52.665  25.628  -1.894  1.00 27.52 LIG-0.35  N 
ATOM     14 H    PHE B   5      52.715  26.483  -1.816  1.00 27.52 LIG 0.16  HD
BRANCH 13 15
ATOM     15  CA  PHE B   5      51.810  25.178  -2.990  1.00 31.98 LIG 0.18  C 
BRANCH 15 16
ATOM     16  C   PHE B   5      52.052  25.994  -4.252  1.00 33.78 LIG 0.24  C 
ATOM     17  N   ILE B   6      52.367  25.302  -5.341  1.00 31.71 LIG-0.35  N 
ATOM     18 H    ILE B   6      52.439  24.445  -5.361  1.00 31.71 LIG 0.16  HD
ATOM     19 O    PHE B   5      51.960  27.224  -4.241  1.00 29.51 LIG-0.27  OA
BRANCH 17 20
ATOM     20  CA  ILE B   6      52.619  25.956  -6.617  1.00 36.87 LIG 0.18  C 
BRANCH 20 21
ATOM     21  CB  ILE B   6      52.669  24.928  -7.764  1.00 37.14 LIG 0.01  C 
ATOM     22  CG2 ILE B   6      53.882  24.028  -7.604  1.00 36.45 LIG 0.01  C 
BRANCH 21 23
ATOM     23  CG1 ILE B   6      51.390  24.086  -7.762  1.00 37.87 LIG 0.00  C 
ATOM     24  CD1 ILE B   6      50.420  24.433  -8.868  1.00 36.09 LIG 0.01  C 
ENDBRANCH 21 23
ENDBRANCH 20 21
BRANCH 20 25
ATOM     25  C   ILE B   6      51.506  26.967  -6.893  1.00 41.32 LIG 0.24  C 
ATOM     26 O    ILE B   6      50.322  26.631  -6.826  1.00 41.04 LIG-0.27  OA
ATOM     27  N   PRO B   7      51.876  28.223  -7.200  1.00 42.91 LIG-0.34  N 
ATOM     28  CA  PRO B   7      50.902  29.282  -7.483  1.00 43.88 LIG 0.17  C 
ATOM     29  CD  PRO B   7      53.253  28.727  -7.355  1.00 40.67 LIG 0.13  C 
ATOM     30  CB  PRO B   7      51.761  30.371  -8.118  1.00 44.00 LIG 0.04  C 
ATOM     31  CG  PRO B   7      53.051  30.230  -7.375  1.00 40.06 LIG 0.02  C 
BRANCH 28 32
ATOM     32  C   PRO B   7      49.768  28.826  -8.399  1.00 46.53 LIG 0.22  C 
ATOM     33 O    PRO B   7      48.655  28.561  -7.944  1.00 48.18 LIG-0.29  OA
ENDBRANCH 28 32
ENDBRANCH 20 25
ENDBRANCH 17 20
ENDBRANCH 15 16
BRANCH 15 34
ATOM     34  CB  PHE B   5      50.330  25.256  -2.611  1.00 34.18 LIG 0.07  C 
BRANCH 34 35
ATOM     35  CG  PHE B   5      49.416  25.432  -3.793  1.00 39.37 LIG-0.06  A 
ATOM     36  CD2 PHE B   5      48.881  26.681  -4.098  1.00 41.89 LIG 0.01  A 
ATOM     37  CE2 PHE B   5      48.003  26.840  -5.174  1.00 44.83 LIG 0.00  A 
ATOM     38  CZ  PHE B   5      47.655  25.743  -5.957  1.00 42.42 LIG 0.00  A 
ATOM     39  CE1 PHE B   5      48.185  24.490  -5.662  1.00 44.61 LIG 0.00  A 
ATOM     40  CD1 PHE B   5      49.062  24.340  -4.584  1.00 43.39 LIG 0.01  A 
ENDBRANCH 34 35
ENDBRANCH 15 34
ENDBRANCH 13 15
ENDBRANCH 1 11
BRANCH 1 41
ATOM     41  N   TYR B   4      54.298  24.525   1.122  1.00 19.41 LIG-0.35  N 
ATOM     42 H    TYR B   4      54.046  23.714   0.984  1.00 19.41 LIG 0.16  HD
ATOM     43  C   ALA B   3      54.752  24.986   2.278  1.00 19.00 LIG 0.24  C 
ATOM     44 O    ALA B   3      55.132  26.148   2.425  1.00 18.56 LIG-0.27  OA
BRANCH 43 45
ATOM     45  CA  ALA B   3      54.810  23.992   3.434  1.00 21.06 LIG 0.17  C 
ATOM     46  CB  ALA B   3      53.612  24.178   4.346  1.00 20.02 LIG 0.04  C 
BRANCH 45 47
ATOM     47  N   ALA B   3      56.042  24.212   4.175  1.00 19.71 LIG-0.35  N 
ATOM     48 H    ALA B   3      55.943  24.637   4.916  1.00 19.71 LIG 0.16  HD
ATOM     49  C   ILE B   2      57.208  23.778   3.716  1.00 19.11 LIG 0.24  C 
ATOM     50 O    ILE B   2      57.321  23.132   2.678  1.00 19.33 LIG-0.27  OA
BRANCH 49 51
ATOM     51  CA  ILE B   2      58.425  24.101   4.568  1.00 18.55 LIG 0.18  C 
BRANCH 51 52
ATOM     52  CB  ILE B   2      58.596  23.006   5.642  1.00 21.29 LIG 0.01  C 
ATOM     53  CG2 ILE B   2      59.146  21.727   5.014  1.00 18.18 LIG 0.01  C 
BRANCH 52 54
ATOM     54  CG1 ILE B   2      59.522  23.510   6.752  1.00 26.11 LIG 0.00  C 
ATOM     55  CD1 ILE B   2      58.884  23.555   8.129  1.00 36.60 LIG 0.01  C 
ENDBRANCH 52 54
ENDBRANCH 51 52
BRANCH 51 56
ATOM     56  N   ILE B   2      58.274  25.409   5.183  1.00 18.11 LIG-0.35  N 
ATOM     57 H    ILE B   2      58.126  25.387   6.029  1.00 18.11 LIG 0.16  HD
ATOM     58  C   ALA B   1      58.362  26.528   4.476  1.00 22.52 LIG 0.25  C 
ATOM     59 O    ALA B   1      58.585  26.543   3.266  1.00 25.87 LIG-0.27  OA
BRANCH 58 60
ATOM     60  CA  ALA B   1      58.174  27.822   5.253  1.00 19.14 LIG 0.27  C 
ATOM     61  CB  ALA B   1      58.148  29.004   4.288  1.00 16.49 LIG 0.05  C 
BRANCH 60 62
ATOM     62  N   ALA B   1      59.256  27.981   6.212  1.00 20.16 LIG-0.07  N 
ATOM     63 H3   ALA B   1      59.261  27.289   6.772  1.00 20.16 LIG 0.28  HD
ATOM     64 H2   ALA B   1      59.137  28.733   6.673  1.00 20.16 LIG 0.28  HD
ATOM     65 H1   ALA B   1      60.034  28.018   5.781  1.00 20.16 LIG 0.28  HD
ENDBRANCH 60 62
ENDBRANCH 58 60
ENDBRANCH 51 56
ENDBRANCH 49 51
ENDBRANCH 45 47
ENDBRANCH 43 45
ENDBRANCH 1 41
TORSDOF 22
ENDMDL
MODEL 8
USER: ADFR SOLUTION from run 103
USER: SCORE 19.911090 LL:  -6.253 LR: -16.138 RR:   0.000 FEB:  -9.576
USER: RMSD 4.937283
USER: SEED 102
USER: STATUS no improvement in best in 3 clusters for 5 generations
USER: GENES 24
USER: genes 0 Translation |==|  0.49457 0.44315 0.60142
USER: genes 1 Rotation |==|  0.21924 0.40407 0.09970 0.54154
USER: genes 2 Torsion [C]-CA--CB-[CG] |==|  0.10839
USER: genes 3 Torsion [CA]-CB--CG-[CD2] |==|  0.19577
USER: genes 4 Torsion [CE2]-CZ--OH-[HH] |==|  0.08159
USER: genes 5 Torsion [N]-CA--C-[N] |==|  0.42578
USER: genes 6 Torsion [C]-N--CA-[CB] |==|  0.26163
USER: genes 7 Torsion [N]-CA--C-[N] |==|  0.33794
USER: genes 8 Torsion [C]-N--CA-[C] |==|  0.87728
USER: genes 9 Torsion [N]-CA--CB-[CG2] |==|  0.42492
USER: genes 10 Torsion [CA]-CB--CG1-[CD1] |==|  0.14604
USER: genes 11 Torsion [N]-CA--C-[N] |==|  0.35942
USER: genes 12 Torsion [N]-CA--C-[O] |==|  0.38655
USER: genes 13 Torsion [N]-CA--CB-[CG] |==|  0.85513
USER: genes 14 Torsion [CA]-CB--CG-[CD2] |==|  0.71083
USER: genes 15 Torsion [CB]-CA--N-[C] |==|  0.22239
USER: genes 16 Torsion [N]-C--CA-[N] |==|  0.38398
USER: genes 17 Torsion [C]-CA--N-[C] |==|  0.76473
USER: genes 18 Torsion [N]-C--CA-[N] |==|  0.91466
USER: genes 19 Torsion [C]-CA--CB-[CG2] |==|  0.23010
USER: genes 20 Torsion [CA]-CB--CG1-[CD1] |==|  0.78223
USER: genes 21 Torsion [C]-CA--N-[C] |==|  0.80556
USER: genes 22 Torsion [N]-C--CA-[N] |==|  0.17289
USER: genes 23 Torsion [C]-CA--N-[H3] |==|  0.18599
ROOT
ATOM      1  CA  TYR B   4      54.272  25.170   0.040  1.00 23.69 LIG 0.18  C 
ENDROOT
BRANCH 1 2
ATOM      2  CB  TYR B   4      55.652  25.334  -0.594  1.00 21.78 LIG 0.07  C 
BRANCH 2 3
ATOM      3  CG  TYR B   4      55.577  25.792  -2.035  1.00 24.88 LIG-0.06  A 
ATOM      4  CD2 TYR B   4      55.170  27.088  -2.347  1.00 24.05 LIG 0.01  A 
ATOM      5  CE2 TYR B   4      55.136  27.539  -3.663  1.00 20.83 LIG 0.04  A 
ATOM      6  CZ  TYR B   4      55.511  26.690  -4.688  1.00 22.15 LIG 0.07  A 
ATOM      7  CE1 TYR B   4      55.917  25.388  -4.411  1.00 19.14 LIG 0.04  A 
ATOM      8  CD1 TYR B   4      55.949  24.945  -3.087  1.00 18.71 LIG 0.01  A 
BRANCH 6 9
ATOM      9 OH   TYR B   4      55.488  27.155  -5.983  1.00 23.41 LIG-0.36  OA
ATOM     10 HH   TYR B   4      55.631  27.983  -5.986  1.00 23.41 LIG 0.22  HD
ENDBRANCH 6 9
ENDBRANCH 2 3
ENDBRANCH 1 2
BRANCH 1 11
ATOM     11  C   TYR B   4      53.271  24.570  -0.944  1.00 26.86 LIG 0.24  C 
ATOM     12 O    TYR B   4      53.043  23.360  -0.958  1.00 26.35 LIG-0.27  OA
ATOM     13  N   PHE B   5      52.685  25.429  -1.773  1.00 27.52 LIG-0.35  N 
ATOM     14 H    PHE B   5      52.824  26.277  -1.756  1.00 27.52 LIG 0.16  HD
BRANCH 13 15
ATOM     15  CA  PHE B   5      51.738  24.999  -2.798  1.00 31.98 LIG 0.18  C 
BRANCH 15 16
ATOM     16  C   PHE B   5      51.887  25.823  -4.070  1.00 33.78 LIG 0.24  C 
ATOM     17  N   ILE B   6      52.167  25.143  -5.175  1.00 31.71 LIG-0.35  N 
ATOM     18 H    ILE B   6      52.266  24.289  -5.201  1.00 31.71 LIG 0.16  HD
ATOM     19 O    PHE B   5      51.755  27.049  -4.050  1.00 29.51 LIG-0.27  OA
BRANCH 17 20
ATOM     20  CA  ILE B   6      52.331  25.806  -6.461  1.00 36.87 LIG 0.18  C 
BRANCH 20 21
ATOM     21  CB  ILE B   6      52.270  24.789  -7.618  1.00 37.14 LIG 0.01  C 
ATOM     22  CG2 ILE B   6      51.781  25.471  -8.884  1.00 36.45 LIG 0.01  C 
BRANCH 21 23
ATOM     23  CG1 ILE B   6      53.659  24.187  -7.852  1.00 37.87 LIG 0.00  C 
ATOM     24  CD1 ILE B   6      54.302  23.613  -6.610  1.00 36.09 LIG 0.01  C 
ENDBRANCH 21 23
ENDBRANCH 20 21
BRANCH 20 25
ATOM     25  C   ILE B   6      51.220  26.841  -6.638  1.00 41.32 LIG 0.24  C 
ATOM     26 O    ILE B   6      50.041  26.533  -6.457  1.00 41.04 LIG-0.27  OA
ATOM     27  N   PRO B   7      51.588  28.086  -6.990  1.00 42.91 LIG-0.34  N 
ATOM     28  CA  PRO B   7      50.615  29.165  -7.189  1.00 43.88 LIG 0.17  C 
ATOM     29  CD  PRO B   7      52.955  28.556  -7.279  1.00 40.67 LIG 0.13  C 
ATOM     30  CB  PRO B   7      51.435  30.230  -7.910  1.00 44.00 LIG 0.04  C 
ATOM     31  CG  PRO B   7      52.786  30.064  -7.292  1.00 40.06 LIG 0.02  C 
BRANCH 28 32
ATOM     32  C   PRO B   7      49.390  28.730  -7.989  1.00 46.53 LIG 0.22  C 
ATOM     33 O    PRO B   7      48.261  29.108  -7.673  1.00 48.18 LIG-0.29  OA
ENDBRANCH 28 32
ENDBRANCH 20 25
ENDBRANCH 17 20
ENDBRANCH 15 16
BRANCH 15 34
ATOM     34  CB  PHE B   5      50.295  25.092  -2.300  1.00 34.18 LIG 0.07  C 
BRANCH 34 35
ATOM     35  CG  PHE B   5      50.068  24.393  -0.986  1.00 39.37 LIG-0.06  A 
ATOM     36  CD2 PHE B   5      49.420  23.161  -0.940  1.00 41.89 LIG 0.01  A 
ATOM     37  CE2 PHE B   5      49.176  22.526   0.281  1.00 44.83 LIG 0.00  A 
ATOM     38  CZ  PHE B   5      49.582  23.125   1.471  1.00 42.42 LIG 0.00  A 
ATOM     39  CE1 PHE B   5      50.231  24.356   1.436  1.00 44.61 LIG 0.00  A 
ATOM     40  CD1 PHE B   5      50.471  24.983   0.211  1.00 43.39 LIG 0.01  A 
ENDBRANCH 34 35
ENDBRANCH 15 34
ENDBRANCH 13 15
ENDBRANCH 1 11
BRANCH 1 41
ATOM     41  N   TYR B   4      54.360  24.346   1.233  1.00 19.41 LIG-0.35  N 
ATOM     42 H    TYR B   4      54.129  23.524   1.126  1.00 19.41 LIG 0.16  HD
ATOM     43  C   ALA B   3      54.773  24.869   2.379  1.00 19.00 LIG 0.24  C 
ATOM     44 O    ALA B   3      55.125  26.044   2.481  1.00 18.56 LIG-0.27  OA
BRANCH 43 45
ATOM     45  CA  ALA B   3      54.821  23.930   3.580  1.00 21.06 LIG 0.17  C 
ATOM     46  CB  ALA B   3      53.610  24.152   4.467  1.00 20.02 LIG 0.04  C 
BRANCH 45 47
ATOM     47  N   ALA B   3      56.042  24.189   4.325  1.00 19.71 LIG-0.35  N 
ATOM     48 H    ALA B   3      55.950  24.732   4.986  1.00 19.71 LIG 0.16  HD
ATOM     49  C   ILE B   2      57.190  23.618   3.986  1.00 19.11 LIG 0.24  C 
ATOM     50 O    ILE B   2      57.290  22.809   3.068  1.00 19.33 LIG-0.27  OA
BRANCH 49 51
ATOM     51  CA  ILE B   2      58.400  23.998   4.824  1.00 18.55 LIG 0.18  C 
BRANCH 51 52
ATOM     52  CB  ILE B   2      58.538  23.001   5.995  1.00 21.29 LIG 0.01  C 
ATOM     53  CG2 ILE B   2      59.260  21.737   5.534  1.00 18.18 LIG 0.01  C 
BRANCH 52 54
ATOM     54  CG1 ILE B   2      59.287  23.665   7.154  1.00 26.11 LIG 0.00  C 
ATOM     55  CD1 ILE B   2      60.793  23.733   6.970  1.00 36.60 LIG 0.01  C 
ENDBRANCH 52 54
ENDBRANCH 51 52
BRANCH 51 56
ATOM     56  N   ILE B   2      58.262  25.358   5.318  1.00 18.11 LIG-0.35  N 
ATOM     57 H    ILE B   2      58.127  25.415   6.164  1.00 18.11 LIG 0.16  HD
ATOM     58  C   ALA B   1      58.341  26.406   4.509  1.00 22.52 LIG 0.25  C 
ATOM     59 O    ALA B   1      58.546  26.308   3.300  1.00 25.87 LIG-0.27  OA
BRANCH 58 60
ATOM     60  CA  ALA B   1      58.169  27.767   5.165  1.00 19.14 LIG 0.27  C 
ATOM     61  CB  ALA B   1      58.198  28.860   4.101  1.00 16.49 LIG 0.05  C 
BRANCH 60 62
ATOM     62  N   ALA B   1      59.230  27.983   6.136  1.00 20.16 LIG-0.07  N 
ATOM     63 H3   ALA B   1      60.010  28.052   5.714  1.00 20.16 LIG 0.28  HD
ATOM     64 H2   ALA B   1      59.260  27.296   6.701  1.00 20.16 LIG 0.28  HD
ATOM     65 H1   ALA B   1      59.071  28.733   6.589  1.00 20.16 LIG 0.28  HD
ENDBRANCH 60 62
ENDBRANCH 58 60
ENDBRANCH 51 56
ENDBRANCH 49 51
ENDBRANCH 45 47
ENDBRANCH 43 45
ENDBRANCH 1 41
TORSDOF 22
ENDMDL
MODEL 9
USER: ADFR SOLUTION from run 141
USER: SCORE 20.348977 LL:  -7.093 LR: -16.073 RR:   0.000 FEB:  -9.510
USER: RMSD 6.461498
USER: SEED 140
USER: STATUS no improvement in best in 10 clusters for 5 generations
USER: GENES 24
USER: genes 0 Translation |==|  0.56357 0.54756 0.66907
USER: genes 1 Rotation |==|  0.13628 0.29263 0.22960 0.53987
USER: genes 2 Torsion [C]-CA--CB-[CG] |==|  0.91258
USER: genes 3 Torsion [CA]-CB--CG-[CD2] |==|  0.82400
USER: genes 4 Torsion [CE2]-CZ--OH-[HH] |==|  0.66527
USER: genes 5 Torsion [N]-CA--C-[N] |==|  0.52496
USER: genes 6 Torsion [C]-N--CA-[CB] |==|  0.22117
USER: genes 7 Torsion [N]-CA--C-[N] |==|  0.82814
USER: genes 8 Torsion [C]-N--CA-[C] |==|  0.63323
USER: genes 9 Torsion [N]-CA--CB-[CG2] |==|  0.46877
USER: genes 10 Torsion [CA]-CB--CG1-[CD1] |==|  0.25491
USER: genes 11 Torsion [N]-CA--C-[N] |==|  0.24605
USER: genes 12 Torsion [N]-CA--C-[O] |==|  0.89105
USER: genes 13 Torsion [N]-CA--CB-[CG] |==|  0.70602
USER: genes 14 Torsion [CA]-CB--CG-[CD2] |==|  0.23559
USER: genes 15 Torsion [CB]-CA--N-[C] |==|  0.15255
USER: genes 16 Torsion [N]-C--CA-[N] |==|  0.08218
USER: genes 17 Torsion [C]-CA--N-[C] |==|  0.17243
USER: genes 18 Torsion [N]-C--CA-[N] |==|  0.94838
USER: genes 19 Torsion [C]-CA--CB-[CG2] |==|  0.45307
USER: genes 20 Torsion [CA]-CB--CG1-[CD1] |==|  0.54326
USER: genes 21 Torsion [C]-CA--N-[C] |==|  0.62778
USER: genes 22 Torsion [N]-C--CA-[N] |==|  0.88683
USER: genes 23 Torsion [C]-CA--N-[H3] |==|  0.49438
ROOT
ATOM      1  CA  TYR B   4      55.721  26.893   1.816  1.00 23.69 LIG 0.18  C 
ENDROOT
BRANCH 1 2
ATOM      2  CB  TYR B   4      56.555  26.821   0.538  1.00 21.78 LIG 0.07  C 
BRANCH 2 3
ATOM      3  CG  TYR B   4      56.710  25.405   0.026  1.00 24.88 LIG-0.06  A 
ATOM      4  CD2 TYR B   4      57.379  24.446   0.786  1.00 24.05 LIG 0.01  A 
ATOM      5  CE2 TYR B   4      57.493  23.128   0.350  1.00 20.83 LIG 0.04  A 
ATOM      6  CZ  TYR B   4      56.937  22.756  -0.860  1.00 22.15 LIG 0.07  A 
ATOM      7  CE1 TYR B   4      56.268  23.691  -1.644  1.00 19.14 LIG 0.04  A 
ATOM      8  CD1 TYR B   4      56.157  25.009  -1.198  1.00 18.71 LIG 0.01  A 
BRANCH 6 9
ATOM      9 OH   TYR B   4      57.044  21.447  -1.269  1.00 23.41 LIG-0.36  OA
ATOM     10 HH   TYR B   4      57.451  21.416  -2.004  1.00 23.41 LIG 0.22  HD
ENDBRANCH 6 9
ENDBRANCH 2 3
ENDBRANCH 1 2
BRANCH 1 11
ATOM     11  C   TYR B   4      54.660  25.794   1.855  1.00 26.86 LIG 0.24  C 
ATOM     12 O    TYR B   4      54.516  25.089   2.853  1.00 26.35 LIG-0.27  OA
ATOM     13  N   PHE B   5      53.930  25.653   0.753  1.00 27.52 LIG-0.35  N 
ATOM     14 H    PHE B   5      54.013  26.154   0.059  1.00 27.52 LIG 0.16  HD
BRANCH 13 15
ATOM     15  CA  PHE B   5      52.908  24.618   0.624  1.00 31.98 LIG 0.18  C 
BRANCH 15 16
ATOM     16  C   PHE B   5      52.609  24.314  -0.837  1.00 33.78 LIG 0.24  C 
ATOM     17  N   ILE B   6      52.125  25.322  -1.555  1.00 31.71 LIG-0.35  N 
ATOM     18 H    ILE B   6      51.978  26.108  -1.239  1.00 31.71 LIG 0.16  HD
ATOM     19 O    PHE B   5      52.808  23.191  -1.305  1.00 29.51 LIG-0.27  OA
BRANCH 17 20
ATOM     20  CA  ILE B   6      51.800  25.170  -2.965  1.00 36.87 LIG 0.18  C 
BRANCH 20 21
ATOM     21  CB  ILE B   6      50.274  25.149  -3.181  1.00 37.14 LIG 0.01  C 
ATOM     22  CG2 ILE B   6      49.957  25.270  -4.662  1.00 36.45 LIG 0.01  C 
BRANCH 21 23
ATOM     23  CG1 ILE B   6      49.690  23.847  -2.625  1.00 37.87 LIG 0.00  C 
ATOM     24  CD1 ILE B   6      49.234  23.938  -1.187  1.00 36.09 LIG 0.01  C 
ENDBRANCH 21 23
ENDBRANCH 20 21
BRANCH 20 25
ATOM     25  C   ILE B   6      52.406  26.335  -3.749  1.00 41.32 LIG 0.24  C 
ATOM     26 O    ILE B   6      51.758  27.365  -3.943  1.00 41.04 LIG-0.27  OA
ATOM     27  N   PRO B   7      53.663  26.186  -4.203  1.00 42.91 LIG-0.34  N 
ATOM     28  CA  PRO B   7      54.352  27.232  -4.965  1.00 43.88 LIG 0.17  C 
ATOM     29  CD  PRO B   7      54.514  24.989  -4.073  1.00 40.67 LIG 0.13  C 
ATOM     30  CB  PRO B   7      55.548  26.490  -5.553  1.00 44.00 LIG 0.04  C 
ATOM     31  CG  PRO B   7      55.881  25.515  -4.470  1.00 40.06 LIG 0.02  C 
BRANCH 28 32
ATOM     32  C   PRO B   7      53.475  27.869  -6.040  1.00 46.53 LIG 0.22  C 
ATOM     33 O    PRO B   7      52.698  27.187  -6.710  1.00 48.18 LIG-0.29  OA
ENDBRANCH 28 32
ENDBRANCH 20 25
ENDBRANCH 17 20
ENDBRANCH 15 16
BRANCH 15 34
ATOM     34  CB  PHE B   5      51.614  25.021   1.334  1.00 34.18 LIG 0.07  C 
BRANCH 34 35
ATOM     35  CG  PHE B   5      51.383  24.284   2.626  1.00 39.37 LIG-0.06  A 
ATOM     36  CD2 PHE B   5      51.957  24.734   3.812  1.00 41.89 LIG 0.01  A 
ATOM     37  CE2 PHE B   5      51.774  24.032   5.007  1.00 44.83 LIG 0.00  A 
ATOM     38  CZ  PHE B   5      51.010  22.868   5.021  1.00 42.42 LIG 0.00  A 
ATOM     39  CE1 PHE B   5      50.431  22.410   3.841  1.00 44.61 LIG 0.00  A 
ATOM     40  CD1 PHE B   5      50.619  23.118   2.651  1.00 43.39 LIG 0.01  A 
ENDBRANCH 34 35
ENDBRANCH 15 34
ENDBRANCH 13 15
ENDBRANCH 1 11
BRANCH 1 41
ATOM     41  N   TYR B   4      56.580  26.804   2.984  1.00 19.41 LIG-0.35  N 
ATOM     42 H    TYR B   4      56.377  26.179   3.539  1.00 19.41 LIG 0.16  HD
ATOM     43  C   ALA B   3      57.591  27.647   3.136  1.00 19.00 LIG 0.24  C 
ATOM     44 O    ALA B   3      57.867  28.508   2.301  1.00 18.56 LIG-0.27  OA
BRANCH 43 45
ATOM     45  CA  ALA B   3      58.430  27.485   4.400  1.00 21.06 LIG 0.17  C 
ATOM     46  CB  ALA B   3      59.858  27.928   4.141  1.00 20.02 LIG 0.04  C 
BRANCH 45 47
ATOM     47  N   ALA B   3      58.405  26.088   4.800  1.00 19.71 LIG-0.35  N 
ATOM     48 H    ALA B   3      58.054  25.943   5.572  1.00 19.71 LIG 0.16  HD
ATOM     49  C   ILE B   2      58.892  25.138   4.013  1.00 19.11 LIG 0.24  C 
ATOM     50 O    ILE B   2      59.347  25.361   2.895  1.00 19.33 LIG-0.27  OA
BRANCH 49 51
ATOM     51  CA  ILE B   2      58.836  23.721   4.562  1.00 18.55 LIG 0.18  C 
BRANCH 51 52
ATOM     52  CB  ILE B   2      57.679  22.960   3.880  1.00 21.29 LIG 0.01  C 
ATOM     53  CG2 ILE B   2      57.845  21.454   4.079  1.00 18.18 LIG 0.01  C 
BRANCH 52 54
ATOM     54  CG1 ILE B   2      56.340  23.440   4.447  1.00 26.11 LIG 0.00  C 
ATOM     55  CD1 ILE B   2      55.166  22.528   4.140  1.00 36.60 LIG 0.01  C 
ENDBRANCH 52 54
ENDBRANCH 51 52
BRANCH 51 56
ATOM     56  N   ILE B   2      58.658  23.747   6.004  1.00 18.11 LIG-0.35  N 
ATOM     57 H    ILE B   2      58.053  24.293   6.275  1.00 18.11 LIG 0.16  HD
ATOM     58  C   ALA B   1      59.382  22.984   6.811  1.00 22.52 LIG 0.25  C 
ATOM     59 O    ALA B   1      60.239  22.199   6.407  1.00 25.87 LIG-0.27  OA
BRANCH 58 60
ATOM     60  CA  ALA B   1      59.091  23.125   8.298  1.00 19.14 LIG 0.27  C 
ATOM     61  CB  ALA B   1      57.853  22.311   8.661  1.00 16.49 LIG 0.05  C 
BRANCH 60 62
ATOM     62  N   ALA B   1      58.886  24.527   8.628  1.00 20.16 LIG-0.07  N 
ATOM     63 H3   ALA B   1      58.687  24.603   9.492  1.00 20.16 LIG 0.28  HD
ATOM     64 H2   ALA B   1      58.216  24.852   8.140  1.00 20.16 LIG 0.28  HD
ATOM     65 H1   ALA B   1      59.629  24.986   8.454  1.00 20.16 LIG 0.28  HD
ENDBRANCH 60 62
ENDBRANCH 58 60
ENDBRANCH 51 56
ENDBRANCH 49 51
ENDBRANCH 45 47
ENDBRANCH 43 45
ENDBRANCH 1 41
TORSDOF 22
ENDMDL
MODEL 10
USER: ADFR SOLUTION from run 128
USER: SCORE 19.851692 LL:  -6.187 LR: -16.065 RR:   0.000 FEB:  -9.502
USER: RMSD 6.775230
USER: SEED 127
USER: STATUS no improvement in best in 4 clusters for 5 generations
USER: GENES 24
USER: genes 0 Translation |==|  0.55808 0.52169 0.66057
USER: genes 1 Rotation |==|  0.85228 0.73743 0.75855 0.55177
USER: genes 2 Torsion [C]-CA--CB-[CG] |==|  0.22723
USER: genes 3 Torsion [CA]-CB--CG-[CD2] |==|  0.10319
USER: genes 4 Torsion [CE2]-CZ--OH-[HH] |==|  0.21762
USER: genes 5 Torsion [N]-CA--C-[N] |==|  0.48016
USER: genes 6 Torsion [C]-N--CA-[CB] |==|  0.19839
USER: genes 7 Torsion [N]-CA--C-[N] |==|  0.82186
USER: genes 8 Torsion [C]-N--CA-[C] |==|  0.66480
USER: genes 9 Torsion [N]-CA--CB-[CG2] |==|  0.38671
USER: genes 10 Torsion [CA]-CB--CG1-[CD1] |==|  0.14072
USER: genes 11 Torsion [N]-CA--C-[N] |==|  0.40330
USER: genes 12 Torsion [N]-CA--C-[O] |==|  0.87473
USER: genes 13 Torsion [N]-CA--CB-[CG] |==|  0.68850
USER: genes 14 Torsion [CA]-CB--CG-[CD2] |==|  0.25912
USER: genes 15 Torsion [CB]-CA--N-[C] |==|  0.18889
USER: genes 16 Torsion [N]-C--CA-[N] |==|  0.21018
USER: genes 17 Torsion [C]-CA--N-[C] |==|  0.14933
USER: genes 18 Torsion [N]-C--CA-[N] |==|  0.05429
USER: genes 19 Torsion [C]-CA--CB-[CG2] |==|  0.42075
USER: genes 20 Torsion [CA]-CB--CG1-[CD1] |==|  0.27593
USER: genes 21 Torsion [C]-CA--N-[C] |==|  0.68932
USER: genes 22 Torsion [N]-C--CA-[N] |==|  0.68496
USER: genes 23 Torsion [C]-CA--N-[H3] |==|  0.58158
ROOT
ATOM      1  CA  TYR B   4      55.606  26.466   1.593  1.00 23.69 LIG 0.18  C 
ENDROOT
BRANCH 1 2
ATOM      2  CB  TYR B   4      56.590  25.905   0.568  1.00 21.78 LIG 0.07  C 
BRANCH 2 3
ATOM      3  CG  TYR B   4      56.145  26.153  -0.858  1.00 24.88 LIG-0.06  A 
ATOM      4  CD2 TYR B   4      55.511  27.345  -1.206  1.00 24.05 LIG 0.01  A 
ATOM      5  CE2 TYR B   4      55.135  27.608  -2.520  1.00 20.83 LIG 0.04  A 
ATOM      6  CZ  TYR B   4      55.389  26.672  -3.506  1.00 22.15 LIG 0.07  A 
ATOM      7  CE1 TYR B   4      56.016  25.470  -3.191  1.00 19.14 LIG 0.04  A 
ATOM      8  CD1 TYR B   4      56.391  25.216  -1.870  1.00 18.71 LIG 0.01  A 
BRANCH 6 9
ATOM      9 OH   TYR B   4      55.026  26.953  -4.803  1.00 23.41 LIG-0.36  OA
ATOM     10 HH   TYR B   4      55.590  27.473  -5.145  1.00 23.41 LIG 0.22  HD
ENDBRANCH 6 9
ENDBRANCH 2 3
ENDBRANCH 1 2
BRANCH 1 11
ATOM     11  C   TYR B   4      54.432  25.515   1.822  1.00 26.86 LIG 0.24  C 
ATOM     12 O    TYR B   4      54.256  24.979   2.916  1.00 26.35 LIG-0.27  OA
ATOM     13  N   PHE B   5      53.641  25.306   0.775  1.00 27.52 LIG-0.35  N 
ATOM     14 H    PHE B   5      53.747  25.691   0.013  1.00 27.52 LIG 0.16  HD
BRANCH 13 15
ATOM     15  CA  PHE B   5      52.505  24.390   0.827  1.00 31.98 LIG 0.18  C 
BRANCH 15 16
ATOM     16  C   PHE B   5      51.981  24.078  -0.567  1.00 33.78 LIG 0.24  C 
ATOM     17  N   ILE B   6      51.473  25.103  -1.242  1.00 31.71 LIG-0.35  N 
ATOM     18 H    ILE B   6      51.429  25.905  -0.934  1.00 31.71 LIG 0.16  HD
ATOM     19 O    PHE B   5      52.030  22.932  -1.022  1.00 29.51 LIG-0.27  OA
BRANCH 17 20
ATOM     20  CA  ILE B   6      50.941  24.946  -2.587  1.00 36.87 LIG 0.18  C 
BRANCH 20 21
ATOM     21  CB  ILE B   6      49.445  25.313  -2.636  1.00 37.14 LIG 0.01  C 
ATOM     22  CG2 ILE B   6      49.142  26.097  -3.900  1.00 36.45 LIG 0.01  C 
BRANCH 21 23
ATOM     23  CG1 ILE B   6      48.597  24.038  -2.596  1.00 37.87 LIG 0.00  C 
ATOM     24  CD1 ILE B   6      48.960  23.088  -1.477  1.00 36.09 LIG 0.01  C 
ENDBRANCH 21 23
ENDBRANCH 20 21
BRANCH 20 25
ATOM     25  C   ILE B   6      51.715  25.853  -3.544  1.00 41.32 LIG 0.24  C 
ATOM     26 O    ILE B   6      52.133  26.950  -3.168  1.00 41.04 LIG-0.27  OA
ATOM     27  N   PRO B   7      51.920  25.401  -4.794  1.00 42.91 LIG-0.34  N 
ATOM     28  CA  PRO B   7      52.648  26.178  -5.801  1.00 43.88 LIG 0.17  C 
ATOM     29  CD  PRO B   7      51.429  24.134  -5.367  1.00 40.67 LIG 0.13  C 
ATOM     30  CB  PRO B   7      52.308  25.453  -7.099  1.00 44.00 LIG 0.04  C 
ATOM     31  CG  PRO B   7      52.225  24.028  -6.654  1.00 40.06 LIG 0.02  C 
BRANCH 28 32
ATOM     32  C   PRO B   7      52.245  27.650  -5.832  1.00 46.53 LIG 0.22  C 
ATOM     33 O    PRO B   7      51.060  27.983  -5.798  1.00 48.18 LIG-0.29  OA
ENDBRANCH 28 32
ENDBRANCH 20 25
ENDBRANCH 17 20
ENDBRANCH 15 16
BRANCH 15 34
ATOM     34  CB  PHE B   5      51.370  24.957   1.682  1.00 34.18 LIG 0.07  C 
BRANCH 34 35
ATOM     35  CG  PHE B   5      51.141  24.194   2.958  1.00 39.37 LIG-0.06  A 
ATOM     36  CD2 PHE B   5      51.761  24.587   4.142  1.00 41.89 LIG 0.01  A 
ATOM     37  CE2 PHE B   5      51.579  23.860   5.321  1.00 44.83 LIG 0.00  A 
ATOM     38  CZ  PHE B   5      50.768  22.728   5.323  1.00 42.42 LIG 0.00  A 
ATOM     39  CE1 PHE B   5      50.142  22.327   4.146  1.00 44.61 LIG 0.00  A 
ATOM     40  CD1 PHE B   5      50.330  23.060   2.972  1.00 43.39 LIG 0.01  A 
ENDBRANCH 34 35
ENDBRANCH 15 34
ENDBRANCH 13 15
ENDBRANCH 1 11
BRANCH 1 41
ATOM     41  N   TYR B   4      56.285  26.737   2.848  1.00 19.41 LIG-0.35  N 
ATOM     42 H    TYR B   4      56.057  26.229   3.503  1.00 19.41 LIG 0.16  HD
ATOM     43  C   ALA B   3      57.184  27.708   2.925  1.00 19.00 LIG 0.24  C 
ATOM     44 O    ALA B   3      57.505  28.393   1.954  1.00 18.56 LIG-0.27  OA
BRANCH 43 45
ATOM     45  CA  ALA B   3      57.836  27.928   4.287  1.00 21.06 LIG 0.17  C 
ATOM     46  CB  ALA B   3      58.513  29.285   4.331  1.00 20.02 LIG 0.04  C 
BRANCH 45 47
ATOM     47  N   ALA B   3      58.813  26.874   4.510  1.00 19.71 LIG-0.35  N 
ATOM     48 H    ALA B   3      58.712  26.443   5.247  1.00 19.71 LIG 0.16  HD
ATOM     49  C   ILE B   2      59.771  26.625   3.627  1.00 19.11 LIG 0.24  C 
ATOM     50 O    ILE B   2      59.869  27.222   2.558  1.00 19.33 LIG-0.27  OA
BRANCH 49 51
ATOM     51  CA  ILE B   2      60.749  25.520   3.993  1.00 18.55 LIG 0.18  C 
BRANCH 51 52
ATOM     52  CB  ILE B   2      61.095  24.710   2.726  1.00 21.29 LIG 0.01  C 
ATOM     53  CG2 ILE B   2      62.497  24.115   2.844  1.00 18.18 LIG 0.01  C 
BRANCH 52 54
ATOM     54  CG1 ILE B   2      60.052  23.609   2.515  1.00 26.11 LIG 0.00  C 
ATOM     55  CD1 ILE B   2      58.983  23.946   1.492  1.00 36.60 LIG 0.01  C 
ENDBRANCH 52 54
ENDBRANCH 51 52
BRANCH 51 56
ATOM     56  N   ILE B   2      60.175  24.661   5.015  1.00 18.11 LIG-0.35  N 
ATOM     57 H    ILE B   2      59.508  24.189   4.747  1.00 18.11 LIG 0.16  HD
ATOM     58  C   ALA B   1      60.657  24.624   6.250  1.00 22.52 LIG 0.25  C 
ATOM     59 O    ALA B   1      61.620  25.297   6.616  1.00 25.87 LIG-0.27  OA
BRANCH 58 60
ATOM     60  CA  ALA B   1      59.950  23.684   7.213  1.00 19.14 LIG 0.27  C 
ATOM     61  CB  ALA B   1      58.935  22.835   6.454  1.00 16.49 LIG 0.05  C 
BRANCH 60 62
ATOM     62  N   ALA B   1      59.284  24.454   8.253  1.00 20.16 LIG-0.07  N 
ATOM     63 H3   ALA B   1      59.247  23.974   9.001  1.00 20.16 LIG 0.28  HD
ATOM     64 H2   ALA B   1      58.459  24.657   7.989  1.00 20.16 LIG 0.28  HD
ATOM     65 H1   ALA B   1      59.739  25.204   8.405  1.00 20.16 LIG 0.28  HD
ENDBRANCH 60 62
ENDBRANCH 58 60
ENDBRANCH 51 56
ENDBRANCH 49 51
ENDBRANCH 45 47
ENDBRANCH 43 45
ENDBRANCH 1 41
TORSDOF 22
ENDMDL
MODEL 11
USER: ADFR SOLUTION from run 109
USER: SCORE 18.524680 LL:  -5.737 LR: -16.001 RR:   0.000 FEB:  -9.439
USER: RMSD 5.758016
USER: SEED 108
USER: STATUS no improvement in best in 3 clusters for 5 generations
USER: GENES 24
USER: genes 0 Translation |==|  0.49606 0.43455 0.47850
USER: genes 1 Rotation |==|  0.69365 0.42208 0.27649 0.89557
USER: genes 2 Torsion [C]-CA--CB-[CG] |==|  0.18300
USER: genes 3 Torsion [CA]-CB--CG-[CD2] |==|  0.84500
USER: genes 4 Torsion [CE2]-CZ--OH-[HH] |==|  0.76589
USER: genes 5 Torsion [N]-CA--C-[N] |==|  0.25013
USER: genes 6 Torsion [C]-N--CA-[CB] |==|  0.44447
USER: genes 7 Torsion [N]-CA--C-[N] |==|  0.46567
USER: genes 8 Torsion [C]-N--CA-[C] |==|  0.86362
USER: genes 9 Torsion [N]-CA--CB-[CG2] |==|  0.11906
USER: genes 10 Torsion [CA]-CB--CG1-[CD1] |==|  0.42452
USER: genes 11 Torsion [N]-CA--C-[N] |==|  0.33333
USER: genes 12 Torsion [N]-CA--C-[O] |==|  0.89242
USER: genes 13 Torsion [N]-CA--CB-[CG] |==|  0.61978
USER: genes 14 Torsion [CA]-CB--CG-[CD2] |==|  0.18518
USER: genes 15 Torsion [CB]-CA--N-[C] |==|  0.81555
USER: genes 16 Torsion [N]-C--CA-[N] |==|  0.68798
USER: genes 17 Torsion [C]-CA--N-[C] |==|  0.79817
USER: genes 18 Torsion [N]-C--CA-[N] |==|  0.44749
USER: genes 19 Torsion [C]-CA--CB-[CG2] |==|  0.96073
USER: genes 20 Torsion [CA]-CB--CG1-[CD1] |==|  0.08616
USER: genes 21 Torsion [C]-CA--N-[C] |==|  0.80380
USER: genes 22 Torsion [N]-C--CA-[N] |==|  0.58093
USER: genes 23 Torsion [C]-CA--N-[H3] |==|  0.21254
ROOT
ATOM      1  CA  TYR B   4      54.303  25.028  -3.186  1.00 23.69 LIG 0.18  C 
ENDROOT
BRANCH 1 2
ATOM      2  CB  TYR B   4      53.192  25.462  -2.232  1.00 21.78 LIG 0.07  C 
BRANCH 2 3
ATOM      3  CG  TYR B   4      51.929  25.870  -2.962  1.00 24.88 LIG-0.06  A 
ATOM      4  CD2 TYR B   4      51.963  26.865  -3.938  1.00 24.05 LIG 0.01  A 
ATOM      5  CE2 TYR B   4      50.821  27.222  -4.648  1.00 20.83 LIG 0.04  A 
ATOM      6  CZ  TYR B   4      49.623  26.583  -4.385  1.00 22.15 LIG 0.07  A 
ATOM      7  CE1 TYR B   4      49.554  25.588  -3.413  1.00 19.14 LIG 0.04  A 
ATOM      8  CD1 TYR B   4      50.706  25.237  -2.707  1.00 18.71 LIG 0.01  A 
BRANCH 6 9
ATOM      9 OH   TYR B   4      48.506  26.935  -5.106  1.00 23.41 LIG-0.36  OA
ATOM     10 HH   TYR B   4      48.146  27.608  -4.755  1.00 23.41 LIG 0.22  HD
ENDBRANCH 6 9
ENDBRANCH 2 3
ENDBRANCH 1 2
BRANCH 1 11
ATOM     11  C   TYR B   4      54.790  26.192  -4.047  1.00 26.86 LIG 0.24  C 
ATOM     12 O    TYR B   4      54.793  27.343  -3.611  1.00 26.35 LIG-0.27  OA
ATOM     13  N   PHE B   5      55.189  25.879  -5.276  1.00 27.52 LIG-0.35  N 
ATOM     14 H    PHE B   5      55.207  25.076  -5.581  1.00 27.52 LIG 0.16  HD
BRANCH 13 15
ATOM     15  CA  PHE B   5      55.639  26.890  -6.229  1.00 31.98 LIG 0.18  C 
BRANCH 15 16
ATOM     16  C   PHE B   5      54.461  27.635  -6.843  1.00 33.78 LIG 0.24  C 
ATOM     17  N   ILE B   6      54.760  28.737  -7.523  1.00 31.71 LIG-0.35  N 
ATOM     18 H    ILE B   6      55.559  29.035  -7.625  1.00 31.71 LIG 0.16  HD
ATOM     19 O    PHE B   5      53.307  27.225  -6.700  1.00 29.51 LIG-0.27  OA
BRANCH 17 20
ATOM     20  CA  ILE B   6      53.731  29.542  -8.164  1.00 36.87 LIG 0.18  C 
BRANCH 20 21
ATOM     21  CB  ILE B   6      54.358  30.603  -9.091  1.00 37.14 LIG 0.01  C 
ATOM     22  CG2 ILE B   6      55.494  29.989  -9.890  1.00 36.45 LIG 0.01  C 
BRANCH 21 23
ATOM     23  CG1 ILE B   6      53.291  31.157 -10.039  1.00 37.87 LIG 0.00  C 
ATOM     24  CD1 ILE B   6      53.558  32.568 -10.513  1.00 36.09 LIG 0.01  C 
ENDBRANCH 21 23
ENDBRANCH 20 21
BRANCH 20 25
ATOM     25  C   ILE B   6      52.818  28.631  -8.985  1.00 41.32 LIG 0.24  C 
ATOM     26 O    ILE B   6      53.275  27.944  -9.901  1.00 41.04 LIG-0.27  OA
ATOM     27  N   PRO B   7      51.513  28.610  -8.659  1.00 42.91 LIG-0.34  N 
ATOM     28  CA  PRO B   7      50.539  27.776  -9.370  1.00 43.88 LIG 0.17  C 
ATOM     29  CD  PRO B   7      50.848  29.418  -7.620  1.00 40.67 LIG 0.13  C 
ATOM     30  CB  PRO B   7      49.203  28.351  -8.912  1.00 44.00 LIG 0.04  C 
ATOM     31  CG  PRO B   7      49.494  28.743  -7.499  1.00 40.06 LIG 0.02  C 
BRANCH 28 32
ATOM     32  C   PRO B   7      50.704  27.821 -10.888  1.00 46.53 LIG 0.22  C 
ATOM     33 O    PRO B   7      50.989  28.872 -11.463  1.00 48.18 LIG-0.29  OA
ENDBRANCH 28 32
ENDBRANCH 20 25
ENDBRANCH 17 20
ENDBRANCH 15 16
BRANCH 15 34
ATOM     34  CB  PHE B   5      56.483  26.269  -7.344  1.00 34.18 LIG 0.07  C 
BRANCH 34 35
ATOM     35  CG  PHE B   5      57.709  27.072  -7.687  1.00 39.37 LIG-0.06  A 
ATOM     36  CD2 PHE B   5      58.747  27.209  -6.769  1.00 41.89 LIG 0.01  A 
ATOM     37  CE2 PHE B   5      59.871  27.983  -7.071  1.00 44.83 LIG 0.00  A 
ATOM     38  CZ  PHE B   5      59.963  28.627  -8.302  1.00 42.42 LIG 0.00  A 
ATOM     39  CE1 PHE B   5      58.931  28.495  -9.227  1.00 44.61 LIG 0.00  A 
ATOM     40  CD1 PHE B   5      57.811  27.719  -8.917  1.00 43.39 LIG 0.01  A 
ENDBRANCH 34 35
ENDBRANCH 15 34
ENDBRANCH 13 15
ENDBRANCH 1 11
BRANCH 1 41
ATOM     41  N   TYR B   4      55.411  24.456  -2.442  1.00 19.41 LIG-0.35  N 
ATOM     42 H    TYR B   4      55.545  23.617  -2.576  1.00 19.41 LIG 0.16  HD
ATOM     43  C   ALA B   3      56.133  25.214  -1.629  1.00 19.00 LIG 0.24  C 
ATOM     44 O    ALA B   3      55.928  26.420  -1.491  1.00 18.56 LIG-0.27  OA
BRANCH 43 45
ATOM     45  CA  ALA B   3      57.269  24.523  -0.880  1.00 21.06 LIG 0.17  C 
ATOM     46  CB  ALA B   3      57.455  23.110  -1.399  1.00 20.02 LIG 0.04  C 
BRANCH 45 47
ATOM     47  N   ALA B   3      56.943  24.496   0.537  1.00 19.71 LIG-0.35  N 
ATOM     48 H    ALA B   3      56.723  23.722   0.839  1.00 19.71 LIG 0.16  HD
ATOM     49  C   ILE B   2      56.992  25.598   1.275  1.00 19.11 LIG 0.24  C 
ATOM     50 O    ILE B   2      57.354  26.685   0.833  1.00 19.33 LIG-0.27  OA
BRANCH 49 51
ATOM     51  CA  ILE B   2      56.596  25.444   2.735  1.00 18.55 LIG 0.18  C 
BRANCH 51 52
ATOM     52  CB  ILE B   2      55.058  25.359   2.835  1.00 21.29 LIG 0.01  C 
ATOM     53  CG2 ILE B   2      54.415  25.800   1.522  1.00 18.18 LIG 0.01  C 
BRANCH 52 54
ATOM     54  CG1 ILE B   2      54.641  23.929   3.192  1.00 26.11 LIG 0.00  C 
ATOM     55  CD1 ILE B   2      55.645  23.178   4.048  1.00 36.60 LIG 0.01  C 
ENDBRANCH 52 54
ENDBRANCH 51 52
BRANCH 51 56
ATOM     56  N   ILE B   2      57.103  26.561   3.513  1.00 18.11 LIG-0.35  N 
ATOM     57 H    ILE B   2      56.497  27.106   3.787  1.00 18.11 LIG 0.16  HD
ATOM     58  C   ALA B   1      58.397  26.707   3.765  1.00 22.52 LIG 0.25  C 
ATOM     59 O    ALA B   1      59.252  25.913   3.375  1.00 25.87 LIG-0.27  OA
BRANCH 58 60
ATOM     60  CA  ALA B   1      58.782  27.930   4.584  1.00 19.14 LIG 0.27  C 
ATOM     61  CB  ALA B   1      57.785  29.056   4.330  1.00 16.49 LIG 0.05  C 
BRANCH 60 62
ATOM     62  N   ALA B   1      60.126  28.357   4.228  1.00 20.16 LIG-0.07  N 
ATOM     63 H3   ALA B   1      60.105  28.783   3.447  1.00 20.16 LIG 0.28  HD
ATOM     64 H2   ALA B   1      60.656  27.646   4.163  1.00 20.16 LIG 0.28  HD
ATOM     65 H1   ALA B   1      60.440  28.905   4.855  1.00 20.16 LIG 0.28  HD
ENDBRANCH 60 62
ENDBRANCH 58 60
ENDBRANCH 51 56
ENDBRANCH 49 51
ENDBRANCH 45 47
ENDBRANCH 43 45
ENDBRANCH 1 41
TORSDOF 22
ENDMDL
MODEL 12
USER: ADFR SOLUTION from run 169
USER: SCORE 19.464355 LL:  -6.475 LR: -15.828 RR:   0.000 FEB:  -9.265
USER: RMSD 6.674266
USER: SEED 168
USER: STATUS no improvement in best in 3 clusters for 5 generations
USER: GENES 24
USER: genes 0 Translation |==|  0.56121 0.45039 0.43715
USER: genes 1 Rotation |==|  0.67873 0.27665 0.61923 0.89237
USER: genes 2 Torsion [C]-CA--CB-[CG] |==|  0.78465
USER: genes 3 Torsion [CA]-CB--CG-[CD2] |==|  0.74881
USER: genes 4 Torsion [CE2]-CZ--OH-[HH] |==|  0.51899
USER: genes 5 Torsion [N]-CA--C-[N] |==|  0.36832
USER: genes 6 Torsion [C]-N--CA-[CB] |==|  0.49444
USER: genes 7 Torsion [N]-CA--C-[N] |==|  0.38376
USER: genes 8 Torsion [C]-N--CA-[C] |==|  0.71846
USER: genes 9 Torsion [N]-CA--CB-[CG2] |==|  0.38736
USER: genes 10 Torsion [CA]-CB--CG1-[CD1] |==|  0.20987
USER: genes 11 Torsion [N]-CA--C-[N] |==|  0.32609
USER: genes 12 Torsion [N]-CA--C-[O] |==|  0.30829
USER: genes 13 Torsion [N]-CA--CB-[CG] |==|  0.44247
USER: genes 14 Torsion [CA]-CB--CG-[CD2] |==|  0.21339
USER: genes 15 Torsion [CB]-CA--N-[C] |==|  0.27755
USER: genes 16 Torsion [N]-C--CA-[N] |==|  0.57211
USER: genes 17 Torsion [C]-CA--N-[C] |==|  0.56161
USER: genes 18 Torsion [N]-C--CA-[N] |==|  0.39268
USER: genes 19 Torsion [C]-CA--CB-[CG2] |==|  0.85024
USER: genes 20 Torsion [CA]-CB--CG1-[CD1] |==|  0.71775
USER: genes 21 Torsion [C]-CA--N-[C] |==|  0.78547
USER: genes 22 Torsion [N]-C--CA-[N] |==|  0.22485
USER: genes 23 Torsion [C]-CA--N-[H3] |==|  0.48088
ROOT
ATOM      1  CA  TYR B   4      55.671  25.289  -4.272  1.00 23.69 LIG 0.18  C 
ENDROOT
BRANCH 1 2
ATOM      2  CB  TYR B   4      54.445  24.522  -4.763  1.00 21.78 LIG 0.07  C 
BRANCH 2 3
ATOM      3  CG  TYR B   4      53.166  25.321  -4.619  1.00 24.88 LIG-0.06  A 
ATOM      4  CD2 TYR B   4      52.405  25.235  -3.454  1.00 24.05 LIG 0.01  A 
ATOM      5  CE2 TYR B   4      51.250  25.995  -3.287  1.00 20.83 LIG 0.04  A 
ATOM      6  CZ  TYR B   4      50.843  26.852  -4.293  1.00 22.15 LIG 0.07  A 
ATOM      7  CE1 TYR B   4      51.578  26.957  -5.470  1.00 19.14 LIG 0.04  A 
ATOM      8  CD1 TYR B   4      52.735  26.192  -5.627  1.00 18.71 LIG 0.01  A 
BRANCH 6 9
ATOM      9 OH   TYR B   4      49.708  27.608  -4.107  1.00 23.41 LIG-0.36  OA
ATOM     10 HH   TYR B   4      49.520  28.011  -4.820  1.00 23.41 LIG 0.22  HD
ENDBRANCH 6 9
ENDBRANCH 2 3
ENDBRANCH 1 2
BRANCH 1 11
ATOM     11  C   TYR B   4      56.125  26.332  -5.291  1.00 26.86 LIG 0.24  C 
ATOM     12 O    TYR B   4      55.502  27.382  -5.444  1.00 26.35 LIG-0.27  OA
ATOM     13  N   PHE B   5      57.212  26.024  -5.992  1.00 27.52 LIG-0.35  N 
ATOM     14 H    PHE B   5      57.663  25.301  -5.879  1.00 27.52 LIG 0.16  HD
BRANCH 13 15
ATOM     15  CA  PHE B   5      57.741  26.901  -7.034  1.00 31.98 LIG 0.18  C 
BRANCH 15 16
ATOM     16  C   PHE B   5      56.715  27.134  -8.135  1.00 33.78 LIG 0.24  C 
ATOM     17  N   ILE B   6      56.625  28.378  -8.592  1.00 31.71 LIG-0.35  N 
ATOM     18 H    ILE B   6      57.102  29.032  -8.302  1.00 31.71 LIG 0.16  HD
ATOM     19 O    PHE B   5      56.018  26.210  -8.559  1.00 29.51 LIG-0.27  OA
BRANCH 17 20
ATOM     20  CA  ILE B   6      55.689  28.739  -9.647  1.00 36.87 LIG 0.18  C 
BRANCH 20 21
ATOM     21  CB  ILE B   6      55.004  30.085  -9.340  1.00 37.14 LIG 0.01  C 
ATOM     22  CG2 ILE B   6      54.889  30.911 -10.609  1.00 36.45 LIG 0.01  C 
BRANCH 21 23
ATOM     23  CG1 ILE B   6      53.613  29.836  -8.751  1.00 37.87 LIG 0.00  C 
ATOM     24  CD1 ILE B   6      53.625  29.382  -7.309  1.00 36.09 LIG 0.01  C 
ENDBRANCH 21 23
ENDBRANCH 20 21
BRANCH 20 25
ATOM     25  C   ILE B   6      56.443  28.846 -10.973  1.00 41.32 LIG 0.24  C 
ATOM     26 O    ILE B   6      57.336  29.682 -11.122  1.00 41.04 LIG-0.27  OA
ATOM     27  N   PRO B   7      56.094  27.992 -11.952  1.00 42.91 LIG-0.34  N 
ATOM     28  CA  PRO B   7      56.743  27.996 -13.266  1.00 43.88 LIG 0.17  C 
ATOM     29  CD  PRO B   7      55.015  26.988 -11.906  1.00 40.67 LIG 0.13  C 
ATOM     30  CB  PRO B   7      55.797  27.152 -14.114  1.00 44.00 LIG 0.04  C 
ATOM     31  CG  PRO B   7      55.307  26.139 -13.129  1.00 40.06 LIG 0.02  C 
BRANCH 28 32
ATOM     32  C   PRO B   7      56.941  29.399 -13.835  1.00 46.53 LIG 0.22  C 
ATOM     33 O    PRO B   7      58.067  29.885 -13.943  1.00 48.18 LIG-0.29  OA
ENDBRANCH 28 32
ENDBRANCH 20 25
ENDBRANCH 17 20
ENDBRANCH 15 16
BRANCH 15 34
ATOM     34  CB  PHE B   5      59.021  26.330  -7.646  1.00 34.18 LIG 0.07  C 
BRANCH 34 35
ATOM     35  CG  PHE B   5      59.338  26.890  -9.007  1.00 39.37 LIG-0.06  A 
ATOM     36  CD2 PHE B   5      59.881  28.165  -9.141  1.00 41.89 LIG 0.01  A 
ATOM     37  CE2 PHE B   5      60.142  28.702 -10.405  1.00 44.83 LIG 0.00  A 
ATOM     38  CZ  PHE B   5      59.861  27.959 -11.549  1.00 42.42 LIG 0.00  A 
ATOM     39  CE1 PHE B   5      59.319  26.683 -11.426  1.00 44.61 LIG 0.00  A 
ATOM     40  CD1 PHE B   5      59.061  26.154 -10.158  1.00 43.39 LIG 0.01  A 
ENDBRANCH 34 35
ENDBRANCH 15 34
ENDBRANCH 13 15
ENDBRANCH 1 11
BRANCH 1 41
ATOM     41  N   TYR B   4      55.391  25.923  -2.995  1.00 19.41 LIG-0.35  N 
ATOM     42 H    TYR B   4      54.950  26.660  -3.043  1.00 19.41 LIG 0.16  HD
ATOM     43  C   ALA B   3      55.807  25.366  -1.867  1.00 19.00 LIG 0.24  C 
ATOM     44 O    ALA B   3      56.409  24.293  -1.840  1.00 18.56 LIG-0.27  OA
BRANCH 43 45
ATOM     45  CA  ALA B   3      55.477  26.110  -0.576  1.00 21.06 LIG 0.17  C 
ATOM     46  CB  ALA B   3      55.492  27.608  -0.817  1.00 20.02 LIG 0.04  C 
BRANCH 45 47
ATOM     47  N   ALA B   3      56.465  25.756   0.431  1.00 19.71 LIG-0.35  N 
ATOM     48 H    ALA B   3      57.209  25.462   0.115  1.00 19.71 LIG 0.16  HD
ATOM     49  C   ILE B   2      56.206  25.888   1.725  1.00 19.11 LIG 0.24  C 
ATOM     50 O    ILE B   2      55.154  26.354   2.154  1.00 19.33 LIG-0.27  OA
BRANCH 49 51
ATOM     51  CA  ILE B   2      57.308  25.451   2.676  1.00 18.55 LIG 0.18  C 
BRANCH 51 52
ATOM     52  CB  ILE B   2      57.024  24.011   3.153  1.00 21.29 LIG 0.01  C 
ATOM     53  CG2 ILE B   2      55.618  23.915   3.742  1.00 18.18 LIG 0.01  C 
BRANCH 52 54
ATOM     54  CG1 ILE B   2      57.192  23.036   1.984  1.00 26.11 LIG 0.00  C 
ATOM     55  CD1 ILE B   2      55.888  22.578   1.356  1.00 36.60 LIG 0.01  C 
ENDBRANCH 52 54
ENDBRANCH 51 52
BRANCH 51 56
ATOM     56  N   ILE B   2      57.386  26.362   3.806  1.00 18.11 LIG-0.35  N 
ATOM     57 H    ILE B   2      57.035  26.060   4.529  1.00 18.11 LIG 0.16  HD
ATOM     58  C   ALA B   1      57.958  27.555   3.703  1.00 22.52 LIG 0.25  C 
ATOM     59 O    ALA B   1      58.467  27.969   2.663  1.00 25.87 LIG-0.27  OA
BRANCH 58 60
ATOM     60  CA  ALA B   1      57.958  28.403   4.966  1.00 19.14 LIG 0.27  C 
ATOM     61  CB  ALA B   1      58.117  29.875   4.598  1.00 16.49 LIG 0.05  C 
BRANCH 60 62
ATOM     62  N   ALA B   1      59.042  27.983   5.840  1.00 20.16 LIG-0.07  N 
ATOM     63 H3   ALA B   1      59.103  28.543   6.529  1.00 20.16 LIG 0.28  HD
ATOM     64 H2   ALA B   1      59.808  27.987   5.387  1.00 20.16 LIG 0.28  HD
ATOM     65 H1   ALA B   1      58.881  27.161   6.140  1.00 20.16 LIG 0.28  HD
ENDBRANCH 60 62
ENDBRANCH 58 60
ENDBRANCH 51 56
ENDBRANCH 49 51
ENDBRANCH 45 47
ENDBRANCH 43 45
ENDBRANCH 1 41
TORSDOF 22
ENDMDL
MODEL 13
USER: ADFR SOLUTION from run 81
USER: SCORE 19.943696 LL:  -5.813 LR: -15.809 RR:   0.000 FEB:  -9.247
USER: RMSD 6.488670
USER: SEED 80
USER: STATUS no improvement in best in 2 clusters for 5 generations
USER: GENES 24
USER: genes 0 Translation |==|  0.57852 0.48741 0.63909
USER: genes 1 Rotation |==|  0.32768 0.45819 0.03701 0.56478
USER: genes 2 Torsion [C]-CA--CB-[CG] |==|  0.47029
USER: genes 3 Torsion [CA]-CB--CG-[CD2] |==|  0.76733
USER: genes 4 Torsion [CE2]-CZ--OH-[HH] |==|  0.97282
USER: genes 5 Torsion [N]-CA--C-[N] |==|  0.38564
USER: genes 6 Torsion [C]-N--CA-[CB] |==|  0.81048
USER: genes 7 Torsion [N]-CA--C-[N] |==|  0.21055
USER: genes 8 Torsion [C]-N--CA-[C] |==|  0.62082
USER: genes 9 Torsion [N]-CA--CB-[CG2] |==|  0.57135
USER: genes 10 Torsion [CA]-CB--CG1-[CD1] |==|  0.68322
USER: genes 11 Torsion [N]-CA--C-[N] |==|  0.15244
USER: genes 12 Torsion [N]-CA--C-[O] |==|  0.41449
USER: genes 13 Torsion [N]-CA--CB-[CG] |==|  0.52997
USER: genes 14 Torsion [CA]-CB--CG-[CD2] |==|  0.57794
USER: genes 15 Torsion [CB]-CA--N-[C] |==|  0.83202
USER: genes 16 Torsion [N]-C--CA-[N] |==|  0.09213
USER: genes 17 Torsion [C]-CA--N-[C] |==|  0.76667
USER: genes 18 Torsion [N]-C--CA-[N] |==|  0.41200
USER: genes 19 Torsion [C]-CA--CB-[CG2] |==|  0.01458
USER: genes 20 Torsion [CA]-CB--CG1-[CD1] |==|  0.51310
USER: genes 21 Torsion [C]-CA--N-[C] |==|  0.57579
USER: genes 22 Torsion [N]-C--CA-[N] |==|  0.05474
USER: genes 23 Torsion [C]-CA--N-[H3] |==|  0.45988
ROOT
ATOM      1  CA  TYR B   4      56.035  25.900   1.029  1.00 23.69 LIG 0.18  C 
ENDROOT
BRANCH 1 2
ATOM      2  CB  TYR B   4      57.535  26.171   1.142  1.00 21.78 LIG 0.07  C 
BRANCH 2 3
ATOM      3  CG  TYR B   4      57.936  26.644   2.523  1.00 24.88 LIG-0.06  A 
ATOM      4  CD2 TYR B   4      57.820  27.989   2.873  1.00 24.05 LIG 0.01  A 
ATOM      5  CE2 TYR B   4      58.144  28.434   4.152  1.00 20.83 LIG 0.04  A 
ATOM      6  CZ  TYR B   4      58.590  27.531   5.099  1.00 22.15 LIG 0.07  A 
ATOM      7  CE1 TYR B   4      58.721  26.183   4.780  1.00 19.14 LIG 0.04  A 
ATOM      8  CD1 TYR B   4      58.393  25.745   3.495  1.00 18.71 LIG 0.01  A 
BRANCH 6 9
ATOM      9 OH   TYR B   4      58.890  27.983   6.363  1.00 23.41 LIG-0.36  OA
ATOM     10 HH   TYR B   4      58.885  28.823   6.369  1.00 23.41 LIG 0.22  HD
ENDBRANCH 6 9
ENDBRANCH 2 3
ENDBRANCH 1 2
BRANCH 1 11
ATOM     11  C   TYR B   4      55.613  25.681  -0.422  1.00 26.86 LIG 0.24  C 
ATOM     12 O    TYR B   4      55.767  24.589  -0.969  1.00 26.35 LIG-0.27  OA
ATOM     13  N   PHE B   5      55.089  26.735  -1.040  1.00 27.52 LIG-0.35  N 
ATOM     14 H    PHE B   5      54.961  27.495  -0.659  1.00 27.52 LIG 0.16  HD
BRANCH 13 15
ATOM     15  CA  PHE B   5      54.679  26.692  -2.441  1.00 31.98 LIG 0.18  C 
BRANCH 15 16
ATOM     16  C   PHE B   5      53.712  25.545  -2.700  1.00 33.78 LIG 0.24  C 
ATOM     17  N   ILE B   6      52.466  25.728  -2.278  1.00 31.71 LIG-0.35  N 
ATOM     18 H    ILE B   6      52.194  26.438  -1.878  1.00 31.71 LIG 0.16  HD
ATOM     19 O    PHE B   5      54.085  24.515  -3.267  1.00 29.51 LIG-0.27  OA
BRANCH 17 20
ATOM     20  CA  ILE B   6      51.439  24.714  -2.465  1.00 36.87 LIG 0.18  C 
BRANCH 20 21
ATOM     21  CB  ILE B   6      51.170  23.951  -1.153  1.00 37.14 LIG 0.01  C 
ATOM     22  CG2 ILE B   6      50.629  22.565  -1.458  1.00 36.45 LIG 0.01  C 
BRANCH 21 23
ATOM     23  CG1 ILE B   6      52.466  23.839  -0.344  1.00 37.87 LIG 0.00  C 
ATOM     24  CD1 ILE B   6      52.981  22.426  -0.194  1.00 36.09 LIG 0.01  C 
ENDBRANCH 21 23
ENDBRANCH 20 21
BRANCH 20 25
ATOM     25  C   ILE B   6      50.147  25.386  -2.932  1.00 41.32 LIG 0.24  C 
ATOM     26 O    ILE B   6      49.094  25.221  -2.312  1.00 41.04 LIG-0.27  OA
ATOM     27  N   PRO B   7      50.216  26.159  -4.030  1.00 42.91 LIG-0.34  N 
ATOM     28  CA  PRO B   7      49.048  26.858  -4.574  1.00 43.88 LIG 0.17  C 
ATOM     29  CD  PRO B   7      51.402  26.391  -4.875  1.00 40.67 LIG 0.13  C 
ATOM     30  CB  PRO B   7      49.519  27.274  -5.963  1.00 44.00 LIG 0.04  C 
ATOM     31  CG  PRO B   7      50.967  27.564  -5.734  1.00 40.06 LIG 0.02  C 
BRANCH 28 32
ATOM     32  C   PRO B   7      47.794  25.986  -4.620  1.00 46.53 LIG 0.22  C 
ATOM     33 O    PRO B   7      46.674  26.482  -4.496  1.00 48.18 LIG-0.29  OA
ENDBRANCH 28 32
ENDBRANCH 20 25
ENDBRANCH 17 20
ENDBRANCH 15 16
BRANCH 15 34
ATOM     34  CB  PHE B   5      55.886  26.558  -3.371  1.00 34.18 LIG 0.07  C 
BRANCH 34 35
ATOM     35  CG  PHE B   5      55.551  26.766  -4.824  1.00 39.37 LIG-0.06  A 
ATOM     36  CD2 PHE B   5      56.301  26.149  -5.821  1.00 41.89 LIG 0.01  A 
ATOM     37  CE2 PHE B   5      56.014  26.368  -7.172  1.00 44.83 LIG 0.00  A 
ATOM     38  CZ  PHE B   5      54.968  27.212  -7.533  1.00 42.42 LIG 0.00  A 
ATOM     39  CE1 PHE B   5      54.210  27.833  -6.544  1.00 44.61 LIG 0.00  A 
ATOM     40  CD1 PHE B   5      54.504  27.608  -5.197  1.00 43.39 LIG 0.01  A 
ENDBRANCH 34 35
ENDBRANCH 15 34
ENDBRANCH 13 15
ENDBRANCH 1 11
BRANCH 1 41
ATOM     41  N   TYR B   4      55.668  24.751   1.838  1.00 19.41 LIG-0.35  N 
ATOM     42 H    TYR B   4      55.096  24.912   2.461  1.00 19.41 LIG 0.16  HD
ATOM     43  C   ALA B   3      56.203  23.564   1.595  1.00 19.00 LIG 0.24  C 
ATOM     44 O    ALA B   3      56.995  23.370   0.673  1.00 18.56 LIG-0.27  OA
BRANCH 43 45
ATOM     45  CA  ALA B   3      55.767  22.419   2.505  1.00 21.06 LIG 0.17  C 
ATOM     46  CB  ALA B   3      55.907  21.093   1.782  1.00 20.02 LIG 0.04  C 
BRANCH 45 47
ATOM     47  N   ALA B   3      54.382  22.634   2.892  1.00 19.71 LIG-0.35  N 
ATOM     48 H    ALA B   3      53.806  22.214   2.411  1.00 19.71 LIG 0.16  HD
ATOM     49  C   ILE B   2      54.067  23.421   3.913  1.00 19.11 LIG 0.24  C 
ATOM     50 O    ILE B   2      54.907  23.974   4.617  1.00 19.33 LIG-0.27  OA
BRANCH 49 51
ATOM     51  CA  ILE B   2      52.583  23.589   4.195  1.00 18.55 LIG 0.18  C 
BRANCH 51 52
ATOM     52  CB  ILE B   2      52.047  24.790   3.387  1.00 21.29 LIG 0.01  C 
ATOM     53  CG2 ILE B   2      53.138  25.341   2.470  1.00 18.18 LIG 0.01  C 
BRANCH 52 54
ATOM     54  CG1 ILE B   2      50.820  24.364   2.577  1.00 26.11 LIG 0.00  C 
ATOM     55  CD1 ILE B   2      50.273  25.437   1.654  1.00 36.60 LIG 0.01  C 
ENDBRANCH 52 54
ENDBRANCH 51 52
BRANCH 51 56
ATOM     56  N   ILE B   2      52.362  23.785   5.618  1.00 18.11 LIG-0.35  N 
ATOM     57 H    ILE B   2      53.025  24.140   6.033  1.00 18.11 LIG 0.16  HD
ATOM     58  C   ALA B   1      51.223  23.437   6.202  1.00 22.52 LIG 0.25  C 
ATOM     59 O    ALA B   1      50.278  22.940   5.592  1.00 25.87 LIG-0.27  OA
BRANCH 58 60
ATOM     60  CA  ALA B   1      51.139  23.694   7.700  1.00 19.14 LIG 0.27  C 
ATOM     61  CB  ALA B   1      49.741  24.188   8.060  1.00 16.49 LIG 0.05  C 
BRANCH 60 62
ATOM     62  N   ALA B   1      52.136  24.680   8.087  1.00 20.16 LIG-0.07  N 
ATOM     63 H3   ALA B   1      51.953  24.983   8.903  1.00 20.16 LIG 0.28  HD
ATOM     64 H2   ALA B   1      52.123  25.357   7.510  1.00 20.16 LIG 0.28  HD
ATOM     65 H1   ALA B   1      52.943  24.304   8.084  1.00 20.16 LIG 0.28  HD
ENDBRANCH 60 62
ENDBRANCH 58 60
ENDBRANCH 51 56
ENDBRANCH 49 51
ENDBRANCH 45 47
ENDBRANCH 43 45
ENDBRANCH 1 41
TORSDOF 22
ENDMDL
MODEL 14
USER: ADFR SOLUTION from run 178
USER: SCORE 19.233128 LL:  -5.982 LR: -15.782 RR:   0.000 FEB:  -9.220
USER: RMSD 6.178266
USER: SEED 177
USER: STATUS no improvement in best in 12 clusters for 5 generations
USER: GENES 24
USER: genes 0 Translation |==|  0.55476 0.55058 0.66154
USER: genes 1 Rotation |==|  0.14413 0.26889 0.23605 0.51668
USER: genes 2 Torsion [C]-CA--CB-[CG] |==|  0.93541
USER: genes 3 Torsion [CA]-CB--CG-[CD2] |==|  0.80882
USER: genes 4 Torsion [CE2]-CZ--OH-[HH] |==|  0.20173
USER: genes 5 Torsion [N]-CA--C-[N] |==|  0.48991
USER: genes 6 Torsion [C]-N--CA-[CB] |==|  0.23132
USER: genes 7 Torsion [N]-CA--C-[N] |==|  0.84054
USER: genes 8 Torsion [C]-N--CA-[C] |==|  0.64829
USER: genes 9 Torsion [N]-CA--CB-[CG2] |==|  0.34896
USER: genes 10 Torsion [CA]-CB--CG1-[CD1] |==|  0.12936
USER: genes 11 Torsion [N]-CA--C-[N] |==|  0.36302
USER: genes 12 Torsion [N]-CA--C-[O] |==|  0.86271
USER: genes 13 Torsion [N]-CA--CB-[CG] |==|  0.50635
USER: genes 14 Torsion [CA]-CB--CG-[CD2] |==|  0.22213
USER: genes 15 Torsion [CB]-CA--N-[C] |==|  0.13651
USER: genes 16 Torsion [N]-C--CA-[N] |==|  0.35924
USER: genes 17 Torsion [C]-CA--N-[C] |==|  0.58474
USER: genes 18 Torsion [N]-C--CA-[N] |==|  0.37899
USER: genes 19 Torsion [C]-CA--CB-[CG2] |==|  0.71875
USER: genes 20 Torsion [CA]-CB--CG1-[CD1] |==|  0.34835
USER: genes 21 Torsion [C]-CA--N-[C] |==|  0.62234
USER: genes 22 Torsion [N]-C--CA-[N] |==|  0.76033
USER: genes 23 Torsion [C]-CA--N-[H3] |==|  0.45978
ROOT
ATOM      1  CA  TYR B   4      55.536  26.943   1.618  1.00 23.69 LIG 0.18  C 
ENDROOT
BRANCH 1 2
ATOM      2  CB  TYR B   4      56.430  26.741   0.396  1.00 21.78 LIG 0.07  C 
BRANCH 2 3
ATOM      3  CG  TYR B   4      56.493  25.294  -0.044  1.00 24.88 LIG-0.06  A 
ATOM      4  CD2 TYR B   4      57.136  24.340   0.745  1.00 24.05 LIG 0.01  A 
ATOM      5  CE2 TYR B   4      57.166  22.998   0.377  1.00 20.83 LIG 0.04  A 
ATOM      6  CZ  TYR B   4      56.549  22.595  -0.793  1.00 22.15 LIG 0.07  A 
ATOM      7  CE1 TYR B   4      55.903  23.522  -1.605  1.00 19.14 LIG 0.04  A 
ATOM      8  CD1 TYR B   4      55.878  24.866  -1.227  1.00 18.71 LIG 0.01  A 
BRANCH 6 9
ATOM      9 OH   TYR B   4      56.573  21.262  -1.135  1.00 23.41 LIG-0.36  OA
ATOM     10 HH   TYR B   4      56.055  20.834  -0.631  1.00 23.41 LIG 0.22  HD
ENDBRANCH 6 9
ENDBRANCH 2 3
ENDBRANCH 1 2
BRANCH 1 11
ATOM     11  C   TYR B   4      54.509  25.820   1.752  1.00 26.86 LIG 0.24  C 
ATOM     12 O    TYR B   4      54.495  25.089   2.743  1.00 26.35 LIG-0.27  OA
ATOM     13  N   PHE B   5      53.659  25.686   0.739  1.00 27.52 LIG-0.35  N 
ATOM     14 H    PHE B   5      53.651  26.204   0.053  1.00 27.52 LIG 0.16  HD
BRANCH 13 15
ATOM     15  CA  PHE B   5      52.650  24.631   0.704  1.00 31.98 LIG 0.18  C 
BRANCH 15 16
ATOM     16  C   PHE B   5      52.255  24.291  -0.727  1.00 33.78 LIG 0.24  C 
ATOM     17  N   ILE B   6      51.789  25.297  -1.458  1.00 31.71 LIG-0.35  N 
ATOM     18 H    ILE B   6      51.702  26.102  -1.167  1.00 31.71 LIG 0.16  HD
ATOM     19 O    PHE B   5      52.366  23.141  -1.159  1.00 29.51 LIG-0.27  OA
BRANCH 17 20
ATOM     20  CA  ILE B   6      51.379  25.112  -2.842  1.00 36.87 LIG 0.18  C 
BRANCH 20 21
ATOM     21  CB  ILE B   6      49.858  25.304  -2.998  1.00 37.14 LIG 0.01  C 
ATOM     22  CG2 ILE B   6      49.572  26.347  -4.065  1.00 36.45 LIG 0.01  C 
BRANCH 21 23
ATOM     23  CG1 ILE B   6      49.204  23.973  -3.379  1.00 37.87 LIG 0.00  C 
ATOM     24  CD1 ILE B   6      49.663  22.798  -2.546  1.00 36.09 LIG 0.01  C 
ENDBRANCH 21 23
ENDBRANCH 20 21
BRANCH 20 25
ATOM     25  C   ILE B   6      52.110  26.126  -3.723  1.00 41.32 LIG 0.24  C 
ATOM     26 O    ILE B   6      52.136  27.320  -3.416  1.00 41.04 LIG-0.27  OA
ATOM     27  N   PRO B   7      52.719  25.659  -4.827  1.00 42.91 LIG-0.34  N 
ATOM     28  CA  PRO B   7      53.452  26.532  -5.749  1.00 43.88 LIG 0.17  C 
ATOM     29  CD  PRO B   7      52.715  24.268  -5.318  1.00 40.67 LIG 0.13  C 
ATOM     30  CB  PRO B   7      53.629  25.650  -6.981  1.00 44.00 LIG 0.04  C 
ATOM     31  CG  PRO B   7      53.800  24.293  -6.378  1.00 40.06 LIG 0.02  C 
BRANCH 28 32
ATOM     32  C   PRO B   7      52.712  27.831  -6.063  1.00 46.53 LIG 0.22  C 
ATOM     33 O    PRO B   7      51.530  27.818  -6.407  1.00 48.18 LIG-0.29  OA
ENDBRANCH 28 32
ENDBRANCH 20 25
ENDBRANCH 17 20
ENDBRANCH 15 16
BRANCH 15 34
ATOM     34  CB  PHE B   5      51.401  25.027   1.494  1.00 34.18 LIG 0.07  C 
BRANCH 34 35
ATOM     35  CG  PHE B   5      50.351  23.950   1.535  1.00 39.37 LIG-0.06  A 
ATOM     36  CD2 PHE B   5      50.461  22.882   2.422  1.00 41.89 LIG 0.01  A 
ATOM     37  CE2 PHE B   5      49.506  21.863   2.437  1.00 44.83 LIG 0.00  A 
ATOM     38  CZ  PHE B   5      48.426  21.907   1.560  1.00 42.42 LIG 0.00  A 
ATOM     39  CE1 PHE B   5      48.304  22.971   0.670  1.00 44.61 LIG 0.00  A 
ATOM     40  CD1 PHE B   5      49.265  23.986   0.661  1.00 43.39 LIG 0.01  A 
ENDBRANCH 34 35
ENDBRANCH 15 34
ENDBRANCH 13 15
ENDBRANCH 1 11
BRANCH 1 41
ATOM     41  N   TYR B   4      56.342  27.033   2.823  1.00 19.41 LIG-0.35  N 
ATOM     42 H    TYR B   4      56.085  26.531   3.472  1.00 19.41 LIG 0.16  HD
ATOM     43  C   ALA B   3      57.389  27.844   2.868  1.00 19.00 LIG 0.24  C 
ATOM     44 O    ALA B   3      57.743  28.523   1.903  1.00 18.56 LIG-0.27  OA
BRANCH 43 45
ATOM     45  CA  ALA B   3      58.168  27.882   4.179  1.00 21.06 LIG 0.17  C 
ATOM     46  CB  ALA B   3      57.954  29.211   4.878  1.00 20.02 LIG 0.04  C 
BRANCH 45 47
ATOM     47  N   ALA B   3      59.580  27.692   3.887  1.00 19.71 LIG-0.35  N 
ATOM     48 H    ALA B   3      59.830  27.991   3.120  1.00 19.71 LIG 0.16  HD
ATOM     49  C   ILE B   2      60.389  27.102   4.756  1.00 19.11 LIG 0.24  C 
ATOM     50 O    ILE B   2      60.021  26.724   5.865  1.00 19.33 LIG-0.27  OA
BRANCH 49 51
ATOM     51  CA  ILE B   2      61.835  26.934   4.318  1.00 18.55 LIG 0.18  C 
BRANCH 51 52
ATOM     52  CB  ILE B   2      62.060  25.476   3.863  1.00 21.29 LIG 0.01  C 
ATOM     53  CG2 ILE B   2      62.761  24.680   4.962  1.00 18.18 LIG 0.01  C 
BRANCH 52 54
ATOM     54  CG1 ILE B   2      60.718  24.835   3.498  1.00 26.11 LIG 0.00  C 
ATOM     55  CD1 ILE B   2      60.666  24.240   2.103  1.00 36.60 LIG 0.01  C 
ENDBRANCH 52 54
ENDBRANCH 51 52
BRANCH 51 56
ATOM     56  N   ILE B   2      62.733  27.279   5.407  1.00 18.11 LIG-0.35  N 
ATOM     57 H    ILE B   2      62.501  26.961   6.171  1.00 18.11 LIG 0.16  HD
ATOM     58  C   ALA B   1      63.814  28.023   5.213  1.00 22.52 LIG 0.25  C 
ATOM     59 O    ALA B   1      64.140  28.461   4.112  1.00 25.87 LIG-0.27  OA
BRANCH 58 60
ATOM     60  CA  ALA B   1      64.655  28.309   6.448  1.00 19.14 LIG 0.27  C 
ATOM     61  CB  ALA B   1      64.633  27.101   7.380  1.00 16.49 LIG 0.05  C 
BRANCH 60 62
ATOM     62  N   ALA B   1      64.136  29.483   7.135  1.00 20.16 LIG-0.07  N 
ATOM     63 H3   ALA B   1      64.485  29.528   7.952  1.00 20.16 LIG 0.28  HD
ATOM     64 H2   ALA B   1      63.250  29.425   7.193  1.00 20.16 LIG 0.28  HD
ATOM     65 H1   ALA B   1      64.355  30.215   6.679  1.00 20.16 LIG 0.28  HD
ENDBRANCH 60 62
ENDBRANCH 58 60
ENDBRANCH 51 56
ENDBRANCH 49 51
ENDBRANCH 45 47
ENDBRANCH 43 45
ENDBRANCH 1 41
TORSDOF 22
ENDMDL
MODEL 15
USER: ADFR SOLUTION from run 118
USER: SCORE 19.807060 LL:  -5.802 LR: -15.725 RR:   0.000 FEB:  -9.162
USER: RMSD 5.470774
USER: SEED 117
USER: STATUS 1 or 2 clusters left
USER: GENES 24
USER: genes 0 Translation |==|  0.52385 0.42740 0.48633
USER: genes 1 Rotation |==|  0.53990 0.39195 0.28387 0.93592
USER: genes 2 Torsion [C]-CA--CB-[CG] |==|  0.31848
USER: genes 3 Torsion [CA]-CB--CG-[CD2] |==|  0.28229
USER: genes 4 Torsion [CE2]-CZ--OH-[HH] |==|  0.19212
USER: genes 5 Torsion [N]-CA--C-[N] |==|  0.84784
USER: genes 6 Torsion [C]-N--CA-[CB] |==|  0.80510
USER: genes 7 Torsion [N]-CA--C-[N] |==|  0.25591
USER: genes 8 Torsion [C]-N--CA-[C] |==|  0.63858
USER: genes 9 Torsion [N]-CA--CB-[CG2] |==|  0.53766
USER: genes 10 Torsion [CA]-CB--CG1-[CD1] |==|  0.57805
USER: genes 11 Torsion [N]-CA--C-[N] |==|  0.14891
USER: genes 12 Torsion [N]-CA--C-[O] |==|  0.67052
USER: genes 13 Torsion [N]-CA--CB-[CG] |==|  0.60226
USER: genes 14 Torsion [CA]-CB--CG-[CD2] |==|  0.16404
USER: genes 15 Torsion [CB]-CA--N-[C] |==|  0.20152
USER: genes 16 Torsion [N]-C--CA-[N] |==|  0.39444
USER: genes 17 Torsion [C]-CA--N-[C] |==|  0.76850
USER: genes 18 Torsion [N]-C--CA-[N] |==|  0.41803
USER: genes 19 Torsion [C]-CA--CB-[CG2] |==|  0.96060
USER: genes 20 Torsion [CA]-CB--CG1-[CD1] |==|  0.61633
USER: genes 21 Torsion [C]-CA--N-[C] |==|  0.79842
USER: genes 22 Torsion [N]-C--CA-[N] |==|  0.18818
USER: genes 23 Torsion [C]-CA--N-[H3] |==|  0.31380
ROOT
ATOM      1  CA  TYR B   4      54.887  24.910  -2.981  1.00 23.69 LIG 0.18  C 
ENDROOT
BRANCH 1 2
ATOM      2  CB  TYR B   4      53.979  25.923  -2.285  1.00 21.78 LIG 0.07  C 
BRANCH 2 3
ATOM      3  CG  TYR B   4      52.630  25.339  -1.921  1.00 24.88 LIG-0.06  A 
ATOM      4  CD2 TYR B   4      52.359  24.943  -0.613  1.00 24.05 LIG 0.01  A 
ATOM      5  CE2 TYR B   4      51.110  24.444  -0.252  1.00 20.83 LIG 0.04  A 
ATOM      6  CZ  TYR B   4      50.115  24.336  -1.206  1.00 22.15 LIG 0.07  A 
ATOM      7  CE1 TYR B   4      50.355  24.718  -2.522  1.00 19.14 LIG 0.04  A 
ATOM      8  CD1 TYR B   4      51.611  25.218  -2.874  1.00 18.71 LIG 0.01  A 
BRANCH 6 9
ATOM      9 OH   TYR B   4      48.880  23.856  -0.831  1.00 23.41 LIG-0.36  OA
ATOM     10 HH   TYR B   4      48.500  24.419  -0.337  1.00 23.41 LIG 0.22  HD
ENDBRANCH 6 9
ENDBRANCH 2 3
ENDBRANCH 1 2
BRANCH 1 11
ATOM     11  C   TYR B   4      55.177  25.317  -4.424  1.00 26.86 LIG 0.24  C 
ATOM     12 O    TYR B   4      54.740  24.659  -5.368  1.00 26.35 LIG-0.27  OA
ATOM     13  N   PHE B   5      55.929  26.402  -4.581  1.00 27.52 LIG-0.35  N 
ATOM     14 H    PHE B   5      56.222  26.877  -3.928  1.00 27.52 LIG 0.16  HD
BRANCH 13 15
ATOM     15  CA  PHE B   5      56.327  26.889  -5.900  1.00 31.98 LIG 0.18  C 
BRANCH 15 16
ATOM     16  C   PHE B   5      55.123  27.050  -6.818  1.00 33.78 LIG 0.24  C 
ATOM     17  N   ILE B   6      54.555  28.250  -6.827  1.00 31.71 LIG-0.35  N 
ATOM     18 H    ILE B   6      54.827  28.914  -6.352  1.00 31.71 LIG 0.16  HD
ATOM     19 O    PHE B   5      54.715  26.107  -7.500  1.00 29.51 LIG-0.27  OA
BRANCH 17 20
ATOM     20  CA  ILE B   6      53.399  28.543  -7.662  1.00 36.87 LIG 0.18  C 
BRANCH 20 21
ATOM     21  CB  ILE B   6      52.129  28.717  -6.806  1.00 37.14 LIG 0.01  C 
ATOM     22  CG2 ILE B   6      50.896  28.687  -7.692  1.00 36.45 LIG 0.01  C 
BRANCH 21 23
ATOM     23  CG1 ILE B   6      52.050  27.599  -5.762  1.00 37.87 LIG 0.00  C 
ATOM     24  CD1 ILE B   6      50.643  27.246  -5.340  1.00 36.09 LIG 0.01  C 
ENDBRANCH 21 23
ENDBRANCH 20 21
BRANCH 20 25
ATOM     25  C   ILE B   6      53.659  29.828  -8.448  1.00 41.32 LIG 0.24  C 
ATOM     26 O    ILE B   6      52.860  30.765  -8.402  1.00 41.04 LIG-0.27  OA
ATOM     27  N   PRO B   7      54.788  29.888  -9.176  1.00 42.91 LIG-0.34  N 
ATOM     28  CA  PRO B   7      55.149  31.066  -9.971  1.00 43.88 LIG 0.17  C 
ATOM     29  CD  PRO B   7      55.790  28.819  -9.345  1.00 40.67 LIG 0.13  C 
ATOM     30  CB  PRO B   7      56.263  30.540 -10.870  1.00 44.00 LIG 0.04  C 
ATOM     31  CG  PRO B   7      56.953  29.558  -9.979  1.00 40.06 LIG 0.02  C 
BRANCH 28 32
ATOM     32  C   PRO B   7      53.977  31.637 -10.766  1.00 46.53 LIG 0.22  C 
ATOM     33 O    PRO B   7      54.011  31.686 -11.996  1.00 48.18 LIG-0.29  OA
ENDBRANCH 28 32
ENDBRANCH 20 25
ENDBRANCH 17 20
ENDBRANCH 15 16
BRANCH 15 34
ATOM     34  CB  PHE B   5      57.344  25.953  -6.555  1.00 34.18 LIG 0.07  C 
BRANCH 34 35
ATOM     35  CG  PHE B   5      58.396  26.674  -7.353  1.00 39.37 LIG-0.06  A 
ATOM     36  CD2 PHE B   5      59.228  27.613  -6.748  1.00 41.89 LIG 0.01  A 
ATOM     37  CE2 PHE B   5      60.182  28.311  -7.493  1.00 44.83 LIG 0.00  A 
ATOM     38  CZ  PHE B   5      60.311  28.070  -8.859  1.00 42.42 LIG 0.00  A 
ATOM     39  CE1 PHE B   5      59.486  27.133  -9.474  1.00 44.61 LIG 0.00  A 
ATOM     40  CD1 PHE B   5      58.535  26.440  -8.721  1.00 43.39 LIG 0.01  A 
ENDBRANCH 34 35
ENDBRANCH 15 34
ENDBRANCH 13 15
ENDBRANCH 1 11
BRANCH 1 41
ATOM     41  N   TYR B   4      56.128  24.755  -2.243  1.00 19.41 LIG-0.35  N 
ATOM     42 H    TYR B   4      56.819  25.108  -2.614  1.00 19.41 LIG 0.16  HD
ATOM     43  C   ALA B   3      56.142  24.108  -1.086  1.00 19.00 LIG 0.24  C 
ATOM     44 O    ALA B   3      55.123  23.645  -0.574  1.00 18.56 LIG-0.27  OA
BRANCH 43 45
ATOM     45  CA  ALA B   3      57.494  23.984  -0.389  1.00 21.06 LIG 0.17  C 
ATOM     46  CB  ALA B   3      58.120  22.637  -0.697  1.00 20.02 LIG 0.04  C 
BRANCH 45 47
ATOM     47  N   ALA B   3      57.293  24.127   1.044  1.00 19.71 LIG-0.35  N 
ATOM     48 H    ALA B   3      57.231  23.384   1.472  1.00 19.71 LIG 0.16  HD
ATOM     49  C   ILE B   2      57.218  25.323   1.612  1.00 19.11 LIG 0.24  C 
ATOM     50 O    ILE B   2      57.357  26.371   0.989  1.00 19.33 LIG-0.27  OA
BRANCH 49 51
ATOM     51  CA  ILE B   2      56.973  25.337   3.113  1.00 18.55 LIG 0.18  C 
BRANCH 51 52
ATOM     52  CB  ILE B   2      55.453  25.302   3.378  1.00 21.29 LIG 0.01  C 
ATOM     53  CG2 ILE B   2      54.684  25.617   2.096  1.00 18.18 LIG 0.01  C 
BRANCH 52 54
ATOM     54  CG1 ILE B   2      55.055  23.930   3.929  1.00 26.11 LIG 0.00  C 
ATOM     55  CD1 ILE B   2      53.768  23.371   3.350  1.00 36.60 LIG 0.01  C 
ENDBRANCH 52 54
ENDBRANCH 51 52
BRANCH 51 56
ATOM     56  N   ILE B   2      57.574  26.519   3.708  1.00 18.11 LIG-0.35  N 
ATOM     57 H    ILE B   2      57.009  27.116   3.957  1.00 18.11 LIG 0.16  HD
ATOM     58  C   ALA B   1      58.888  26.642   3.844  1.00 22.52 LIG 0.25  C 
ATOM     59 O    ALA B   1      59.685  25.773   3.493  1.00 25.87 LIG-0.27  OA
BRANCH 58 60
ATOM     60  CA  ALA B   1      59.373  27.937   4.477  1.00 19.14 LIG 0.27  C 
ATOM     61  CB  ALA B   1      60.892  28.030   4.363  1.00 16.49 LIG 0.05  C 
BRANCH 60 62
ATOM     62  N   ALA B   1      58.970  27.983   5.874  1.00 20.16 LIG-0.07  N 
ATOM     63 H3   ALA B   1      59.692  27.939   6.393  1.00 20.16 LIG 0.28  HD
ATOM     64 H2   ALA B   1      58.435  27.294   6.052  1.00 20.16 LIG 0.28  HD
ATOM     65 H1   ALA B   1      58.537  28.744   6.034  1.00 20.16 LIG 0.28  HD
ENDBRANCH 60 62
ENDBRANCH 58 60
ENDBRANCH 51 56
ENDBRANCH 49 51
ENDBRANCH 45 47
ENDBRANCH 43 45
ENDBRANCH 1 41
TORSDOF 22
ENDMDL
MODEL 16
USER: ADFR SOLUTION from run 104
USER: SCORE 18.970563 LL:  -6.102 LR: -15.714 RR:   0.000 FEB:  -9.152
USER: RMSD 5.751799
USER: SEED 103
USER: STATUS no improvement in best in 7 clusters for 5 generations
USER: GENES 24
USER: genes 0 Translation |==|  0.52055 0.43682 0.59309
USER: genes 1 Rotation |==|  0.19988 0.39857 0.11500 0.53754
USER: genes 2 Torsion [C]-CA--CB-[CG] |==|  0.12561
USER: genes 3 Torsion [CA]-CB--CG-[CD2] |==|  0.66610
USER: genes 4 Torsion [CE2]-CZ--OH-[HH] |==|  0.63143
USER: genes 5 Torsion [N]-CA--C-[N] |==|  0.36784
USER: genes 6 Torsion [C]-N--CA-[CB] |==|  0.24598
USER: genes 7 Torsion [N]-CA--C-[N] |==|  0.27105
USER: genes 8 Torsion [C]-N--CA-[C] |==|  0.83054
USER: genes 9 Torsion [N]-CA--CB-[CG2] |==|  0.29415
USER: genes 10 Torsion [CA]-CB--CG1-[CD1] |==|  0.91904
USER: genes 11 Torsion [N]-CA--C-[N] |==|  0.88752
USER: genes 12 Torsion [N]-CA--C-[O] |==|  0.32296
USER: genes 13 Torsion [N]-CA--CB-[CG] |==|  0.97086
USER: genes 14 Torsion [CA]-CB--CG-[CD2] |==|  0.22277
USER: genes 15 Torsion [CB]-CA--N-[C] |==|  0.30000
USER: genes 16 Torsion [N]-C--CA-[N] |==|  0.30859
USER: genes 17 Torsion [C]-CA--N-[C] |==|  0.79300
USER: genes 18 Torsion [N]-C--CA-[N] |==|  0.92762
USER: genes 19 Torsion [C]-CA--CB-[CG2] |==|  0.45608
USER: genes 20 Torsion [CA]-CB--CG1-[CD1] |==|  0.65549
USER: genes 21 Torsion [C]-CA--N-[C] |==|  0.81579
USER: genes 22 Torsion [N]-C--CA-[N] |==|  0.13517
USER: genes 23 Torsion [C]-CA--N-[H3] |==|  0.80395
ROOT
ATOM      1  CA  TYR B   4      54.818  25.065  -0.178  1.00 23.69 LIG 0.18  C 
ENDROOT
BRANCH 1 2
ATOM      2  CB  TYR B   4      56.135  25.184  -0.943  1.00 21.78 LIG 0.07  C 
BRANCH 2 3
ATOM      3  CG  TYR B   4      55.945  25.723  -2.345  1.00 24.88 LIG-0.06  A 
ATOM      4  CD2 TYR B   4      56.332  24.969  -3.452  1.00 24.05 LIG 0.01  A 
ATOM      5  CE2 TYR B   4      56.125  25.430  -4.749  1.00 20.83 LIG 0.04  A 
ATOM      6  CZ  TYR B   4      55.526  26.660  -4.952  1.00 22.15 LIG 0.07  A 
ATOM      7  CE1 TYR B   4      55.132  27.438  -3.867  1.00 19.14 LIG 0.04  A 
ATOM      8  CD1 TYR B   4      55.343  26.967  -2.570  1.00 18.71 LIG 0.01  A 
BRANCH 6 9
ATOM      9 OH   TYR B   4      55.313  27.095  -6.240  1.00 23.41 LIG-0.36  OA
ATOM     10 HH   TYR B   4      55.573  27.890  -6.313  1.00 23.41 LIG 0.22  HD
ENDBRANCH 6 9
ENDBRANCH 2 3
ENDBRANCH 1 2
BRANCH 1 11
ATOM     11  C   TYR B   4      53.725  24.435  -1.039  1.00 26.86 LIG 0.24  C 
ATOM     12 O    TYR B   4      53.725  23.227  -1.278  1.00 26.35 LIG-0.27  OA
ATOM     13  N   PHE B   5      52.803  25.269  -1.510  1.00 27.52 LIG-0.35  N 
ATOM     14 H    PHE B   5      52.786  26.110  -1.333  1.00 27.52 LIG 0.16  HD
BRANCH 13 15
ATOM     15  CA  PHE B   5      51.722  24.821  -2.384  1.00 31.98 LIG 0.18  C 
BRANCH 15 16
ATOM     16  C   PHE B   5      51.299  25.919  -3.349  1.00 33.78 LIG 0.24  C 
ATOM     17  N   ILE B   6      51.824  25.858  -4.568  1.00 31.71 LIG-0.35  N 
ATOM     18 H    ILE B   6      52.374  25.248  -4.823  1.00 31.71 LIG 0.16  HD
ATOM     19 O    PHE B   5      50.516  26.806  -2.998  1.00 29.51 LIG-0.27  OA
BRANCH 17 20
ATOM     20  CA  ILE B   6      51.501  26.842  -5.590  1.00 36.87 LIG 0.18  C 
BRANCH 20 21
ATOM     21  CB  ILE B   6      52.275  26.559  -6.893  1.00 37.14 LIG 0.01  C 
ATOM     22  CG2 ILE B   6      51.338  25.980  -7.939  1.00 36.45 LIG 0.01  C 
BRANCH 21 23
ATOM     23  CG1 ILE B   6      52.904  27.854  -7.414  1.00 37.87 LIG 0.00  C 
ATOM     24  CD1 ILE B   6      52.138  29.105  -7.047  1.00 36.09 LIG 0.01  C 
ENDBRANCH 21 23
ENDBRANCH 20 21
BRANCH 20 25
ATOM     25  C   ILE B   6      50.000  26.798  -5.874  1.00 41.32 LIG 0.24  C 
ATOM     26 O    ILE B   6      49.364  27.838  -6.056  1.00 41.04 LIG-0.27  OA
ATOM     27  N   PRO B   7      49.416  25.587  -5.923  1.00 42.91 LIG-0.34  N 
ATOM     28  CA  PRO B   7      47.985  25.415  -6.189  1.00 43.88 LIG 0.17  C 
ATOM     29  CD  PRO B   7      50.061  24.284  -5.676  1.00 40.67 LIG 0.13  C 
ATOM     30  CB  PRO B   7      47.738  23.964  -5.786  1.00 44.00 LIG 0.04  C 
ATOM     31  CG  PRO B   7      49.020  23.303  -6.181  1.00 40.06 LIG 0.02  C 
BRANCH 28 32
ATOM     32  C   PRO B   7      47.107  26.393  -5.411  1.00 46.53 LIG 0.22  C 
ATOM     33 O    PRO B   7      46.420  27.230  -5.997  1.00 48.18 LIG-0.29  OA
ENDBRANCH 28 32
ENDBRANCH 20 25
ENDBRANCH 17 20
ENDBRANCH 15 16
BRANCH 15 34
ATOM     34  CB  PHE B   5      50.507  24.359  -1.576  1.00 34.18 LIG 0.07  C 
BRANCH 34 35
ATOM     35  CG  PHE B   5      50.780  24.231  -0.102  1.00 39.37 LIG-0.06  A 
ATOM     36  CD2 PHE B   5      50.779  25.355   0.721  1.00 41.89 LIG 0.01  A 
ATOM     37  CE2 PHE B   5      51.067  25.244   2.084  1.00 44.83 LIG 0.00  A 
ATOM     38  CZ  PHE B   5      51.359  23.999   2.635  1.00 42.42 LIG 0.00  A 
ATOM     39  CE1 PHE B   5      51.362  22.869   1.822  1.00 44.61 LIG 0.00  A 
ATOM     40  CD1 PHE B   5      51.073  22.989   0.460  1.00 43.39 LIG 0.01  A 
ENDBRANCH 34 35
ENDBRANCH 15 34
ENDBRANCH 13 15
ENDBRANCH 1 11
BRANCH 1 41
ATOM     41  N   TYR B   4      55.008  24.294   1.037  1.00 19.41 LIG-0.35  N 
ATOM     42 H    TYR B   4      55.130  23.451   0.918  1.00 19.41 LIG 0.16  HD
ATOM     43  C   ALA B   3      54.986  24.892   2.220  1.00 19.00 LIG 0.24  C 
ATOM     44 O    ALA B   3      54.840  26.108   2.344  1.00 18.56 LIG-0.27  OA
BRANCH 43 45
ATOM     45  CA  ALA B   3      55.182  23.999   3.441  1.00 21.06 LIG 0.17  C 
ATOM     46  CB  ALA B   3      54.071  24.234   4.446  1.00 20.02 LIG 0.04  C 
BRANCH 45 47
ATOM     47  N   ALA B   3      56.472  24.305   4.040  1.00 19.71 LIG-0.35  N 
ATOM     48 H    ALA B   3      56.429  24.759   4.769  1.00 19.71 LIG 0.16  HD
ATOM     49  C   ILE B   2      57.604  23.902   3.479  1.00 19.11 LIG 0.24  C 
ATOM     50 O    ILE B   2      57.641  23.215   2.463  1.00 19.33 LIG-0.27  OA
BRANCH 49 51
ATOM     51  CA  ILE B   2      58.885  24.315   4.186  1.00 18.55 LIG 0.18  C 
BRANCH 51 52
ATOM     52  CB  ILE B   2      59.348  23.167   5.107  1.00 21.29 LIG 0.01  C 
ATOM     53  CG2 ILE B   2      60.803  23.375   5.524  1.00 18.18 LIG 0.01  C 
BRANCH 52 54
ATOM     54  CG1 ILE B   2      58.437  23.089   6.335  1.00 26.11 LIG 0.00  C 
ATOM     55  CD1 ILE B   2      59.164  23.186   7.664  1.00 36.60 LIG 0.01  C 
ENDBRANCH 52 54
ENDBRANCH 51 52
BRANCH 51 56
ATOM     56  N   ILE B   2      58.667  25.533   4.948  1.00 18.11 LIG-0.35  N 
ATOM     57 H    ILE B   2      58.725  25.433   5.800  1.00 18.11 LIG 0.16  HD
ATOM     58  C   ALA B   1      58.401  26.690   4.356  1.00 22.52 LIG 0.25  C 
ATOM     59 O    ALA B   1      58.332  26.820   3.135  1.00 25.87 LIG-0.27  OA
BRANCH 58 60
ATOM     60  CA  ALA B   1      58.187  27.878   5.283  1.00 19.14 LIG 0.27  C 
ATOM     61  CB  ALA B   1      58.141  29.166   4.467  1.00 16.49 LIG 0.05  C 
BRANCH 60 62
ATOM     62  N   ALA B   1      59.263  27.939   6.260  1.00 20.16 LIG-0.07  N 
ATOM     63 H3   ALA B   1      59.179  27.266   6.837  1.00 20.16 LIG 0.28  HD
ATOM     64 H2   ALA B   1      59.222  28.712   6.699  1.00 20.16 LIG 0.28  HD
ATOM     65 H1   ALA B   1      60.047  27.876   5.844  1.00 20.16 LIG 0.28  HD
ENDBRANCH 60 62
ENDBRANCH 58 60
ENDBRANCH 51 56
ENDBRANCH 49 51
ENDBRANCH 45 47
ENDBRANCH 43 45
ENDBRANCH 1 41
TORSDOF 22
ENDMDL
MODEL 17
USER: ADFR SOLUTION from run 196
USER: SCORE 19.653770 LL:  -6.640 LR: -15.700 RR:   0.000 FEB:  -9.138
USER: RMSD 4.671498
USER: SEED 195
USER: STATUS no improvement in best in 1 clusters for 5 generations
USER: GENES 24
USER: genes 0 Translation |==|  0.52804 0.42246 0.62167
USER: genes 1 Rotation |==|  0.56269 0.36610 0.28409 0.92606
USER: genes 2 Torsion [C]-CA--CB-[CG] |==|  0.28374
USER: genes 3 Torsion [CA]-CB--CG-[CD2] |==|  0.92595
USER: genes 4 Torsion [CE2]-CZ--OH-[HH] |==|  0.72938
USER: genes 5 Torsion [N]-CA--C-[N] |==|  0.54984
USER: genes 6 Torsion [C]-N--CA-[CB] |==|  0.15563
USER: genes 7 Torsion [N]-CA--C-[N] |==|  0.52841
USER: genes 8 Torsion [C]-N--CA-[C] |==|  0.75906
USER: genes 9 Torsion [N]-CA--CB-[CG2] |==|  0.13615
USER: genes 10 Torsion [CA]-CB--CG1-[CD1] |==|  0.35785
USER: genes 11 Torsion [N]-CA--C-[N] |==|  0.28620
USER: genes 12 Torsion [N]-CA--C-[O] |==|  0.75543
USER: genes 13 Torsion [N]-CA--CB-[CG] |==|  0.22069
USER: genes 14 Torsion [CA]-CB--CG-[CD2] |==|  0.35328
USER: genes 15 Torsion [CB]-CA--N-[C] |==|  0.17618
USER: genes 16 Torsion [N]-C--CA-[N] |==|  0.23252
USER: genes 17 Torsion [C]-CA--N-[C] |==|  0.66150
USER: genes 18 Torsion [N]-C--CA-[N] |==|  0.47002
USER: genes 19 Torsion [C]-CA--CB-[CG2] |==|  0.51681
USER: genes 20 Torsion [CA]-CB--CG1-[CD1] |==|  0.28256
USER: genes 21 Torsion [C]-CA--N-[C] |==|  0.81005
USER: genes 22 Torsion [N]-C--CA-[N] |==|  0.27007
USER: genes 23 Torsion [C]-CA--N-[H3] |==|  0.57652
ROOT
ATOM      1  CA  TYR B   4      54.975  24.829   0.572  1.00 23.69 LIG 0.18  C 
ENDROOT
BRANCH 1 2
ATOM      2  CB  TYR B   4      53.982  25.822   1.174  1.00 21.78 LIG 0.07  C 
BRANCH 2 3
ATOM      3  CG  TYR B   4      52.547  25.355   1.050  1.00 24.88 LIG-0.06  A 
ATOM      4  CD2 TYR B   4      52.169  24.493   0.021  1.00 24.05 LIG 0.01  A 
ATOM      5  CE2 TYR B   4      50.864  24.020  -0.083  1.00 20.83 LIG 0.04  A 
ATOM      6  CZ  TYR B   4      49.918  24.408   0.848  1.00 22.15 LIG 0.07  A 
ATOM      7  CE1 TYR B   4      50.263  25.271   1.884  1.00 19.14 LIG 0.04  A 
ATOM      8  CD1 TYR B   4      51.574  25.740   1.980  1.00 18.71 LIG 0.01  A 
BRANCH 6 9
ATOM      9 OH   TYR B   4      48.637  23.919   0.741  1.00 23.41 LIG-0.36  OA
ATOM     10 HH   TYR B   4      48.153  24.483   0.349  1.00 23.41 LIG 0.22  HD
ENDBRANCH 6 9
ENDBRANCH 2 3
ENDBRANCH 1 2
BRANCH 1 11
ATOM     11  C   TYR B   4      55.462  25.287  -0.801  1.00 26.86 LIG 0.24  C 
ATOM     12 O    TYR B   4      56.638  25.145  -1.135  1.00 26.35 LIG-0.27  OA
ATOM     13  N   PHE B   5      54.547  25.846  -1.586  1.00 27.52 LIG-0.35  N 
ATOM     14 H    PHE B   5      53.719  25.932  -1.366  1.00 27.52 LIG 0.16  HD
BRANCH 13 15
ATOM     15  CA  PHE B   5      54.871  26.373  -2.908  1.00 31.98 LIG 0.18  C 
BRANCH 15 16
ATOM     16  C   PHE B   5      53.634  26.921  -3.606  1.00 33.78 LIG 0.24  C 
ATOM     17  N   ILE B   6      53.777  27.230  -4.890  1.00 31.71 LIG-0.35  N 
ATOM     18 H    ILE B   6      54.513  27.138  -5.326  1.00 31.71 LIG 0.16  HD
ATOM     19 O    PHE B   5      52.572  27.065  -2.994  1.00 29.51 LIG-0.27  OA
BRANCH 17 20
ATOM     20  CA  ILE B   6      52.673  27.758  -5.677  1.00 36.87 LIG 0.18  C 
BRANCH 20 21
ATOM     21  CB  ILE B   6      53.191  28.635  -6.834  1.00 37.14 LIG 0.01  C 
ATOM     22  CG2 ILE B   6      54.287  27.904  -7.590  1.00 36.45 LIG 0.01  C 
BRANCH 21 23
ATOM     23  CG1 ILE B   6      52.038  28.974  -7.783  1.00 37.87 LIG 0.00  C 
ATOM     24  CD1 ILE B   6      51.902  30.448  -8.090  1.00 36.09 LIG 0.01  C 
ENDBRANCH 21 23
ENDBRANCH 20 21
BRANCH 20 25
ATOM     25  C   ILE B   6      51.861  26.596  -6.248  1.00 41.32 LIG 0.24  C 
ATOM     26 O    ILE B   6      52.277  25.955  -7.215  1.00 41.04 LIG-0.27  OA
ATOM     27  N   PRO B   7      50.692  26.307  -5.649  1.00 42.91 LIG-0.34  N 
ATOM     28  CA  PRO B   7      49.825  25.215  -6.103  1.00 43.88 LIG 0.17  C 
ATOM     29  CD  PRO B   7      50.073  27.029  -4.522  1.00 40.67 LIG 0.13  C 
ATOM     30  CB  PRO B   7      48.509  25.509  -5.390  1.00 44.00 LIG 0.04  C 
ATOM     31  CG  PRO B   7      48.974  26.078  -4.088  1.00 40.06 LIG 0.02  C 
BRANCH 28 32
ATOM     32  C   PRO B   7      49.667  25.165  -7.622  1.00 46.53 LIG 0.22  C 
ATOM     33 O    PRO B   7      48.784  25.811  -8.187  1.00 48.18 LIG-0.29  OA
ENDBRANCH 28 32
ENDBRANCH 20 25
ENDBRANCH 17 20
ENDBRANCH 15 16
BRANCH 15 34
ATOM     34  CB  PHE B   5      55.520  25.305  -3.790  1.00 34.18 LIG 0.07  C 
BRANCH 34 35
ATOM     35  CG  PHE B   5      54.531  24.346  -4.397  1.00 39.37 LIG-0.06  A 
ATOM     36  CD2 PHE B   5      54.517  24.115  -5.770  1.00 41.89 LIG 0.01  A 
ATOM     37  CE2 PHE B   5      53.576  23.252  -6.341  1.00 44.83 LIG 0.00  A 
ATOM     38  CZ  PHE B   5      52.640  22.611  -5.534  1.00 42.42 LIG 0.00  A 
ATOM     39  CE1 PHE B   5      52.646  22.834  -4.160  1.00 44.61 LIG 0.00  A 
ATOM     40  CD1 PHE B   5      53.590  23.698  -3.598  1.00 43.39 LIG 0.01  A 
ENDBRANCH 34 35
ENDBRANCH 15 34
ENDBRANCH 13 15
ENDBRANCH 1 11
BRANCH 1 41
ATOM     41  N   TYR B   4      56.102  24.637   1.467  1.00 19.41 LIG-0.35  N 
ATOM     42 H    TYR B   4      56.862  24.889   1.155  1.00 19.41 LIG 0.16  HD
ATOM     43  C   ALA B   3      55.920  24.107   2.669  1.00 19.00 LIG 0.24  C 
ATOM     44 O    ALA B   3      54.808  23.788   3.090  1.00 18.56 LIG-0.27  OA
BRANCH 43 45
ATOM     45  CA  ALA B   3      57.164  23.933   3.534  1.00 21.06 LIG 0.17  C 
ATOM     46  CB  ALA B   3      56.943  22.829   4.552  1.00 20.02 LIG 0.04  C 
BRANCH 45 47
ATOM     47  N   ALA B   3      57.440  25.189   4.211  1.00 19.71 LIG-0.35  N 
ATOM     48 H    ALA B   3      56.798  25.479   4.705  1.00 19.71 LIG 0.16  HD
ATOM     49  C   ILE B   2      58.600  25.813   4.057  1.00 19.11 LIG 0.24  C 
ATOM     50 O    ILE B   2      59.521  25.359   3.384  1.00 19.33 LIG-0.27  OA
BRANCH 49 51
ATOM     51  CA  ILE B   2      58.753  27.136   4.792  1.00 18.55 LIG 0.18  C 
BRANCH 51 52
ATOM     52  CB  ILE B   2      57.820  28.183   4.147  1.00 21.29 LIG 0.01  C 
ATOM     53  CG2 ILE B   2      58.060  29.559   4.765  1.00 18.18 LIG 0.01  C 
BRANCH 52 54
ATOM     54  CG1 ILE B   2      58.051  28.219   2.634  1.00 26.11 LIG 0.00  C 
ATOM     55  CD1 ILE B   2      56.999  27.484   1.821  1.00 36.60 LIG 0.01  C 
ENDBRANCH 52 54
ENDBRANCH 51 52
BRANCH 51 56
ATOM     56  N   ILE B   2      60.136  27.578   4.746  1.00 18.11 LIG-0.35  N 
ATOM     57 H    ILE B   2      60.267  28.281   4.268  1.00 18.11 LIG 0.16  HD
ATOM     58  C   ALA B   1      61.097  26.936   5.396  1.00 22.52 LIG 0.25  C 
ATOM     59 O    ALA B   1      60.892  25.938   6.085  1.00 25.87 LIG-0.27  OA
BRANCH 58 60
ATOM     60  CA  ALA B   1      62.498  27.510   5.249  1.00 19.14 LIG 0.27  C 
ATOM     61  CB  ALA B   1      63.513  26.375   5.149  1.00 16.49 LIG 0.05  C 
BRANCH 60 62
ATOM     62  N   ALA B   1      62.804  28.358   6.391  1.00 20.16 LIG-0.07  N 
ATOM     63 H3   ALA B   1      63.393  28.980   6.150  1.00 20.16 LIG 0.28  HD
ATOM     64 H2   ALA B   1      63.148  27.862   7.046  1.00 20.16 LIG 0.28  HD
ATOM     65 H1   ALA B   1      62.059  28.751   6.677  1.00 20.16 LIG 0.28  HD
ENDBRANCH 60 62
ENDBRANCH 58 60
ENDBRANCH 51 56
ENDBRANCH 49 51
ENDBRANCH 45 47
ENDBRANCH 43 45
ENDBRANCH 1 41
TORSDOF 22
ENDMDL
MODEL 18
USER: ADFR SOLUTION from run 126
USER: SCORE 18.701840 LL:  -5.004 LR: -15.667 RR:   0.000 FEB:  -9.104
USER: RMSD 6.454789
USER: SEED 125
USER: STATUS searching
USER: GENES 24
USER: genes 0 Translation |==|  0.53677 0.50022 0.61811
USER: genes 1 Rotation |==|  0.55859 0.45607 0.97843 0.62547
USER: genes 2 Torsion [C]-CA--CB-[CG] |==|  0.33952
USER: genes 3 Torsion [CA]-CB--CG-[CD2] |==|  0.92998
USER: genes 4 Torsion [CE2]-CZ--OH-[HH] |==|  0.77712
USER: genes 5 Torsion [N]-CA--C-[N] |==|  0.08333
USER: genes 6 Torsion [C]-N--CA-[CB] |==|  0.16958
USER: genes 7 Torsion [N]-CA--C-[N] |==|  0.47421
USER: genes 8 Torsion [C]-N--CA-[C] |==|  0.77823
USER: genes 9 Torsion [N]-CA--CB-[CG2] |==|  0.58511
USER: genes 10 Torsion [CA]-CB--CG1-[CD1] |==|  0.43529
USER: genes 11 Torsion [N]-CA--C-[N] |==|  0.33011
USER: genes 12 Torsion [N]-CA--C-[O] |==|  0.84538
USER: genes 13 Torsion [N]-CA--CB-[CG] |==|  0.63680
USER: genes 14 Torsion [CA]-CB--CG-[CD2] |==|  0.93392
USER: genes 15 Torsion [CB]-CA--N-[C] |==|  0.13335
USER: genes 16 Torsion [N]-C--CA-[N] |==|  0.38630
USER: genes 17 Torsion [C]-CA--N-[C] |==|  0.54134
USER: genes 18 Torsion [N]-C--CA-[N] |==|  0.21553
USER: genes 19 Torsion [C]-CA--CB-[CG2] |==|  0.43968
USER: genes 20 Torsion [CA]-CB--CG1-[CD1] |==|  0.74806
USER: genes 21 Torsion [C]-CA--N-[C] |==|  0.77714
USER: genes 22 Torsion [N]-C--CA-[N] |==|  0.55297
USER: genes 23 Torsion [C]-CA--N-[H3] |==|  0.03200
ROOT
ATOM      1  CA  TYR B   4      55.158  26.112   0.478  1.00 23.69 LIG 0.18  C 
ENDROOT
BRANCH 1 2
ATOM      2  CB  TYR B   4      56.158  25.209   1.199  1.00 21.78 LIG 0.07  C 
BRANCH 2 3
ATOM      3  CG  TYR B   4      56.923  25.940   2.282  1.00 24.88 LIG-0.06  A 
ATOM      4  CD2 TYR B   4      57.100  27.321   2.215  1.00 24.05 LIG 0.01  A 
ATOM      5  CE2 TYR B   4      57.764  28.015   3.223  1.00 20.83 LIG 0.04  A 
ATOM      6  CZ  TYR B   4      58.262  27.328   4.314  1.00 22.15 LIG 0.07  A 
ATOM      7  CE1 TYR B   4      58.106  25.948   4.409  1.00 19.14 LIG 0.04  A 
ATOM      8  CD1 TYR B   4      57.438  25.261   3.393  1.00 18.71 LIG 0.01  A 
BRANCH 6 9
ATOM      9 OH   TYR B   4      58.901  28.029   5.311  1.00 23.41 LIG-0.36  OA
ATOM     10 HH   TYR B   4      59.691  28.192   5.076  1.00 23.41 LIG 0.22  HD
ENDBRANCH 6 9
ENDBRANCH 2 3
ENDBRANCH 1 2
BRANCH 1 11
ATOM     11  C   TYR B   4      55.428  26.159  -1.024  1.00 26.86 LIG 0.24  C 
ATOM     12 O    TYR B   4      56.561  25.979  -1.470  1.00 26.35 LIG-0.27  OA
ATOM     13  N   PHE B   5      54.376  26.415  -1.796  1.00 27.52 LIG-0.35  N 
ATOM     14 H    PHE B   5      53.579  26.523  -1.493  1.00 27.52 LIG 0.16  HD
BRANCH 13 15
ATOM     15  CA  PHE B   5      54.486  26.535  -3.247  1.00 31.98 LIG 0.18  C 
BRANCH 15 16
ATOM     16  C   PHE B   5      53.151  26.912  -3.874  1.00 33.78 LIG 0.24  C 
ATOM     17  N   ILE B   6      53.182  27.233  -5.162  1.00 31.71 LIG-0.35  N 
ATOM     18 H    ILE B   6      53.898  27.239  -5.638  1.00 31.71 LIG 0.16  HD
ATOM     19 O    PHE B   5      52.114  26.915  -3.205  1.00 29.51 LIG-0.27  OA
BRANCH 17 20
ATOM     20  CA  ILE B   6      51.977  27.608  -5.887  1.00 36.87 LIG 0.18  C 
BRANCH 20 21
ATOM     21  CB  ILE B   6      52.324  28.400  -7.163  1.00 37.14 LIG 0.01  C 
ATOM     22  CG2 ILE B   6      51.213  29.385  -7.482  1.00 36.45 LIG 0.01  C 
BRANCH 21 23
ATOM     23  CG1 ILE B   6      53.646  29.147  -6.966  1.00 37.87 LIG 0.00  C 
ATOM     24  CD1 ILE B   6      54.362  29.487  -8.253  1.00 36.09 LIG 0.01  C 
ENDBRANCH 21 23
ENDBRANCH 20 21
BRANCH 20 25
ATOM     25  C   ILE B   6      51.206  26.345  -6.269  1.00 41.32 LIG 0.24  C 
ATOM     26 O    ILE B   6      51.719  25.493  -6.998  1.00 41.04 LIG-0.27  OA
ATOM     27  N   PRO B   7      49.963  26.206  -5.775  1.00 42.91 LIG-0.34  N 
ATOM     28  CA  PRO B   7      49.126  25.039  -6.068  1.00 43.88 LIG 0.17  C 
ATOM     29  CD  PRO B   7      49.232  27.175  -4.937  1.00 40.67 LIG 0.13  C 
ATOM     30  CB  PRO B   7      47.741  25.494  -5.618  1.00 44.00 LIG 0.04  C 
ATOM     31  CG  PRO B   7      48.058  26.353  -4.437  1.00 40.06 LIG 0.02  C 
BRANCH 28 32
ATOM     32  C   PRO B   7      49.157  24.632  -7.540  1.00 46.53 LIG 0.22  C 
ATOM     33 O    PRO B   7      48.867  25.437  -8.425  1.00 48.18 LIG-0.29  OA
ENDBRANCH 28 32
ENDBRANCH 20 25
ENDBRANCH 17 20
ENDBRANCH 15 16
BRANCH 15 34
ATOM     34  CB  PHE B   5      54.995  25.238  -3.877  1.00 34.18 LIG 0.07  C 
BRANCH 34 35
ATOM     35  CG  PHE B   5      56.134  25.444  -4.839  1.00 39.37 LIG-0.06  A 
ATOM     36  CD2 PHE B   5      56.320  26.673  -5.467  1.00 41.89 LIG 0.01  A 
ATOM     37  CE2 PHE B   5      57.356  26.857  -6.387  1.00 44.83 LIG 0.00  A 
ATOM     38  CZ  PHE B   5      58.218  25.805  -6.684  1.00 42.42 LIG 0.00  A 
ATOM     39  CE1 PHE B   5      58.042  24.572  -6.061  1.00 44.61 LIG 0.00  A 
ATOM     40  CD1 PHE B   5      57.004  24.398  -5.143  1.00 43.39 LIG 0.01  A 
ENDBRANCH 34 35
ENDBRANCH 15 34
ENDBRANCH 13 15
ENDBRANCH 1 11
BRANCH 1 41
ATOM     41  N   TYR B   4      53.800  25.663   0.731  1.00 19.41 LIG-0.35  N 
ATOM     42 H    TYR B   4      53.303  25.595   0.032  1.00 19.41 LIG 0.16  HD
ATOM     43  C   ALA B   3      53.405  25.389   1.966  1.00 19.00 LIG 0.24  C 
ATOM     44 O    ALA B   3      54.159  25.468   2.936  1.00 18.56 LIG-0.27  OA
BRANCH 43 45
ATOM     45  CA  ALA B   3      51.958  24.936   2.135  1.00 21.06 LIG 0.17  C 
ATOM     46  CB  ALA B   3      51.099  26.093   2.610  1.00 20.02 LIG 0.04  C 
BRANCH 45 47
ATOM     47  N   ALA B   3      51.919  23.854   3.105  1.00 19.71 LIG-0.35  N 
ATOM     48 H    ALA B   3      52.635  23.767   3.574  1.00 19.71 LIG 0.16  HD
ATOM     49  C   ILE B   2      50.849  23.080   3.231  1.00 19.11 LIG 0.24  C 
ATOM     50 O    ILE B   2      49.820  23.250   2.584  1.00 19.33 LIG-0.27  OA
BRANCH 49 51
ATOM     51  CA  ILE B   2      50.947  21.963   4.258  1.00 18.55 LIG 0.18  C 
BRANCH 51 52
ATOM     52  CB  ILE B   2      49.877  20.896   3.948  1.00 21.29 LIG 0.01  C 
ATOM     53  CG2 ILE B   2      50.265  19.558   4.574  1.00 18.18 LIG 0.01  C 
BRANCH 52 54
ATOM     54  CG1 ILE B   2      48.514  21.365   4.466  1.00 26.11 LIG 0.00  C 
ATOM     55  CD1 ILE B   2      48.202  20.935   5.888  1.00 36.60 LIG 0.01  C 
ENDBRANCH 52 54
ENDBRANCH 51 52
BRANCH 51 56
ATOM     56  N   ILE B   2      50.772  22.497   5.598  1.00 18.11 LIG-0.35  N 
ATOM     57 H    ILE B   2      49.983  22.388   5.921  1.00 18.11 LIG 0.16  HD
ATOM     58  C   ALA B   1      51.761  23.096   6.247  1.00 22.52 LIG 0.25  C 
ATOM     59 O    ALA B   1      52.889  23.234   5.775  1.00 25.87 LIG-0.27  OA
BRANCH 58 60
ATOM     60  CA  ALA B   1      51.429  23.612   7.639  1.00 19.14 LIG 0.27  C 
ATOM     61  CB  ALA B   1      50.029  24.218   7.643  1.00 16.49 LIG 0.05  C 
BRANCH 60 62
ATOM     62  N   ALA B   1      52.410  24.608   8.041  1.00 20.16 LIG-0.07  N 
ATOM     63 H3   ALA B   1      52.905  24.838   7.338  1.00 20.16 LIG 0.28  HD
ATOM     64 H2   ALA B   1      52.934  24.269   8.675  1.00 20.16 LIG 0.28  HD
ATOM     65 H1   ALA B   1      51.991  25.328   8.356  1.00 20.16 LIG 0.28  HD
ENDBRANCH 60 62
ENDBRANCH 58 60
ENDBRANCH 51 56
ENDBRANCH 49 51
ENDBRANCH 45 47
ENDBRANCH 43 45
ENDBRANCH 1 41
TORSDOF 22
ENDMDL
MODEL 19
USER: ADFR SOLUTION from run 135
USER: SCORE 19.493451 LL:  -6.264 LR: -15.637 RR:   0.000 FEB:  -9.075
USER: RMSD 6.401480
USER: SEED 134
USER: STATUS no improvement in best in 7 clusters for 5 generations
USER: GENES 24
USER: genes 0 Translation |==|  0.55911 0.54649 0.65946
USER: genes 1 Rotation |==|  0.84071 0.73990 0.77514 0.52568
USER: genes 2 Torsion [C]-CA--CB-[CG] |==|  0.91703
USER: genes 3 Torsion [CA]-CB--CG-[CD2] |==|  0.81152
USER: genes 4 Torsion [CE2]-CZ--OH-[HH] |==|  0.80772
USER: genes 5 Torsion [N]-CA--C-[N] |==|  0.48227
USER: genes 6 Torsion [C]-N--CA-[CB] |==|  0.21209
USER: genes 7 Torsion [N]-CA--C-[N] |==|  0.81788
USER: genes 8 Torsion [C]-N--CA-[C] |==|  0.82852
USER: genes 9 Torsion [N]-CA--CB-[CG2] |==|  0.36456
USER: genes 10 Torsion [CA]-CB--CG1-[CD1] |==|  0.99417
USER: genes 11 Torsion [N]-CA--C-[N] |==|  0.86832
USER: genes 12 Torsion [N]-CA--C-[O] |==|  0.32720
USER: genes 13 Torsion [N]-CA--CB-[CG] |==|  0.69180
USER: genes 14 Torsion [CA]-CB--CG-[CD2] |==|  0.24870
USER: genes 15 Torsion [CB]-CA--N-[C] |==|  0.14592
USER: genes 16 Torsion [N]-C--CA-[N] |==|  0.27018
USER: genes 17 Torsion [C]-CA--N-[C] |==|  0.82158
USER: genes 18 Torsion [N]-C--CA-[N] |==|  0.06904
USER: genes 19 Torsion [C]-CA--CB-[CG2] |==|  0.45745
USER: genes 20 Torsion [CA]-CB--CG1-[CD1] |==|  0.45951
USER: genes 21 Torsion [C]-CA--N-[C] |==|  0.70079
USER: genes 22 Torsion [N]-C--CA-[N] |==|  0.82207
USER: genes 23 Torsion [C]-CA--N-[H3] |==|  0.11947
ROOT
ATOM      1  CA  TYR B   4      55.627  26.875   1.564  1.00 23.69 LIG 0.18  C 
ENDROOT
BRANCH 1 2
ATOM      2  CB  TYR B   4      56.674  26.504   0.515  1.00 21.78 LIG 0.07  C 
BRANCH 2 3
ATOM      3  CG  TYR B   4      56.844  25.006   0.370  1.00 24.88 LIG-0.06  A 
ATOM      4  CD2 TYR B   4      57.399  24.253   1.404  1.00 24.05 LIG 0.01  A 
ATOM      5  CE2 TYR B   4      57.523  22.870   1.306  1.00 20.83 LIG 0.04  A 
ATOM      6  CZ  TYR B   4      57.091  22.223   0.163  1.00 22.15 LIG 0.07  A 
ATOM      7  CE1 TYR B   4      56.537  22.947  -0.889  1.00 19.14 LIG 0.04  A 
ATOM      8  CD1 TYR B   4      56.416  24.334  -0.781  1.00 18.71 LIG 0.01  A 
BRANCH 6 9
ATOM      9 OH   TYR B   4      57.206  20.854   0.086  1.00 23.41 LIG-0.36  OA
ATOM     10 HH   TYR B   4      58.017  20.643   0.032  1.00 23.41 LIG 0.22  HD
ENDBRANCH 6 9
ENDBRANCH 2 3
ENDBRANCH 1 2
BRANCH 1 11
ATOM     11  C   TYR B   4      54.542  25.807   1.674  1.00 26.86 LIG 0.24  C 
ATOM     12 O    TYR B   4      54.388  25.164   2.712  1.00 26.35 LIG-0.27  OA
ATOM     13  N   PHE B   5      53.799  25.619   0.587  1.00 27.52 LIG-0.35  N 
ATOM     14 H    PHE B   5      53.888  26.077  -0.135  1.00 27.52 LIG 0.16  HD
BRANCH 13 15
ATOM     15  CA  PHE B   5      52.752  24.603   0.526  1.00 31.98 LIG 0.18  C 
BRANCH 15 16
ATOM     16  C   PHE B   5      52.378  24.279  -0.914  1.00 33.78 LIG 0.24  C 
ATOM     17  N   ILE B   6      51.811  25.263  -1.604  1.00 31.71 LIG-0.35  N 
ATOM     18 H    ILE B   6      51.650  26.044  -1.282  1.00 31.71 LIG 0.16  HD
ATOM     19 O    PHE B   5      52.595  23.163  -1.391  1.00 29.51 LIG-0.27  OA
BRANCH 17 20
ATOM     20  CA  ILE B   6      51.408  25.091  -2.992  1.00 36.87 LIG 0.18  C 
BRANCH 20 21
ATOM     21  CB  ILE B   6      50.727  26.364  -3.531  1.00 37.14 LIG 0.01  C 
ATOM     22  CG2 ILE B   6      51.331  26.749  -4.870  1.00 36.45 LIG 0.01  C 
BRANCH 21 23
ATOM     23  CG1 ILE B   6      49.223  26.121  -3.686  1.00 37.87 LIG 0.00  C 
ATOM     24  CD1 ILE B   6      48.784  24.719  -3.333  1.00 36.09 LIG 0.01  C 
ENDBRANCH 21 23
ENDBRANCH 20 21
BRANCH 20 25
ATOM     25  C   ILE B   6      52.642  24.780  -3.839  1.00 41.32 LIG 0.24  C 
ATOM     26 O    ILE B   6      52.629  23.854  -4.652  1.00 41.04 LIG-0.27  OA
ATOM     27  N   PRO B   7      53.724  25.559  -3.661  1.00 42.91 LIG-0.34  N 
ATOM     28  CA  PRO B   7      54.966  25.363  -4.415  1.00 43.88 LIG 0.17  C 
ATOM     29  CD  PRO B   7      53.872  26.660  -2.690  1.00 40.67 LIG 0.13  C 
ATOM     30  CB  PRO B   7      55.973  26.201  -3.633  1.00 44.00 LIG 0.04  C 
ATOM     31  CG  PRO B   7      55.136  27.349  -3.169  1.00 40.06 LIG 0.02  C 
BRANCH 28 32
ATOM     32  C   PRO B   7      55.382  23.896  -4.516  1.00 46.53 LIG 0.22  C 
ATOM     33 O    PRO B   7      55.459  23.334  -5.609  1.00 48.18 LIG-0.29  OA
ENDBRANCH 28 32
ENDBRANCH 20 25
ENDBRANCH 17 20
ENDBRANCH 15 16
BRANCH 15 34
ATOM     34  CB  PHE B   5      51.501  25.044   1.288  1.00 34.18 LIG 0.07  C 
BRANCH 34 35
ATOM     35  CG  PHE B   5      51.251  24.251   2.542  1.00 39.37 LIG-0.06  A 
ATOM     36  CD2 PHE B   5      51.799  24.653   3.758  1.00 41.89 LIG 0.01  A 
ATOM     37  CE2 PHE B   5      51.598  23.899   4.918  1.00 44.83 LIG 0.00  A 
ATOM     38  CZ  PHE B   5      50.842  22.731   4.866  1.00 42.42 LIG 0.00  A 
ATOM     39  CE1 PHE B   5      50.289  22.320   3.657  1.00 44.61 LIG 0.00  A 
ATOM     40  CD1 PHE B   5      50.495  23.081   2.502  1.00 43.39 LIG 0.01  A 
ENDBRANCH 34 35
ENDBRANCH 15 34
ENDBRANCH 13 15
ENDBRANCH 1 11
BRANCH 1 41
ATOM     41  N   TYR B   4      56.260  27.084   2.855  1.00 19.41 LIG-0.35  N 
ATOM     42 H    TYR B   4      55.919  26.635   3.504  1.00 19.41 LIG 0.16  HD
ATOM     43  C   ALA B   3      57.285  27.916   2.970  1.00 19.00 LIG 0.24  C 
ATOM     44 O    ALA B   3      57.763  28.516   2.007  1.00 18.56 LIG-0.27  OA
BRANCH 43 45
ATOM     45  CA  ALA B   3      57.876  28.081   4.367  1.00 21.06 LIG 0.17  C 
ATOM     46  CB  ALA B   3      58.277  29.526   4.599  1.00 20.02 LIG 0.04  C 
BRANCH 45 47
ATOM     47  N   ALA B   3      59.037  27.214   4.486  1.00 19.71 LIG-0.35  N 
ATOM     48 H    ALA B   3      59.783  27.628   4.599  1.00 19.71 LIG 0.16  HD
ATOM     49  C   ILE B   2      58.920  25.895   4.422  1.00 19.11 LIG 0.24  C 
ATOM     50 O    ILE B   2      57.840  25.322   4.308  1.00 19.33 LIG-0.27  OA
BRANCH 49 51
ATOM     51  CA  ILE B   2      60.214  25.102   4.527  1.00 18.55 LIG 0.18  C 
BRANCH 51 52
ATOM     52  CB  ILE B   2      59.932  23.768   5.250  1.00 21.29 LIG 0.01  C 
ATOM     53  CG2 ILE B   2      61.092  22.797   5.042  1.00 18.18 LIG 0.01  C 
BRANCH 52 54
ATOM     54  CG1 ILE B   2      59.699  24.027   6.741  1.00 26.11 LIG 0.00  C 
ATOM     55  CD1 ILE B   2      59.076  22.862   7.490  1.00 36.60 LIG 0.01  C 
ENDBRANCH 52 54
ENDBRANCH 51 52
BRANCH 51 56
ATOM     56  N   ILE B   2      61.218  25.873   5.240  1.00 18.11 LIG-0.35  N 
ATOM     57 H    ILE B   2      61.075  25.946   6.084  1.00 18.11 LIG 0.16  HD
ATOM     58  C   ALA B   1      62.259  26.409   4.617  1.00 22.52 LIG 0.25  C 
ATOM     59 O    ALA B   1      62.457  26.287   3.409  1.00 25.87 LIG-0.27  OA
BRANCH 58 60
ATOM     60  CA  ALA B   1      63.224  27.197   5.491  1.00 19.14 LIG 0.27  C 
ATOM     61  CB  ALA B   1      63.751  26.306   6.611  1.00 16.49 LIG 0.05  C 
BRANCH 60 62
ATOM     62  N   ALA B   1      62.547  28.358   6.048  1.00 20.16 LIG-0.07  N 
ATOM     63 H3   ALA B   1      61.735  28.123   6.326  1.00 20.16 LIG 0.28  HD
ATOM     64 H2   ALA B   1      62.476  28.988   5.423  1.00 20.16 LIG 0.28  HD
ATOM     65 H1   ALA B   1      63.016  28.674   6.735  1.00 20.16 LIG 0.28  HD
ENDBRANCH 60 62
ENDBRANCH 58 60
ENDBRANCH 51 56
ENDBRANCH 49 51
ENDBRANCH 45 47
ENDBRANCH 43 45
ENDBRANCH 1 41
TORSDOF 22
ENDMDL
MODEL 20
USER: ADFR SOLUTION from run 133
USER: SCORE 20.365138 LL:  -6.247 LR: -15.629 RR:   0.000 FEB:  -9.067
USER: RMSD 5.615285
USER: SEED 132
USER: STATUS no improvement in best in 14 clusters for 5 generations
USER: GENES 24
USER: genes 0 Translation |==|  0.57065 0.51256 0.66182
USER: genes 1 Rotation |==|  0.29994 0.35997 0.06427 0.52247
USER: genes 2 Torsion [C]-CA--CB-[CG] |==|  0.56603
USER: genes 3 Torsion [CA]-CB--CG-[CD2] |==|  0.32491
USER: genes 4 Torsion [CE2]-CZ--OH-[HH] |==|  0.34949
USER: genes 5 Torsion [N]-CA--C-[N] |==|  0.35868
USER: genes 6 Torsion [C]-N--CA-[CB] |==|  0.24742
USER: genes 7 Torsion [N]-CA--C-[N] |==|  0.35127
USER: genes 8 Torsion [C]-N--CA-[C] |==|  0.81938
USER: genes 9 Torsion [N]-CA--CB-[CG2] |==|  0.77664
USER: genes 10 Torsion [CA]-CB--CG1-[CD1] |==|  0.24397
USER: genes 11 Torsion [N]-CA--C-[N] |==|  0.45000
USER: genes 12 Torsion [N]-CA--C-[O] |==|  0.85332
USER: genes 13 Torsion [N]-CA--CB-[CG] |==|  0.44636
USER: genes 14 Torsion [CA]-CB--CG-[CD2] |==|  0.68165
USER: genes 15 Torsion [CB]-CA--N-[C] |==|  0.83728
USER: genes 16 Torsion [N]-C--CA-[N] |==|  0.13210
USER: genes 17 Torsion [C]-CA--N-[C] |==|  0.15380
USER: genes 18 Torsion [N]-C--CA-[N] |==|  0.96789
USER: genes 19 Torsion [C]-CA--CB-[CG2] |==|  0.95504
USER: genes 20 Torsion [CA]-CB--CG1-[CD1] |==|  0.55605
USER: genes 21 Torsion [C]-CA--N-[C] |==|  0.72224
USER: genes 22 Torsion [N]-C--CA-[N] |==|  0.86983
USER: genes 23 Torsion [C]-CA--N-[H3] |==|  0.00729
ROOT
ATOM      1  CA  TYR B   4      55.870  26.315   1.626  1.00 23.69 LIG 0.18  C 
ENDROOT
BRANCH 1 2
ATOM      2  CB  TYR B   4      57.373  26.559   1.505  1.00 21.78 LIG 0.07  C 
BRANCH 2 3
ATOM      3  CG  TYR B   4      58.026  26.826   2.845  1.00 24.88 LIG-0.06  A 
ATOM      4  CD2 TYR B   4      58.994  25.957   3.347  1.00 24.05 LIG 0.01  A 
ATOM      5  CE2 TYR B   4      59.636  26.210   4.557  1.00 20.83 LIG 0.04  A 
ATOM      6  CZ  TYR B   4      59.311  27.343   5.280  1.00 22.15 LIG 0.07  A 
ATOM      7  CE1 TYR B   4      58.346  28.228   4.808  1.00 19.14 LIG 0.04  A 
ATOM      8  CD1 TYR B   4      57.709  27.966   3.593  1.00 18.71 LIG 0.01  A 
BRANCH 6 9
ATOM      9 OH   TYR B   4      59.965  27.588   6.465  1.00 23.41 LIG-0.36  OA
ATOM     10 HH   TYR B   4      60.302  28.358   6.445  1.00 23.41 LIG 0.22  HD
ENDBRANCH 6 9
ENDBRANCH 2 3
ENDBRANCH 1 2
BRANCH 1 11
ATOM     11  C   TYR B   4      55.337  25.503   0.447  1.00 26.86 LIG 0.24  C 
ATOM     12 O    TYR B   4      55.602  24.306   0.332  1.00 26.35 LIG-0.27  OA
ATOM     13  N   PHE B   5      54.593  26.170  -0.429  1.00 27.52 LIG-0.35  N 
ATOM     14 H    PHE B   5      54.388  27.001  -0.345  1.00 27.52 LIG 0.16  HD
BRANCH 13 15
ATOM     15  CA  PHE B   5      54.050  25.539  -1.630  1.00 31.98 LIG 0.18  C 
BRANCH 15 16
ATOM     16  C   PHE B   5      53.937  26.535  -2.775  1.00 33.78 LIG 0.24  C 
ATOM     17  N   ILE B   6      54.521  26.181  -3.915  1.00 31.71 LIG-0.35  N 
ATOM     18 H    ILE B   6      54.946  25.442  -4.027  1.00 31.71 LIG 0.16  HD
ATOM     19 O    PHE B   5      53.338  27.603  -2.631  1.00 29.51 LIG-0.27  OA
BRANCH 17 20
ATOM     20  CA  ILE B   6      54.485  27.037  -5.091  1.00 36.87 LIG 0.18  C 
BRANCH 20 21
ATOM     21  CB  ILE B   6      55.352  26.454  -6.225  1.00 37.14 LIG 0.01  C 
ATOM     22  CG2 ILE B   6      56.814  26.785  -5.984  1.00 36.45 LIG 0.01  C 
BRANCH 21 23
ATOM     23  CG1 ILE B   6      55.163  24.936  -6.292  1.00 37.87 LIG 0.00  C 
ATOM     24  CD1 ILE B   6      54.010  24.494  -7.164  1.00 36.09 LIG 0.01  C 
ENDBRANCH 21 23
ENDBRANCH 20 21
BRANCH 20 25
ATOM     25  C   ILE B   6      53.041  27.167  -5.575  1.00 41.32 LIG 0.24  C 
ATOM     26 O    ILE B   6      52.181  26.364  -5.209  1.00 41.04 LIG-0.27  OA
ATOM     27  N   PRO B   7      52.757  28.190  -6.401  1.00 42.91 LIG-0.34  N 
ATOM     28  CA  PRO B   7      51.409  28.421  -6.931  1.00 43.88 LIG 0.17  C 
ATOM     29  CD  PRO B   7      53.706  29.181  -6.941  1.00 40.67 LIG 0.13  C 
ATOM     30  CB  PRO B   7      51.656  29.417  -8.060  1.00 44.00 LIG 0.04  C 
ATOM     31  CG  PRO B   7      52.783  30.237  -7.519  1.00 40.06 LIG 0.02  C 
BRANCH 28 32
ATOM     32  C   PRO B   7      50.728  27.144  -7.417  1.00 46.53 LIG 0.22  C 
ATOM     33 O    PRO B   7      51.284  26.397  -8.223  1.00 48.18 LIG-0.29  OA
ENDBRANCH 28 32
ENDBRANCH 20 25
ENDBRANCH 17 20
ENDBRANCH 15 16
BRANCH 15 34
ATOM     34  CB  PHE B   5      52.679  24.916  -1.361  1.00 34.18 LIG 0.07  C 
BRANCH 34 35
ATOM     35  CG  PHE B   5      51.878  24.669  -2.610  1.00 39.37 LIG-0.06  A 
ATOM     36  CD2 PHE B   5      50.691  25.361  -2.842  1.00 41.89 LIG 0.01  A 
ATOM     37  CE2 PHE B   5      49.926  25.107  -3.984  1.00 44.83 LIG 0.00  A 
ATOM     38  CZ  PHE B   5      50.348  24.153  -4.907  1.00 42.42 LIG 0.00  A 
ATOM     39  CE1 PHE B   5      51.533  23.457  -4.686  1.00 44.61 LIG 0.00  A 
ATOM     40  CD1 PHE B   5      52.291  23.717  -3.542  1.00 43.39 LIG 0.01  A 
ENDBRANCH 34 35
ENDBRANCH 15 34
ENDBRANCH 13 15
ENDBRANCH 1 11
BRANCH 1 41
ATOM     41  N   TYR B   4      55.567  25.644   2.877  1.00 19.41 LIG-0.35  N 
ATOM     42 H    TYR B   4      55.025  26.065   3.395  1.00 19.41 LIG 0.16  HD
ATOM     43  C   ALA B   3      56.112  24.468   3.154  1.00 19.00 LIG 0.24  C 
ATOM     44 O    ALA B   3      56.860  23.883   2.370  1.00 18.56 LIG-0.27  OA
BRANCH 43 45
ATOM     45  CA  ALA B   3      55.746  23.845   4.498  1.00 21.06 LIG 0.17  C 
ATOM     46  CB  ALA B   3      56.204  22.399   4.548  1.00 20.02 LIG 0.04  C 
BRANCH 45 47
ATOM     47  N   ALA B   3      54.303  23.918   4.667  1.00 19.71 LIG-0.35  N 
ATOM     48 H    ALA B   3      54.047  24.311   5.388  1.00 19.71 LIG 0.16  HD
ATOM     49  C   ILE B   2      53.478  23.409   3.763  1.00 19.11 LIG 0.24  C 
ATOM     50 O    ILE B   2      53.864  22.892   2.718  1.00 19.33 LIG-0.27  OA
BRANCH 49 51
ATOM     51  CA  ILE B   2      51.993  23.520   4.073  1.00 18.55 LIG 0.18  C 
BRANCH 51 52
ATOM     52  CB  ILE B   2      51.348  24.530   3.101  1.00 21.29 LIG 0.01  C 
ATOM     53  CG2 ILE B   2      52.423  25.378   2.426  1.00 18.18 LIG 0.01  C 
BRANCH 52 54
ATOM     54  CG1 ILE B   2      50.511  23.782   2.059  1.00 26.11 LIG 0.00  C 
ATOM     55  CD1 ILE B   2      50.227  24.575   0.796  1.00 36.60 LIG 0.01  C 
ENDBRANCH 52 54
ENDBRANCH 51 52
BRANCH 51 56
ATOM     56  N   ILE B   2      51.799  23.935   5.452  1.00 18.11 LIG-0.35  N 
ATOM     57 H    ILE B   2      51.896  24.779   5.585  1.00 18.11 LIG 0.16  HD
ATOM     58  C   ALA B   1      51.499  23.066   6.407  1.00 22.52 LIG 0.25  C 
ATOM     59 O    ALA B   1      51.353  21.862   6.200  1.00 25.87 LIG-0.27  OA
BRANCH 58 60
ATOM     60  CA  ALA B   1      51.333  23.644   7.805  1.00 19.14 LIG 0.27  C 
ATOM     61  CB  ALA B   1      50.007  24.391   7.901  1.00 16.49 LIG 0.05  C 
BRANCH 60 62
ATOM     62  N   ALA B   1      52.440  24.542   8.100  1.00 20.16 LIG-0.07  N 
ATOM     63 H3   ALA B   1      52.971  24.602   7.388  1.00 20.16 LIG 0.28  HD
ATOM     64 H2   ALA B   1      52.903  24.225   8.790  1.00 20.16 LIG 0.28  HD
ATOM     65 H1   ALA B   1      52.122  25.349   8.301  1.00 20.16 LIG 0.28  HD
ENDBRANCH 60 62
ENDBRANCH 58 60
ENDBRANCH 51 56
ENDBRANCH 49 51
ENDBRANCH 45 47
ENDBRANCH 43 45
ENDBRANCH 1 41
TORSDOF 22
ENDMDL
MODEL 21
USER: ADFR SOLUTION from run 75
USER: SCORE 17.404290 LL:  -5.702 LR: -15.632 RR:   0.000 FEB:  -9.069
USER: RMSD 11.506350
USER: SEED 74
USER: STATUS no improvement in best in 9 clusters for 5 generations
USER: GENES 24
USER: genes 0 Translation |==|  0.51173 0.49948 0.49311
USER: genes 1 Rotation |==|  0.07444 0.41714 0.74314 0.55400
USER: genes 2 Torsion [C]-CA--CB-[CG] |==|  0.44506
USER: genes 3 Torsion [CA]-CB--CG-[CD2] |==|  0.05603
USER: genes 4 Torsion [CE2]-CZ--OH-[HH] |==|  0.63392
USER: genes 5 Torsion [N]-CA--C-[N] |==|  0.52513
USER: genes 6 Torsion [C]-N--CA-[CB] |==|  0.33374
USER: genes 7 Torsion [N]-CA--C-[N] |==|  0.65324
USER: genes 8 Torsion [C]-N--CA-[C] |==|  0.15477
USER: genes 9 Torsion [N]-CA--CB-[CG2] |==|  0.57729
USER: genes 10 Torsion [CA]-CB--CG1-[CD1] |==|  0.34525
USER: genes 11 Torsion [N]-CA--C-[N] |==|  0.14334
USER: genes 12 Torsion [N]-CA--C-[O] |==|  0.87348
USER: genes 13 Torsion [N]-CA--CB-[CG] |==|  0.58698
USER: genes 14 Torsion [CA]-CB--CG-[CD2] |==|  0.07729
USER: genes 15 Torsion [CB]-CA--N-[C] |==|  0.37083
USER: genes 16 Torsion [N]-C--CA-[N] |==|  0.47222
USER: genes 17 Torsion [C]-CA--N-[C] |==|  0.51151
USER: genes 18 Torsion [N]-C--CA-[N] |==|  0.90374
USER: genes 19 Torsion [C]-CA--CB-[CG2] |==|  0.48522
USER: genes 20 Torsion [CA]-CB--CG1-[CD1] |==|  0.31372
USER: genes 21 Torsion [C]-CA--N-[C] |==|  0.78746
USER: genes 22 Torsion [N]-C--CA-[N] |==|  0.83007
USER: genes 23 Torsion [C]-CA--N-[H3] |==|  0.14450
ROOT
ATOM      1  CA  TYR B   4      54.632  26.099  -2.803  1.00 23.69 LIG 0.18  C 
ENDROOT
BRANCH 1 2
ATOM      2  CB  TYR B   4      53.235  25.530  -2.566  1.00 21.78 LIG 0.07  C 
BRANCH 2 3
ATOM      3  CG  TYR B   4      52.193  26.156  -3.469  1.00 24.88 LIG-0.06  A 
ATOM      4  CD2 TYR B   4      52.571  26.805  -4.644  1.00 24.05 LIG 0.01  A 
ATOM      5  CE2 TYR B   4      51.624  27.349  -5.507  1.00 20.83 LIG 0.04  A 
ATOM      6  CZ  TYR B   4      50.280  27.248  -5.200  1.00 22.15 LIG 0.07  A 
ATOM      7  CE1 TYR B   4      49.870  26.611  -4.033  1.00 19.14 LIG 0.04  A 
ATOM      8  CD1 TYR B   4      50.827  26.068  -3.174  1.00 18.71 LIG 0.01  A 
BRANCH 6 9
ATOM      9 OH   TYR B   4      49.355  27.776  -6.071  1.00 23.41 LIG-0.36  OA
ATOM     10 HH   TYR B   4      48.803  28.244  -5.644  1.00 23.41 LIG 0.22  HD
ENDBRANCH 6 9
ENDBRANCH 2 3
ENDBRANCH 1 2
BRANCH 1 11
ATOM     11  C   TYR B   4      55.551  25.843  -1.610  1.00 26.86 LIG 0.24  C 
ATOM     12 O    TYR B   4      56.679  25.375  -1.769  1.00 26.35 LIG-0.27  OA
ATOM     13  N   PHE B   5      55.051  26.144  -0.416  1.00 27.52 LIG-0.35  N 
ATOM     14 H    PHE B   5      54.271  26.488  -0.299  1.00 27.52 LIG 0.16  HD
BRANCH 13 15
ATOM     15  CA  PHE B   5      55.793  25.913   0.820  1.00 31.98 LIG 0.18  C 
BRANCH 15 16
ATOM     16  C   PHE B   5      55.077  24.913   1.717  1.00 33.78 LIG 0.24  C 
ATOM     17  N   ILE B   6      54.814  25.323   2.953  1.00 31.71 LIG-0.35  N 
ATOM     18 H    ILE B   6      55.025  26.099   3.256  1.00 31.71 LIG 0.16  HD
ATOM     19 O    PHE B   5      54.772  23.792   1.302  1.00 29.51 LIG-0.27  OA
BRANCH 17 20
ATOM     20  CA  ILE B   6      54.130  24.469   3.913  1.00 36.87 LIG 0.18  C 
BRANCH 20 21
ATOM     21  CB  ILE B   6      52.688  24.171   3.457  1.00 37.14 LIG 0.01  C 
ATOM     22  CG2 ILE B   6      51.804  23.910   4.664  1.00 36.45 LIG 0.01  C 
BRANCH 21 23
ATOM     23  CG1 ILE B   6      52.142  25.356   2.655  1.00 37.87 LIG 0.00  C 
ATOM     24  CD1 ILE B   6      51.649  24.994   1.273  1.00 36.09 LIG 0.01  C 
ENDBRANCH 21 23
ENDBRANCH 20 21
BRANCH 20 25
ATOM     25  C   ILE B   6      54.898  23.155   4.053  1.00 41.32 LIG 0.24  C 
ATOM     26 O    ILE B   6      54.320  22.073   3.929  1.00 41.04 LIG-0.27  OA
ATOM     27  N   PRO B   7      56.216  23.234   4.308  1.00 42.91 LIG-0.34  N 
ATOM     28  CA  PRO B   7      57.060  22.045   4.463  1.00 43.88 LIG 0.17  C 
ATOM     29  CD  PRO B   7      57.003  24.463   4.523  1.00 40.67 LIG 0.13  C 
ATOM     30  CB  PRO B   7      58.332  22.611   5.085  1.00 44.00 LIG 0.04  C 
ATOM     31  CG  PRO B   7      58.430  23.956   4.439  1.00 40.06 LIG 0.02  C 
BRANCH 28 32
ATOM     32  C   PRO B   7      56.419  20.962   5.327  1.00 46.53 LIG 0.22  C 
ATOM     33 O    PRO B   7      55.873  21.244   6.394  1.00 48.18 LIG-0.29  OA
ENDBRANCH 28 32
ENDBRANCH 20 25
ENDBRANCH 17 20
ENDBRANCH 15 16
BRANCH 15 34
ATOM     34  CB  PHE B   5      56.016  27.216   1.589  1.00 34.18 LIG 0.07  C 
BRANCH 34 35
ATOM     35  CG  PHE B   5      57.297  27.236   2.379  1.00 39.37 LIG-0.06  A 
ATOM     36  CD2 PHE B   5      58.394  26.481   1.972  1.00 41.89 LIG 0.01  A 
ATOM     37  CE2 PHE B   5      59.573  26.469   2.723  1.00 44.83 LIG 0.00  A 
ATOM     38  CZ  PHE B   5      59.661  27.219   3.893  1.00 42.42 LIG 0.00  A 
ATOM     39  CE1 PHE B   5      58.570  27.978   4.308  1.00 44.61 LIG 0.00  A 
ATOM     40  CD1 PHE B   5      57.396  27.984   3.551  1.00 43.39 LIG 0.01  A 
ENDBRANCH 34 35
ENDBRANCH 15 34
ENDBRANCH 13 15
ENDBRANCH 1 11
BRANCH 1 41
ATOM     41  N   TYR B   4      55.208  25.536  -4.012  1.00 19.41 LIG-0.35  N 
ATOM     42 H    TYR B   4      55.131  24.683  -4.088  1.00 19.41 LIG 0.16  HD
ATOM     43  C   ALA B   3      55.798  26.322  -4.901  1.00 19.00 LIG 0.24  C 
ATOM     44 O    ALA B   3      55.859  27.545  -4.767  1.00 18.56 LIG-0.27  OA
BRANCH 43 45
ATOM     45  CA  ALA B   3      56.385  25.640  -6.133  1.00 21.06 LIG 0.17  C 
ATOM     46  CB  ALA B   3      57.592  24.806  -5.745  1.00 20.02 LIG 0.04  C 
BRANCH 45 47
ATOM     47  N   ALA B   3      56.770  26.663  -7.092  1.00 19.71 LIG-0.35  N 
ATOM     48 H    ALA B   3      56.669  27.470  -6.814  1.00 19.71 LIG 0.16  HD
ATOM     49  C   ILE B   2      57.235  26.340  -8.292  1.00 19.11 LIG 0.24  C 
ATOM     50 O    ILE B   2      57.414  25.180  -8.652  1.00 19.33 LIG-0.27  OA
BRANCH 49 51
ATOM     51  CA  ILE B   2      57.570  27.502  -9.214  1.00 18.55 LIG 0.18  C 
BRANCH 51 52
ATOM     52  CB  ILE B   2      59.021  27.955  -8.949  1.00 21.29 LIG 0.01  C 
ATOM     53  CG2 ILE B   2      59.431  29.034  -9.951  1.00 18.18 LIG 0.01  C 
BRANCH 52 54
ATOM     54  CG1 ILE B   2      59.149  28.470  -7.513  1.00 26.11 LIG 0.00  C 
ATOM     55  CD1 ILE B   2      60.018  27.610  -6.613  1.00 36.60 LIG 0.01  C 
ENDBRANCH 52 54
ENDBRANCH 51 52
BRANCH 51 56
ATOM     56  N   ILE B   2      56.639  28.597  -8.999  1.00 18.11 LIG-0.35  N 
ATOM     57 H    ILE B   2      56.961  29.251  -8.543  1.00 18.11 LIG 0.16  HD
ATOM     58  C   ALA B   1      55.403  28.567  -9.477  1.00 22.52 LIG 0.25  C 
ATOM     59 O    ALA B   1      54.960  27.629 -10.138  1.00 25.87 LIG-0.27  OA
BRANCH 58 60
ATOM     60  CA  ALA B   1      54.540  29.781  -9.167  1.00 19.14 LIG 0.27  C 
ATOM     61  CB  ALA B   1      55.183  31.035  -9.751  1.00 16.49 LIG 0.05  C 
BRANCH 60 62
ATOM     62  N   ALA B   1      54.386  29.919  -7.726  1.00 20.16 LIG-0.07  N 
ATOM     63 H3   ALA B   1      55.187  29.907  -7.339  1.00 20.16 LIG 0.28  HD
ATOM     64 H2   ALA B   1      53.896  29.245  -7.414  1.00 20.16 LIG 0.28  HD
ATOM     65 H1   ALA B   1      53.980  30.690  -7.543  1.00 20.16 LIG 0.28  HD
ENDBRANCH 60 62
ENDBRANCH 58 60
ENDBRANCH 51 56
ENDBRANCH 49 51
ENDBRANCH 45 47
ENDBRANCH 43 45
ENDBRANCH 1 41
TORSDOF 22
ENDMDL
MODEL 22
USER: ADFR SOLUTION from run 146
USER: SCORE 19.604944 LL:  -5.224 LR: -15.611 RR:   0.000 FEB:  -9.049
USER: RMSD 11.267655
USER: SEED 145
USER: STATUS 1 or 2 clusters left
USER: GENES 24
USER: genes 0 Translation |==|  0.47421 0.52792 0.48869
USER: genes 1 Rotation |==|  0.13805 0.24999 0.72314 0.58182
USER: genes 2 Torsion [C]-CA--CB-[CG] |==|  0.40200
USER: genes 3 Torsion [CA]-CB--CG-[CD2] |==|  0.59394
USER: genes 4 Torsion [CE2]-CZ--OH-[HH] |==|  0.18515
USER: genes 5 Torsion [N]-CA--C-[N] |==|  0.44999
USER: genes 6 Torsion [C]-N--CA-[CB] |==|  0.20708
USER: genes 7 Torsion [N]-CA--C-[N] |==|  0.03387
USER: genes 8 Torsion [C]-N--CA-[C] |==|  0.80707
USER: genes 9 Torsion [N]-CA--CB-[CG2] |==|  0.78038
USER: genes 10 Torsion [CA]-CB--CG1-[CD1] |==|  0.34403
USER: genes 11 Torsion [N]-CA--C-[N] |==|  0.43583
USER: genes 12 Torsion [N]-CA--C-[O] |==|  0.24959
USER: genes 13 Torsion [N]-CA--CB-[CG] |==|  0.52532
USER: genes 14 Torsion [CA]-CB--CG-[CD2] |==|  0.09942
USER: genes 15 Torsion [CB]-CA--N-[C] |==|  0.86926
USER: genes 16 Torsion [N]-C--CA-[N] |==|  0.93105
USER: genes 17 Torsion [C]-CA--N-[C] |==|  0.82867
USER: genes 18 Torsion [N]-C--CA-[N] |==|  0.11301
USER: genes 19 Torsion [C]-CA--CB-[CG2] |==|  0.22704
USER: genes 20 Torsion [CA]-CB--CG1-[CD1] |==|  0.42842
USER: genes 21 Torsion [C]-CA--N-[C] |==|  0.17019
USER: genes 22 Torsion [N]-C--CA-[N] |==|  0.92521
USER: genes 23 Torsion [C]-CA--N-[H3] |==|  0.33815
ROOT
ATOM      1  CA  TYR B   4      53.844  26.569  -2.919  1.00 23.69 LIG 0.18  C 
ENDROOT
BRANCH 1 2
ATOM      2  CB  TYR B   4      52.979  25.327  -3.127  1.00 21.78 LIG 0.07  C 
BRANCH 2 3
ATOM      3  CG  TYR B   4      51.537  25.671  -3.437  1.00 24.88 LIG-0.06  A 
ATOM      4  CD2 TYR B   4      50.501  24.852  -2.992  1.00 24.05 LIG 0.01  A 
ATOM      5  CE2 TYR B   4      49.168  25.176  -3.231  1.00 20.83 LIG 0.04  A 
ATOM      6  CZ  TYR B   4      48.858  26.331  -3.925  1.00 22.15 LIG 0.07  A 
ATOM      7  CE1 TYR B   4      49.870  27.168  -4.387  1.00 19.14 LIG 0.04  A 
ATOM      8  CD1 TYR B   4      51.203  26.835  -4.141  1.00 18.71 LIG 0.01  A 
BRANCH 6 9
ATOM      9 OH   TYR B   4      47.536  26.647  -4.140  1.00 23.41 LIG-0.36  OA
ATOM     10 HH   TYR B   4      47.168  26.822  -3.406  1.00 23.41 LIG 0.22  HD
ENDBRANCH 6 9
ENDBRANCH 2 3
ENDBRANCH 1 2
BRANCH 1 11
ATOM     11  C   TYR B   4      54.909  26.336  -1.849  1.00 26.86 LIG 0.24  C 
ATOM     12 O    TYR B   4      56.086  26.152  -2.156  1.00 26.35 LIG-0.27  OA
ATOM     13  N   PHE B   5      54.478  26.337  -0.591  1.00 27.52 LIG-0.35  N 
ATOM     14 H    PHE B   5      53.661  26.483  -0.368  1.00 27.52 LIG 0.16  HD
BRANCH 13 15
ATOM     15  CA  PHE B   5      55.370  26.085   0.537  1.00 31.98 LIG 0.18  C 
BRANCH 15 16
ATOM     16  C   PHE B   5      54.587  25.733   1.795  1.00 33.78 LIG 0.24  C 
ATOM     17  N   ILE B   6      53.298  25.465   1.621  1.00 31.71 LIG-0.35  N 
ATOM     18 H    ILE B   6      52.902  25.484   0.858  1.00 31.71 LIG 0.16  HD
ATOM     19 O    PHE B   5      55.136  25.708   2.898  1.00 29.51 LIG-0.27  OA
BRANCH 17 20
ATOM     20  CA  ILE B   6      52.434  25.110   2.738  1.00 36.87 LIG 0.18  C 
BRANCH 20 21
ATOM     21  CB  ILE B   6      50.954  25.095   2.307  1.00 37.14 LIG 0.01  C 
ATOM     22  CG2 ILE B   6      50.413  26.513   2.253  1.00 36.45 LIG 0.01  C 
BRANCH 21 23
ATOM     23  CG1 ILE B   6      50.821  24.432   0.933  1.00 37.87 LIG 0.00  C 
ATOM     24  CD1 ILE B   6      49.871  23.257   0.902  1.00 36.09 LIG 0.01  C 
ENDBRANCH 21 23
ENDBRANCH 20 21
BRANCH 20 25
ATOM     25  C   ILE B   6      52.823  23.725   3.255  1.00 41.32 LIG 0.24  C 
ATOM     26 O    ILE B   6      53.419  22.928   2.527  1.00 41.04 LIG-0.27  OA
ATOM     27  N   PRO B   7      52.496  23.426   4.524  1.00 42.91 LIG-0.34  N 
ATOM     28  CA  PRO B   7      52.817  22.132   5.134  1.00 43.88 LIG 0.17  C 
ATOM     29  CD  PRO B   7      51.746  24.276   5.468  1.00 40.67 LIG 0.13  C 
ATOM     30  CB  PRO B   7      51.954  22.128   6.392  1.00 44.00 LIG 0.04  C 
ATOM     31  CG  PRO B   7      51.968  23.568   6.792  1.00 40.06 LIG 0.02  C 
BRANCH 28 32
ATOM     32  C   PRO B   7      52.521  20.946   4.219  1.00 46.53 LIG 0.22  C 
ATOM     33 O    PRO B   7      53.376  20.514   3.446  1.00 48.18 LIG-0.29  OA
ENDBRANCH 28 32
ENDBRANCH 20 25
ENDBRANCH 17 20
ENDBRANCH 15 16
BRANCH 15 34
ATOM     34  CB  PHE B   5      56.268  27.291   0.819  1.00 34.18 LIG 0.07  C 
BRANCH 34 35
ATOM     35  CG  PHE B   5      57.351  27.011   1.826  1.00 39.37 LIG-0.06  A 
ATOM     36  CD2 PHE B   5      57.975  25.766   1.871  1.00 41.89 LIG 0.01  A 
ATOM     37  CE2 PHE B   5      58.956  25.491   2.827  1.00 44.83 LIG 0.00  A 
ATOM     38  CZ  PHE B   5      59.323  26.468   3.749  1.00 42.42 LIG 0.00  A 
ATOM     39  CE1 PHE B   5      58.707  27.716   3.712  1.00 44.61 LIG 0.00  A 
ATOM     40  CD1 PHE B   5      57.727  27.982   2.753  1.00 43.39 LIG 0.01  A 
ENDBRANCH 34 35
ENDBRANCH 15 34
ENDBRANCH 13 15
ENDBRANCH 1 11
BRANCH 1 41
ATOM     41  N   TYR B   4      54.467  26.964  -4.170  1.00 19.41 LIG-0.35  N 
ATOM     42 H    TYR B   4      54.411  27.802  -4.355  1.00 19.41 LIG 0.16  HD
ATOM     43  C   ALA B   3      55.064  26.061  -4.934  1.00 19.00 LIG 0.24  C 
ATOM     44 O    ALA B   3      55.149  24.875  -4.616  1.00 18.56 LIG-0.27  OA
BRANCH 43 45
ATOM     45  CA  ALA B   3      55.679  26.568  -6.236  1.00 21.06 LIG 0.17  C 
ATOM     46  CB  ALA B   3      57.158  26.846  -6.044  1.00 20.02 LIG 0.04  C 
BRANCH 45 47
ATOM     47  N   ALA B   3      54.988  27.783  -6.635  1.00 19.71 LIG-0.35  N 
ATOM     48 H    ALA B   3      55.488  28.482  -6.674  1.00 19.71 LIG 0.16  HD
ATOM     49  C   ILE B   2      53.691  27.779  -6.910  1.00 19.11 LIG 0.24  C 
ATOM     50 O    ILE B   2      53.005  26.760  -6.893  1.00 19.33 LIG-0.27  OA
BRANCH 49 51
ATOM     51  CA  ILE B   2      53.081  29.121  -7.282  1.00 18.55 LIG 0.18  C 
BRANCH 51 52
ATOM     52  CB  ILE B   2      51.725  28.884  -7.981  1.00 21.29 LIG 0.01  C 
ATOM     53  CG2 ILE B   2      50.628  28.649  -6.945  1.00 18.18 LIG 0.01  C 
BRANCH 52 54
ATOM     54  CG1 ILE B   2      51.386  30.083  -8.871  1.00 26.11 LIG 0.00  C 
ATOM     55  CD1 ILE B   2      50.467  29.759 -10.036  1.00 36.60 LIG 0.01  C 
ENDBRANCH 52 54
ENDBRANCH 51 52
BRANCH 51 56
ATOM     56  N   ILE B   2      53.985  29.860  -8.147  1.00 18.11 LIG-0.35  N 
ATOM     57 H    ILE B   2      54.251  30.610  -7.822  1.00 18.11 LIG 0.16  HD
ATOM     58  C   ALA B   1      54.354  29.396  -9.333  1.00 22.52 LIG 0.25  C 
ATOM     59 O    ALA B   1      53.973  28.315  -9.780  1.00 25.87 LIG-0.27  OA
BRANCH 58 60
ATOM     60  CA  ALA B   1      55.298  30.283 -10.131  1.00 19.14 LIG 0.27  C 
ATOM     61  CB  ALA B   1      56.741  29.858  -9.878  1.00 16.49 LIG 0.05  C 
BRANCH 60 62
ATOM     62  N   ALA B   1      55.108  31.673  -9.747  1.00 20.16 LIG-0.07  N 
ATOM     63 H3   ALA B   1      55.878  32.007  -9.449  1.00 20.16 LIG 0.28  HD
ATOM     64 H2   ALA B   1      54.495  31.723  -9.104  1.00 20.16 LIG 0.28  HD
ATOM     65 H1   ALA B   1      54.836  32.142 -10.453  1.00 20.16 LIG 0.28  HD
ENDBRANCH 60 62
ENDBRANCH 58 60
ENDBRANCH 51 56
ENDBRANCH 49 51
ENDBRANCH 45 47
ENDBRANCH 43 45
ENDBRANCH 1 41
TORSDOF 22
ENDMDL
