MODEL 1
USER: ADFR SOLUTION from run 85
USER: SCORE 18.352773 LL:  -4.570 LR: -13.924 RR:   0.000 FEB:  -9.748
USER: RMSD 10.616731
USER: SEED 84
USER: STATUS no improvement in best in 6 clusters for 5 generations
USER: GENES 16
USER: genes 0 Translation |==|  0.37109 0.26633 0.66510
USER: genes 1 Rotation |==|  0.45192 0.21019 0.90096 0.55410
USER: genes 2 Torsion [N]-C--CA-[N] |==|  0.31883
USER: genes 3 Torsion [C]-CA--N-[C] |==|  0.74081
USER: genes 4 Torsion [N]-C--CA-[N] |==|  0.22378
USER: genes 5 Torsion [N]-C--CA-[CB] |==|  0.77011
USER: genes 6 Torsion [N]-C--CA-[N] |==|  0.27756
USER: genes 7 Torsion [C]-CA--CB-[CG2] |==|  0.52756
USER: genes 8 Torsion [N]-CA--C-[O] |==|  0.83783
USER: genes 9 Torsion [N]-CA--C-[O] |==|  0.79081
USER: genes 10 Torsion [C]-N--CA-[C] |==|  0.83823
USER: genes 11 Torsion [N]-CA--C-[O] |==|  0.91254
USER: genes 12 Torsion [N]-CA--CB-[CG] |==|  0.41760
USER: genes 13 Torsion [CA]-CB--CG-[CD] |==|  0.45034
USER: genes 14 Torsion [CB]-CG--CD-[NE] |==|  0.42372
USER: genes 15 Torsion [CG]-CD--NE-[CZ] |==|  0.51115
ROOT
ATOM      1  C   VAL C   5      -2.733   2.886  28.218  1.00 42.36 LIG 0.24  C 
ATOM      2 O    VAL C   5      -2.631   2.204  27.194  1.00 45.24 LIG-0.27  OA
ATOM      3  N   PRO C   6      -3.890   3.468  28.593  1.00 47.11 LIG-0.34  N 
ATOM      4  CA  PRO C   6      -5.181   3.369  27.898  1.00 46.93 LIG 0.18  C 
ATOM      5  CB  PRO C   6      -5.984   4.489  28.540  1.00 48.77 LIG 0.04  C 
ATOM      6  CG  PRO C   6      -5.474   4.494  29.937  1.00 47.44 LIG 0.02  C 
ATOM      7  CD  PRO C   6      -3.993   4.426  29.709  1.00 45.48 LIG 0.13  C 
ENDROOT
BRANCH 1 8
ATOM      8  CA  VAL C   5      -1.516   3.123  29.096  1.00 35.80 LIG 0.18  C 
BRANCH 8 9
ATOM      9  N   VAL C   5      -1.133   1.858  29.672  1.00 29.23 LIG-0.35  N 
ATOM     10 H    VAL C   5      -0.606   1.397  29.173  1.00 29.23 LIG 0.16  HD
ATOM     11  C   PRO C   4      -1.551   1.442  30.856  1.00 26.62 LIG 0.24  C 
ATOM     12 O    PRO C   4      -2.246   2.115  31.627  1.00 27.50 LIG-0.27  OA
BRANCH 11 13
ATOM     13  CA  PRO C   4      -1.029   0.087  31.260  1.00 24.57 LIG 0.18  C 
ATOM     14  N   PRO C   4       0.317   0.293  31.769  1.00 25.19 LIG-0.34  N 
ATOM     15  C   PRO C   3       1.311   0.702  30.953  1.00 26.73 LIG 0.24  C 
ATOM     16  CD  PRO C   4       0.395  -0.141  33.171  1.00 25.69 LIG 0.13  C 
ATOM     17 O    PRO C   3       1.156   0.840  29.739  1.00 25.36 LIG-0.27  OA
ATOM     18  CG  PRO C   4      -0.721  -1.143  33.238  1.00 24.59 LIG 0.02  C 
ATOM     19  CB  PRO C   4      -1.779  -0.461  32.477  1.00 22.47 LIG 0.04  C 
BRANCH 15 20
ATOM     20  CA  PRO C   3       2.688   0.899  31.578  1.00 28.16 LIG 0.18  C 
ATOM     21  N   PRO C   3       3.743   0.941  30.563  1.00 24.30 LIG-0.34  N 
ATOM     22  CD  PRO C   3       4.235   2.314  30.387  1.00 25.18 LIG 0.13  C 
ATOM     23  C   PRO C   2       4.074  -0.138  29.846  1.00 26.75 LIG 0.24  C 
ATOM     24  CG  PRO C   3       3.192   3.146  31.137  1.00 22.51 LIG 0.02  C 
ATOM     25  CB  PRO C   3       2.809   2.272  32.253  1.00 21.93 LIG 0.04  C 
ATOM     26 O    PRO C   2       3.507  -1.227  29.990  1.00 25.20 LIG-0.27  OA
BRANCH 23 27
ATOM     27  CA  PRO C   2       5.191   0.022  28.827  1.00 29.29 LIG 0.18  C 
ATOM     28  N   PRO C   2       6.453  -0.502  29.370  1.00 27.80 LIG-0.34  N 
ATOM     29  C   ACE C   1       7.123   0.108  30.367  1.00 31.50 LIG 0.22  C 
ATOM     30  CD  PRO C   2       6.887  -1.694  28.623  1.00 33.03 LIG 0.13  C 
ATOM     31 O    ACE C   1       6.752   1.184  30.833  1.00 38.95 LIG-0.27  OA
ATOM     32  CH3 ACE C   1       8.412  -0.504  30.875  1.00 34.05 LIG 0.12  C 
ATOM     33  CG  PRO C   2       5.609  -2.149  27.963  1.00 32.34 LIG 0.02  C 
ATOM     34  CB  PRO C   2       4.958  -0.856  27.593  1.00 28.70 LIG 0.04  C 
ENDBRANCH 23 27
ENDBRANCH 15 20
ENDBRANCH 11 13
ENDBRANCH 8 9
BRANCH 8 35
ATOM     35  CB  VAL C   5      -0.357   3.672  28.271  1.00 35.33 LIG 0.01  C 
ATOM     36  CG2 VAL C   5       0.920   3.667  29.122  1.00 35.45 LIG 0.01  C 
ATOM     37  CG1 VAL C   5      -0.673   5.046  27.767  1.00 28.19 LIG 0.01  C 
ENDBRANCH 8 35
ENDBRANCH 1 8
BRANCH 4 38
ATOM     38  C   PRO C   6      -5.077   3.549  26.381  1.00 48.62 LIG 0.24  C 
ATOM     39 O    PRO C   6      -4.603   4.590  25.909  1.00 45.97 LIG-0.27  OA
ATOM     40  N   PRO C   7      -5.538   2.541  25.603  1.00 50.57 LIG-0.34  N 
ATOM     41  CA  PRO C   7      -5.499   2.577  24.139  1.00 53.29 LIG 0.18  C 
ATOM     42  CD  PRO C   7      -6.260   1.335  26.062  1.00 52.97 LIG 0.13  C 
ATOM     43  CB  PRO C   7      -6.499   1.488  23.751  1.00 53.80 LIG 0.04  C 
ATOM     44  CG  PRO C   7      -6.288   0.462  24.819  1.00 51.48 LIG 0.02  C 
BRANCH 41 45
ATOM     45  C   PRO C   7      -5.922   3.944  23.630  1.00 55.55 LIG 0.24  C 
ATOM     46 O    PRO C   7      -7.119   4.276  23.641  1.00 56.05 LIG-0.27  OA
ATOM     47  N   ARG C   8      -4.915   4.755  23.297  1.00 55.98 LIG-0.35  N 
ATOM     48 H    ARG C   8      -4.088   4.525  23.356  1.00 55.98 LIG 0.16  HD
BRANCH 47 49
ATOM     49  CA  ARG C   8      -5.112   6.110  22.797  1.00 59.84 LIG 0.16  C 
BRANCH 49 50
ATOM     50  C   ARG C   8      -5.960   6.154  21.529  1.00 63.97 LIG 0.22  C 
ATOM     51 O    ARG C   8      -5.876   5.173  20.755  1.00 69.17 LIG-0.29  OA
ENDBRANCH 49 50
BRANCH 49 52
ATOM     52  CB  ARG C   8      -3.761   6.789  22.547  1.00 59.33 LIG 0.04  C 
BRANCH 52 53
ATOM     53  CG  ARG C   8      -3.775   7.826  21.434  1.00 56.20 LIG 0.02  C 
BRANCH 53 54
ATOM     54  CD  ARG C   8      -2.586   8.759  21.502  1.00 50.77 LIG 0.14  C 
BRANCH 54 55
ATOM     55  NE  ARG C   8      -2.243   9.280  20.183  1.00 55.07 LIG-0.23  N 
ATOM     56  CZ  ARG C   8      -1.195  10.064  19.925  1.00 55.92 LIG 0.67  C 
ATOM     57  NH1 ARG C   8      -0.345  10.392  20.890  1.00 58.39 LIG-0.23  N 
ATOM     58  NH2 ARG C   8      -0.966  10.492  18.687  1.00 49.54 LIG-0.23  N 
ATOM     59 1HH1 ARG C   8      -0.468  10.098  21.690  1.00 58.39 LIG 0.17  HD
ATOM     60 2HH1 ARG C   8       0.329  10.897  20.716  1.00 58.39 LIG 0.17  HD
ATOM     61 1HH2 ARG C   8      -1.495  10.265  18.048  1.00 49.54 LIG 0.17  HD
ATOM     62 2HH2 ARG C   8      -0.289  10.997  18.525  1.00 49.54 LIG 0.17  HD
ATOM     63 HE   ARG C   8      -2.754   9.067  19.525  1.00 55.07 LIG 0.18  HD
ENDBRANCH 54 55
ENDBRANCH 53 54
ENDBRANCH 52 53
ENDBRANCH 49 52
ENDBRANCH 47 49
ENDBRANCH 41 45
ENDBRANCH 4 38
TORSDOF 14
ENDMDL
MODEL 2
USER: ADFR SOLUTION from run 78
USER: SCORE 18.162127 LL:  -4.894 LR: -13.651 RR:   0.000 FEB:  -9.475
USER: RMSD 10.542647
USER: SEED 77
USER: STATUS no improvement in best in 5 clusters for 5 generations
USER: GENES 16
USER: genes 0 Translation |==|  0.40012 0.27264 0.67394
USER: genes 1 Rotation |==|  0.48770 0.20381 0.89912 0.55310
USER: genes 2 Torsion [N]-C--CA-[N] |==|  0.84505
USER: genes 3 Torsion [C]-CA--N-[C] |==|  0.86081
USER: genes 4 Torsion [N]-C--CA-[N] |==|  0.48538
USER: genes 5 Torsion [N]-C--CA-[CB] |==|  0.79761
USER: genes 6 Torsion [N]-C--CA-[N] |==|  0.43146
USER: genes 7 Torsion [C]-CA--CB-[CG2] |==|  0.42552
USER: genes 8 Torsion [N]-CA--C-[O] |==|  0.84449
USER: genes 9 Torsion [N]-CA--C-[O] |==|  0.80894
USER: genes 10 Torsion [C]-N--CA-[C] |==|  0.78204
USER: genes 11 Torsion [N]-CA--C-[O] |==|  0.88800
USER: genes 12 Torsion [N]-CA--CB-[CG] |==|  0.28226
USER: genes 13 Torsion [CA]-CB--CG-[CD] |==|  0.31816
USER: genes 14 Torsion [CB]-CG--CD-[NE] |==|  0.49642
USER: genes 15 Torsion [CG]-CD--NE-[CZ] |==|  0.66703
ROOT
ATOM      1  C   VAL C   5      -2.101   3.028  28.397  1.00 42.36 LIG 0.24  C 
ATOM      2 O    VAL C   5      -2.055   2.394  27.339  1.00 45.24 LIG-0.27  OA
ATOM      3  N   PRO C   6      -3.256   3.491  28.920  1.00 47.11 LIG-0.34  N 
ATOM      4  CA  PRO C   6      -4.602   3.300  28.363  1.00 46.93 LIG 0.18  C 
ATOM      5  CB  PRO C   6      -5.423   4.321  29.136  1.00 48.77 LIG 0.04  C 
ATOM      6  CG  PRO C   6      -4.763   4.322  30.469  1.00 47.44 LIG 0.02  C 
ATOM      7  CD  PRO C   6      -3.316   4.395  30.082  1.00 45.48 LIG 0.13  C 
ENDROOT
BRANCH 1 8
ATOM      8  CA  VAL C   5      -0.819   3.343  29.149  1.00 35.80 LIG 0.18  C 
BRANCH 8 9
ATOM      9  N   VAL C   5      -0.739   4.774  29.307  1.00 29.23 LIG-0.35  N 
ATOM     10 H    VAL C   5      -0.579   5.024  30.114  1.00 29.23 LIG 0.16  HD
ATOM     11  C   PRO C   4      -0.896   5.625  28.307  1.00 26.62 LIG 0.24  C 
ATOM     12 O    PRO C   4      -1.050   5.293  27.125  1.00 27.50 LIG-0.27  OA
BRANCH 11 13
ATOM     13  CA  PRO C   4      -0.773   7.076  28.699  1.00 24.57 LIG 0.18  C 
ATOM     14  N   PRO C   4      -0.846   7.848  27.469  1.00 25.19 LIG-0.34  N 
ATOM     15  C   PRO C   3       0.129   7.765  26.541  1.00 26.73 LIG 0.24  C 
ATOM     16  CD  PRO C   4      -2.000   8.757  27.515  1.00 25.69 LIG 0.13  C 
ATOM     17 O    PRO C   3       1.156   7.108  26.716  1.00 25.36 LIG-0.27  OA
ATOM     18  CG  PRO C   4      -2.191   8.927  28.996  1.00 24.59 LIG 0.02  C 
ATOM     19  CB  PRO C   4      -2.003   7.549  29.479  1.00 22.47 LIG 0.04  C 
BRANCH 15 20
ATOM     20  CA  PRO C   3      -0.037   8.606  25.279  1.00 28.16 LIG 0.18  C 
ATOM     21  N   PRO C   3       1.160   8.562  24.436  1.00 24.30 LIG-0.34  N 
ATOM     22  CD  PRO C   3       0.924   7.730  23.249  1.00 25.18 LIG 0.13  C 
ATOM     23  C   PRO C   2       2.313   9.121  24.820  1.00 26.75 LIG 0.24  C 
ATOM     24  CG  PRO C   3      -0.389   7.022  23.587  1.00 22.51 LIG 0.02  C 
ATOM     25  CB  PRO C   3      -1.123   8.033  24.359  1.00 21.93 LIG 0.04  C 
ATOM     26 O    PRO C   2       2.439   9.698  25.906  1.00 25.20 LIG-0.27  OA
BRANCH 23 27
ATOM     27  CA  PRO C   2       3.486   9.021  23.858  1.00 29.29 LIG 0.18  C 
ATOM     28  N   PRO C   2       4.438  10.115  24.102  1.00 27.80 LIG-0.34  N 
ATOM     29  C   ACE C   1       4.160  11.398  23.805  1.00 31.50 LIG 0.22  C 
ATOM     30  CD  PRO C   2       5.714   9.590  24.617  1.00 33.03 LIG 0.13  C 
ATOM     31 O    ACE C   1       3.115  11.721  23.241  1.00 38.95 LIG-0.27  OA
ATOM     32  CH3 ACE C   1       5.193  12.466  24.097  1.00 34.05 LIG 0.12  C 
ATOM     33  CG  PRO C   2       5.321   8.231  25.141  1.00 32.34 LIG 0.02  C 
ATOM     34  CB  PRO C   2       4.328   7.769  24.125  1.00 28.70 LIG 0.04  C 
ENDBRANCH 23 27
ENDBRANCH 15 20
ENDBRANCH 11 13
ENDBRANCH 8 9
BRANCH 8 35
ATOM     35  CB  VAL C   5      -0.828   2.685  30.524  1.00 35.33 LIG 0.01  C 
ATOM     36  CG2 VAL C   5       0.617   2.428  30.974  1.00 35.45 LIG 0.01  C 
ATOM     37  CG1 VAL C   5      -1.626   1.419  30.498  1.00 28.19 LIG 0.01  C 
ENDBRANCH 8 35
ENDBRANCH 1 8
BRANCH 4 38
ATOM     38  C   PRO C   6      -4.682   3.541  26.853  1.00 48.62 LIG 0.24  C 
ATOM     39 O    PRO C   6      -4.311   4.622  26.375  1.00 45.97 LIG-0.27  OA
ATOM     40  N   PRO C   7      -5.185   2.542  26.090  1.00 50.57 LIG-0.34  N 
ATOM     41  CA  PRO C   7      -5.317   2.635  24.633  1.00 53.29 LIG 0.18  C 
ATOM     42  CD  PRO C   7      -5.796   1.286  26.576  1.00 52.97 LIG 0.13  C 
ATOM     43  CB  PRO C   7      -6.307   1.514  24.316  1.00 53.80 LIG 0.04  C 
ATOM     44  CG  PRO C   7      -5.929   0.461  25.308  1.00 51.48 LIG 0.02  C 
BRANCH 41 45
ATOM     45  C   PRO C   7      -5.856   3.998  24.235  1.00 55.55 LIG 0.24  C 
ATOM     46 O    PRO C   7      -7.026   4.315  24.506  1.00 56.05 LIG-0.27  OA
ATOM     47  N   ARG C   8      -4.954   4.822  23.696  1.00 55.98 LIG-0.35  N 
ATOM     48 H    ARG C   8      -4.131   4.603  23.575  1.00 55.98 LIG 0.16  HD
BRANCH 47 49
ATOM     49  CA  ARG C   8      -5.270   6.176  23.258  1.00 59.84 LIG 0.16  C 
BRANCH 49 50
ATOM     50  C   ARG C   8      -5.977   6.209  21.906  1.00 63.97 LIG 0.22  C 
ATOM     51 O    ARG C   8      -5.566   5.412  21.030  1.00 69.17 LIG-0.29  OA
ENDBRANCH 49 50
BRANCH 49 52
ATOM     52  CB  ARG C   8      -3.999   7.031  23.205  1.00 59.33 LIG 0.04  C 
BRANCH 52 53
ATOM     53  CG  ARG C   8      -3.432   7.228  21.807  1.00 56.20 LIG 0.02  C 
BRANCH 53 54
ATOM     54  CD  ARG C   8      -3.497   8.671  21.358  1.00 50.77 LIG 0.14  C 
BRANCH 54 55
ATOM     55  NE  ARG C   8      -2.920   8.840  20.029  1.00 55.07 LIG-0.23  N 
ATOM     56  CZ  ARG C   8      -1.877   9.623  19.747  1.00 55.92 LIG 0.67  C 
ATOM     57  NH1 ARG C   8      -1.253  10.287  20.712  1.00 58.39 LIG-0.23  N 
ATOM     58  NH2 ARG C   8      -1.424   9.715  18.500  1.00 49.54 LIG-0.23  N 
ATOM     59 1HH1 ARG C   8      -1.520  10.214  21.527  1.00 58.39 LIG 0.17  HD
ATOM     60 2HH1 ARG C   8      -0.581  10.789  20.523  1.00 58.39 LIG 0.17  HD
ATOM     61 1HH2 ARG C   8      -1.804   9.269  17.870  1.00 49.54 LIG 0.17  HD
ATOM     62 2HH2 ARG C   8      -0.752  10.220  18.323  1.00 49.54 LIG 0.17  HD
ATOM     63 HE   ARG C   8      -3.279   8.405  19.380  1.00 55.07 LIG 0.18  HD
ENDBRANCH 54 55
ENDBRANCH 53 54
ENDBRANCH 52 53
ENDBRANCH 49 52
ENDBRANCH 47 49
ENDBRANCH 41 45
ENDBRANCH 4 38
TORSDOF 14
ENDMDL
MODEL 3
USER: ADFR SOLUTION from run 197
USER: SCORE 18.037634 LL:  -4.982 LR: -13.383 RR:   0.000 FEB:  -9.207
USER: RMSD 9.372961
USER: SEED 196
USER: STATUS no improvement in best in 5 clusters for 5 generations
USER: GENES 16
USER: genes 0 Translation |==|  0.22457 0.30528 0.47863
USER: genes 1 Rotation |==|  0.58325 0.86065 0.29547 0.76677
USER: genes 2 Torsion [N]-C--CA-[N] |==|  0.36333
USER: genes 3 Torsion [C]-CA--N-[C] |==|  0.58171
USER: genes 4 Torsion [N]-C--CA-[N] |==|  0.21180
USER: genes 5 Torsion [N]-C--CA-[CB] |==|  0.85160
USER: genes 6 Torsion [N]-C--CA-[N] |==|  0.51745
USER: genes 7 Torsion [C]-CA--CB-[CG2] |==|  0.82696
USER: genes 8 Torsion [N]-CA--C-[O] |==|  0.30488
USER: genes 9 Torsion [N]-CA--C-[O] |==|  0.91178
USER: genes 10 Torsion [C]-N--CA-[C] |==|  0.82441
USER: genes 11 Torsion [N]-CA--C-[O] |==|  0.83556
USER: genes 12 Torsion [N]-CA--CB-[CG] |==|  0.48704
USER: genes 13 Torsion [CA]-CB--CG-[CD] |==|  0.68120
USER: genes 14 Torsion [CB]-CG--CD-[NE] |==|  0.61945
USER: genes 15 Torsion [CG]-CD--NE-[CZ] |==|  0.49190
ROOT
ATOM      1  C   VAL C   5      -5.920   3.763  24.442  1.00 42.36 LIG 0.24  C 
ATOM      2 O    VAL C   5      -4.852   4.320  24.170  1.00 45.24 LIG-0.27  OA
ATOM      3  N   PRO C   6      -6.763   3.301  23.496  1.00 47.11 LIG-0.34  N 
ATOM      4  CA  PRO C   6      -6.552   3.349  22.043  1.00 46.93 LIG 0.18  C 
ATOM      5  CB  PRO C   6      -7.941   3.046  21.502  1.00 48.77 LIG 0.04  C 
ATOM      6  CG  PRO C   6      -8.483   2.100  22.514  1.00 47.44 LIG 0.02  C 
ATOM      7  CD  PRO C   6      -8.115   2.795  23.792  1.00 45.48 LIG 0.13  C 
ENDROOT
BRANCH 1 8
ATOM      8  CA  VAL C   5      -6.342   3.603  25.893  1.00 35.80 LIG 0.18  C 
BRANCH 8 9
ATOM      9  N   VAL C   5      -5.236   3.024  26.614  1.00 29.23 LIG-0.35  N 
ATOM     10 H    VAL C   5      -4.467   3.227  26.287  1.00 29.23 LIG 0.16  HD
ATOM     11  C   PRO C   4      -5.386   2.253  27.678  1.00 26.62 LIG 0.24  C 
ATOM     12 O    PRO C   4      -6.473   2.008  28.215  1.00 27.50 LIG-0.27  OA
BRANCH 11 13
ATOM     13  CA  PRO C   4      -4.094   1.755  28.273  1.00 24.57 LIG 0.18  C 
ATOM     14  N   PRO C   4      -3.512   2.870  29.003  1.00 25.19 LIG-0.34  N 
ATOM     15  C   PRO C   3      -3.072   3.967  28.354  1.00 26.73 LIG 0.24  C 
ATOM     16  CD  PRO C   4      -3.375   2.522  30.425  1.00 25.69 LIG 0.13  C 
ATOM     17 O    PRO C   3      -3.062   4.050  27.125  1.00 25.36 LIG-0.27  OA
ATOM     18  CG  PRO C   4      -3.304   1.023  30.362  1.00 24.59 LIG 0.02  C 
ATOM     19  CB  PRO C   4      -4.347   0.717  29.371  1.00 22.47 LIG 0.04  C 
BRANCH 15 20
ATOM     20  CA  PRO C   3      -2.484   5.090  29.204  1.00 28.16 LIG 0.18  C 
ATOM     21  N   PRO C   3      -2.309   6.321  28.429  1.00 24.30 LIG-0.34  N 
ATOM     22  CD  PRO C   3      -3.324   7.315  28.804  1.00 25.18 LIG 0.13  C 
ATOM     23  C   PRO C   2      -1.409   6.412  27.445  1.00 26.75 LIG 0.24  C 
ATOM     24  CG  PRO C   3      -4.314   6.492  29.631  1.00 22.51 LIG 0.02  C 
ATOM     25  CB  PRO C   3      -3.451   5.520  30.314  1.00 21.93 LIG 0.04  C 
ATOM     26 O    PRO C   2      -0.680   5.465  27.125  1.00 25.20 LIG-0.27  OA
BRANCH 23 27
ATOM     27  CA  PRO C   2      -1.309   7.743  26.716  1.00 29.29 LIG 0.18  C 
ATOM     28  N   PRO C   2      -0.388   7.630  25.576  1.00 27.80 LIG-0.34  N 
ATOM     29  C   ACE C   1       0.942   7.486  25.729  1.00 31.50 LIG 0.22  C 
ATOM     30  CD  PRO C   2      -1.114   7.781  24.303  1.00 33.03 LIG 0.13  C 
ATOM     31 O    ACE C   1       1.473   7.515  26.838  1.00 38.95 LIG-0.27  OA
ATOM     32  CH3 ACE C   1       1.819   7.367  24.500  1.00 34.05 LIG 0.12  C 
ATOM     33  CG  PRO C   2      -2.538   7.483  24.703  1.00 32.34 LIG 0.02  C 
ATOM     34  CB  PRO C   2      -2.636   8.120  26.050  1.00 28.70 LIG 0.04  C 
ENDBRANCH 23 27
ENDBRANCH 15 20
ENDBRANCH 11 13
ENDBRANCH 8 9
BRANCH 8 35
ATOM     35  CB  VAL C   5      -6.690   4.955  26.504  1.00 35.33 LIG 0.01  C 
ATOM     36  CG2 VAL C   5      -5.445   5.853  26.493  1.00 35.45 LIG 0.01  C 
ATOM     37  CG1 VAL C   5      -7.230   4.786  27.889  1.00 28.19 LIG 0.01  C 
ENDBRANCH 8 35
ENDBRANCH 1 8
BRANCH 4 38
ATOM     38  C   PRO C   6      -6.036   4.701  21.541  1.00 48.62 LIG 0.24  C 
ATOM     39 O    PRO C   6      -4.874   4.806  21.125  1.00 45.97 LIG-0.27  OA
ATOM     40  N   PRO C   7      -6.890   5.750  21.591  1.00 50.57 LIG-0.34  N 
ATOM     41  CA  PRO C   7      -6.530   7.097  21.142  1.00 53.29 LIG 0.18  C 
ATOM     42  CD  PRO C   7      -8.232   5.762  22.211  1.00 52.97 LIG 0.13  C 
ATOM     43  CB  PRO C   7      -7.602   7.966  21.800  1.00 53.80 LIG 0.04  C 
ATOM     44  CG  PRO C   7      -8.810   7.087  21.741  1.00 51.48 LIG 0.02  C 
BRANCH 41 45
ATOM     45  C   PRO C   7      -5.134   7.461  21.616  1.00 55.55 LIG 0.24  C 
ATOM     46 O    PRO C   7      -4.699   7.014  22.690  1.00 56.05 LIG-0.27  OA
ATOM     47  N   ARG C   8      -4.416   8.177  20.748  1.00 55.98 LIG-0.35  N 
ATOM     48 H    ARG C   8      -4.716   8.423  19.980  1.00 55.98 LIG 0.16  HD
BRANCH 47 49
ATOM     49  CA  ARG C   8      -3.050   8.616  21.011  1.00 59.84 LIG 0.16  C 
BRANCH 49 50
ATOM     50  C   ARG C   8      -2.956   9.572  22.197  1.00 63.97 LIG 0.22  C 
ATOM     51 O    ARG C   8      -3.613  10.637  22.122  1.00 69.17 LIG-0.29  OA
ENDBRANCH 49 50
BRANCH 49 52
ATOM     52  CB  ARG C   8      -2.449   9.270  19.762  1.00 59.33 LIG 0.04  C 
BRANCH 52 53
ATOM     53  CG  ARG C   8      -1.064   9.863  19.968  1.00 56.20 LIG 0.02  C 
BRANCH 53 54
ATOM     54  CD  ARG C   8      -1.054  11.368  19.815  1.00 50.77 LIG 0.14  C 
BRANCH 54 55
ATOM     55  NE  ARG C   8       0.100  11.816  19.043  1.00 55.07 LIG-0.23  N 
ATOM     56  CZ  ARG C   8       0.340  13.084  18.701  1.00 55.92 LIG 0.67  C 
ATOM     57  NH1 ARG C   8      -0.473  14.054  19.099  1.00 58.39 LIG-0.23  N 
ATOM     58  NH2 ARG C   8       1.421  13.394  17.991  1.00 49.54 LIG-0.23  N 
ATOM     59 1HH1 ARG C   8      -1.161  13.868  19.581  1.00 58.39 LIG 0.17  HD
ATOM     60 2HH1 ARG C   8      -0.312  14.869  18.875  1.00 58.39 LIG 0.17  HD
ATOM     61 1HH2 ARG C   8       1.969  12.777  17.750  1.00 49.54 LIG 0.17  HD
ATOM     62 2HH2 ARG C   8       1.572  14.212  17.773  1.00 49.54 LIG 0.17  HD
ATOM     63 HE   ARG C   8       0.666  11.221  18.790  1.00 55.07 LIG 0.18  HD
ENDBRANCH 54 55
ENDBRANCH 53 54
ENDBRANCH 52 53
ENDBRANCH 49 52
ENDBRANCH 47 49
ENDBRANCH 41 45
ENDBRANCH 4 38
TORSDOF 14
ENDMDL
MODEL 4
USER: ADFR SOLUTION from run 62
USER: SCORE 17.794784 LL:  -4.621 LR: -13.276 RR:   0.000 FEB:  -9.100
USER: RMSD 1.843705
USER: SEED 61
USER: STATUS no improvement in best in 4 clusters for 5 generations
USER: GENES 16
USER: genes 0 Translation |==|  0.60401 0.56868 0.50145
USER: genes 1 Rotation |==|  0.51419 0.51653 0.47539 0.99892
USER: genes 2 Torsion [N]-C--CA-[N] |==|  0.35000
USER: genes 3 Torsion [C]-CA--N-[C] |==|  0.75165
USER: genes 4 Torsion [N]-C--CA-[N] |==|  0.45250
USER: genes 5 Torsion [N]-C--CA-[CB] |==|  0.81592
USER: genes 6 Torsion [N]-C--CA-[N] |==|  0.39511
USER: genes 7 Torsion [C]-CA--CB-[CG2] |==|  0.37695
USER: genes 8 Torsion [N]-CA--C-[O] |==|  0.93032
USER: genes 9 Torsion [N]-CA--C-[O] |==|  0.86386
USER: genes 10 Torsion [C]-N--CA-[C] |==|  0.69647
USER: genes 11 Torsion [N]-CA--C-[O] |==|  0.07666
USER: genes 12 Torsion [N]-CA--CB-[CG] |==|  0.71720
USER: genes 13 Torsion [CA]-CB--CG-[CD] |==|  0.87398
USER: genes 14 Torsion [CB]-CG--CD-[NE] |==|  0.64779
USER: genes 15 Torsion [CG]-CD--NE-[CZ] |==|  0.27169
ROOT
ATOM      1  C   VAL C   5       2.333   9.689  24.904  1.00 42.36 LIG 0.24  C 
ATOM      2 O    VAL C   5       2.207  10.866  25.259  1.00 45.24 LIG-0.27  OA
ATOM      3  N   PRO C   6       3.537   9.114  24.704  1.00 47.11 LIG-0.34  N 
ATOM      4  CA  PRO C   6       4.848   9.747  24.896  1.00 46.93 LIG 0.18  C 
ATOM      5  CB  PRO C   6       5.784   8.785  24.181  1.00 48.77 LIG 0.04  C 
ATOM      6  CG  PRO C   6       5.141   7.466  24.430  1.00 47.44 LIG 0.02  C 
ATOM      7  CD  PRO C   6       3.707   7.774  24.115  1.00 45.48 LIG 0.13  C 
ENDROOT
BRANCH 1 8
ATOM      8  CA  VAL C   5       1.101   8.839  24.646  1.00 35.80 LIG 0.18  C 
BRANCH 8 9
ATOM      9  N   VAL C   5       0.284   8.873  25.834  1.00 29.23 LIG-0.35  N 
ATOM     10 H    VAL C   5      -0.295   9.509  25.836  1.00 29.23 LIG 0.16  HD
ATOM     11  C   PRO C   4       0.410   8.010  26.828  1.00 26.62 LIG 0.24  C 
ATOM     12 O    PRO C   4       1.180   7.041  26.818  1.00 27.50 LIG-0.27  OA
BRANCH 11 13
ATOM     13  CA  PRO C   4      -0.546   8.233  27.972  1.00 24.57 LIG 0.18  C 
ATOM     14  N   PRO C   4      -0.561   7.005  28.749  1.00 25.19 LIG-0.34  N 
ATOM     15  C   PRO C   3      -1.064   5.865  28.233  1.00 26.73 LIG 0.24  C 
ATOM     16  CD  PRO C   4      -0.107   7.273  30.121  1.00 25.69 LIG 0.13  C 
ATOM     17 O    PRO C   3      -1.604   5.821  27.127  1.00 25.36 LIG-0.27  OA
ATOM     18  CG  PRO C   4      -0.433   8.733  30.265  1.00 24.59 LIG 0.02  C 
ATOM     19  CB  PRO C   4       0.000   9.264  28.963  1.00 22.47 LIG 0.04  C 
BRANCH 15 20
ATOM     20  CA  PRO C   3      -1.031   4.624  29.120  1.00 28.16 LIG 0.18  C 
ATOM     21  N   PRO C   3      -1.621   3.462  28.451  1.00 24.30 LIG-0.34  N 
ATOM     22  CD  PRO C   3      -0.574   2.519  28.035  1.00 25.18 LIG 0.13  C 
ATOM     23  C   PRO C   2      -2.928   3.396  28.176  1.00 26.75 LIG 0.24  C 
ATOM     24  CG  PRO C   3       0.708   3.334  28.220  1.00 22.51 LIG 0.02  C 
ATOM     25  CB  PRO C   3       0.408   4.165  29.392  1.00 21.93 LIG 0.04  C 
ATOM     26 O    PRO C   2      -3.711   4.310  28.462  1.00 25.20 LIG-0.27  OA
BRANCH 23 27
ATOM     27  CA  PRO C   2      -3.429   2.137  27.487  1.00 29.29 LIG 0.18  C 
ATOM     28  N   PRO C   2      -4.750   1.763  28.011  1.00 27.80 LIG-0.34  N 
ATOM     29  C   ACE C   1      -4.928   1.285  29.258  1.00 31.50 LIG 0.22  C 
ATOM     30  CD  PRO C   2      -5.784   1.905  26.971  1.00 33.03 LIG 0.13  C 
ATOM     31 O    ACE C   1      -3.978   1.065  30.008  1.00 38.95 LIG-0.27  OA
ATOM     32  CH3 ACE C   1      -6.325   0.932  29.724  1.00 34.05 LIG 0.12  C 
ATOM     33  CG  PRO C   2      -5.128   2.842  25.987  1.00 32.34 LIG 0.02  C 
ATOM     34  CB  PRO C   2      -3.707   2.382  26.000  1.00 28.70 LIG 0.04  C 
ENDBRANCH 23 27
ENDBRANCH 15 20
ENDBRANCH 11 13
ENDBRANCH 8 9
BRANCH 8 35
ATOM     35  CB  VAL C   5       0.304   9.391  23.470  1.00 35.33 LIG 0.01  C 
ATOM     36  CG2 VAL C   5      -0.123   8.234  22.557  1.00 35.45 LIG 0.01  C 
ATOM     37  CG1 VAL C   5       1.104  10.411  22.723  1.00 28.19 LIG 0.01  C 
ENDBRANCH 8 35
ENDBRANCH 1 8
BRANCH 4 38
ATOM     38  C   PRO C   6       4.940  11.160  24.310  1.00 48.62 LIG 0.24  C 
ATOM     39 O    PRO C   6       4.200  11.495  23.377  1.00 45.97 LIG-0.27  OA
ATOM     40  N   PRO C   7       5.864  11.994  24.843  1.00 50.57 LIG-0.34  N 
ATOM     41  CA  PRO C   7       6.060  13.371  24.383  1.00 53.29 LIG 0.18  C 
ATOM     42  CD  PRO C   7       6.894  11.642  25.844  1.00 52.97 LIG 0.13  C 
ATOM     43  CB  PRO C   7       7.442  13.716  24.939  1.00 53.80 LIG 0.04  C 
ATOM     44  CG  PRO C   7       7.450  12.996  26.249  1.00 51.48 LIG 0.02  C 
BRANCH 41 45
ATOM     45  C   PRO C   7       6.025  13.434  22.866  1.00 55.55 LIG 0.24  C 
ATOM     46 O    PRO C   7       6.704  12.645  22.189  1.00 56.05 LIG-0.27  OA
ATOM     47  N   ARG C   8       5.146  14.302  22.361  1.00 55.98 LIG-0.35  N 
ATOM     48 H    ARG C   8       4.639  14.796  22.850  1.00 55.98 LIG 0.16  HD
BRANCH 47 49
ATOM     49  CA  ARG C   8       4.954  14.504  20.929  1.00 59.84 LIG 0.16  C 
BRANCH 49 50
ATOM     50  C   ARG C   8       5.482  15.852  20.447  1.00 63.97 LIG 0.22  C 
ATOM     51 O    ARG C   8       6.424  16.359  21.098  1.00 69.17 LIG-0.29  OA
ENDBRANCH 49 50
BRANCH 49 52
ATOM     52  CB  ARG C   8       3.473  14.360  20.563  1.00 59.33 LIG 0.04  C 
BRANCH 52 53
ATOM     53  CG  ARG C   8       3.109  13.025  19.930  1.00 56.20 LIG 0.02  C 
BRANCH 53 54
ATOM     54  CD  ARG C   8       4.095  12.608  18.861  1.00 50.77 LIG 0.14  C 
BRANCH 54 55
ATOM     55  NE  ARG C   8       3.418  12.300  17.606  1.00 55.07 LIG-0.23  N 
ATOM     56  CZ  ARG C   8       3.300  13.144  16.579  1.00 55.92 LIG 0.67  C 
ATOM     57  NH1 ARG C   8       3.852  14.350  16.631  1.00 58.39 LIG-0.23  N 
ATOM     58  NH2 ARG C   8       2.661  12.772  15.474  1.00 49.54 LIG-0.23  N 
ATOM     59 1HH1 ARG C   8       4.291  14.592  17.331  1.00 58.39 LIG 0.17  HD
ATOM     60 2HH1 ARG C   8       3.771  14.889  15.966  1.00 58.39 LIG 0.17  HD
ATOM     61 1HH2 ARG C   8       2.321  11.984  15.418  1.00 49.54 LIG 0.17  HD
ATOM     62 2HH2 ARG C   8       2.586  13.319  14.815  1.00 49.54 LIG 0.17  HD
ATOM     63 HE   ARG C   8       3.071  11.518  17.521  1.00 55.07 LIG 0.18  HD
ENDBRANCH 54 55
ENDBRANCH 53 54
ENDBRANCH 52 53
ENDBRANCH 49 52
ENDBRANCH 47 49
ENDBRANCH 41 45
ENDBRANCH 4 38
TORSDOF 14
ENDMDL
MODEL 5
USER: ADFR SOLUTION from run 112
USER: SCORE 17.793063 LL:  -4.740 LR: -13.186 RR:   0.000 FEB:  -9.010
USER: RMSD 9.019073
USER: SEED 111
USER: STATUS no improvement in best in 10 clusters for 5 generations
USER: GENES 16
USER: genes 0 Translation |==|  0.48851 0.37936 0.67314
USER: genes 1 Rotation |==|  0.20890 0.20330 0.77188 0.55756
USER: genes 2 Torsion [N]-C--CA-[N] |==|  0.45074
USER: genes 3 Torsion [C]-CA--N-[C] |==|  0.56568
USER: genes 4 Torsion [N]-C--CA-[N] |==|  0.24742
USER: genes 5 Torsion [N]-C--CA-[CB] |==|  0.69248
USER: genes 6 Torsion [N]-C--CA-[N] |==|  0.27872
USER: genes 7 Torsion [C]-CA--CB-[CG2] |==|  0.32950
USER: genes 8 Torsion [N]-CA--C-[O] |==|  0.93558
USER: genes 9 Torsion [N]-CA--C-[O] |==|  0.85505
USER: genes 10 Torsion [C]-N--CA-[C] |==|  0.80026
USER: genes 11 Torsion [N]-CA--C-[O] |==|  0.22331
USER: genes 12 Torsion [N]-CA--CB-[CG] |==|  0.72094
USER: genes 13 Torsion [CA]-CB--CG-[CD] |==|  0.58090
USER: genes 14 Torsion [CB]-CG--CD-[NE] |==|  0.83919
USER: genes 15 Torsion [CG]-CD--NE-[CZ] |==|  0.63178
ROOT
ATOM      1  C   VAL C   5      -0.179   5.430  28.381  1.00 42.36 LIG 0.24  C 
ATOM      2 O    VAL C   5       0.352   4.758  27.491  1.00 45.24 LIG-0.27  OA
ATOM      3  N   PRO C   6      -0.745   6.631  28.148  1.00 47.11 LIG-0.34  N 
ATOM      4  CA  PRO C   6      -0.854   7.305  26.847  1.00 46.93 LIG 0.18  C 
ATOM      5  CB  PRO C   6      -1.222   8.726  27.245  1.00 48.77 LIG 0.04  C 
ATOM      6  CG  PRO C   6      -2.056   8.515  28.458  1.00 47.44 LIG 0.02  C 
ATOM      7  CD  PRO C   6      -1.225   7.524  29.218  1.00 45.48 LIG 0.13  C 
ENDROOT
BRANCH 1 8
ATOM      8  CA  VAL C   5      -0.184   4.922  29.813  1.00 35.80 LIG 0.18  C 
BRANCH 8 9
ATOM      9  N   VAL C   5       0.067   3.502  29.780  1.00 29.23 LIG-0.35  N 
ATOM     10 H    VAL C   5       0.480   3.242  29.072  1.00 29.23 LIG 0.16  HD
ATOM     11  C   PRO C   4      -0.302   2.676  30.744  1.00 26.62 LIG 0.24  C 
ATOM     12 O    PRO C   4      -0.827   3.033  31.806  1.00 27.50 LIG-0.27  OA
BRANCH 11 13
ATOM     13  CA  PRO C   4       0.060   1.233  30.500  1.00 24.57 LIG 0.18  C 
ATOM     14  N   PRO C   4       1.391   1.037  31.050  1.00 25.19 LIG-0.34  N 
ATOM     15  C   PRO C   3       2.462   1.650  30.506  1.00 26.73 LIG 0.24  C 
ATOM     16  CD  PRO C   4       1.351   0.019  32.110  1.00 25.69 LIG 0.13  C 
ATOM     17 O    PRO C   3       2.386   2.330  29.482  1.00 25.36 LIG-0.27  OA
ATOM     18  CG  PRO C   4       0.138  -0.775  31.719  1.00 24.59 LIG 0.02  C 
ATOM     19  CB  PRO C   4      -0.805   0.290  31.341  1.00 22.47 LIG 0.04  C 
BRANCH 15 20
ATOM     20  CA  PRO C   3       3.818   1.391  31.156  1.00 28.16 LIG 0.18  C 
ATOM     21  N   PRO C   3       4.854   1.116  30.158  1.00 24.30 LIG-0.34  N 
ATOM     22  CD  PRO C   3       5.757   2.267  30.022  1.00 25.18 LIG 0.13  C 
ATOM     23  C   PRO C   2       4.844   0.001  29.421  1.00 26.75 LIG 0.24  C 
ATOM     24  CG  PRO C   3       5.014   3.372  30.776  1.00 22.51 LIG 0.02  C 
ATOM     25  CB  PRO C   3       4.351   2.644  31.865  1.00 21.93 LIG 0.04  C 
ATOM     26 O    PRO C   2       3.959  -0.856  29.530  1.00 25.20 LIG-0.27  OA
BRANCH 23 27
ATOM     27  CA  PRO C   2       5.976  -0.182  28.423  1.00 29.29 LIG 0.18  C 
ATOM     28  N   PRO C   2       6.992  -1.094  28.968  1.00 27.80 LIG-0.34  N 
ATOM     29  C   ACE C   1       7.798  -0.754  29.992  1.00 31.50 LIG 0.22  C 
ATOM     30  CD  PRO C   2       7.039  -2.345  28.192  1.00 33.03 LIG 0.13  C 
ATOM     31 O    ACE C   1       7.780   0.373  30.483  1.00 38.95 LIG-0.27  OA
ATOM     32  CH3 ACE C   1       8.812  -1.758  30.500  1.00 34.05 LIG 0.12  C 
ATOM     33  CG  PRO C   2       5.697  -2.351  27.502  1.00 32.34 LIG 0.02  C 
ATOM     34  CB  PRO C   2       5.503  -0.910  27.161  1.00 28.70 LIG 0.04  C 
ENDBRANCH 23 27
ENDBRANCH 15 20
ENDBRANCH 11 13
ENDBRANCH 8 9
BRANCH 8 35
ATOM     35  CB  VAL C   5       0.906   5.607  30.630  1.00 35.33 LIG 0.01  C 
ATOM     36  CG2 VAL C   5       0.262   6.388  31.783  1.00 35.45 LIG 0.01  C 
ATOM     37  CG1 VAL C   5       1.734   6.500  29.760  1.00 28.19 LIG 0.01  C 
ENDBRANCH 8 35
ENDBRANCH 1 8
BRANCH 4 38
ATOM     38  C   PRO C   6       0.438   7.268  26.025  1.00 48.62 LIG 0.24  C 
ATOM     39 O    PRO C   6       1.529   7.112  26.590  1.00 45.97 LIG-0.27  OA
ATOM     40  N   PRO C   7       0.328   7.430  24.686  1.00 50.57 LIG-0.34  N 
ATOM     41  CA  PRO C   7       1.479   7.414  23.779  1.00 53.29 LIG 0.18  C 
ATOM     42  CD  PRO C   7      -0.901   7.777  23.940  1.00 52.97 LIG 0.13  C 
ATOM     43  CB  PRO C   7       0.918   8.066  22.515  1.00 53.80 LIG 0.04  C 
ATOM     44  CG  PRO C   7      -0.491   7.565  22.493  1.00 51.48 LIG 0.02  C 
BRANCH 41 45
ATOM     45  C   PRO C   7       2.630   8.211  24.368  1.00 55.55 LIG 0.24  C 
ATOM     46 O    PRO C   7       2.451   9.376  24.760  1.00 56.05 LIG-0.27  OA
ATOM     47  N   ARG C   8       3.766   7.527  24.521  1.00 55.98 LIG-0.35  N 
ATOM     48 H    ARG C   8       3.849   6.700  24.300  1.00 55.98 LIG 0.16  HD
BRANCH 47 49
ATOM     49  CA  ARG C   8       4.981   8.110  25.078  1.00 59.84 LIG 0.16  C 
BRANCH 49 50
ATOM     50  C   ARG C   8       5.653   9.095  24.125  1.00 63.97 LIG 0.22  C 
ATOM     51 O    ARG C   8       5.177  10.253  24.077  1.00 69.17 LIG-0.29  OA
ENDBRANCH 49 50
BRANCH 49 52
ATOM     52  CB  ARG C   8       5.969   7.007  25.474  1.00 59.33 LIG 0.04  C 
BRANCH 52 53
ATOM     53  CG  ARG C   8       5.988   6.685  26.960  1.00 56.20 LIG 0.02  C 
BRANCH 53 54
ATOM     54  CD  ARG C   8       7.339   6.185  27.423  1.00 50.77 LIG 0.14  C 
BRANCH 54 55
ATOM     55  NE  ARG C   8       7.746   4.995  26.683  1.00 55.07 LIG-0.23  N 
ATOM     56  CZ  ARG C   8       8.227   3.882  27.240  1.00 55.92 LIG 0.67  C 
ATOM     57  NH1 ARG C   8       8.325   3.776  28.559  1.00 58.39 LIG-0.23  N 
ATOM     58  NH2 ARG C   8       8.575   2.847  26.480  1.00 49.54 LIG-0.23  N 
ATOM     59 1HH1 ARG C   8       8.078   4.429  29.062  1.00 58.39 LIG 0.17  HD
ATOM     60 2HH1 ARG C   8       8.636   3.056  28.911  1.00 58.39 LIG 0.17  HD
ATOM     61 1HH2 ARG C   8       8.491   2.894  25.625  1.00 49.54 LIG 0.17  HD
ATOM     62 2HH2 ARG C   8       8.884   2.132  26.842  1.00 49.54 LIG 0.17  HD
ATOM     63 HE   ARG C   8       7.672   5.012  25.827  1.00 55.07 LIG 0.18  HD
ENDBRANCH 54 55
ENDBRANCH 53 54
ENDBRANCH 52 53
ENDBRANCH 49 52
ENDBRANCH 47 49
ENDBRANCH 41 45
ENDBRANCH 4 38
TORSDOF 14
ENDMDL
MODEL 6
USER: ADFR SOLUTION from run 186
USER: SCORE 17.802613 LL:  -4.737 LR: -13.188 RR:   0.000 FEB:  -9.012
USER: RMSD 8.476186
USER: SEED 185
USER: STATUS no improvement in best in 16 clusters for 5 generations
USER: GENES 16
USER: genes 0 Translation |==|  0.49630 0.38957 0.66798
USER: genes 1 Rotation |==|  0.22190 0.21351 0.79205 0.57275
USER: genes 2 Torsion [N]-C--CA-[N] |==|  0.44934
USER: genes 3 Torsion [C]-CA--N-[C] |==|  0.59444
USER: genes 4 Torsion [N]-C--CA-[N] |==|  0.23795
USER: genes 5 Torsion [N]-C--CA-[CB] |==|  0.68856
USER: genes 6 Torsion [N]-C--CA-[N] |==|  0.28381
USER: genes 7 Torsion [C]-CA--CB-[CG2] |==|  0.35040
USER: genes 8 Torsion [N]-CA--C-[O] |==|  0.94274
USER: genes 9 Torsion [N]-CA--C-[O] |==|  0.80971
USER: genes 10 Torsion [C]-N--CA-[C] |==|  0.55850
USER: genes 11 Torsion [N]-CA--C-[O] |==|  0.65993
USER: genes 12 Torsion [N]-CA--CB-[CG] |==|  0.62855
USER: genes 13 Torsion [CA]-CB--CG-[CD] |==|  0.05491
USER: genes 14 Torsion [CB]-CG--CD-[NE] |==|  0.67850
USER: genes 15 Torsion [CG]-CD--NE-[CZ] |==|  0.53036
ROOT
ATOM      1  C   VAL C   5      -0.010   5.659  28.277  1.00 42.36 LIG 0.24  C 
ATOM      2 O    VAL C   5       0.404   4.954  27.351  1.00 45.24 LIG-0.27  OA
ATOM      3  N   PRO C   6      -0.581   6.864  28.075  1.00 47.11 LIG-0.34  N 
ATOM      4  CA  PRO C   6      -0.830   7.504  26.776  1.00 46.93 LIG 0.18  C 
ATOM      5  CB  PRO C   6      -1.128   8.942  27.171  1.00 48.77 LIG 0.04  C 
ATOM      6  CG  PRO C   6      -1.819   8.780  28.479  1.00 47.44 LIG 0.02  C 
ATOM      7  CD  PRO C   6      -0.920   7.795  29.166  1.00 45.48 LIG 0.13  C 
ENDROOT
BRANCH 1 8
ATOM      8  CA  VAL C   5       0.144   5.192  29.714  1.00 35.80 LIG 0.18  C 
BRANCH 8 9
ATOM      9  N   VAL C   5       0.356   3.765  29.694  1.00 29.23 LIG-0.35  N 
ATOM     10 H    VAL C   5       0.803   3.493  29.012  1.00 29.23 LIG 0.16  HD
ATOM     11  C   PRO C   4      -0.093   2.951  30.635  1.00 26.62 LIG 0.24  C 
ATOM     12 O    PRO C   4      -0.670   3.323  31.664  1.00 27.50 LIG-0.27  OA
BRANCH 11 13
ATOM     13  CA  PRO C   4       0.242   1.498  30.412  1.00 24.57 LIG 0.18  C 
ATOM     14  N   PRO C   4       1.568   1.285  30.968  1.00 25.19 LIG-0.34  N 
ATOM     15  C   PRO C   3       2.652   1.869  30.418  1.00 26.73 LIG 0.24  C 
ATOM     16  CD  PRO C   4       1.507   0.283  32.042  1.00 25.69 LIG 0.13  C 
ATOM     17 O    PRO C   3       2.591   2.537  29.384  1.00 25.36 LIG-0.27  OA
ATOM     18  CG  PRO C   4       0.279  -0.494  31.659  1.00 24.59 LIG 0.02  C 
ATOM     19  CB  PRO C   4      -0.643   0.584  31.264  1.00 22.47 LIG 0.04  C 
BRANCH 15 20
ATOM     20  CA  PRO C   3       4.001   1.594  31.075  1.00 28.16 LIG 0.18  C 
ATOM     21  N   PRO C   3       5.026   1.253  30.086  1.00 24.30 LIG-0.34  N 
ATOM     22  CD  PRO C   3       5.963   2.371  29.907  1.00 25.18 LIG 0.13  C 
ATOM     23  C   PRO C   2       4.981   0.112  29.389  1.00 26.75 LIG 0.24  C 
ATOM     24  CG  PRO C   3       5.254   3.523  30.622  1.00 22.51 LIG 0.02  C 
ATOM     25  CB  PRO C   3       4.572   2.854  31.737  1.00 21.93 LIG 0.04  C 
ATOM     26 O    PRO C   2       4.071  -0.713  29.530  1.00 25.20 LIG-0.27  OA
BRANCH 23 27
ATOM     27  CA  PRO C   2       6.105  -0.139  28.396  1.00 29.29 LIG 0.18  C 
ATOM     28  N   PRO C   2       7.072  -1.095  28.955  1.00 27.80 LIG-0.34  N 
ATOM     29  C   ACE C   1       7.892  -0.784  29.977  1.00 31.50 LIG 0.22  C 
ATOM     30  CD  PRO C   2       7.057  -2.356  28.194  1.00 33.03 LIG 0.13  C 
ATOM     31 O    ACE C   1       7.930   0.349  30.455  1.00 38.95 LIG-0.27  OA
ATOM     32  CH3 ACE C   1       8.853  -1.832  30.500  1.00 34.05 LIG 0.12  C 
ATOM     33  CG  PRO C   2       5.718  -2.303  27.500  1.00 32.34 LIG 0.02  C 
ATOM     34  CB  PRO C   2       5.598  -0.858  27.141  1.00 28.70 LIG 0.04  C 
ENDBRANCH 23 27
ENDBRANCH 15 20
ENDBRANCH 11 13
ENDBRANCH 8 9
BRANCH 8 35
ATOM     35  CB  VAL C   5       1.339   5.870  30.375  1.00 35.33 LIG 0.01  C 
ATOM     36  CG2 VAL C   5       0.885   6.544  31.677  1.00 35.45 LIG 0.01  C 
ATOM     37  CG1 VAL C   5       1.970   6.854  29.441  1.00 28.19 LIG 0.01  C 
ENDBRANCH 8 35
ENDBRANCH 1 8
BRANCH 4 38
ATOM     38  C   PRO C   6       0.358   7.421  25.812  1.00 48.62 LIG 0.24  C 
ATOM     39 O    PRO C   6       1.498   7.213  26.247  1.00 45.97 LIG-0.27  OA
ATOM     40  N   PRO C   7       0.102   7.600  24.494  1.00 50.57 LIG-0.34  N 
ATOM     41  CA  PRO C   7       1.141   7.544  23.462  1.00 53.29 LIG 0.18  C 
ATOM     42  CD  PRO C   7      -1.187   8.006  23.896  1.00 52.97 LIG 0.13  C 
ATOM     43  CB  PRO C   7       0.469   8.233  22.274  1.00 53.80 LIG 0.04  C 
ATOM     44  CG  PRO C   7      -0.954   7.792  22.410  1.00 51.48 LIG 0.02  C 
BRANCH 41 45
ATOM     45  C   PRO C   7       2.385   8.286  23.920  1.00 55.55 LIG 0.24  C 
ATOM     46 O    PRO C   7       2.368   9.522  24.047  1.00 56.05 LIG-0.27  OA
ATOM     47  N   ARG C   8       3.409   7.503  24.267  1.00 55.98 LIG-0.35  N 
ATOM     48 H    ARG C   8       3.377   6.644  24.230  1.00 55.98 LIG 0.16  HD
BRANCH 47 49
ATOM     49  CA  ARG C   8       4.686   8.022  24.742  1.00 59.84 LIG 0.16  C 
BRANCH 49 50
ATOM     50  C   ARG C   8       5.825   7.019  24.586  1.00 63.97 LIG 0.22  C 
ATOM     51 O    ARG C   8       6.449   6.701  25.625  1.00 69.17 LIG-0.29  OA
ENDBRANCH 49 50
BRANCH 49 52
ATOM     52  CB  ARG C   8       4.573   8.462  26.205  1.00 59.33 LIG 0.04  C 
BRANCH 52 53
ATOM     53  CG  ARG C   8       5.185   9.823  26.501  1.00 56.20 LIG 0.02  C 
BRANCH 53 54
ATOM     54  CD  ARG C   8       5.348  10.664  25.254  1.00 50.77 LIG 0.14  C 
BRANCH 54 55
ATOM     55  NE  ARG C   8       6.755  10.929  24.972  1.00 55.07 LIG-0.23  N 
ATOM     56  CZ  ARG C   8       7.196  11.805  24.068  1.00 55.92 LIG 0.67  C 
ATOM     57  NH1 ARG C   8       6.341  12.548  23.375  1.00 58.39 LIG-0.23  N 
ATOM     58  NH2 ARG C   8       8.501  11.975  23.880  1.00 49.54 LIG-0.23  N 
ATOM     59 1HH1 ARG C   8       5.495  12.465  23.508  1.00 58.39 LIG 0.17  HD
ATOM     60 2HH1 ARG C   8       6.633  13.111  22.795  1.00 58.39 LIG 0.17  HD
ATOM     61 1HH2 ARG C   8       9.066  11.519  24.341  1.00 49.54 LIG 0.17  HD
ATOM     62 2HH2 ARG C   8       8.782  12.541  23.296  1.00 49.54 LIG 0.17  HD
ATOM     63 HE   ARG C   8       7.341  10.488  25.420  1.00 55.07 LIG 0.18  HD
ENDBRANCH 54 55
ENDBRANCH 53 54
ENDBRANCH 52 53
ENDBRANCH 49 52
ENDBRANCH 47 49
ENDBRANCH 41 45
ENDBRANCH 4 38
TORSDOF 14
ENDMDL
MODEL 7
USER: ADFR SOLUTION from run 151
USER: SCORE 17.600185 LL:  -4.805 LR: -13.138 RR:   0.000 FEB:  -8.962
USER: RMSD 7.969680
USER: SEED 150
USER: STATUS no improvement in best in 4 clusters for 5 generations
USER: GENES 16
USER: genes 0 Translation |==|  0.27253 0.41849 0.41917
USER: genes 1 Rotation |==|  0.70095 0.87603 0.34483 0.71009
USER: genes 2 Torsion [N]-C--CA-[N] |==|  0.27631
USER: genes 3 Torsion [C]-CA--N-[C] |==|  0.67922
USER: genes 4 Torsion [N]-C--CA-[N] |==|  0.23120
USER: genes 5 Torsion [N]-C--CA-[CB] |==|  0.86754
USER: genes 6 Torsion [N]-C--CA-[N] |==|  0.46559
USER: genes 7 Torsion [C]-CA--CB-[CG2] |==|  0.49577
USER: genes 8 Torsion [N]-CA--C-[O] |==|  0.34666
USER: genes 9 Torsion [N]-CA--C-[O] |==|  0.77596
USER: genes 10 Torsion [C]-N--CA-[C] |==|  0.10650
USER: genes 11 Torsion [N]-CA--C-[O] |==|  0.36794
USER: genes 12 Torsion [N]-CA--CB-[CG] |==|  0.82244
USER: genes 13 Torsion [CA]-CB--CG-[CD] |==|  0.63139
USER: genes 14 Torsion [CB]-CG--CD-[NE] |==|  0.29635
USER: genes 15 Torsion [CG]-CD--NE-[CZ] |==|  0.36937
ROOT
ATOM      1  C   VAL C   5      -4.876   6.310  23.238  1.00 42.36 LIG 0.24  C 
ATOM      2 O    VAL C   5      -3.669   6.567  23.193  1.00 45.24 LIG-0.27  OA
ATOM      3  N   PRO C   6      -5.720   6.592  22.224  1.00 47.11 LIG-0.34  N 
ATOM      4  CA  PRO C   6      -5.360   7.198  20.935  1.00 46.93 LIG 0.18  C 
ATOM      5  CB  PRO C   6      -6.714   7.608  20.377  1.00 48.77 LIG 0.04  C 
ATOM      6  CG  PRO C   6      -7.611   6.538  20.889  1.00 47.44 LIG 0.02  C 
ATOM      7  CD  PRO C   6      -7.184   6.456  22.324  1.00 45.48 LIG 0.13  C 
ENDROOT
BRANCH 1 8
ATOM      8  CA  VAL C   5      -5.471   5.676  24.485  1.00 35.80 LIG 0.18  C 
BRANCH 8 9
ATOM      9  N   VAL C   5      -5.223   4.257  24.421  1.00 29.23 LIG-0.35  N 
ATOM     10 H    VAL C   5      -4.388   4.052  24.449  1.00 29.23 LIG 0.16  HD
ATOM     11  C   PRO C   4      -6.185   3.355  24.326  1.00 26.62 LIG 0.24  C 
ATOM     12 O    PRO C   4      -7.394   3.617  24.361  1.00 27.50 LIG-0.27  OA
BRANCH 11 13
ATOM     13  CA  PRO C   4      -5.699   1.929  24.270  1.00 24.57 LIG 0.18  C 
ATOM     14  N   PRO C   4      -5.472   1.511  25.644  1.00 25.19 LIG-0.34  N 
ATOM     15  C   PRO C   3      -4.495   2.071  26.386  1.00 26.73 LIG 0.24  C 
ATOM     16  CD  PRO C   4      -6.335   0.365  25.968  1.00 25.69 LIG 0.13  C 
ATOM     17 O    PRO C   3      -3.702   2.892  25.925  1.00 25.36 LIG-0.27  OA
ATOM     18  CG  PRO C   4      -6.573  -0.226  24.608  1.00 24.59 LIG 0.02  C 
ATOM     19  CB  PRO C   4      -6.803   0.980  23.796  1.00 22.47 LIG 0.04  C 
BRANCH 15 20
ATOM     20  CA  PRO C   3      -4.338   1.573  27.820  1.00 28.16 LIG 0.18  C 
ATOM     21  N   PRO C   3      -3.562   2.510  28.637  1.00 24.30 LIG-0.34  N 
ATOM     22  CD  PRO C   3      -4.440   3.231  29.568  1.00 25.18 LIG 0.13  C 
ATOM     23  C   PRO C   2      -2.259   2.719  28.423  1.00 26.75 LIG 0.24  C 
ATOM     24  CG  PRO C   3      -5.838   2.895  29.044  1.00 22.51 LIG 0.02  C 
ATOM     25  CB  PRO C   3      -5.687   1.521  28.549  1.00 21.93 LIG 0.04  C 
ATOM     26 O    PRO C   2      -1.636   2.144  27.523  1.00 25.20 LIG-0.27  OA
BRANCH 23 27
ATOM     27  CA  PRO C   2      -1.555   3.707  29.340  1.00 29.29 LIG 0.18  C 
ATOM     28  N   PRO C   2      -0.098   3.605  29.174  1.00 27.80 LIG-0.34  N 
ATOM     29  C   ACE C   1       0.607   2.538  29.597  1.00 31.50 LIG 0.22  C 
ATOM     30  CD  PRO C   2       0.446   4.837  28.579  1.00 33.03 LIG 0.13  C 
ATOM     31 O    ACE C   1       0.079   1.616  30.215  1.00 38.95 LIG-0.27  OA
ATOM     32  CH3 ACE C   1       2.106   2.508  29.377  1.00 34.05 LIG 0.12  C 
ATOM     33  CG  PRO C   2      -0.773   5.458  27.942  1.00 32.34 LIG 0.02  C 
ATOM     34  CB  PRO C   2      -1.846   5.156  28.936  1.00 28.70 LIG 0.04  C 
ENDBRANCH 23 27
ENDBRANCH 15 20
ENDBRANCH 11 13
ENDBRANCH 8 9
BRANCH 8 35
ATOM     35  CB  VAL C   5      -4.819   6.246  25.739  1.00 35.33 LIG 0.01  C 
ATOM     36  CG2 VAL C   5      -5.467   5.615  26.980  1.00 35.45 LIG 0.01  C 
ATOM     37  CG1 VAL C   5      -4.932   7.738  25.763  1.00 28.19 LIG 0.01  C 
ENDBRANCH 8 35
ENDBRANCH 1 8
BRANCH 4 38
ATOM     38  C   PRO C   6      -4.417   8.398  21.061  1.00 48.62 LIG 0.24  C 
ATOM     39 O    PRO C   6      -3.343   8.412  20.445  1.00 45.97 LIG-0.27  OA
ATOM     40  N   PRO C   7      -4.803   9.409  21.875  1.00 50.57 LIG-0.34  N 
ATOM     41  CA  PRO C   7      -4.001  10.617  22.087  1.00 53.29 LIG 0.18  C 
ATOM     42  CD  PRO C   7      -5.981   9.417  22.768  1.00 52.97 LIG 0.13  C 
ATOM     43  CB  PRO C   7      -4.603  11.196  23.368  1.00 53.80 LIG 0.04  C 
ATOM     44  CG  PRO C   7      -6.054  10.866  23.219  1.00 51.48 LIG 0.02  C 
BRANCH 41 45
ATOM     45  C   PRO C   7      -2.535  10.258  22.259  1.00 55.55 LIG 0.24  C 
ATOM     46 O    PRO C   7      -2.112   9.854  23.355  1.00 56.05 LIG-0.27  OA
ATOM     47  N   ARG C   8      -1.811  10.308  21.139  1.00 55.98 LIG-0.35  N 
ATOM     48 H    ARG C   8      -2.140  10.531  20.376  1.00 55.98 LIG 0.16  HD
BRANCH 47 49
ATOM     49  CA  ARG C   8      -0.388   9.990  21.093  1.00 59.84 LIG 0.16  C 
BRANCH 49 50
ATOM     50  C   ARG C   8      -0.015   8.819  21.998  1.00 63.97 LIG 0.22  C 
ATOM     51 O    ARG C   8       0.707   7.924  21.500  1.00 69.17 LIG-0.29  OA
ENDBRANCH 49 50
BRANCH 49 52
ATOM     52  CB  ARG C   8       0.446  11.222  21.461  1.00 59.33 LIG 0.04  C 
BRANCH 52 53
ATOM     53  CG  ARG C   8       0.313  12.384  20.488  1.00 56.20 LIG 0.02  C 
BRANCH 53 54
ATOM     54  CD  ARG C   8       1.655  12.962  20.097  1.00 50.77 LIG 0.14  C 
BRANCH 54 55
ATOM     55  NE  ARG C   8       2.014  12.597  18.731  1.00 55.07 LIG-0.23  N 
ATOM     56  CZ  ARG C   8       2.476  13.448  17.813  1.00 55.92 LIG 0.67  C 
ATOM     57  NH1 ARG C   8       2.684  14.722  18.120  1.00 58.39 LIG-0.23  N 
ATOM     58  NH2 ARG C   8       2.774  13.019  16.590  1.00 49.54 LIG-0.23  N 
ATOM     59 1HH1 ARG C   8       2.521  15.005  18.916  1.00 58.39 LIG 0.17  HD
ATOM     60 2HH1 ARG C   8       2.983  15.265  17.523  1.00 58.39 LIG 0.17  HD
ATOM     61 1HH2 ARG C   8       2.668  12.190  16.386  1.00 49.54 LIG 0.17  HD
ATOM     62 2HH2 ARG C   8       3.072  13.571  16.001  1.00 49.54 LIG 0.17  HD
ATOM     63 HE   ARG C   8       1.920  11.774  18.500  1.00 55.07 LIG 0.18  HD
ENDBRANCH 54 55
ENDBRANCH 53 54
ENDBRANCH 52 53
ENDBRANCH 49 52
ENDBRANCH 47 49
ENDBRANCH 41 45
ENDBRANCH 4 38
TORSDOF 14
ENDMDL
MODEL 8
USER: ADFR SOLUTION from run 131
USER: SCORE 18.643642 LL:  -6.068 LR: -12.988 RR:   0.000 FEB:  -8.812
USER: RMSD 8.158636
USER: SEED 130
USER: STATUS 1 or 2 clusters left
USER: GENES 16
USER: genes 0 Translation |==|  0.32113 0.52365 0.35788
USER: genes 1 Rotation |==|  0.36211 0.06432 0.58208 0.68557
USER: genes 2 Torsion [N]-C--CA-[N] |==|  0.84100
USER: genes 3 Torsion [C]-CA--N-[C] |==|  0.83529
USER: genes 4 Torsion [N]-C--CA-[N] |==|  0.54420
USER: genes 5 Torsion [N]-C--CA-[CB] |==|  0.73270
USER: genes 6 Torsion [N]-C--CA-[N] |==|  0.49681
USER: genes 7 Torsion [C]-CA--CB-[CG2] |==|  0.48711
USER: genes 8 Torsion [N]-CA--C-[O] |==|  0.30200
USER: genes 9 Torsion [N]-CA--C-[O] |==|  0.36660
USER: genes 10 Torsion [C]-N--CA-[C] |==|  0.62429
USER: genes 11 Torsion [N]-CA--C-[O] |==|  0.78006
USER: genes 12 Torsion [N]-CA--CB-[CG] |==|  0.76682
USER: genes 13 Torsion [CA]-CB--CG-[CD] |==|  0.59244
USER: genes 14 Torsion [CB]-CG--CD-[NE] |==|  0.16086
USER: genes 15 Torsion [CG]-CD--NE-[CZ] |==|  0.30909
ROOT
ATOM      1  C   VAL C   5      -3.819   8.676  21.997  1.00 42.36 LIG 0.24  C 
ATOM      2 O    VAL C   5      -3.450   9.428  21.090  1.00 45.24 LIG-0.27  OA
ATOM      3  N   PRO C   6      -4.643   9.078  22.987  1.00 47.11 LIG-0.34  N 
ATOM      4  CA  PRO C   6      -5.243  10.411  23.133  1.00 46.93 LIG 0.18  C 
ATOM      5  CB  PRO C   6      -5.741  10.389  24.570  1.00 48.77 LIG 0.04  C 
ATOM      6  CG  PRO C   6      -6.138   8.967  24.752  1.00 47.44 LIG 0.02  C 
ATOM      7  CD  PRO C   6      -4.954   8.254  24.168  1.00 45.48 LIG 0.13  C 
ENDROOT
BRANCH 1 8
ATOM      8  CA  VAL C   5      -3.319   7.242  22.044  1.00 35.80 LIG 0.18  C 
BRANCH 8 9
ATOM      9  N   VAL C   5      -2.645   7.050  23.305  1.00 29.23 LIG-0.35  N 
ATOM     10 H    VAL C   5      -2.990   6.429  23.789  1.00 29.23 LIG 0.16  HD
ATOM     11  C   PRO C   4      -1.597   7.762  23.685  1.00 26.62 LIG 0.24  C 
ATOM     12 O    PRO C   4      -1.035   8.608  22.979  1.00 27.50 LIG-0.27  OA
BRANCH 11 13
ATOM     13  CA  PRO C   4      -1.054   7.394  25.042  1.00 24.57 LIG 0.18  C 
ATOM     14  N   PRO C   4      -0.189   8.487  25.456  1.00 25.19 LIG-0.34  N 
ATOM     15  C   PRO C   3       0.959   8.748  24.799  1.00 26.73 LIG 0.24  C 
ATOM     16  CD  PRO C   4      -0.695   9.083  26.701  1.00 25.69 LIG 0.13  C 
ATOM     17 O    PRO C   3       1.373   8.038  23.881  1.00 25.36 LIG-0.27  OA
ATOM     18  CG  PRO C   4      -1.467   7.938  27.291  1.00 24.59 LIG 0.02  C 
ATOM     19  CB  PRO C   4      -2.155   7.402  26.106  1.00 22.47 LIG 0.04  C 
BRANCH 15 20
ATOM     20  CA  PRO C   3       1.798   9.920  25.300  1.00 28.16 LIG 0.18  C 
ATOM     21  N   PRO C   3       3.228   9.702  25.068  1.00 24.30 LIG-0.34  N 
ATOM     22  CD  PRO C   3       3.706  10.547  23.964  1.00 25.18 LIG 0.13  C 
ATOM     23  C   PRO C   2       3.912   8.758  25.722  1.00 26.75 LIG 0.24  C 
ATOM     24  CG  PRO C   3       2.405  11.058  23.342  1.00 22.51 LIG 0.02  C 
ATOM     25  CB  PRO C   3       1.514  11.198  24.500  1.00 21.93 LIG 0.04  C 
ATOM     26 O    PRO C   2       3.380   8.010  26.551  1.00 25.20 LIG-0.27  OA
BRANCH 23 27
ATOM     27  CA  PRO C   2       5.394   8.629  25.405  1.00 29.29 LIG 0.18  C 
ATOM     28  N   PRO C   2       5.998   7.569  26.225  1.00 27.80 LIG-0.34  N 
ATOM     29  C   ACE C   1       6.178   7.693  27.554  1.00 31.50 LIG 0.22  C 
ATOM     30  CD  PRO C   2       6.433   6.443  25.382  1.00 33.03 LIG 0.13  C 
ATOM     31 O    ACE C   1       5.911   8.736  28.149  1.00 38.95 LIG-0.27  OA
ATOM     32  CH3 ACE C   1       6.800   6.548  28.326  1.00 34.05 LIG 0.12  C 
ATOM     33  CG  PRO C   2       5.623   6.644  24.125  1.00 32.34 LIG 0.02  C 
ATOM     34  CB  PRO C   2       5.623   8.130  23.975  1.00 28.70 LIG 0.04  C 
ENDBRANCH 23 27
ENDBRANCH 15 20
ENDBRANCH 11 13
ENDBRANCH 8 9
BRANCH 8 35
ATOM     35  CB  VAL C   5      -4.483   6.264  21.941  1.00 35.33 LIG 0.01  C 
ATOM     36  CG2 VAL C   5      -3.937   4.830  21.874  1.00 35.45 LIG 0.01  C 
ATOM     37  CG1 VAL C   5      -5.334   6.580  20.751  1.00 28.19 LIG 0.01  C 
ENDBRANCH 8 35
ENDBRANCH 1 8
BRANCH 4 38
ATOM     38  C   PRO C   6      -4.258  11.559  22.897  1.00 48.62 LIG 0.24  C 
ATOM     39 O    PRO C   6      -4.345  12.254  21.876  1.00 45.97 LIG-0.27  OA
ATOM     40  N   PRO C   7      -3.299  11.756  23.832  1.00 50.57 LIG-0.34  N 
ATOM     41  CA  PRO C   7      -2.293  12.818  23.736  1.00 53.29 LIG 0.18  C 
ATOM     42  CD  PRO C   7      -3.014  10.891  24.997  1.00 52.97 LIG 0.13  C 
ATOM     43  CB  PRO C   7      -1.225  12.356  24.728  1.00 53.80 LIG 0.04  C 
ATOM     44  CG  PRO C   7      -2.041  11.727  25.811  1.00 51.48 LIG 0.02  C 
BRANCH 41 45
ATOM     45  C   PRO C   7      -1.752  12.911  22.320  1.00 55.55 LIG 0.24  C 
ATOM     46 O    PRO C   7      -1.670  14.011  21.750  1.00 56.05 LIG-0.27  OA
ATOM     47  N   ARG C   8      -1.289  11.763  21.821  1.00 55.98 LIG-0.35  N 
ATOM     48 H    ARG C   8      -1.299  11.022  22.258  1.00 55.98 LIG 0.16  HD
BRANCH 47 49
ATOM     49  CA  ARG C   8      -0.720  11.645  20.483  1.00 59.84 LIG 0.16  C 
BRANCH 49 50
ATOM     50  C   ARG C   8      -1.230  10.418  19.731  1.00 63.97 LIG 0.22  C 
ATOM     51 O    ARG C   8      -0.708   9.317  20.021  1.00 69.17 LIG-0.29  OA
ENDBRANCH 49 50
BRANCH 49 52
ATOM     52  CB  ARG C   8       0.810  11.618  20.554  1.00 59.33 LIG 0.04  C 
BRANCH 52 53
ATOM     53  CG  ARG C   8       1.461  12.991  20.620  1.00 56.20 LIG 0.02  C 
BRANCH 53 54
ATOM     54  CD  ARG C   8       2.799  13.028  19.915  1.00 50.77 LIG 0.14  C 
BRANCH 54 55
ATOM     55  NE  ARG C   8       2.672  12.640  18.514  1.00 55.07 LIG-0.23  N 
ATOM     56  CZ  ARG C   8       2.835  13.467  17.479  1.00 55.92 LIG 0.67  C 
ATOM     57  NH1 ARG C   8       3.178  14.733  17.676  1.00 58.39 LIG-0.23  N 
ATOM     58  NH2 ARG C   8       2.696  13.019  16.235  1.00 49.54 LIG-0.23  N 
ATOM     59 1HH1 ARG C   8       3.298  15.027  18.476  1.00 58.39 LIG 0.17  HD
ATOM     60 2HH1 ARG C   8       3.282  15.260  17.004  1.00 58.39 LIG 0.17  HD
ATOM     61 1HH2 ARG C   8       2.499  12.194  16.093  1.00 49.54 LIG 0.17  HD
ATOM     62 2HH2 ARG C   8       2.802  13.555  15.570  1.00 49.54 LIG 0.17  HD
ATOM     63 HE   ARG C   8       2.478  11.820  18.343  1.00 55.07 LIG 0.18  HD
ENDBRANCH 54 55
ENDBRANCH 53 54
ENDBRANCH 52 53
ENDBRANCH 49 52
ENDBRANCH 47 49
ENDBRANCH 41 45
ENDBRANCH 4 38
TORSDOF 14
ENDMDL
MODEL 9
USER: ADFR SOLUTION from run 197
USER: SCORE 17.148586 LL:  -4.526 LR: -12.925 RR:   0.000 FEB:  -8.749
USER: RMSD 9.456674
USER: SEED 196
USER: STATUS no improvement in best in 5 clusters for 5 generations
USER: GENES 16
USER: genes 0 Translation |==|  0.21583 0.30418 0.47888
USER: genes 1 Rotation |==|  0.58678 0.85504 0.29406 0.77203
USER: genes 2 Torsion [N]-C--CA-[N] |==|  0.29444
USER: genes 3 Torsion [C]-CA--N-[C] |==|  0.63588
USER: genes 4 Torsion [N]-C--CA-[N] |==|  0.23890
USER: genes 5 Torsion [N]-C--CA-[CB] |==|  0.69696
USER: genes 6 Torsion [N]-C--CA-[N] |==|  0.48906
USER: genes 7 Torsion [C]-CA--CB-[CG2] |==|  0.81088
USER: genes 8 Torsion [N]-CA--C-[O] |==|  0.30981
USER: genes 9 Torsion [N]-CA--C-[O] |==|  0.91105
USER: genes 10 Torsion [C]-N--CA-[C] |==|  0.84047
USER: genes 11 Torsion [N]-CA--C-[O] |==|  0.82279
USER: genes 12 Torsion [N]-CA--CB-[CG] |==|  0.48796
USER: genes 13 Torsion [CA]-CB--CG-[CD] |==|  0.67106
USER: genes 14 Torsion [CB]-CG--CD-[NE] |==|  0.62398
USER: genes 15 Torsion [CG]-CD--NE-[CZ] |==|  0.49027
ROOT
ATOM      1  C   VAL C   5      -6.110   3.738  24.447  1.00 42.36 LIG 0.24  C 
ATOM      2 O    VAL C   5      -5.029   4.284  24.204  1.00 45.24 LIG-0.27  OA
ATOM      3  N   PRO C   6      -6.926   3.274  23.479  1.00 47.11 LIG-0.34  N 
ATOM      4  CA  PRO C   6      -6.669   3.307  22.033  1.00 46.93 LIG 0.18  C 
ATOM      5  CB  PRO C   6      -8.042   3.011  21.450  1.00 48.77 LIG 0.04  C 
ATOM      6  CG  PRO C   6      -8.624   2.078  22.453  1.00 47.44 LIG 0.02  C 
ATOM      7  CD  PRO C   6      -8.291   2.782  23.736  1.00 45.48 LIG 0.13  C 
ENDROOT
BRANCH 1 8
ATOM      8  CA  VAL C   5      -6.580   3.595  25.885  1.00 35.80 LIG 0.18  C 
BRANCH 8 9
ATOM      9  N   VAL C   5      -5.814   2.537  26.497  1.00 29.23 LIG-0.35  N 
ATOM     10 H    VAL C   5      -4.967   2.608  26.372  1.00 29.23 LIG 0.16  HD
ATOM     11  C   PRO C   4      -6.361   1.549  27.186  1.00 26.62 LIG 0.24  C 
ATOM     12 O    PRO C   4      -7.568   1.464  27.446  1.00 27.50 LIG-0.27  OA
BRANCH 11 13
ATOM     13  CA  PRO C   4      -5.374   0.551  27.735  1.00 24.57 LIG 0.18  C 
ATOM     14  N   PRO C   4      -4.916   1.076  29.011  1.00 25.19 LIG-0.34  N 
ATOM     15  C   PRO C   3      -4.180   2.204  29.073  1.00 26.73 LIG 0.24  C 
ATOM     16  CD  PRO C   4      -5.254   0.136  30.090  1.00 25.69 LIG 0.13  C 
ATOM     17 O    PRO C   3      -3.790   2.796  28.065  1.00 25.36 LIG-0.27  OA
ATOM     18  CG  PRO C   4      -5.338  -1.164  29.341  1.00 24.59 LIG 0.02  C 
ATOM     19  CB  PRO C   4      -6.062  -0.760  28.125  1.00 22.47 LIG 0.04  C 
BRANCH 15 20
ATOM     20  CA  PRO C   3      -3.752   2.682  30.457  1.00 28.16 LIG 0.18  C 
ATOM     21  N   PRO C   3      -2.351   3.111  30.473  1.00 24.30 LIG-0.34  N 
ATOM     22  CD  PRO C   3      -2.262   4.576  30.545  1.00 25.18 LIG 0.13  C 
ATOM     23  C   PRO C   2      -1.347   2.243  30.315  1.00 26.75 LIG 0.24  C 
ATOM     24  CG  PRO C   3      -3.698   5.018  30.255  1.00 22.51 LIG 0.02  C 
ATOM     25  CB  PRO C   3      -4.503   3.955  30.869  1.00 21.93 LIG 0.04  C 
ATOM     26 O    PRO C   2      -1.539   1.035  30.137  1.00 25.20 LIG-0.27  OA
BRANCH 23 27
ATOM     27  CA  PRO C   2       0.067   2.802  30.359  1.00 29.29 LIG 0.18  C 
ATOM     28  N   PRO C   2       1.048   1.712  30.264  1.00 27.80 LIG-0.34  N 
ATOM     29  C   ACE C   1       1.247   0.825  31.258  1.00 31.50 LIG 0.22  C 
ATOM     30  CD  PRO C   2       1.800   1.798  29.001  1.00 33.03 LIG 0.13  C 
ATOM     31 O    ACE C   1       0.667   0.922  32.338  1.00 38.95 LIG-0.27  OA
ATOM     32  CH3 ACE C   1       2.271  -0.276  31.073  1.00 34.05 LIG 0.12  C 
ATOM     33  CG  PRO C   2       0.902   2.654  28.143  1.00 32.34 LIG 0.02  C 
ATOM     34  CB  PRO C   2       0.376   3.652  29.122  1.00 28.70 LIG 0.04  C 
ENDBRANCH 23 27
ENDBRANCH 15 20
ENDBRANCH 11 13
ENDBRANCH 8 9
BRANCH 8 35
ATOM     35  CB  VAL C   5      -6.354   4.890  26.655  1.00 35.33 LIG 0.01  C 
ATOM     36  CG2 VAL C   5      -4.847   5.125  26.826  1.00 35.45 LIG 0.01  C 
ATOM     37  CG1 VAL C   5      -7.055   4.847  27.978  1.00 28.19 LIG 0.01  C 
ENDBRANCH 8 35
ENDBRANCH 1 8
BRANCH 4 38
ATOM     38  C   PRO C   6      -6.125   4.649  21.535  1.00 48.62 LIG 0.24  C 
ATOM     39 O    PRO C   6      -4.960   4.734  21.125  1.00 45.97 LIG-0.27  OA
ATOM     40  N   PRO C   7      -6.960   5.714  21.583  1.00 50.57 LIG-0.34  N 
ATOM     41  CA  PRO C   7      -6.574   7.056  21.137  1.00 53.29 LIG 0.18  C 
ATOM     42  CD  PRO C   7      -8.305   5.751  22.197  1.00 52.97 LIG 0.13  C 
ATOM     43  CB  PRO C   7      -7.632   7.943  21.792  1.00 53.80 LIG 0.04  C 
ATOM     44  CG  PRO C   7      -8.856   7.086  21.726  1.00 51.48 LIG 0.02  C 
BRANCH 41 45
ATOM     45  C   PRO C   7      -5.173   7.392  21.619  1.00 55.55 LIG 0.24  C 
ATOM     46 O    PRO C   7      -4.753   6.940  22.697  1.00 56.05 LIG-0.27  OA
ATOM     47  N   ARG C   8      -4.436   8.092  20.753  1.00 55.98 LIG-0.35  N 
ATOM     48 H    ARG C   8      -4.726   8.342  19.983  1.00 55.98 LIG 0.16  HD
BRANCH 47 49
ATOM     49  CA  ARG C   8      -3.063   8.504  21.023  1.00 59.84 LIG 0.16  C 
BRANCH 49 50
ATOM     50  C   ARG C   8      -2.939   9.348  22.289  1.00 63.97 LIG 0.22  C 
ATOM     51 O    ARG C   8      -3.523  10.456  22.293  1.00 69.17 LIG-0.29  OA
ENDBRANCH 49 50
BRANCH 49 52
ATOM     52  CB  ARG C   8      -2.490   9.270  19.826  1.00 59.33 LIG 0.04  C 
BRANCH 52 53
ATOM     53  CG  ARG C   8      -1.096   9.835  20.050  1.00 56.20 LIG 0.02  C 
BRANCH 53 54
ATOM     54  CD  ARG C   8      -1.063  11.344  19.950  1.00 50.77 LIG 0.14  C 
BRANCH 54 55
ATOM     55  NE  ARG C   8       0.075  11.800  19.160  1.00 55.07 LIG-0.23  N 
ATOM     56  CZ  ARG C   8       0.321  13.074  18.848  1.00 55.92 LIG 0.67  C 
ATOM     57  NH1 ARG C   8      -0.469  14.042  19.295  1.00 58.39 LIG-0.23  N 
ATOM     58  NH2 ARG C   8       1.386  13.392  18.118  1.00 49.54 LIG-0.23  N 
ATOM     59 1HH1 ARG C   8      -1.146  13.850  19.790  1.00 58.39 LIG 0.17  HD
ATOM     60 2HH1 ARG C   8      -0.304  14.861  19.090  1.00 58.39 LIG 0.17  HD
ATOM     61 1HH2 ARG C   8       1.920  12.776  17.844  1.00 49.54 LIG 0.17  HD
ATOM     62 2HH2 ARG C   8       1.541  14.214  17.919  1.00 49.54 LIG 0.17  HD
ATOM     63 HE   ARG C   8       0.626  11.206  18.875  1.00 55.07 LIG 0.18  HD
ENDBRANCH 54 55
ENDBRANCH 53 54
ENDBRANCH 52 53
ENDBRANCH 49 52
ENDBRANCH 47 49
ENDBRANCH 41 45
ENDBRANCH 4 38
TORSDOF 14
ENDMDL
MODEL 10
USER: ADFR SOLUTION from run 199
USER: SCORE 17.306568 LL:  -4.601 LR: -12.915 RR:   0.000 FEB:  -8.739
USER: RMSD 8.038491
USER: SEED 198
USER: STATUS no improvement in best in 7 clusters for 5 generations
USER: GENES 16
USER: genes 0 Translation |==|  0.27390 0.41669 0.42057
USER: genes 1 Rotation |==|  0.12554 0.19718 0.63347 0.51640
USER: genes 2 Torsion [N]-C--CA-[N] |==|  0.48714
USER: genes 3 Torsion [C]-CA--N-[C] |==|  0.62046
USER: genes 4 Torsion [N]-C--CA-[N] |==|  0.24855
USER: genes 5 Torsion [N]-C--CA-[CB] |==|  0.85949
USER: genes 6 Torsion [N]-C--CA-[N] |==|  0.47372
USER: genes 7 Torsion [C]-CA--CB-[CG2] |==|  0.92221
USER: genes 8 Torsion [N]-CA--C-[O] |==|  0.98828
USER: genes 9 Torsion [N]-CA--C-[O] |==|  0.86233
USER: genes 10 Torsion [C]-N--CA-[C] |==|  0.17904
USER: genes 11 Torsion [N]-CA--C-[O] |==|  0.46321
USER: genes 12 Torsion [N]-CA--CB-[CG] |==|  0.79642
USER: genes 13 Torsion [CA]-CB--CG-[CD] |==|  0.67936
USER: genes 14 Torsion [CB]-CG--CD-[NE] |==|  0.32307
USER: genes 15 Torsion [CG]-CD--NE-[CZ] |==|  0.61724
ROOT
ATOM      1  C   VAL C   5      -4.847   6.269  23.267  1.00 42.36 LIG 0.24  C 
ATOM      2 O    VAL C   5      -3.955   5.640  22.688  1.00 45.24 LIG-0.27  OA
ATOM      3  N   PRO C   6      -5.062   7.585  23.060  1.00 47.11 LIG-0.34  N 
ATOM      4  CA  PRO C   6      -4.328   8.452  22.128  1.00 46.93 LIG 0.18  C 
ATOM      5  CB  PRO C   6      -4.735   9.843  22.587  1.00 48.77 LIG 0.04  C 
ATOM      6  CG  PRO C   6      -6.137   9.636  23.040  1.00 47.44 LIG 0.02  C 
ATOM      7  CD  PRO C   6      -5.999   8.390  23.863  1.00 45.48 LIG 0.13  C 
ENDROOT
BRANCH 1 8
ATOM      8  CA  VAL C   5      -5.735   5.568  24.280  1.00 35.80 LIG 0.18  C 
BRANCH 8 9
ATOM      9  N   VAL C   5      -5.406   4.164  24.259  1.00 29.23 LIG-0.35  N 
ATOM     10 H    VAL C   5      -4.561   4.008  24.232  1.00 29.23 LIG 0.16  HD
ATOM     11  C   PRO C   4      -6.315   3.204  24.277  1.00 26.62 LIG 0.24  C 
ATOM     12 O    PRO C   4      -7.532   3.397  24.392  1.00 27.50 LIG-0.27  OA
BRANCH 11 13
ATOM     13  CA  PRO C   4      -5.748   1.807  24.246  1.00 24.57 LIG 0.18  C 
ATOM     14  N   PRO C   4      -5.536   1.412  25.629  1.00 25.19 LIG-0.34  N 
ATOM     15  C   PRO C   3      -4.613   2.031  26.392  1.00 26.73 LIG 0.24  C 
ATOM     16  CD  PRO C   4      -6.341   0.221  25.939  1.00 25.69 LIG 0.13  C 
ATOM     17 O    PRO C   3      -3.854   2.893  25.946  1.00 25.36 LIG-0.27  OA
ATOM     18  CG  PRO C   4      -6.508  -0.391  24.577  1.00 24.59 LIG 0.02  C 
ATOM     19  CB  PRO C   4      -6.783   0.794  23.750  1.00 22.47 LIG 0.04  C 
BRANCH 15 20
ATOM     20  CA  PRO C   3      -4.467   1.553  27.834  1.00 28.16 LIG 0.18  C 
ATOM     21  N   PRO C   3      -3.709   2.506  28.647  1.00 24.30 LIG-0.34  N 
ATOM     22  CD  PRO C   3      -4.603   3.232  29.560  1.00 25.18 LIG 0.13  C 
ATOM     23  C   PRO C   2      -2.405   2.724  28.445  1.00 26.75 LIG 0.24  C 
ATOM     24  CG  PRO C   3      -5.993   2.877  29.025  1.00 22.51 LIG 0.02  C 
ATOM     25  CB  PRO C   3      -5.824   1.498  28.549  1.00 21.93 LIG 0.04  C 
ATOM     26 O    PRO C   2      -1.767   2.144  27.559  1.00 25.20 LIG-0.27  OA
BRANCH 23 27
ATOM     27  CA  PRO C   2      -1.720   3.730  29.357  1.00 29.29 LIG 0.18  C 
ATOM     28  N   PRO C   2      -0.265   3.688  29.158  1.00 27.80 LIG-0.34  N 
ATOM     29  C   ACE C   1       0.492   2.646  29.552  1.00 31.50 LIG 0.22  C 
ATOM     30  CD  PRO C   2       0.217   4.947  28.565  1.00 33.03 LIG 0.13  C 
ATOM     31 O    ACE C   1       0.014   1.696  30.172  1.00 38.95 LIG-0.27  OA
ATOM     32  CH3 ACE C   1       1.985   2.678  29.300  1.00 34.05 LIG 0.12  C 
ATOM     33  CG  PRO C   2      -1.039   5.525  27.962  1.00 32.34 LIG 0.02  C 
ATOM     34  CB  PRO C   2      -2.077   5.170  28.976  1.00 28.70 LIG 0.04  C 
ENDBRANCH 23 27
ENDBRANCH 15 20
ENDBRANCH 11 13
ENDBRANCH 8 9
BRANCH 8 35
ATOM     35  CB  VAL C   5      -5.494   6.120  25.680  1.00 35.33 LIG 0.01  C 
ATOM     36  CG2 VAL C   5      -4.054   6.644  25.779  1.00 35.45 LIG 0.01  C 
ATOM     37  CG1 VAL C   5      -5.767   5.075  26.715  1.00 28.19 LIG 0.01  C 
ENDBRANCH 8 35
ENDBRANCH 1 8
BRANCH 4 38
ATOM     38  C   PRO C   6      -2.809   8.265  22.182  1.00 48.62 LIG 0.24  C 
ATOM     39 O    PRO C   6      -2.306   7.499  23.014  1.00 45.97 LIG-0.27  OA
ATOM     40  N   PRO C   7      -2.064   8.977  21.304  1.00 50.57 LIG-0.34  N 
ATOM     41  CA  PRO C   7      -0.602   8.894  21.241  1.00 53.29 LIG 0.18  C 
ATOM     42  CD  PRO C   7      -2.553  10.027  20.384  1.00 52.97 LIG 0.13  C 
ATOM     43  CB  PRO C   7      -0.229  10.156  20.463  1.00 53.80 LIG 0.04  C 
ATOM     44  CG  PRO C   7      -1.354  10.275  19.485  1.00 51.48 LIG 0.02  C 
BRANCH 41 45
ATOM     45  C   PRO C   7      -0.010   8.893  22.640  1.00 55.55 LIG 0.24  C 
ATOM     46 O    PRO C   7      -0.358   9.749  23.470  1.00 56.05 LIG-0.27  OA
ATOM     47  N   ARG C   8       0.793   7.861  22.908  1.00 55.98 LIG-0.35  N 
ATOM     48 H    ARG C   8       0.972   7.244  22.336  1.00 55.98 LIG 0.16  HD
BRANCH 47 49
ATOM     49  CA  ARG C   8       1.451   7.674  24.196  1.00 59.84 LIG 0.16  C 
BRANCH 49 50
ATOM     50  C   ARG C   8       0.463   7.439  25.335  1.00 63.97 LIG 0.22  C 
ATOM     51 O    ARG C   8       0.933   7.019  26.417  1.00 69.17 LIG-0.29  OA
ENDBRANCH 49 50
BRANCH 49 52
ATOM     52  CB  ARG C   8       2.345   8.877  24.519  1.00 59.33 LIG 0.04  C 
BRANCH 52 53
ATOM     53  CG  ARG C   8       3.625   8.945  23.701  1.00 56.20 LIG 0.02  C 
BRANCH 53 54
ATOM     54  CD  ARG C   8       4.864   8.795  24.556  1.00 50.77 LIG 0.14  C 
BRANCH 54 55
ATOM     55  NE  ARG C   8       5.607   7.589  24.208  1.00 55.07 LIG-0.23  N 
ATOM     56  CZ  ARG C   8       6.158   6.754  25.092  1.00 55.92 LIG 0.67  C 
ATOM     57  NH1 ARG C   8       6.016   6.963  26.395  1.00 58.39 LIG-0.23  N 
ATOM     58  NH2 ARG C   8       6.821   5.679  24.676  1.00 49.54 LIG-0.23  N 
ATOM     59 1HH1 ARG C   8       5.567   7.641  26.675  1.00 58.39 LIG 0.17  HD
ATOM     60 2HH1 ARG C   8       6.374   6.421  26.958  1.00 58.39 LIG 0.17  HD
ATOM     61 1HH2 ARG C   8       6.897   5.519  23.834  1.00 49.54 LIG 0.17  HD
ATOM     62 2HH2 ARG C   8       7.174   5.144  25.248  1.00 49.54 LIG 0.17  HD
ATOM     63 HE   ARG C   8       5.697   7.403  23.374  1.00 55.07 LIG 0.18  HD
ENDBRANCH 54 55
ENDBRANCH 53 54
ENDBRANCH 52 53
ENDBRANCH 49 52
ENDBRANCH 47 49
ENDBRANCH 41 45
ENDBRANCH 4 38
TORSDOF 14
ENDMDL
MODEL 11
USER: ADFR SOLUTION from run 26
USER: SCORE 16.588177 LL:  -4.093 LR: -12.893 RR:   0.000 FEB:  -8.716
USER: RMSD 7.614009
USER: SEED 25
USER: STATUS no improvement in best in 8 clusters for 5 generations
USER: GENES 16
USER: genes 0 Translation |==|  0.29599 0.36393 0.38780
USER: genes 1 Rotation |==|  0.15231 0.15202 0.58007 0.54020
USER: genes 2 Torsion [N]-C--CA-[N] |==|  0.85743
USER: genes 3 Torsion [C]-CA--N-[C] |==|  0.68640
USER: genes 4 Torsion [N]-C--CA-[N] |==|  0.64327
USER: genes 5 Torsion [N]-C--CA-[CB] |==|  0.77322
USER: genes 6 Torsion [N]-C--CA-[N] |==|  0.29553
USER: genes 7 Torsion [C]-CA--CB-[CG2] |==|  0.43890
USER: genes 8 Torsion [N]-CA--C-[O] |==|  0.96504
USER: genes 9 Torsion [N]-CA--C-[O] |==|  0.84982
USER: genes 10 Torsion [C]-N--CA-[C] |==|  0.12925
USER: genes 11 Torsion [N]-CA--C-[O] |==|  0.44507
USER: genes 12 Torsion [N]-CA--CB-[CG] |==|  0.86208
USER: genes 13 Torsion [CA]-CB--CG-[CD] |==|  0.61758
USER: genes 14 Torsion [CB]-CG--CD-[NE] |==|  0.28013
USER: genes 15 Torsion [CG]-CD--NE-[CZ] |==|  0.66303
ROOT
ATOM      1  C   VAL C   5      -4.366   5.082  22.603  1.00 42.36 LIG 0.24  C 
ATOM      2 O    VAL C   5      -3.346   4.769  21.981  1.00 45.24 LIG-0.27  OA
ATOM      3  N   PRO C   6      -4.797   6.357  22.701  1.00 47.11 LIG-0.34  N 
ATOM      4  CA  PRO C   6      -4.174   7.537  22.086  1.00 46.93 LIG 0.18  C 
ATOM      5  CB  PRO C   6      -4.845   8.683  22.826  1.00 48.77 LIG 0.04  C 
ATOM      6  CG  PRO C   6      -6.213   8.152  23.072  1.00 47.44 LIG 0.02  C 
ATOM      7  CD  PRO C   6      -5.906   6.773  23.578  1.00 45.48 LIG 0.13  C 
ENDROOT
BRANCH 1 8
ATOM      8  CA  VAL C   5      -5.174   4.015  23.322  1.00 35.80 LIG 0.18  C 
BRANCH 8 9
ATOM      9  N   VAL C   5      -5.352   4.441  24.688  1.00 29.23 LIG-0.35  N 
ATOM     10 H    VAL C   5      -5.850   5.138  24.770  1.00 29.23 LIG 0.16  HD
ATOM     11  C   PRO C   4      -4.804   3.822  25.720  1.00 26.62 LIG 0.24  C 
ATOM     12 O    PRO C   4      -4.149   2.775  25.639  1.00 27.50 LIG-0.27  OA
BRANCH 11 13
ATOM     13  CA  PRO C   4      -5.121   4.440  27.058  1.00 24.57 LIG 0.18  C 
ATOM     14  N   PRO C   4      -3.851   4.643  27.736  1.00 25.19 LIG-0.34  N 
ATOM     15  C   PRO C   3      -3.100   3.593  28.127  1.00 26.73 LIG 0.24  C 
ATOM     16  CD  PRO C   4      -3.654   6.072  28.015  1.00 25.69 LIG 0.13  C 
ATOM     17 O    PRO C   3      -3.479   2.427  28.009  1.00 25.36 LIG-0.27  OA
ATOM     18  CG  PRO C   4      -5.071   6.570  28.049  1.00 24.59 LIG 0.02  C 
ATOM     19  CB  PRO C   4      -5.661   5.864  26.901  1.00 22.47 LIG 0.04  C 
BRANCH 15 20
ATOM     20  CA  PRO C   3      -1.779   3.903  28.824  1.00 28.16 LIG 0.18  C 
ATOM     21  N   PRO C   3      -1.248   2.732  29.526  1.00 24.30 LIG-0.34  N 
ATOM     22  CD  PRO C   3      -0.100   2.173  28.800  1.00 25.18 LIG 0.13  C 
ATOM     23  C   PRO C   2      -1.853   2.223  30.604  1.00 26.75 LIG 0.24  C 
ATOM     24  CG  PRO C   3      -0.167   2.895  27.453  1.00 22.51 LIG 0.02  C 
ATOM     25  CB  PRO C   3      -0.671   4.226  27.813  1.00 21.93 LIG 0.04  C 
ATOM     26 O    PRO C   2      -2.896   2.702  31.066  1.00 25.20 LIG-0.27  OA
BRANCH 23 27
ATOM     27  CA  PRO C   2      -1.206   1.011  31.256  1.00 29.29 LIG 0.18  C 
ATOM     28  N   PRO C   2      -0.559   1.398  32.518  1.00 27.80 LIG-0.34  N 
ATOM     29  C   ACE C   1       0.553   2.156  32.561  1.00 31.50 LIG 0.22  C 
ATOM     30  CD  PRO C   2      -1.244   0.778  33.665  1.00 33.03 LIG 0.13  C 
ATOM     31 O    ACE C   1       1.137   2.509  31.537  1.00 38.95 LIG-0.27  OA
ATOM     32  CH3 ACE C   1       1.151   2.517  33.905  1.00 34.05 LIG 0.12  C 
ATOM     33  CG  PRO C   2      -2.595   0.431  33.091  1.00 32.34 LIG 0.02  C 
ATOM     34  CB  PRO C   2      -2.253  -0.013  31.706  1.00 28.70 LIG 0.04  C 
ENDBRANCH 23 27
ENDBRANCH 15 20
ENDBRANCH 11 13
ENDBRANCH 8 9
BRANCH 8 35
ATOM     35  CB  VAL C   5      -6.539   3.841  22.666  1.00 35.33 LIG 0.01  C 
ATOM     36  CG2 VAL C   5      -7.098   2.455  23.014  1.00 35.45 LIG 0.01  C 
ATOM     37  CG1 VAL C   5      -6.441   4.035  21.185  1.00 28.19 LIG 0.01  C 
ENDBRANCH 8 35
ENDBRANCH 1 8
BRANCH 4 38
ATOM     38  C   PRO C   6      -2.651   7.581  22.243  1.00 48.62 LIG 0.24  C 
ATOM     39 O    PRO C   6      -2.086   6.813  23.033  1.00 45.97 LIG-0.27  OA
ATOM     40  N   PRO C   7      -1.976   8.494  21.505  1.00 50.57 LIG-0.34  N 
ATOM     41  CA  PRO C   7      -0.520   8.644  21.554  1.00 53.29 LIG 0.18  C 
ATOM     42  CD  PRO C   7      -2.569   9.552  20.660  1.00 52.97 LIG 0.13  C 
ATOM     43  CB  PRO C   7      -0.306  10.028  20.940  1.00 53.80 LIG 0.04  C 
ATOM     44  CG  PRO C   7      -1.370  10.082  19.891  1.00 51.48 LIG 0.02  C 
BRANCH 41 45
ATOM     45  C   PRO C   7      -0.027   8.577  22.990  1.00 55.55 LIG 0.24  C 
ATOM     46 O    PRO C   7      -0.505   9.329  23.854  1.00 56.05 LIG-0.27  OA
ATOM     47  N   ARG C   8       0.844   7.596  23.238  1.00 55.98 LIG-0.35  N 
ATOM     48 H    ARG C   8       1.115   7.045  22.635  1.00 55.98 LIG 0.16  HD
BRANCH 47 49
ATOM     49  CA  ARG C   8       1.426   7.359  24.553  1.00 59.84 LIG 0.16  C 
BRANCH 49 50
ATOM     50  C   ARG C   8       0.388   7.381  25.671  1.00 63.97 LIG 0.22  C 
ATOM     51 O    ARG C   8       0.702   6.826  26.749  1.00 69.17 LIG-0.29  OA
ENDBRANCH 49 50
BRANCH 49 52
ATOM     52  CB  ARG C   8       2.529   8.383  24.842  1.00 59.33 LIG 0.04  C 
BRANCH 52 53
ATOM     53  CG  ARG C   8       3.553   8.536  23.728  1.00 56.20 LIG 0.02  C 
BRANCH 53 54
ATOM     54  CD  ARG C   8       4.968   8.629  24.256  1.00 50.77 LIG 0.14  C 
BRANCH 54 55
ATOM     55  NE  ARG C   8       5.668   7.356  24.126  1.00 55.07 LIG-0.23  N 
ATOM     56  CZ  ARG C   8       6.197   6.673  25.144  1.00 55.92 LIG 0.67  C 
ATOM     57  NH1 ARG C   8       6.073   7.115  26.389  1.00 58.39 LIG-0.23  N 
ATOM     58  NH2 ARG C   8       6.821   5.519  24.925  1.00 49.54 LIG-0.23  N 
ATOM     59 1HH1 ARG C   8       5.648   7.846  26.545  1.00 58.39 LIG 0.17  HD
ATOM     60 2HH1 ARG C   8       6.416   6.669  27.039  1.00 58.39 LIG 0.17  HD
ATOM     61 1HH2 ARG C   8       6.885   5.209  24.125  1.00 49.54 LIG 0.17  HD
ATOM     62 2HH2 ARG C   8       7.161   5.082  25.583  1.00 49.54 LIG 0.17  HD
ATOM     63 HE   ARG C   8       5.746   7.021  23.338  1.00 55.07 LIG 0.18  HD
ENDBRANCH 54 55
ENDBRANCH 53 54
ENDBRANCH 52 53
ENDBRANCH 49 52
ENDBRANCH 47 49
ENDBRANCH 41 45
ENDBRANCH 4 38
TORSDOF 14
ENDMDL
MODEL 12
USER: ADFR SOLUTION from run 66
USER: SCORE 17.645670 LL:  -5.072 LR: -12.819 RR:   0.000 FEB:  -8.643
USER: RMSD 6.043712
USER: SEED 65
USER: STATUS no improvement in best in 2 clusters for 5 generations
USER: GENES 16
USER: genes 0 Translation |==|  0.37562 0.51384 0.36042
USER: genes 1 Rotation |==|  0.84088 0.66698 0.47242 0.82428
USER: genes 2 Torsion [N]-C--CA-[N] |==|  0.35556
USER: genes 3 Torsion [C]-CA--N-[C] |==|  0.61302
USER: genes 4 Torsion [N]-C--CA-[N] |==|  0.19491
USER: genes 5 Torsion [N]-C--CA-[CB] |==|  0.69552
USER: genes 6 Torsion [N]-C--CA-[N] |==|  0.45467
USER: genes 7 Torsion [C]-CA--CB-[CG2] |==|  0.46983
USER: genes 8 Torsion [N]-CA--C-[O] |==|  0.75879
USER: genes 9 Torsion [N]-CA--C-[O] |==|  0.39948
USER: genes 10 Torsion [C]-N--CA-[C] |==|  0.16617
USER: genes 11 Torsion [N]-CA--C-[O] |==|  0.29024
USER: genes 12 Torsion [N]-CA--CB-[CG] |==|  0.69052
USER: genes 13 Torsion [CA]-CB--CG-[CD] |==|  0.27149
USER: genes 14 Torsion [CB]-CG--CD-[NE] |==|  0.59465
USER: genes 15 Torsion [CG]-CD--NE-[CZ] |==|  0.80816
ROOT
ATOM      1  C   VAL C   5      -2.634   8.455  22.048  1.00 42.36 LIG 0.24  C 
ATOM      2 O    VAL C   5      -2.119   8.177  23.136  1.00 45.24 LIG-0.27  OA
ATOM      3  N   PRO C   6      -1.935   8.993  21.028  1.00 47.11 LIG-0.34  N 
ATOM      4  CA  PRO C   6      -0.498   9.296  21.021  1.00 46.93 LIG 0.18  C 
ATOM      5  CB  PRO C   6      -0.360  10.198  19.804  1.00 48.77 LIG 0.04  C 
ATOM      6  CG  PRO C   6      -1.382   9.644  18.875  1.00 47.44 LIG 0.02  C 
ATOM      7  CD  PRO C   6      -2.561   9.493  19.791  1.00 45.48 LIG 0.13  C 
ENDROOT
BRANCH 1 8
ATOM      8  CA  VAL C   5      -4.120   8.223  21.831  1.00 35.80 LIG 0.18  C 
BRANCH 8 9
ATOM      9  N   VAL C   5      -4.407   6.851  22.173  1.00 29.23 LIG-0.35  N 
ATOM     10 H    VAL C   5      -3.993   6.577  22.875  1.00 29.23 LIG 0.16  HD
ATOM     11  C   PRO C   4      -5.228   6.085  21.474  1.00 26.62 LIG 0.24  C 
ATOM     12 O    PRO C   4      -5.895   6.475  20.508  1.00 27.50 LIG-0.27  OA
BRANCH 11 13
ATOM     13  CA  PRO C   4      -5.379   4.684  22.010  1.00 24.57 LIG 0.18  C 
ATOM     14  N   PRO C   4      -6.122   4.791  23.255  1.00 25.19 LIG-0.34  N 
ATOM     15  C   PRO C   3      -5.587   5.404  24.330  1.00 26.73 LIG 0.24  C 
ATOM     16  CD  PRO C   4      -7.379   4.034  23.156  1.00 25.69 LIG 0.13  C 
ATOM     17 O    PRO C   3      -4.430   5.826  24.344  1.00 25.36 LIG-0.27  OA
ATOM     18  CG  PRO C   4      -7.037   3.021  22.100  1.00 24.59 LIG 0.02  C 
ATOM     19  CB  PRO C   4      -6.304   3.844  21.125  1.00 22.47 LIG 0.04  C 
BRANCH 15 20
ATOM     20  CA  PRO C   3      -6.444   5.475  25.591  1.00 28.16 LIG 0.18  C 
ATOM     21  N   PRO C   3      -5.671   5.150  26.791  1.00 24.30 LIG-0.34  N 
ATOM     22  CD  PRO C   3      -5.399   6.365  27.573  1.00 25.18 LIG 0.13  C 
ATOM     23  C   PRO C   2      -5.202   3.918  27.016  1.00 26.75 LIG 0.24  C 
ATOM     24  CG  PRO C   3      -5.790   7.484  26.606  1.00 22.51 LIG 0.02  C 
ATOM     25  CB  PRO C   3      -6.920   6.907  25.868  1.00 21.93 LIG 0.04  C 
ATOM     26 O    PRO C   2      -5.385   2.986  26.225  1.00 25.20 LIG-0.27  OA
BRANCH 23 27
ATOM     27  CA  PRO C   2      -4.420   3.697  28.302  1.00 29.29 LIG 0.18  C 
ATOM     28  N   PRO C   2      -4.315   2.260  28.592  1.00 27.80 LIG-0.34  N 
ATOM     29  C   ACE C   1      -5.372   1.518  28.975  1.00 31.50 LIG 0.22  C 
ATOM     30  CD  PRO C   2      -2.918   1.808  28.485  1.00 33.03 LIG 0.13  C 
ATOM     31 O    ACE C   1      -6.477   2.020  29.175  1.00 38.95 LIG-0.27  OA
ATOM     32  CH3 ACE C   1      -5.179   0.040  29.244  1.00 34.05 LIG 0.12  C 
ATOM     33  CG  PRO C   2      -2.288   2.890  27.643  1.00 32.34 LIG 0.02  C 
ATOM     34  CB  PRO C   2      -2.957   4.125  28.151  1.00 28.70 LIG 0.04  C 
ENDBRANCH 23 27
ENDBRANCH 15 20
ENDBRANCH 11 13
ENDBRANCH 8 9
BRANCH 8 35
ATOM     35  CB  VAL C   5      -4.944   9.146  22.720  1.00 35.33 LIG 0.01  C 
ATOM     36  CG2 VAL C   5      -6.416   9.086  22.289  1.00 35.45 LIG 0.01  C 
ATOM     37  CG1 VAL C   5      -4.415  10.545  22.662  1.00 28.19 LIG 0.01  C 
ENDBRANCH 8 35
ENDBRANCH 1 8
BRANCH 4 38
ATOM     38  C   PRO C   6      -0.010   9.993  22.294  1.00 48.62 LIG 0.24  C 
ATOM     39 O    PRO C   6      -0.070  11.226  22.390  1.00 45.97 LIG-0.27  OA
ATOM     40  N   PRO C   7       0.494   9.210  23.278  1.00 50.57 LIG-0.34  N 
ATOM     41  CA  PRO C   7       0.993   9.742  24.548  1.00 53.29 LIG 0.18  C 
ATOM     42  CD  PRO C   7       0.752   7.757  23.198  1.00 52.97 LIG 0.13  C 
ATOM     43  CB  PRO C   7       1.832   8.584  25.088  1.00 53.80 LIG 0.04  C 
ATOM     44  CG  PRO C   7       1.055   7.387  24.641  1.00 51.48 LIG 0.02  C 
BRANCH 41 45
ATOM     45  C   PRO C   7       1.829  10.988  24.311  1.00 55.55 LIG 0.24  C 
ATOM     46 O    PRO C   7       1.793  11.931  25.118  1.00 56.05 LIG-0.27  OA
ATOM     47  N   ARG C   8       2.652  10.919  23.263  1.00 55.98 LIG-0.35  N 
ATOM     48 H    ARG C   8       2.707  10.229  22.752  1.00 55.98 LIG 0.16  HD
BRANCH 47 49
ATOM     49  CA  ARG C   8       3.544  12.006  22.874  1.00 59.84 LIG 0.16  C 
BRANCH 49 50
ATOM     50  C   ARG C   8       4.537  12.375  23.972  1.00 63.97 LIG 0.22  C 
ATOM     51 O    ARG C   8       5.720  11.992  23.821  1.00 69.17 LIG-0.29  OA
ENDBRANCH 49 50
BRANCH 49 52
ATOM     52  CB  ARG C   8       2.733  13.240  22.464  1.00 59.33 LIG 0.04  C 
BRANCH 52 53
ATOM     53  CG  ARG C   8       2.810  13.578  20.983  1.00 56.20 LIG 0.02  C 
BRANCH 53 54
ATOM     54  CD  ARG C   8       1.621  13.049  20.210  1.00 50.77 LIG 0.14  C 
BRANCH 54 55
ATOM     55  NE  ARG C   8       2.002  12.645  18.861  1.00 55.07 LIG-0.23  N 
ATOM     56  CZ  ARG C   8       2.370  13.484  17.892  1.00 55.92 LIG 0.67  C 
ATOM     57  NH1 ARG C   8       2.455  14.788  18.126  1.00 58.39 LIG-0.23  N 
ATOM     58  NH2 ARG C   8       2.697  13.019  16.690  1.00 49.54 LIG-0.23  N 
ATOM     59 1HH1 ARG C   8       2.272  15.097  18.908  1.00 58.39 LIG 0.17  HD
ATOM     60 2HH1 ARG C   8       2.694  15.323  17.496  1.00 58.39 LIG 0.17  HD
ATOM     61 1HH2 ARG C   8       2.671  12.174  16.534  1.00 49.54 LIG 0.17  HD
ATOM     62 2HH2 ARG C   8       2.934  13.563  16.068  1.00 49.54 LIG 0.17  HD
ATOM     63 HE   ARG C   8       1.987  11.805  18.678  1.00 55.07 LIG 0.18  HD
ENDBRANCH 54 55
ENDBRANCH 53 54
ENDBRANCH 52 53
ENDBRANCH 49 52
ENDBRANCH 47 49
ENDBRANCH 41 45
ENDBRANCH 4 38
TORSDOF 14
ENDMDL
MODEL 13
USER: ADFR SOLUTION from run 77
USER: SCORE 17.632694 LL:  -5.184 LR: -12.813 RR:   0.000 FEB:  -8.636
USER: RMSD 10.001346
USER: SEED 76
USER: STATUS 1 or 2 clusters left
USER: GENES 16
USER: genes 0 Translation |==|  0.46422 0.51261 0.38671
USER: genes 1 Rotation |==|  0.50595 0.96877 0.36374 0.60793
USER: genes 2 Torsion [N]-C--CA-[N] |==|  0.45959
USER: genes 3 Torsion [C]-CA--N-[C] |==|  0.52034
USER: genes 4 Torsion [N]-C--CA-[N] |==|  0.21277
USER: genes 5 Torsion [N]-C--CA-[CB] |==|  0.65271
USER: genes 6 Torsion [N]-C--CA-[N] |==|  0.51557
USER: genes 7 Torsion [C]-CA--CB-[CG2] |==|  0.75410
USER: genes 8 Torsion [N]-CA--C-[O] |==|  0.33670
USER: genes 9 Torsion [N]-CA--C-[O] |==|  0.89989
USER: genes 10 Torsion [C]-N--CA-[C] |==|  0.45237
USER: genes 11 Torsion [N]-CA--C-[O] |==|  0.03600
USER: genes 12 Torsion [N]-CA--CB-[CG] |==|  0.66611
USER: genes 13 Torsion [CA]-CB--CG-[CD] |==|  0.52527
USER: genes 14 Torsion [CB]-CG--CD-[NE] |==|  0.27876
USER: genes 15 Torsion [CG]-CD--NE-[CZ] |==|  0.53448
ROOT
ATOM      1  C   VAL C   5      -0.707   8.428  22.581  1.00 42.36 LIG 0.24  C 
ATOM      2 O    VAL C   5      -0.195   9.311  21.886  1.00 45.24 LIG-0.27  OA
ATOM      3  N   PRO C   6      -1.953   7.960  22.362  1.00 47.11 LIG-0.34  N 
ATOM      4  CA  PRO C   6      -2.864   8.377  21.288  1.00 46.93 LIG 0.18  C 
ATOM      5  CB  PRO C   6      -4.198   7.815  21.755  1.00 48.77 LIG 0.04  C 
ATOM      6  CG  PRO C   6      -3.796   6.560  22.444  1.00 47.44 LIG 0.02  C 
ATOM      7  CD  PRO C   6      -2.646   7.038  23.280  1.00 45.48 LIG 0.13  C 
ENDROOT
BRANCH 1 8
ATOM      8  CA  VAL C   5       0.061   7.846  23.755  1.00 35.80 LIG 0.18  C 
BRANCH 8 9
ATOM      9  N   VAL C   5       1.447   8.213  23.603  1.00 29.23 LIG-0.35  N 
ATOM     10 H    VAL C   5       1.589   8.763  22.957  1.00 29.23 LIG 0.16  HD
ATOM     11  C   PRO C   4       2.412   7.749  24.379  1.00 26.62 LIG 0.24  C 
ATOM     12 O    PRO C   4       2.228   7.019  25.361  1.00 27.50 LIG-0.27  OA
BRANCH 11 13
ATOM     13  CA  PRO C   4       3.787   8.264  24.039  1.00 24.57 LIG 0.18  C 
ATOM     14  N   PRO C   4       3.863   9.623  24.550  1.00 25.19 LIG-0.34  N 
ATOM     15  C   PRO C   3       3.101  10.604  24.024  1.00 26.73 LIG 0.24  C 
ATOM     16  CD  PRO C   4       4.940   9.726  25.544  1.00 25.69 LIG 0.13  C 
ATOM     17 O    PRO C   3       2.373  10.425  23.046  1.00 25.36 LIG-0.27  OA
ATOM     18  CG  PRO C   4       5.842   8.599  25.128  1.00 24.59 LIG 0.02  C 
ATOM     19  CB  PRO C   4       4.871   7.533  24.836  1.00 22.47 LIG 0.04  C 
BRANCH 15 20
ATOM     20  CA  PRO C   3       3.242  11.997  24.630  1.00 28.16 LIG 0.18  C 
ATOM     21  N   PRO C   3       3.671  12.981  23.633  1.00 24.30 LIG-0.34  N 
ATOM     22  CD  PRO C   3       2.552  13.858  23.260  1.00 25.18 LIG 0.13  C 
ATOM     23  C   PRO C   2       4.892  12.946  23.089  1.00 26.75 LIG 0.24  C 
ATOM     24  CG  PRO C   3       1.343  13.141  23.864  1.00 22.51 LIG 0.02  C 
ATOM     25  CB  PRO C   3       1.887  12.549  25.093  1.00 21.93 LIG 0.04  C 
ATOM     26 O    PRO C   2       5.724  12.082  23.386  1.00 25.20 LIG-0.27  OA
BRANCH 23 27
ATOM     27  CA  PRO C   2       5.229  14.025  22.072  1.00 29.29 LIG 0.18  C 
ATOM     28  N   PRO C   2       6.547  13.768  21.476  1.00 27.80 LIG-0.34  N 
ATOM     29  C   ACE C   1       7.695  13.904  22.167  1.00 31.50 LIG 0.22  C 
ATOM     30  CD  PRO C   2       6.418  13.439  20.046  1.00 33.03 LIG 0.13  C 
ATOM     31 O    ACE C   1       7.709  14.325  23.323  1.00 38.95 LIG-0.27  OA
ATOM     32  CH3 ACE C   1       9.012  13.609  21.480  1.00 34.05 LIG 0.12  C 
ATOM     33  CG  PRO C   2       4.973  13.019  19.937  1.00 32.34 LIG 0.02  C 
ATOM     34  CB  PRO C   2       4.289  13.972  20.862  1.00 28.70 LIG 0.04  C 
ENDBRANCH 23 27
ENDBRANCH 15 20
ENDBRANCH 11 13
ENDBRANCH 8 9
BRANCH 8 35
ATOM     35  CB  VAL C   5      -0.466   8.404  25.072  1.00 35.33 LIG 0.01  C 
ATOM     36  CG2 VAL C   5       0.283   9.700  25.411  1.00 35.45 LIG 0.01  C 
ATOM     37  CG1 VAL C   5      -0.331   7.392  26.166  1.00 28.19 LIG 0.01  C 
ENDBRANCH 8 35
ENDBRANCH 1 8
BRANCH 4 38
ATOM     38  C   PRO C   6      -2.931   9.895  21.093  1.00 48.62 LIG 0.24  C 
ATOM     39 O    PRO C   6      -2.635  10.395  20.000  1.00 45.97 LIG-0.27  OA
ATOM     40  N   PRO C   7      -3.304  10.642  22.159  1.00 50.57 LIG-0.34  N 
ATOM     41  CA  PRO C   7      -3.413  12.103  22.114  1.00 53.29 LIG 0.18  C 
ATOM     42  CD  PRO C   7      -3.523  10.159  23.539  1.00 52.97 LIG 0.13  C 
ATOM     43  CB  PRO C   7      -3.408  12.484  23.595  1.00 53.80 LIG 0.04  C 
ATOM     44  CG  PRO C   7      -4.165  11.356  24.220  1.00 51.48 LIG 0.02  C 
BRANCH 41 45
ATOM     45  C   PRO C   7      -2.233  12.701  21.368  1.00 55.55 LIG 0.24  C 
ATOM     46 O    PRO C   7      -1.103  12.195  21.471  1.00 56.05 LIG-0.27  OA
ATOM     47  N   ARG C   8      -2.541  13.703  20.543  1.00 55.98 LIG-0.35  N 
ATOM     48 H    ARG C   8      -3.342  13.998  20.439  1.00 55.98 LIG 0.16  HD
BRANCH 47 49
ATOM     49  CA  ARG C   8      -1.552  14.402  19.731  1.00 59.84 LIG 0.16  C 
BRANCH 49 50
ATOM     50  C   ARG C   8      -2.180  15.198  18.590  1.00 63.97 LIG 0.22  C 
ATOM     51 O    ARG C   8      -3.421  15.367  18.631  1.00 69.17 LIG-0.29  OA
ENDBRANCH 49 50
BRANCH 49 52
ATOM     52  CB  ARG C   8      -0.522  13.413  19.174  1.00 59.33 LIG 0.04  C 
BRANCH 52 53
ATOM     53  CG  ARG C   8       0.912  13.694  19.597  1.00 56.20 LIG 0.02  C 
BRANCH 53 54
ATOM     54  CD  ARG C   8       1.910  12.834  18.853  1.00 50.77 LIG 0.14  C 
BRANCH 54 55
ATOM     55  NE  ARG C   8       2.540  13.572  17.764  1.00 55.07 LIG-0.23  N 
ATOM     56  CZ  ARG C   8       3.275  13.019  16.797  1.00 55.92 LIG 0.67  C 
ATOM     57  NH1 ARG C   8       3.446  11.704  16.749  1.00 58.39 LIG-0.23  N 
ATOM     58  NH2 ARG C   8       3.813  13.777  15.846  1.00 49.54 LIG-0.23  N 
ATOM     59 1HH1 ARG C   8       3.081  11.201  17.344  1.00 58.39 LIG 0.17  HD
ATOM     60 2HH1 ARG C   8       3.921  11.355  16.123  1.00 58.39 LIG 0.17  HD
ATOM     61 1HH2 ARG C   8       3.688  14.628  15.852  1.00 49.54 LIG 0.17  HD
ATOM     62 2HH2 ARG C   8       4.286  13.417  15.225  1.00 49.54 LIG 0.17  HD
ATOM     63 HE   ARG C   8       2.430  14.424  17.743  1.00 55.07 LIG 0.18  HD
ENDBRANCH 54 55
ENDBRANCH 53 54
ENDBRANCH 52 53
ENDBRANCH 49 52
ENDBRANCH 47 49
ENDBRANCH 41 45
ENDBRANCH 4 38
TORSDOF 14
ENDMDL
MODEL 14
USER: ADFR SOLUTION from run 112
USER: SCORE 17.335170 LL:  -4.712 LR: -12.748 RR:   0.000 FEB:  -8.572
USER: RMSD 8.033141
USER: SEED 111
USER: STATUS no improvement in best in 10 clusters for 5 generations
USER: GENES 16
USER: genes 0 Translation |==|  0.48921 0.38463 0.67584
USER: genes 1 Rotation |==|  0.22056 0.19615 0.77506 0.56269
USER: genes 2 Torsion [N]-C--CA-[N] |==|  0.45520
USER: genes 3 Torsion [C]-CA--N-[C] |==|  0.56024
USER: genes 4 Torsion [N]-C--CA-[N] |==|  0.25710
USER: genes 5 Torsion [N]-C--CA-[CB] |==|  0.67025
USER: genes 6 Torsion [N]-C--CA-[N] |==|  0.29543
USER: genes 7 Torsion [C]-CA--CB-[CG2] |==|  0.76953
USER: genes 8 Torsion [N]-CA--C-[O] |==|  0.90234
USER: genes 9 Torsion [N]-CA--C-[O] |==|  0.36119
USER: genes 10 Torsion [C]-N--CA-[C] |==|  0.74403
USER: genes 11 Torsion [N]-CA--C-[O] |==|  0.27426
USER: genes 12 Torsion [N]-CA--CB-[CG] |==|  0.77900
USER: genes 13 Torsion [CA]-CB--CG-[CD] |==|  0.44977
USER: genes 14 Torsion [CB]-CG--CD-[NE] |==|  0.61189
USER: genes 15 Torsion [CG]-CD--NE-[CZ] |==|  0.57097
ROOT
ATOM      1  C   VAL C   5      -0.164   5.548  28.436  1.00 42.36 LIG 0.24  C 
ATOM      2 O    VAL C   5       0.352   4.918  27.507  1.00 45.24 LIG-0.27  OA
ATOM      3  N   PRO C   6      -0.780   6.734  28.257  1.00 47.11 LIG-0.34  N 
ATOM      4  CA  PRO C   6      -0.966   7.436  26.980  1.00 46.93 LIG 0.18  C 
ATOM      5  CB  PRO C   6      -1.366   8.833  27.429  1.00 48.77 LIG 0.04  C 
ATOM      6  CG  PRO C   6      -2.140   8.563  28.670  1.00 47.44 LIG 0.02  C 
ATOM      7  CD  PRO C   6      -1.245   7.583  29.369  1.00 45.48 LIG 0.13  C 
ENDROOT
BRANCH 1 8
ATOM      8  CA  VAL C   5      -0.091   5.006  29.853  1.00 35.80 LIG 0.18  C 
BRANCH 8 9
ATOM      9  N   VAL C   5       0.244   3.605  29.774  1.00 29.23 LIG-0.35  N 
ATOM     10 H    VAL C   5       0.625   3.383  29.035  1.00 29.23 LIG 0.16  HD
ATOM     11  C   PRO C   4      -0.009   2.741  30.742  1.00 26.62 LIG 0.24  C 
ATOM     12 O    PRO C   4      -0.484   3.046  31.843  1.00 27.50 LIG-0.27  OA
BRANCH 11 13
ATOM     13  CA  PRO C   4       0.424   1.328  30.445  1.00 24.57 LIG 0.18  C 
ATOM     14  N   PRO C   4       1.768   1.182  30.979  1.00 25.19 LIG-0.34  N 
ATOM     15  C   PRO C   3       2.802   1.868  30.450  1.00 26.73 LIG 0.24  C 
ATOM     16  CD  PRO C   4       1.790   0.128  32.003  1.00 25.69 LIG 0.13  C 
ATOM     17 O    PRO C   3       2.683   2.579  29.450  1.00 25.36 LIG-0.27  OA
ATOM     18  CG  PRO C   4       0.615  -0.714  31.592  1.00 24.59 LIG 0.02  C 
ATOM     19  CB  PRO C   4      -0.384   0.313  31.259  1.00 22.47 LIG 0.04  C 
BRANCH 15 20
ATOM     20  CA  PRO C   3       4.175   1.657  31.081  1.00 28.16 LIG 0.18  C 
ATOM     21  N   PRO C   3       5.180   1.285  30.082  1.00 24.30 LIG-0.34  N 
ATOM     22  CD  PRO C   3       6.085   2.411  29.817  1.00 25.18 LIG 0.13  C 
ATOM     23  C   PRO C   2       5.141   0.108  29.448  1.00 26.75 LIG 0.24  C 
ATOM     24  CG  PRO C   3       5.371   3.585  30.489  1.00 22.51 LIG 0.02  C 
ATOM     25  CB  PRO C   3       4.736   2.963  31.658  1.00 21.93 LIG 0.04  C 
ATOM     26 O    PRO C   2       4.254  -0.728  29.660  1.00 25.20 LIG-0.27  OA
BRANCH 23 27
ATOM     27  CA  PRO C   2       6.242  -0.173  28.438  1.00 29.29 LIG 0.18  C 
ATOM     28  N   PRO C   2       7.192  -1.154  28.982  1.00 27.80 LIG-0.34  N 
ATOM     29  C   ACE C   1       8.036  -0.864  29.991  1.00 31.50 LIG 0.22  C 
ATOM     30  CD  PRO C   2       7.132  -2.414  28.223  1.00 33.03 LIG 0.13  C 
ATOM     31 O    ACE C   1       8.112   0.267  30.468  1.00 38.95 LIG-0.27  OA
ATOM     32  CH3 ACE C   1       8.977  -1.937  30.500  1.00 34.05 LIG 0.12  C 
ATOM     33  CG  PRO C   2       5.785  -2.326  27.550  1.00 32.34 LIG 0.02  C 
ATOM     34  CB  PRO C   2       5.697  -0.878  27.192  1.00 28.70 LIG 0.04  C 
ENDBRANCH 23 27
ENDBRANCH 15 20
ENDBRANCH 11 13
ENDBRANCH 8 9
BRANCH 8 35
ATOM     35  CB  VAL C   5       0.981   5.736  30.653  1.00 35.33 LIG 0.01  C 
ATOM     36  CG2 VAL C   5       2.351   5.110  30.358  1.00 35.45 LIG 0.01  C 
ATOM     37  CG1 VAL C   5       0.667   5.697  32.116  1.00 28.19 LIG 0.01  C 
ENDBRANCH 8 35
ENDBRANCH 1 8
BRANCH 4 38
ATOM     38  C   PRO C   6       0.291   7.465  26.105  1.00 48.62 LIG 0.24  C 
ATOM     39 O    PRO C   6       1.409   7.557  26.628  1.00 45.97 LIG-0.27  OA
ATOM     40  N   PRO C   7       0.116   7.405  24.764  1.00 50.57 LIG-0.34  N 
ATOM     41  CA  PRO C   7       1.228   7.420  23.810  1.00 53.29 LIG 0.18  C 
ATOM     42  CD  PRO C   7      -1.174   7.452  24.042  1.00 52.97 LIG 0.13  C 
ATOM     43  CB  PRO C   7       0.536   7.786  22.497  1.00 53.80 LIG 0.04  C 
ATOM     44  CG  PRO C   7      -0.780   7.087  22.621  1.00 51.48 LIG 0.02  C 
BRANCH 41 45
ATOM     45  C   PRO C   7       2.261   8.457  24.216  1.00 55.55 LIG 0.24  C 
ATOM     46 O    PRO C   7       3.463   8.153  24.283  1.00 56.05 LIG-0.27  OA
ATOM     47  N   ARG C   8       1.784   9.694  24.370  1.00 55.98 LIG-0.35  N 
ATOM     48 H    ARG C   8       0.955   9.895  24.257  1.00 55.98 LIG 0.16  HD
BRANCH 47 49
ATOM     49  CA  ARG C   8       2.616  10.830  24.747  1.00 59.84 LIG 0.16  C 
BRANCH 49 50
ATOM     50  C   ARG C   8       2.659  11.055  26.256  1.00 63.97 LIG 0.22  C 
ATOM     51 O    ARG C   8       3.655  10.605  26.869  1.00 69.17 LIG-0.29  OA
ENDBRANCH 49 50
BRANCH 49 52
ATOM     52  CB  ARG C   8       2.134  12.103  24.042  1.00 59.33 LIG 0.04  C 
BRANCH 52 53
ATOM     53  CG  ARG C   8       2.587  12.230  22.596  1.00 56.20 LIG 0.02  C 
BRANCH 53 54
ATOM     54  CD  ARG C   8       1.761  13.232  21.820  1.00 50.77 LIG 0.14  C 
BRANCH 54 55
ATOM     55  NE  ARG C   8       1.480  12.757  20.470  1.00 55.07 LIG-0.23  N 
ATOM     56  CZ  ARG C   8       1.224  13.547  19.425  1.00 55.92 LIG 0.67  C 
ATOM     57  NH1 ARG C   8       1.255  14.868  19.555  1.00 58.39 LIG-0.23  N 
ATOM     58  NH2 ARG C   8       0.976  13.019  18.230  1.00 49.54 LIG-0.23  N 
ATOM     59 1HH1 ARG C   8       1.441  15.220  20.317  1.00 58.39 LIG 0.17  HD
ATOM     60 2HH1 ARG C   8       1.089  15.370  18.876  1.00 58.39 LIG 0.17  HD
ATOM     61 1HH2 ARG C   8       0.980  12.165  18.127  1.00 49.54 LIG 0.17  HD
ATOM     62 2HH2 ARG C   8       0.812  13.531  17.559  1.00 49.54 LIG 0.17  HD
ATOM     63 HE   ARG C   8       1.479  11.908  20.337  1.00 55.07 LIG 0.18  HD
ENDBRANCH 54 55
ENDBRANCH 53 54
ENDBRANCH 52 53
ENDBRANCH 49 52
ENDBRANCH 47 49
ENDBRANCH 41 45
ENDBRANCH 4 38
TORSDOF 14
ENDMDL
MODEL 15
USER: ADFR SOLUTION from run 62
USER: SCORE 17.362047 LL:  -4.852 LR: -12.635 RR:   0.000 FEB:  -8.459
USER: RMSD 1.594623
USER: SEED 61
USER: STATUS no improvement in best in 4 clusters for 5 generations
USER: GENES 16
USER: genes 0 Translation |==|  0.56254 0.57007 0.48159
USER: genes 1 Rotation |==|  0.42256 0.50068 0.55468 0.99093
USER: genes 2 Torsion [N]-C--CA-[N] |==|  0.32355
USER: genes 3 Torsion [C]-CA--N-[C] |==|  0.75083
USER: genes 4 Torsion [N]-C--CA-[N] |==|  0.37814
USER: genes 5 Torsion [N]-C--CA-[CB] |==|  0.82462
USER: genes 6 Torsion [N]-C--CA-[N] |==|  0.36317
USER: genes 7 Torsion [C]-CA--CB-[CG2] |==|  0.53916
USER: genes 8 Torsion [N]-CA--C-[O] |==|  0.98257
USER: genes 9 Torsion [N]-CA--C-[O] |==|  0.81243
USER: genes 10 Torsion [C]-N--CA-[C] |==|  0.83908
USER: genes 11 Torsion [N]-CA--C-[O] |==|  0.93915
USER: genes 12 Torsion [N]-CA--CB-[CG] |==|  0.81619
USER: genes 13 Torsion [CA]-CB--CG-[CD] |==|  0.88330
USER: genes 14 Torsion [CB]-CG--CD-[NE] |==|  0.75776
USER: genes 15 Torsion [CG]-CD--NE-[CZ] |==|  0.72317
ROOT
ATOM      1  C   VAL C   5       1.431   9.721  24.502  1.00 42.36 LIG 0.24  C 
ATOM      2 O    VAL C   5       0.913  10.838  24.417  1.00 45.24 LIG-0.27  OA
ATOM      3  N   PRO C   6       2.767   9.536  24.512  1.00 47.11 LIG-0.34  N 
ATOM      4  CA  PRO C   6       3.793  10.586  24.457  1.00 46.93 LIG 0.18  C 
ATOM      5  CB  PRO C   6       5.050   9.798  24.125  1.00 48.77 LIG 0.04  C 
ATOM      6  CG  PRO C   6       4.819   8.509  24.830  1.00 47.44 LIG 0.02  C 
ATOM      7  CD  PRO C   6       3.403   8.208  24.436  1.00 45.48 LIG 0.13  C 
ENDROOT
BRANCH 1 8
ATOM      8  CA  VAL C   5       0.554   8.482  24.571  1.00 35.80 LIG 0.18  C 
BRANCH 8 9
ATOM      9  N   VAL C   5      -0.200   8.542  25.799  1.00 29.23 LIG-0.35  N 
ATOM     10 H    VAL C   5      -0.958   8.940  25.719  1.00 29.23 LIG 0.16  HD
ATOM     11  C   PRO C   4       0.231   8.034  26.942  1.00 26.62 LIG 0.24  C 
ATOM     12 O    PRO C   4       1.279   7.390  27.069  1.00 27.50 LIG-0.27  OA
BRANCH 11 13
ATOM     13  CA  PRO C   4      -0.719   8.213  28.099  1.00 24.57 LIG 0.18  C 
ATOM     14  N   PRO C   4      -0.757   6.944  28.808  1.00 25.19 LIG-0.34  N 
ATOM     15  C   PRO C   3      -1.284   5.845  28.231  1.00 26.73 LIG 0.24  C 
ATOM     16  CD  PRO C   4      -0.296   7.128  30.191  1.00 25.69 LIG 0.13  C 
ATOM     17 O    PRO C   3      -1.827   5.873  27.125  1.00 25.36 LIG-0.27  OA
ATOM     18  CG  PRO C   4      -0.593   8.583  30.416  1.00 24.59 LIG 0.02  C 
ATOM     19  CB  PRO C   4      -0.151   9.177  29.144  1.00 22.47 LIG 0.04  C 
BRANCH 15 20
ATOM     20  CA  PRO C   3      -1.273   4.556  29.048  1.00 28.16 LIG 0.18  C 
ATOM     21  N   PRO C   3      -1.821   3.429  28.290  1.00 24.30 LIG-0.34  N 
ATOM     22  CD  PRO C   3      -0.745   2.520  27.868  1.00 25.18 LIG 0.13  C 
ATOM     23  C   PRO C   2      -3.114   3.366  27.956  1.00 26.75 LIG 0.24  C 
ATOM     24  CG  PRO C   3       0.518   3.336  28.154  1.00 22.51 LIG 0.02  C 
ATOM     25  CB  PRO C   3       0.158   4.097  29.356  1.00 21.93 LIG 0.04  C 
ATOM     26 O    PRO C   2      -3.919   4.255  28.257  1.00 25.20 LIG-0.27  OA
BRANCH 23 27
ATOM     27  CA  PRO C   2      -3.570   2.143  27.176  1.00 29.29 LIG 0.18  C 
ATOM     28  N   PRO C   2      -4.770   1.564  27.796  1.00 27.80 LIG-0.34  N 
ATOM     29  C   ACE C   1      -4.740   0.933  28.986  1.00 31.50 LIG 0.22  C 
ATOM     30  CD  PRO C   2      -5.936   1.703  26.906  1.00 33.03 LIG 0.13  C 
ATOM     31 O    ACE C   1      -3.686   0.740  29.590  1.00 38.95 LIG-0.27  OA
ATOM     32  CH3 ACE C   1      -6.025   0.373  29.559  1.00 34.05 LIG 0.12  C 
ATOM     33  CG  PRO C   2      -5.507   2.812  25.978  1.00 32.34 LIG 0.02  C 
ATOM     34  CB  PRO C   2      -4.057   2.519  25.773  1.00 28.70 LIG 0.04  C 
ENDBRANCH 23 27
ENDBRANCH 15 20
ENDBRANCH 11 13
ENDBRANCH 8 9
BRANCH 8 35
ATOM     35  CB  VAL C   5      -0.408   8.438  23.390  1.00 35.33 LIG 0.01  C 
ATOM     36  CG2 VAL C   5      -1.500   7.395  23.662  1.00 35.45 LIG 0.01  C 
ATOM     37  CG1 VAL C   5       0.327   8.143  22.121  1.00 28.19 LIG 0.01  C 
ENDBRANCH 8 35
ENDBRANCH 1 8
BRANCH 4 38
ATOM     38  C   PRO C   6       3.512  11.665  23.407  1.00 48.62 LIG 0.24  C 
ATOM     39 O    PRO C   6       2.561  11.539  22.625  1.00 45.97 LIG-0.27  OA
ATOM     40  N   PRO C   7       4.350  12.729  23.371  1.00 50.57 LIG-0.34  N 
ATOM     41  CA  PRO C   7       4.198  13.835  22.422  1.00 53.29 LIG 0.18  C 
ATOM     42  CD  PRO C   7       5.595  12.895  24.150  1.00 52.97 LIG 0.13  C 
ATOM     43  CB  PRO C   7       5.573  14.504  22.467  1.00 53.80 LIG 0.04  C 
ATOM     44  CG  PRO C   7       5.958  14.349  23.903  1.00 51.48 LIG 0.02  C 
BRANCH 41 45
ATOM     45  C   PRO C   7       3.870  13.305  21.036  1.00 55.55 LIG 0.24  C 
ATOM     46 O    PRO C   7       4.712  12.654  20.397  1.00 56.05 LIG-0.27  OA
ATOM     47  N   ARG C   8       2.608  13.500  20.646  1.00 55.98 LIG-0.35  N 
ATOM     48 H    ARG C   8       2.022  13.900  21.133  1.00 55.98 LIG 0.16  HD
BRANCH 47 49
ATOM     49  CA  ARG C   8       2.093  13.057  19.356  1.00 59.84 LIG 0.16  C 
BRANCH 49 50
ATOM     50  C   ARG C   8       2.867  13.644  18.179  1.00 63.97 LIG 0.22  C 
ATOM     51 O    ARG C   8       3.513  14.696  18.391  1.00 69.17 LIG-0.29  OA
ENDBRANCH 49 50
BRANCH 49 52
ATOM     52  CB  ARG C   8       0.605  13.401  19.228  1.00 59.33 LIG 0.04  C 
BRANCH 52 53
ATOM     53  CG  ARG C   8      -0.299  12.649  20.192  1.00 56.20 LIG 0.02  C 
BRANCH 53 54
ATOM     54  CD  ARG C   8       0.083  11.191  20.320  1.00 50.77 LIG 0.14  C 
BRANCH 54 55
ATOM     55  NE  ARG C   8      -0.568  10.379  19.298  1.00 55.07 LIG-0.23  N 
ATOM     56  CZ  ARG C   8      -1.664   9.644  19.496  1.00 55.92 LIG 0.67  C 
ATOM     57  NH1 ARG C   8      -2.272   9.645  20.676  1.00 58.39 LIG-0.23  N 
ATOM     58  NH2 ARG C   8      -2.184   8.933  18.500  1.00 49.54 LIG-0.23  N 
ATOM     59 1HH1 ARG C   8      -1.960  10.122  21.320  1.00 58.39 LIG 0.17  HD
ATOM     60 2HH1 ARG C   8      -2.978   9.169  20.796  1.00 58.39 LIG 0.17  HD
ATOM     61 1HH2 ARG C   8      -1.814   8.945  17.724  1.00 49.54 LIG 0.17  HD
ATOM     62 2HH2 ARG C   8      -2.891   8.461  18.632  1.00 49.54 LIG 0.17  HD
ATOM     63 HE   ARG C   8      -0.221  10.374  18.512  1.00 55.07 LIG 0.18  HD
ENDBRANCH 54 55
ENDBRANCH 53 54
ENDBRANCH 52 53
ENDBRANCH 49 52
ENDBRANCH 47 49
ENDBRANCH 41 45
ENDBRANCH 4 38
TORSDOF 14
ENDMDL
MODEL 16
USER: ADFR SOLUTION from run 84
USER: SCORE 17.193333 LL:  -5.100 LR: -12.617 RR:   0.000 FEB:  -8.441
USER: RMSD 6.825339
USER: SEED 83
USER: STATUS no improvement in best in 7 clusters for 5 generations
USER: GENES 16
USER: genes 0 Translation |==|  0.31454 0.44999 0.47153
USER: genes 1 Rotation |==|  0.71207 0.78179 0.39670 0.83905
USER: genes 2 Torsion [N]-C--CA-[N] |==|  0.20710
USER: genes 3 Torsion [C]-CA--N-[C] |==|  0.61325
USER: genes 4 Torsion [N]-C--CA-[N] |==|  0.21873
USER: genes 5 Torsion [N]-C--CA-[CB] |==|  0.84901
USER: genes 6 Torsion [N]-C--CA-[N] |==|  0.34036
USER: genes 7 Torsion [C]-CA--CB-[CG2] |==|  0.80695
USER: genes 8 Torsion [N]-CA--C-[O] |==|  0.78565
USER: genes 9 Torsion [N]-CA--C-[O] |==|  0.39144
USER: genes 10 Torsion [C]-N--CA-[C] |==|  0.57157
USER: genes 11 Torsion [N]-CA--C-[O] |==|  0.07405
USER: genes 12 Torsion [N]-CA--CB-[CG] |==|  0.58015
USER: genes 13 Torsion [CA]-CB--CG-[CD] |==|  0.60823
USER: genes 14 Torsion [CB]-CG--CD-[NE] |==|  0.10860
USER: genes 15 Torsion [CG]-CD--NE-[CZ] |==|  0.46769
ROOT
ATOM      1  C   VAL C   5      -3.963   7.019  24.298  1.00 42.36 LIG 0.24  C 
ATOM      2 O    VAL C   5      -2.983   7.396  24.949  1.00 45.24 LIG-0.27  OA
ATOM      3  N   PRO C   6      -4.012   7.084  22.952  1.00 47.11 LIG-0.34  N 
ATOM      4  CA  PRO C   6      -2.946   7.564  22.064  1.00 46.93 LIG 0.18  C 
ATOM      5  CB  PRO C   6      -3.680   7.757  20.746  1.00 48.77 LIG 0.04  C 
ATOM      6  CG  PRO C   6      -4.691   6.667  20.777  1.00 47.44 LIG 0.02  C 
ATOM      7  CD  PRO C   6      -5.230   6.805  22.170  1.00 45.48 LIG 0.13  C 
ENDROOT
BRANCH 1 8
ATOM      8  CA  VAL C   5      -5.189   6.481  25.017  1.00 35.80 LIG 0.18  C 
BRANCH 8 9
ATOM      9  N   VAL C   5      -5.221   5.052  24.827  1.00 29.23 LIG-0.35  N 
ATOM     10 H    VAL C   5      -4.449   4.678  24.887  1.00 29.23 LIG 0.16  HD
ATOM     11  C   PRO C   4      -6.332   4.376  24.582  1.00 26.62 LIG 0.24  C 
ATOM     12 O    PRO C   4      -7.464   4.875  24.566  1.00 27.50 LIG-0.27  OA
BRANCH 11 13
ATOM     13  CA  PRO C   4      -6.133   2.891  24.414  1.00 24.57 LIG 0.18  C 
ATOM     14  N   PRO C   4      -5.999   2.334  25.750  1.00 25.19 LIG-0.34  N 
ATOM     15  C   PRO C   3      -4.935   2.635  26.522  1.00 26.73 LIG 0.24  C 
ATOM     16  CD  PRO C   4      -7.070   1.358  25.997  1.00 25.69 LIG 0.13  C 
ATOM     17 O    PRO C   3      -3.994   3.318  26.116  1.00 25.36 LIG-0.27  OA
ATOM     18  CG  PRO C   4      -7.413   0.929  24.598  1.00 24.59 LIG 0.02  C 
ATOM     19  CB  PRO C   4      -7.399   2.215  23.882  1.00 22.47 LIG 0.04  C 
BRANCH 15 20
ATOM     20  CA  PRO C   3      -4.884   2.010  27.913  1.00 28.16 LIG 0.18  C 
ATOM     21  N   PRO C   3      -3.834   2.610  28.739  1.00 24.30 LIG-0.34  N 
ATOM     22  CD  PRO C   3      -4.420   3.490  29.759  1.00 25.18 LIG 0.13  C 
ATOM     23  C   PRO C   2      -2.537   2.436  28.466  1.00 26.75 LIG 0.24  C 
ATOM     24  CG  PRO C   3      -5.872   3.625  29.295  1.00 22.51 LIG 0.02  C 
ATOM     25  CB  PRO C   3      -6.159   2.309  28.712  1.00 21.93 LIG 0.04  C 
ATOM     26 O    PRO C   2      -2.148   1.769  27.500  1.00 25.20 LIG-0.27  OA
BRANCH 23 27
ATOM     27  CA  PRO C   2      -1.536   3.099  29.399  1.00 29.29 LIG 0.18  C 
ATOM     28  N   PRO C   2      -0.631   2.093  29.972  1.00 27.80 LIG-0.34  N 
ATOM     29  C   ACE C   1      -1.038   1.180  30.876  1.00 31.50 LIG 0.22  C 
ATOM     30  CD  PRO C   2       0.745   2.292  29.486  1.00 33.03 LIG 0.13  C 
ATOM     31 O    ACE C   1      -2.182   1.185  31.330  1.00 38.95 LIG-0.27  OA
ATOM     32  CH3 ACE C   1      -0.043   0.171  31.409  1.00 34.05 LIG 0.12  C 
ATOM     33  CG  PRO C   2       0.534   3.115  28.239  1.00 32.34 LIG 0.02  C 
ATOM     34  CB  PRO C   2      -0.582   4.024  28.637  1.00 28.70 LIG 0.04  C 
ENDBRANCH 23 27
ENDBRANCH 15 20
ENDBRANCH 11 13
ENDBRANCH 8 9
BRANCH 8 35
ATOM     35  CB  VAL C   5      -5.116   6.789  26.508  1.00 35.33 LIG 0.01  C 
ATOM     36  CG2 VAL C   5      -4.005   5.946  27.148  1.00 35.45 LIG 0.01  C 
ATOM     37  CG1 VAL C   5      -6.438   6.540  27.164  1.00 28.19 LIG 0.01  C 
ENDBRANCH 8 35
ENDBRANCH 1 8
BRANCH 4 38
ATOM     38  C   PRO C   6      -2.290   8.865  22.537  1.00 48.62 LIG 0.24  C 
ATOM     39 O    PRO C   6      -2.868   9.948  22.375  1.00 45.97 LIG-0.27  OA
ATOM     40  N   PRO C   7      -1.067   8.771  23.111  1.00 50.57 LIG-0.34  N 
ATOM     41  CA  PRO C   7      -0.326   9.931  23.611  1.00 53.29 LIG 0.18  C 
ATOM     42  CD  PRO C   7      -0.231   7.555  23.206  1.00 52.97 LIG 0.13  C 
ATOM     43  CB  PRO C   7       1.101   9.393  23.726  1.00 53.80 LIG 0.04  C 
ATOM     44  CG  PRO C   7       0.876   7.978  24.156  1.00 51.48 LIG 0.02  C 
BRANCH 41 45
ATOM     45  C   PRO C   7      -0.420  11.086  22.628  1.00 55.55 LIG 0.24  C 
ATOM     46 O    PRO C   7      -0.547  12.251  23.038  1.00 56.05 LIG-0.27  OA
ATOM     47  N   ARG C   8      -0.243  10.748  21.349  1.00 55.98 LIG-0.35  N 
ATOM     48 H    ARG C   8      -0.093   9.941  21.092  1.00 55.98 LIG 0.16  HD
BRANCH 47 49
ATOM     49  CA  ARG C   8      -0.285  11.712  20.255  1.00 59.84 LIG 0.16  C 
BRANCH 49 50
ATOM     50  C   ARG C   8      -0.679  11.077  18.924  1.00 63.97 LIG 0.22  C 
ATOM     51 O    ARG C   8      -1.384  10.043  18.975  1.00 69.17 LIG-0.29  OA
ENDBRANCH 49 50
BRANCH 49 52
ATOM     52  CB  ARG C   8       1.065  12.423  20.116  1.00 59.33 LIG 0.04  C 
BRANCH 52 53
ATOM     53  CG  ARG C   8       0.978  13.834  19.555  1.00 56.20 LIG 0.02  C 
BRANCH 53 54
ATOM     54  CD  ARG C   8       2.110  14.144  18.601  1.00 50.77 LIG 0.14  C 
BRANCH 54 55
ATOM     55  NE  ARG C   8       2.427  12.995  17.760  1.00 55.07 LIG-0.23  N 
ATOM     56  CZ  ARG C   8       3.219  13.035  16.686  1.00 55.92 LIG 0.67  C 
ATOM     57  NH1 ARG C   8       3.821  14.164  16.334  1.00 58.39 LIG-0.23  N 
ATOM     58  NH2 ARG C   8       3.446  11.931  15.979  1.00 49.54 LIG-0.23  N 
ATOM     59 1HH1 ARG C   8       3.702  14.877  16.800  1.00 58.39 LIG 0.17  HD
ATOM     60 2HH1 ARG C   8       4.330  14.181  15.641  1.00 58.39 LIG 0.17  HD
ATOM     61 1HH2 ARG C   8       3.082  11.188  16.213  1.00 49.54 LIG 0.17  HD
ATOM     62 2HH2 ARG C   8       3.957  11.961  15.288  1.00 49.54 LIG 0.17  HD
ATOM     63 HE   ARG C   8       2.079  12.238  17.971  1.00 55.07 LIG 0.18  HD
ENDBRANCH 54 55
ENDBRANCH 53 54
ENDBRANCH 52 53
ENDBRANCH 49 52
ENDBRANCH 47 49
ENDBRANCH 41 45
ENDBRANCH 4 38
TORSDOF 14
ENDMDL
MODEL 17
USER: ADFR SOLUTION from run 137
USER: SCORE 16.763144 LL:  -4.648 LR: -12.561 RR:   0.000 FEB:  -8.385
USER: RMSD 7.808431
USER: SEED 136
USER: STATUS no improvement in best in 7 clusters for 5 generations
USER: GENES 16
USER: genes 0 Translation |==|  0.25577 0.34027 0.42322
USER: genes 1 Rotation |==|  0.24682 0.07931 0.58558 0.54000
USER: genes 2 Torsion [N]-C--CA-[N] |==|  0.83353
USER: genes 3 Torsion [C]-CA--N-[C] |==|  0.68866
USER: genes 4 Torsion [N]-C--CA-[N] |==|  0.61972
USER: genes 5 Torsion [N]-C--CA-[CB] |==|  0.74683
USER: genes 6 Torsion [N]-C--CA-[N] |==|  0.32451
USER: genes 7 Torsion [C]-CA--CB-[CG2] |==|  0.43990
USER: genes 8 Torsion [N]-CA--C-[O] |==|  0.34616
USER: genes 9 Torsion [N]-CA--C-[O] |==|  0.89785
USER: genes 10 Torsion [C]-N--CA-[C] |==|  0.79053
USER: genes 11 Torsion [N]-CA--C-[O] |==|  0.11359
USER: genes 12 Torsion [N]-CA--CB-[CG] |==|  0.77381
USER: genes 13 Torsion [CA]-CB--CG-[CD] |==|  0.47171
USER: genes 14 Torsion [CB]-CG--CD-[NE] |==|  0.23202
USER: genes 15 Torsion [CG]-CD--NE-[CZ] |==|  0.54247
ROOT
ATOM      1  C   VAL C   5      -5.241   4.550  23.320  1.00 42.36 LIG 0.24  C 
ATOM      2 O    VAL C   5      -4.232   4.766  22.641  1.00 45.24 LIG-0.27  OA
ATOM      3  N   PRO C   6      -6.194   5.482  23.524  1.00 47.11 LIG-0.34  N 
ATOM      4  CA  PRO C   6      -6.214   6.844  22.973  1.00 46.93 LIG 0.18  C 
ATOM      5  CB  PRO C   6      -7.281   7.523  23.817  1.00 48.77 LIG 0.04  C 
ATOM      6  CG  PRO C   6      -8.241   6.416  24.074  1.00 47.44 LIG 0.02  C 
ATOM      7  CD  PRO C   6      -7.312   5.306  24.469  1.00 45.48 LIG 0.13  C 
ENDROOT
BRANCH 1 8
ATOM      8  CA  VAL C   5      -5.430   3.200  23.990  1.00 35.80 LIG 0.18  C 
BRANCH 8 9
ATOM      9  N   VAL C   5      -5.489   3.417  25.414  1.00 29.23 LIG-0.35  N 
ATOM     10 H    VAL C   5      -6.193   3.840  25.669  1.00 29.23 LIG 0.16  HD
ATOM     11  C   PRO C   4      -4.552   3.005  26.252  1.00 26.62 LIG 0.24  C 
ATOM     12 O    PRO C   4      -3.570   2.328  25.923  1.00 27.50 LIG-0.27  OA
BRANCH 11 13
ATOM     13  CA  PRO C   4      -4.817   3.342  27.697  1.00 24.57 LIG 0.18  C 
ATOM     14  N   PRO C   4      -3.559   3.811  28.254  1.00 25.19 LIG-0.34  N 
ATOM     15  C   PRO C   3      -2.508   2.977  28.389  1.00 26.73 LIG 0.24  C 
ATOM     16  CD  PRO C   4      -3.705   5.194  28.732  1.00 25.69 LIG 0.13  C 
ATOM     17 O    PRO C   3      -2.580   1.774  28.131  1.00 25.36 LIG-0.27  OA
ATOM     18  CG  PRO C   4      -5.182   5.264  29.000  1.00 24.59 LIG 0.02  C 
ATOM     19  CB  PRO C   4      -5.730   4.564  27.827  1.00 22.47 LIG 0.04  C 
BRANCH 15 20
ATOM     20  CA  PRO C   3      -1.226   3.560  28.976  1.00 28.16 LIG 0.18  C 
ATOM     21  N   PRO C   3      -0.408   2.531  29.622  1.00 24.30 LIG-0.34  N 
ATOM     22  CD  PRO C   3       0.767   2.214  28.798  1.00 25.18 LIG 0.13  C 
ATOM     23  C   PRO C   2      -0.802   1.918  30.743  1.00 26.75 LIG 0.24  C 
ATOM     24  CG  PRO C   3       0.440   2.894  27.467  1.00 22.51 LIG 0.02  C 
ATOM     25  CB  PRO C   3      -0.297   4.095  27.878  1.00 21.93 LIG 0.04  C 
ATOM     26 O    PRO C   2      -1.879   2.176  31.294  1.00 25.20 LIG-0.27  OA
BRANCH 23 27
ATOM     27  CA  PRO C   2       0.134   0.873  31.328  1.00 29.29 LIG 0.18  C 
ATOM     28  N   PRO C   2       0.597   1.294  32.658  1.00 27.80 LIG-0.34  N 
ATOM     29  C   ACE C   1       1.450   2.321  32.839  1.00 31.50 LIG 0.22  C 
ATOM     30  CD  PRO C   2       0.071   0.397  33.701  1.00 33.03 LIG 0.13  C 
ATOM     31 O    ACE C   1       1.949   2.922  31.889  1.00 38.95 LIG-0.27  OA
ATOM     32  CH3 ACE C   1       1.869   2.696  34.245  1.00 34.05 LIG 0.12  C 
ATOM     33  CG  PRO C   2      -1.105  -0.250  33.012  1.00 32.34 LIG 0.02  C 
ATOM     34  CB  PRO C   2      -0.599  -0.440  31.620  1.00 28.70 LIG 0.04  C 
ENDBRANCH 23 27
ENDBRANCH 15 20
ENDBRANCH 11 13
ENDBRANCH 8 9
BRANCH 8 35
ATOM     35  CB  VAL C   5      -6.727   2.547  23.525  1.00 35.33 LIG 0.01  C 
ATOM     36  CG2 VAL C   5      -6.645   1.031  23.758  1.00 35.45 LIG 0.01  C 
ATOM     37  CG1 VAL C   5      -6.993   2.866  22.087  1.00 28.19 LIG 0.01  C 
ENDBRANCH 8 35
ENDBRANCH 1 8
BRANCH 4 38
ATOM     38  C   PRO C   6      -4.869   7.569  23.078  1.00 48.62 LIG 0.24  C 
ATOM     39 O    PRO C   6      -4.334   8.037  22.065  1.00 45.97 LIG-0.27  OA
ATOM     40  N   PRO C   7      -4.303   7.654  24.306  1.00 50.57 LIG-0.34  N 
ATOM     41  CA  PRO C   7      -3.022   8.321  24.553  1.00 53.29 LIG 0.18  C 
ATOM     42  CD  PRO C   7      -4.780   6.997  25.541  1.00 52.97 LIG 0.13  C 
ATOM     43  CB  PRO C   7      -2.616   7.769  25.920  1.00 53.80 LIG 0.04  C 
ATOM     44  CG  PRO C   7      -3.931   7.648  26.621  1.00 51.48 LIG 0.02  C 
BRANCH 41 45
ATOM     45  C   PRO C   7      -2.018   7.958  23.472  1.00 55.55 LIG 0.24  C 
ATOM     46 O    PRO C   7      -1.997   6.813  22.993  1.00 56.05 LIG-0.27  OA
ATOM     47  N   ARG C   8      -1.276   8.977  23.032  1.00 55.98 LIG-0.35  N 
ATOM     48 H    ARG C   8      -1.351   9.779  23.335  1.00 55.98 LIG 0.16  HD
BRANCH 47 49
ATOM     49  CA  ARG C   8      -0.264   8.838  21.992  1.00 59.84 LIG 0.16  C 
BRANCH 49 50
ATOM     50  C   ARG C   8       1.010   8.164  22.495  1.00 63.97 LIG 0.22  C 
ATOM     51 O    ARG C   8       0.869   7.191  23.272  1.00 69.17 LIG-0.29  OA
ENDBRANCH 49 50
BRANCH 49 52
ATOM     52  CB  ARG C   8       0.072  10.205  21.386  1.00 59.33 LIG 0.04  C 
BRANCH 52 53
ATOM     53  CG  ARG C   8      -0.911  10.682  20.328  1.00 56.20 LIG 0.02  C 
BRANCH 53 54
ATOM     54  CD  ARG C   8      -0.683  12.126  19.940  1.00 50.77 LIG 0.14  C 
BRANCH 54 55
ATOM     55  NE  ARG C   8       0.366  12.246  18.933  1.00 55.07 LIG-0.23  N 
ATOM     56  CZ  ARG C   8       0.984  13.384  18.612  1.00 55.92 LIG 0.67  C 
ATOM     57  NH1 ARG C   8       0.694  14.512  19.250  1.00 58.39 LIG-0.23  N 
ATOM     58  NH2 ARG C   8       1.928  13.394  17.675  1.00 49.54 LIG-0.23  N 
ATOM     59 1HH1 ARG C   8       0.104  14.512  19.876  1.00 58.39 LIG 0.17  HD
ATOM     60 2HH1 ARG C   8       1.097  15.241  19.038  1.00 58.39 LIG 0.17  HD
ATOM     61 1HH2 ARG C   8       2.143  12.665  17.273  1.00 49.54 LIG 0.17  HD
ATOM     62 2HH2 ARG C   8       2.324  14.129  17.471  1.00 49.54 LIG 0.17  HD
ATOM     63 HE   ARG C   8       0.602  11.533  18.516  1.00 55.07 LIG 0.18  HD
ENDBRANCH 54 55
ENDBRANCH 53 54
ENDBRANCH 52 53
ENDBRANCH 49 52
ENDBRANCH 47 49
ENDBRANCH 41 45
ENDBRANCH 4 38
TORSDOF 14
ENDMDL
MODEL 18
USER: ADFR SOLUTION from run 25
USER: SCORE 18.342543 LL:  -5.839 LR: -12.541 RR:   0.000 FEB:  -8.365
USER: RMSD 6.498930
USER: SEED 24
USER: STATUS no improvement in best in 5 clusters for 5 generations
USER: GENES 16
USER: genes 0 Translation |==|  0.62002 0.65020 0.44093
USER: genes 1 Rotation |==|  0.22039 0.41324 0.74651 0.82175
USER: genes 2 Torsion [N]-C--CA-[N] |==|  0.43251
USER: genes 3 Torsion [C]-CA--N-[C] |==|  0.78435
USER: genes 4 Torsion [N]-C--CA-[N] |==|  0.89630
USER: genes 5 Torsion [N]-C--CA-[CB] |==|  0.61491
USER: genes 6 Torsion [N]-C--CA-[N] |==|  0.44909
USER: genes 7 Torsion [C]-CA--CB-[CG2] |==|  0.79186
USER: genes 8 Torsion [N]-CA--C-[O] |==|  0.77357
USER: genes 9 Torsion [N]-CA--C-[O] |==|  0.91544
USER: genes 10 Torsion [C]-N--CA-[C] |==|  0.16884
USER: genes 11 Torsion [N]-CA--C-[O] |==|  0.40440
USER: genes 12 Torsion [N]-CA--CB-[CG] |==|  0.37693
USER: genes 13 Torsion [CA]-CB--CG-[CD] |==|  0.64557
USER: genes 14 Torsion [CB]-CG--CD-[NE] |==|  0.05237
USER: genes 15 Torsion [CG]-CD--NE-[CZ] |==|  0.35772
ROOT
ATOM      1  C   VAL C   5       2.682  11.524  23.679  1.00 42.36 LIG 0.24  C 
ATOM      2 O    VAL C   5       1.832  11.325  22.805  1.00 45.24 LIG-0.27  OA
ATOM      3  N   PRO C   6       3.527  12.574  23.648  1.00 47.11 LIG-0.34  N 
ATOM      4  CA  PRO C   6       3.562  13.635  22.632  1.00 46.93 LIG 0.18  C 
ATOM      5  CB  PRO C   6       4.906  14.296  22.896  1.00 48.77 LIG 0.04  C 
ATOM      6  CG  PRO C   6       5.044  14.167  24.372  1.00 47.44 LIG 0.02  C 
ATOM      7  CD  PRO C   6       4.658  12.733  24.580  1.00 45.48 LIG 0.13  C 
ENDROOT
BRANCH 1 8
ATOM      8  CA  VAL C   5       2.824  10.546  24.833  1.00 35.80 LIG 0.18  C 
BRANCH 8 9
ATOM      9  N   VAL C   5       1.555   9.886  25.013  1.00 29.23 LIG-0.35  N 
ATOM     10 H    VAL C   5       1.532   9.089  24.691  1.00 29.23 LIG 0.16  HD
ATOM     11  C   PRO C   4       0.521  10.450  25.615  1.00 26.62 LIG 0.24  C 
ATOM     12 O    PRO C   4       0.549  11.563  26.154  1.00 27.50 LIG-0.27  OA
BRANCH 11 13
ATOM     13  CA  PRO C   4      -0.707   9.579  25.689  1.00 24.57 LIG 0.18  C 
ATOM     14  N   PRO C   4      -0.770   8.837  24.440  1.00 25.19 LIG-0.34  N 
ATOM     15  C   PRO C   3      -0.993   9.469  23.270  1.00 26.73 LIG 0.24  C 
ATOM     16  CD  PRO C   4      -0.703   7.394  24.710  1.00 25.69 LIG 0.13  C 
ATOM     17 O    PRO C   3      -1.234  10.676  23.205  1.00 25.36 LIG-0.27  OA
ATOM     18  CG  PRO C   4      -1.224   7.326  26.118  1.00 24.59 LIG 0.02  C 
ATOM     19  CB  PRO C   4      -0.547   8.476  26.739  1.00 22.47 LIG 0.04  C 
BRANCH 15 20
ATOM     20  CA  PRO C   3      -1.034   8.610  22.010  1.00 28.16 LIG 0.18  C 
ATOM     21  N   PRO C   3      -2.398   8.461  21.499  1.00 24.30 LIG-0.34  N 
ATOM     22  CD  PRO C   3      -2.586   9.271  20.288  1.00 25.18 LIG 0.13  C 
ATOM     23  C   PRO C   2      -3.328   7.768  22.165  1.00 26.75 LIG 0.24  C 
ATOM     24  CG  PRO C   3      -1.341  10.160  20.279  1.00 22.51 LIG 0.02  C 
ATOM     25  CB  PRO C   3      -0.304   9.288  20.843  1.00 21.93 LIG 0.04  C 
ATOM     26 O    PRO C   2      -3.096   7.222  23.250  1.00 25.20 LIG-0.27  OA
BRANCH 23 27
ATOM     27  CA  PRO C   2      -4.708   7.674  21.533  1.00 29.29 LIG 0.18  C 
ATOM     28  N   PRO C   2      -5.463   6.561  22.125  1.00 27.80 LIG-0.34  N 
ATOM     29  C   ACE C   1      -5.149   5.270  21.902  1.00 31.50 LIG 0.22  C 
ATOM     30  CD  PRO C   2      -6.614   7.063  22.894  1.00 33.03 LIG 0.13  C 
ATOM     31 O    ACE C   1      -4.251   4.947  21.125  1.00 38.95 LIG-0.27  OA
ATOM     32  CH3 ACE C   1      -5.973   4.183  22.560  1.00 34.05 LIG 0.12  C 
ATOM     33  CG  PRO C   2      -6.232   8.499  23.155  1.00 32.34 LIG 0.02  C 
ATOM     34  CB  PRO C   2      -5.569   8.894  21.876  1.00 28.70 LIG 0.04  C 
ENDBRANCH 23 27
ENDBRANCH 15 20
ENDBRANCH 11 13
ENDBRANCH 8 9
BRANCH 8 35
ATOM     35  CB  VAL C   5       3.895   9.505  24.526  1.00 35.33 LIG 0.01  C 
ATOM     36  CG2 VAL C   5       3.345   8.494  23.510  1.00 35.45 LIG 0.01  C 
ATOM     37  CG1 VAL C   5       4.347   8.828  25.782  1.00 28.19 LIG 0.01  C 
ENDBRANCH 8 35
ENDBRANCH 1 8
BRANCH 4 38
ATOM     38  C   PRO C   6       3.465  13.114  21.195  1.00 48.62 LIG 0.24  C 
ATOM     39 O    PRO C   6       4.472  12.678  20.622  1.00 45.97 LIG-0.27  OA
ATOM     40  N   PRO C   7       2.253  13.171  20.594  1.00 50.57 LIG-0.34  N 
ATOM     41  CA  PRO C   7       2.015  12.706  19.225  1.00 53.29 LIG 0.18  C 
ATOM     42  CD  PRO C   7       1.034  13.813  21.132  1.00 52.97 LIG 0.13  C 
ATOM     43  CB  PRO C   7       0.687  13.376  18.871  1.00 53.80 LIG 0.04  C 
ATOM     44  CG  PRO C   7      -0.047  13.343  20.173  1.00 51.48 LIG 0.02  C 
BRANCH 41 45
ATOM     45  C   PRO C   7       3.140  13.154  18.309  1.00 55.55 LIG 0.24  C 
ATOM     46 O    PRO C   7       3.750  14.212  18.534  1.00 56.05 LIG-0.27  OA
ATOM     47  N   ARG C   8       3.467  12.281  17.354  1.00 55.98 LIG-0.35  N 
ATOM     48 H    ARG C   8       3.071  11.523  17.254  1.00 55.98 LIG 0.16  HD
BRANCH 47 49
ATOM     49  CA  ARG C   8       4.526  12.520  16.381  1.00 59.84 LIG 0.16  C 
BRANCH 49 50
ATOM     50  C   ARG C   8       5.894  12.704  17.031  1.00 63.97 LIG 0.22  C 
ATOM     51 O    ARG C   8       6.886  12.269  16.402  1.00 69.17 LIG-0.29  OA
ENDBRANCH 49 50
BRANCH 49 52
ATOM     52  CB  ARG C   8       4.190  13.739  15.514  1.00 59.33 LIG 0.04  C 
BRANCH 52 53
ATOM     53  CG  ARG C   8       5.354  14.694  15.295  1.00 56.20 LIG 0.02  C 
BRANCH 53 54
ATOM     54  CD  ARG C   8       4.999  16.122  15.645  1.00 50.77 LIG 0.14  C 
BRANCH 54 55
ATOM     55  NE  ARG C   8       3.821  16.182  16.504  1.00 55.07 LIG-0.23  N 
ATOM     56  CZ  ARG C   8       3.753  16.853  17.655  1.00 55.92 LIG 0.67  C 
ATOM     57  NH1 ARG C   8       4.787  17.569  18.079  1.00 58.39 LIG-0.23  N 
ATOM     58  NH2 ARG C   8       2.633  16.846  18.371  1.00 49.54 LIG-0.23  N 
ATOM     59 1HH1 ARG C   8       5.508  17.603  17.611  1.00 58.39 LIG 0.17  HD
ATOM     60 2HH1 ARG C   8       4.736  18.000  18.822  1.00 58.39 LIG 0.17  HD
ATOM     61 1HH2 ARG C   8       1.948  16.406  18.094  1.00 49.54 LIG 0.17  HD
ATOM     62 2HH2 ARG C   8       2.593  17.280  19.112  1.00 49.54 LIG 0.17  HD
ATOM     63 HE   ARG C   8       3.120  15.754  16.250  1.00 55.07 LIG 0.18  HD
ENDBRANCH 54 55
ENDBRANCH 53 54
ENDBRANCH 52 53
ENDBRANCH 49 52
ENDBRANCH 47 49
ENDBRANCH 41 45
ENDBRANCH 4 38
TORSDOF 14
ENDMDL
MODEL 19
USER: ADFR SOLUTION from run 173
USER: SCORE 18.715771 LL:  -6.218 LR: -12.499 RR:   0.000 FEB:  -8.323
USER: RMSD 6.738697
USER: SEED 172
USER: STATUS no improvement in best in 1 clusters for 5 generations
USER: GENES 16
USER: genes 0 Translation |==|  0.63924 0.64285 0.44364
USER: genes 1 Rotation |==|  0.22635 0.37510 0.74635 0.81437
USER: genes 2 Torsion [N]-C--CA-[N] |==|  0.39830
USER: genes 3 Torsion [C]-CA--N-[C] |==|  0.82185
USER: genes 4 Torsion [N]-C--CA-[N] |==|  0.86257
USER: genes 5 Torsion [N]-C--CA-[CB] |==|  0.61251
USER: genes 6 Torsion [N]-C--CA-[N] |==|  0.44072
USER: genes 7 Torsion [C]-CA--CB-[CG2] |==|  0.58311
USER: genes 8 Torsion [N]-CA--C-[O] |==|  0.77395
USER: genes 9 Torsion [N]-CA--C-[O] |==|  0.80708
USER: genes 10 Torsion [C]-N--CA-[C] |==|  0.76670
USER: genes 11 Torsion [N]-CA--C-[O] |==|  0.41105
USER: genes 12 Torsion [N]-CA--CB-[CG] |==|  0.67973
USER: genes 13 Torsion [CA]-CB--CG-[CD] |==|  0.20870
USER: genes 14 Torsion [CB]-CG--CD-[NE] |==|  0.34492
USER: genes 15 Torsion [CG]-CD--NE-[CZ] |==|  0.55841
ROOT
ATOM      1  C   VAL C   5       3.099  11.358  23.734  1.00 42.36 LIG 0.24  C 
ATOM      2 O    VAL C   5       2.355  11.146  22.771  1.00 45.24 LIG-0.27  OA
ATOM      3  N   PRO C   6       3.828  12.487  23.856  1.00 47.11 LIG-0.34  N 
ATOM      4  CA  PRO C   6       3.838  13.622  22.925  1.00 46.93 LIG 0.18  C 
ATOM      5  CB  PRO C   6       5.075  14.392  23.361  1.00 48.77 LIG 0.04  C 
ATOM      6  CG  PRO C   6       5.096  14.162  24.830  1.00 47.44 LIG 0.02  C 
ATOM      7  CD  PRO C   6       4.849  12.684  24.901  1.00 45.48 LIG 0.13  C 
ENDROOT
BRANCH 1 8
ATOM      8  CA  VAL C   5       3.244  10.312  24.826  1.00 35.80 LIG 0.18  C 
BRANCH 8 9
ATOM      9  N   VAL C   5       1.949   9.712  25.037  1.00 29.23 LIG-0.35  N 
ATOM     10 H    VAL C   5       1.921   8.875  24.841  1.00 29.23 LIG 0.16  HD
ATOM     11  C   PRO C   4       0.903  10.382  25.489  1.00 26.62 LIG 0.24  C 
ATOM     12 O    PRO C   4       0.934  11.565  25.851  1.00 27.50 LIG-0.27  OA
BRANCH 11 13
ATOM     13  CA  PRO C   4      -0.351   9.557  25.631  1.00 24.57 LIG 0.18  C 
ATOM     14  N   PRO C   4      -0.526   8.844  24.377  1.00 25.19 LIG-0.34  N 
ATOM     15  C   PRO C   3      -0.802   9.508  23.236  1.00 26.73 LIG 0.24  C 
ATOM     16  CD  PRO C   4      -0.499   7.394  24.616  1.00 25.69 LIG 0.13  C 
ATOM     17 O    PRO C   3      -1.000  10.724  23.208  1.00 25.36 LIG-0.27  OA
ATOM     18  CG  PRO C   4      -0.925   7.318  26.054  1.00 24.59 LIG 0.02  C 
ATOM     19  CB  PRO C   4      -0.164   8.428  26.649  1.00 22.47 LIG 0.04  C 
BRANCH 15 20
ATOM     20  CA  PRO C   3      -0.961   8.676  21.967  1.00 28.16 LIG 0.18  C 
ATOM     21  N   PRO C   3      -2.364   8.573  21.558  1.00 24.30 LIG-0.34  N 
ATOM     22  CD  PRO C   3      -2.621   9.412  20.380  1.00 25.18 LIG 0.13  C 
ATOM     23  C   PRO C   2      -3.259   7.890  22.279  1.00 26.75 LIG 0.24  C 
ATOM     24  CG  PRO C   3      -1.357  10.270  20.293  1.00 22.51 LIG 0.02  C 
ATOM     25  CB  PRO C   3      -0.304   9.360  20.760  1.00 21.93 LIG 0.04  C 
ATOM     26 O    PRO C   2      -2.960   7.316  23.333  1.00 25.20 LIG-0.27  OA
BRANCH 23 27
ATOM     27  CA  PRO C   2      -4.685   7.844  21.752  1.00 29.29 LIG 0.18  C 
ATOM     28  N   PRO C   2      -5.401   6.695  22.325  1.00 27.80 LIG-0.34  N 
ATOM     29  C   ACE C   1      -5.117   5.422  21.990  1.00 31.50 LIG 0.22  C 
ATOM     30  CD  PRO C   2      -6.485   7.147  23.214  1.00 33.03 LIG 0.13  C 
ATOM     31 O    ACE C   1      -4.285   5.150  21.125  1.00 38.95 LIG-0.27  OA
ATOM     32  CH3 ACE C   1      -5.897   4.295  22.635  1.00 34.05 LIG 0.12  C 
ATOM     33  CG  PRO C   2      -6.070   8.561  23.541  1.00 32.34 LIG 0.02  C 
ATOM     34  CB  PRO C   2      -5.506   9.040  22.244  1.00 28.70 LIG 0.04  C 
ENDBRANCH 23 27
ENDBRANCH 15 20
ENDBRANCH 11 13
ENDBRANCH 8 9
BRANCH 8 35
ATOM     35  CB  VAL C   5       4.237   9.234  24.409  1.00 35.33 LIG 0.01  C 
ATOM     36  CG2 VAL C   5       3.850   7.903  25.069  1.00 35.45 LIG 0.01  C 
ATOM     37  CG1 VAL C   5       5.634   9.635  24.767  1.00 28.19 LIG 0.01  C 
ENDBRANCH 8 35
ENDBRANCH 1 8
BRANCH 4 38
ATOM     38  C   PRO C   6       3.924  13.209  21.452  1.00 48.62 LIG 0.24  C 
ATOM     39 O    PRO C   6       5.018  12.920  20.950  1.00 45.97 LIG-0.27  OA
ATOM     40  N   PRO C   7       2.770  13.195  20.743  1.00 50.57 LIG-0.34  N 
ATOM     41  CA  PRO C   7       2.704  12.818  19.329  1.00 53.29 LIG 0.18  C 
ATOM     42  CD  PRO C   7       1.448  13.671  21.204  1.00 52.97 LIG 0.13  C 
ATOM     43  CB  PRO C   7       1.350  13.381  18.896  1.00 53.80 LIG 0.04  C 
ATOM     44  CG  PRO C   7       0.511  13.175  20.116  1.00 51.48 LIG 0.02  C 
BRANCH 41 45
ATOM     45  C   PRO C   7       3.853  13.445  18.558  1.00 55.55 LIG 0.24  C 
ATOM     46 O    PRO C   7       3.887  14.671  18.367  1.00 56.05 LIG-0.27  OA
ATOM     47  N   ARG C   8       4.833  12.600  18.226  1.00 55.98 LIG-0.35  N 
ATOM     48 H    ARG C   8       4.818  11.763  18.424  1.00 55.98 LIG 0.16  HD
BRANCH 47 49
ATOM     49  CA  ARG C   8       6.026  13.008  17.494  1.00 59.84 LIG 0.16  C 
BRANCH 49 50
ATOM     50  C   ARG C   8       5.811  13.036  15.984  1.00 63.97 LIG 0.22  C 
ATOM     51 O    ARG C   8       6.455  13.892  15.334  1.00 69.17 LIG-0.29  OA
ENDBRANCH 49 50
BRANCH 49 52
ATOM     52  CB  ARG C   8       7.204  12.090  17.838  1.00 59.33 LIG 0.04  C 
BRANCH 52 53
ATOM     53  CG  ARG C   8       8.352  12.784  18.555  1.00 56.20 LIG 0.02  C 
BRANCH 53 54
ATOM     54  CD  ARG C   8       8.035  13.070  20.006  1.00 50.77 LIG 0.14  C 
BRANCH 54 55
ATOM     55  NE  ARG C   8       9.035  12.487  20.894  1.00 55.07 LIG-0.23  N 
ATOM     56  CZ  ARG C   8       8.840  12.220  22.187  1.00 55.92 LIG 0.67  C 
ATOM     57  NH1 ARG C   8       7.659  12.442  22.750  1.00 58.39 LIG-0.23  N 
ATOM     58  NH2 ARG C   8       9.817  11.690  22.917  1.00 49.54 LIG-0.23  N 
ATOM     59 1HH1 ARG C   8       7.011  12.759  22.280  1.00 58.39 LIG 0.17  HD
ATOM     60 2HH1 ARG C   8       7.540  12.267  23.584  1.00 58.39 LIG 0.17  HD
ATOM     61 1HH2 ARG C   8      10.578  11.517  22.557  1.00 49.54 LIG 0.17  HD
ATOM     62 2HH2 ARG C   8       9.687  11.519  23.750  1.00 49.54 LIG 0.17  HD
ATOM     63 HE   ARG C   8       9.806  12.303  20.561  1.00 55.07 LIG 0.18  HD
ENDBRANCH 54 55
ENDBRANCH 53 54
ENDBRANCH 52 53
ENDBRANCH 49 52
ENDBRANCH 47 49
ENDBRANCH 41 45
ENDBRANCH 4 38
TORSDOF 14
ENDMDL
MODEL 20
USER: ADFR SOLUTION from run 180
USER: SCORE 17.445385 LL:  -5.165 LR: -12.496 RR:   0.000 FEB:  -8.319
USER: RMSD 6.796161
USER: SEED 179
USER: STATUS no improvement in best in 3 clusters for 5 generations
USER: GENES 16
USER: genes 0 Translation |==|  0.37914 0.50710 0.35136
USER: genes 1 Rotation |==|  0.86061 0.67085 0.49584 0.80125
USER: genes 2 Torsion [N]-C--CA-[N] |==|  0.39058
USER: genes 3 Torsion [C]-CA--N-[C] |==|  0.59253
USER: genes 4 Torsion [N]-C--CA-[N] |==|  0.20561
USER: genes 5 Torsion [N]-C--CA-[CB] |==|  0.69095
USER: genes 6 Torsion [N]-C--CA-[N] |==|  0.45472
USER: genes 7 Torsion [C]-CA--CB-[CG2] |==|  0.85278
USER: genes 8 Torsion [N]-CA--C-[O] |==|  0.76237
USER: genes 9 Torsion [N]-CA--C-[O] |==|  0.27819
USER: genes 10 Torsion [C]-N--CA-[C] |==|  0.77022
USER: genes 11 Torsion [N]-CA--C-[O] |==|  0.64018
USER: genes 12 Torsion [N]-CA--CB-[CG] |==|  0.55852
USER: genes 13 Torsion [CA]-CB--CG-[CD] |==|  0.58745
USER: genes 14 Torsion [CB]-CG--CD-[NE] |==|  0.20908
USER: genes 15 Torsion [CG]-CD--NE-[CZ] |==|  0.52612
ROOT
ATOM      1  C   VAL C   5      -2.558   8.304  21.865  1.00 42.36 LIG 0.24  C 
ATOM      2 O    VAL C   5      -2.058   7.889  22.916  1.00 45.24 LIG-0.27  OA
ATOM      3  N   PRO C   6      -1.857   9.011  20.955  1.00 47.11 LIG-0.34  N 
ATOM      4  CA  PRO C   6      -0.434   9.366  21.036  1.00 46.93 LIG 0.18  C 
ATOM      5  CB  PRO C   6      -0.304  10.440  19.967  1.00 48.77 LIG 0.04  C 
ATOM      6  CG  PRO C   6      -1.279   9.990  18.937  1.00 47.44 LIG 0.02  C 
ATOM      7  CD  PRO C   6      -2.472   9.663  19.785  1.00 45.48 LIG 0.13  C 
ENDROOT
BRANCH 1 8
ATOM      8  CA  VAL C   5      -4.026   8.049  21.571  1.00 35.80 LIG 0.18  C 
BRANCH 8 9
ATOM      9  N   VAL C   5      -4.333   6.703  21.986  1.00 29.23 LIG-0.35  N 
ATOM     10 H    VAL C   5      -3.887   6.444  22.674  1.00 29.23 LIG 0.16  HD
ATOM     11  C   PRO C   4      -5.217   5.936  21.370  1.00 26.62 LIG 0.24  C 
ATOM     12 O    PRO C   4      -5.927   6.307  20.428  1.00 27.50 LIG-0.27  OA
BRANCH 11 13
ATOM     13  CA  PRO C   4      -5.377   4.563  21.972  1.00 24.57 LIG 0.18  C 
ATOM     14  N   PRO C   4      -6.123   4.733  23.207  1.00 25.19 LIG-0.34  N 
ATOM     15  C   PRO C   3      -5.588   5.395  24.254  1.00 26.73 LIG 0.24  C 
ATOM     16  CD  PRO C   4      -7.384   3.980  23.140  1.00 25.69 LIG 0.13  C 
ATOM     17 O    PRO C   3      -4.429   5.811  24.251  1.00 25.36 LIG-0.27  OA
ATOM     18  CG  PRO C   4      -7.045   2.915  22.136  1.00 24.59 LIG 0.02  C 
ATOM     19  CB  PRO C   4      -6.304   3.686  21.125  1.00 22.47 LIG 0.04  C 
BRANCH 15 20
ATOM     20  CA  PRO C   3      -6.449   5.531  25.506  1.00 28.16 LIG 0.18  C 
ATOM     21  N   PRO C   3      -5.692   5.223  26.721  1.00 24.30 LIG-0.34  N 
ATOM     22  CD  PRO C   3      -5.388   6.453  27.465  1.00 25.18 LIG 0.13  C 
ATOM     23  C   PRO C   2      -5.260   3.986  26.988  1.00 26.75 LIG 0.24  C 
ATOM     24  CG  PRO C   3      -5.742   7.552  26.461  1.00 22.51 LIG 0.02  C 
ATOM     25  CB  PRO C   3      -6.884   6.984  25.735  1.00 21.93 LIG 0.04  C 
ATOM     26 O    PRO C   2      -5.467   3.035  26.225  1.00 25.20 LIG-0.27  OA
BRANCH 23 27
ATOM     27  CA  PRO C   2      -4.492   3.784  28.285  1.00 29.29 LIG 0.18  C 
ATOM     28  N   PRO C   2      -4.430   2.354  28.621  1.00 27.80 LIG-0.34  N 
ATOM     29  C   ACE C   1      -5.509   1.655  29.021  1.00 31.50 LIG 0.22  C 
ATOM     30  CD  PRO C   2      -3.045   1.859  28.537  1.00 33.03 LIG 0.13  C 
ATOM     31 O    ACE C   1      -6.600   2.195  29.199  1.00 38.95 LIG-0.27  OA
ATOM     32  CH3 ACE C   1      -5.361   0.182  29.339  1.00 34.05 LIG 0.12  C 
ATOM     33  CG  PRO C   2      -2.380   2.894  27.664  1.00 32.34 LIG 0.02  C 
ATOM     34  CB  PRO C   2      -3.016   4.164  28.129  1.00 28.70 LIG 0.04  C 
ENDBRANCH 23 27
ENDBRANCH 15 20
ENDBRANCH 11 13
ENDBRANCH 8 9
BRANCH 8 35
ATOM     35  CB  VAL C   5      -4.906   9.027  22.342  1.00 35.33 LIG 0.01  C 
ATOM     36  CG2 VAL C   5      -4.537   8.978  23.831  1.00 35.45 LIG 0.01  C 
ATOM     37  CG1 VAL C   5      -6.354   8.717  22.127  1.00 28.19 LIG 0.01  C 
ENDBRANCH 8 35
ENDBRANCH 1 8
BRANCH 4 38
ATOM     38  C   PRO C   6      -0.007   9.887  22.411  1.00 48.62 LIG 0.24  C 
ATOM     39 O    PRO C   6      -0.143  11.085  22.691  1.00 45.97 LIG-0.27  OA
ATOM     40  N   PRO C   7       0.530   8.993  23.275  1.00 50.57 LIG-0.34  N 
ATOM     41  CA  PRO C   7       0.978   9.353  24.623  1.00 53.29 LIG 0.18  C 
ATOM     42  CD  PRO C   7       0.877   7.586  22.982  1.00 52.97 LIG 0.13  C 
ATOM     43  CB  PRO C   7       1.879   8.176  25.000  1.00 53.80 LIG 0.04  C 
ATOM     44  CG  PRO C   7       1.182   7.019  24.358  1.00 51.48 LIG 0.02  C 
BRANCH 41 45
ATOM     45  C   PRO C   7       1.740  10.666  24.597  1.00 55.55 LIG 0.24  C 
ATOM     46 O    PRO C   7       1.182  11.723  24.932  1.00 56.05 LIG-0.27  OA
ATOM     47  N   ARG C   8       3.038  10.556  24.304  1.00 55.98 LIG-0.35  N 
ATOM     48 H    ARG C   8       3.419   9.803  24.136  1.00 55.98 LIG 0.16  HD
BRANCH 47 49
ATOM     49  CA  ARG C   8       3.942  11.697  24.239  1.00 59.84 LIG 0.16  C 
BRANCH 49 50
ATOM     50  C   ARG C   8       3.881  12.423  22.898  1.00 63.97 LIG 0.22  C 
ATOM     51 O    ARG C   8       4.972  12.644  22.321  1.00 69.17 LIG-0.29  OA
ENDBRANCH 49 50
BRANCH 49 52
ATOM     52  CB  ARG C   8       5.381  11.257  24.531  1.00 59.33 LIG 0.04  C 
BRANCH 52 53
ATOM     53  CG  ARG C   8       6.303  12.380  24.983  1.00 56.20 LIG 0.02  C 
BRANCH 53 54
ATOM     54  CD  ARG C   8       7.734  12.159  24.546  1.00 50.77 LIG 0.14  C 
BRANCH 54 55
ATOM     55  NE  ARG C   8       7.905  12.432  23.123  1.00 55.07 LIG-0.23  N 
ATOM     56  CZ  ARG C   8       9.006  12.154  22.423  1.00 55.92 LIG 0.67  C 
ATOM     57  NH1 ARG C   8      10.037  11.549  23.000  1.00 58.39 LIG-0.23  N 
ATOM     58  NH2 ARG C   8       9.068  12.444  21.127  1.00 49.54 LIG-0.23  N 
ATOM     59 1HH1 ARG C   8       9.997  11.332  23.832  1.00 58.39 LIG 0.17  HD
ATOM     60 2HH1 ARG C   8      10.743  11.373  22.542  1.00 58.39 LIG 0.17  HD
ATOM     61 1HH2 ARG C   8       8.396  12.813  20.736  1.00 49.54 LIG 0.17  HD
ATOM     62 2HH2 ARG C   8       9.779  12.264  20.679  1.00 49.54 LIG 0.17  HD
ATOM     63 HE   ARG C   8       7.248  12.798  22.706  1.00 55.07 LIG 0.18  HD
ENDBRANCH 54 55
ENDBRANCH 53 54
ENDBRANCH 52 53
ENDBRANCH 49 52
ENDBRANCH 47 49
ENDBRANCH 41 45
ENDBRANCH 4 38
TORSDOF 14
ENDMDL
MODEL 21
USER: ADFR SOLUTION from run 113
USER: SCORE 15.449534 LL:  -3.407 LR: -12.475 RR:   0.000 FEB:  -8.298
USER: RMSD 7.795154
USER: SEED 112
USER: STATUS no improvement in best in 9 clusters for 5 generations
USER: GENES 16
USER: genes 0 Translation |==|  0.28230 0.36438 0.38230
USER: genes 1 Rotation |==|  0.85054 0.85208 0.44381 0.50007
USER: genes 2 Torsion [N]-C--CA-[N] |==|  0.83333
USER: genes 3 Torsion [C]-CA--N-[C] |==|  0.72715
USER: genes 4 Torsion [N]-C--CA-[N] |==|  0.47734
USER: genes 5 Torsion [N]-C--CA-[CB] |==|  0.26289
USER: genes 6 Torsion [N]-C--CA-[N] |==|  0.27898
USER: genes 7 Torsion [C]-CA--CB-[CG2] |==|  0.57269
USER: genes 8 Torsion [N]-CA--C-[O] |==|  0.94275
USER: genes 9 Torsion [N]-CA--C-[O] |==|  0.78728
USER: genes 10 Torsion [C]-N--CA-[C] |==|  0.23164
USER: genes 11 Torsion [N]-CA--C-[O] |==|  0.28365
USER: genes 12 Torsion [N]-CA--CB-[CG] |==|  0.72391
USER: genes 13 Torsion [CA]-CB--CG-[CD] |==|  0.20607
USER: genes 14 Torsion [CB]-CG--CD-[NE] |==|  0.64728
USER: genes 15 Torsion [CG]-CD--NE-[CZ] |==|  0.60517
ROOT
ATOM      1  C   VAL C   5      -4.664   5.092  22.492  1.00 42.36 LIG 0.24  C 
ATOM      2 O    VAL C   5      -3.543   4.779  22.079  1.00 45.24 LIG-0.27  OA
ATOM      3  N   PRO C   6      -5.127   6.358  22.452  1.00 47.11 LIG-0.34  N 
ATOM      4  CA  PRO C   6      -4.424   7.527  21.906  1.00 46.93 LIG 0.18  C 
ATOM      5  CB  PRO C   6      -5.238   8.686  22.460  1.00 48.77 LIG 0.04  C 
ATOM      6  CG  PRO C   6      -6.618   8.131  22.479  1.00 47.44 LIG 0.02  C 
ATOM      7  CD  PRO C   6      -6.384   6.783  23.095  1.00 45.48 LIG 0.13  C 
ENDROOT
BRANCH 1 8
ATOM      8  CA  VAL C   5      -5.570   4.036  23.101  1.00 35.80 LIG 0.18  C 
BRANCH 8 9
ATOM      9  N   VAL C   5      -5.834   4.415  24.467  1.00 29.23 LIG-0.35  N 
ATOM     10 H    VAL C   5      -6.459   5.000  24.548  1.00 29.23 LIG 0.16  HD
ATOM     11  C   PRO C   4      -5.179   3.912  25.500  1.00 26.62 LIG 0.24  C 
ATOM     12 O    PRO C   4      -4.331   3.015  25.420  1.00 27.50 LIG-0.27  OA
BRANCH 11 13
ATOM     13  CA  PRO C   4      -5.617   4.453  26.838  1.00 24.57 LIG 0.18  C 
ATOM     14  N   PRO C   4      -4.941   3.659  27.851  1.00 25.19 LIG-0.34  N 
ATOM     15  C   PRO C   3      -5.230   2.352  28.012  1.00 26.73 LIG 0.24  C 
ATOM     16  CD  PRO C   4      -4.085   4.523  28.676  1.00 25.69 LIG 0.13  C 
ATOM     17 O    PRO C   3      -6.124   1.787  27.379  1.00 25.36 LIG-0.27  OA
ATOM     18  CG  PRO C   4      -4.760   5.856  28.517  1.00 24.59 LIG 0.02  C 
ATOM     19  CB  PRO C   4      -5.069   5.862  27.078  1.00 22.47 LIG 0.04  C 
BRANCH 15 20
ATOM     20  CA  PRO C   3      -4.464   1.597  29.095  1.00 28.16 LIG 0.18  C 
ATOM     21  N   PRO C   3      -3.228   2.289  29.467  1.00 24.30 LIG-0.34  N 
ATOM     22  CD  PRO C   3      -3.368   2.925  30.783  1.00 25.18 LIG 0.13  C 
ATOM     23  C   PRO C   2      -2.197   2.393  28.621  1.00 26.75 LIG 0.24  C 
ATOM     24  CG  PRO C   3      -4.874   2.836  31.043  1.00 22.51 LIG 0.02  C 
ATOM     25  CB  PRO C   3      -5.245   1.562  30.415  1.00 21.93 LIG 0.04  C 
ATOM     26 O    PRO C   2      -2.229   1.922  27.478  1.00 25.20 LIG-0.27  OA
BRANCH 23 27
ATOM     27  CA  PRO C   2      -0.961   3.125  29.120  1.00 29.29 LIG 0.18  C 
ATOM     28  N   PRO C   2       0.067   2.161  29.536  1.00 27.80 LIG-0.34  N 
ATOM     29  C   ACE C   1      -0.060   1.394  30.636  1.00 31.50 LIG 0.22  C 
ATOM     30  CD  PRO C   2       1.238   2.232  28.646  1.00 33.03 LIG 0.13  C 
ATOM     31 O    ACE C   1      -1.017   1.510  31.400  1.00 38.95 LIG-0.27  OA
ATOM     32  CH3 ACE C   1       1.043   0.418  30.988  1.00 34.05 LIG 0.12  C 
ATOM     33  CG  PRO C   2       0.673   2.894  27.414  1.00 32.34 LIG 0.02  C 
ATOM     34  CB  PRO C   2      -0.271   3.898  27.991  1.00 28.70 LIG 0.04  C 
ENDBRANCH 23 27
ENDBRANCH 15 20
ENDBRANCH 11 13
ENDBRANCH 8 9
BRANCH 8 35
ATOM     35  CB  VAL C   5      -6.886   3.952  22.338  1.00 35.33 LIG 0.01  C 
ATOM     36  CG2 VAL C   5      -7.984   3.425  23.273  1.00 35.45 LIG 0.01  C 
ATOM     37  CG1 VAL C   5      -6.739   3.087  21.125  1.00 28.19 LIG 0.01  C 
ENDBRANCH 8 35
ENDBRANCH 1 8
BRANCH 4 38
ATOM     38  C   PRO C   6      -2.956   7.617  22.334  1.00 48.62 LIG 0.24  C 
ATOM     39 O    PRO C   6      -2.564   7.009  23.339  1.00 45.97 LIG-0.27  OA
ATOM     40  N   PRO C   7      -2.136   8.390  21.583  1.00 50.57 LIG-0.34  N 
ATOM     41  CA  PRO C   7      -0.711   8.563  21.874  1.00 53.29 LIG 0.18  C 
ATOM     42  CD  PRO C   7      -2.538   9.272  20.467  1.00 52.97 LIG 0.13  C 
ATOM     43  CB  PRO C   7      -0.357   9.817  21.073  1.00 53.80 LIG 0.04  C 
ATOM     44  CG  PRO C   7      -1.207   9.669  19.852  1.00 51.48 LIG 0.02  C 
BRANCH 41 45
ATOM     45  C   PRO C   7      -0.494   8.761  23.365  1.00 55.55 LIG 0.24  C 
ATOM     46 O    PRO C   7      -0.749   9.853  23.897  1.00 56.05 LIG-0.27  OA
ATOM     47  N   ARG C   8      -0.130   7.662  24.029  1.00 55.98 LIG-0.35  N 
ATOM     48 H    ARG C   8      -0.019   6.898  23.648  1.00 55.98 LIG 0.16  HD
BRANCH 47 49
ATOM     49  CA  ARG C   8       0.117   7.641  25.466  1.00 59.84 LIG 0.16  C 
BRANCH 49 50
ATOM     50  C   ARG C   8      -1.162   7.483  26.282  1.00 63.97 LIG 0.22  C 
ATOM     51 O    ARG C   8      -1.401   6.346  26.750  1.00 69.17 LIG-0.29  OA
ENDBRANCH 49 50
BRANCH 49 52
ATOM     52  CB  ARG C   8       0.861   8.909  25.898  1.00 59.33 LIG 0.04  C 
BRANCH 52 53
ATOM     53  CG  ARG C   8       2.361   8.729  26.075  1.00 56.20 LIG 0.02  C 
BRANCH 53 54
ATOM     54  CD  ARG C   8       3.087   8.621  24.752  1.00 50.77 LIG 0.14  C 
BRANCH 54 55
ATOM     55  NE  ARG C   8       3.920   7.425  24.699  1.00 55.07 LIG-0.23  N 
ATOM     56  CZ  ARG C   8       5.124   7.363  24.125  1.00 55.92 LIG 0.67  C 
ATOM     57  NH1 ARG C   8       5.670   8.445  23.584  1.00 58.39 LIG-0.23  N 
ATOM     58  NH2 ARG C   8       5.809   6.223  24.125  1.00 49.54 LIG-0.23  N 
ATOM     59 1HH1 ARG C   8       5.247   9.194  23.602  1.00 58.39 LIG 0.17  HD
ATOM     60 2HH1 ARG C   8       6.445   8.397  23.217  1.00 58.39 LIG 0.17  HD
ATOM     61 1HH2 ARG C   8       5.477   5.521  24.495  1.00 49.54 LIG 0.17  HD
ATOM     62 2HH2 ARG C   8       6.584   6.187  23.754  1.00 49.54 LIG 0.17  HD
ATOM     63 HE   ARG C   8       3.615   6.709  25.063  1.00 55.07 LIG 0.18  HD
ENDBRANCH 54 55
ENDBRANCH 53 54
ENDBRANCH 52 53
ENDBRANCH 49 52
ENDBRANCH 47 49
ENDBRANCH 41 45
ENDBRANCH 4 38
TORSDOF 14
ENDMDL
MODEL 22
USER: ADFR SOLUTION from run 34
USER: SCORE 17.793134 LL:  -5.424 LR: -12.435 RR:   0.000 FEB:  -8.259
USER: RMSD 6.977158
USER: SEED 33
USER: STATUS no improvement in best in 5 clusters for 5 generations
USER: GENES 16
USER: genes 0 Translation |==|  0.29191 0.43198 0.51181
USER: genes 1 Rotation |==|  0.66463 0.76685 0.37762 0.86974
USER: genes 2 Torsion [N]-C--CA-[N] |==|  0.35890
USER: genes 3 Torsion [C]-CA--N-[C] |==|  0.77232
USER: genes 4 Torsion [N]-C--CA-[N] |==|  0.77066
USER: genes 5 Torsion [N]-C--CA-[CB] |==|  0.24833
USER: genes 6 Torsion [N]-C--CA-[N] |==|  0.35371
USER: genes 7 Torsion [C]-CA--CB-[CG2] |==|  0.81107
USER: genes 8 Torsion [N]-CA--C-[O] |==|  0.80917
USER: genes 9 Torsion [N]-CA--C-[O] |==|  0.38318
USER: genes 10 Torsion [C]-N--CA-[C] |==|  0.59882
USER: genes 11 Torsion [N]-CA--C-[O] |==|  0.16670
USER: genes 12 Torsion [N]-CA--CB-[CG] |==|  0.83501
USER: genes 13 Torsion [CA]-CB--CG-[CD] |==|  0.49807
USER: genes 14 Torsion [CB]-CG--CD-[NE] |==|  0.02736
USER: genes 15 Torsion [CG]-CD--NE-[CZ] |==|  0.35726
ROOT
ATOM      1  C   VAL C   5      -4.455   6.614  25.114  1.00 42.36 LIG 0.24  C 
ATOM      2 O    VAL C   5      -3.526   7.190  25.688  1.00 45.24 LIG-0.27  OA
ATOM      3  N   PRO C   6      -4.448   6.360  23.789  1.00 47.11 LIG-0.34  N 
ATOM      4  CA  PRO C   6      -3.368   6.682  22.847  1.00 46.93 LIG 0.18  C 
ATOM      5  CB  PRO C   6      -4.052   6.518  21.498  1.00 48.77 LIG 0.04  C 
ATOM      6  CG  PRO C   6      -5.008   5.407  21.754  1.00 47.44 LIG 0.02  C 
ATOM      7  CD  PRO C   6      -5.615   5.835  23.058  1.00 45.48 LIG 0.13  C 
ENDROOT
BRANCH 1 8
ATOM      8  CA  VAL C   5      -5.683   6.186  25.900  1.00 35.80 LIG 0.18  C 
BRANCH 8 9
ATOM      9  N   VAL C   5      -5.235   5.424  27.040  1.00 29.23 LIG-0.35  N 
ATOM     10 H    VAL C   5      -5.191   5.883  27.765  1.00 29.23 LIG 0.16  HD
ATOM     11  C   PRO C   4      -4.922   4.141  26.978  1.00 26.62 LIG 0.24  C 
ATOM     12 O    PRO C   4      -5.051   3.439  25.967  1.00 27.50 LIG-0.27  OA
BRANCH 11 13
ATOM     13  CA  PRO C   4      -4.476   3.545  28.289  1.00 24.57 LIG 0.18  C 
ATOM     14  N   PRO C   4      -3.068   3.873  28.439  1.00 25.19 LIG-0.34  N 
ATOM     15  C   PRO C   3      -2.143   3.349  27.608  1.00 26.73 LIG 0.24  C 
ATOM     16  CD  PRO C   4      -2.866   4.681  29.650  1.00 25.69 LIG 0.13  C 
ATOM     17 O    PRO C   3      -2.424   2.516  26.746  1.00 25.36 LIG-0.27  OA
ATOM     18  CG  PRO C   4      -4.050   4.277  30.481  1.00 24.59 LIG 0.02  C 
ATOM     19  CB  PRO C   4      -5.126   4.259  29.477  1.00 22.47 LIG 0.04  C 
BRANCH 15 20
ATOM     20  CA  PRO C   3      -0.690   3.757  27.837  1.00 28.16 LIG 0.18  C 
ATOM     21  N   PRO C   3      -0.590   5.055  28.507  1.00 24.30 LIG-0.34  N 
ATOM     22  CD  PRO C   3      -0.185   4.882  29.909  1.00 25.18 LIG 0.13  C 
ATOM     23  C   PRO C   2      -0.955   6.190  27.902  1.00 26.75 LIG 0.24  C 
ATOM     24  CG  PRO C   3      -0.350   3.376  30.125  1.00 22.51 LIG 0.02  C 
ATOM     25  CB  PRO C   3       0.012   2.810  28.819  1.00 21.93 LIG 0.04  C 
ATOM     26 O    PRO C   2      -1.404   6.211  26.750  1.00 25.20 LIG-0.27  OA
BRANCH 23 27
ATOM     27  CA  PRO C   2      -0.798   7.480  28.693  1.00 29.29 LIG 0.18  C 
ATOM     28  N   PRO C   2      -0.029   8.462  27.916  1.00 27.80 LIG-0.34  N 
ATOM     29  C   ACE C   1       1.287   8.322  27.668  1.00 31.50 LIG 0.22  C 
ATOM     30  CD  PRO C   2      -0.874   9.610  27.546  1.00 33.03 LIG 0.13  C 
ATOM     31 O    ACE C   1       1.941   7.394  28.143  1.00 38.95 LIG-0.27  OA
ATOM     32  CH3 ACE C   1       2.003   9.376  26.849  1.00 34.05 LIG 0.12  C 
ATOM     33  CG  PRO C   2      -2.267   9.050  27.689  1.00 32.34 LIG 0.02  C 
ATOM     34  CB  PRO C   2      -2.144   8.182  28.898  1.00 28.70 LIG 0.04  C 
ENDBRANCH 23 27
ENDBRANCH 15 20
ENDBRANCH 11 13
ENDBRANCH 8 9
BRANCH 8 35
ATOM     35  CB  VAL C   5      -6.462   7.404  26.383  1.00 35.33 LIG 0.01  C 
ATOM     36  CG2 VAL C   5      -5.637   8.149  27.442  1.00 35.45 LIG 0.01  C 
ATOM     37  CG1 VAL C   5      -7.799   6.997  26.918  1.00 28.19 LIG 0.01  C 
ENDBRANCH 8 35
ENDBRANCH 1 8
BRANCH 4 38
ATOM     38  C   PRO C   6      -2.800   8.094  23.021  1.00 48.62 LIG 0.24  C 
ATOM     39 O    PRO C   6      -3.490   9.081  22.734  1.00 45.97 LIG-0.27  OA
ATOM     40  N   PRO C   7      -1.529   8.200  23.476  1.00 50.57 LIG-0.34  N 
ATOM     41  CA  PRO C   7      -0.861   9.486  23.692  1.00 53.29 LIG 0.18  C 
ATOM     42  CD  PRO C   7      -0.578   7.090  23.695  1.00 52.97 LIG 0.13  C 
ATOM     43  CB  PRO C   7       0.614   9.090  23.754  1.00 53.80 LIG 0.04  C 
ATOM     44  CG  PRO C   7       0.562   7.763  24.441  1.00 51.48 LIG 0.02  C 
BRANCH 41 45
ATOM     45  C   PRO C   7      -1.148  10.434  22.540  1.00 55.55 LIG 0.24  C 
ATOM     46 O    PRO C   7      -1.403  11.629  22.759  1.00 56.05 LIG-0.27  OA
ATOM     47  N   ARG C   8      -0.989   9.903  21.326  1.00 55.98 LIG-0.35  N 
ATOM     48 H    ARG C   8      -0.749   9.087  21.197  1.00 55.98 LIG 0.16  HD
BRANCH 47 49
ATOM     49  CA  ARG C   8      -1.205  10.651  20.093  1.00 59.84 LIG 0.16  C 
BRANCH 49 50
ATOM     50  C   ARG C   8      -1.804   9.795  18.980  1.00 63.97 LIG 0.22  C 
ATOM     51 O    ARG C   8      -2.918   9.269  19.206  1.00 69.17 LIG-0.29  OA
ENDBRANCH 49 50
BRANCH 49 52
ATOM     52  CB  ARG C   8       0.106  11.286  19.616  1.00 59.33 LIG 0.04  C 
BRANCH 52 53
ATOM     53  CG  ARG C   8       0.737  12.248  20.611  1.00 56.20 LIG 0.02  C 
BRANCH 53 54
ATOM     54  CD  ARG C   8       2.035  12.834  20.101  1.00 50.77 LIG 0.14  C 
BRANCH 54 55
ATOM     55  NE  ARG C   8       2.246  12.514  18.694  1.00 55.07 LIG-0.23  N 
ATOM     56  CZ  ARG C   8       2.535  13.408  17.747  1.00 55.92 LIG 0.67  C 
ATOM     57  NH1 ARG C   8       2.696  14.689  18.056  1.00 58.39 LIG-0.23  N 
ATOM     58  NH2 ARG C   8       2.708  13.019  16.487  1.00 49.54 LIG-0.23  N 
ATOM     59 1HH1 ARG C   8       2.613  14.948  18.872  1.00 58.39 LIG 0.17  HD
ATOM     60 2HH1 ARG C   8       2.883  15.259  17.440  1.00 58.39 LIG 0.17  HD
ATOM     61 1HH2 ARG C   8       2.632  12.188  16.279  1.00 49.54 LIG 0.17  HD
ATOM     62 2HH2 ARG C   8       2.894  13.598  15.880  1.00 49.54 LIG 0.17  HD
ATOM     63 HE   ARG C   8       2.178  11.690  18.457  1.00 55.07 LIG 0.18  HD
ENDBRANCH 54 55
ENDBRANCH 53 54
ENDBRANCH 52 53
ENDBRANCH 49 52
ENDBRANCH 47 49
ENDBRANCH 41 45
ENDBRANCH 4 38
TORSDOF 14
ENDMDL
MODEL 23
USER: ADFR SOLUTION from run 186
USER: SCORE 17.812769 LL:  -5.643 LR: -12.305 RR:   0.000 FEB:  -8.129
USER: RMSD 8.812831
USER: SEED 185
USER: STATUS no improvement in best in 16 clusters for 5 generations
USER: GENES 16
USER: genes 0 Translation |==|  0.47729 0.37636 0.67570
USER: genes 1 Rotation |==|  0.21558 0.20541 0.77864 0.56843
USER: genes 2 Torsion [N]-C--CA-[N] |==|  0.45771
USER: genes 3 Torsion [C]-CA--N-[C] |==|  0.56588
USER: genes 4 Torsion [N]-C--CA-[N] |==|  0.25474
USER: genes 5 Torsion [N]-C--CA-[CB] |==|  0.68853
USER: genes 6 Torsion [N]-C--CA-[N] |==|  0.28060
USER: genes 7 Torsion [C]-CA--CB-[CG2] |==|  0.78391
USER: genes 8 Torsion [N]-CA--C-[O] |==|  0.93657
USER: genes 9 Torsion [N]-CA--C-[O] |==|  0.82322
USER: genes 10 Torsion [C]-N--CA-[C] |==|  0.61749
USER: genes 11 Torsion [N]-CA--C-[O] |==|  0.68433
USER: genes 12 Torsion [N]-CA--CB-[CG] |==|  0.79401
USER: genes 13 Torsion [CA]-CB--CG-[CD] |==|  0.39892
USER: genes 14 Torsion [CB]-CG--CD-[NE] |==|  0.56347
USER: genes 15 Torsion [CG]-CD--NE-[CZ] |==|  0.64020
ROOT
ATOM      1  C   VAL C   5      -0.423   5.362  28.433  1.00 42.36 LIG 0.24  C 
ATOM      2 O    VAL C   5       0.050   4.693  27.509  1.00 45.24 LIG-0.27  OA
ATOM      3  N   PRO C   6      -0.990   6.571  28.241  1.00 47.11 LIG-0.34  N 
ATOM      4  CA  PRO C   6      -1.166   7.256  26.954  1.00 46.93 LIG 0.18  C 
ATOM      5  CB  PRO C   6      -1.497   8.677  27.383  1.00 48.77 LIG 0.04  C 
ATOM      6  CG  PRO C   6      -2.262   8.465  28.640  1.00 47.44 LIG 0.02  C 
ATOM      7  CD  PRO C   6      -1.399   7.459  29.344  1.00 45.48 LIG 0.13  C 
ENDROOT
BRANCH 1 8
ATOM      8  CA  VAL C   5      -0.351   4.843  29.859  1.00 35.80 LIG 0.18  C 
BRANCH 8 9
ATOM      9  N   VAL C   5      -0.057   3.432  29.802  1.00 29.23 LIG-0.35  N 
ATOM     10 H    VAL C   5       0.334   3.191  29.075  1.00 29.23 LIG 0.16  HD
ATOM     11  C   PRO C   4      -0.360   2.587  30.772  1.00 26.62 LIG 0.24  C 
ATOM     12 O    PRO C   4      -0.853   2.918  31.858  1.00 27.50 LIG-0.27  OA
BRANCH 11 13
ATOM     13  CA  PRO C   4       0.036   1.158  30.500  1.00 24.57 LIG 0.18  C 
ATOM     14  N   PRO C   4       1.370   0.983  31.050  1.00 25.19 LIG-0.34  N 
ATOM     15  C   PRO C   3       2.428   1.632  30.522  1.00 26.73 LIG 0.24  C 
ATOM     16  CD  PRO C   4       1.352  -0.058  32.089  1.00 25.69 LIG 0.13  C 
ATOM     17 O    PRO C   3       2.339   2.331  29.512  1.00 25.36 LIG-0.27  OA
ATOM     18  CG  PRO C   4       0.158  -0.872  31.678  1.00 24.59 LIG 0.02  C 
ATOM     19  CB  PRO C   4      -0.808   0.178  31.319  1.00 22.47 LIG 0.04  C 
BRANCH 15 20
ATOM     20  CA  PRO C   3       3.788   1.392  31.171  1.00 28.16 LIG 0.18  C 
ATOM     21  N   PRO C   3       4.827   1.129  30.172  1.00 24.30 LIG-0.34  N 
ATOM     22  CD  PRO C   3       5.714   2.291  30.033  1.00 25.18 LIG 0.13  C 
ATOM     23  C   PRO C   2       4.830   0.012  29.436  1.00 26.75 LIG 0.24  C 
ATOM     24  CG  PRO C   3       4.957   3.387  30.786  1.00 22.51 LIG 0.02  C 
ATOM     25  CB  PRO C   3       4.305   2.652  31.877  1.00 21.93 LIG 0.04  C 
ATOM     26 O    PRO C   2       3.956  -0.856  29.548  1.00 25.20 LIG-0.27  OA
BRANCH 23 27
ATOM     27  CA  PRO C   2       5.963  -0.157  28.437  1.00 29.29 LIG 0.18  C 
ATOM     28  N   PRO C   2       6.984  -1.068  28.976  1.00 27.80 LIG-0.34  N 
ATOM     29  C   ACE C   1       7.788  -0.731  30.002  1.00 31.50 LIG 0.22  C 
ATOM     30  CD  PRO C   2       7.037  -2.313  28.191  1.00 33.03 LIG 0.13  C 
ATOM     31 O    ACE C   1       7.764   0.393  30.502  1.00 38.95 LIG-0.27  OA
ATOM     32  CH3 ACE C   1       8.807  -1.733  30.503  1.00 34.05 LIG 0.12  C 
ATOM     33  CG  PRO C   2       5.696  -2.321  27.500  1.00 32.34 LIG 0.02  C 
ATOM     34  CB  PRO C   2       5.494  -0.878  27.170  1.00 28.70 LIG 0.04  C 
ENDBRANCH 23 27
ENDBRANCH 15 20
ENDBRANCH 11 13
ENDBRANCH 8 9
BRANCH 8 35
ATOM     35  CB  VAL C   5       0.750   5.556  30.635  1.00 35.33 LIG 0.01  C 
ATOM     36  CG2 VAL C   5       2.113   4.970  30.239  1.00 35.45 LIG 0.01  C 
ATOM     37  CG1 VAL C   5       0.514   5.444  32.109  1.00 28.19 LIG 0.01  C 
ENDBRANCH 8 35
ENDBRANCH 1 8
BRANCH 4 38
ATOM     38  C   PRO C   6       0.077   7.214  26.060  1.00 48.62 LIG 0.24  C 
ATOM     39 O    PRO C   6       1.196   7.037  26.559  1.00 45.97 LIG-0.27  OA
ATOM     40  N   PRO C   7      -0.107   7.394  24.730  1.00 50.57 LIG-0.34  N 
ATOM     41  CA  PRO C   7       0.990   7.376  23.760  1.00 53.29 LIG 0.18  C 
ATOM     42  CD  PRO C   7      -1.372   7.767  24.061  1.00 52.97 LIG 0.13  C 
ATOM     43  CB  PRO C   7       0.367   8.052  22.538  1.00 53.80 LIG 0.04  C 
ATOM     44  CG  PRO C   7      -1.047   7.569  22.590  1.00 51.48 LIG 0.02  C 
BRANCH 41 45
ATOM     45  C   PRO C   7       2.183   8.151  24.292  1.00 55.55 LIG 0.24  C 
ATOM     46 O    PRO C   7       2.094   9.370  24.509  1.00 56.05 LIG-0.27  OA
ATOM     47  N   ARG C   8       3.246   7.403  24.598  1.00 55.98 LIG-0.35  N 
ATOM     48 H    ARG C   8       3.264   6.549  24.499  1.00 55.98 LIG 0.16  HD
BRANCH 47 49
ATOM     49  CA  ARG C   8       4.485   7.957  25.132  1.00 59.84 LIG 0.16  C 
BRANCH 49 50
ATOM     50  C   ARG C   8       5.728   7.334  24.503  1.00 63.97 LIG 0.22  C 
ATOM     51 O    ARG C   8       6.459   6.644  25.251  1.00 69.17 LIG-0.29  OA
ENDBRANCH 49 50
BRANCH 49 52
ATOM     52  CB  ARG C   8       4.531   7.793  26.655  1.00 59.33 LIG 0.04  C 
BRANCH 52 53
ATOM     53  CG  ARG C   8       3.620   8.742  27.417  1.00 56.20 LIG 0.02  C 
BRANCH 53 54
ATOM     54  CD  ARG C   8       3.004   8.093  28.637  1.00 50.77 LIG 0.14  C 
BRANCH 54 55
ATOM     55  NE  ARG C   8       1.776   8.772  29.037  1.00 55.07 LIG-0.23  N 
ATOM     56  CZ  ARG C   8       1.509   9.192  30.276  1.00 55.92 LIG 0.67  C 
ATOM     57  NH1 ARG C   8       2.405   9.045  31.244  1.00 58.39 LIG-0.23  N 
ATOM     58  NH2 ARG C   8       0.357   9.799  30.544  1.00 49.54 LIG-0.23  N 
ATOM     59 1HH1 ARG C   8       3.164   8.678  31.076  1.00 58.39 LIG 0.17  HD
ATOM     60 2HH1 ARG C   8       2.225   9.319  32.040  1.00 58.39 LIG 0.17  HD
ATOM     61 1HH2 ARG C   8      -0.220   9.923  29.919  1.00 49.54 LIG 0.17  HD
ATOM     62 2HH2 ARG C   8       0.189  10.068  31.343  1.00 49.54 LIG 0.17  HD
ATOM     63 HE   ARG C   8       1.182   8.911  28.432  1.00 55.07 LIG 0.18  HD
ENDBRANCH 54 55
ENDBRANCH 53 54
ENDBRANCH 52 53
ENDBRANCH 49 52
ENDBRANCH 47 49
ENDBRANCH 41 45
ENDBRANCH 4 38
TORSDOF 14
ENDMDL
MODEL 24
USER: ADFR SOLUTION from run 110
USER: SCORE 16.882584 LL:  -4.809 LR: -12.227 RR:   0.000 FEB:  -8.051
USER: RMSD 7.211818
USER: SEED 109
USER: STATUS no improvement in best in 8 clusters for 5 generations
USER: GENES 16
USER: genes 0 Translation |==|  0.39552 0.63301 0.36270
USER: genes 1 Rotation |==|  0.92844 0.56130 0.38701 0.72341
USER: genes 2 Torsion [N]-C--CA-[N] |==|  0.46220
USER: genes 3 Torsion [C]-CA--N-[C] |==|  0.57222
USER: genes 4 Torsion [N]-C--CA-[N] |==|  0.92337
USER: genes 5 Torsion [N]-C--CA-[CB] |==|  0.72676
USER: genes 6 Torsion [N]-C--CA-[N] |==|  0.37396
USER: genes 7 Torsion [C]-CA--CB-[CG2] |==|  0.75898
USER: genes 8 Torsion [N]-CA--C-[O] |==|  0.76649
USER: genes 9 Torsion [N]-CA--C-[O] |==|  0.22668
USER: genes 10 Torsion [C]-N--CA-[C] |==|  0.44207
USER: genes 11 Torsion [N]-CA--C-[O] |==|  0.77291
USER: genes 12 Torsion [N]-CA--CB-[CG] |==|  0.69405
USER: genes 13 Torsion [CA]-CB--CG-[CD] |==|  0.74592
USER: genes 14 Torsion [CB]-CG--CD-[NE] |==|  0.36353
USER: genes 15 Torsion [CG]-CD--NE-[CZ] |==|  0.54077
ROOT
ATOM      1  C   VAL C   5      -2.201  11.137  22.095  1.00 42.36 LIG 0.24  C 
ATOM      2 O    VAL C   5      -2.022  10.238  22.923  1.00 45.24 LIG-0.27  OA
ATOM      3  N   PRO C   6      -1.270  11.484  21.183  1.00 47.11 LIG-0.34  N 
ATOM      4  CA  PRO C   6       0.048  10.860  21.003  1.00 46.93 LIG 0.18  C 
ATOM      5  CB  PRO C   6       0.771  11.872  20.127  1.00 48.77 LIG 0.04  C 
ATOM      6  CG  PRO C   6      -0.327  12.409  19.280  1.00 47.44 LIG 0.02  C 
ATOM      7  CD  PRO C   6      -1.393  12.662  20.306  1.00 45.48 LIG 0.13  C 
ENDROOT
BRANCH 1 8
ATOM      8  CA  VAL C   5      -3.503  11.921  22.097  1.00 35.80 LIG 0.18  C 
BRANCH 8 9
ATOM      9  N   VAL C   5      -4.454  11.196  22.903  1.00 29.23 LIG-0.35  N 
ATOM     10 H    VAL C   5      -4.090  10.697  23.501  1.00 29.23 LIG 0.16  HD
ATOM     11  C   PRO C   4      -5.763  11.288  22.739  1.00 26.62 LIG 0.24  C 
ATOM     12 O    PRO C   4      -6.316  12.054  21.940  1.00 27.50 LIG-0.27  OA
BRANCH 11 13
ATOM     13  CA  PRO C   4      -6.570  10.440  23.690  1.00 24.57 LIG 0.18  C 
ATOM     14  N   PRO C   4      -5.734   9.309  24.053  1.00 25.19 LIG-0.34  N 
ATOM     15  C   PRO C   3      -5.387   8.381  23.137  1.00 26.73 LIG 0.24  C 
ATOM     16  CD  PRO C   4      -5.500   9.303  25.504  1.00 25.69 LIG 0.13  C 
ATOM     17 O    PRO C   3      -5.820   8.396  21.984  1.00 25.36 LIG-0.27  OA
ATOM     18  CG  PRO C   4      -6.698  10.058  26.005  1.00 24.59 LIG 0.02  C 
ATOM     19  CB  PRO C   4      -6.788  11.154  25.027  1.00 22.47 LIG 0.04  C 
BRANCH 15 20
ATOM     20  CA  PRO C   3      -4.500   7.233  23.609  1.00 28.16 LIG 0.18  C 
ATOM     21  N   PRO C   3      -4.796   5.990  22.894  1.00 24.30 LIG-0.34  N 
ATOM     22  CD  PRO C   3      -3.732   5.685  21.927  1.00 25.18 LIG 0.13  C 
ATOM     23  C   PRO C   2      -5.954   5.341  23.059  1.00 26.75 LIG 0.24  C 
ATOM     24  CG  PRO C   3      -2.930   6.987  21.884  1.00 22.51 LIG 0.02  C 
ATOM     25  CB  PRO C   3      -3.026   7.483  23.263  1.00 21.93 LIG 0.04  C 
ATOM     26 O    PRO C   2      -6.842   5.754  23.813  1.00 25.20 LIG-0.27  OA
BRANCH 23 27
ATOM     27  CA  PRO C   2      -6.146   4.055  22.271  1.00 29.29 LIG 0.18  C 
ATOM     28  N   PRO C   2      -6.698   3.005  23.140  1.00 27.80 LIG-0.34  N 
ATOM     29  C   ACE C   1      -5.984   2.427  24.124  1.00 31.50 LIG 0.22  C 
ATOM     30  CD  PRO C   2      -8.064   2.646  22.720  1.00 33.03 LIG 0.13  C 
ATOM     31 O    ACE C   1      -4.797   2.695  24.306  1.00 38.95 LIG-0.27  OA
ATOM     32  CH3 ACE C   1      -6.632   1.360  24.981  1.00 34.05 LIG 0.12  C 
ATOM     33  CG  PRO C   2      -8.483   3.849  21.911  1.00 32.34 LIG 0.02  C 
ATOM     34  CB  PRO C   2      -7.224   4.210  21.193  1.00 28.70 LIG 0.04  C 
ENDBRANCH 23 27
ENDBRANCH 15 20
ENDBRANCH 11 13
ENDBRANCH 8 9
BRANCH 8 35
ATOM     35  CB  VAL C   5      -3.292  13.309  22.692  1.00 35.33 LIG 0.01  C 
ATOM     36  CG2 VAL C   5      -3.452  13.238  24.217  1.00 35.45 LIG 0.01  C 
ATOM     37  CG1 VAL C   5      -4.245  14.292  22.088  1.00 28.19 LIG 0.01  C 
ENDBRANCH 8 35
ENDBRANCH 1 8
BRANCH 4 38
ATOM     38  C   PRO C   6       0.797  10.616  22.316  1.00 48.62 LIG 0.24  C 
ATOM     39 O    PRO C   6       1.463  11.524  22.830  1.00 45.97 LIG-0.27  OA
ATOM     40  N   PRO C   7       0.709   9.379  22.860  1.00 50.57 LIG-0.34  N 
ATOM     41  CA  PRO C   7       1.372   9.007  24.113  1.00 53.29 LIG 0.18  C 
ATOM     42  CD  PRO C   7       0.075   8.192  22.248  1.00 52.97 LIG 0.13  C 
ATOM     43  CB  PRO C   7       1.356   7.479  24.058  1.00 53.80 LIG 0.04  C 
ATOM     44  CG  PRO C   7       0.047   7.194  23.394  1.00 51.48 LIG 0.02  C 
BRANCH 41 45
ATOM     45  C   PRO C   7       2.786   9.560  24.151  1.00 55.55 LIG 0.24  C 
ATOM     46 O    PRO C   7       2.990  10.740  24.479  1.00 56.05 LIG-0.27  OA
ATOM     47  N   ARG C   8       3.746   8.661  23.921  1.00 55.98 LIG-0.35  N 
ATOM     48 H    ARG C   8       3.584   7.832  23.757  1.00 55.98 LIG 0.16  HD
BRANCH 47 49
ATOM     49  CA  ARG C   8       5.166   8.991  23.923  1.00 59.84 LIG 0.16  C 
BRANCH 49 50
ATOM     50  C   ARG C   8       6.055   7.770  24.142  1.00 63.97 LIG 0.22  C 
ATOM     51 O    ARG C   8       6.215   7.388  25.325  1.00 69.17 LIG-0.29  OA
ENDBRANCH 49 50
BRANCH 49 52
ATOM     52  CB  ARG C   8       5.466  10.054  24.986  1.00 59.33 LIG 0.04  C 
BRANCH 52 53
ATOM     53  CG  ARG C   8       5.834  11.418  24.423  1.00 56.20 LIG 0.02  C 
BRANCH 53 54
ATOM     54  CD  ARG C   8       7.326  11.578  24.231  1.00 50.77 LIG 0.14  C 
BRANCH 54 55
ATOM     55  NE  ARG C   8       7.640  12.086  22.901  1.00 55.07 LIG-0.23  N 
ATOM     56  CZ  ARG C   8       8.854  12.065  22.346  1.00 55.92 LIG 0.67  C 
ATOM     57  NH1 ARG C   8       9.879  11.519  22.989  1.00 58.39 LIG-0.23  N 
ATOM     58  NH2 ARG C   8       9.042  12.556  21.125  1.00 49.54 LIG-0.23  N 
ATOM     59 1HH1 ARG C   8       9.763  11.174  23.768  1.00 58.39 LIG 0.17  HD
ATOM     60 2HH1 ARG C   8      10.658  11.510  22.625  1.00 58.39 LIG 0.17  HD
ATOM     61 1HH2 ARG C   8       8.381  12.889  20.688  1.00 49.54 LIG 0.17  HD
ATOM     62 2HH2 ARG C   8       9.826  12.541  20.772  1.00 49.54 LIG 0.17  HD
ATOM     63 HE   ARG C   8       6.997  12.423  22.440  1.00 55.07 LIG 0.18  HD
ENDBRANCH 54 55
ENDBRANCH 53 54
ENDBRANCH 52 53
ENDBRANCH 49 52
ENDBRANCH 47 49
ENDBRANCH 41 45
ENDBRANCH 4 38
TORSDOF 14
ENDMDL
MODEL 25
USER: ADFR SOLUTION from run 186
USER: SCORE 16.796321 LL:  -5.148 LR: -12.223 RR:   0.000 FEB:  -8.046
USER: RMSD 6.453094
USER: SEED 185
USER: STATUS no improvement in best in 16 clusters for 5 generations
USER: GENES 16
USER: genes 0 Translation |==|  0.52769 0.46045 0.61047
USER: genes 1 Rotation |==|  0.73853 0.80934 0.36155 0.77972
USER: genes 2 Torsion [N]-C--CA-[N] |==|  0.20331
USER: genes 3 Torsion [C]-CA--N-[C] |==|  0.58500
USER: genes 4 Torsion [N]-C--CA-[N] |==|  0.25711
USER: genes 5 Torsion [N]-C--CA-[CB] |==|  0.83783
USER: genes 6 Torsion [N]-C--CA-[N] |==|  0.50019
USER: genes 7 Torsion [C]-CA--CB-[CG2] |==|  0.80138
USER: genes 8 Torsion [N]-CA--C-[O] |==|  0.85438
USER: genes 9 Torsion [N]-CA--C-[O] |==|  0.35893
USER: genes 10 Torsion [C]-N--CA-[C] |==|  0.64381
USER: genes 11 Torsion [N]-CA--C-[O] |==|  0.99282
USER: genes 12 Torsion [N]-CA--CB-[CG] |==|  0.82475
USER: genes 13 Torsion [CA]-CB--CG-[CD] |==|  0.39428
USER: genes 14 Torsion [CB]-CG--CD-[NE] |==|  0.64269
USER: genes 15 Torsion [CG]-CD--NE-[CZ] |==|  0.51223
ROOT
ATOM      1  C   VAL C   5       0.673   7.254  27.112  1.00 42.36 LIG 0.24  C 
ATOM      2 O    VAL C   5       1.827   7.399  27.527  1.00 45.24 LIG-0.27  OA
ATOM      3  N   PRO C   6       0.322   7.506  25.834  1.00 47.11 LIG-0.34  N 
ATOM      4  CA  PRO C   6       1.216   7.945  24.755  1.00 46.93 LIG 0.18  C 
ATOM      5  CB  PRO C   6       0.238   8.414  23.690  1.00 48.77 LIG 0.04  C 
ATOM      6  CG  PRO C   6      -0.908   7.483  23.872  1.00 47.44 LIG 0.02  C 
ATOM      7  CD  PRO C   6      -1.075   7.509  25.362  1.00 45.48 LIG 0.13  C 
ENDROOT
BRANCH 1 8
ATOM      8  CA  VAL C   5      -0.423   6.803  28.062  1.00 35.80 LIG 0.18  C 
BRANCH 8 9
ATOM      9  N   VAL C   5      -0.764   5.442  27.730  1.00 29.23 LIG-0.35  N 
ATOM     10 H    VAL C   5      -0.105   4.990  27.412  1.00 29.23 LIG 0.16  HD
ATOM     11  C   PRO C   4      -1.974   4.934  27.897  1.00 26.62 LIG 0.24  C 
ATOM     12 O    PRO C   4      -2.918   5.537  28.422  1.00 27.50 LIG-0.27  OA
BRANCH 11 13
ATOM     13  CA  PRO C   4      -2.106   3.491  27.480  1.00 24.57 LIG 0.18  C 
ATOM     14  N   PRO C   4      -1.856   2.689  28.667  1.00 25.19 LIG-0.34  N 
ATOM     15  C   PRO C   3      -0.636   2.664  29.241  1.00 26.73 LIG 0.24  C 
ATOM     16  CD  PRO C   4      -3.041   1.878  28.982  1.00 25.69 LIG 0.13  C 
ATOM     17 O    PRO C   3       0.337   3.241  28.754  1.00 25.36 LIG-0.27  OA
ATOM     18  CG  PRO C   4      -3.699   1.771  27.636  1.00 24.59 LIG 0.02  C 
ATOM     19  CB  PRO C   4      -3.554   3.143  27.125  1.00 22.47 LIG 0.04  C 
BRANCH 15 20
ATOM     20  CA  PRO C   3      -0.471   1.800  30.488  1.00 28.16 LIG 0.18  C 
ATOM     21  N   PRO C   3       0.843   1.988  31.107  1.00 24.30 LIG-0.34  N 
ATOM     22  CD  PRO C   3       0.722   2.776  32.342  1.00 25.18 LIG 0.13  C 
ATOM     23  C   PRO C   2       1.968   1.581  30.511  1.00 26.75 LIG 0.24  C 
ATOM     24  CG  PRO C   3      -0.707   3.316  32.261  1.00 22.51 LIG 0.02  C 
ATOM     25  CB  PRO C   3      -1.437   2.227  31.600  1.00 21.93 LIG 0.04  C 
ATOM     26 O    PRO C   2       1.968   1.032  29.403  1.00 25.20 LIG-0.27  OA
BRANCH 23 27
ATOM     27  CA  PRO C   2       3.273   1.822  31.254  1.00 29.29 LIG 0.18  C 
ATOM     28  N   PRO C   2       4.407   1.319  30.464  1.00 27.80 LIG-0.34  N 
ATOM     29  C   ACE C   1       4.630   0.006  30.269  1.00 31.50 LIG 0.22  C 
ATOM     30  CD  PRO C   2       5.264   2.431  30.019  1.00 33.03 LIG 0.13  C 
ATOM     31 O    ACE C   1       3.935  -0.856  30.804  1.00 38.95 LIG-0.27  OA
ATOM     32  CH3 ACE C   1       5.817  -0.427  29.433  1.00 34.05 LIG 0.12  C 
ATOM     33  CG  PRO C   2       4.344   3.620  30.135  1.00 32.34 LIG 0.02  C 
ATOM     34  CB  PRO C   2       3.580   3.317  31.383  1.00 28.70 LIG 0.04  C 
ENDBRANCH 23 27
ENDBRANCH 15 20
ENDBRANCH 11 13
ENDBRANCH 8 9
BRANCH 8 35
ATOM     35  CB  VAL C   5       0.059   6.864  29.507  1.00 35.33 LIG 0.01  C 
ATOM     36  CG2 VAL C   5       1.078   5.742  29.750  1.00 35.45 LIG 0.01  C 
ATOM     37  CG1 VAL C   5      -1.096   6.768  30.453  1.00 28.19 LIG 0.01  C 
ENDBRANCH 8 35
ENDBRANCH 1 8
BRANCH 4 38
ATOM     38  C   PRO C   6       2.176   9.065  25.169  1.00 48.62 LIG 0.24  C 
ATOM     39 O    PRO C   6       1.738  10.094  25.699  1.00 45.97 LIG-0.27  OA
ATOM     40  N   PRO C   7       3.493   8.880  24.914  1.00 50.57 LIG-0.34  N 
ATOM     41  CA  PRO C   7       4.521   9.866  25.259  1.00 53.29 LIG 0.18  C 
ATOM     42  CD  PRO C   7       4.093   7.766  24.150  1.00 52.97 LIG 0.13  C 
ATOM     43  CB  PRO C   7       5.706   9.428  24.397  1.00 53.80 LIG 0.04  C 
ATOM     44  CG  PRO C   7       5.580   7.938  24.411  1.00 51.48 LIG 0.02  C 
BRANCH 41 45
ATOM     45  C   PRO C   7       4.051  11.268  24.909  1.00 55.55 LIG 0.24  C 
ATOM     46 O    PRO C   7       4.113  12.179  25.750  1.00 56.05 LIG-0.27  OA
ATOM     47  N   ARG C   8       3.694  11.437  23.634  1.00 55.98 LIG-0.35  N 
ATOM     48 H    ARG C   8       3.718  10.805  23.051  1.00 55.98 LIG 0.16  HD
BRANCH 47 49
ATOM     49  CA  ARG C   8       3.224  12.709  23.098  1.00 59.84 LIG 0.16  C 
BRANCH 49 50
ATOM     50  C   ARG C   8       1.899  12.583  22.351  1.00 63.97 LIG 0.22  C 
ATOM     51 O    ARG C   8       1.414  11.432  22.246  1.00 69.17 LIG-0.29  OA
ENDBRANCH 49 50
BRANCH 49 52
ATOM     52  CB  ARG C   8       4.285  13.327  22.181  1.00 59.33 LIG 0.04  C 
BRANCH 52 53
ATOM     53  CG  ARG C   8       5.590  13.680  22.878  1.00 56.20 LIG 0.02  C 
BRANCH 53 54
ATOM     54  CD  ARG C   8       6.799  13.397  22.012  1.00 50.77 LIG 0.14  C 
BRANCH 54 55
ATOM     55  NE  ARG C   8       7.786  12.593  22.724  1.00 55.07 LIG-0.23  N 
ATOM     56  CZ  ARG C   8       8.985  12.261  22.243  1.00 55.92 LIG 0.67  C 
ATOM     57  NH1 ARG C   8       9.379  12.700  21.053  1.00 58.39 LIG-0.23  N 
ATOM     58  NH2 ARG C   8       9.818  11.519  22.968  1.00 49.54 LIG-0.23  N 
ATOM     59 1HH1 ARG C   8       8.860  13.203  20.587  1.00 58.39 LIG 0.17  HD
ATOM     60 2HH1 ARG C   8      10.154  12.482  20.750  1.00 58.39 LIG 0.17  HD
ATOM     61 1HH2 ARG C   8       9.584  11.250  23.750  1.00 49.54 LIG 0.17  HD
ATOM     62 2HH2 ARG C   8      10.590  11.307  22.654  1.00 49.54 LIG 0.17  HD
ATOM     63 HE   ARG C   8       7.580  12.312  23.510  1.00 55.07 LIG 0.18  HD
ENDBRANCH 54 55
ENDBRANCH 53 54
ENDBRANCH 52 53
ENDBRANCH 49 52
ENDBRANCH 47 49
ENDBRANCH 41 45
ENDBRANCH 4 38
TORSDOF 14
ENDMDL
MODEL 26
USER: ADFR SOLUTION from run 200
USER: SCORE 16.776324 LL:  -4.715 LR: -12.206 RR:   0.000 FEB:  -8.030
USER: RMSD 5.144261
USER: SEED 199
USER: STATUS no improvement in best in 9 clusters for 5 generations
USER: GENES 16
USER: genes 0 Translation |==|  0.66900 0.60645 0.52705
USER: genes 1 Rotation |==|  0.31186 0.19889 0.61979 0.83104
USER: genes 2 Torsion [N]-C--CA-[N] |==|  0.40003
USER: genes 3 Torsion [C]-CA--N-[C] |==|  0.65148
USER: genes 4 Torsion [N]-C--CA-[N] |==|  0.68474
USER: genes 5 Torsion [N]-C--CA-[CB] |==|  0.61272
USER: genes 6 Torsion [N]-C--CA-[N] |==|  0.37109
USER: genes 7 Torsion [C]-CA--CB-[CG2] |==|  0.70739
USER: genes 8 Torsion [N]-CA--C-[O] |==|  0.32432
USER: genes 9 Torsion [N]-CA--C-[O] |==|  0.81087
USER: genes 10 Torsion [C]-N--CA-[C] |==|  0.51209
USER: genes 11 Torsion [N]-CA--C-[O] |==|  0.98346
USER: genes 12 Torsion [N]-CA--CB-[CG] |==|  0.68290
USER: genes 13 Torsion [CA]-CB--CG-[CD] |==|  0.56453
USER: genes 14 Torsion [CB]-CG--CD-[NE] |==|  0.40897
USER: genes 15 Torsion [CG]-CD--NE-[CZ] |==|  0.80282
ROOT
ATOM      1  C   VAL C   5       3.747  10.539  25.423  1.00 42.36 LIG 0.24  C 
ATOM      2 O    VAL C   5       3.596  11.102  24.334  1.00 45.24 LIG-0.27  OA
ATOM      3  N   PRO C   6       3.973  11.216  26.567  1.00 47.11 LIG-0.34  N 
ATOM      4  CA  PRO C   6       4.043  12.676  26.716  1.00 46.93 LIG 0.18  C 
ATOM      5  CB  PRO C   6       4.674  12.834  28.091  1.00 48.77 LIG 0.04  C 
ATOM      6  CG  PRO C   6       4.125  11.668  28.834  1.00 47.44 LIG 0.02  C 
ATOM      7  CD  PRO C   6       4.329  10.563  27.839  1.00 45.48 LIG 0.13  C 
ENDROOT
BRANCH 1 8
ATOM      8  CA  VAL C   5       3.711   9.022  25.504  1.00 35.80 LIG 0.18  C 
BRANCH 8 9
ATOM      9  N   VAL C   5       2.711   8.553  24.577  1.00 29.23 LIG-0.35  N 
ATOM     10 H    VAL C   5       2.825   8.838  23.774  1.00 29.23 LIG 0.16  HD
ATOM     11  C   PRO C   4       1.711   7.761  24.927  1.00 26.62 LIG 0.24  C 
ATOM     12 O    PRO C   4       1.567   7.275  26.056  1.00 27.50 LIG-0.27  OA
BRANCH 11 13
ATOM     13  CA  PRO C   4       0.781   7.397  23.797  1.00 24.57 LIG 0.18  C 
ATOM     14  N   PRO C   4      -0.500   8.014  24.096  1.00 25.19 LIG-0.34  N 
ATOM     15  C   PRO C   3      -1.234   7.609  25.153  1.00 26.73 LIG 0.24  C 
ATOM     16  CD  PRO C   4      -0.862   8.959  23.030  1.00 25.69 LIG 0.13  C 
ATOM     17 O    PRO C   3      -0.905   6.657  25.862  1.00 25.36 LIG-0.27  OA
ATOM     18  CG  PRO C   4      -0.093   8.407  21.864  1.00 24.59 LIG 0.02  C 
ATOM     19  CB  PRO C   4       1.197   8.077  22.490  1.00 22.47 LIG 0.04  C 
BRANCH 15 20
ATOM     20  CA  PRO C   3      -2.562   8.321  25.392  1.00 28.16 LIG 0.18  C 
ATOM     21  N   PRO C   3      -3.703   7.480  25.023  1.00 24.30 LIG-0.34  N 
ATOM     22  CD  PRO C   3      -4.385   6.979  26.224  1.00 25.18 LIG 0.13  C 
ATOM     23  C   PRO C   2      -3.953   7.152  23.751  1.00 26.75 LIG 0.24  C 
ATOM     24  CG  PRO C   3      -3.396   7.319  27.341  1.00 22.51 LIG 0.02  C 
ATOM     25  CB  PRO C   3      -2.800   8.581  26.886  1.00 21.93 LIG 0.04  C 
ATOM     26 O    PRO C   2      -3.236   7.529  22.817  1.00 25.20 LIG-0.27  OA
BRANCH 23 27
ATOM     27  CA  PRO C   2      -5.171   6.280  23.486  1.00 29.29 LIG 0.18  C 
ATOM     28  N   PRO C   2      -5.952   6.825  22.366  1.00 27.80 LIG-0.34  N 
ATOM     29  C   ACE C   1      -6.652   7.971  22.459  1.00 31.50 LIG 0.22  C 
ATOM     30  CD  PRO C   2      -5.914   5.911  21.211  1.00 33.03 LIG 0.13  C 
ATOM     31 O    ACE C   1      -6.739   8.593  23.517  1.00 38.95 LIG-0.27  OA
ATOM     32  CH3 ACE C   1      -7.422   8.468  21.253  1.00 34.05 LIG 0.12  C 
ATOM     33  CG  PRO C   2      -4.695   5.071  21.500  1.00 32.34 LIG 0.02  C 
ATOM     34  CB  PRO C   2      -4.770   4.890  22.981  1.00 28.70 LIG 0.04  C 
ENDBRANCH 23 27
ENDBRANCH 15 20
ENDBRANCH 11 13
ENDBRANCH 8 9
BRANCH 8 35
ATOM     35  CB  VAL C   5       5.065   8.432  25.126  1.00 35.33 LIG 0.01  C 
ATOM     36  CG2 VAL C   5       4.978   7.820  23.721  1.00 35.45 LIG 0.01  C 
ATOM     37  CG1 VAL C   5       5.500   7.419  26.138  1.00 28.19 LIG 0.01  C 
ENDBRANCH 8 35
ENDBRANCH 1 8
BRANCH 4 38
ATOM     38  C   PRO C   6       4.878  13.365  25.633  1.00 48.62 LIG 0.24  C 
ATOM     39 O    PRO C   6       4.345  14.166  24.853  1.00 45.97 LIG-0.27  OA
ATOM     40  N   PRO C   7       6.192  13.047  25.564  1.00 50.57 LIG-0.34  N 
ATOM     41  CA  PRO C   7       7.107  13.631  24.580  1.00 53.29 LIG 0.18  C 
ATOM     42  CD  PRO C   7       6.884  11.995  26.339  1.00 52.97 LIG 0.13  C 
ATOM     43  CB  PRO C   7       8.289  12.662  24.606  1.00 53.80 LIG 0.04  C 
ATOM     44  CG  PRO C   7       8.350  12.267  26.047  1.00 51.48 LIG 0.02  C 
BRANCH 41 45
ATOM     45  C   PRO C   7       6.450  13.689  23.212  1.00 55.55 LIG 0.24  C 
ATOM     46 O    PRO C   7       6.201  12.644  22.590  1.00 56.05 LIG-0.27  OA
ATOM     47  N   ARG C   8       6.080  14.910  22.819  1.00 55.98 LIG-0.35  N 
ATOM     48 H    ARG C   8       6.206  15.616  23.296  1.00 55.98 LIG 0.16  HD
BRANCH 47 49
ATOM     49  CA  ARG C   8       5.425  15.175  21.544  1.00 59.84 LIG 0.16  C 
BRANCH 49 50
ATOM     50  C   ARG C   8       5.203  16.664  21.292  1.00 63.97 LIG 0.22  C 
ATOM     51 O    ARG C   8       5.490  17.447  22.227  1.00 69.17 LIG-0.29  OA
ENDBRANCH 49 50
BRANCH 49 52
ATOM     52  CB  ARG C   8       4.090  14.426  21.463  1.00 59.33 LIG 0.04  C 
BRANCH 52 53
ATOM     53  CG  ARG C   8       4.045  13.336  20.402  1.00 56.20 LIG 0.02  C 
BRANCH 53 54
ATOM     54  CD  ARG C   8       2.632  13.019  19.964  1.00 50.77 LIG 0.14  C 
BRANCH 54 55
ATOM     55  NE  ARG C   8       2.586  12.632  18.558  1.00 55.07 LIG-0.23  N 
ATOM     56  CZ  ARG C   8       2.776  13.466  17.534  1.00 55.92 LIG 0.67  C 
ATOM     57  NH1 ARG C   8       3.072  14.742  17.750  1.00 58.39 LIG-0.23  N 
ATOM     58  NH2 ARG C   8       2.711  13.019  16.284  1.00 49.54 LIG-0.23  N 
ATOM     59 1HH1 ARG C   8       3.143  15.036  18.556  1.00 58.39 LIG 0.17  HD
ATOM     60 2HH1 ARG C   8       3.194  15.273  17.085  1.00 58.39 LIG 0.17  HD
ATOM     61 1HH2 ARG C   8       2.546  12.189  16.131  1.00 49.54 LIG 0.17  HD
ATOM     62 2HH2 ARG C   8       2.834  13.560  15.627  1.00 49.54 LIG 0.17  HD
ATOM     63 HE   ARG C   8       2.424  11.808  18.376  1.00 55.07 LIG 0.18  HD
ENDBRANCH 54 55
ENDBRANCH 53 54
ENDBRANCH 52 53
ENDBRANCH 49 52
ENDBRANCH 47 49
ENDBRANCH 41 45
ENDBRANCH 4 38
TORSDOF 14
ENDMDL
MODEL 27
USER: ADFR SOLUTION from run 106
USER: SCORE 16.731123 LL:  -4.940 LR: -12.176 RR:   0.000 FEB:  -8.000
USER: RMSD 11.403752
USER: SEED 105
USER: STATUS no improvement in best in 13 clusters for 5 generations
USER: GENES 16
USER: genes 0 Translation |==|  0.52559 0.46351 0.53774
USER: genes 1 Rotation |==|  0.22776 0.44232 0.08641 0.53874
USER: genes 2 Torsion [N]-C--CA-[N] |==|  0.83889
USER: genes 3 Torsion [C]-CA--N-[C] |==|  0.77039
USER: genes 4 Torsion [N]-C--CA-[N] |==|  0.24714
USER: genes 5 Torsion [N]-C--CA-[CB] |==|  0.83798
USER: genes 6 Torsion [N]-C--CA-[N] |==|  0.29173
USER: genes 7 Torsion [C]-CA--CB-[CG2] |==|  0.50588
USER: genes 8 Torsion [N]-CA--C-[O] |==|  0.87429
USER: genes 9 Torsion [N]-CA--C-[O] |==|  0.33222
USER: genes 10 Torsion [C]-N--CA-[C] |==|  0.18156
USER: genes 11 Torsion [N]-CA--C-[O] |==|  0.10919
USER: genes 12 Torsion [N]-CA--CB-[CG] |==|  0.35639
USER: genes 13 Torsion [CA]-CB--CG-[CD] |==|  0.73651
USER: genes 14 Torsion [CB]-CG--CD-[NE] |==|  0.79493
USER: genes 15 Torsion [CG]-CD--NE-[CZ] |==|  0.64346
ROOT
ATOM      1  C   VAL C   5       0.628   7.323  25.639  1.00 42.36 LIG 0.24  C 
ATOM      2 O    VAL C   5       1.273   6.270  25.627  1.00 45.24 LIG-0.27  OA
ATOM      3  N   PRO C   6      -0.068   7.739  26.717  1.00 47.11 LIG-0.34  N 
ATOM      4  CA  PRO C   6      -0.149   7.060  28.017  1.00 46.93 LIG 0.18  C 
ATOM      5  CB  PRO C   6      -1.326   7.760  28.679  1.00 48.77 LIG 0.04  C 
ATOM      6  CG  PRO C   6      -1.210   9.148  28.158  1.00 47.44 LIG 0.02  C 
ATOM      7  CD  PRO C   6      -0.981   8.896  26.697  1.00 45.48 LIG 0.13  C 
ENDROOT
BRANCH 1 8
ATOM      8  CA  VAL C   5       0.572   8.192  24.394  1.00 35.80 LIG 0.18  C 
BRANCH 8 9
ATOM      9  N   VAL C   5      -0.811   8.321  24.006  1.00 29.23 LIG-0.35  N 
ATOM     10 H    VAL C   5      -1.181   9.046  24.284  1.00 29.23 LIG 0.16  HD
ATOM     11  C   PRO C   4      -1.454   7.411  23.293  1.00 26.62 LIG 0.24  C 
ATOM     12 O    PRO C   4      -0.927   6.398  22.816  1.00 27.50 LIG-0.27  OA
BRANCH 11 13
ATOM     13  CA  PRO C   4      -2.894   7.749  23.005  1.00 24.57 LIG 0.18  C 
ATOM     14  N   PRO C   4      -2.905   8.511  21.767  1.00 25.19 LIG-0.34  N 
ATOM     15  C   PRO C   3      -2.352   9.739  21.704  1.00 26.73 LIG 0.24  C 
ATOM     16  CD  PRO C   4      -3.698   7.804  20.750  1.00 25.69 LIG 0.13  C 
ATOM     17 O    PRO C   3      -1.889  10.308  22.694  1.00 25.36 LIG-0.27  OA
ATOM     18  CG  PRO C   4      -4.619   6.981  21.605  1.00 24.59 LIG 0.02  C 
ATOM     19  CB  PRO C   4      -3.702   6.498  22.649  1.00 22.47 LIG 0.04  C 
BRANCH 15 20
ATOM     20  CA  PRO C   3      -2.404  10.460  20.360  1.00 28.16 LIG 0.18  C 
ATOM     21  N   PRO C   3      -1.627  11.701  20.380  1.00 24.30 LIG-0.34  N 
ATOM     22  CD  PRO C   3      -0.378  11.540  19.622  1.00 25.18 LIG 0.13  C 
ATOM     23  C   PRO C   2      -2.001  12.755  21.113  1.00 26.75 LIG 0.24  C 
ATOM     24  CG  PRO C   3      -0.306  10.027  19.406  1.00 22.51 LIG 0.02  C 
ATOM     25  CB  PRO C   3      -1.716   9.644  19.258  1.00 21.93 LIG 0.04  C 
ATOM     26 O    PRO C   2      -3.016  12.742  21.820  1.00 25.20 LIG-0.27  OA
BRANCH 23 27
ATOM     27  CA  PRO C   2      -1.121  13.993  21.047  1.00 29.29 LIG 0.18  C 
ATOM     28  N   PRO C   2      -1.764  15.031  20.229  1.00 27.80 LIG-0.34  N 
ATOM     29  C   ACE C   1      -1.901  14.921  18.893  1.00 31.50 LIG 0.22  C 
ATOM     30  CD  PRO C   2      -2.136  16.191  21.056  1.00 33.03 LIG 0.13  C 
ATOM     31 O    ACE C   1      -1.427  13.972  18.270  1.00 38.95 LIG-0.27  OA
ATOM     32  CH3 ACE C   1      -2.586  16.033  18.126  1.00 34.05 LIG 0.12  C 
ATOM     33  CG  PRO C   2      -2.154  15.608  22.447  1.00 32.34 LIG 0.02  C 
ATOM     34  CB  PRO C   2      -0.994  14.667  22.418  1.00 28.70 LIG 0.04  C 
ENDBRANCH 23 27
ENDBRANCH 15 20
ENDBRANCH 11 13
ENDBRANCH 8 9
BRANCH 8 35
ATOM     35  CB  VAL C   5       1.146   9.575  24.678  1.00 35.33 LIG 0.01  C 
ATOM     36  CG2 VAL C   5       1.027  10.443  23.418  1.00 35.45 LIG 0.01  C 
ATOM     37  CG1 VAL C   5       2.567   9.472  25.139  1.00 28.19 LIG 0.01  C 
ENDBRANCH 8 35
ENDBRANCH 1 8
BRANCH 4 38
ATOM     38  C   PRO C   6      -0.381   5.550  27.909  1.00 48.62 LIG 0.24  C 
ATOM     39 O    PRO C   6      -1.232   5.107  27.126  1.00 45.97 LIG-0.27  OA
ATOM     40  N   PRO C   7       0.362   4.748  28.707  1.00 50.57 LIG-0.34  N 
ATOM     41  CA  PRO C   7       0.247   3.288  28.706  1.00 53.29 LIG 0.18  C 
ATOM     42  CD  PRO C   7       1.283   5.184  29.779  1.00 52.97 LIG 0.13  C 
ATOM     43  CB  PRO C   7       0.911   2.899  30.027  1.00 53.80 LIG 0.04  C 
ATOM     44  CG  PRO C   7       2.014   3.902  30.139  1.00 51.48 LIG 0.02  C 
BRANCH 41 45
ATOM     45  C   PRO C   7      -1.213   2.870  28.659  1.00 55.55 LIG 0.24  C 
ATOM     46 O    PRO C   7      -1.642   2.188  27.715  1.00 56.05 LIG-0.27  OA
ATOM     47  N   ARG C   8      -1.924   3.197  29.741  1.00 55.98 LIG-0.35  N 
ATOM     48 H    ARG C   8      -1.590   3.616  30.414  1.00 55.98 LIG 0.16  HD
BRANCH 47 49
ATOM     49  CA  ARG C   8      -3.338   2.877  29.894  1.00 59.84 LIG 0.16  C 
BRANCH 49 50
ATOM     50  C   ARG C   8      -3.599   1.375  29.969  1.00 63.97 LIG 0.22  C 
ATOM     51 O    ARG C   8      -2.778   0.688  30.620  1.00 69.17 LIG-0.29  OA
ENDBRANCH 49 50
BRANCH 49 52
ATOM     52  CB  ARG C   8      -4.152   3.493  28.751  1.00 59.33 LIG 0.04  C 
BRANCH 52 53
ATOM     53  CG  ARG C   8      -5.064   2.512  28.029  1.00 56.20 LIG 0.02  C 
BRANCH 53 54
ATOM     54  CD  ARG C   8      -4.417   1.930  26.792  1.00 50.77 LIG 0.14  C 
BRANCH 54 55
ATOM     55  NE  ARG C   8      -4.365   2.906  25.710  1.00 55.07 LIG-0.23  N 
ATOM     56  CZ  ARG C   8      -4.804   2.689  24.469  1.00 55.92 LIG 0.67  C 
ATOM     57  NH1 ARG C   8      -5.377   1.536  24.148  1.00 58.39 LIG-0.23  N 
ATOM     58  NH2 ARG C   8      -4.710   3.644  23.547  1.00 49.54 LIG-0.23  N 
ATOM     59 1HH1 ARG C   8      -5.467   0.921  24.744  1.00 58.39 LIG 0.17  HD
ATOM     60 2HH1 ARG C   8      -5.658   1.404  23.347  1.00 58.39 LIG 0.17  HD
ATOM     61 1HH2 ARG C   8      -4.365   4.405  23.750  1.00 49.54 LIG 0.17  HD
ATOM     62 2HH2 ARG C   8      -4.995   3.500  22.749  1.00 49.54 LIG 0.17  HD
ATOM     63 HE   ARG C   8      -4.026   3.677  25.884  1.00 55.07 LIG 0.18  HD
ENDBRANCH 54 55
ENDBRANCH 53 54
ENDBRANCH 52 53
ENDBRANCH 49 52
ENDBRANCH 47 49
ENDBRANCH 41 45
ENDBRANCH 4 38
TORSDOF 14
ENDMDL
MODEL 28
USER: ADFR SOLUTION from run 32
USER: SCORE 17.344803 LL:  -5.483 LR: -12.159 RR:   0.000 FEB:  -7.982
USER: RMSD 9.719488
USER: SEED 31
USER: STATUS no improvement in best in 3 clusters for 5 generations
USER: GENES 16
USER: genes 0 Translation |==|  0.29897 0.28787 0.57913
USER: genes 1 Rotation |==|  0.32970 0.17622 0.82063 0.61561
USER: genes 2 Torsion [N]-C--CA-[N] |==|  0.86271
USER: genes 3 Torsion [C]-CA--N-[C] |==|  0.74560
USER: genes 4 Torsion [N]-C--CA-[N] |==|  0.70357
USER: genes 5 Torsion [N]-C--CA-[CB] |==|  0.80735
USER: genes 6 Torsion [N]-C--CA-[N] |==|  0.28371
USER: genes 7 Torsion [C]-CA--CB-[CG2] |==|  0.49372
USER: genes 8 Torsion [N]-CA--C-[O] |==|  0.80644
USER: genes 9 Torsion [N]-CA--C-[O] |==|  0.78008
USER: genes 10 Torsion [C]-N--CA-[C] |==|  0.11982
USER: genes 11 Torsion [N]-CA--C-[O] |==|  0.22824
USER: genes 12 Torsion [N]-CA--CB-[CG] |==|  0.55018
USER: genes 13 Torsion [CA]-CB--CG-[CD] |==|  0.27640
USER: genes 14 Torsion [CB]-CG--CD-[NE] |==|  0.41966
USER: genes 15 Torsion [CG]-CD--NE-[CZ] |==|  0.24063
ROOT
ATOM      1  C   VAL C   5      -4.301   3.371  26.477  1.00 42.36 LIG 0.24  C 
ATOM      2 O    VAL C   5      -4.160   2.928  25.333  1.00 45.24 LIG-0.27  OA
ATOM      3  N   PRO C   6      -5.138   4.389  26.767  1.00 47.11 LIG-0.34  N 
ATOM      4  CA  PRO C   6      -6.012   5.094  25.819  1.00 46.93 LIG 0.18  C 
ATOM      5  CB  PRO C   6      -6.413   6.333  26.605  1.00 48.77 LIG 0.04  C 
ATOM      6  CG  PRO C   6      -6.471   5.825  28.002  1.00 47.44 LIG 0.02  C 
ATOM      7  CD  PRO C   6      -5.192   5.046  28.085  1.00 45.48 LIG 0.13  C 
ENDROOT
BRANCH 1 8
ATOM      8  CA  VAL C   5      -3.491   2.787  27.622  1.00 35.80 LIG 0.18  C 
BRANCH 8 9
ATOM      9  N   VAL C   5      -2.869   3.880  28.327  1.00 29.23 LIG-0.35  N 
ATOM     10 H    VAL C   5      -3.358   4.209  28.953  1.00 29.23 LIG 0.16  HD
ATOM     11  C   PRO C   4      -1.661   4.336  28.040  1.00 26.62 LIG 0.24  C 
ATOM     12 O    PRO C   4      -0.907   3.834  27.197  1.00 27.50 LIG-0.27  OA
BRANCH 11 13
ATOM     13  CA  PRO C   4      -1.209   5.488  28.902  1.00 24.57 LIG 0.18  C 
ATOM     14  N   PRO C   4      -1.269   6.679  28.072  1.00 25.19 LIG-0.34  N 
ATOM     15  C   PRO C   3      -0.443   6.830  27.016  1.00 26.73 LIG 0.24  C 
ATOM     16  CD  PRO C   4      -2.207   7.650  28.654  1.00 25.69 LIG 0.13  C 
ATOM     17 O    PRO C   3       0.446   6.020  26.750  1.00 25.36 LIG-0.27  OA
ATOM     18  CG  PRO C   4      -2.188   7.255  30.103  1.00 24.59 LIG 0.02  C 
ATOM     19  CB  PRO C   4      -2.222   5.786  30.011  1.00 22.47 LIG 0.04  C 
BRANCH 15 20
ATOM     20  CA  PRO C   3      -0.584   8.110  26.198  1.00 28.16 LIG 0.18  C 
ATOM     21  N   PRO C   3       0.426   8.191  25.140  1.00 24.30 LIG-0.34  N 
ATOM     22  CD  PRO C   3      -0.183   7.940  23.826  1.00 25.18 LIG 0.13  C 
ATOM     23  C   PRO C   2       1.724   8.350  25.416  1.00 26.75 LIG 0.24  C 
ATOM     24  CG  PRO C   3      -1.565   7.394  24.192  1.00 22.51 LIG 0.02  C 
ATOM     25  CB  PRO C   3      -1.903   8.135  25.414  1.00 21.93 LIG 0.04  C 
ATOM     26 O    PRO C   2       2.149   8.428  26.574  1.00 25.20 LIG-0.27  OA
BRANCH 23 27
ATOM     27  CA  PRO C   2       2.680   8.431  24.236  1.00 29.29 LIG 0.18  C 
ATOM     28  N   PRO C   2       3.066   9.827  23.989  1.00 27.80 LIG-0.34  N 
ATOM     29  C   ACE C   1       2.207  10.743  23.500  1.00 31.50 LIG 0.22  C 
ATOM     30  CD  PRO C   2       4.498  10.029  24.268  1.00 33.03 LIG 0.13  C 
ATOM     31 O    ACE C   1       1.064  10.441  23.162  1.00 38.95 LIG-0.27  OA
ATOM     32  CH3 ACE C   1       2.684  12.164  23.285  1.00 34.05 LIG 0.12  C 
ATOM     33  CG  PRO C   2       4.826   8.854  25.156  1.00 32.34 LIG 0.02  C 
ATOM     34  CB  PRO C   2       4.018   7.754  24.548  1.00 28.70 LIG 0.04  C 
ENDBRANCH 23 27
ENDBRANCH 15 20
ENDBRANCH 11 13
ENDBRANCH 8 9
BRANCH 8 35
ATOM     35  CB  VAL C   5      -4.393   2.017  28.581  1.00 35.33 LIG 0.01  C 
ATOM     36  CG2 VAL C   5      -3.538   1.393  29.692  1.00 35.45 LIG 0.01  C 
ATOM     37  CG1 VAL C   5      -5.179   0.977  27.846  1.00 28.19 LIG 0.01  C 
ENDBRANCH 8 35
ENDBRANCH 1 8
BRANCH 4 38
ATOM     38  C   PRO C   6      -5.323   5.461  24.502  1.00 48.62 LIG 0.24  C 
ATOM     39 O    PRO C   6      -4.445   6.334  24.483  1.00 45.97 LIG-0.27  OA
ATOM     40  N   PRO C   7      -5.727   4.809  23.386  1.00 50.57 LIG-0.34  N 
ATOM     41  CA  PRO C   7      -5.153   5.058  22.062  1.00 53.29 LIG 0.18  C 
ATOM     42  CD  PRO C   7      -6.866   3.872  23.279  1.00 52.97 LIG 0.13  C 
ATOM     43  CB  PRO C   7      -6.201   4.457  21.125  1.00 53.80 LIG 0.04  C 
ATOM     44  CG  PRO C   7      -6.679   3.269  21.897  1.00 51.48 LIG 0.02  C 
BRANCH 41 45
ATOM     45  C   PRO C   7      -4.973   6.549  21.832  1.00 55.55 LIG 0.24  C 
ATOM     46 O    PRO C   7      -5.942   7.256  21.510  1.00 56.05 LIG-0.27  OA
ATOM     47  N   ARG C   8      -3.754   7.016  22.111  1.00 55.98 LIG-0.35  N 
ATOM     48 H    ARG C   8      -3.113   6.517  22.394  1.00 55.98 LIG 0.16  HD
BRANCH 47 49
ATOM     49  CA  ARG C   8      -3.384   8.419  21.966  1.00 59.84 LIG 0.16  C 
BRANCH 49 50
ATOM     50  C   ARG C   8      -4.456   9.370  22.491  1.00 63.97 LIG 0.22  C 
ATOM     51 O    ARG C   8      -4.470   9.584  23.726  1.00 69.17 LIG-0.29  OA
ENDBRANCH 49 50
BRANCH 49 52
ATOM     52  CB  ARG C   8      -3.072   8.740  20.500  1.00 59.33 LIG 0.04  C 
BRANCH 52 53
ATOM     53  CG  ARG C   8      -2.275  10.019  20.293  1.00 56.20 LIG 0.02  C 
BRANCH 53 54
ATOM     54  CD  ARG C   8      -0.802   9.750  20.079  1.00 50.77 LIG 0.14  C 
BRANCH 54 55
ATOM     55  NE  ARG C   8      -0.188  10.781  19.250  1.00 55.07 LIG-0.23  N 
ATOM     56  CZ  ARG C   8       0.311  11.930  19.712  1.00 55.92 LIG 0.67  C 
ATOM     57  NH1 ARG C   8       0.314  12.188  21.014  1.00 58.39 LIG-0.23  N 
ATOM     58  NH2 ARG C   8       0.850  12.812  18.875  1.00 49.54 LIG-0.23  N 
ATOM     59 1HH1 ARG C   8      -0.007  11.613  21.567  1.00 58.39 LIG 0.17  HD
ATOM     60 2HH1 ARG C   8       0.638  12.930  21.304  1.00 58.39 LIG 0.17  HD
ATOM     61 1HH2 ARG C   8       0.877  12.644  18.032  1.00 49.54 LIG 0.17  HD
ATOM     62 2HH2 ARG C   8       1.170  13.550  19.176  1.00 49.54 LIG 0.17  HD
ATOM     63 HE   ARG C   8      -0.145  10.640  18.403  1.00 55.07 LIG 0.18  HD
ENDBRANCH 54 55
ENDBRANCH 53 54
ENDBRANCH 52 53
ENDBRANCH 49 52
ENDBRANCH 47 49
ENDBRANCH 41 45
ENDBRANCH 4 38
TORSDOF 14
ENDMDL
MODEL 29
USER: ADFR SOLUTION from run 12
USER: SCORE 17.926532 LL:  -5.874 LR: -12.150 RR:   0.000 FEB:  -7.974
USER: RMSD 6.954890
USER: SEED 723951
USER: STATUS no improvement in best in 3 clusters for 5 generations
USER: GENES 16
USER: genes 0 Translation |==|  0.28061 0.43474 0.50634
USER: genes 1 Rotation |==|  0.66785 0.74229 0.37827 0.88510
USER: genes 2 Torsion [N]-C--CA-[N] |==|  0.33916
USER: genes 3 Torsion [C]-CA--N-[C] |==|  0.76460
USER: genes 4 Torsion [N]-C--CA-[N] |==|  0.87584
USER: genes 5 Torsion [N]-C--CA-[CB] |==|  0.73821
USER: genes 6 Torsion [N]-C--CA-[N] |==|  0.28887
USER: genes 7 Torsion [C]-CA--CB-[CG2] |==|  0.11763
USER: genes 8 Torsion [N]-CA--C-[O] |==|  0.82326
USER: genes 9 Torsion [N]-CA--C-[O] |==|  0.39695
USER: genes 10 Torsion [C]-N--CA-[C] |==|  0.58710
USER: genes 11 Torsion [N]-CA--C-[O] |==|  0.17398
USER: genes 12 Torsion [N]-CA--CB-[CG] |==|  0.78116
USER: genes 13 Torsion [CA]-CB--CG-[CD] |==|  0.48883
USER: genes 14 Torsion [CB]-CG--CD-[NE] |==|  0.08071
USER: genes 15 Torsion [CG]-CD--NE-[CZ] |==|  0.35463
ROOT
ATOM      1  C   VAL C   5      -4.701   6.676  25.003  1.00 42.36 LIG 0.24  C 
ATOM      2 O    VAL C   5      -3.826   7.253  25.657  1.00 45.24 LIG-0.27  OA
ATOM      3  N   PRO C   6      -4.556   6.377  23.696  1.00 47.11 LIG-0.34  N 
ATOM      4  CA  PRO C   6      -3.373   6.644  22.868  1.00 46.93 LIG 0.18  C 
ATOM      5  CB  PRO C   6      -3.909   6.448  21.458  1.00 48.77 LIG 0.04  C 
ATOM      6  CG  PRO C   6      -4.913   5.366  21.643  1.00 47.44 LIG 0.02  C 
ATOM      7  CD  PRO C   6      -5.648   5.851  22.858  1.00 45.48 LIG 0.13  C 
ENDROOT
BRANCH 1 8
ATOM      8  CA  VAL C   5      -6.017   6.301  25.663  1.00 35.80 LIG 0.18  C 
BRANCH 8 9
ATOM      9  N   VAL C   5      -5.723   5.429  26.774  1.00 29.23 LIG-0.35  N 
ATOM     10 H    VAL C   5      -5.662   5.839  27.527  1.00 29.23 LIG 0.16  HD
ATOM     11  C   PRO C   4      -5.560   4.123  26.648  1.00 26.62 LIG 0.24  C 
ATOM     12 O    PRO C   4      -5.717   3.498  25.592  1.00 27.50 LIG-0.27  OA
BRANCH 11 13
ATOM     13  CA  PRO C   4      -5.256   3.406  27.939  1.00 24.57 LIG 0.18  C 
ATOM     14  N   PRO C   4      -4.257   4.202  28.633  1.00 25.19 LIG-0.34  N 
ATOM     15  C   PRO C   3      -3.011   4.339  28.134  1.00 26.73 LIG 0.24  C 
ATOM     16  CD  PRO C   4      -4.783   4.648  29.931  1.00 25.69 LIG 0.13  C 
ATOM     17 O    PRO C   3      -2.633   3.741  27.125  1.00 25.36 LIG-0.27  OA
ATOM     18  CG  PRO C   4      -5.819   3.597  30.213  1.00 24.59 LIG 0.02  C 
ATOM     19  CB  PRO C   4      -6.452   3.443  28.894  1.00 22.47 LIG 0.04  C 
BRANCH 15 20
ATOM     20  CA  PRO C   3      -2.033   5.199  28.927  1.00 28.16 LIG 0.18  C 
ATOM     21  N   PRO C   3      -0.647   4.768  28.729  1.00 24.30 LIG-0.34  N 
ATOM     22  CD  PRO C   3       0.071   5.718  27.869  1.00 25.18 LIG 0.13  C 
ATOM     23  C   PRO C   2      -0.201   3.595  29.193  1.00 26.75 LIG 0.24  C 
ATOM     24  CG  PRO C   3      -1.057   6.585  27.307  1.00 22.51 LIG 0.02  C 
ATOM     25  CB  PRO C   3      -2.015   6.646  28.418  1.00 21.93 LIG 0.04  C 
ATOM     26 O    PRO C   2      -0.930   2.806  29.805  1.00 25.20 LIG-0.27  OA
BRANCH 23 27
ATOM     27  CA  PRO C   2       1.259   3.258  28.936  1.00 29.29 LIG 0.18  C 
ATOM     28  N   PRO C   2       2.046   3.439  30.164  1.00 27.80 LIG-0.34  N 
ATOM     29  C   ACE C   1       2.303   4.653  30.688  1.00 31.50 LIG 0.22  C 
ATOM     30  CD  PRO C   2       2.556   2.147  30.652  1.00 33.03 LIG 0.13  C 
ATOM     31 O    ACE C   1       1.952   5.689  30.125  1.00 38.95 LIG-0.27  OA
ATOM     32  CH3 ACE C   1       3.114   4.751  31.963  1.00 34.05 LIG 0.12  C 
ATOM     33  CG  PRO C   2       1.640   1.158  29.974  1.00 32.34 LIG 0.02  C 
ATOM     34  CB  PRO C   2       1.446   1.769  28.625  1.00 28.70 LIG 0.04  C 
ENDBRANCH 23 27
ENDBRANCH 15 20
ENDBRANCH 11 13
ENDBRANCH 8 9
BRANCH 8 35
ATOM     35  CB  VAL C   5      -6.734   7.545  26.176  1.00 35.33 LIG 0.01  C 
ATOM     36  CG2 VAL C   5      -6.628   8.661  25.128  1.00 35.45 LIG 0.01  C 
ATOM     37  CG1 VAL C   5      -6.168   7.975  27.493  1.00 28.19 LIG 0.01  C 
ENDBRANCH 8 35
ENDBRANCH 1 8
BRANCH 4 38
ATOM     38  C   PRO C   6      -2.793   8.049  23.058  1.00 48.62 LIG 0.24  C 
ATOM     39 O    PRO C   6      -3.463   9.044  22.752  1.00 45.97 LIG-0.27  OA
ATOM     40  N   PRO C   7      -1.534   8.140  23.549  1.00 50.57 LIG-0.34  N 
ATOM     41  CA  PRO C   7      -0.857   9.418  23.783  1.00 53.29 LIG 0.18  C 
ATOM     42  CD  PRO C   7      -0.602   7.019  23.794  1.00 52.97 LIG 0.13  C 
ATOM     43  CB  PRO C   7       0.611   9.005  23.886  1.00 53.80 LIG 0.04  C 
ATOM     44  CG  PRO C   7       0.524   7.679  24.572  1.00 51.48 LIG 0.02  C 
BRANCH 41 45
ATOM     45  C   PRO C   7      -1.100  10.369  22.624  1.00 55.55 LIG 0.24  C 
ATOM     46 O    PRO C   7      -1.257  11.583  22.829  1.00 56.05 LIG-0.27  OA
ATOM     47  N   ARG C   8      -1.015   9.810  21.414  1.00 55.98 LIG-0.35  N 
ATOM     48 H    ARG C   8      -0.843   8.976  21.293  1.00 55.98 LIG 0.16  HD
BRANCH 47 49
ATOM     49  CA  ARG C   8      -1.205  10.555  20.175  1.00 59.84 LIG 0.16  C 
BRANCH 49 50
ATOM     50  C   ARG C   8      -1.804   9.703  19.060  1.00 63.97 LIG 0.22  C 
ATOM     51 O    ARG C   8      -2.951   9.237  19.254  1.00 69.17 LIG-0.29  OA
ENDBRANCH 49 50
BRANCH 49 52
ATOM     52  CB  ARG C   8       0.121  11.168  19.711  1.00 59.33 LIG 0.04  C 
BRANCH 52 53
ATOM     53  CG  ARG C   8       0.521  12.435  20.451  1.00 56.20 LIG 0.02  C 
BRANCH 53 54
ATOM     54  CD  ARG C   8       1.879  12.945  20.025  1.00 50.77 LIG 0.14  C 
BRANCH 54 55
ATOM     55  NE  ARG C   8       2.173  12.584  18.642  1.00 55.07 LIG-0.23  N 
ATOM     56  CZ  ARG C   8       2.557  13.445  17.697  1.00 55.92 LIG 0.67  C 
ATOM     57  NH1 ARG C   8       2.741  14.727  17.987  1.00 58.39 LIG-0.23  N 
ATOM     58  NH2 ARG C   8       2.800  13.019  16.461  1.00 49.54 LIG-0.23  N 
ATOM     59 1HH1 ARG C   8       2.612  15.008  18.790  1.00 58.39 LIG 0.17  HD
ATOM     60 2HH1 ARG C   8       2.988  15.275  17.373  1.00 58.39 LIG 0.17  HD
ATOM     61 1HH2 ARG C   8       2.710  12.186  16.267  1.00 49.54 LIG 0.17  HD
ATOM     62 2HH2 ARG C   8       3.047  13.577  15.855  1.00 49.54 LIG 0.17  HD
ATOM     63 HE   ARG C   8       2.094  11.757  18.420  1.00 55.07 LIG 0.18  HD
ENDBRANCH 54 55
ENDBRANCH 53 54
ENDBRANCH 52 53
ENDBRANCH 49 52
ENDBRANCH 47 49
ENDBRANCH 41 45
ENDBRANCH 4 38
TORSDOF 14
ENDMDL
MODEL 30
USER: ADFR SOLUTION from run 135
USER: SCORE 16.814068 LL:  -5.131 LR: -12.119 RR:   0.000 FEB:  -7.943
USER: RMSD 6.979617
USER: SEED 134
USER: STATUS no improvement in best in 9 clusters for 5 generations
USER: GENES 16
USER: genes 0 Translation |==|  0.53311 0.46589 0.56565
USER: genes 1 Rotation |==|  0.70016 0.86989 0.29513 0.67647
USER: genes 2 Torsion [N]-C--CA-[N] |==|  0.23889
USER: genes 3 Torsion [C]-CA--N-[C] |==|  0.69613
USER: genes 4 Torsion [N]-C--CA-[N] |==|  0.24199
USER: genes 5 Torsion [N]-C--CA-[CB] |==|  0.79517
USER: genes 6 Torsion [N]-C--CA-[N] |==|  0.49931
USER: genes 7 Torsion [C]-CA--CB-[CG2] |==|  0.50168
USER: genes 8 Torsion [N]-CA--C-[O] |==|  0.37441
USER: genes 9 Torsion [N]-CA--C-[O] |==|  0.34206
USER: genes 10 Torsion [C]-N--CA-[C] |==|  0.57554
USER: genes 11 Torsion [N]-CA--C-[O] |==|  0.46004
USER: genes 12 Torsion [N]-CA--CB-[CG] |==|  0.83643
USER: genes 13 Torsion [CA]-CB--CG-[CD] |==|  0.63553
USER: genes 14 Torsion [CB]-CG--CD-[NE] |==|  0.35549
USER: genes 15 Torsion [CG]-CD--NE-[CZ] |==|  0.57676
ROOT
ATOM      1  C   VAL C   5       0.791   7.376  26.204  1.00 42.36 LIG 0.24  C 
ATOM      2 O    VAL C   5       1.993   7.456  25.934  1.00 45.24 LIG-0.27  OA
ATOM      3  N   PRO C   6      -0.177   7.680  25.316  1.00 47.11 LIG-0.34  N 
ATOM      4  CA  PRO C   6       0.020   8.107  23.924  1.00 46.93 LIG 0.18  C 
ATOM      5  CB  PRO C   6      -1.351   8.651  23.552  1.00 48.77 LIG 0.04  C 
ATOM      6  CG  PRO C   6      -2.268   7.769  24.323  1.00 47.44 LIG 0.02  C 
ATOM      7  CD  PRO C   6      -1.606   7.761  25.669  1.00 45.48 LIG 0.13  C 
ENDROOT
BRANCH 1 8
ATOM      8  CA  VAL C   5       0.354   6.951  27.596  1.00 35.80 LIG 0.18  C 
BRANCH 8 9
ATOM      9  N   VAL C   5       0.102   5.531  27.565  1.00 29.23 LIG-0.35  N 
ATOM     10 H    VAL C   5       0.815   5.056  27.487  1.00 29.23 LIG 0.16  HD
ATOM     11  C   PRO C   4      -1.109   5.006  27.649  1.00 26.62 LIG 0.24  C 
ATOM     12 O    PRO C   4      -2.142   5.660  27.839  1.00 27.50 LIG-0.27  OA
BRANCH 11 13
ATOM     13  CA  PRO C   4      -1.139   3.500  27.593  1.00 24.57 LIG 0.18  C 
ATOM     14  N   PRO C   4      -0.959   3.028  28.956  1.00 25.19 LIG-0.34  N 
ATOM     15  C   PRO C   3       0.205   3.222  29.608  1.00 26.73 LIG 0.24  C 
ATOM     16  CD  PRO C   4      -2.129   2.242  29.374  1.00 25.69 LIG 0.13  C 
ATOM     17 O    PRO C   3       1.191   3.726  29.067  1.00 25.36 LIG-0.27  OA
ATOM     18  CG  PRO C   4      -2.662   1.769  28.051  1.00 24.59 LIG 0.02  C 
ATOM     19  CB  PRO C   4      -2.534   2.982  27.228  1.00 22.47 LIG 0.04  C 
BRANCH 15 20
ATOM     20  CA  PRO C   3       0.299   2.699  31.038  1.00 28.16 LIG 0.18  C 
ATOM     21  N   PRO C   3       1.663   2.797  31.563  1.00 24.30 LIG-0.34  N 
ATOM     22  CD  PRO C   3       1.762   3.888  32.541  1.00 25.18 LIG 0.13  C 
ATOM     23  C   PRO C   2       2.660   2.047  31.080  1.00 26.75 LIG 0.24  C 
ATOM     24  CG  PRO C   3       0.445   4.642  32.341  1.00 22.51 LIG 0.02  C 
ATOM     25  CB  PRO C   3      -0.504   3.572  32.010  1.00 21.93 LIG 0.04  C 
ATOM     26 O    PRO C   2       2.492   1.237  30.160  1.00 25.20 LIG-0.27  OA
BRANCH 23 27
ATOM     27  CA  PRO C   2       4.032   2.228  31.709  1.00 29.29 LIG 0.18  C 
ATOM     28  N   PRO C   2       5.006   1.332  31.071  1.00 27.80 LIG-0.34  N 
ATOM     29  C   ACE C   1       4.981  -0.005  31.239  1.00 31.50 LIG 0.22  C 
ATOM     30  CD  PRO C   2       6.015   2.104  30.326  1.00 33.03 LIG 0.13  C 
ATOM     31 O    ACE C   1       4.182  -0.547  32.000  1.00 38.95 LIG-0.27  OA
ATOM     32  CH3 ACE C   1       6.017  -0.858  30.536  1.00 34.05 LIG 0.12  C 
ATOM     33  CG  PRO C   2       5.327   3.432  30.126  1.00 32.34 LIG 0.02  C 
ATOM     34  CB  PRO C   2       4.605   3.619  31.420  1.00 28.70 LIG 0.04  C 
ENDBRANCH 23 27
ENDBRANCH 15 20
ENDBRANCH 11 13
ENDBRANCH 8 9
BRANCH 8 35
ATOM     35  CB  VAL C   5       1.447   7.246  28.616  1.00 35.33 LIG 0.01  C 
ATOM     36  CG2 VAL C   5       0.981   6.792  30.006  1.00 35.45 LIG 0.01  C 
ATOM     37  CG1 VAL C   5       1.799   8.701  28.606  1.00 28.19 LIG 0.01  C 
ENDBRANCH 8 35
ENDBRANCH 1 8
BRANCH 4 38
ATOM     38  C   PRO C   6       1.110   9.169  23.756  1.00 48.62 LIG 0.24  C 
ATOM     39 O    PRO C   6       1.946   9.063  22.849  1.00 45.97 LIG-0.27  OA
ATOM     40  N   PRO C   7       1.121  10.194  24.640  1.00 50.57 LIG-0.34  N 
ATOM     41  CA  PRO C   7       2.104  11.280  24.595  1.00 53.29 LIG 0.18  C 
ATOM     42  CD  PRO C   7       0.272  10.328  25.843  1.00 52.97 LIG 0.13  C 
ATOM     43  CB  PRO C   7       1.991  11.891  25.992  1.00 53.80 LIG 0.04  C 
ATOM     44  CG  PRO C   7       0.530  11.758  26.284  1.00 51.48 LIG 0.02  C 
BRANCH 41 45
ATOM     45  C   PRO C   7       3.494  10.728  24.327  1.00 55.55 LIG 0.24  C 
ATOM     46 O    PRO C   7       4.152  11.128  23.354  1.00 56.05 LIG-0.27  OA
ATOM     47  N   ARG C   8       3.957   9.897  25.264  1.00 55.98 LIG-0.35  N 
ATOM     48 H    ARG C   8       3.507   9.681  25.965  1.00 55.98 LIG 0.16  HD
BRANCH 47 49
ATOM     49  CA  ARG C   8       5.272   9.270  25.196  1.00 59.84 LIG 0.16  C 
BRANCH 49 50
ATOM     50  C   ARG C   8       5.330   7.939  25.941  1.00 63.97 LIG 0.22  C 
ATOM     51 O    ARG C   8       6.316   7.202  25.710  1.00 69.17 LIG-0.29  OA
ENDBRANCH 49 50
BRANCH 49 52
ATOM     52  CB  ARG C   8       6.345  10.220  25.738  1.00 59.33 LIG 0.04  C 
BRANCH 52 53
ATOM     53  CG  ARG C   8       6.440  11.547  25.002  1.00 56.20 LIG 0.02  C 
BRANCH 53 54
ATOM     54  CD  ARG C   8       7.862  11.894  24.621  1.00 50.77 LIG 0.14  C 
BRANCH 54 55
ATOM     55  NE  ARG C   8       7.969  12.217  23.203  1.00 55.07 LIG-0.23  N 
ATOM     56  CZ  ARG C   8       9.070  12.050  22.467  1.00 55.92 LIG 0.67  C 
ATOM     57  NH1 ARG C   8      10.163  11.519  23.000  1.00 58.39 LIG-0.23  N 
ATOM     58  NH2 ARG C   8       9.071  12.377  21.178  1.00 49.54 LIG-0.23  N 
ATOM     59 1HH1 ARG C   8      10.165  11.279  23.826  1.00 58.39 LIG 0.17  HD
ATOM     60 2HH1 ARG C   8      10.869  11.415  22.519  1.00 58.39 LIG 0.17  HD
ATOM     61 1HH2 ARG C   8       8.361  12.698  20.814  1.00 49.54 LIG 0.17  HD
ATOM     62 2HH2 ARG C   8       9.782  12.268  20.707  1.00 49.54 LIG 0.17  HD
ATOM     63 HE   ARG C   8       7.273  12.537  22.812  1.00 55.07 LIG 0.18  HD
ENDBRANCH 54 55
ENDBRANCH 53 54
ENDBRANCH 52 53
ENDBRANCH 49 52
ENDBRANCH 47 49
ENDBRANCH 41 45
ENDBRANCH 4 38
TORSDOF 14
ENDMDL
MODEL 31
USER: ADFR SOLUTION from run 186
USER: SCORE 16.692570 LL:  -5.163 LR: -12.110 RR:   0.000 FEB:  -7.934
USER: RMSD 5.755977
USER: SEED 185
USER: STATUS no improvement in best in 16 clusters for 5 generations
USER: GENES 16
USER: genes 0 Translation |==|  0.51617 0.46185 0.60481
USER: genes 1 Rotation |==|  0.73007 0.81313 0.36053 0.78208
USER: genes 2 Torsion [N]-C--CA-[N] |==|  0.19889
USER: genes 3 Torsion [C]-CA--N-[C] |==|  0.58047
USER: genes 4 Torsion [N]-C--CA-[N] |==|  0.26802
USER: genes 5 Torsion [N]-C--CA-[CB] |==|  0.83775
USER: genes 6 Torsion [N]-C--CA-[N] |==|  0.50279
USER: genes 7 Torsion [C]-CA--CB-[CG2] |==|  0.79213
USER: genes 8 Torsion [N]-CA--C-[O] |==|  0.84865
USER: genes 9 Torsion [N]-CA--C-[O] |==|  0.41022
USER: genes 10 Torsion [C]-N--CA-[C] |==|  0.84713
USER: genes 11 Torsion [N]-CA--C-[O] |==|  0.87860
USER: genes 12 Torsion [N]-CA--CB-[CG] |==|  0.17926
USER: genes 13 Torsion [CA]-CB--CG-[CD] |==|  0.46155
USER: genes 14 Torsion [CB]-CG--CD-[NE] |==|  0.83993
USER: genes 15 Torsion [CG]-CD--NE-[CZ] |==|  0.33886
ROOT
ATOM      1  C   VAL C   5       0.423   7.286  26.997  1.00 42.36 LIG 0.24  C 
ATOM      2 O    VAL C   5       1.578   7.473  27.393  1.00 45.24 LIG-0.27  OA
ATOM      3  N   PRO C   6       0.047   7.499  25.720  1.00 47.11 LIG-0.34  N 
ATOM      4  CA  PRO C   6       0.914   7.940  24.619  1.00 46.93 LIG 0.18  C 
ATOM      5  CB  PRO C   6      -0.093   8.358  23.558  1.00 48.77 LIG 0.04  C 
ATOM      6  CG  PRO C   6      -1.208   7.398  23.776  1.00 47.44 LIG 0.02  C 
ATOM      7  CD  PRO C   6      -1.355   7.452  25.268  1.00 45.48 LIG 0.13  C 
ENDROOT
BRANCH 1 8
ATOM      8  CA  VAL C   5      -0.648   6.825  27.972  1.00 35.80 LIG 0.18  C 
BRANCH 8 9
ATOM      9  N   VAL C   5      -0.981   5.459  27.651  1.00 29.23 LIG-0.35  N 
ATOM     10 H    VAL C   5      -0.331   5.020  27.298  1.00 29.23 LIG 0.16  HD
ATOM     11  C   PRO C   4      -2.172   4.930  27.874  1.00 26.62 LIG 0.24  C 
ATOM     12 O    PRO C   4      -3.099   5.514  28.448  1.00 27.50 LIG-0.27  OA
BRANCH 11 13
ATOM     13  CA  PRO C   4      -2.300   3.487  27.457  1.00 24.57 LIG 0.18  C 
ATOM     14  N   PRO C   4      -2.071   2.686  28.648  1.00 25.19 LIG-0.34  N 
ATOM     15  C   PRO C   3      -0.860   2.659  29.243  1.00 26.73 LIG 0.24  C 
ATOM     16  CD  PRO C   4      -3.261   1.877  28.946  1.00 25.69 LIG 0.13  C 
ATOM     17 O    PRO C   3       0.122   3.235  28.771  1.00 25.36 LIG-0.27  OA
ATOM     18  CG  PRO C   4      -3.898   1.769  27.589  1.00 24.59 LIG 0.02  C 
ATOM     19  CB  PRO C   4      -3.742   3.140  27.078  1.00 22.47 LIG 0.04  C 
BRANCH 15 20
ATOM     20  CA  PRO C   3      -0.716   1.797  30.493  1.00 28.16 LIG 0.18  C 
ATOM     21  N   PRO C   3       0.587   1.983  31.134  1.00 24.30 LIG-0.34  N 
ATOM     22  CD  PRO C   3       0.449   2.773  32.365  1.00 25.18 LIG 0.13  C 
ATOM     23  C   PRO C   2       1.721   1.573  30.556  1.00 26.75 LIG 0.24  C 
ATOM     24  CG  PRO C   3      -0.979   3.315  32.260  1.00 22.51 LIG 0.02  C 
ATOM     25  CB  PRO C   3      -1.700   2.227  31.589  1.00 21.93 LIG 0.04  C 
ATOM     26 O    PRO C   2       1.738   1.022  29.449  1.00 25.20 LIG-0.27  OA
BRANCH 23 27
ATOM     27  CA  PRO C   2       3.015   1.812  31.319  1.00 29.29 LIG 0.18  C 
ATOM     28  N   PRO C   2       4.162   1.326  30.539  1.00 27.80 LIG-0.34  N 
ATOM     29  C   ACE C   1       4.396   0.017  30.330  1.00 31.50 LIG 0.22  C 
ATOM     30  CD  PRO C   2       5.019   2.448  30.119  1.00 33.03 LIG 0.13  C 
ATOM     31 O    ACE C   1       3.699  -0.856  30.845  1.00 38.95 LIG-0.27  OA
ATOM     32  CH3 ACE C   1       5.596  -0.398  29.505  1.00 34.05 LIG 0.12  C 
ATOM     33  CG  PRO C   2       4.089   3.631  30.238  1.00 32.34 LIG 0.02  C 
ATOM     34  CB  PRO C   2       3.311   3.307  31.472  1.00 28.70 LIG 0.04  C 
ENDBRANCH 23 27
ENDBRANCH 15 20
ENDBRANCH 11 13
ENDBRANCH 8 9
BRANCH 8 35
ATOM     35  CB  VAL C   5      -0.134   6.894  29.406  1.00 35.33 LIG 0.01  C 
ATOM     36  CG2 VAL C   5       0.840   5.734  29.653  1.00 35.45 LIG 0.01  C 
ATOM     37  CG1 VAL C   5      -1.273   6.868  30.377  1.00 28.19 LIG 0.01  C 
ENDBRANCH 8 35
ENDBRANCH 1 8
BRANCH 4 38
ATOM     38  C   PRO C   6       1.846   9.095  24.995  1.00 48.62 LIG 0.24  C 
ATOM     39 O    PRO C   6       1.382  10.138  25.474  1.00 45.97 LIG-0.27  OA
ATOM     40  N   PRO C   7       3.170   8.925  24.764  1.00 50.57 LIG-0.34  N 
ATOM     41  CA  PRO C   7       4.174   9.945  25.078  1.00 53.29 LIG 0.18  C 
ATOM     42  CD  PRO C   7       3.801   7.791  24.057  1.00 52.97 LIG 0.13  C 
ATOM     43  CB  PRO C   7       5.378   9.493  24.251  1.00 53.80 LIG 0.04  C 
ATOM     44  CG  PRO C   7       5.281   8.003  24.329  1.00 51.48 LIG 0.02  C 
BRANCH 41 45
ATOM     45  C   PRO C   7       3.683  11.321  24.661  1.00 55.55 LIG 0.24  C 
ATOM     46 O    PRO C   7       4.016  12.329  25.305  1.00 56.05 LIG-0.27  OA
ATOM     47  N   ARG C   8       2.988  11.346  23.521  1.00 55.98 LIG-0.35  N 
ATOM     48 H    ARG C   8       2.822  10.641  23.056  1.00 55.98 LIG 0.16  HD
BRANCH 47 49
ATOM     49  CA  ARG C   8       2.439  12.569  22.947  1.00 59.84 LIG 0.16  C 
BRANCH 49 50
ATOM     50  C   ARG C   8       1.543  13.328  23.922  1.00 63.97 LIG 0.22  C 
ATOM     51 O    ARG C   8       0.728  12.651  24.590  1.00 69.17 LIG-0.29  OA
ENDBRANCH 49 50
BRANCH 49 52
ATOM     52  CB  ARG C   8       1.666  12.255  21.661  1.00 59.33 LIG 0.04  C 
BRANCH 52 53
ATOM     53  CG  ARG C   8       0.431  11.392  21.865  1.00 56.20 LIG 0.02  C 
BRANCH 53 54
ATOM     54  CD  ARG C   8      -0.473  11.386  20.652  1.00 50.77 LIG 0.14  C 
BRANCH 54 55
ATOM     55  NE  ARG C   8      -0.896  12.736  20.297  1.00 55.07 LIG-0.23  N 
ATOM     56  CZ  ARG C   8      -0.680  13.313  19.113  1.00 55.92 LIG 0.67  C 
ATOM     57  NH1 ARG C   8      -0.079  12.644  18.137  1.00 58.39 LIG-0.23  N 
ATOM     58  NH2 ARG C   8      -1.102  14.553  18.885  1.00 49.54 LIG-0.23  N 
ATOM     59 1HH1 ARG C   8       0.174  11.832  18.265  1.00 58.39 LIG 0.17  HD
ATOM     60 2HH1 ARG C   8       0.056  13.022  17.377  1.00 58.39 LIG 0.17  HD
ATOM     61 1HH2 ARG C   8      -1.516  14.988  19.501  1.00 49.54 LIG 0.17  HD
ATOM     62 2HH2 ARG C   8      -0.961  14.921  18.120  1.00 49.54 LIG 0.17  HD
ATOM     63 HE   ARG C   8      -1.314  13.193  20.893  1.00 55.07 LIG 0.18  HD
ENDBRANCH 54 55
ENDBRANCH 53 54
ENDBRANCH 52 53
ENDBRANCH 49 52
ENDBRANCH 47 49
ENDBRANCH 41 45
ENDBRANCH 4 38
TORSDOF 14
ENDMDL
MODEL 32
USER: ADFR SOLUTION from run 75
USER: SCORE 17.587587 LL:  -5.525 LR: -12.113 RR:   0.000 FEB:  -7.937
USER: RMSD 7.759370
USER: SEED 74
USER: STATUS no improvement in best in 4 clusters for 5 generations
USER: GENES 16
USER: genes 0 Translation |==|  0.44709 0.65028 0.31187
USER: genes 1 Rotation |==|  0.91855 0.73799 0.41135 0.60157
USER: genes 2 Torsion [N]-C--CA-[N] |==|  0.45538
USER: genes 3 Torsion [C]-CA--N-[C] |==|  0.79655
USER: genes 4 Torsion [N]-C--CA-[N] |==|  0.96665
USER: genes 5 Torsion [N]-C--CA-[CB] |==|  0.87490
USER: genes 6 Torsion [N]-C--CA-[N] |==|  0.28136
USER: genes 7 Torsion [C]-CA--CB-[CG2] |==|  0.32233
USER: genes 8 Torsion [N]-CA--C-[O] |==|  0.00944
USER: genes 9 Torsion [N]-CA--C-[O] |==|  0.80170
USER: genes 10 Torsion [C]-N--CA-[C] |==|  0.12686
USER: genes 11 Torsion [N]-CA--C-[O] |==|  0.23089
USER: genes 12 Torsion [N]-CA--CB-[CG] |==|  0.85267
USER: genes 13 Torsion [CA]-CB--CG-[CD] |==|  0.38930
USER: genes 14 Torsion [CB]-CG--CD-[NE] |==|  0.71907
USER: genes 15 Torsion [CG]-CD--NE-[CZ] |==|  0.66041
ROOT
ATOM      1  C   VAL C   5      -1.080  11.525  21.065  1.00 42.36 LIG 0.24  C 
ATOM      2 O    VAL C   5      -0.214  10.649  21.161  1.00 45.24 LIG-0.27  OA
ATOM      3  N   PRO C   6      -0.860  12.701  20.443  1.00 47.11 LIG-0.34  N 
ATOM      4  CA  PRO C   6       0.380  13.113  19.771  1.00 46.93 LIG 0.18  C 
ATOM      5  CB  PRO C   6       0.177  14.611  19.600  1.00 48.77 LIG 0.04  C 
ATOM      6  CG  PRO C   6      -1.291  14.715  19.382  1.00 47.44 LIG 0.02  C 
ATOM      7  CD  PRO C   6      -1.814  13.825  20.470  1.00 45.48 LIG 0.13  C 
ENDROOT
BRANCH 1 8
ATOM      8  CA  VAL C   5      -2.448  11.311  21.691  1.00 35.80 LIG 0.18  C 
BRANCH 8 9
ATOM      9  N   VAL C   5      -2.599   9.901  21.952  1.00 29.23 LIG-0.35  N 
ATOM     10 H    VAL C   5      -2.543   9.697  22.785  1.00 29.23 LIG 0.16  HD
ATOM     11  C   PRO C   4      -2.803   9.004  21.002  1.00 26.62 LIG 0.24  C 
ATOM     12 O    PRO C   4      -2.964   9.278  19.806  1.00 27.50 LIG-0.27  OA
BRANCH 11 13
ATOM     13  CA  PRO C   4      -2.929   7.587  21.500  1.00 24.57 LIG 0.18  C 
ATOM     14  N   PRO C   4      -2.498   7.592  22.888  1.00 25.19 LIG-0.34  N 
ATOM     15  C   PRO C   3      -1.215   7.850  23.214  1.00 26.73 LIG 0.24  C 
ATOM     16  CD  PRO C   4      -3.598   7.152  23.757  1.00 25.69 LIG 0.13  C 
ATOM     17 O    PRO C   3      -0.335   8.009  22.365  1.00 25.36 LIG-0.27  OA
ATOM     18  CG  PRO C   4      -4.418   6.325  22.808  1.00 24.59 LIG 0.02  C 
ATOM     19  CB  PRO C   4      -4.395   7.156  21.594  1.00 22.47 LIG 0.04  C 
BRANCH 15 20
ATOM     20  CA  PRO C   3      -0.857   7.842  24.697  1.00 28.16 LIG 0.18  C 
ATOM     21  N   PRO C   3       0.381   8.581  24.960  1.00 24.30 LIG-0.34  N 
ATOM     22  CD  PRO C   3       0.085   9.868  25.603  1.00 25.18 LIG 0.13  C 
ATOM     23  C   PRO C   2       1.568   8.140  24.533  1.00 26.75 LIG 0.24  C 
ATOM     24  CG  PRO C   3      -1.429   9.995  25.427  1.00 22.51 LIG 0.02  C 
ATOM     25  CB  PRO C   3      -1.894   8.606  25.530  1.00 21.93 LIG 0.04  C 
ATOM     26 O    PRO C   2       1.692   7.094  23.886  1.00 25.20 LIG-0.27  OA
BRANCH 23 27
ATOM     27  CA  PRO C   2       2.785   8.986  24.873  1.00 29.29 LIG 0.18  C 
ATOM     28  N   PRO C   2       3.509   8.400  26.011  1.00 27.80 LIG-0.34  N 
ATOM     29  C   ACE C   1       3.016   8.404  27.264  1.00 31.50 LIG 0.22  C 
ATOM     30  CD  PRO C   2       4.833   7.912  25.590  1.00 33.03 LIG 0.13  C 
ATOM     31 O    ACE C   1       1.958   8.966  27.542  1.00 38.95 LIG-0.27  OA
ATOM     32  CH3 ACE C   1       3.823   7.769  28.378  1.00 34.05 LIG 0.12  C 
ATOM     33  CG  PRO C   2       4.669   7.769  24.097  1.00 32.34 LIG 0.02  C 
ATOM     34  CB  PRO C   2       3.827   8.952  23.750  1.00 28.70 LIG 0.04  C 
ENDBRANCH 23 27
ENDBRANCH 15 20
ENDBRANCH 11 13
ENDBRANCH 8 9
BRANCH 8 35
ATOM     35  CB  VAL C   5      -2.566  12.081  23.001  1.00 35.33 LIG 0.01  C 
ATOM     36  CG2 VAL C   5      -3.656  13.153  22.864  1.00 35.45 LIG 0.01  C 
ATOM     37  CG1 VAL C   5      -1.250  12.685  23.379  1.00 28.19 LIG 0.01  C 
ENDBRANCH 8 35
ENDBRANCH 1 8
BRANCH 4 38
ATOM     38  C   PRO C   6       1.646  12.806  20.575  1.00 48.62 LIG 0.24  C 
ATOM     39 O    PRO C   6       1.567  12.203  21.654  1.00 45.97 LIG-0.27  OA
ATOM     40  N   PRO C   7       2.825  13.234  20.065  1.00 50.57 LIG-0.34  N 
ATOM     41  CA  PRO C   7       4.113  13.007  20.726  1.00 53.29 LIG 0.18  C 
ATOM     42  CD  PRO C   7       3.009  14.092  18.875  1.00 52.97 LIG 0.13  C 
ATOM     43  CB  PRO C   7       5.025  14.025  20.039  1.00 53.80 LIG 0.04  C 
ATOM     44  CG  PRO C   7       4.508  14.023  18.636  1.00 51.48 LIG 0.02  C 
BRANCH 41 45
ATOM     45  C   PRO C   7       3.997  13.265  22.219  1.00 55.55 LIG 0.24  C 
ATOM     46 O    PRO C   7       3.866  14.423  22.648  1.00 56.05 LIG-0.27  OA
ATOM     47  N   ARG C   8       3.935  12.166  22.974  1.00 55.98 LIG-0.35  N 
ATOM     48 H    ARG C   8       3.964  11.370  22.649  1.00 55.98 LIG 0.16  HD
BRANCH 47 49
ATOM     49  CA  ARG C   8       3.812  12.201  24.427  1.00 59.84 LIG 0.16  C 
BRANCH 49 50
ATOM     50  C   ARG C   8       2.759  13.197  24.906  1.00 63.97 LIG 0.22  C 
ATOM     51 O    ARG C   8       1.569  12.806  24.911  1.00 69.17 LIG-0.29  OA
ENDBRANCH 49 50
BRANCH 49 52
ATOM     52  CB  ARG C   8       5.166  12.521  25.070  1.00 59.33 LIG 0.04  C 
BRANCH 52 53
ATOM     53  CG  ARG C   8       6.303  11.614  24.624  1.00 56.20 LIG 0.02  C 
BRANCH 53 54
ATOM     54  CD  ARG C   8       7.597  12.371  24.422  1.00 50.77 LIG 0.14  C 
BRANCH 54 55
ATOM     55  NE  ARG C   8       7.845  12.631  23.008  1.00 55.07 LIG-0.23  N 
ATOM     56  CZ  ARG C   8       8.933  12.237  22.343  1.00 55.92 LIG 0.67  C 
ATOM     57  NH1 ARG C   8       9.870  11.519  22.949  1.00 58.39 LIG-0.23  N 
ATOM     58  NH2 ARG C   8       9.070  12.525  21.052  1.00 49.54 LIG-0.23  N 
ATOM     59 1HH1 ARG C   8       9.779  11.304  23.777  1.00 58.39 LIG 0.17  HD
ATOM     60 2HH1 ARG C   8      10.568  11.269  22.513  1.00 58.39 LIG 0.17  HD
ATOM     61 1HH2 ARG C   8       8.457  12.967  20.641  1.00 49.54 LIG 0.17  HD
ATOM     62 2HH2 ARG C   8       9.772  12.269  20.627  1.00 49.54 LIG 0.17  HD
ATOM     63 HE   ARG C   8       7.248  13.069  22.572  1.00 55.07 LIG 0.18  HD
ENDBRANCH 54 55
ENDBRANCH 53 54
ENDBRANCH 52 53
ENDBRANCH 49 52
ENDBRANCH 47 49
ENDBRANCH 41 45
ENDBRANCH 4 38
TORSDOF 14
ENDMDL
MODEL 33
USER: ADFR SOLUTION from run 39
USER: SCORE 18.038922 LL:  -6.011 LR: -12.085 RR:   0.000 FEB:  -7.909
USER: RMSD 8.930784
USER: SEED 38
USER: STATUS no improvement in best in 3 clusters for 5 generations
USER: GENES 16
USER: genes 0 Translation |==|  0.24884 0.38343 0.51577
USER: genes 1 Rotation |==|  0.51059 0.79398 0.28100 0.83985
USER: genes 2 Torsion [N]-C--CA-[N] |==|  0.35042
USER: genes 3 Torsion [C]-CA--N-[C] |==|  0.81305
USER: genes 4 Torsion [N]-C--CA-[N] |==|  0.92055
USER: genes 5 Torsion [N]-C--CA-[CB] |==|  0.88175
USER: genes 6 Torsion [N]-C--CA-[N] |==|  0.48141
USER: genes 7 Torsion [C]-CA--CB-[CG2] |==|  0.38339
USER: genes 8 Torsion [N]-CA--C-[O] |==|  0.32015
USER: genes 9 Torsion [N]-CA--C-[O] |==|  0.87527
USER: genes 10 Torsion [C]-N--CA-[C] |==|  0.86157
USER: genes 11 Torsion [N]-CA--C-[O] |==|  0.40696
USER: genes 12 Torsion [N]-CA--CB-[CG] |==|  0.52646
USER: genes 13 Torsion [CA]-CB--CG-[CD] |==|  0.75326
USER: genes 14 Torsion [CB]-CG--CD-[NE] |==|  0.59955
USER: genes 15 Torsion [CG]-CD--NE-[CZ] |==|  0.48024
ROOT
ATOM      1  C   VAL C   5      -5.392   5.521  25.194  1.00 42.36 LIG 0.24  C 
ATOM      2 O    VAL C   5      -4.428   6.245  24.923  1.00 45.24 LIG-0.27  OA
ATOM      3  N   PRO C   6      -5.843   4.564  24.358  1.00 47.11 LIG-0.34  N 
ATOM      4  CA  PRO C   6      -5.272   4.210  23.051  1.00 46.93 LIG 0.18  C 
ATOM      5  CB  PRO C   6      -6.376   3.368  22.430  1.00 48.77 LIG 0.04  C 
ATOM      6  CG  PRO C   6      -6.958   2.676  23.612  1.00 47.44 LIG 0.02  C 
ATOM      7  CD  PRO C   6      -7.090   3.812  24.583  1.00 45.48 LIG 0.13  C 
ENDROOT
BRANCH 1 8
ATOM      8  CA  VAL C   5      -6.138   5.713  26.504  1.00 35.80 LIG 0.18  C 
BRANCH 8 9
ATOM      9  N   VAL C   5      -5.179   5.622  27.577  1.00 29.23 LIG-0.35  N 
ATOM     10 H    VAL C   5      -5.059   6.364  27.995  1.00 29.23 LIG 0.16  HD
ATOM     11  C   PRO C   4      -4.542   4.507  27.891  1.00 26.62 LIG 0.24  C 
ATOM     12 O    PRO C   4      -4.751   3.410  27.358  1.00 27.50 LIG-0.27  OA
BRANCH 11 13
ATOM     13  CA  PRO C   4      -3.582   4.641  29.045  1.00 24.57 LIG 0.18  C 
ATOM     14  N   PRO C   4      -3.121   6.020  29.046  1.00 25.19 LIG-0.34  N 
ATOM     15  C   PRO C   3      -2.358   6.496  28.041  1.00 26.73 LIG 0.24  C 
ATOM     16  CD  PRO C   4      -3.488   6.671  30.312  1.00 25.69 LIG 0.13  C 
ATOM     17 O    PRO C   3      -1.948   5.781  27.125  1.00 25.36 LIG-0.27  OA
ATOM     18  CG  PRO C   4      -3.598   5.492  31.236  1.00 24.59 LIG 0.02  C 
ATOM     19  CB  PRO C   4      -4.304   4.516  30.390  1.00 22.47 LIG 0.04  C 
BRANCH 15 20
ATOM     20  CA  PRO C   3      -1.928   7.957  28.123  1.00 28.16 LIG 0.18  C 
ATOM     21  N   PRO C   3      -1.597   8.501  26.804  1.00 24.30 LIG-0.34  N 
ATOM     22  CD  PRO C   3      -2.653   9.411  26.341  1.00 25.18 LIG 0.13  C 
ATOM     23  C   PRO C   2      -0.527   8.084  26.119  1.00 26.75 LIG 0.24  C 
ATOM     24  CG  PRO C   3      -3.790   9.140  27.329  1.00 22.51 LIG 0.02  C 
ATOM     25  CB  PRO C   3      -3.082   8.858  28.584  1.00 21.93 LIG 0.04  C 
ATOM     26 O    PRO C   2       0.238   7.214  26.551  1.00 25.20 LIG-0.27  OA
BRANCH 23 27
ATOM     27  CA  PRO C   2      -0.278   8.727  24.763  1.00 29.29 LIG 0.18  C 
ATOM     28  N   PRO C   2       1.012   8.279  24.218  1.00 27.80 LIG-0.34  N 
ATOM     29  C   ACE C   1       2.193   8.660  24.741  1.00 31.50 LIG 0.22  C 
ATOM     30  CD  PRO C   2       0.810   7.457  23.013  1.00 33.03 LIG 0.13  C 
ATOM     31 O    ACE C   1       2.261   9.468  25.666  1.00 38.95 LIG-0.27  OA
ATOM     32  CH3 ACE C   1       3.476   8.144  24.124  1.00 34.05 LIG 0.12  C 
ATOM     33  CG  PRO C   2      -0.627   7.019  23.152  1.00 32.34 LIG 0.02  C 
ATOM     34  CB  PRO C   2      -1.282   8.238  23.715  1.00 28.70 LIG 0.04  C 
ENDBRANCH 23 27
ENDBRANCH 15 20
ENDBRANCH 11 13
ENDBRANCH 8 9
BRANCH 8 35
ATOM     35  CB  VAL C   5      -6.812   7.079  26.543  1.00 35.33 LIG 0.01  C 
ATOM     36  CG2 VAL C   5      -8.219   6.936  27.139  1.00 35.45 LIG 0.01  C 
ATOM     37  CG1 VAL C   5      -6.856   7.686  25.176  1.00 28.19 LIG 0.01  C 
ENDBRANCH 8 35
ENDBRANCH 1 8
BRANCH 4 38
ATOM     38  C   PRO C   6      -4.932   5.422  22.179  1.00 48.62 LIG 0.24  C 
ATOM     39 O    PRO C   6      -3.755   5.660  21.877  1.00 45.97 LIG-0.27  OA
ATOM     40  N   PRO C   7      -5.960   6.209  21.782  1.00 50.57 LIG-0.34  N 
ATOM     41  CA  PRO C   7      -5.780   7.397  20.944  1.00 53.29 LIG 0.18  C 
ATOM     42  CD  PRO C   7      -7.369   6.101  22.215  1.00 52.97 LIG 0.13  C 
ATOM     43  CB  PRO C   7      -7.092   8.155  21.153  1.00 53.80 LIG 0.04  C 
ATOM     44  CG  PRO C   7      -8.089   7.046  21.267  1.00 51.48 LIG 0.02  C 
BRANCH 41 45
ATOM     45  C   PRO C   7      -4.579   8.201  21.412  1.00 55.55 LIG 0.24  C 
ATOM     46 O    PRO C   7      -4.404   8.422  22.621  1.00 56.05 LIG-0.27  OA
ATOM     47  N   ARG C   8      -3.714   8.528  20.450  1.00 55.98 LIG-0.35  N 
ATOM     48 H    ARG C   8      -3.824   8.310  19.625  1.00 55.98 LIG 0.16  HD
BRANCH 47 49
ATOM     49  CA  ARG C   8      -2.494   9.288  20.696  1.00 59.84 LIG 0.16  C 
BRANCH 49 50
ATOM     50  C   ARG C   8      -2.744  10.557  21.508  1.00 63.97 LIG 0.22  C 
ATOM     51 O    ARG C   8      -1.837  10.915  22.295  1.00 69.17 LIG-0.29  OA
ENDBRANCH 49 50
BRANCH 49 52
ATOM     52  CB  ARG C   8      -1.807   9.641  19.372  1.00 59.33 LIG 0.04  C 
BRANCH 52 53
ATOM     53  CG  ARG C   8      -0.415  10.234  19.525  1.00 56.20 LIG 0.02  C 
BRANCH 53 54
ATOM     54  CD  ARG C   8      -0.443  11.739  19.667  1.00 50.77 LIG 0.14  C 
BRANCH 54 55
ATOM     55  NE  ARG C   8       0.700  12.357  19.004  1.00 55.07 LIG-0.23  N 
ATOM     56  CZ  ARG C   8       0.868  13.672  18.847  1.00 55.92 LIG 0.67  C 
ATOM     57  NH1 ARG C   8      -0.015  14.528  19.345  1.00 58.39 LIG-0.23  N 
ATOM     58  NH2 ARG C   8       1.946  14.141  18.225  1.00 49.54 LIG-0.23  N 
ATOM     59 1HH1 ARG C   8      -0.703  14.237  19.773  1.00 58.39 LIG 0.17  HD
ATOM     60 2HH1 ARG C   8       0.100  15.374  19.240  1.00 58.39 LIG 0.17  HD
ATOM     61 1HH2 ARG C   8       2.538  13.597  17.921  1.00 49.54 LIG 0.17  HD
ATOM     62 2HH2 ARG C   8       2.050  14.988  18.125  1.00 49.54 LIG 0.17  HD
ATOM     63 HE   ARG C   8       1.310  11.837  18.692  1.00 55.07 LIG 0.18  HD
ENDBRANCH 54 55
ENDBRANCH 53 54
ENDBRANCH 52 53
ENDBRANCH 49 52
ENDBRANCH 47 49
ENDBRANCH 41 45
ENDBRANCH 4 38
TORSDOF 14
ENDMDL
MODEL 34
USER: ADFR SOLUTION from run 199
USER: SCORE 16.725576 LL:  -4.770 LR: -12.049 RR:   0.000 FEB:  -7.873
USER: RMSD 7.237117
USER: SEED 198
USER: STATUS no improvement in best in 7 clusters for 5 generations
USER: GENES 16
USER: genes 0 Translation |==|  0.28155 0.44912 0.43452
USER: genes 1 Rotation |==|  0.14503 0.17836 0.64288 0.51153
USER: genes 2 Torsion [N]-C--CA-[N] |==|  0.45423
USER: genes 3 Torsion [C]-CA--N-[C] |==|  0.62872
USER: genes 4 Torsion [N]-C--CA-[N] |==|  0.26539
USER: genes 5 Torsion [N]-C--CA-[CB] |==|  0.85917
USER: genes 6 Torsion [N]-C--CA-[N] |==|  0.46887
USER: genes 7 Torsion [C]-CA--CB-[CG2] |==|  0.93181
USER: genes 8 Torsion [N]-CA--C-[O] |==|  0.88854
USER: genes 9 Torsion [N]-CA--C-[O] |==|  0.31632
USER: genes 10 Torsion [C]-N--CA-[C] |==|  0.66199
USER: genes 11 Torsion [N]-CA--C-[O] |==|  0.66350
USER: genes 12 Torsion [N]-CA--CB-[CG] |==|  0.04182
USER: genes 13 Torsion [CA]-CB--CG-[CD] |==|  0.62657
USER: genes 14 Torsion [CB]-CG--CD-[NE] |==|  0.46799
USER: genes 15 Torsion [CG]-CD--NE-[CZ] |==|  0.28526
ROOT
ATOM      1  C   VAL C   5      -4.680   6.999  23.549  1.00 42.36 LIG 0.24  C 
ATOM      2 O    VAL C   5      -3.745   6.462  22.948  1.00 45.24 LIG-0.27  OA
ATOM      3  N   PRO C   6      -5.046   8.279  23.333  1.00 47.11 LIG-0.34  N 
ATOM      4  CA  PRO C   6      -4.443   9.206  22.365  1.00 46.93 LIG 0.18  C 
ATOM      5  CB  PRO C   6      -4.986  10.552  22.820  1.00 48.77 LIG 0.04  C 
ATOM      6  CG  PRO C   6      -6.340  10.200  23.325  1.00 47.44 LIG 0.02  C 
ATOM      7  CD  PRO C   6      -6.039   8.990  24.159  1.00 45.48 LIG 0.13  C 
ENDROOT
BRANCH 1 8
ATOM      8  CA  VAL C   5      -5.451   6.221  24.602  1.00 35.80 LIG 0.18  C 
BRANCH 8 9
ATOM      9  N   VAL C   5      -5.180   4.819  24.402  1.00 29.23 LIG-0.35  N 
ATOM     10 H    VAL C   5      -4.347   4.642  24.286  1.00 29.23 LIG 0.16  HD
ATOM     11  C   PRO C   4      -6.122   3.891  24.396  1.00 26.62 LIG 0.24  C 
ATOM     12 O    PRO C   4      -7.317   4.106  24.636  1.00 27.50 LIG-0.27  OA
BRANCH 11 13
ATOM     13  CA  PRO C   4      -5.614   2.490  24.166  1.00 24.57 LIG 0.18  C 
ATOM     14  N   PRO C   4      -5.443   1.887  25.478  1.00 25.19 LIG-0.34  N 
ATOM     15  C   PRO C   3      -4.507   2.346  26.334  1.00 26.73 LIG 0.24  C 
ATOM     16  CD  PRO C   4      -6.303   0.702  25.602  1.00 25.69 LIG 0.13  C 
ATOM     17 O    PRO C   3      -3.705   3.229  26.027  1.00 25.36 LIG-0.27  OA
ATOM     18  CG  PRO C   4      -6.474   0.303  24.164  1.00 24.59 LIG 0.02  C 
ATOM     19  CB  PRO C   4      -6.684   1.607  23.517  1.00 22.47 LIG 0.04  C 
BRANCH 15 20
ATOM     20  CA  PRO C   3      -4.406   1.657  27.691  1.00 28.16 LIG 0.18  C 
ATOM     21  N   PRO C   3      -3.619   2.445  28.643  1.00 24.30 LIG-0.34  N 
ATOM     22  CD  PRO C   3      -4.495   3.070  29.643  1.00 25.18 LIG 0.13  C 
ATOM     23  C   PRO C   2      -2.304   2.629  28.487  1.00 26.75 LIG 0.24  C 
ATOM     24  CG  PRO C   3      -5.890   2.862  29.049  1.00 22.51 LIG 0.02  C 
ATOM     25  CB  PRO C   3      -5.775   1.561  28.378  1.00 21.93 LIG 0.04  C 
ATOM     26 O    PRO C   2      -1.678   2.155  27.531  1.00 25.20 LIG-0.27  OA
BRANCH 23 27
ATOM     27  CA  PRO C   2      -1.589   3.458  29.543  1.00 29.29 LIG 0.18  C 
ATOM     28  N   PRO C   2      -0.133   3.344  29.378  1.00 27.80 LIG-0.34  N 
ATOM     29  C   ACE C   1       0.542   2.210  29.651  1.00 31.50 LIG 0.22  C 
ATOM     30  CD  PRO C   2       0.448   4.634  28.972  1.00 33.03 LIG 0.13  C 
ATOM     31 O    ACE C   1      -0.017   1.222  30.125  1.00 38.95 LIG-0.27  OA
ATOM     32  CH3 ACE C   1       2.042   2.174  29.444  1.00 34.05 LIG 0.12  C 
ATOM     33  CG  PRO C   2      -0.747   5.370  28.418  1.00 32.34 LIG 0.02  C 
ATOM     34  CB  PRO C   2      -1.840   4.956  29.347  1.00 28.70 LIG 0.04  C 
ENDBRANCH 23 27
ENDBRANCH 15 20
ENDBRANCH 11 13
ENDBRANCH 8 9
BRANCH 8 35
ATOM     35  CB  VAL C   5      -5.004   6.626  26.002  1.00 35.33 LIG 0.01  C 
ATOM     36  CG2 VAL C   5      -3.576   7.183  25.940  1.00 35.45 LIG 0.01  C 
ATOM     37  CG1 VAL C   5      -5.098   5.464  26.942  1.00 28.19 LIG 0.01  C 
ENDBRANCH 8 35
ENDBRANCH 1 8
BRANCH 4 38
ATOM     38  C   PRO C   6      -2.912   9.187  22.367  1.00 48.62 LIG 0.24  C 
ATOM     39 O    PRO C   6      -2.293   9.108  23.436  1.00 45.97 LIG-0.27  OA
ATOM     40  N   PRO C   7      -2.288   9.278  21.169  1.00 50.57 LIG-0.34  N 
ATOM     41  CA  PRO C   7      -0.830   9.269  21.022  1.00 53.29 LIG 0.18  C 
ATOM     42  CD  PRO C   7      -2.929   9.532  19.861  1.00 52.97 LIG 0.13  C 
ATOM     43  CB  PRO C   7      -0.633   9.834  19.615  1.00 53.80 LIG 0.04  C 
ATOM     44  CG  PRO C   7      -1.803   9.269  18.875  1.00 51.48 LIG 0.02  C 
BRANCH 41 45
ATOM     45  C   PRO C   7      -0.185  10.146  22.082  1.00 55.55 LIG 0.24  C 
ATOM     46 O    PRO C   7       0.530   9.642  22.963  1.00 56.05 LIG-0.27  OA
ATOM     47  N   ARG C   8      -0.360  11.457  21.907  1.00 55.98 LIG-0.35  N 
ATOM     48 H    ARG C   8      -0.808  11.789  21.251  1.00 55.98 LIG 0.16  HD
BRANCH 47 49
ATOM     49  CA  ARG C   8       0.188  12.464  22.809  1.00 59.84 LIG 0.16  C 
BRANCH 49 50
ATOM     50  C   ARG C   8      -0.887  13.360  23.417  1.00 63.97 LIG 0.22  C 
ATOM     51 O    ARG C   8      -0.790  14.590  23.202  1.00 69.17 LIG-0.29  OA
ENDBRANCH 49 50
BRANCH 49 52
ATOM     52  CB  ARG C   8       1.233  13.319  22.083  1.00 59.33 LIG 0.04  C 
BRANCH 52 53
ATOM     53  CG  ARG C   8       1.205  13.192  20.567  1.00 56.20 LIG 0.02  C 
BRANCH 53 54
ATOM     54  CD  ARG C   8       2.590  13.027  19.979  1.00 50.77 LIG 0.14  C 
BRANCH 54 55
ATOM     55  NE  ARG C   8       2.527  12.640  18.574  1.00 55.07 LIG-0.23  N 
ATOM     56  CZ  ARG C   8       2.738  13.466  17.548  1.00 55.92 LIG 0.67  C 
ATOM     57  NH1 ARG C   8       3.071  14.733  17.761  1.00 58.39 LIG-0.23  N 
ATOM     58  NH2 ARG C   8       2.656  13.019  16.298  1.00 49.54 LIG-0.23  N 
ATOM     59 1HH1 ARG C   8       3.153  15.027  18.566  1.00 58.39 LIG 0.17  HD
ATOM     60 2HH1 ARG C   8       3.205  15.260  17.094  1.00 58.39 LIG 0.17  HD
ATOM     61 1HH2 ARG C   8       2.466  12.194  16.148  1.00 49.54 LIG 0.17  HD
ATOM     62 2HH2 ARG C   8       2.792  13.555  15.640  1.00 49.54 LIG 0.17  HD
ATOM     63 HE   ARG C   8       2.342  11.820  18.394  1.00 55.07 LIG 0.18  HD
ENDBRANCH 54 55
ENDBRANCH 53 54
ENDBRANCH 52 53
ENDBRANCH 49 52
ENDBRANCH 47 49
ENDBRANCH 41 45
ENDBRANCH 4 38
TORSDOF 14
ENDMDL
MODEL 35
USER: ADFR SOLUTION from run 146
USER: SCORE 17.378907 LL:  -5.456 LR: -12.048 RR:   0.000 FEB:  -7.872
USER: RMSD 8.781347
USER: SEED 145
USER: STATUS no improvement in best in 7 clusters for 5 generations
USER: GENES 16
USER: genes 0 Translation |==|  0.21463 0.34908 0.37728
USER: genes 1 Rotation |==|  0.81343 0.85023 0.42235 0.65190
USER: genes 2 Torsion [N]-C--CA-[N] |==|  0.45046
USER: genes 3 Torsion [C]-CA--N-[C] |==|  0.55851
USER: genes 4 Torsion [N]-C--CA-[N] |==|  0.25024
USER: genes 5 Torsion [N]-C--CA-[CB] |==|  0.79360
USER: genes 6 Torsion [N]-C--CA-[N] |==|  0.29945
USER: genes 7 Torsion [C]-CA--CB-[CG2] |==|  0.80383
USER: genes 8 Torsion [N]-CA--C-[O] |==|  0.35141
USER: genes 9 Torsion [N]-CA--C-[O] |==|  0.98524
USER: genes 10 Torsion [C]-N--CA-[C] |==|  0.67788
USER: genes 11 Torsion [N]-CA--C-[O] |==|  0.47703
USER: genes 12 Torsion [N]-CA--CB-[CG] |==|  0.83697
USER: genes 13 Torsion [CA]-CB--CG-[CD] |==|  0.22204
USER: genes 14 Torsion [CB]-CG--CD-[NE] |==|  0.65490
USER: genes 15 Torsion [CG]-CD--NE-[CZ] |==|  0.72052
ROOT
ATOM      1  C   VAL C   5      -6.136   4.748  22.390  1.00 42.36 LIG 0.24  C 
ATOM      2 O    VAL C   5      -4.922   4.572  22.534  1.00 45.24 LIG-0.27  OA
ATOM      3  N   PRO C   6      -6.643   5.716  21.599  1.00 47.11 LIG-0.34  N 
ATOM      4  CA  PRO C   6      -5.875   6.665  20.782  1.00 46.93 LIG 0.18  C 
ATOM      5  CB  PRO C   6      -6.920   7.711  20.427  1.00 48.77 LIG 0.04  C 
ATOM      6  CG  PRO C   6      -8.162   6.900  20.313  1.00 47.44 LIG 0.02  C 
ATOM      7  CD  PRO C   6      -8.077   6.055  21.549  1.00 45.48 LIG 0.13  C 
ENDROOT
BRANCH 1 8
ATOM      8  CA  VAL C   5      -7.123   3.874  23.145  1.00 35.80 LIG 0.18  C 
BRANCH 8 9
ATOM      9  N   VAL C   5      -6.427   2.685  23.569  1.00 29.23 LIG-0.35  N 
ATOM     10 H    VAL C   5      -5.573   2.778  23.598  1.00 29.23 LIG 0.16  HD
ATOM     11  C   PRO C   4      -7.041   1.557  23.883  1.00 26.62 LIG 0.24  C 
ATOM     12 O    PRO C   4      -8.269   1.418  23.925  1.00 27.50 LIG-0.27  OA
BRANCH 11 13
ATOM     13  CA  PRO C   4      -6.117   0.439  24.297  1.00 24.57 LIG 0.18  C 
ATOM     14  N   PRO C   4      -5.951   0.546  25.737  1.00 25.19 LIG-0.34  N 
ATOM     15  C   PRO C   3      -5.314   1.601  26.284  1.00 26.73 LIG 0.24  C 
ATOM     16  CD  PRO C   4      -6.431  -0.680  26.390  1.00 25.69 LIG 0.13  C 
ATOM     17 O    PRO C   3      -4.774   2.475  25.603  1.00 25.36 LIG-0.27  OA
ATOM     18  CG  PRO C   4      -6.285  -1.687  25.284  1.00 24.59 LIG 0.02  C 
ATOM     19  CB  PRO C   4      -6.782  -0.929  24.125  1.00 22.47 LIG 0.04  C 
BRANCH 15 20
ATOM     20  CA  PRO C   3      -5.195   1.632  27.805  1.00 28.16 LIG 0.18  C 
ATOM     21  N   PRO C   3      -4.312   2.709  28.259  1.00 24.30 LIG-0.34  N 
ATOM     22  CD  PRO C   3      -5.095   3.803  28.849  1.00 25.18 LIG 0.13  C 
ATOM     23  C   PRO C   2      -2.996   2.689  28.021  1.00 26.75 LIG 0.24  C 
ATOM     24  CG  PRO C   3      -6.527   3.454  28.440  1.00 22.51 LIG 0.02  C 
ATOM     25  CB  PRO C   3      -6.533   1.986  28.467  1.00 21.93 LIG 0.04  C 
ATOM     26 O    PRO C   2      -2.450   1.769  27.400  1.00 25.20 LIG-0.27  OA
BRANCH 23 27
ATOM     27  CA  PRO C   2      -2.178   3.857  28.548  1.00 29.29 LIG 0.18  C 
ATOM     28  N   PRO C   2      -1.361   3.430  29.692  1.00 27.80 LIG-0.34  N 
ATOM     29  C   ACE C   1      -1.894   3.118  30.889  1.00 31.50 LIG 0.22  C 
ATOM     30  CD  PRO C   2       0.073   3.480  29.357  1.00 33.03 LIG 0.13  C 
ATOM     31 O    ACE C   1      -3.097   3.245  31.115  1.00 38.95 LIG-0.27  OA
ATOM     32  CH3 ACE C   1      -0.981   2.677  32.014  1.00 34.05 LIG 0.12  C 
ATOM     33  CG  PRO C   2       0.056   3.463  27.849  1.00 32.34 LIG 0.02  C 
ATOM     34  CB  PRO C   2      -1.129   4.315  27.529  1.00 28.70 LIG 0.04  C 
ENDBRANCH 23 27
ENDBRANCH 15 20
ENDBRANCH 11 13
ENDBRANCH 8 9
BRANCH 8 35
ATOM     35  CB  VAL C   5      -7.662   4.606  24.369  1.00 35.33 LIG 0.01  C 
ATOM     36  CG2 VAL C   5      -6.549   4.727  25.419  1.00 35.45 LIG 0.01  C 
ATOM     37  CG1 VAL C   5      -8.861   3.900  24.920  1.00 28.19 LIG 0.01  C 
ENDBRANCH 8 35
ENDBRANCH 1 8
BRANCH 4 38
ATOM     38  C   PRO C   6      -4.685   7.287  21.518  1.00 48.62 LIG 0.24  C 
ATOM     39 O    PRO C   6      -3.551   7.233  21.023  1.00 45.97 LIG-0.27  OA
ATOM     40  N   PRO C   7      -4.930   7.868  22.716  1.00 50.57 LIG-0.34  N 
ATOM     41  CA  PRO C   7      -3.887   8.503  23.526  1.00 53.29 LIG 0.18  C 
ATOM     42  CD  PRO C   7      -6.208   7.846  23.459  1.00 52.97 LIG 0.13  C 
ATOM     43  CB  PRO C   7      -4.539   8.584  24.906  1.00 53.80 LIG 0.04  C 
ATOM     44  CG  PRO C   7      -5.971   8.855  24.570  1.00 51.48 LIG 0.02  C 
BRANCH 41 45
ATOM     45  C   PRO C   7      -2.631   7.649  23.540  1.00 55.55 LIG 0.24  C 
ATOM     46 O    PRO C   7      -2.626   6.531  23.000  1.00 56.05 LIG-0.27  OA
ATOM     47  N   ARG C   8      -1.555   8.243  24.062  1.00 55.98 LIG-0.35  N 
ATOM     48 H    ARG C   8      -1.566   9.045  24.374  1.00 55.98 LIG 0.16  HD
BRANCH 47 49
ATOM     49  CA  ARG C   8      -0.253   7.595  24.157  1.00 59.84 LIG 0.16  C 
BRANCH 49 50
ATOM     50  C   ARG C   8       0.201   7.391  25.600  1.00 63.97 LIG 0.22  C 
ATOM     51 O    ARG C   8       1.231   6.701  25.780  1.00 69.17 LIG-0.29  OA
ENDBRANCH 49 50
BRANCH 49 52
ATOM     52  CB  ARG C   8       0.801   8.398  23.386  1.00 59.33 LIG 0.04  C 
BRANCH 52 53
ATOM     53  CG  ARG C   8       0.492   8.584  21.909  1.00 56.20 LIG 0.02  C 
BRANCH 53 54
ATOM     54  CD  ARG C   8      -0.509   9.692  21.666  1.00 50.77 LIG 0.14  C 
BRANCH 54 55
ATOM     55  NE  ARG C   8      -1.661   9.212  20.910  1.00 55.07 LIG-0.23  N 
ATOM     56  CZ  ARG C   8      -1.841   9.397  19.601  1.00 55.92 LIG 0.67  C 
ATOM     57  NH1 ARG C   8      -0.921  10.019  18.875  1.00 58.39 LIG-0.23  N 
ATOM     58  NH2 ARG C   8      -2.929   8.923  19.001  1.00 49.54 LIG-0.23  N 
ATOM     59 1HH1 ARG C   8      -0.201  10.306  19.248  1.00 58.39 LIG 0.17  HD
ATOM     60 2HH1 ARG C   8      -1.044  10.134  18.032  1.00 58.39 LIG 0.17  HD
ATOM     61 1HH2 ARG C   8      -3.520   8.495  19.456  1.00 49.54 LIG 0.17  HD
ATOM     62 2HH2 ARG C   8      -3.042   9.044  18.157  1.00 49.54 LIG 0.17  HD
ATOM     63 HE   ARG C   8      -2.267   8.779  21.339  1.00 55.07 LIG 0.18  HD
ENDBRANCH 54 55
ENDBRANCH 53 54
ENDBRANCH 52 53
ENDBRANCH 49 52
ENDBRANCH 47 49
ENDBRANCH 41 45
ENDBRANCH 4 38
TORSDOF 14
ENDMDL
MODEL 36
USER: ADFR SOLUTION from run 83
USER: SCORE 16.635132 LL:  -4.778 LR: -12.024 RR:   0.000 FEB:  -7.848
USER: RMSD 8.298358
USER: SEED 82
USER: STATUS no improvement in best in 4 clusters for 5 generations
USER: GENES 16
USER: genes 0 Translation |==|  0.17524 0.43217 0.35746
USER: genes 1 Rotation |==|  0.59313 0.41902 0.53894 0.98296
USER: genes 2 Torsion [N]-C--CA-[N] |==|  0.14125
USER: genes 3 Torsion [C]-CA--N-[C] |==|  0.13220
USER: genes 4 Torsion [N]-C--CA-[N] |==|  0.49224
USER: genes 5 Torsion [N]-C--CA-[CB] |==|  0.82099
USER: genes 6 Torsion [N]-C--CA-[N] |==|  0.33132
USER: genes 7 Torsion [C]-CA--CB-[CG2] |==|  0.56039
USER: genes 8 Torsion [N]-CA--C-[O] |==|  0.90645
USER: genes 9 Torsion [N]-CA--C-[O] |==|  0.40605
USER: genes 10 Torsion [C]-N--CA-[C] |==|  0.65589
USER: genes 11 Torsion [N]-CA--C-[O] |==|  0.13067
USER: genes 12 Torsion [N]-CA--CB-[CG] |==|  0.41679
USER: genes 13 Torsion [CA]-CB--CG-[CD] |==|  0.29229
USER: genes 14 Torsion [CB]-CG--CD-[NE] |==|  0.55694
USER: genes 15 Torsion [CG]-CD--NE-[CZ] |==|  0.52198
ROOT
ATOM      1  C   VAL C   5      -6.992   6.618  21.989  1.00 42.36 LIG 0.24  C 
ATOM      2 O    VAL C   5      -7.564   7.568  22.533  1.00 45.24 LIG-0.27  OA
ATOM      3  N   PRO C   6      -5.687   6.342  22.188  1.00 47.11 LIG-0.34  N 
ATOM      4  CA  PRO C   6      -4.768   7.070  23.073  1.00 46.93 LIG 0.18  C 
ATOM      5  CB  PRO C   6      -3.408   6.568  22.615  1.00 48.77 LIG 0.04  C 
ATOM      6  CG  PRO C   6      -3.696   5.160  22.231  1.00 47.44 LIG 0.02  C 
ATOM      7  CD  PRO C   6      -4.946   5.327  21.418  1.00 45.48 LIG 0.13  C 
ENDROOT
BRANCH 1 8
ATOM      8  CA  VAL C   5      -7.756   5.724  21.026  1.00 35.80 LIG 0.18  C 
BRANCH 8 9
ATOM      9  N   VAL C   5      -7.519   4.355  21.412  1.00 29.23 LIG-0.35  N 
ATOM     10 H    VAL C   5      -7.308   3.843  20.754  1.00 29.23 LIG 0.16  HD
ATOM     11  C   PRO C   4      -7.618   3.924  22.659  1.00 26.62 LIG 0.24  C 
ATOM     12 O    PRO C   4      -7.844   4.651  23.633  1.00 27.50 LIG-0.27  OA
BRANCH 11 13
ATOM     13  CA  PRO C   4      -7.330   2.454  22.834  1.00 24.57 LIG 0.18  C 
ATOM     14  N   PRO C   4      -7.418   2.178  24.258  1.00 25.19 LIG-0.34  N 
ATOM     15  C   PRO C   3      -6.526   2.704  25.122  1.00 26.73 LIG 0.24  C 
ATOM     16  CD  PRO C   4      -8.474   1.188  24.513  1.00 25.69 LIG 0.13  C 
ATOM     17 O    PRO C   3      -5.555   3.366  24.750  1.00 25.36 LIG-0.27  OA
ATOM     18  CG  PRO C   4      -8.540   0.472  23.194  1.00 24.59 LIG 0.02  C 
ATOM     19  CB  PRO C   4      -8.449   1.592  22.243  1.00 22.47 LIG 0.04  C 
BRANCH 15 20
ATOM     20  CA  PRO C   3      -6.702   2.365  26.599  1.00 28.16 LIG 0.18  C 
ATOM     21  N   PRO C   3      -5.687   3.016  27.430  1.00 24.30 LIG-0.34  N 
ATOM     22  CD  PRO C   3      -6.275   4.132  28.183  1.00 25.18 LIG 0.13  C 
ATOM     23  C   PRO C   2      -4.397   2.670  27.366  1.00 26.75 LIG 0.24  C 
ATOM     24  CG  PRO C   3      -7.641   4.309  27.516  1.00 22.51 LIG 0.02  C 
ATOM     25  CB  PRO C   3      -8.014   2.936  27.154  1.00 21.93 LIG 0.04  C 
ATOM     26 O    PRO C   2      -3.985   1.791  26.600  1.00 25.20 LIG-0.27  OA
BRANCH 23 27
ATOM     27  CA  PRO C   2      -3.434   3.408  28.283  1.00 29.29 LIG 0.18  C 
ATOM     28  N   PRO C   2      -2.780   2.463  29.200  1.00 27.80 LIG-0.34  N 
ATOM     29  C   ACE C   1      -3.439   1.849  30.201  1.00 31.50 LIG 0.22  C 
ATOM     30  CD  PRO C   2      -1.339   2.372  28.912  1.00 33.03 LIG 0.13  C 
ATOM     31 O    ACE C   1      -4.616   2.101  30.452  1.00 38.95 LIG-0.27  OA
ATOM     32  CH3 ACE C   1      -2.691   0.881  31.094  1.00 34.05 LIG 0.12  C 
ATOM     33  CG  PRO C   2      -1.254   2.894  27.499  1.00 32.34 LIG 0.02  C 
ATOM     34  CB  PRO C   2      -2.257   4.001  27.503  1.00 28.70 LIG 0.04  C 
ENDBRANCH 23 27
ENDBRANCH 15 20
ENDBRANCH 11 13
ENDBRANCH 8 9
BRANCH 8 35
ATOM     35  CB  VAL C   5      -9.251   6.015  21.094  1.00 35.33 LIG 0.01  C 
ATOM     36  CG2 VAL C   5     -10.030   4.801  20.569  1.00 35.45 LIG 0.01  C 
ATOM     37  CG1 VAL C   5      -9.583   7.253  20.321  1.00 28.19 LIG 0.01  C 
ENDBRANCH 8 35
ENDBRANCH 1 8
BRANCH 4 38
ATOM     38  C   PRO C   6      -4.875   8.593  22.952  1.00 48.62 LIG 0.24  C 
ATOM     39 O    PRO C   6      -5.141   9.113  21.861  1.00 45.97 LIG-0.27  OA
ATOM     40  N   PRO C   7      -4.652   9.322  24.071  1.00 50.57 LIG-0.34  N 
ATOM     41  CA  PRO C   7      -4.723  10.785  24.101  1.00 53.29 LIG 0.18  C 
ATOM     42  CD  PRO C   7      -4.177   8.809  25.375  1.00 52.97 LIG 0.13  C 
ATOM     43  CB  PRO C   7      -3.977  11.129  25.391  1.00 53.80 LIG 0.04  C 
ATOM     44  CG  PRO C   7      -4.363  10.003  26.296  1.00 51.48 LIG 0.02  C 
BRANCH 41 45
ATOM     45  C   PRO C   7      -4.045  11.375  22.877  1.00 55.55 LIG 0.24  C 
ATOM     46 O    PRO C   7      -4.477  12.419  22.362  1.00 56.05 LIG-0.27  OA
ATOM     47  N   ARG C   8      -2.925  10.753  22.502  1.00 55.98 LIG-0.35  N 
ATOM     48 H    ARG C   8      -2.609  10.066  22.913  1.00 55.98 LIG 0.16  HD
BRANCH 47 49
ATOM     49  CA  ARG C   8      -2.123  11.171  21.359  1.00 59.84 LIG 0.16  C 
BRANCH 49 50
ATOM     50  C   ARG C   8      -1.917  10.053  20.341  1.00 63.97 LIG 0.22  C 
ATOM     51 O    ARG C   8      -2.931   9.398  20.005  1.00 69.17 LIG-0.29  OA
ENDBRANCH 49 50
BRANCH 49 52
ATOM     52  CB  ARG C   8      -0.766  11.710  21.826  1.00 59.33 LIG 0.04  C 
BRANCH 52 53
ATOM     53  CG  ARG C   8       0.367  11.505  20.833  1.00 56.20 LIG 0.02  C 
BRANCH 53 54
ATOM     54  CD  ARG C   8       0.749  12.786  20.125  1.00 50.77 LIG 0.14  C 
BRANCH 54 55
ATOM     55  NE  ARG C   8       1.460  12.514  18.880  1.00 55.07 LIG-0.23  N 
ATOM     56  CZ  ARG C   8       2.049  13.442  18.123  1.00 55.92 LIG 0.67  C 
ATOM     57  NH1 ARG C   8       2.056  14.714  18.500  1.00 58.39 LIG-0.23  N 
ATOM     58  NH2 ARG C   8       2.672  13.095  17.000  1.00 49.54 LIG-0.23  N 
ATOM     59 1HH1 ARG C   8       1.679  14.946  19.238  1.00 58.39 LIG 0.17  HD
ATOM     60 2HH1 ARG C   8       2.438  15.306  18.007  1.00 58.39 LIG 0.17  HD
ATOM     61 1HH2 ARG C   8       2.696  12.270  16.758  1.00 49.54 LIG 0.17  HD
ATOM     62 2HH2 ARG C   8       3.050  13.696  16.515  1.00 49.54 LIG 0.17  HD
ATOM     63 HE   ARG C   8       1.502  11.697  18.615  1.00 55.07 LIG 0.18  HD
ENDBRANCH 54 55
ENDBRANCH 53 54
ENDBRANCH 52 53
ENDBRANCH 49 52
ENDBRANCH 47 49
ENDBRANCH 41 45
ENDBRANCH 4 38
TORSDOF 14
ENDMDL
MODEL 37
USER: ADFR SOLUTION from run 120
USER: SCORE 16.679552 LL:  -5.153 LR: -12.014 RR:   0.000 FEB:  -7.838
USER: RMSD 6.926153
USER: SEED 119
USER: STATUS no improvement in best in 3 clusters for 5 generations
USER: GENES 16
USER: genes 0 Translation |==|  0.35596 0.47304 0.53383
USER: genes 1 Rotation |==|  0.67741 0.85410 0.26220 0.69130
USER: genes 2 Torsion [N]-C--CA-[N] |==|  0.21306
USER: genes 3 Torsion [C]-CA--N-[C] |==|  0.64341
USER: genes 4 Torsion [N]-C--CA-[N] |==|  0.87242
USER: genes 5 Torsion [N]-C--CA-[CB] |==|  0.65254
USER: genes 6 Torsion [N]-C--CA-[N] |==|  0.51207
USER: genes 7 Torsion [C]-CA--CB-[CG2] |==|  0.75500
USER: genes 8 Torsion [N]-CA--C-[O] |==|  0.74273
USER: genes 9 Torsion [N]-CA--C-[O] |==|  0.91891
USER: genes 10 Torsion [C]-N--CA-[C] |==|  0.87677
USER: genes 11 Torsion [N]-CA--C-[O] |==|  0.51418
USER: genes 12 Torsion [N]-CA--CB-[CG] |==|  0.16411
USER: genes 13 Torsion [CA]-CB--CG-[CD] |==|  0.39288
USER: genes 14 Torsion [CB]-CG--CD-[NE] |==|  0.76466
USER: genes 15 Torsion [CG]-CD--NE-[CZ] |==|  0.85713
ROOT
ATOM      1  C   VAL C   5      -3.062   7.537  25.560  1.00 42.36 LIG 0.24  C 
ATOM      2 O    VAL C   5      -1.868   7.589  25.249  1.00 45.24 LIG-0.27  OA
ATOM      3  N   PRO C   6      -4.056   7.660  24.657  1.00 47.11 LIG-0.34  N 
ATOM      4  CA  PRO C   6      -3.899   7.835  23.207  1.00 46.93 LIG 0.18  C 
ATOM      5  CB  PRO C   6      -5.289   8.279  22.779  1.00 48.77 LIG 0.04  C 
ATOM      6  CG  PRO C   6      -6.170   7.533  23.718  1.00 47.44 LIG 0.02  C 
ATOM      7  CD  PRO C   6      -5.478   7.778  25.027  1.00 45.48 LIG 0.13  C 
ENDROOT
BRANCH 1 8
ATOM      8  CA  VAL C   5      -3.459   7.359  27.016  1.00 35.80 LIG 0.18  C 
BRANCH 8 9
ATOM      9  N   VAL C   5      -3.892   5.995  27.192  1.00 29.23 LIG-0.35  N 
ATOM     10 H    VAL C   5      -3.330   5.415  26.899  1.00 29.23 LIG 0.16  HD
ATOM     11  C   PRO C   4      -5.044   5.666  27.752  1.00 26.62 LIG 0.24  C 
ATOM     12 O    PRO C   4      -5.835   6.475  28.251  1.00 27.50 LIG-0.27  OA
BRANCH 11 13
ATOM     13  CA  PRO C   4      -5.295   4.181  27.832  1.00 24.57 LIG 0.18  C 
ATOM     14  N   PRO C   4      -4.954   3.629  26.531  1.00 25.19 LIG-0.34  N 
ATOM     15  C   PRO C   3      -5.679   3.938  25.436  1.00 26.73 LIG 0.24  C 
ATOM     16  CD  PRO C   4      -3.869   2.648  26.671  1.00 25.69 LIG 0.13  C 
ATOM     17 O    PRO C   3      -6.701   4.625  25.490  1.00 25.36 LIG-0.27  OA
ATOM     18  CG  PRO C   4      -4.039   2.213  28.098  1.00 24.59 LIG 0.02  C 
ATOM     19  CB  PRO C   4      -4.299   3.496  28.771  1.00 22.47 LIG 0.04  C 
BRANCH 15 20
ATOM     20  CA  PRO C   3      -5.242   3.318  24.113  1.00 28.16 LIG 0.18  C 
ATOM     21  N   PRO C   3      -6.301   2.497  23.522  1.00 24.30 LIG-0.34  N 
ATOM     22  CD  PRO C   3      -6.902   3.182  22.369  1.00 25.18 LIG 0.13  C 
ATOM     23  C   PRO C   2      -6.699   1.350  24.083  1.00 26.75 LIG 0.24  C 
ATOM     24  CG  PRO C   3      -6.349   4.603  22.494  1.00 22.51 LIG 0.02  C 
ATOM     25  CB  PRO C   3      -5.003   4.389  23.041  1.00 21.93 LIG 0.04  C 
ATOM     26 O    PRO C   2      -6.206   0.921  25.133  1.00 25.20 LIG-0.27  OA
BRANCH 23 27
ATOM     27  CA  PRO C   2      -7.801   0.577  23.375  1.00 29.29 LIG 0.18  C 
ATOM     28  N   PRO C   2      -8.190  -0.596  24.170  1.00 27.80 LIG-0.34  N 
ATOM     29  C   ACE C   1      -7.387  -1.666  24.328  1.00 31.50 LIG 0.22  C 
ATOM     30  CD  PRO C   2      -9.568  -0.454  24.669  1.00 33.03 LIG 0.13  C 
ATOM     31 O    ACE C   1      -6.304  -1.752  23.750  1.00 38.95 LIG-0.27  OA
ATOM     32  CH3 ACE C   1      -7.861  -2.830  25.172  1.00 34.05 LIG 0.12  C 
ATOM     33  CG  PRO C   2      -9.798   1.034  24.573  1.00 32.34 LIG 0.02  C 
ATOM     34  CB  PRO C   2      -9.099   1.387  23.301  1.00 28.70 LIG 0.04  C 
ENDBRANCH 23 27
ENDBRANCH 15 20
ENDBRANCH 11 13
ENDBRANCH 8 9
BRANCH 8 35
ATOM     35  CB  VAL C   5      -2.273   7.634  27.933  1.00 35.33 LIG 0.01  C 
ATOM     36  CG2 VAL C   5      -1.475   6.338  28.135  1.00 35.45 LIG 0.01  C 
ATOM     37  CG1 VAL C   5      -2.736   8.200  29.239  1.00 28.19 LIG 0.01  C 
ENDBRANCH 8 35
ENDBRANCH 1 8
BRANCH 4 38
ATOM     38  C   PRO C   6      -2.836   8.869  22.824  1.00 48.62 LIG 0.24  C 
ATOM     39 O    PRO C   6      -3.157  10.049  22.633  1.00 45.97 LIG-0.27  OA
ATOM     40  N   PRO C   7      -1.562   8.430  22.690  1.00 50.57 LIG-0.34  N 
ATOM     41  CA  PRO C   7      -0.446   9.308  22.332  1.00 53.29 LIG 0.18  C 
ATOM     42  CD  PRO C   7      -1.107   7.024  22.741  1.00 52.97 LIG 0.13  C 
ATOM     43  CB  PRO C   7       0.626   8.317  21.875  1.00 53.80 LIG 0.04  C 
ATOM     44  CG  PRO C   7       0.406   7.160  22.796  1.00 51.48 LIG 0.02  C 
BRANCH 41 45
ATOM     45  C   PRO C   7      -0.854  10.257  21.218  1.00 55.55 LIG 0.24  C 
ATOM     46 O    PRO C   7      -1.717   9.921  20.391  1.00 56.05 LIG-0.27  OA
ATOM     47  N   ARG C   8      -0.302  11.471  21.286  1.00 55.98 LIG-0.35  N 
ATOM     48 H    ARG C   8       0.247  11.704  21.906  1.00 55.98 LIG 0.16  HD
BRANCH 47 49
ATOM     49  CA  ARG C   8      -0.574  12.527  20.318  1.00 59.84 LIG 0.16  C 
BRANCH 49 50
ATOM     50  C   ARG C   8      -0.549  12.027  18.876  1.00 63.97 LIG 0.22  C 
ATOM     51 O    ARG C   8      -0.674  12.887  17.974  1.00 69.17 LIG-0.29  OA
ENDBRANCH 49 50
BRANCH 49 52
ATOM     52  CB  ARG C   8       0.423  13.679  20.490  1.00 59.33 LIG 0.04  C 
BRANCH 52 53
ATOM     53  CG  ARG C   8       1.881  13.278  20.320  1.00 56.20 LIG 0.02  C 
BRANCH 53 54
ATOM     54  CD  ARG C   8       2.685  14.333  19.592  1.00 50.77 LIG 0.14  C 
BRANCH 54 55
ATOM     55  NE  ARG C   8       2.567  14.188  18.145  1.00 55.07 LIG-0.23  N 
ATOM     56  CZ  ARG C   8       2.774  13.051  17.477  1.00 55.92 LIG 0.67  C 
ATOM     57  NH1 ARG C   8       3.071  11.932  18.125  1.00 58.39 LIG-0.23  N 
ATOM     58  NH2 ARG C   8       2.644  13.019  16.153  1.00 49.54 LIG-0.23  N 
ATOM     59 1HH1 ARG C   8       3.131  11.936  18.983  1.00 58.39 LIG 0.17  HD
ATOM     60 2HH1 ARG C   8       3.202  11.204  17.687  1.00 58.39 LIG 0.17  HD
ATOM     61 1HH2 ARG C   8       2.426  13.732  15.725  1.00 49.54 LIG 0.17  HD
ATOM     62 2HH2 ARG C   8       2.778  12.285  15.726  1.00 49.54 LIG 0.17  HD
ATOM     63 HE   ARG C   8       2.348  14.884  17.691  1.00 55.07 LIG 0.18  HD
ENDBRANCH 54 55
ENDBRANCH 53 54
ENDBRANCH 52 53
ENDBRANCH 49 52
ENDBRANCH 47 49
ENDBRANCH 41 45
ENDBRANCH 4 38
TORSDOF 14
ENDMDL
MODEL 38
USER: ADFR SOLUTION from run 197
USER: SCORE 17.315470 LL:  -5.860 LR: -12.004 RR:   0.000 FEB:  -7.828
USER: RMSD 9.941385
USER: SEED 196
USER: STATUS no improvement in best in 5 clusters for 5 generations
USER: GENES 16
USER: genes 0 Translation |==|  0.23644 0.32997 0.50215
USER: genes 1 Rotation |==|  0.42688 0.87658 0.30109 0.75155
USER: genes 2 Torsion [N]-C--CA-[N] |==|  0.27412
USER: genes 3 Torsion [C]-CA--N-[C] |==|  0.55578
USER: genes 4 Torsion [N]-C--CA-[N] |==|  0.28476
USER: genes 5 Torsion [N]-C--CA-[CB] |==|  0.82096
USER: genes 6 Torsion [N]-C--CA-[N] |==|  0.47815
USER: genes 7 Torsion [C]-CA--CB-[CG2] |==|  0.13971
USER: genes 8 Torsion [N]-CA--C-[O] |==|  0.35654
USER: genes 9 Torsion [N]-CA--C-[O] |==|  0.41905
USER: genes 10 Torsion [C]-N--CA-[C] |==|  0.70746
USER: genes 11 Torsion [N]-CA--C-[O] |==|  0.02865
USER: genes 12 Torsion [N]-CA--CB-[CG] |==|  0.53181
USER: genes 13 Torsion [CA]-CB--CG-[CD] |==|  0.09595
USER: genes 14 Torsion [CB]-CG--CD-[NE] |==|  0.55729
USER: genes 15 Torsion [CG]-CD--NE-[CZ] |==|  0.36411
ROOT
ATOM      1  C   VAL C   5      -5.661   4.318  24.919  1.00 42.36 LIG 0.24  C 
ATOM      2 O    VAL C   5      -5.091   5.110  24.161  1.00 45.24 LIG-0.27  OA
ATOM      3  N   PRO C   6      -6.392   3.278  24.468  1.00 47.11 LIG-0.34  N 
ATOM      4  CA  PRO C   6      -6.601   2.903  23.063  1.00 46.93 LIG 0.18  C 
ATOM      5  CB  PRO C   6      -7.766   1.931  23.154  1.00 48.77 LIG 0.04  C 
ATOM      6  CG  PRO C   6      -7.523   1.257  24.458  1.00 47.44 LIG 0.02  C 
ATOM      7  CD  PRO C   6      -7.221   2.430  25.343  1.00 45.48 LIG 0.13  C 
ENDROOT
BRANCH 1 8
ATOM      8  CA  VAL C   5      -5.579   4.515  26.423  1.00 35.80 LIG 0.18  C 
BRANCH 8 9
ATOM      9  N   VAL C   5      -4.334   3.946  26.876  1.00 29.23 LIG-0.35  N 
ATOM     10 H    VAL C   5      -3.750   3.853  26.252  1.00 29.23 LIG 0.16  HD
ATOM     11  C   PRO C   4      -4.109   3.598  28.132  1.00 26.62 LIG 0.24  C 
ATOM     12 O    PRO C   4      -4.900   3.791  29.063  1.00 27.50 LIG-0.27  OA
BRANCH 11 13
ATOM     13  CA  PRO C   4      -2.739   3.021  28.381  1.00 24.57 LIG 0.18  C 
ATOM     14  N   PRO C   4      -1.949   4.072  29.001  1.00 25.19 LIG-0.34  N 
ATOM     15  C   PRO C   3      -1.620   5.186  28.317  1.00 26.73 LIG 0.24  C 
ATOM     16  CD  PRO C   4      -1.500   3.643  30.334  1.00 25.69 LIG 0.13  C 
ATOM     17 O    PRO C   3      -1.894   5.336  27.125  1.00 25.36 LIG-0.27  OA
ATOM     18  CG  PRO C   4      -1.518   2.148  30.190  1.00 24.59 LIG 0.02  C 
ATOM     19  CB  PRO C   4      -2.778   1.935  29.460  1.00 22.47 LIG 0.04  C 
BRANCH 15 20
ATOM     20  CA  PRO C   3      -0.796   6.239  29.052  1.00 28.16 LIG 0.18  C 
ATOM     21  N   PRO C   3      -0.528   7.406  28.208  1.00 24.30 LIG-0.34  N 
ATOM     22  CD  PRO C   3      -1.349   8.548  28.633  1.00 25.18 LIG 0.13  C 
ATOM     23  C   PRO C   2       0.270   7.333  27.138  1.00 26.75 LIG 0.24  C 
ATOM     24  CG  PRO C   3      -2.356   7.905  29.589  1.00 22.51 LIG 0.02  C 
ATOM     25  CB  PRO C   3      -1.573   6.841  30.230  1.00 21.93 LIG 0.04  C 
ATOM     26 O    PRO C   2       0.820   6.281  26.794  1.00 25.20 LIG-0.27  OA
BRANCH 23 27
ATOM     27  CA  PRO C   2       0.481   8.612  26.342  1.00 29.29 LIG 0.18  C 
ATOM     28  N   PRO C   2       1.520   8.409  25.322  1.00 27.80 LIG-0.34  N 
ATOM     29  C   ACE C   1       2.822   8.254  25.633  1.00 31.50 LIG 0.22  C 
ATOM     30  CD  PRO C   2       0.944   8.488  23.969  1.00 33.03 LIG 0.13  C 
ATOM     31 O    ACE C   1       3.227   8.347  26.790  1.00 38.95 LIG-0.27  OA
ATOM     32  CH3 ACE C   1       3.827   8.040  24.520  1.00 34.05 LIG 0.12  C 
ATOM     33  CG  PRO C   2      -0.522   8.240  24.224  1.00 32.34 LIG 0.02  C 
ATOM     34  CB  PRO C   2      -0.754   8.967  25.509  1.00 28.70 LIG 0.04  C 
ENDBRANCH 23 27
ENDBRANCH 15 20
ENDBRANCH 11 13
ENDBRANCH 8 9
BRANCH 8 35
ATOM     35  CB  VAL C   5      -5.613   5.998  26.773  1.00 35.33 LIG 0.01  C 
ATOM     36  CG2 VAL C   5      -6.796   6.664  26.057  1.00 35.45 LIG 0.01  C 
ATOM     37  CG1 VAL C   5      -4.317   6.655  26.414  1.00 28.19 LIG 0.01  C 
ENDBRANCH 8 35
ENDBRANCH 1 8
BRANCH 4 38
ATOM     38  C   PRO C   6      -6.929   4.090  22.152  1.00 48.62 LIG 0.24  C 
ATOM     39 O    PRO C   6      -6.285   4.271  21.111  1.00 45.97 LIG-0.27  OA
ATOM     40  N   PRO C   7      -7.925   4.919  22.546  1.00 50.57 LIG-0.34  N 
ATOM     41  CA  PRO C   7      -8.346   6.089  21.772  1.00 53.29 LIG 0.18  C 
ATOM     42  CD  PRO C   7      -8.643   4.879  23.839  1.00 52.97 LIG 0.13  C 
ATOM     43  CB  PRO C   7      -9.127   6.907  22.802  1.00 53.80 LIG 0.04  C 
ATOM     44  CG  PRO C   7      -9.794   5.846  23.617  1.00 51.48 LIG 0.02  C 
BRANCH 41 45
ATOM     45  C   PRO C   7      -7.136   6.842  21.247  1.00 55.55 LIG 0.24  C 
ATOM     46 O    PRO C   7      -7.208   7.489  20.190  1.00 56.05 LIG-0.27  OA
ATOM     47  N   ARG C   8      -6.076   6.835  22.059  1.00 55.98 LIG-0.35  N 
ATOM     48 H    ARG C   8      -6.068   6.431  22.819  1.00 55.98 LIG 0.16  HD
BRANCH 47 49
ATOM     49  CA  ARG C   8      -4.822   7.507  21.741  1.00 59.84 LIG 0.16  C 
BRANCH 49 50
ATOM     50  C   ARG C   8      -3.718   6.536  21.333  1.00 63.97 LIG 0.22  C 
ATOM     51 O    ARG C   8      -4.055   5.347  21.126  1.00 69.17 LIG-0.29  OA
ENDBRANCH 49 50
BRANCH 49 52
ATOM     52  CB  ARG C   8      -4.357   8.359  22.928  1.00 59.33 LIG 0.04  C 
BRANCH 52 53
ATOM     53  CG  ARG C   8      -3.214   9.311  22.608  1.00 56.20 LIG 0.02  C 
BRANCH 53 54
ATOM     54  CD  ARG C   8      -3.296   9.856  21.200  1.00 50.77 LIG 0.14  C 
BRANCH 54 55
ATOM     55  NE  ARG C   8      -2.002  10.352  20.745  1.00 55.07 LIG-0.23  N 
ATOM     56  CZ  ARG C   8      -1.439  10.044  19.575  1.00 55.92 LIG 0.67  C 
ATOM     57  NH1 ARG C   8      -2.075   9.269  18.704  1.00 58.39 LIG-0.23  N 
ATOM     58  NH2 ARG C   8      -0.251  10.545  19.250  1.00 49.54 LIG-0.23  N 
ATOM     59 1HH1 ARG C   8      -2.856   8.962  18.893  1.00 58.39 LIG 0.17  HD
ATOM     60 2HH1 ARG C   8      -1.706   9.076  17.952  1.00 58.39 LIG 0.17  HD
ATOM     61 1HH2 ARG C   8       0.159  11.069  19.794  1.00 49.54 LIG 0.17  HD
ATOM     62 2HH2 ARG C   8       0.108  10.344  18.495  1.00 49.54 LIG 0.17  HD
ATOM     63 HE   ARG C   8      -1.570  10.880  21.269  1.00 55.07 LIG 0.18  HD
ENDBRANCH 54 55
ENDBRANCH 53 54
ENDBRANCH 52 53
ENDBRANCH 49 52
ENDBRANCH 47 49
ENDBRANCH 41 45
ENDBRANCH 4 38
TORSDOF 14
ENDMDL
MODEL 39
USER: ADFR SOLUTION from run 80
USER: SCORE 17.323561 LL:  -5.560 LR: -11.992 RR:   0.000 FEB:  -7.816
USER: RMSD 7.837404
USER: SEED 79
USER: STATUS no improvement in best in 6 clusters for 5 generations
USER: GENES 16
USER: genes 0 Translation |==|  0.22298 0.38731 0.48559
USER: genes 1 Rotation |==|  0.61441 0.70637 0.49391 0.94078
USER: genes 2 Torsion [N]-C--CA-[N] |==|  0.25216
USER: genes 3 Torsion [C]-CA--N-[C] |==|  0.74444
USER: genes 4 Torsion [N]-C--CA-[N] |==|  0.95279
USER: genes 5 Torsion [N]-C--CA-[CB] |==|  0.73028
USER: genes 6 Torsion [N]-C--CA-[N] |==|  0.47210
USER: genes 7 Torsion [C]-CA--CB-[CG2] |==|  0.77729
USER: genes 8 Torsion [N]-CA--C-[O] |==|  0.77125
USER: genes 9 Torsion [N]-CA--C-[O] |==|  0.41222
USER: genes 10 Torsion [C]-N--CA-[C] |==|  0.58855
USER: genes 11 Torsion [N]-CA--C-[O] |==|  0.24532
USER: genes 12 Torsion [N]-CA--CB-[CG] |==|  0.33756
USER: genes 13 Torsion [CA]-CB--CG-[CD] |==|  0.40934
USER: genes 14 Torsion [CB]-CG--CD-[NE] |==|  0.57503
USER: genes 15 Torsion [CG]-CD--NE-[CZ] |==|  0.47732
ROOT
ATOM      1  C   VAL C   5      -5.954   5.609  24.583  1.00 42.36 LIG 0.24  C 
ATOM      2 O    VAL C   5      -5.682   6.502  25.391  1.00 45.24 LIG-0.27  OA
ATOM      3  N   PRO C   6      -5.283   5.443  23.425  1.00 47.11 LIG-0.34  N 
ATOM      4  CA  PRO C   6      -4.141   6.241  22.959  1.00 46.93 LIG 0.18  C 
ATOM      5  CB  PRO C   6      -4.054   5.860  21.489  1.00 48.77 LIG 0.04  C 
ATOM      6  CG  PRO C   6      -4.482   4.436  21.500  1.00 47.44 LIG 0.02  C 
ATOM      7  CD  PRO C   6      -5.701   4.501  22.372  1.00 45.48 LIG 0.13  C 
ENDROOT
BRANCH 1 8
ATOM      8  CA  VAL C   5      -7.107   4.659  24.864  1.00 35.80 LIG 0.18  C 
BRANCH 8 9
ATOM      9  N   VAL C   5      -6.581   3.527  25.586  1.00 29.23 LIG-0.35  N 
ATOM     10 H    VAL C   5      -6.569   3.637  26.438  1.00 29.23 LIG 0.16  HD
ATOM     11  C   PRO C   4      -6.156   2.422  24.996  1.00 26.62 LIG 0.24  C 
ATOM     12 O    PRO C   4      -6.233   2.206  23.780  1.00 27.50 LIG-0.27  OA
BRANCH 11 13
ATOM     13  CA  PRO C   4      -5.644   1.367  25.944  1.00 24.57 LIG 0.18  C 
ATOM     14  N   PRO C   4      -5.393   2.032  27.212  1.00 25.19 LIG-0.34  N 
ATOM     15  C   PRO C   3      -4.417   2.955  27.328  1.00 26.73 LIG 0.24  C 
ATOM     16  CD  PRO C   4      -6.230   1.438  28.264  1.00 25.69 LIG 0.13  C 
ATOM     17 O    PRO C   3      -3.644   3.222  26.406  1.00 25.36 LIG-0.27  OA
ATOM     18  CG  PRO C   4      -6.475   0.062  27.713  1.00 24.59 LIG 0.02  C 
ATOM     19  CB  PRO C   4      -6.737   0.354  26.294  1.00 22.47 LIG 0.04  C 
BRANCH 15 20
ATOM     20  CA  PRO C   3      -4.232   3.606  28.696  1.00 28.16 LIG 0.18  C 
ATOM     21  N   PRO C   3      -2.833   3.964  28.942  1.00 24.30 LIG-0.34  N 
ATOM     22  CD  PRO C   3      -2.647   5.417  28.838  1.00 25.18 LIG 0.13  C 
ATOM     23  C   PRO C   2      -1.886   3.034  29.106  1.00 26.75 LIG 0.24  C 
ATOM     24  CG  PRO C   3      -3.961   5.883  28.206  1.00 22.51 LIG 0.02  C 
ATOM     25  CB  PRO C   3      -4.950   4.959  28.777  1.00 21.93 LIG 0.04  C 
ATOM     26 O    PRO C   2      -2.132   1.823  29.051  1.00 25.20 LIG-0.27  OA
BRANCH 23 27
ATOM     27  CA  PRO C   2      -0.470   3.524  29.364  1.00 29.29 LIG 0.18  C 
ATOM     28  N   PRO C   2       0.393   2.400  29.756  1.00 27.80 LIG-0.34  N 
ATOM     29  C   ACE C   1       0.273   1.772  30.942  1.00 31.50 LIG 0.22  C 
ATOM     30  CD  PRO C   2       1.414   2.144  28.727  1.00 33.03 LIG 0.13  C 
ATOM     31 O    ACE C   1      -0.522   2.154  31.799  1.00 38.95 LIG-0.27  OA
ATOM     32  CH3 ACE C   1       1.197   0.616  31.263  1.00 34.05 LIG 0.12  C 
ATOM     33  CG  PRO C   2       0.823   2.807  27.507  1.00 32.34 LIG 0.02  C 
ATOM     34  CB  PRO C   2       0.193   4.034  28.080  1.00 28.70 LIG 0.04  C 
ENDBRANCH 23 27
ENDBRANCH 15 20
ENDBRANCH 11 13
ENDBRANCH 8 9
BRANCH 8 35
ATOM     35  CB  VAL C   5      -8.174   5.344  25.709  1.00 35.33 LIG 0.01  C 
ATOM     36  CG2 VAL C   5      -7.740   5.336  27.181  1.00 35.45 LIG 0.01  C 
ATOM     37  CG1 VAL C   5      -9.501   4.677  25.526  1.00 28.19 LIG 0.01  C 
ENDBRANCH 8 35
ENDBRANCH 1 8
BRANCH 4 38
ATOM     38  C   PRO C   6      -4.331   7.751  23.138  1.00 48.62 LIG 0.24  C 
ATOM     39 O    PRO C   6      -4.973   8.400  22.302  1.00 45.97 LIG-0.27  OA
ATOM     40  N   PRO C   7      -3.759   8.324  24.223  1.00 50.57 LIG-0.34  N 
ATOM     41  CA  PRO C   7      -3.862   9.755  24.520  1.00 53.29 LIG 0.18  C 
ATOM     42  CD  PRO C   7      -2.849   7.670  25.187  1.00 52.97 LIG 0.13  C 
ATOM     43  CB  PRO C   7      -2.729   9.971  25.523  1.00 53.80 LIG 0.04  C 
ATOM     44  CG  PRO C   7      -2.743   8.695  26.303  1.00 51.48 LIG 0.02  C 
BRANCH 41 45
ATOM     45  C   PRO C   7      -3.666  10.576  23.256  1.00 55.55 LIG 0.24  C 
ATOM     46 O    PRO C   7      -4.250  11.663  23.116  1.00 56.05 LIG-0.27  OA
ATOM     47  N   ARG C   8      -2.758  10.089  22.408  1.00 55.98 LIG-0.35  N 
ATOM     48 H    ARG C   8      -2.318   9.365  22.555  1.00 55.98 LIG 0.16  HD
BRANCH 47 49
ATOM     49  CA  ARG C   8      -2.418  10.735  21.145  1.00 59.84 LIG 0.16  C 
BRANCH 49 50
ATOM     50  C   ARG C   8      -2.021   9.737  20.060  1.00 63.97 LIG 0.22  C 
ATOM     51 O    ARG C   8      -2.943   9.269  19.354  1.00 69.17 LIG-0.29  OA
ENDBRANCH 49 50
BRANCH 49 52
ATOM     52  CB  ARG C   8      -1.295  11.757  21.353  1.00 59.33 LIG 0.04  C 
BRANCH 52 53
ATOM     53  CG  ARG C   8      -0.049  11.499  20.519  1.00 56.20 LIG 0.02  C 
BRANCH 53 54
ATOM     54  CD  ARG C   8       0.649  12.779  20.117  1.00 50.77 LIG 0.14  C 
BRANCH 54 55
ATOM     55  NE  ARG C   8       1.397  12.610  18.876  1.00 55.07 LIG-0.23  N 
ATOM     56  CZ  ARG C   8       1.981  13.601  18.200  1.00 55.92 LIG 0.67  C 
ATOM     57  NH1 ARG C   8       1.946  14.844  18.662  1.00 58.39 LIG-0.23  N 
ATOM     58  NH2 ARG C   8       2.641  13.346  17.073  1.00 49.54 LIG-0.23  N 
ATOM     59 1HH1 ARG C   8       1.545  15.016  19.403  1.00 58.39 LIG 0.17  HD
ATOM     60 2HH1 ARG C   8       2.325  15.478  18.220  1.00 58.39 LIG 0.17  HD
ATOM     61 1HH2 ARG C   8       2.693  12.541  16.777  1.00 49.54 LIG 0.17  HD
ATOM     62 2HH2 ARG C   8       3.016  13.988  16.640  1.00 49.54 LIG 0.17  HD
ATOM     63 HE   ARG C   8       1.467  11.814  18.558  1.00 55.07 LIG 0.18  HD
ENDBRANCH 54 55
ENDBRANCH 53 54
ENDBRANCH 52 53
ENDBRANCH 49 52
ENDBRANCH 47 49
ENDBRANCH 41 45
ENDBRANCH 4 38
TORSDOF 14
ENDMDL
MODEL 40
USER: ADFR SOLUTION from run 57
USER: SCORE 16.377815 LL:  -4.543 LR: -11.954 RR:   0.000 FEB:  -7.778
USER: RMSD 8.195070
USER: SEED 56
USER: STATUS no improvement in best in 12 clusters for 5 generations
USER: GENES 16
USER: genes 0 Translation |==|  0.33415 0.52901 0.33440
USER: genes 1 Rotation |==|  0.30266 0.10967 0.60628 0.71772
USER: genes 2 Torsion [N]-C--CA-[N] |==|  0.86667
USER: genes 3 Torsion [C]-CA--N-[C] |==|  0.84938
USER: genes 4 Torsion [N]-C--CA-[N] |==|  0.57397
USER: genes 5 Torsion [N]-C--CA-[CB] |==|  0.73637
USER: genes 6 Torsion [N]-C--CA-[N] |==|  0.48921
USER: genes 7 Torsion [C]-CA--CB-[CG2] |==|  0.44367
USER: genes 8 Torsion [N]-CA--C-[O] |==|  0.96475
USER: genes 9 Torsion [N]-CA--C-[O] |==|  0.89692
USER: genes 10 Torsion [C]-N--CA-[C] |==|  0.77753
USER: genes 11 Torsion [N]-CA--C-[O] |==|  0.94963
USER: genes 12 Torsion [N]-CA--CB-[CG] |==|  0.38106
USER: genes 13 Torsion [CA]-CB--CG-[CD] |==|  0.47313
USER: genes 14 Torsion [CB]-CG--CD-[NE] |==|  0.28815
USER: genes 15 Torsion [CG]-CD--NE-[CZ] |==|  0.75267
ROOT
ATOM      1  C   VAL C   5      -3.536   8.797  21.522  1.00 42.36 LIG 0.24  C 
ATOM      2 O    VAL C   5      -3.181   9.292  20.447  1.00 45.24 LIG-0.27  OA
ATOM      3  N   PRO C   6      -4.051   9.532  22.528  1.00 47.11 LIG-0.34  N 
ATOM      4  CA  PRO C   6      -4.298  10.980  22.511  1.00 46.93 LIG 0.18  C 
ATOM      5  CB  PRO C   6      -4.514  11.293  23.984  1.00 48.77 LIG 0.04  C 
ATOM      6  CG  PRO C   6      -5.179  10.059  24.481  1.00 47.44 LIG 0.02  C 
ATOM      7  CD  PRO C   6      -4.316   8.993  23.874  1.00 45.48 LIG 0.13  C 
ENDROOT
BRANCH 1 8
ATOM      8  CA  VAL C   5      -3.371   7.305  21.760  1.00 35.80 LIG 0.18  C 
BRANCH 8 9
ATOM      9  N   VAL C   5      -2.726   7.131  23.038  1.00 29.23 LIG-0.35  N 
ATOM     10 H    VAL C   5      -3.158   6.615  23.574  1.00 29.23 LIG 0.16  HD
ATOM     11  C   PRO C   4      -1.581   7.708  23.359  1.00 26.62 LIG 0.24  C 
ATOM     12 O    PRO C   4      -0.902   8.391  22.583  1.00 27.50 LIG-0.27  OA
BRANCH 11 13
ATOM     13  CA  PRO C   4      -1.090   7.389  24.749  1.00 24.57 LIG 0.18  C 
ATOM     14  N   PRO C   4      -0.265   8.510  25.168  1.00 25.19 LIG-0.34  N 
ATOM     15  C   PRO C   3       0.906   8.775  24.554  1.00 26.73 LIG 0.24  C 
ATOM     16  CD  PRO C   4      -0.836   9.130  26.373  1.00 25.69 LIG 0.13  C 
ATOM     17 O    PRO C   3       1.373   8.049  23.675  1.00 25.36 LIG-0.27  OA
ATOM     18  CG  PRO C   4      -1.611   7.986  26.961  1.00 24.59 LIG 0.02  C 
ATOM     19  CB  PRO C   4      -2.237   7.404  25.763  1.00 22.47 LIG 0.04  C 
BRANCH 15 20
ATOM     20  CA  PRO C   3       1.700   9.977  25.057  1.00 28.16 LIG 0.18  C 
ATOM     21  N   PRO C   3       3.140   9.795  24.865  1.00 24.30 LIG-0.34  N 
ATOM     22  CD  PRO C   3       3.624  10.635  23.761  1.00 25.18 LIG 0.13  C 
ATOM     23  C   PRO C   2       3.832   8.879  25.551  1.00 26.75 LIG 0.24  C 
ATOM     24  CG  PRO C   3       2.326  11.101  23.097  1.00 22.51 LIG 0.02  C 
ATOM     25  CB  PRO C   3       1.402  11.235  24.230  1.00 21.93 LIG 0.04  C 
ATOM     26 O    PRO C   2       3.299   8.130  26.378  1.00 25.20 LIG-0.27  OA
BRANCH 23 27
ATOM     27  CA  PRO C   2       5.325   8.786  25.274  1.00 29.29 LIG 0.18  C 
ATOM     28  N   PRO C   2       5.947   7.802  26.171  1.00 27.80 LIG-0.34  N 
ATOM     29  C   ACE C   1       6.092   8.014  27.493  1.00 31.50 LIG 0.22  C 
ATOM     30  CD  PRO C   2       6.441   6.642  25.409  1.00 33.03 LIG 0.13  C 
ATOM     31 O    ACE C   1       5.775   9.081  28.016  1.00 38.95 LIG-0.27  OA
ATOM     32  CH3 ACE C   1       6.736   6.943  28.348  1.00 34.05 LIG 0.12  C 
ATOM     33  CG  PRO C   2       5.653   6.735  24.126  1.00 32.34 LIG 0.02  C 
ATOM     34  CB  PRO C   2       5.604   8.208  23.883  1.00 28.70 LIG 0.04  C 
ENDBRANCH 23 27
ENDBRANCH 15 20
ENDBRANCH 11 13
ENDBRANCH 8 9
BRANCH 8 35
ATOM     35  CB  VAL C   5      -4.728   6.611  21.781  1.00 35.33 LIG 0.01  C 
ATOM     36  CG2 VAL C   5      -4.537   5.112  21.514  1.00 35.45 LIG 0.01  C 
ATOM     37  CG1 VAL C   5      -5.654   7.231  20.782  1.00 28.19 LIG 0.01  C 
ENDBRANCH 8 35
ENDBRANCH 1 8
BRANCH 4 38
ATOM     38  C   PRO C   6      -3.141  11.795  21.927  1.00 48.62 LIG 0.24  C 
ATOM     39 O    PRO C   6      -2.037  11.264  21.743  1.00 45.97 LIG-0.27  OA
ATOM     40  N   PRO C   7      -3.377  13.099  21.647  1.00 50.57 LIG-0.34  N 
ATOM     41  CA  PRO C   7      -2.364  13.993  21.083  1.00 53.29 LIG 0.18  C 
ATOM     42  CD  PRO C   7      -4.602  13.860  21.974  1.00 52.97 LIG 0.13  C 
ATOM     43  CB  PRO C   7      -2.942  15.379  21.374  1.00 53.80 LIG 0.04  C 
ATOM     44  CG  PRO C   7      -4.410  15.156  21.205  1.00 51.48 LIG 0.02  C 
BRANCH 41 45
ATOM     45  C   PRO C   7      -1.026  13.780  21.770  1.00 55.55 LIG 0.24  C 
ATOM     46 O    PRO C   7      -0.976  13.540  22.987  1.00 56.05 LIG-0.27  OA
ATOM     47  N   ARG C   8       0.028  13.762  20.950  1.00 55.98 LIG-0.35  N 
ATOM     48 H    ARG C   8      -0.036  13.868  20.099  1.00 55.98 LIG 0.16  HD
BRANCH 47 49
ATOM     49  CA  ARG C   8       1.396  13.560  21.413  1.00 59.84 LIG 0.16  C 
BRANCH 49 50
ATOM     50  C   ARG C   8       2.018  14.830  21.988  1.00 63.97 LIG 0.22  C 
ATOM     51 O    ARG C   8       1.470  15.916  21.689  1.00 69.17 LIG-0.29  OA
ENDBRANCH 49 50
BRANCH 49 52
ATOM     52  CB  ARG C   8       2.270  13.018  20.277  1.00 59.33 LIG 0.04  C 
BRANCH 52 53
ATOM     53  CG  ARG C   8       3.646  13.660  20.180  1.00 56.20 LIG 0.02  C 
BRANCH 53 54
ATOM     54  CD  ARG C   8       4.550  12.938  19.205  1.00 50.77 LIG 0.14  C 
BRANCH 54 55
ATOM     55  NE  ARG C   8       4.673  13.673  17.951  1.00 55.07 LIG-0.23  N 
ATOM     56  CZ  ARG C   8       3.860  13.527  16.903  1.00 55.92 LIG 0.67  C 
ATOM     57  NH1 ARG C   8       2.825  12.698  16.963  1.00 58.39 LIG-0.23  N 
ATOM     58  NH2 ARG C   8       4.055  14.241  15.798  1.00 49.54 LIG-0.23  N 
ATOM     59 1HH1 ARG C   8       2.673  12.251  17.682  1.00 58.39 LIG 0.17  HD
ATOM     60 2HH1 ARG C   8       2.305  12.610  16.283  1.00 58.39 LIG 0.17  HD
ATOM     61 1HH2 ARG C   8       4.707  14.801  15.757  1.00 49.54 LIG 0.17  HD
ATOM     62 2HH2 ARG C   8       3.529  14.144  15.125  1.00 49.54 LIG 0.17  HD
ATOM     63 HE   ARG C   8       5.314  14.240  17.882  1.00 55.07 LIG 0.18  HD
ENDBRANCH 54 55
ENDBRANCH 53 54
ENDBRANCH 52 53
ENDBRANCH 49 52
ENDBRANCH 47 49
ENDBRANCH 41 45
ENDBRANCH 4 38
TORSDOF 14
ENDMDL
MODEL 41
USER: ADFR SOLUTION from run 74
USER: SCORE 17.122139 LL:  -5.491 LR: -11.949 RR:   0.000 FEB:  -7.773
USER: RMSD 6.864855
USER: SEED 73
USER: STATUS no improvement in best in 12 clusters for 5 generations
USER: GENES 16
USER: genes 0 Translation |==|  0.54897 0.46614 0.54986
USER: genes 1 Rotation |==|  0.74429 0.80144 0.28207 0.72796
USER: genes 2 Torsion [N]-C--CA-[N] |==|  0.28582
USER: genes 3 Torsion [C]-CA--N-[C] |==|  0.66364
USER: genes 4 Torsion [N]-C--CA-[N] |==|  0.23706
USER: genes 5 Torsion [N]-C--CA-[CB] |==|  0.61415
USER: genes 6 Torsion [N]-C--CA-[N] |==|  0.50052
USER: genes 7 Torsion [C]-CA--CB-[CG2] |==|  0.50490
USER: genes 8 Torsion [N]-CA--C-[O] |==|  0.35969
USER: genes 9 Torsion [N]-CA--C-[O] |==|  0.41804
USER: genes 10 Torsion [C]-N--CA-[C] |==|  0.77142
USER: genes 11 Torsion [N]-CA--C-[O] |==|  0.48466
USER: genes 12 Torsion [N]-CA--CB-[CG] |==|  0.64339
USER: genes 13 Torsion [CA]-CB--CG-[CD] |==|  0.70017
USER: genes 14 Torsion [CB]-CG--CD-[NE] |==|  0.28501
USER: genes 15 Torsion [CG]-CD--NE-[CZ] |==|  0.67656
ROOT
ATOM      1  C   VAL C   5       1.136   7.382  25.885  1.00 42.36 LIG 0.24  C 
ATOM      2 O    VAL C   5       2.357   7.232  25.991  1.00 45.24 LIG-0.27  OA
ATOM      3  N   PRO C   6       0.534   7.645  24.707  1.00 47.11 LIG-0.34  N 
ATOM      4  CA  PRO C   6       1.193   7.761  23.399  1.00 46.93 LIG 0.18  C 
ATOM      5  CB  PRO C   6       0.116   8.416  22.547  1.00 48.77 LIG 0.04  C 
ATOM      6  CG  PRO C   6      -1.135   7.843  23.113  1.00 47.44 LIG 0.02  C 
ATOM      7  CD  PRO C   6      -0.891   7.999  24.585  1.00 45.48 LIG 0.13  C 
ENDROOT
BRANCH 1 8
ATOM      8  CA  VAL C   5       0.252   7.302  27.118  1.00 35.80 LIG 0.18  C 
BRANCH 8 9
ATOM      9  N   VAL C   5       0.072   5.909  27.443  1.00 29.23 LIG-0.35  N 
ATOM     10 H    VAL C   5       0.809   5.493  27.597  1.00 29.23 LIG 0.16  HD
ATOM     11  C   PRO C   4      -1.112   5.323  27.500  1.00 26.62 LIG 0.24  C 
ATOM     12 O    PRO C   4      -2.191   5.914  27.360  1.00 27.50 LIG-0.27  OA
BRANCH 11 13
ATOM     13  CA  PRO C   4      -1.066   3.859  27.856  1.00 24.57 LIG 0.18  C 
ATOM     14  N   PRO C   4      -1.037   3.783  29.307  1.00 25.19 LIG-0.34  N 
ATOM     15  C   PRO C   3       0.027   4.234  30.003  1.00 26.73 LIG 0.24  C 
ATOM     16  CD  PRO C   4      -2.212   3.048  29.796  1.00 25.69 LIG 0.13  C 
ATOM     17 O    PRO C   3       1.049   4.651  29.454  1.00 25.36 LIG-0.27  OA
ATOM     18  CG  PRO C   4      -2.553   2.200  28.604  1.00 24.59 LIG 0.02  C 
ATOM     19  CB  PRO C   4      -2.379   3.156  27.499  1.00 22.47 LIG 0.04  C 
BRANCH 15 20
ATOM     20  CA  PRO C   3      -0.034   4.120  31.523  1.00 28.16 LIG 0.18  C 
ATOM     21  N   PRO C   3       0.841   3.058  32.023  1.00 24.30 LIG-0.34  N 
ATOM     22  CD  PRO C   3       2.032   3.631  32.666  1.00 25.18 LIG 0.13  C 
ATOM     23  C   PRO C   2       0.592   1.767  31.781  1.00 26.75 LIG 0.24  C 
ATOM     24  CG  PRO C   3       1.969   5.101  32.245  1.00 22.51 LIG 0.02  C 
ATOM     25  CB  PRO C   3       0.527   5.375  32.205  1.00 21.93 LIG 0.04  C 
ATOM     26 O    PRO C   2      -0.382   1.394  31.117  1.00 25.20 LIG-0.27  OA
BRANCH 23 27
ATOM     27  CA  PRO C   2       1.566   0.752  32.359  1.00 29.29 LIG 0.18  C 
ATOM     28  N   PRO C   2       1.152  -0.612  31.999  1.00 27.80 LIG-0.34  N 
ATOM     29  C   ACE C   1       0.056  -1.199  32.519  1.00 31.50 LIG 0.22  C 
ATOM     30  CD  PRO C   2       2.130  -1.231  31.090  1.00 33.03 LIG 0.13  C 
ATOM     31 O    ACE C   1      -0.622  -0.650  33.386  1.00 38.95 LIG-0.27  OA
ATOM     32  CH3 ACE C   1      -0.305  -2.605  32.087  1.00 34.05 LIG 0.12  C 
ATOM     33  CG  PRO C   2       2.859  -0.033  30.531  1.00 32.34 LIG 0.02  C 
ATOM     34  CB  PRO C   2       2.951   0.871  31.716  1.00 28.70 LIG 0.04  C 
ENDBRANCH 23 27
ENDBRANCH 15 20
ENDBRANCH 11 13
ENDBRANCH 8 9
BRANCH 8 35
ATOM     35  CB  VAL C   5       0.908   8.014  28.296  1.00 35.33 LIG 0.01  C 
ATOM     36  CG2 VAL C   5       0.012   7.878  29.535  1.00 35.45 LIG 0.01  C 
ATOM     37  CG1 VAL C   5       1.170   9.450  27.965  1.00 28.19 LIG 0.01  C 
ENDBRANCH 8 35
ENDBRANCH 1 8
BRANCH 4 38
ATOM     38  C   PRO C   6       2.474   8.600  23.427  1.00 48.62 LIG 0.24  C 
ATOM     39 O    PRO C   6       3.519   8.156  22.933  1.00 45.97 LIG-0.27  OA
ATOM     40  N   PRO C   7       2.408   9.815  24.022  1.00 50.57 LIG-0.34  N 
ATOM     41  CA  PRO C   7       3.554  10.722  24.119  1.00 53.29 LIG 0.18  C 
ATOM     42  CD  PRO C   7       1.259  10.364  24.774  1.00 52.97 LIG 0.13  C 
ATOM     43  CB  PRO C   7       3.120  11.692  25.219  1.00 53.80 LIG 0.04  C 
ATOM     44  CG  PRO C   7       1.650  11.819  24.974  1.00 51.48 LIG 0.02  C 
BRANCH 41 45
ATOM     45  C   PRO C   7       4.808   9.955  24.500  1.00 55.55 LIG 0.24  C 
ATOM     46 O    PRO C   7       5.924  10.350  24.125  1.00 56.05 LIG-0.27  OA
ATOM     47  N   ARG C   8       4.608   8.932  25.333  1.00 55.98 LIG-0.35  N 
ATOM     48 H    ARG C   8       3.831   8.713  25.631  1.00 55.98 LIG 0.16  HD
BRANCH 47 49
ATOM     49  CA  ARG C   8       5.684   8.079  25.824  1.00 59.84 LIG 0.16  C 
BRANCH 49 50
ATOM     50  C   ARG C   8       6.066   6.982  24.834  1.00 63.97 LIG 0.22  C 
ATOM     51 O    ARG C   8       7.054   6.270  25.129  1.00 69.17 LIG-0.29  OA
ENDBRANCH 49 50
BRANCH 49 52
ATOM     52  CB  ARG C   8       5.301   7.458  27.172  1.00 59.33 LIG 0.04  C 
BRANCH 52 53
ATOM     53  CG  ARG C   8       6.339   7.646  28.268  1.00 56.20 LIG 0.02  C 
BRANCH 53 54
ATOM     54  CD  ARG C   8       7.065   6.360  28.598  1.00 50.77 LIG 0.14  C 
BRANCH 54 55
ATOM     55  NE  ARG C   8       8.397   6.334  28.003  1.00 55.07 LIG-0.23  N 
ATOM     56  CZ  ARG C   8       8.797   5.461  27.077  1.00 55.92 LIG 0.67  C 
ATOM     57  NH1 ARG C   8       7.955   4.555  26.595  1.00 58.39 LIG-0.23  N 
ATOM     58  NH2 ARG C   8      10.036   5.515  26.595  1.00 49.54 LIG-0.23  N 
ATOM     59 1HH1 ARG C   8       7.144   4.528  26.880  1.00 58.39 LIG 0.17  HD
ATOM     60 2HH1 ARG C   8       8.221   3.996  25.998  1.00 58.39 LIG 0.17  HD
ATOM     61 1HH2 ARG C   8      10.583   6.114  26.880  1.00 49.54 LIG 0.17  HD
ATOM     62 2HH2 ARG C   8      10.290   4.951  25.998  1.00 49.54 LIG 0.17  HD
ATOM     63 HE   ARG C   8       8.964   6.923  28.268  1.00 55.07 LIG 0.18  HD
ENDBRANCH 54 55
ENDBRANCH 53 54
ENDBRANCH 52 53
ENDBRANCH 49 52
ENDBRANCH 47 49
ENDBRANCH 41 45
ENDBRANCH 4 38
TORSDOF 14
ENDMDL
MODEL 42
USER: ADFR SOLUTION from run 82
USER: SCORE 16.739886 LL:  -4.937 LR: -11.939 RR:   0.000 FEB:  -7.763
USER: RMSD 5.569653
USER: SEED 81
USER: STATUS no improvement in best in 7 clusters for 5 generations
USER: GENES 16
USER: genes 0 Translation |==|  0.60976 0.55634 0.49198
USER: genes 1 Rotation |==|  0.48527 0.46079 0.51276 0.99808
USER: genes 2 Torsion [N]-C--CA-[N] |==|  0.39181
USER: genes 3 Torsion [C]-CA--N-[C] |==|  0.69510
USER: genes 4 Torsion [N]-C--CA-[N] |==|  0.22357
USER: genes 5 Torsion [N]-C--CA-[CB] |==|  0.71057
USER: genes 6 Torsion [N]-C--CA-[N] |==|  0.29143
USER: genes 7 Torsion [C]-CA--CB-[CG2] |==|  0.83749
USER: genes 8 Torsion [N]-CA--C-[O] |==|  0.92963
USER: genes 9 Torsion [N]-CA--C-[O] |==|  0.88110
USER: genes 10 Torsion [C]-N--CA-[C] |==|  0.56923
USER: genes 11 Torsion [N]-CA--C-[O] |==|  0.82710
USER: genes 12 Torsion [N]-CA--CB-[CG] |==|  0.57361
USER: genes 13 Torsion [CA]-CB--CG-[CD] |==|  0.70576
USER: genes 14 Torsion [CB]-CG--CD-[NE] |==|  0.86089
USER: genes 15 Torsion [CG]-CD--NE-[CZ] |==|  0.27974
ROOT
ATOM      1  C   VAL C   5       2.458   9.412  24.713  1.00 42.36 LIG 0.24  C 
ATOM      2 O    VAL C   5       2.101  10.584  24.869  1.00 45.24 LIG-0.27  OA
ATOM      3  N   PRO C   6       3.740   9.016  24.849  1.00 47.11 LIG-0.34  N 
ATOM      4  CA  PRO C   6       4.879   9.866  25.224  1.00 46.93 LIG 0.18  C 
ATOM      5  CB  PRO C   6       6.071   8.995  24.859  1.00 48.77 LIG 0.04  C 
ATOM      6  CG  PRO C   6       5.568   7.624  25.145  1.00 47.44 LIG 0.02  C 
ATOM      7  CD  PRO C   6       4.215   7.666  24.497  1.00 45.48 LIG 0.13  C 
ENDROOT
BRANCH 1 8
ATOM      8  CA  VAL C   5       1.440   8.355  24.320  1.00 35.80 LIG 0.18  C 
BRANCH 8 9
ATOM      9  N   VAL C   5       0.229   8.611  25.060  1.00 29.23 LIG-0.35  N 
ATOM     10 H    VAL C   5      -0.187   9.320  24.806  1.00 29.23 LIG 0.16  HD
ATOM     11  C   PRO C   4      -0.204   7.834  26.038  1.00 26.62 LIG 0.24  C 
ATOM     12 O    PRO C   4       0.332   6.770  26.373  1.00 27.50 LIG-0.27  OA
BRANCH 11 13
ATOM     13  CA  PRO C   4      -1.490   8.292  26.676  1.00 24.57 LIG 0.18  C 
ATOM     14  N   PRO C   4      -2.568   7.857  25.803  1.00 25.19 LIG-0.34  N 
ATOM     15  C   PRO C   3      -2.711   8.378  24.568  1.00 26.73 LIG 0.24  C 
ATOM     16  CD  PRO C   4      -3.463   6.944  26.528  1.00 25.69 LIG 0.13  C 
ATOM     17 O    PRO C   3      -2.002   9.294  24.149  1.00 25.36 LIG-0.27  OA
ATOM     18  CG  PRO C   4      -3.232   7.364  27.952  1.00 24.59 LIG 0.02  C 
ATOM     19  CB  PRO C   4      -1.770   7.535  27.977  1.00 22.47 LIG 0.04  C 
BRANCH 15 20
ATOM     20  CA  PRO C   3      -3.867   7.854  23.720  1.00 28.16 LIG 0.18  C 
ATOM     21  N   PRO C   3      -4.498   8.923  22.943  1.00 24.30 LIG-0.34  N 
ATOM     22  CD  PRO C   3      -4.132   8.813  21.524  1.00 25.18 LIG 0.13  C 
ATOM     23  C   PRO C   2      -5.194   9.903  23.528  1.00 26.75 LIG 0.24  C 
ATOM     24  CG  PRO C   3      -2.990   7.794  21.546  1.00 22.51 LIG 0.02  C 
ATOM     25  CB  PRO C   3      -3.375   6.887  22.635  1.00 21.93 LIG 0.04  C 
ATOM     26 O    PRO C   2      -5.339   9.970  24.754  1.00 25.20 LIG-0.27  OA
BRANCH 23 27
ATOM     27  CA  PRO C   2      -5.812  10.953  22.619  1.00 29.29 LIG 0.18  C 
ATOM     28  N   PRO C   2      -7.262  10.738  22.506  1.00 27.80 LIG-0.34  N 
ATOM     29  C   ACE C   1      -7.791   9.691  21.843  1.00 31.50 LIG 0.22  C 
ATOM     30  CD  PRO C   2      -8.004  11.846  23.130  1.00 33.03 LIG 0.13  C 
ATOM     31 O    ACE C   1      -7.087   8.891  21.229  1.00 38.95 LIG-0.27  OA
ATOM     32  CH3 ACE C   1      -9.297   9.537  21.783  1.00 34.05 LIG 0.12  C 
ATOM     33  CG  PRO C   2      -6.970  12.457  24.044  1.00 32.34 LIG 0.02  C 
ATOM     34  CB  PRO C   2      -5.720  12.354  23.233  1.00 28.70 LIG 0.04  C 
ENDBRANCH 23 27
ENDBRANCH 15 20
ENDBRANCH 11 13
ENDBRANCH 8 9
BRANCH 8 35
ATOM     35  CB  VAL C   5       1.142   8.424  22.827  1.00 35.33 LIG 0.01  C 
ATOM     36  CG2 VAL C   5       0.614   9.822  22.478  1.00 35.45 LIG 0.01  C 
ATOM     37  CG1 VAL C   5       0.168   7.358  22.433  1.00 28.19 LIG 0.01  C 
ENDBRANCH 8 35
ENDBRANCH 1 8
BRANCH 4 38
ATOM     38  C   PRO C   6       4.916  11.206  24.484  1.00 48.62 LIG 0.24  C 
ATOM     39 O    PRO C   6       4.373  11.320  23.377  1.00 45.97 LIG-0.27  OA
ATOM     40  N   PRO C   7       5.572  12.229  25.082  1.00 50.57 LIG-0.34  N 
ATOM     41  CA  PRO C   7       5.683  13.564  24.490  1.00 53.29 LIG 0.18  C 
ATOM     42  CD  PRO C   7       6.379  12.152  26.318  1.00 52.97 LIG 0.13  C 
ATOM     43  CB  PRO C   7       6.841  14.182  25.275  1.00 53.80 LIG 0.04  C 
ATOM     44  CG  PRO C   7       6.641  13.613  26.644  1.00 51.48 LIG 0.02  C 
BRANCH 41 45
ATOM     45  C   PRO C   7       5.993  13.464  23.006  1.00 55.55 LIG 0.24  C 
ATOM     46 O    PRO C   7       6.829  12.644  22.594  1.00 56.05 LIG-0.27  OA
ATOM     47  N   ARG C   8       5.227  14.225  22.221  1.00 55.98 LIG-0.35  N 
ATOM     48 H    ARG C   8       4.609  14.741  22.525  1.00 55.98 LIG 0.16  HD
BRANCH 47 49
ATOM     49  CA  ARG C   8       5.360  14.263  20.770  1.00 59.84 LIG 0.16  C 
BRANCH 49 50
ATOM     50  C   ARG C   8       4.855  15.569  20.164  1.00 63.97 LIG 0.22  C 
ATOM     51 O    ARG C   8       3.641  15.836  20.321  1.00 69.17 LIG-0.29  OA
ENDBRANCH 49 50
BRANCH 49 52
ATOM     52  CB  ARG C   8       4.629  13.075  20.135  1.00 59.33 LIG 0.04  C 
BRANCH 52 53
ATOM     53  CG  ARG C   8       5.186  12.641  18.788  1.00 56.20 LIG 0.02  C 
BRANCH 53 54
ATOM     54  CD  ARG C   8       4.291  13.048  17.638  1.00 50.77 LIG 0.14  C 
BRANCH 54 55
ATOM     55  NE  ARG C   8       2.907  12.653  17.875  1.00 55.07 LIG-0.23  N 
ATOM     56  CZ  ARG C   8       1.945  13.474  18.301  1.00 55.92 LIG 0.67  C 
ATOM     57  NH1 ARG C   8       2.197  14.762  18.500  1.00 58.39 LIG-0.23  N 
ATOM     58  NH2 ARG C   8       0.710  13.019  18.491  1.00 49.54 LIG-0.23  N 
ATOM     59 1HH1 ARG C   8       2.986  15.073  18.354  1.00 58.39 LIG 0.17  HD
ATOM     60 2HH1 ARG C   8       1.572  15.285  18.774  1.00 58.39 LIG 0.17  HD
ATOM     61 1HH2 ARG C   8       0.528  12.192  18.341  1.00 49.54 LIG 0.17  HD
ATOM     62 2HH2 ARG C   8       0.093  13.551  18.766  1.00 49.54 LIG 0.17  HD
ATOM     63 HE   ARG C   8       2.696  11.833  17.731  1.00 55.07 LIG 0.18  HD
ENDBRANCH 54 55
ENDBRANCH 53 54
ENDBRANCH 52 53
ENDBRANCH 49 52
ENDBRANCH 47 49
ENDBRANCH 41 45
ENDBRANCH 4 38
TORSDOF 14
ENDMDL
