MODEL 1
USER: ADFR SOLUTION from run 81
USER: SCORE 19.510691 LL:  -3.876 LR: -16.279 RR:   0.000 FEB:  -9.716
USER: RMSD 4.692337
USER: SEED 80
USER: STATUS searching
USER: GENES 24
USER: genes 0 Translation |==|  0.56167 0.34220 0.70755
USER: genes 1 Rotation |==|  0.60834 0.77160 0.56980 0.89953
USER: genes 2 Torsion [C]-CA--N-[C] |==|  0.76667
USER: genes 3 Torsion [N]-C--CA-[N] |==|  0.77922
USER: genes 4 Torsion [N]-C--CA-[N] |==|  0.50909
USER: genes 5 Torsion [C]-CA--CB-[CG] |==|  0.37548
USER: genes 6 Torsion [CA]-CB--CG-[CD2] |==|  0.96627
USER: genes 7 Torsion [C]-CA--N-[C] |==|  0.66028
USER: genes 8 Torsion [N]-C--CA-[N] |==|  0.43568
USER: genes 9 Torsion [C]-CA--CB-[SG] |==|  0.55749
USER: genes 10 Torsion [CA]-CB--SG-[HG] |==|  0.17316
USER: genes 11 Torsion [C]-CA--N-[C] |==|  0.80682
USER: genes 12 Torsion [N]-CA--CB-[CG] |==|  0.84569
USER: genes 13 Torsion [CA]-CB--CG-[CD] |==|  0.21580
USER: genes 14 Torsion [CB]-CG--CD-[NE2] |==|  0.58627
USER: genes 15 Torsion [N]-CA--C-[N] |==|  0.27708
USER: genes 16 Torsion [C]-N--CA-[C] |==|  0.83370
USER: genes 17 Torsion [N]-CA--CB-[CG] |==|  0.19468
USER: genes 18 Torsion [CA]-CB--CG-[ND2] |==|  0.73603
USER: genes 19 Torsion [N]-CA--C-[N] |==|  0.38797
USER: genes 20 Torsion [C]-N--CA-[C] |==|  0.83744
USER: genes 21 Torsion [N]-CA--C-[N] |==|  0.36320
USER: genes 22 Torsion [N]-CA--CB-[OG1] |==|  0.75115
USER: genes 23 Torsion [CA]-CB--OG1-[HG1] |==|  0.81615
ROOT
ATOM      1  CA  GLN M   4      37.051  11.028  -6.271  1.00 40.00 LIG 0.18  C 
ENDROOT
BRANCH 1 2
ATOM      2  N   GLN M   4      35.803  11.659  -5.972  1.00 41.31 LIG-0.35  N 
ATOM      3 H    GLN M   4      35.106  11.159  -6.026  1.00 41.31 LIG 0.16  HD
ATOM      4  C   PRO M   3      35.810  12.949  -5.638  1.00 42.91 LIG 0.24  C 
ATOM      5 O    PRO M   3      36.871  13.605  -5.552  1.00 42.50 LIG-0.27  OA
BRANCH 4 6
ATOM      6  CA  PRO M   3      34.449  13.579  -5.321  1.00 43.35 LIG 0.18  C 
ATOM      7  N   PRO M   3      33.614  13.963  -6.448  1.00 44.79 LIG-0.34  N 
ATOM      8  C   HIS M   2      33.854  15.028  -7.262  1.00 46.46 LIG 0.24  C 
ATOM      9  CD  PRO M   3      32.364  13.176  -6.411  1.00 43.94 LIG 0.13  C 
ATOM     10 O    HIS M   2      34.865  15.746  -7.200  1.00 45.68 LIG-0.27  OA
ATOM     11  CG  PRO M   3      32.731  11.979  -5.585  1.00 40.61 LIG 0.02  C 
ATOM     12  CB  PRO M   3      33.503  12.688  -4.532  1.00 40.36 LIG 0.04  C 
BRANCH 8 13
ATOM     13  CA  HIS M   2      32.808  15.316  -8.315  1.00 46.79 LIG 0.18  C 
BRANCH 13 14
ATOM     14  CB  HIS M   2      32.557  14.026  -9.167  1.00 44.05 LIG 0.10  C 
BRANCH 14 15
ATOM     15  CG  HIS M   2      31.062  13.776  -9.387  1.00 42.32 LIG 0.06  A 
ATOM     16  CD2 HIS M   2      30.049  14.422  -8.722  1.00 41.49 LIG 0.14  A 
ATOM     17 NE2  HIS M   2      29.000  13.723  -9.056  1.00 41.41 LIG-0.25  NA
ATOM     18  CE1 HIS M   2      29.344  12.734  -9.867  1.00 41.50 LIG 0.23  A 
ATOM     19 ND1  HIS M   2      30.637  12.740 -10.100  1.00 40.17 LIG-0.24  NA
ENDBRANCH 14 15
ENDBRANCH 13 14
BRANCH 13 20
ATOM     20  N   HIS M   2      33.261  16.431  -9.138  1.00 53.14 LIG-0.35  N 
ATOM     21 H    HIS M   2      34.019  16.298  -9.520  1.00 53.14 LIG 0.16  HD
ATOM     22  C   CYS M   1      32.551  17.555  -9.278  0.42 52.47 LIG 0.24  C 
ATOM     23 O    CYS M   1      31.485  17.769  -8.691  0.42 50.41 LIG-0.27  OA
BRANCH 22 24
ATOM     24  CA  CYS M   1      33.187  18.567 -10.231  0.42 53.64 LIG 0.18  C 
BRANCH 24 25
ATOM     25  CB  CYS M   1      34.261  19.346  -9.508  0.42 54.18 LIG 0.10  C 
BRANCH 25 26
ATOM     26 SG   CYS M   1      34.519  20.869 -10.440  0.42 57.26 LIG-0.18  SA
ATOM     27 HG   CYS M   1      33.508  21.515 -10.441  0.42 57.26 LIG 0.10  HD
ENDBRANCH 25 26
ENDBRANCH 24 25
BRANCH 24 28
ATOM     28  N   CYS M   1      32.193  19.482 -10.772  0.42 53.99 LIG-0.38  N 
ATOM     29  C   ACE M   0      31.260  19.087 -11.640  0.42 54.55 LIG 0.04  C 
ATOM     30  CH3 ACE M   0      30.219  20.070 -12.159  0.42 54.45 LIG 0.05  C 
ATOM     31 H    CYS M   1      32.264  20.289 -10.483  0.42 53.99 LIG 0.16  HD
ENDBRANCH 24 28
ENDBRANCH 22 24
ENDBRANCH 13 20
ENDBRANCH 8 13
ENDBRANCH 4 6
ENDBRANCH 1 2
BRANCH 1 32
ATOM     32  CB  GLN M   4      36.945   9.535  -6.031  1.00 35.03 LIG 0.04  C 
BRANCH 32 33
ATOM     33  CG  GLN M   4      36.480   9.300  -4.591  1.00 28.64 LIG 0.10  C 
BRANCH 33 34
ATOM     34  CD  GLN M   4      34.995   9.524  -4.390  1.00 28.38 LIG 0.21  C 
ATOM     35  NE2 GLN M   4      34.664   9.967  -3.175  1.00 21.52 LIG-0.37  N 
ATOM     36 22HE GLN M   4      33.839  10.112  -2.980  1.00 21.52 LIG 0.16  HD
ATOM     37 21HE GLN M   4      35.276  10.107  -2.587  1.00 21.52 LIG 0.16  HD
ATOM     38 OE1  GLN M   4      34.172   9.296  -5.301  1.00 23.11 LIG-0.27  OA
ENDBRANCH 33 34
ENDBRANCH 32 33
ENDBRANCH 1 32
BRANCH 1 39
ATOM     39  C   GLN M   4      37.396  11.301  -7.723  1.00 43.11 LIG 0.24  C 
ATOM     40  N   ASN M   5      38.267  12.276  -7.917  1.00 48.15 LIG-0.35  N 
ATOM     41 H    ASN M   5      38.664  12.717  -7.295  1.00 48.15 LIG 0.16  HD
ATOM     42 O    GLN M   4      36.947  10.622  -8.649  1.00 42.77 LIG-0.27  OA
BRANCH 40 43
ATOM     43  CA  ASN M   5      38.607  12.661  -9.273  1.00 54.08 LIG 0.18  C 
BRANCH 43 44
ATOM     44  CB  ASN M   5      39.596  13.867  -9.190  1.00 57.18 LIG 0.14  C 
BRANCH 44 45
ATOM     45  CG  ASN M   5      41.033  13.582  -8.666  1.00 60.38 LIG 0.22  C 
ATOM     46  ND2 ASN M   5      41.389  13.750  -7.391  1.00 60.67 LIG-0.37  N 
ATOM     47 22HD ASN M   5      40.816  14.043  -6.820  1.00 60.67 LIG 0.16  HD
ATOM     48 21HD ASN M   5      42.190  13.565  -7.141  1.00 60.67 LIG 0.16  HD
ATOM     49 OD1  ASN M   5      41.932  13.157  -9.398  1.00 60.50 LIG-0.27  OA
ENDBRANCH 44 45
ENDBRANCH 43 44
BRANCH 43 50
ATOM     50  C   ASN M   5      39.197  11.465  -9.992  1.00 53.60 LIG 0.24  C 
ATOM     51 O    ASN M   5      39.908  10.688  -9.355  1.00 54.31 LIG-0.27  OA
ATOM     52  N   THR M   6      38.871  11.233 -11.257  0.00 53.23 LIG-0.34  N 
ATOM     53 H    THR M   6      38.329  11.716 -11.718  0.00 53.23 LIG 0.16  HD
BRANCH 52 54
ATOM     54  CA  THR M   6      39.435  10.104 -11.963  0.00 52.61 LIG 0.21  C 
BRANCH 54 55
ATOM     55  C   THR M   6      40.961  10.217 -11.965  0.00 52.44 LIG 0.29  C 
ATOM     56  N   NH2 M   7      41.647   9.143 -11.598  0.00 52.35 LIG-0.11  N 
ATOM     57 O    THR M   6      41.555  11.263 -12.223  0.00 52.24 LIG-0.27  OA
ENDBRANCH 54 55
BRANCH 54 58
ATOM     58  CB  THR M   6      38.799  10.085 -13.389  0.00 52.38 LIG 0.15  C 
ATOM     59  CG2 THR M   6      39.693   9.554 -14.508  0.00 52.30 LIG 0.04  C 
BRANCH 58 60
ATOM     60 OG1  THR M   6      37.631   9.288 -13.239  0.00 52.26 LIG-0.39  OA
ATOM     61 HG1  THR M   6      37.853   8.497 -13.063  0.00 52.26 LIG 0.21  HD
ENDBRANCH 58 60
ENDBRANCH 54 58
ENDBRANCH 52 54
ENDBRANCH 43 50
ENDBRANCH 40 43
ENDBRANCH 1 39
TORSDOF 22
ENDMDL
MODEL 2
USER: ADFR SOLUTION from run 24
USER: SCORE 18.355305 LL:  -4.126 LR: -15.920 RR:   0.000 FEB:  -9.357
USER: RMSD 8.534472
USER: SEED 23
USER: STATUS no improvement in best in 7 clusters for 5 generations
USER: GENES 24
USER: genes 0 Translation |==|  0.43343 0.56583 0.68175
USER: genes 1 Rotation |==|  0.33772 0.67046 0.93123 0.59301
USER: genes 2 Torsion [C]-CA--N-[C] |==|  0.68941
USER: genes 3 Torsion [N]-C--CA-[N] |==|  0.07116
USER: genes 4 Torsion [N]-C--CA-[N] |==|  0.48880
USER: genes 5 Torsion [C]-CA--CB-[CG] |==|  0.73196
USER: genes 6 Torsion [CA]-CB--CG-[CD2] |==|  0.65282
USER: genes 7 Torsion [C]-CA--N-[C] |==|  0.60543
USER: genes 8 Torsion [N]-C--CA-[N] |==|  0.52216
USER: genes 9 Torsion [C]-CA--CB-[SG] |==|  0.66415
USER: genes 10 Torsion [CA]-CB--SG-[HG] |==|  0.16145
USER: genes 11 Torsion [C]-CA--N-[C] |==|  0.71833
USER: genes 12 Torsion [N]-CA--CB-[CG] |==|  0.40872
USER: genes 13 Torsion [CA]-CB--CG-[CD] |==|  0.39351
USER: genes 14 Torsion [CB]-CG--CD-[NE2] |==|  0.41384
USER: genes 15 Torsion [N]-CA--C-[N] |==|  0.35536
USER: genes 16 Torsion [C]-N--CA-[C] |==|  0.72139
USER: genes 17 Torsion [N]-CA--CB-[CG] |==|  0.86004
USER: genes 18 Torsion [CA]-CB--CG-[ND2] |==|  0.08133
USER: genes 19 Torsion [N]-CA--C-[N] |==|  0.46007
USER: genes 20 Torsion [C]-N--CA-[C] |==|  0.72222
USER: genes 21 Torsion [N]-CA--C-[N] |==|  0.73876
USER: genes 22 Torsion [N]-CA--CB-[OG1] |==|  0.03047
USER: genes 23 Torsion [CA]-CB--OG1-[HG1] |==|  0.66256
ROOT
ATOM      1  CA  GLN M   4      34.358  14.886  -6.852  1.00 40.00 LIG 0.18  C 
ENDROOT
BRANCH 1 2
ATOM      2  N   GLN M   4      34.802  13.527  -6.909  1.00 41.31 LIG-0.35  N 
ATOM      3 H    GLN M   4      35.441  13.363  -7.461  1.00 41.31 LIG 0.16  HD
ATOM      4  C   PRO M   3      34.206  12.632  -6.122  1.00 42.91 LIG 0.24  C 
ATOM      5 O    PRO M   3      33.300  12.953  -5.322  1.00 42.50 LIG-0.27  OA
BRANCH 4 6
ATOM      6  CA  PRO M   3      34.721  11.192  -6.216  1.00 43.35 LIG 0.18  C 
ATOM      7  N   PRO M   3      36.094  11.002  -6.659  1.00 44.79 LIG-0.34  N 
ATOM      8  C   HIS M   2      36.526  11.180  -7.938  1.00 46.46 LIG 0.24  C 
ATOM      9  CD  PRO M   3      36.865  10.362  -5.574  1.00 43.94 LIG 0.13  C 
ATOM     10 O    HIS M   2      35.822  11.617  -8.863  1.00 45.68 LIG-0.27  OA
ATOM     11  CG  PRO M   3      36.070  10.686  -4.343  1.00 40.61 LIG 0.02  C 
ATOM     12  CB  PRO M   3      34.718  10.426  -4.902  1.00 40.36 LIG 0.04  C 
BRANCH 8 13
ATOM     13  CA  HIS M   2      37.971  10.833  -8.211  1.00 46.79 LIG 0.18  C 
BRANCH 13 14
ATOM     14  CB  HIS M   2      38.900  11.746  -7.343  1.00 44.05 LIG 0.10  C 
BRANCH 14 15
ATOM     15  CG  HIS M   2      39.398  12.960  -8.134  1.00 42.32 LIG 0.06  A 
ATOM     16  CD2 HIS M   2      40.717  13.303  -8.301  1.00 41.49 LIG 0.14  A 
ATOM     17 NE2  HIS M   2      40.636  14.500  -8.814  1.00 41.41 LIG-0.25  NA
ATOM     18  CE1 HIS M   2      39.367  14.855  -8.956  1.00 41.50 LIG 0.23  A 
ATOM     19 ND1  HIS M   2      38.560  13.906  -8.540  1.00 40.17 LIG-0.24  NA
ENDBRANCH 14 15
ENDBRANCH 13 14
BRANCH 13 20
ATOM     20  N   HIS M   2      38.233  10.990  -9.637  1.00 53.14 LIG-0.35  N 
ATOM     21 H    HIS M   2      37.833  11.662  -9.994  1.00 53.14 LIG 0.16  HD
ATOM     22  C   CYS M   1      39.027  10.157 -10.317  0.42 52.47 LIG 0.24  C 
ATOM     23 O    CYS M   1      39.563   9.162  -9.819  0.42 50.41 LIG-0.27  OA
BRANCH 22 24
ATOM     24  CA  CYS M   1      39.206  10.543 -11.786  0.42 53.64 LIG 0.18  C 
BRANCH 24 25
ATOM     25  CB  CYS M   1      37.855  10.782 -12.420  0.42 54.18 LIG 0.10  C 
BRANCH 25 26
ATOM     26 SG   CYS M   1      37.710   9.623 -13.795  0.42 57.26 LIG-0.18  SA
ATOM     27 HG   CYS M   1      37.830   8.501 -13.387  0.42 57.26 LIG 0.10  HD
ENDBRANCH 25 26
ENDBRANCH 24 25
BRANCH 24 28
ATOM     28  N   CYS M   1      39.920   9.511 -12.521  0.42 53.99 LIG-0.38  N 
ATOM     29  C   ACE M   0      41.215   9.617 -12.821  0.42 54.55 LIG 0.04  C 
ATOM     30  CH3 ACE M   0      41.933   8.500 -13.566  0.42 54.45 LIG 0.05  C 
ATOM     31 H    CYS M   1      39.435   8.836 -12.741  0.42 53.99 LIG 0.16  HD
ENDBRANCH 24 28
ENDBRANCH 22 24
ENDBRANCH 13 20
ENDBRANCH 8 13
ENDBRANCH 4 6
ENDBRANCH 1 2
BRANCH 1 32
ATOM     32  CB  GLN M   4      35.541  15.805  -6.622  1.00 35.03 LIG 0.04  C 
BRANCH 32 33
ATOM     33  CG  GLN M   4      35.279  17.133  -7.339  1.00 28.64 LIG 0.10  C 
BRANCH 33 34
ATOM     34  CD  GLN M   4      35.759  18.343  -6.565  1.00 28.38 LIG 0.21  C 
ATOM     35  NE2 GLN M   4      36.154  19.365  -7.329  1.00 21.52 LIG-0.37  N 
ATOM     36 22HE GLN M   4      36.446  20.087  -6.963  1.00 21.52 LIG 0.16  HD
ATOM     37 21HE GLN M   4      36.116  19.301  -8.185  1.00 21.52 LIG 0.16  HD
ATOM     38 OE1  GLN M   4      35.780  18.353  -5.316  1.00 23.11 LIG-0.27  OA
ENDBRANCH 33 34
ENDBRANCH 32 33
ENDBRANCH 1 32
BRANCH 1 39
ATOM     39  C   GLN M   4      33.676  15.228  -8.163  1.00 43.11 LIG 0.24  C 
ATOM     40  N   ASN M   5      32.468  15.751  -8.045  1.00 48.15 LIG-0.35  N 
ATOM     41 H    ASN M   5      32.079  15.938  -7.300  1.00 48.15 LIG 0.16  HD
ATOM     42 O    GLN M   4      34.233  15.090  -9.254  1.00 42.77 LIG-0.27  OA
BRANCH 40 43
ATOM     43  CA  ASN M   5      31.704  16.046  -9.241  1.00 54.08 LIG 0.18  C 
BRANCH 43 44
ATOM     44  CB  ASN M   5      30.234  15.580  -8.994  1.00 57.18 LIG 0.14  C 
BRANCH 44 45
ATOM     45  CG  ASN M   5      30.020  14.133  -8.463  1.00 60.38 LIG 0.22  C 
ATOM     46  ND2 ASN M   5      30.912  13.498  -7.701  1.00 60.67 LIG-0.37  N 
ATOM     47 22HD ASN M   5      31.652  13.882  -7.495  1.00 60.67 LIG 0.16  HD
ATOM     48 21HD ASN M   5      30.745  12.704  -7.416  1.00 60.67 LIG 0.16  HD
ATOM     49 OD1  ASN M   5      28.992  13.488  -8.696  1.00 60.50 LIG-0.27  OA
ENDBRANCH 44 45
ENDBRANCH 43 44
BRANCH 43 50
ATOM     50  C   ASN M   5      31.809  17.528  -9.539  1.00 53.60 LIG 0.24  C 
ATOM     51 O    ASN M   5      32.313  18.264  -8.692  1.00 54.31 LIG-0.27  OA
ATOM     52  N   THR M   6      31.437  17.987 -10.728  0.00 53.23 LIG-0.34  N 
ATOM     53 H    THR M   6      31.139  17.496 -11.369  0.00 53.23 LIG 0.16  HD
BRANCH 52 54
ATOM     54  CA  THR M   6      31.517  19.399 -11.025  0.00 52.61 LIG 0.21  C 
BRANCH 54 55
ATOM     55  C   THR M   6      30.130  20.028 -10.878  0.00 52.44 LIG 0.29  C 
ATOM     56  N   NH2 M   7      29.391  20.125 -11.975  0.00 52.35 LIG-0.11  N 
ATOM     57 O    THR M   6      29.716  20.496  -9.818  0.00 52.24 LIG-0.27  OA
ENDBRANCH 54 55
BRANCH 54 58
ATOM     58  CB  THR M   6      32.128  19.537 -12.456  0.00 52.38 LIG 0.15  C 
ATOM     59  CG2 THR M   6      33.530  20.140 -12.524  0.00 52.30 LIG 0.04  C 
BRANCH 58 60
ATOM     60 OG1  THR M   6      32.109  18.213 -12.972  0.00 52.26 LIG-0.39  OA
ATOM     61 HG1  THR M   6      32.890  17.980 -13.174  0.00 52.26 LIG 0.21  HD
ENDBRANCH 58 60
ENDBRANCH 54 58
ENDBRANCH 52 54
ENDBRANCH 43 50
ENDBRANCH 40 43
ENDBRANCH 1 39
TORSDOF 22
ENDMDL
MODEL 3
USER: ADFR SOLUTION from run 63
USER: SCORE 18.903331 LL:  -4.573 LR: -15.307 RR:   0.000 FEB:  -8.744
USER: RMSD 8.771358
USER: SEED 62
USER: STATUS no improvement in best in 5 clusters for 5 generations
USER: GENES 24
USER: genes 0 Translation |==|  0.39876 0.73786 0.58147
USER: genes 1 Rotation |==|  0.32590 0.67174 0.87042 0.73019
USER: genes 2 Torsion [C]-CA--N-[C] |==|  0.77222
USER: genes 3 Torsion [N]-C--CA-[N] |==|  0.16190
USER: genes 4 Torsion [N]-C--CA-[N] |==|  0.47878
USER: genes 5 Torsion [C]-CA--CB-[CG] |==|  0.40268
USER: genes 6 Torsion [CA]-CB--CG-[CD2] |==|  0.26331
USER: genes 7 Torsion [C]-CA--N-[C] |==|  0.56120
USER: genes 8 Torsion [N]-C--CA-[N] |==|  0.05242
USER: genes 9 Torsion [C]-CA--CB-[SG] |==|  0.12857
USER: genes 10 Torsion [CA]-CB--SG-[HG] |==|  0.56034
USER: genes 11 Torsion [C]-CA--N-[C] |==|  0.75751
USER: genes 12 Torsion [N]-CA--CB-[CG] |==|  0.87062
USER: genes 13 Torsion [CA]-CB--CG-[CD] |==|  0.57522
USER: genes 14 Torsion [CB]-CG--CD-[NE2] |==|  0.08701
USER: genes 15 Torsion [N]-CA--C-[N] |==|  0.42788
USER: genes 16 Torsion [C]-N--CA-[C] |==|  0.16029
USER: genes 17 Torsion [N]-CA--CB-[CG] |==|  0.85471
USER: genes 18 Torsion [CA]-CB--CG-[ND2] |==|  0.29287
USER: genes 19 Torsion [N]-CA--C-[N] |==|  0.14373
USER: genes 20 Torsion [C]-N--CA-[C] |==|  0.19909
USER: genes 21 Torsion [N]-CA--C-[N] |==|  0.04690
USER: genes 22 Torsion [N]-CA--CB-[OG1] |==|  0.85964
USER: genes 23 Torsion [CA]-CB--OG1-[HG1] |==|  0.96851
ROOT
ATOM      1  CA  GLN M   4      33.630  17.853  -9.108  1.00 40.00 LIG 0.18  C 
ENDROOT
BRANCH 1 2
ATOM      2  N   GLN M   4      33.378  16.453  -9.254  1.00 41.31 LIG-0.35  N 
ATOM      3 H    GLN M   4      34.070  15.943  -9.241  1.00 41.31 LIG 0.16  HD
ATOM      4  C   PRO M   3      32.116  16.047  -9.395  1.00 42.91 LIG 0.24  C 
ATOM      5 O    PRO M   3      31.158  16.849  -9.374  1.00 42.50 LIG-0.27  OA
BRANCH 4 6
ATOM      6  CA  PRO M   3      31.897  14.538  -9.541  1.00 43.35 LIG 0.18  C 
ATOM      7  N   PRO M   3      32.380  13.687  -8.464  1.00 44.79 LIG-0.34  N 
ATOM      8  C   HIS M   2      33.692  13.416  -8.221  1.00 46.46 LIG 0.24  C 
ATOM      9  CD  PRO M   3      31.232  12.989  -7.852  1.00 43.94 LIG 0.13  C 
ATOM     10 O    HIS M   2      34.642  13.936  -8.829  1.00 45.68 LIG-0.27  OA
ATOM     11  CG  PRO M   3      30.061  13.850  -8.222  1.00 40.61 LIG 0.02  C 
ATOM     12  CB  PRO M   3      30.441  14.111  -9.635  1.00 40.36 LIG 0.04  C 
BRANCH 8 13
ATOM     13  CA  HIS M   2      33.978  12.426  -7.115  1.00 46.79 LIG 0.18  C 
BRANCH 13 14
ATOM     14  CB  HIS M   2      33.508  13.023  -5.746  1.00 44.05 LIG 0.10  C 
BRANCH 14 15
ATOM     15  CG  HIS M   2      32.957  11.939  -4.815  1.00 42.32 LIG 0.06  A 
ATOM     16  CD2 HIS M   2      33.684  11.287  -3.849  1.00 41.49 LIG 0.14  A 
ATOM     17 NE2  HIS M   2      32.885  10.317  -3.500  1.00 41.41 LIG-0.25  NA
ATOM     18  CE1 HIS M   2      31.757  10.377  -4.192  1.00 41.50 LIG 0.23  A 
ATOM     19 ND1  HIS M   2      31.768  11.390  -5.028  1.00 40.17 LIG-0.24  NA
ENDBRANCH 14 15
ENDBRANCH 13 14
BRANCH 13 20
ATOM     20  N   HIS M   2      35.403  12.119  -7.113  1.00 53.14 LIG-0.35  N 
ATOM     21 H    HIS M   2      35.891  12.719  -7.488  1.00 53.14 LIG 0.16  HD
ATOM     22  C   CYS M   1      35.896  11.000  -6.572  0.42 52.47 LIG 0.24  C 
ATOM     23 O    CYS M   1      35.194  10.112  -6.078  0.42 50.41 LIG-0.27  OA
BRANCH 22 24
ATOM     24  CA  CYS M   1      37.421  10.910  -6.632  0.42 53.64 LIG 0.18  C 
BRANCH 24 25
ATOM     25  CB  CYS M   1      37.949  10.313  -5.348  0.42 54.18 LIG 0.10  C 
BRANCH 25 26
ATOM     26 SG   CYS M   1      36.929   8.869  -4.985  0.42 57.26 LIG-0.18  SA
ATOM     27 HG   CYS M   1      37.003   8.610  -3.816  0.42 57.26 LIG 0.10  HD
ENDBRANCH 25 26
ENDBRANCH 24 25
BRANCH 24 28
ATOM     28  N   CYS M   1      38.020  12.217  -6.851  0.42 53.99 LIG-0.38  N 
ATOM     29  C   ACE M   0      38.211  12.716  -8.073  0.42 54.55 LIG 0.04  C 
ATOM     30  CH3 ACE M   0      38.815  14.102  -8.258  0.42 54.45 LIG 0.05  C 
ATOM     31 H    CYS M   1      38.236  12.631  -6.129  0.42 53.99 LIG 0.16  HD
ENDBRANCH 24 28
ENDBRANCH 22 24
ENDBRANCH 13 20
ENDBRANCH 8 13
ENDBRANCH 4 6
ENDBRANCH 1 2
BRANCH 1 32
ATOM     32  CB  GLN M   4      34.966  18.069  -8.426  1.00 35.03 LIG 0.04  C 
BRANCH 32 33
ATOM     33  CG  GLN M   4      35.055  17.141  -7.211  1.00 28.64 LIG 0.10  C 
BRANCH 33 34
ATOM     34  CD  GLN M   4      35.959  17.664  -6.114  1.00 28.38 LIG 0.21  C 
ATOM     35  NE2 GLN M   4      36.001  18.996  -6.023  1.00 21.52 LIG-0.37  N 
ATOM     36 22HE GLN M   4      36.498  19.370  -5.429  1.00 21.52 LIG 0.16  HD
ATOM     37 21HE GLN M   4      35.532  19.478  -6.558  1.00 21.52 LIG 0.16  HD
ATOM     38 OE1  GLN M   4      36.607  16.891  -5.378  1.00 23.11 LIG-0.27  OA
ENDBRANCH 33 34
ENDBRANCH 32 33
ENDBRANCH 1 32
BRANCH 1 39
ATOM     39  C   GLN M   4      33.637  18.489 -10.486  1.00 43.11 LIG 0.24  C 
ATOM     40  N   ASN M   5      33.322  19.773 -10.510  1.00 48.15 LIG-0.35  N 
ATOM     41 H    ASN M   5      33.162  20.257  -9.818  1.00 48.15 LIG 0.16  HD
ATOM     42 O    GLN M   4      33.974  17.871 -11.497  1.00 42.77 LIG-0.27  OA
BRANCH 40 43
ATOM     43  CA  ASN M   5      33.231  20.455 -11.786  1.00 54.08 LIG 0.18  C 
BRANCH 43 44
ATOM     44  CB  ASN M   5      34.656  20.466 -12.423  1.00 57.18 LIG 0.14  C 
BRANCH 44 45
ATOM     45  CG  ASN M   5      35.827  21.008 -11.552  1.00 60.38 LIG 0.22  C 
ATOM     46  ND2 ASN M   5      36.741  20.217 -10.989  1.00 60.67 LIG-0.37  N 
ATOM     47 22HD ASN M   5      36.691  19.364 -11.087  1.00 60.67 LIG 0.16  HD
ATOM     48 21HD ASN M   5      37.381  20.560 -10.529  1.00 60.67 LIG 0.16  HD
ATOM     49 OD1  ASN M   5      35.996  22.214 -11.348  1.00 60.50 LIG-0.27  OA
ENDBRANCH 44 45
ENDBRANCH 43 44
BRANCH 43 50
ATOM     50  C   ASN M   5      32.206  19.746 -12.650  1.00 53.60 LIG 0.24  C 
ATOM     51 O    ASN M   5      32.552  19.340 -13.759  1.00 54.31 LIG-0.27  OA
ATOM     52  N   THR M   6      30.994  19.505 -12.167  0.00 53.23 LIG-0.34  N 
ATOM     53 H    THR M   6      30.733  19.717 -11.375  0.00 53.23 LIG 0.16  HD
BRANCH 52 54
ATOM     54  CA  THR M   6      30.000  18.843 -12.981  0.00 52.61 LIG 0.21  C 
BRANCH 54 55
ATOM     55  C   THR M   6      30.376  17.368 -13.143  0.00 52.44 LIG 0.29  C 
ATOM     56  N   NH2 M   7      31.266  16.876 -12.292  0.00 52.35 LIG-0.11  N 
ATOM     57 O    THR M   6      29.944  16.662 -14.052  0.00 52.24 LIG-0.27  OA
ENDBRANCH 54 55
BRANCH 54 58
ATOM     58  CB  THR M   6      29.910  19.626 -14.330  0.00 52.38 LIG 0.15  C 
ATOM     59  CG2 THR M   6      28.795  19.188 -15.278  0.00 52.30 LIG 0.04  C 
BRANCH 58 60
ATOM     60 OG1  THR M   6      29.749  20.982 -13.935  0.00 52.26 LIG-0.39  OA
ATOM     61 HG1  THR M   6      29.587  21.017 -13.111  0.00 52.26 LIG 0.21  HD
ENDBRANCH 58 60
ENDBRANCH 54 58
ENDBRANCH 52 54
ENDBRANCH 43 50
ENDBRANCH 40 43
ENDBRANCH 1 39
TORSDOF 22
ENDMDL
MODEL 4
USER: ADFR SOLUTION from run 33
USER: SCORE 20.003701 LL:  -5.370 LR: -15.272 RR:   0.000 FEB:  -8.709
USER: RMSD 3.912842
USER: SEED 32
USER: STATUS no improvement in best in 2 clusters for 5 generations
USER: GENES 24
USER: genes 0 Translation |==|  0.51359 0.51625 0.73754
USER: genes 1 Rotation |==|  0.50101 0.64769 0.31865 0.94192
USER: genes 2 Torsion [C]-CA--N-[C] |==|  0.81290
USER: genes 3 Torsion [N]-C--CA-[N] |==|  0.96877
USER: genes 4 Torsion [N]-C--CA-[N] |==|  0.19505
USER: genes 5 Torsion [C]-CA--CB-[CG] |==|  0.19713
USER: genes 6 Torsion [CA]-CB--CG-[CD2] |==|  0.33226
USER: genes 7 Torsion [C]-CA--N-[C] |==|  0.60753
USER: genes 8 Torsion [N]-C--CA-[N] |==|  0.91213
USER: genes 9 Torsion [C]-CA--CB-[SG] |==|  0.56199
USER: genes 10 Torsion [CA]-CB--SG-[HG] |==|  0.96159
USER: genes 11 Torsion [C]-CA--N-[C] |==|  0.83254
USER: genes 12 Torsion [N]-CA--CB-[CG] |==|  0.30563
USER: genes 13 Torsion [CA]-CB--CG-[CD] |==|  0.30851
USER: genes 14 Torsion [CB]-CG--CD-[NE2] |==|  0.91992
USER: genes 15 Torsion [N]-CA--C-[N] |==|  0.41269
USER: genes 16 Torsion [C]-N--CA-[C] |==|  0.16466
USER: genes 17 Torsion [N]-CA--CB-[CG] |==|  0.73655
USER: genes 18 Torsion [CA]-CB--CG-[ND2] |==|  0.02575
USER: genes 19 Torsion [N]-CA--C-[N] |==|  0.12778
USER: genes 20 Torsion [C]-N--CA-[C] |==|  0.82350
USER: genes 21 Torsion [N]-CA--C-[N] |==|  0.38820
USER: genes 22 Torsion [N]-CA--CB-[OG1] |==|  0.04806
USER: genes 23 Torsion [CA]-CB--OG1-[HG1] |==|  0.81411
ROOT
ATOM      1  CA  GLN M   4      36.041  14.030  -5.596  1.00 40.00 LIG 0.18  C 
ENDROOT
BRANCH 1 2
ATOM      2  N   GLN M   4      35.627  15.056  -6.502  1.00 41.31 LIG-0.35  N 
ATOM      3 H    GLN M   4      34.795  15.270  -6.475  1.00 41.31 LIG 0.16  HD
ATOM      4  C   PRO M   3      36.541  15.597  -7.308  1.00 42.91 LIG 0.24  C 
ATOM      5 O    PRO M   3      37.743  15.254  -7.270  1.00 42.50 LIG-0.27  OA
BRANCH 4 6
ATOM      6  CA  PRO M   3      36.050  16.696  -8.256  1.00 43.35 LIG 0.18  C 
ATOM      7  N   PRO M   3      34.612  16.877  -8.378  1.00 44.79 LIG-0.34  N 
ATOM      8  C   HIS M   2      33.776  16.021  -9.028  1.00 46.46 LIG 0.24  C 
ATOM      9  CD  PRO M   3      34.256  18.231  -7.907  1.00 43.94 LIG 0.13  C 
ATOM     10 O    HIS M   2      34.124  14.934  -9.515  1.00 45.68 LIG-0.27  OA
ATOM     11  CG  PRO M   3      35.409  18.608  -7.023  1.00 40.61 LIG 0.02  C 
ATOM     12  CB  PRO M   3      36.503  18.101  -7.893  1.00 40.36 LIG 0.04  C 
BRANCH 8 13
ATOM     13  CA  HIS M   2      32.328  16.444  -9.127  1.00 46.79 LIG 0.18  C 
BRANCH 13 14
ATOM     14  CB  HIS M   2      31.461  15.229  -9.598  1.00 44.05 LIG 0.10  C 
BRANCH 14 15
ATOM     15  CG  HIS M   2      31.336  14.165  -8.504  1.00 42.32 LIG 0.06  A 
ATOM     16  CD2 HIS M   2      30.154  13.749  -7.941  1.00 41.49 LIG 0.14  A 
ATOM     17 NE2  HIS M   2      30.559  13.041  -6.923  1.00 41.41 LIG-0.25  NA
ATOM     18  CE1 HIS M   2      31.882  13.020  -6.874  1.00 41.50 LIG 0.23  A 
ATOM     19 ND1  HIS M   2      32.405  13.715  -7.858  1.00 40.17 LIG-0.24  NA
ENDBRANCH 14 15
ENDBRANCH 13 14
BRANCH 13 20
ATOM     20  N   HIS M   2      32.227  17.572 -10.045  1.00 53.14 LIG-0.35  N 
ATOM     21 H    HIS M   2      32.744  17.513 -10.729  1.00 53.14 LIG 0.16  HD
ATOM     22  C   CYS M   1      31.401  18.601  -9.830  0.42 52.47 LIG 0.24  C 
ATOM     23 O    CYS M   1      30.696  18.714  -8.822  0.42 50.41 LIG-0.27  OA
BRANCH 22 24
ATOM     24  CA  CYS M   1      31.417  19.644 -10.948  0.42 53.64 LIG 0.18  C 
BRANCH 24 25
ATOM     25  CB  CYS M   1      30.375  19.296 -11.986  0.42 54.18 LIG 0.10  C 
BRANCH 25 26
ATOM     26 SG   CYS M   1      30.872  20.110 -13.518  0.42 57.26 LIG-0.18  SA
ATOM     27 HG   CYS M   1      31.722  20.923 -13.282  0.42 57.26 LIG 0.10  HD
ENDBRANCH 25 26
ENDBRANCH 24 25
BRANCH 24 28
ATOM     28  N   CYS M   1      32.728  19.729 -11.574  0.42 53.99 LIG-0.38  N 
ATOM     29  C   ACE M   0      33.823  20.062 -10.889  0.42 54.55 LIG 0.04  C 
ATOM     30  CH3 ACE M   0      35.181  20.111 -11.576  0.42 54.45 LIG 0.05  C 
ATOM     31 H    CYS M   1      32.729  19.547 -12.414  0.42 53.99 LIG 0.16  HD
ENDBRANCH 24 28
ENDBRANCH 22 24
ENDBRANCH 13 20
ENDBRANCH 8 13
ENDBRANCH 4 6
ENDBRANCH 1 2
BRANCH 1 32
ATOM     32  CB  GLN M   4      34.909  13.693  -4.647  1.00 35.03 LIG 0.04  C 
BRANCH 32 33
ATOM     33  CG  GLN M   4      34.381  12.296  -4.986  1.00 28.64 LIG 0.10  C 
BRANCH 33 34
ATOM     34  CD  GLN M   4      34.687  11.259  -3.924  1.00 28.38 LIG 0.21  C 
ATOM     35  NE2 GLN M   4      35.799  11.499  -3.224  1.00 21.52 LIG-0.37  N 
ATOM     36 22HE GLN M   4      36.044  10.952  -2.607  1.00 21.52 LIG 0.16  HD
ATOM     37 21HE GLN M   4      36.269  12.200  -3.390  1.00 21.52 LIG 0.16  HD
ATOM     38 OE1  GLN M   4      33.948  10.268  -3.748  1.00 23.11 LIG-0.27  OA
ENDBRANCH 33 34
ENDBRANCH 32 33
ENDBRANCH 1 32
BRANCH 1 39
ATOM     39  C   GLN M   4      36.434  12.804  -6.400  1.00 43.11 LIG 0.24  C 
ATOM     40  N   ASN M   5      37.389  12.066  -5.863  1.00 48.15 LIG-0.35  N 
ATOM     41 H    ASN M   5      37.756  12.210  -5.098  1.00 48.15 LIG 0.16  HD
ATOM     42 O    GLN M   4      35.859  12.486  -7.443  1.00 42.77 LIG-0.27  OA
BRANCH 40 43
ATOM     43  CA  ASN M   5      37.885  10.913  -6.588  1.00 54.08 LIG 0.18  C 
BRANCH 43 44
ATOM     44  CB  ASN M   5      36.705   9.901  -6.737  1.00 57.18 LIG 0.14  C 
BRANCH 44 45
ATOM     45  CG  ASN M   5      36.591   8.770  -5.674  1.00 60.38 LIG 0.22  C 
ATOM     46  ND2 ASN M   5      37.332   8.735  -4.566  1.00 60.67 LIG-0.37  N 
ATOM     47 22HD ASN M   5      37.916   9.350  -4.420  1.00 60.67 LIG 0.16  HD
ATOM     48 21HD ASN M   5      37.225   8.100  -3.997  1.00 60.67 LIG 0.16  HD
ATOM     49 OD1  ASN M   5      35.785   7.840  -5.782  1.00 60.50 LIG-0.27  OA
ENDBRANCH 44 45
ENDBRANCH 43 44
BRANCH 43 50
ATOM     50  C   ASN M   5      38.438  11.371  -7.923  1.00 53.60 LIG 0.24  C 
ATOM     51 O    ASN M   5      38.067  10.792  -8.943  1.00 54.31 LIG-0.27  OA
ATOM     52  N   THR M   6      39.236  12.431  -7.974  0.00 53.23 LIG-0.34  N 
ATOM     53 H    THR M   6      39.468  12.901  -7.291  0.00 53.23 LIG 0.16  HD
BRANCH 52 54
ATOM     54  CA  THR M   6      39.783  12.874  -9.236  0.00 52.61 LIG 0.21  C 
BRANCH 54 55
ATOM     55  C   THR M   6      40.697  11.786  -9.804  0.00 52.44 LIG 0.29  C 
ATOM     56  N   NH2 M   7      40.636  11.567 -11.110  0.00 52.35 LIG-0.11  N 
ATOM     57 O    THR M   6      41.417  11.081  -9.098  0.00 52.24 LIG-0.27  OA
ENDBRANCH 54 55
BRANCH 54 58
ATOM     58  CB  THR M   6      40.503  14.236  -8.976  0.00 52.38 LIG 0.15  C 
ATOM     59  CG2 THR M   6      39.772  15.480  -9.478  0.00 52.30 LIG 0.04  C 
BRANCH 58 60
ATOM     60 OG1  THR M   6      40.679  14.273  -7.566  0.00 52.26 LIG-0.39  OA
ATOM     61 HG1  THR M   6      39.930  14.331  -7.191  0.00 52.26 LIG 0.21  HD
ENDBRANCH 58 60
ENDBRANCH 54 58
ENDBRANCH 52 54
ENDBRANCH 43 50
ENDBRANCH 40 43
ENDBRANCH 1 39
TORSDOF 22
ENDMDL
MODEL 5
USER: ADFR SOLUTION from run 22
USER: SCORE 19.002565 LL:  -4.889 LR: -15.178 RR:   0.000 FEB:  -8.616
USER: RMSD 3.595718
USER: SEED 21
USER: STATUS no improvement in best in 5 clusters for 5 generations
USER: GENES 24
USER: genes 0 Translation |==|  0.47162 0.48896 0.77292
USER: genes 1 Rotation |==|  0.49469 0.50764 0.40461 0.99073
USER: genes 2 Torsion [C]-CA--N-[C] |==|  0.81887
USER: genes 3 Torsion [N]-C--CA-[N] |==|  0.09400
USER: genes 4 Torsion [N]-C--CA-[N] |==|  0.21628
USER: genes 5 Torsion [C]-CA--CB-[CG] |==|  0.71450
USER: genes 6 Torsion [CA]-CB--CG-[CD2] |==|  0.19841
USER: genes 7 Torsion [C]-CA--N-[C] |==|  0.64046
USER: genes 8 Torsion [N]-C--CA-[N] |==|  0.41558
USER: genes 9 Torsion [C]-CA--CB-[SG] |==|  0.90491
USER: genes 10 Torsion [CA]-CB--SG-[HG] |==|  0.83801
USER: genes 11 Torsion [C]-CA--N-[C] |==|  0.65908
USER: genes 12 Torsion [N]-CA--CB-[CG] |==|  0.29005
USER: genes 13 Torsion [CA]-CB--CG-[CD] |==|  0.36361
USER: genes 14 Torsion [CB]-CG--CD-[NE2] |==|  0.73994
USER: genes 15 Torsion [N]-CA--C-[N] |==|  0.94306
USER: genes 16 Torsion [C]-N--CA-[C] |==|  0.61667
USER: genes 17 Torsion [N]-CA--CB-[CG] |==|  0.74400
USER: genes 18 Torsion [CA]-CB--CG-[ND2] |==|  0.97917
USER: genes 19 Torsion [N]-CA--C-[N] |==|  0.07605
USER: genes 20 Torsion [C]-N--CA-[C] |==|  0.15836
USER: genes 21 Torsion [N]-CA--C-[N] |==|  0.10750
USER: genes 22 Torsion [N]-CA--CB-[OG1] |==|  0.80596
USER: genes 23 Torsion [CA]-CB--OG1-[HG1] |==|  0.22071
ROOT
ATOM      1  CA  GLN M   4      35.160  13.560  -4.800  1.00 40.00 LIG 0.18  C 
ENDROOT
BRANCH 1 2
ATOM      2  N   GLN M   4      34.990  14.329  -5.994  1.00 41.31 LIG-0.35  N 
ATOM      3 H    GLN M   4      34.244  14.220  -6.409  1.00 41.31 LIG 0.16  HD
ATOM      4  C   PRO M   3      35.977  15.142  -6.370  1.00 42.91 LIG 0.24  C 
ATOM      5 O    PRO M   3      37.022  15.269  -5.697  1.00 42.50 LIG-0.27  OA
BRANCH 4 6
ATOM      6  CA  PRO M   3      35.744  15.949  -7.652  1.00 43.35 LIG 0.18  C 
ATOM      7  N   PRO M   3      34.383  16.381  -7.930  1.00 44.79 LIG-0.34  N 
ATOM      8  C   HIS M   2      33.376  15.558  -8.333  1.00 46.46 LIG 0.24  C 
ATOM      9  CD  PRO M   3      34.341  17.858  -7.941  1.00 43.94 LIG 0.13  C 
ATOM     10 O    HIS M   2      33.472  14.323  -8.422  1.00 45.68 LIG-0.27  OA
ATOM     11  CG  PRO M   3      35.549  18.248  -7.142  1.00 40.61 LIG 0.02  C 
ATOM     12  CB  PRO M   3      36.501  17.265  -7.723  1.00 40.36 LIG 0.04  C 
BRANCH 8 13
ATOM     13  CA  HIS M   2      32.060  16.222  -8.667  1.00 46.79 LIG 0.18  C 
BRANCH 13 14
ATOM     14  CB  HIS M   2      30.909  15.164  -8.598  1.00 44.05 LIG 0.10  C 
BRANCH 14 15
ATOM     15  CG  HIS M   2      30.476  14.708  -9.995  1.00 42.32 LIG 0.06  A 
ATOM     16  CD2 HIS M   2      31.219  13.909 -10.828  1.00 41.49 LIG 0.14  A 
ATOM     17 NE2  HIS M   2      30.572  13.997 -11.957  1.00 41.41 LIG-0.25  NA
ATOM     18  CE1 HIS M   2      29.513  14.781 -11.821  1.00 41.50 LIG 0.23  A 
ATOM     19 ND1  HIS M   2      29.420  15.244 -10.595  1.00 40.17 LIG-0.24  NA
ENDBRANCH 14 15
ENDBRANCH 13 14
BRANCH 13 20
ATOM     20  N   HIS M   2      32.160  16.831  -9.988  1.00 53.14 LIG-0.35  N 
ATOM     21 H    HIS M   2      32.459  16.301 -10.595  1.00 53.14 LIG 0.16  HD
ATOM     22  C   CYS M   1      31.816  18.101 -10.221  0.42 52.47 LIG 0.24  C 
ATOM     23 O    CYS M   1      31.436  18.880  -9.341  0.42 50.41 LIG-0.27  OA
BRANCH 22 24
ATOM     24  CA  CYS M   1      31.948  18.513 -11.688  0.42 53.64 LIG 0.18  C 
BRANCH 24 25
ATOM     25  CB  CYS M   1      33.345  19.024 -11.952  0.42 54.18 LIG 0.10  C 
BRANCH 25 26
ATOM     26 SG   CYS M   1      33.885  19.867 -10.451  0.42 57.26 LIG-0.18  SA
ATOM     27 HG   CYS M   1      33.120  20.754 -10.192  0.42 57.26 LIG 0.10  HD
ENDBRANCH 25 26
ENDBRANCH 24 25
BRANCH 24 28
ATOM     28  N   CYS M   1      30.973  19.534 -12.041  0.42 53.99 LIG-0.38  N 
ATOM     29  C   ACE M   0      30.093  19.367 -13.029  0.42 54.55 LIG 0.04  C 
ATOM     30  CH3 ACE M   0      29.070  20.449 -13.346  0.42 54.45 LIG 0.05  C 
ATOM     31 H    CYS M   1      31.019  20.245 -11.559  0.42 53.99 LIG 0.16  HD
ENDBRANCH 24 28
ENDBRANCH 22 24
ENDBRANCH 13 20
ENDBRANCH 8 13
ENDBRANCH 4 6
ENDBRANCH 1 2
BRANCH 1 32
ATOM     32  CB  GLN M   4      33.878  12.818  -4.477  1.00 35.03 LIG 0.04  C 
BRANCH 32 33
ATOM     33  CG  GLN M   4      34.057  11.342  -4.846  1.00 28.64 LIG 0.10  C 
BRANCH 33 34
ATOM     34  CD  GLN M   4      33.638  10.389  -3.746  1.00 28.38 LIG 0.21  C 
ATOM     35  NE2 GLN M   4      34.631  10.006  -2.940  1.00 21.52 LIG-0.37  N 
ATOM     36 22HE GLN M   4      34.474   9.460  -2.294  1.00 21.52 LIG 0.16  HD
ATOM     37 21HE GLN M   4      35.427  10.306  -3.066  1.00 21.52 LIG 0.16  HD
ATOM     38 OE1  GLN M   4      32.455  10.002  -3.633  1.00 23.11 LIG-0.27  OA
ENDBRANCH 33 34
ENDBRANCH 32 33
ENDBRANCH 1 32
BRANCH 1 39
ATOM     39  C   GLN M   4      36.295  12.575  -5.016  1.00 43.11 LIG 0.24  C 
ATOM     40  N   ASN M   5      36.581  12.321  -6.281  1.00 48.15 LIG-0.35  N 
ATOM     41 H    ASN M   5      36.206  12.695  -6.959  1.00 48.15 LIG 0.16  HD
ATOM     42 O    GLN M   4      36.944  12.100  -4.083  1.00 42.77 LIG-0.27  OA
BRANCH 40 43
ATOM     43  CA  ASN M   5      37.601  11.339  -6.592  1.00 54.08 LIG 0.18  C 
BRANCH 43 44
ATOM     44  CB  ASN M   5      36.881  10.000  -6.947  1.00 57.18 LIG 0.14  C 
BRANCH 44 45
ATOM     45  CG  ASN M   5      36.639   8.987  -5.791  1.00 60.38 LIG 0.22  C 
ATOM     46  ND2 ASN M   5      37.142   9.147  -4.566  1.00 60.67 LIG-0.37  N 
ATOM     47 22HD ASN M   5      37.638   9.827  -4.390  1.00 60.67 LIG 0.16  HD
ATOM     48 21HD ASN M   5      36.970   8.570  -3.952  1.00 60.67 LIG 0.16  HD
ATOM     49 OD1  ASN M   5      35.942   7.977  -5.931  1.00 60.50 LIG-0.27  OA
ENDBRANCH 44 45
ENDBRANCH 43 44
BRANCH 43 50
ATOM     50  C   ASN M   5      38.459  11.864  -7.726  1.00 53.60 LIG 0.24  C 
ATOM     51 O    ASN M   5      38.950  11.056  -8.514  1.00 54.31 LIG-0.27  OA
ATOM     52  N   THR M   6      38.594  13.173  -7.897  0.00 53.23 LIG-0.34  N 
ATOM     53 H    THR M   6      38.216  13.771  -7.406  0.00 53.23 LIG 0.16  HD
BRANCH 52 54
ATOM     54  CA  THR M   6      39.419  13.691  -8.965  0.00 52.61 LIG 0.21  C 
BRANCH 54 55
ATOM     55  C   THR M   6      38.921  13.141 -10.303  0.00 52.44 LIG 0.29  C 
ATOM     56  N   NH2 M   7      37.609  13.036 -10.463  0.00 52.35 LIG-0.11  N 
ATOM     57 O    THR M   6      39.678  12.741 -11.186  0.00 52.24 LIG-0.27  OA
ENDBRANCH 54 55
BRANCH 54 58
ATOM     58  CB  THR M   6      40.897  13.312  -8.633  0.00 52.38 LIG 0.15  C 
ATOM     59  CG2 THR M   6      41.902  13.502  -9.768  0.00 52.30 LIG 0.04  C 
BRANCH 58 60
ATOM     60 OG1  THR M   6      41.223  14.125  -7.513  0.00 52.26 LIG-0.39  OA
ATOM     61 HG1  THR M   6      40.903  13.783  -6.816  0.00 52.26 LIG 0.21  HD
ENDBRANCH 58 60
ENDBRANCH 54 58
ENDBRANCH 52 54
ENDBRANCH 43 50
ENDBRANCH 40 43
ENDBRANCH 1 39
TORSDOF 22
ENDMDL
MODEL 6
USER: ADFR SOLUTION from run 50
USER: SCORE 19.648963 LL:  -5.096 LR: -15.150 RR:   0.000 FEB:  -8.587
USER: RMSD 5.269302
USER: SEED 49
USER: STATUS no improvement in best in 2 clusters for 5 generations
USER: GENES 24
USER: genes 0 Translation |==|  0.57489 0.37169 0.69148
USER: genes 1 Rotation |==|  0.55997 0.79937 0.57964 0.88786
USER: genes 2 Torsion [C]-CA--N-[C] |==|  0.69911
USER: genes 3 Torsion [N]-C--CA-[N] |==|  0.81767
USER: genes 4 Torsion [N]-C--CA-[N] |==|  0.42928
USER: genes 5 Torsion [C]-CA--CB-[CG] |==|  0.87176
USER: genes 6 Torsion [CA]-CB--CG-[CD2] |==|  0.35654
USER: genes 7 Torsion [C]-CA--N-[C] |==|  0.55760
USER: genes 8 Torsion [N]-C--CA-[N] |==|  0.05594
USER: genes 9 Torsion [C]-CA--CB-[SG] |==|  0.36651
USER: genes 10 Torsion [CA]-CB--SG-[HG] |==|  0.80423
USER: genes 11 Torsion [C]-CA--N-[C] |==|  0.17280
USER: genes 12 Torsion [N]-CA--CB-[CG] |==|  0.86721
USER: genes 13 Torsion [CA]-CB--CG-[CD] |==|  0.24754
USER: genes 14 Torsion [CB]-CG--CD-[NE2] |==|  0.53996
USER: genes 15 Torsion [N]-CA--C-[N] |==|  0.37864
USER: genes 16 Torsion [C]-N--CA-[C] |==|  0.80147
USER: genes 17 Torsion [N]-CA--CB-[CG] |==|  0.96935
USER: genes 18 Torsion [CA]-CB--CG-[ND2] |==|  0.33773
USER: genes 19 Torsion [N]-CA--C-[N] |==|  0.43037
USER: genes 20 Torsion [C]-N--CA-[C] |==|  0.79398
USER: genes 21 Torsion [N]-CA--C-[N] |==|  0.90556
USER: genes 22 Torsion [N]-CA--CB-[OG1] |==|  0.70382
USER: genes 23 Torsion [CA]-CB--OG1-[HG1] |==|  0.82246
ROOT
ATOM      1  CA  GLN M   4      37.329  11.537  -6.633  1.00 40.00 LIG 0.18  C 
ENDROOT
BRANCH 1 2
ATOM      2  N   GLN M   4      36.014  11.996  -6.308  1.00 41.31 LIG-0.35  N 
ATOM      3 H    GLN M   4      35.367  11.480  -6.542  1.00 41.31 LIG 0.16  HD
ATOM      4  C   PRO M   3      35.888  13.164  -5.679  1.00 42.91 LIG 0.24  C 
ATOM      5 O    PRO M   3      36.881  13.846  -5.345  1.00 42.50 LIG-0.27  OA
BRANCH 4 6
ATOM      6  CA  PRO M   3      34.460  13.610  -5.348  1.00 43.35 LIG 0.18  C 
ATOM      7  N   PRO M   3      33.579  13.911  -6.467  1.00 44.79 LIG-0.34  N 
ATOM      8  C   HIS M   2      33.681  15.015  -7.257  1.00 46.46 LIG 0.24  C 
ATOM      9  CD  PRO M   3      32.439  12.972  -6.447  1.00 43.94 LIG 0.13  C 
ATOM     10 O    HIS M   2      34.594  15.853  -7.179  1.00 45.68 LIG-0.27  OA
ATOM     11  CG  PRO M   3      32.956  11.812  -5.648  1.00 40.61 LIG 0.02  C 
ATOM     12  CB  PRO M   3      33.635  12.590  -4.579  1.00 40.36 LIG 0.04  C 
BRANCH 8 13
ATOM     13  CA  HIS M   2      32.604  15.192  -8.303  1.00 46.79 LIG 0.18  C 
BRANCH 13 14
ATOM     14  CB  HIS M   2      32.960  14.338  -9.566  1.00 44.05 LIG 0.10  C 
BRANCH 14 15
ATOM     15  CG  HIS M   2      34.426  14.516  -9.974  1.00 42.32 LIG 0.06  A 
ATOM     16  CD2 HIS M   2      35.311  13.490 -10.195  1.00 41.49 LIG 0.14  A 
ATOM     17 NE2  HIS M   2      36.455  14.113 -10.271  1.00 41.41 LIG-0.25  NA
ATOM     18  CE1 HIS M   2      36.280  15.417 -10.116  1.00 41.50 LIG 0.23  A 
ATOM     19 ND1  HIS M   2      35.012  15.706  -9.930  1.00 40.17 LIG-0.24  NA
ENDBRANCH 14 15
ENDBRANCH 13 14
BRANCH 13 20
ATOM     20  N   HIS M   2      32.483  16.610  -8.622  1.00 53.14 LIG-0.35  N 
ATOM     21 H    HIS M   2      33.176  17.074  -8.416  1.00 53.14 LIG 0.16  HD
ATOM     22  C   CYS M   1      31.387  17.128  -9.183  0.42 52.47 LIG 0.24  C 
ATOM     23 O    CYS M   1      30.370  16.473  -9.433  0.42 50.41 LIG-0.27  OA
BRANCH 22 24
ATOM     24  CA  CYS M   1      31.500  18.624  -9.481  0.42 53.64 LIG 0.18  C 
BRANCH 24 25
ATOM     25  CB  CYS M   1      30.819  18.937 -10.794  0.42 54.18 LIG 0.10  C 
BRANCH 25 26
ATOM     26 SG   CYS M   1      29.756  20.366 -10.503  0.42 57.26 LIG-0.18  SA
ATOM     27 HG   CYS M   1      28.828  20.042  -9.816  0.42 57.26 LIG 0.10  HD
ENDBRANCH 25 26
ENDBRANCH 24 25
BRANCH 24 28
ATOM     28  N   CYS M   1      32.890  19.050  -9.533  0.42 53.99 LIG-0.38  N 
ATOM     29  C   ACE M   0      33.748  18.569 -10.433  0.42 54.55 LIG 0.04  C 
ATOM     30  CH3 ACE M   0      35.188  19.064 -10.472  0.42 54.45 LIG 0.05  C 
ATOM     31 H    CYS M   1      33.102  19.631  -8.936  0.42 53.99 LIG 0.16  HD
ENDBRANCH 24 28
ENDBRANCH 22 24
ENDBRANCH 13 20
ENDBRANCH 8 13
ENDBRANCH 4 6
ENDBRANCH 1 2
BRANCH 1 32
ATOM     32  CB  GLN M   4      37.496  10.097  -6.190  1.00 35.03 LIG 0.04  C 
BRANCH 32 33
ATOM     33  CG  GLN M   4      36.991   9.961  -4.751  1.00 28.64 LIG 0.10  C 
BRANCH 33 34
ATOM     34  CD  GLN M   4      35.515   9.635  -4.656  1.00 28.38 LIG 0.21  C 
ATOM     35  NE2 GLN M   4      34.989   9.808  -3.441  1.00 21.52 LIG-0.37  N 
ATOM     36 22HE GLN M   4      34.157   9.638  -3.304  1.00 21.52 LIG 0.16  HD
ATOM     37 21HE GLN M   4      35.482  10.091  -2.795  1.00 21.52 LIG 0.16  HD
ATOM     38 OE1  GLN M   4      34.871   9.230  -5.647  1.00 23.11 LIG-0.27  OA
ENDBRANCH 33 34
ENDBRANCH 32 33
ENDBRANCH 1 32
BRANCH 1 39
ATOM     39  C   GLN M   4      37.524  11.649  -8.133  1.00 43.11 LIG 0.24  C 
ATOM     40  N   ASN M   5      38.690  12.144  -8.510  1.00 48.15 LIG-0.35  N 
ATOM     41 H    ASN M   5      39.333  12.357  -7.979  1.00 48.15 LIG 0.16  HD
ATOM     42 O    GLN M   4      36.684  11.249  -8.941  1.00 42.77 LIG-0.27  OA
BRANCH 40 43
ATOM     43  CA  ASN M   5      38.946  12.358  -9.920  1.00 54.08 LIG 0.18  C 
BRANCH 43 44
ATOM     44  CB  ASN M   5      40.211  13.265 -10.042  1.00 57.18 LIG 0.14  C 
BRANCH 44 45
ATOM     45  CG  ASN M   5      40.739  13.938  -8.742  1.00 60.38 LIG 0.22  C 
ATOM     46  ND2 ASN M   5      41.974  13.750  -8.275  1.00 60.67 LIG-0.37  N 
ATOM     47 22HD ASN M   5      42.515  13.224  -8.689  1.00 60.67 LIG 0.16  HD
ATOM     48 21HD ASN M   5      42.230  14.155  -7.561  1.00 60.67 LIG 0.16  HD
ATOM     49 OD1  ASN M   5      40.050  14.713  -8.071  1.00 60.50 LIG-0.27  OA
ENDBRANCH 44 45
ENDBRANCH 43 44
BRANCH 43 50
ATOM     50  C   ASN M   5      39.119  11.014 -10.599  1.00 53.60 LIG 0.24  C 
ATOM     51 O    ASN M   5      39.414  10.040  -9.908  1.00 54.31 LIG-0.27  OA
ATOM     52  N   THR M   6      38.867  10.897 -11.897  0.00 53.23 LIG-0.34  N 
ATOM     53 H    THR M   6      38.598  11.540 -12.403  0.00 53.23 LIG 0.16  HD
BRANCH 52 54
ATOM     54  CA  THR M   6      39.040   9.626 -12.564  0.00 52.61 LIG 0.21  C 
BRANCH 54 55
ATOM     55  C   THR M   6      40.533   9.345 -12.744  0.00 52.44 LIG 0.29  C 
ATOM     56  N   NH2 M   7      41.322  10.389 -12.962  0.00 52.35 LIG-0.11  N 
ATOM     57 O    THR M   6      41.004   8.209 -12.759  0.00 52.24 LIG-0.27  OA
ENDBRANCH 54 55
BRANCH 54 58
ATOM     58  CB  THR M   6      38.241   9.695 -13.905  0.00 52.38 LIG 0.15  C 
ATOM     59  CG2 THR M   6      39.002   9.252 -15.154  0.00 52.30 LIG 0.04  C 
BRANCH 58 60
ATOM     60 OG1  THR M   6      37.103   8.875 -13.676  0.00 52.26 LIG-0.39  OA
ATOM     61 HG1  THR M   6      37.350   8.082 -13.550  0.00 52.26 LIG 0.21  HD
ENDBRANCH 58 60
ENDBRANCH 54 58
ENDBRANCH 52 54
ENDBRANCH 43 50
ENDBRANCH 40 43
ENDBRANCH 1 39
TORSDOF 22
ENDMDL
MODEL 7
USER: ADFR SOLUTION from run 34
USER: SCORE 18.941210 LL:  -4.710 LR: -15.102 RR:   0.000 FEB:  -8.539
USER: RMSD 5.025310
USER: SEED 33
USER: STATUS searching
USER: GENES 24
USER: genes 0 Translation |==|  0.55730 0.34471 0.67582
USER: genes 1 Rotation |==|  0.62364 0.78409 0.57705 0.88480
USER: genes 2 Torsion [C]-CA--N-[C] |==|  0.70528
USER: genes 3 Torsion [N]-C--CA-[N] |==|  0.84109
USER: genes 4 Torsion [N]-C--CA-[N] |==|  0.48171
USER: genes 5 Torsion [C]-CA--CB-[CG] |==|  0.37861
USER: genes 6 Torsion [CA]-CB--CG-[CD2] |==|  0.96614
USER: genes 7 Torsion [C]-CA--N-[C] |==|  0.57858
USER: genes 8 Torsion [N]-C--CA-[N] |==|  0.00656
USER: genes 9 Torsion [C]-CA--CB-[SG] |==|  0.49494
USER: genes 10 Torsion [CA]-CB--SG-[HG] |==|  0.92470
USER: genes 11 Torsion [C]-CA--N-[C] |==|  0.76231
USER: genes 12 Torsion [N]-CA--CB-[CG] |==|  0.81802
USER: genes 13 Torsion [CA]-CB--CG-[CD] |==|  0.21364
USER: genes 14 Torsion [CB]-CG--CD-[NE2] |==|  0.59512
USER: genes 15 Torsion [N]-CA--C-[N] |==|  0.42393
USER: genes 16 Torsion [C]-N--CA-[C] |==|  0.64350
USER: genes 17 Torsion [N]-CA--CB-[CG] |==|  0.13299
USER: genes 18 Torsion [CA]-CB--CG-[ND2] |==|  0.17829
USER: genes 19 Torsion [N]-CA--C-[N] |==|  0.86423
USER: genes 20 Torsion [C]-N--CA-[C] |==|  0.80400
USER: genes 21 Torsion [N]-CA--C-[N] |==|  0.44233
USER: genes 22 Torsion [N]-CA--CB-[OG1] |==|  0.89964
USER: genes 23 Torsion [CA]-CB--OG1-[HG1] |==|  0.30565
ROOT
ATOM      1  CA  GLN M   4      36.959  11.071  -6.985  1.00 40.00 LIG 0.18  C 
ENDROOT
BRANCH 1 2
ATOM      2  N   GLN M   4      35.733  11.665  -6.551  1.00 41.31 LIG-0.35  N 
ATOM      3 H    GLN M   4      35.013  11.302  -6.848  1.00 41.31 LIG 0.16  HD
ATOM      4  C   PRO M   3      35.793  12.716  -5.733  1.00 42.91 LIG 0.24  C 
ATOM      5 O    PRO M   3      36.881  13.171  -5.319  1.00 42.50 LIG-0.27  OA
BRANCH 4 6
ATOM      6  CA  PRO M   3      34.453  13.314  -5.292  1.00 43.35 LIG 0.18  C 
ATOM      7  N   PRO M   3      33.545  13.760  -6.338  1.00 44.79 LIG-0.34  N 
ATOM      8  C   HIS M   2      33.727  14.875  -7.098  1.00 46.46 LIG 0.24  C 
ATOM      9  CD  PRO M   3      32.304  12.962  -6.269  1.00 43.94 LIG 0.13  C 
ATOM     10 O    HIS M   2      34.737  15.596  -7.056  1.00 45.68 LIG-0.27  OA
ATOM     11  CG  PRO M   3      32.728  11.719  -5.543  1.00 40.61 LIG 0.02  C 
ATOM     12  CB  PRO M   3      33.563  12.369  -4.500  1.00 40.36 LIG 0.04  C 
BRANCH 8 13
ATOM     13  CA  HIS M   2      32.615  15.218  -8.062  1.00 46.79 LIG 0.18  C 
BRANCH 13 14
ATOM     14  CB  HIS M   2      32.485  14.083  -9.132  1.00 44.05 LIG 0.10  C 
BRANCH 14 15
ATOM     15  CG  HIS M   2      31.020  13.714  -9.391  1.00 42.32 LIG 0.06  A 
ATOM     16  CD2 HIS M   2      29.960  14.114  -8.616  1.00 41.49 LIG 0.14  A 
ATOM     17 NE2  HIS M   2      28.984  13.376  -9.068  1.00 41.41 LIG-0.25  NA
ATOM     18  CE1 HIS M   2      29.414  12.594 -10.047  1.00 41.50 LIG 0.23  A 
ATOM     19 ND1  HIS M   2      30.692  12.784 -10.279  1.00 40.17 LIG-0.24  NA
ENDBRANCH 14 15
ENDBRANCH 13 14
BRANCH 13 20
ATOM     20  N   HIS M   2      32.901  16.511  -8.673  1.00 53.14 LIG-0.35  N 
ATOM     21 H    HIS M   2      33.739  16.694  -8.726  1.00 53.14 LIG 0.16  HD
ATOM     22  C   CYS M   1      31.937  17.329  -9.107  0.42 52.47 LIG 0.24  C 
ATOM     23 O    CYS M   1      30.731  17.090  -8.985  0.42 50.41 LIG-0.27  OA
BRANCH 22 24
ATOM     24  CA  CYS M   1      32.465  18.605  -9.763  0.42 53.64 LIG 0.18  C 
BRANCH 24 25
ATOM     25  CB  CYS M   1      31.903  18.732 -11.160  0.42 54.18 LIG 0.10  C 
BRANCH 25 26
ATOM     26 SG   CYS M   1      32.530  20.283 -11.837  0.42 57.26 LIG-0.18  SA
ATOM     27 HG   CYS M   1      32.756  21.048 -10.941  0.42 57.26 LIG 0.10  HD
ENDBRANCH 25 26
ENDBRANCH 24 25
BRANCH 24 28
ATOM     28  N   CYS M   1      33.919  18.610  -9.814  0.42 53.99 LIG-0.38  N 
ATOM     29  C   ACE M   0      34.665  19.038  -8.795  0.42 54.55 LIG 0.04  C 
ATOM     30  CH3 ACE M   0      36.185  19.000  -8.878  0.42 54.45 LIG 0.05  C 
ATOM     31 H    CYS M   1      34.246  18.316 -10.553  0.42 53.99 LIG 0.16  HD
ENDBRANCH 24 28
ENDBRANCH 22 24
ENDBRANCH 13 20
ENDBRANCH 8 13
ENDBRANCH 4 6
ENDBRANCH 1 2
BRANCH 1 32
ATOM     32  CB  GLN M   4      36.881   9.564  -6.844  1.00 35.03 LIG 0.04  C 
BRANCH 32 33
ATOM     33  CG  GLN M   4      36.774   9.213  -5.357  1.00 28.64 LIG 0.10  C 
BRANCH 33 34
ATOM     34  CD  GLN M   4      35.394   9.443  -4.778  1.00 28.38 LIG 0.21  C 
ATOM     35  NE2 GLN M   4      35.389   9.850  -3.507  1.00 21.52 LIG-0.37  N 
ATOM     36 22HE GLN M   4      34.643   9.996  -3.105  1.00 21.52 LIG 0.16  HD
ATOM     37 21HE GLN M   4      36.133   9.967  -3.090  1.00 21.52 LIG 0.16  HD
ATOM     38 OE1  GLN M   4      34.362   9.250  -5.456  1.00 23.11 LIG-0.27  OA
ENDBRANCH 33 34
ENDBRANCH 32 33
ENDBRANCH 1 32
BRANCH 1 39
ATOM     39  C   GLN M   4      37.193  11.449  -8.436  1.00 43.11 LIG 0.24  C 
ATOM     40  N   ASN M   5      38.461  11.483  -8.808  1.00 48.15 LIG-0.35  N 
ATOM     41 H    ASN M   5      39.129  11.271  -8.309  1.00 48.15 LIG 0.16  HD
ATOM     42 O    GLN M   4      36.267  11.647  -9.225  1.00 42.77 LIG-0.27  OA
BRANCH 40 43
ATOM     43  CA  ASN M   5      38.793  11.903 -10.155  1.00 54.08 LIG 0.18  C 
BRANCH 43 44
ATOM     44  CB  ASN M   5      39.464  13.309 -10.062  1.00 57.18 LIG 0.14  C 
BRANCH 44 45
ATOM     45  CG  ASN M   5      40.596  13.496  -9.011  1.00 60.38 LIG 0.22  C 
ATOM     46  ND2 ASN M   5      41.756  12.840  -9.066  1.00 60.67 LIG-0.37  N 
ATOM     47 22HD ASN M   5      41.899  12.271  -9.695  1.00 60.67 LIG 0.16  HD
ATOM     48 21HD ASN M   5      42.361  12.986  -8.473  1.00 60.67 LIG 0.16  HD
ATOM     49 OD1  ASN M   5      40.499  14.288  -8.069  1.00 60.50 LIG-0.27  OA
ENDBRANCH 44 45
ENDBRANCH 43 44
BRANCH 43 50
ATOM     50  C   ASN M   5      39.694  10.861 -10.788  1.00 53.60 LIG 0.24  C 
ATOM     51 O    ASN M   5      39.463  10.508 -11.943  1.00 54.31 LIG-0.27  OA
ATOM     52  N   THR M   6      40.754  10.418 -10.122  0.00 53.23 LIG-0.34  N 
ATOM     53 H    THR M   6      40.985  10.687  -9.338  0.00 53.23 LIG 0.16  HD
BRANCH 52 54
ATOM     54  CA  THR M   6      41.617   9.416 -10.704  0.00 52.61 LIG 0.21  C 
BRANCH 54 55
ATOM     55  C   THR M   6      40.882   8.073 -10.742  0.00 52.44 LIG 0.29  C 
ATOM     56  N   NH2 M   7      41.329   7.165 -11.599  0.00 52.35 LIG-0.11  N 
ATOM     57 O    THR M   6      39.879   7.840 -10.071  0.00 52.24 LIG-0.27  OA
ENDBRANCH 54 55
BRANCH 54 58
ATOM     58  CB  THR M   6      42.934   9.395  -9.866  0.00 52.38 LIG 0.15  C 
ATOM     59  CG2 THR M   6      44.158   8.806 -10.566  0.00 52.30 LIG 0.04  C 
BRANCH 58 60
ATOM     60 OG1  THR M   6      43.145  10.756  -9.515  0.00 52.26 LIG-0.39  OA
ATOM     61 HG1  THR M   6      43.016  10.857  -8.691  0.00 52.26 LIG 0.21  HD
ENDBRANCH 58 60
ENDBRANCH 54 58
ENDBRANCH 52 54
ENDBRANCH 43 50
ENDBRANCH 40 43
ENDBRANCH 1 39
TORSDOF 22
ENDMDL
MODEL 8
USER: ADFR SOLUTION from run 24
USER: SCORE 18.930061 LL:  -4.814 LR: -15.071 RR:   0.000 FEB:  -8.508
USER: RMSD 8.203555
USER: SEED 23
USER: STATUS no improvement in best in 7 clusters for 5 generations
USER: GENES 24
USER: genes 0 Translation |==|  0.44922 0.59877 0.66414
USER: genes 1 Rotation |==|  0.37435 0.68855 0.92789 0.62478
USER: genes 2 Torsion [C]-CA--N-[C] |==|  0.62240
USER: genes 3 Torsion [N]-C--CA-[N] |==|  0.14600
USER: genes 4 Torsion [N]-C--CA-[N] |==|  0.49315
USER: genes 5 Torsion [C]-CA--CB-[CG] |==|  0.76924
USER: genes 6 Torsion [CA]-CB--CG-[CD2] |==|  0.59999
USER: genes 7 Torsion [C]-CA--N-[C] |==|  0.56826
USER: genes 8 Torsion [N]-C--CA-[N] |==|  0.51111
USER: genes 9 Torsion [C]-CA--CB-[SG] |==|  0.69491
USER: genes 10 Torsion [CA]-CB--SG-[HG] |==|  0.16636
USER: genes 11 Torsion [C]-CA--N-[C] |==|  0.69263
USER: genes 12 Torsion [N]-CA--CB-[CG] |==|  0.66164
USER: genes 13 Torsion [CA]-CB--CG-[CD] |==|  0.71634
USER: genes 14 Torsion [CB]-CG--CD-[NE2] |==|  0.45938
USER: genes 15 Torsion [N]-CA--C-[N] |==|  0.43506
USER: genes 16 Torsion [C]-N--CA-[C] |==|  0.77000
USER: genes 17 Torsion [N]-CA--CB-[CG] |==|  0.48212
USER: genes 18 Torsion [CA]-CB--CG-[ND2] |==|  0.03582
USER: genes 19 Torsion [N]-CA--C-[N] |==|  0.92848
USER: genes 20 Torsion [C]-N--CA-[C] |==|  0.63406
USER: genes 21 Torsion [N]-CA--C-[N] |==|  0.39806
USER: genes 22 Torsion [N]-CA--CB-[OG1] |==|  0.86115
USER: genes 23 Torsion [CA]-CB--OG1-[HG1] |==|  0.27242
ROOT
ATOM      1  CA  GLN M   4      34.690  15.454  -7.248  1.00 40.00 LIG 0.18  C 
ENDROOT
BRANCH 1 2
ATOM      2  N   GLN M   4      34.868  14.038  -7.337  1.00 41.31 LIG-0.35  N 
ATOM      3 H    GLN M   4      35.130  13.738  -8.099  1.00 41.31 LIG 0.16  HD
ATOM      4  C   PRO M   3      34.620  13.299  -6.255  1.00 42.91 LIG 0.24  C 
ATOM      5 O    PRO M   3      34.268  13.811  -5.171  1.00 42.50 LIG-0.27  OA
BRANCH 4 6
ATOM      6  CA  PRO M   3      34.831  11.788  -6.399  1.00 43.35 LIG 0.18  C 
ATOM      7  N   PRO M   3      36.117  11.340  -6.912  1.00 44.79 LIG-0.34  N 
ATOM      8  C   HIS M   2      36.518  11.462  -8.208  1.00 46.46 LIG 0.24  C 
ATOM      9  CD  PRO M   3      36.792  10.531  -5.877  1.00 43.94 LIG 0.13  C 
ATOM     10 O    HIS M   2      35.875  12.055  -9.089  1.00 45.68 LIG-0.27  OA
ATOM     11  CG  PRO M   3      36.134  10.974  -4.604  1.00 40.61 LIG 0.02  C 
ATOM     12  CB  PRO M   3      34.733  11.004  -5.100  1.00 40.36 LIG 0.04  C 
BRANCH 8 13
ATOM     13  CA  HIS M   2      37.851  10.841  -8.557  1.00 46.79 LIG 0.18  C 
BRANCH 13 14
ATOM     14  CB  HIS M   2      38.976  11.500  -7.692  1.00 44.05 LIG 0.10  C 
BRANCH 14 15
ATOM     15  CG  HIS M   2      39.460  12.819  -8.303  1.00 42.32 LIG 0.06  A 
ATOM     16  CD2 HIS M   2      40.757  13.270  -8.277  1.00 41.49 LIG 0.14  A 
ATOM     17 NE2  HIS M   2      40.637  14.503  -8.686  1.00 41.41 LIG-0.25  NA
ATOM     18  CE1 HIS M   2      39.368  14.779  -8.949  1.00 41.50 LIG 0.23  A 
ATOM     19 ND1  HIS M   2      38.600  13.739  -8.721  1.00 40.17 LIG-0.24  NA
ENDBRANCH 14 15
ENDBRANCH 13 14
BRANCH 13 20
ATOM     20  N   HIS M   2      38.092  11.014  -9.985  1.00 53.14 LIG-0.35  N 
ATOM     21 H    HIS M   2      37.673  11.679 -10.333  1.00 53.14 LIG 0.16  HD
ATOM     22  C   CYS M   1      38.896  10.203 -10.681  0.42 52.47 LIG 0.24  C 
ATOM     23 O    CYS M   1      39.459   9.217 -10.196  0.42 50.41 LIG-0.27  OA
BRANCH 22 24
ATOM     24  CA  CYS M   1      39.048  10.603 -12.149  0.42 53.64 LIG 0.18  C 
BRANCH 24 25
ATOM     25  CB  CYS M   1      37.685  10.721 -12.790  0.42 54.18 LIG 0.10  C 
BRANCH 25 26
ATOM     26 SG   CYS M   1      37.527   9.340 -13.941  0.42 57.26 LIG-0.18  SA
ATOM     27 HG   CYS M   1      37.628   8.306 -13.342  0.42 57.26 LIG 0.10  HD
ENDBRANCH 25 26
ENDBRANCH 24 25
BRANCH 24 28
ATOM     28  N   CYS M   1      39.855   9.637 -12.879  0.42 53.99 LIG-0.38  N 
ATOM     29  C   ACE M   0      41.076   9.926 -13.329  0.42 54.55 LIG 0.04  C 
ATOM     30  CH3 ACE M   0      41.900   8.876 -14.063  0.42 54.45 LIG 0.05  C 
ATOM     31 H    CYS M   1      39.474   8.874 -12.991  0.42 53.99 LIG 0.16  HD
ENDBRANCH 24 28
ENDBRANCH 22 24
ENDBRANCH 13 20
ENDBRANCH 8 13
ENDBRANCH 4 6
ENDBRANCH 1 2
BRANCH 1 32
ATOM     32  CB  GLN M   4      36.038  16.137  -7.134  1.00 35.03 LIG 0.04  C 
BRANCH 32 33
ATOM     33  CG  GLN M   4      36.068  16.955  -5.839  1.00 28.64 LIG 0.10  C 
BRANCH 33 34
ATOM     34  CD  GLN M   4      35.863  18.440  -6.057  1.00 28.38 LIG 0.21  C 
ATOM     35  NE2 GLN M   4      35.580  19.125  -4.946  1.00 21.52 LIG-0.37  N 
ATOM     36 22HE GLN M   4      35.443  19.974  -4.988  1.00 21.52 LIG 0.16  HD
ATOM     37 21HE GLN M   4      35.534  18.719  -4.190  1.00 21.52 LIG 0.16  HD
ATOM     38 OE1  GLN M   4      35.948  18.951  -7.193  1.00 23.11 LIG-0.27  OA
ENDBRANCH 33 34
ENDBRANCH 32 33
ENDBRANCH 1 32
BRANCH 1 39
ATOM     39  C   GLN M   4      33.965  15.929  -8.493  1.00 43.11 LIG 0.24  C 
ATOM     40  N   ASN M   5      33.313  17.071  -8.359  1.00 48.15 LIG-0.35  N 
ATOM     41 H    ASN M   5      33.310  17.560  -7.651  1.00 48.15 LIG 0.16  HD
ATOM     42 O    GLN M   4      34.034  15.329  -9.568  1.00 42.77 LIG-0.27  OA
BRANCH 40 43
ATOM     43  CA  ASN M   5      32.530  17.574  -9.471  1.00 54.08 LIG 0.18  C 
BRANCH 43 44
ATOM     44  CB  ASN M   5      31.408  18.489  -8.887  1.00 57.18 LIG 0.14  C 
BRANCH 44 45
ATOM     45  CG  ASN M   5      30.524  19.274  -9.898  1.00 60.38 LIG 0.22  C 
ATOM     46  ND2 ASN M   5      30.511  19.017 -11.206  1.00 60.67 LIG-0.37  N 
ATOM     47 22HD ASN M   5      31.018  18.402 -11.529  1.00 60.67 LIG 0.16  HD
ATOM     48 21HD ASN M   5      29.994  19.465 -11.728  1.00 60.67 LIG 0.16  HD
ATOM     49 OD1  ASN M   5      29.756  20.175  -9.545  1.00 60.50 LIG-0.27  OA
ENDBRANCH 44 45
ENDBRANCH 43 44
BRANCH 43 50
ATOM     50  C   ASN M   5      33.448  18.307 -10.428  1.00 53.60 LIG 0.24  C 
ATOM     51 O    ASN M   5      33.085  18.456 -11.594  1.00 54.31 LIG-0.27  OA
ATOM     52  N   THR M   6      34.575  18.844  -9.975  0.00 53.23 LIG-0.34  N 
ATOM     53 H    THR M   6      34.834  18.816  -9.155  0.00 53.23 LIG 0.16  HD
BRANCH 52 54
ATOM     54  CA  THR M   6      35.470  19.535 -10.876  0.00 52.61 LIG 0.21  C 
BRANCH 54 55
ATOM     55  C   THR M   6      36.899  19.035 -10.656  0.00 52.44 LIG 0.29  C 
ATOM     56  N   NH2 M   7      37.672  18.925 -11.729  0.00 52.35 LIG-0.11  N 
ATOM     57 O    THR M   6      37.322  18.678  -9.558  0.00 52.24 LIG-0.27  OA
ENDBRANCH 54 55
BRANCH 54 58
ATOM     58  CB  THR M   6      35.288  21.066 -10.625  0.00 52.38 LIG 0.15  C 
ATOM     59  CG2 THR M   6      36.015  21.990 -11.600  0.00 52.30 LIG 0.04  C 
BRANCH 58 60
ATOM     60 OG1  THR M   6      33.881  21.263 -10.678  0.00 52.26 LIG-0.39  OA
ATOM     61 HG1  THR M   6      33.570  21.278  -9.898  0.00 52.26 LIG 0.21  HD
ENDBRANCH 58 60
ENDBRANCH 54 58
ENDBRANCH 52 54
ENDBRANCH 43 50
ENDBRANCH 40 43
ENDBRANCH 1 39
TORSDOF 22
ENDMDL
MODEL 9
USER: ADFR SOLUTION from run 103
USER: SCORE 18.729002 LL:  -4.798 LR: -14.963 RR:   0.000 FEB:  -8.400
USER: RMSD 9.411709
USER: SEED 102
USER: STATUS searching
USER: GENES 24
USER: genes 0 Translation |==|  0.29034 0.53259 0.63231
USER: genes 1 Rotation |==|  0.55396 0.21727 0.09182 0.52333
USER: genes 2 Torsion [C]-CA--N-[C] |==|  0.75895
USER: genes 3 Torsion [N]-C--CA-[N] |==|  0.21255
USER: genes 4 Torsion [N]-C--CA-[N] |==|  0.45825
USER: genes 5 Torsion [C]-CA--CB-[CG] |==|  0.83602
USER: genes 6 Torsion [CA]-CB--CG-[CD2] |==|  0.24946
USER: genes 7 Torsion [C]-CA--N-[C] |==|  0.49097
USER: genes 8 Torsion [N]-C--CA-[N] |==|  0.03598
USER: genes 9 Torsion [C]-CA--CB-[SG] |==|  0.78375
USER: genes 10 Torsion [CA]-CB--SG-[HG] |==|  0.30706
USER: genes 11 Torsion [C]-CA--N-[C] |==|  0.73260
USER: genes 12 Torsion [N]-CA--CB-[CG] |==|  0.44770
USER: genes 13 Torsion [CA]-CB--CG-[CD] |==|  0.43863
USER: genes 14 Torsion [CB]-CG--CD-[NE2] |==|  0.75361
USER: genes 15 Torsion [N]-CA--C-[N] |==|  0.87874
USER: genes 16 Torsion [C]-N--CA-[C] |==|  0.61111
USER: genes 17 Torsion [N]-CA--CB-[CG] |==|  0.61939
USER: genes 18 Torsion [CA]-CB--CG-[ND2] |==|  0.06892
USER: genes 19 Torsion [N]-CA--C-[N] |==|  0.42206
USER: genes 20 Torsion [C]-N--CA-[C] |==|  0.81130
USER: genes 21 Torsion [N]-CA--C-[N] |==|  0.41514
USER: genes 22 Torsion [N]-CA--CB-[OG1] |==|  0.83061
USER: genes 23 Torsion [CA]-CB--OG1-[HG1] |==|  0.65045
ROOT
ATOM      1  CA  GLN M   4      31.353  14.312  -7.964  1.00 40.00 LIG 0.18  C 
ENDROOT
BRANCH 1 2
ATOM      2  N   GLN M   4      31.997  13.068  -7.678  1.00 41.31 LIG-0.35  N 
ATOM      3 H    GLN M   4      32.554  12.787  -8.270  1.00 41.31 LIG 0.16  HD
ATOM      4  C   PRO M   3      31.696  12.446  -6.538  1.00 42.91 LIG 0.24  C 
ATOM      5 O    PRO M   3      30.896  12.934  -5.710  1.00 42.50 LIG-0.27  OA
BRANCH 4 6
ATOM      6  CA  PRO M   3      32.417  11.120  -6.273  1.00 43.35 LIG 0.18  C 
ATOM      7  N   PRO M   3      33.803  11.190  -5.838  1.00 44.79 LIG-0.34  N 
ATOM      8  C   HIS M   2      34.850  11.534  -6.639  1.00 46.46 LIG 0.24  C 
ATOM      9  CD  PRO M   3      33.913  10.602  -4.487  1.00 43.94 LIG 0.13  C 
ATOM     10 O    HIS M   2      34.738  11.921  -7.813  1.00 45.68 LIG-0.27  OA
ATOM     11  CG  PRO M   3      32.516  10.696  -3.951  1.00 40.61 LIG 0.02  C 
ATOM     12  CB  PRO M   3      31.798  10.265  -5.179  1.00 40.36 LIG 0.04  C 
BRANCH 8 13
ATOM     13  CA  HIS M   2      36.225  11.447  -6.018  1.00 46.79 LIG 0.18  C 
BRANCH 13 14
ATOM     14  CB  HIS M   2      36.408  12.615  -4.992  1.00 44.05 LIG 0.10  C 
BRANCH 14 15
ATOM     15  CG  HIS M   2      36.243  13.985  -5.659  1.00 42.32 LIG 0.06  A 
ATOM     16  CD2 HIS M   2      35.056  14.662  -5.780  1.00 41.49 LIG 0.14  A 
ATOM     17 NE2  HIS M   2      35.362  15.625  -6.606  1.00 41.41 LIG-0.25  NA
ATOM     18  CE1 HIS M   2      36.638  15.545  -6.953  1.00 41.50 LIG 0.23  A 
ATOM     19 ND1  HIS M   2      37.224  14.524  -6.371  1.00 40.17 LIG-0.24  NA
ENDBRANCH 14 15
ENDBRANCH 13 14
BRANCH 13 20
ATOM     20  N   HIS M   2      37.226  11.493  -7.078  1.00 53.14 LIG-0.35  N 
ATOM     21 H    HIS M   2      36.894  11.516  -7.871  1.00 53.14 LIG 0.16  HD
ATOM     22  C   CYS M   1      38.538  11.500  -6.826  0.42 52.47 LIG 0.24  C 
ATOM     23 O    CYS M   1      39.018  11.416  -5.691  0.42 50.41 LIG-0.27  OA
BRANCH 22 24
ATOM     24  CA  CYS M   1      39.403  11.609  -8.083  0.42 53.64 LIG 0.18  C 
BRANCH 24 25
ATOM     25  CB  CYS M   1      40.499  12.625  -7.863  0.42 54.18 LIG 0.10  C 
BRANCH 25 26
ATOM     26 SG   CYS M   1      39.744  14.255  -8.041  0.42 57.26 LIG-0.18  SA
ATOM     27 HG   CYS M   1      39.709  14.798  -6.972  0.42 57.26 LIG 0.10  HD
ENDBRANCH 25 26
ENDBRANCH 24 25
BRANCH 24 28
ATOM     28  N   CYS M   1      38.607  11.984  -9.242  0.42 53.99 LIG-0.38  N 
ATOM     29  C   ACE M   0      38.132  11.081 -10.101  0.42 54.55 LIG 0.04  C 
ATOM     30  CH3 ACE M   0      37.277  11.513 -11.285  0.42 54.45 LIG 0.05  C 
ATOM     31 H    CYS M   1      38.475  12.830  -9.319  0.42 53.99 LIG 0.16  HD
ENDBRANCH 24 28
ENDBRANCH 22 24
ENDBRANCH 13 20
ENDBRANCH 8 13
ENDBRANCH 4 6
ENDBRANCH 1 2
BRANCH 1 32
ATOM     32  CB  GLN M   4      32.238  15.158  -8.858  1.00 35.03 LIG 0.04  C 
BRANCH 32 33
ATOM     33  CG  GLN M   4      31.379  16.235  -9.526  1.00 28.64 LIG 0.10  C 
BRANCH 33 34
ATOM     34  CD  GLN M   4      32.173  17.434 -10.001  1.00 28.38 LIG 0.21  C 
ATOM     35  NE2 GLN M   4      32.320  18.395  -9.087  1.00 21.52 LIG-0.37  N 
ATOM     36 22HE GLN M   4      32.753  19.112  -9.282  1.00 21.52 LIG 0.16  HD
ATOM     37 21HE GLN M   4      31.982  18.298  -8.302  1.00 21.52 LIG 0.16  HD
ATOM     38 OE1  GLN M   4      32.632  17.495 -11.162  1.00 23.11 LIG-0.27  OA
ENDBRANCH 33 34
ENDBRANCH 32 33
ENDBRANCH 1 32
BRANCH 1 39
ATOM     39  C   GLN M   4      30.033  14.026  -8.655  1.00 43.11 LIG 0.24  C 
ATOM     40  N   ASN M   5      30.083  13.097  -9.593  1.00 48.15 LIG-0.35  N 
ATOM     41 H    ASN M   5      30.779  12.636  -9.798  1.00 48.15 LIG 0.16  HD
ATOM     42 O    GLN M   4      28.980  14.572  -8.320  1.00 42.77 LIG-0.27  OA
BRANCH 40 43
ATOM     43  CA  ASN M   5      28.889  12.802 -10.361  1.00 54.08 LIG 0.18  C 
BRANCH 43 44
ATOM     44  CB  ASN M   5      28.977  13.596 -11.702  1.00 57.18 LIG 0.14  C 
BRANCH 44 45
ATOM     45  CG  ASN M   5      27.687  14.310 -12.199  1.00 60.38 LIG 0.22  C 
ATOM     46  ND2 ASN M   5      26.704  14.689 -11.382  1.00 60.67 LIG-0.37  N 
ATOM     47 22HD ASN M   5      26.759  14.528 -10.539  1.00 60.67 LIG 0.16  HD
ATOM     48 21HD ASN M   5      26.015  15.096 -11.698  1.00 60.67 LIG 0.16  HD
ATOM     49 OD1  ASN M   5      27.503  14.592 -13.388  1.00 60.50 LIG-0.27  OA
ENDBRANCH 44 45
ENDBRANCH 43 44
BRANCH 43 50
ATOM     50  C   ASN M   5      28.796  11.303 -10.570  1.00 53.60 LIG 0.24  C 
ATOM     51 O    ASN M   5      29.828  10.637 -10.515  1.00 54.31 LIG-0.27  OA
ATOM     52  N   THR M   6      27.607  10.734 -10.723  0.00 53.23 LIG-0.34  N 
ATOM     53 H    THR M   6      26.857  11.156 -10.705  0.00 53.23 LIG 0.16  HD
BRANCH 52 54
ATOM     54  CA  THR M   6      27.500   9.308 -10.937  0.00 52.61 LIG 0.21  C 
BRANCH 54 55
ATOM     55  C   THR M   6      28.079   8.956 -12.309  0.00 52.44 LIG 0.29  C 
ATOM     56  N   NH2 M   7      28.634   7.759 -12.441  0.00 52.35 LIG-0.11  N 
ATOM     57 O    THR M   6      28.107   9.750 -13.248  0.00 52.24 LIG-0.27  OA
ENDBRANCH 54 55
BRANCH 54 58
ATOM     58  CB  THR M   6      25.995   8.926 -10.767  0.00 52.38 LIG 0.15  C 
ATOM     59  CG2 THR M   6      25.647   7.463 -11.037  0.00 52.30 LIG 0.04  C 
BRANCH 58 60
ATOM     60 OG1  THR M   6      25.693   9.290  -9.426  0.00 52.26 LIG-0.39  OA
ATOM     61 HG1  THR M   6      25.369   8.628  -9.022  0.00 52.26 LIG 0.21  HD
ENDBRANCH 58 60
ENDBRANCH 54 58
ENDBRANCH 52 54
ENDBRANCH 43 50
ENDBRANCH 40 43
ENDBRANCH 1 39
TORSDOF 22
ENDMDL
MODEL 10
USER: ADFR SOLUTION from run 35
USER: SCORE 18.732374 LL:  -4.733 LR: -14.862 RR:   0.000 FEB:  -8.300
USER: RMSD 8.222900
USER: SEED 34
USER: STATUS no improvement in best in 3 clusters for 5 generations
USER: GENES 24
USER: genes 0 Translation |==|  0.46191 0.41973 0.66680
USER: genes 1 Rotation |==|  0.29365 0.22231 0.82972 0.64693
USER: genes 2 Torsion [C]-CA--N-[C] |==|  0.16293
USER: genes 3 Torsion [N]-C--CA-[N] |==|  0.04032
USER: genes 4 Torsion [N]-C--CA-[N] |==|  0.38739
USER: genes 5 Torsion [C]-CA--CB-[CG] |==|  0.53055
USER: genes 6 Torsion [CA]-CB--CG-[CD2] |==|  0.70192
USER: genes 7 Torsion [C]-CA--N-[C] |==|  0.82000
USER: genes 8 Torsion [N]-C--CA-[N] |==|  0.91794
USER: genes 9 Torsion [C]-CA--CB-[SG] |==|  0.83765
USER: genes 10 Torsion [CA]-CB--SG-[HG] |==|  0.87022
USER: genes 11 Torsion [C]-CA--N-[C] |==|  0.66927
USER: genes 12 Torsion [N]-CA--CB-[CG] |==|  0.85633
USER: genes 13 Torsion [CA]-CB--CG-[CD] |==|  0.34201
USER: genes 14 Torsion [CB]-CG--CD-[NE2] |==|  0.31855
USER: genes 15 Torsion [N]-CA--C-[N] |==|  0.07222
USER: genes 16 Torsion [C]-N--CA-[C] |==|  0.70418
USER: genes 17 Torsion [N]-CA--CB-[CG] |==|  0.69212
USER: genes 18 Torsion [CA]-CB--CG-[ND2] |==|  0.68435
USER: genes 19 Torsion [N]-CA--C-[N] |==|  0.27424
USER: genes 20 Torsion [C]-N--CA-[C] |==|  0.75041
USER: genes 21 Torsion [N]-CA--C-[N] |==|  0.38688
USER: genes 22 Torsion [N]-CA--CB-[OG1] |==|  0.98506
USER: genes 23 Torsion [CA]-CB--OG1-[HG1] |==|  0.83898
ROOT
ATOM      1  CA  GLN M   4      34.956  12.365  -7.188  1.00 40.00 LIG 0.18  C 
ENDROOT
BRANCH 1 2
ATOM      2  N   GLN M   4      36.240  12.453  -7.812  1.00 41.31 LIG-0.35  N 
ATOM      3 H    GLN M   4      36.328  12.025  -8.553  1.00 41.31 LIG 0.16  HD
ATOM      4  C   PRO M   3      37.188  13.174  -7.214  1.00 42.91 LIG 0.24  C 
ATOM      5 O    PRO M   3      36.974  13.793  -6.149  1.00 42.50 LIG-0.27  OA
BRANCH 4 6
ATOM      6  CA  PRO M   3      38.544  13.242  -7.924  1.00 43.35 LIG 0.18  C 
ATOM      7  N   PRO M   3      38.592  12.805  -9.311  1.00 44.79 LIG-0.34  N 
ATOM      8  C   HIS M   2      38.507  11.508  -9.717  1.00 46.46 LIG 0.24  C 
ATOM      9  CD  PRO M   3      38.986  13.946 -10.161  1.00 43.94 LIG 0.13  C 
ATOM     10 O    HIS M   2      38.284  10.548  -8.962  1.00 45.68 LIG-0.27  OA
ATOM     11  CG  PRO M   3      38.634  15.142  -9.326  1.00 40.61 LIG 0.02  C 
ATOM     12  CB  PRO M   3      39.142  14.636  -8.025  1.00 40.36 LIG 0.04  C 
BRANCH 8 13
ATOM     13  CA  HIS M   2      38.681  11.257 -11.198  1.00 46.79 LIG 0.18  C 
BRANCH 13 14
ATOM     14  CB  HIS M   2      37.274  11.125 -11.873  1.00 44.05 LIG 0.10  C 
BRANCH 14 15
ATOM     15  CG  HIS M   2      37.383  10.605 -13.310  1.00 42.32 LIG 0.06  A 
ATOM     16  CD2 HIS M   2      37.184  11.362 -14.438  1.00 41.49 LIG 0.14  A 
ATOM     17 NE2  HIS M   2      37.142  10.461 -15.380  1.00 41.41 LIG-0.25  NA
ATOM     18  CE1 HIS M   2      37.310   9.251 -14.868  1.00 41.50 LIG 0.23  A 
ATOM     19 ND1  HIS M   2      37.469   9.306 -13.565  1.00 40.17 LIG-0.24  NA
ENDBRANCH 14 15
ENDBRANCH 13 14
BRANCH 13 20
ATOM     20  N   HIS M   2      39.486  10.056 -11.382  1.00 53.14 LIG-0.35  N 
ATOM     21 H    HIS M   2      39.067   9.408 -11.760  1.00 53.14 LIG 0.16  HD
ATOM     22  C   CYS M   1      40.763   9.981 -10.994  0.42 52.47 LIG 0.24  C 
ATOM     23 O    CYS M   1      41.354  10.892 -10.405  0.42 50.41 LIG-0.27  OA
BRANCH 22 24
ATOM     24  CA  CYS M   1      41.431   8.649 -11.336  0.42 53.64 LIG 0.18  C 
BRANCH 24 25
ATOM     25  CB  CYS M   1      42.115   8.750 -12.680  0.42 54.18 LIG 0.10  C 
BRANCH 25 26
ATOM     26 SG   CYS M   1      40.844   9.194 -13.881  0.42 57.26 LIG-0.18  SA
ATOM     27 HG   CYS M   1      39.880   8.498 -13.720  0.42 57.26 LIG 0.10  HD
ENDBRANCH 25 26
ENDBRANCH 24 25
BRANCH 24 28
ATOM     28  N   CYS M   1      40.465   7.561 -11.355  0.42 53.99 LIG-0.38  N 
ATOM     29  C   ACE M   0      40.556   6.514 -10.535  0.42 54.55 LIG 0.04  C 
ATOM     30  CH3 ACE M   0      39.506   5.411 -10.566  0.42 54.45 LIG 0.05  C 
ATOM     31 H    CYS M   1      39.839   7.657 -11.937  0.42 53.99 LIG 0.16  HD
ENDBRANCH 24 28
ENDBRANCH 22 24
ENDBRANCH 13 20
ENDBRANCH 8 13
ENDBRANCH 4 6
ENDBRANCH 1 2
BRANCH 1 32
ATOM     32  CB  GLN M   4      35.086  11.705  -5.830  1.00 35.03 LIG 0.04  C 
BRANCH 32 33
ATOM     33  CG  GLN M   4      35.850  10.387  -5.993  1.00 28.64 LIG 0.10  C 
BRANCH 33 34
ATOM     34  CD  GLN M   4      37.096  10.300  -5.136  1.00 28.38 LIG 0.21  C 
ATOM     35  NE2 GLN M   4      37.049   9.358  -4.191  1.00 21.52 LIG-0.37  N 
ATOM     36 22HE GLN M   4      37.716   9.250  -3.659  1.00 21.52 LIG 0.16  HD
ATOM     37 21HE GLN M   4      36.352   8.859  -4.115  1.00 21.52 LIG 0.16  HD
ATOM     38 OE1  GLN M   4      38.067  11.065  -5.316  1.00 23.11 LIG-0.27  OA
ENDBRANCH 33 34
ENDBRANCH 32 33
ENDBRANCH 1 32
BRANCH 1 39
ATOM     39  C   GLN M   4      34.395  13.767  -7.037  1.00 43.11 LIG 0.24  C 
ATOM     40  N   ASN M   5      34.847  14.648  -7.912  1.00 48.15 LIG-0.35  N 
ATOM     41 H    ASN M   5      35.385  14.471  -8.560  1.00 48.15 LIG 0.16  HD
ATOM     42 O    GLN M   4      33.533  14.048  -6.202  1.00 42.77 LIG-0.27  OA
BRANCH 40 43
ATOM     43  CA  ASN M   5      34.427  16.031  -7.807  1.00 54.08 LIG 0.18  C 
BRANCH 43 44
ATOM     44  CB  ASN M   5      35.706  16.924  -7.878  1.00 57.18 LIG 0.14  C 
BRANCH 44 45
ATOM     45  CG  ASN M   5      36.131  17.674  -6.583  1.00 60.38 LIG 0.22  C 
ATOM     46  ND2 ASN M   5      36.105  19.002  -6.469  1.00 60.67 LIG-0.37  N 
ATOM     47 22HD ASN M   5      35.859  19.486  -7.136  1.00 60.67 LIG 0.16  HD
ATOM     48 21HD ASN M   5      36.333  19.375  -5.729  1.00 60.67 LIG 0.16  HD
ATOM     49 OD1  ASN M   5      36.499  17.079  -5.565  1.00 60.50 LIG-0.27  OA
ENDBRANCH 44 45
ENDBRANCH 43 44
BRANCH 43 50
ATOM     50  C   ASN M   5      33.437  16.331  -8.915  1.00 53.60 LIG 0.24  C 
ATOM     51 O    ASN M   5      33.867  16.508 -10.054  1.00 54.31 LIG-0.27  OA
ATOM     52  N   THR M   6      32.136  16.312  -8.656  0.00 53.23 LIG-0.34  N 
ATOM     53 H    THR M   6      31.793  16.130  -7.888  0.00 53.23 LIG 0.16  HD
BRANCH 52 54
ATOM     54  CA  THR M   6      31.178  16.608  -9.698  0.00 52.61 LIG 0.21  C 
BRANCH 54 55
ATOM     55  C   THR M   6      30.894  18.112  -9.713  0.00 52.44 LIG 0.29  C 
ATOM     56  N   NH2 M   7      30.789  18.694 -10.901  0.00 52.35 LIG-0.11  N 
ATOM     57 O    THR M   6      30.829  18.792  -8.691  0.00 52.24 LIG-0.27  OA
ENDBRANCH 54 55
BRANCH 54 58
ATOM     58  CB  THR M   6      29.916  15.728  -9.431  0.00 52.38 LIG 0.15  C 
ATOM     59  CG2 THR M   6      29.427  14.893 -10.614  0.00 52.30 LIG 0.04  C 
BRANCH 58 60
ATOM     60 OG1  THR M   6      30.292  14.902  -8.337  0.00 52.26 LIG-0.39  OA
ATOM     61 HG1  THR M   6      30.977  14.460  -8.541  0.00 52.26 LIG 0.21  HD
ENDBRANCH 58 60
ENDBRANCH 54 58
ENDBRANCH 52 54
ENDBRANCH 43 50
ENDBRANCH 40 43
ENDBRANCH 1 39
TORSDOF 22
ENDMDL
MODEL 11
USER: ADFR SOLUTION from run 81
USER: SCORE 19.062211 LL:  -4.953 LR: -14.821 RR:   0.000 FEB:  -8.258
USER: RMSD 4.716474
USER: SEED 80
USER: STATUS searching
USER: GENES 24
USER: genes 0 Translation |==|  0.55873 0.33561 0.70960
USER: genes 1 Rotation |==|  0.61136 0.76549 0.57093 0.90260
USER: genes 2 Torsion [C]-CA--N-[C] |==|  0.76593
USER: genes 3 Torsion [N]-C--CA-[N] |==|  0.78189
USER: genes 4 Torsion [N]-C--CA-[N] |==|  0.50898
USER: genes 5 Torsion [C]-CA--CB-[CG] |==|  0.37141
USER: genes 6 Torsion [CA]-CB--CG-[CD2] |==|  0.96233
USER: genes 7 Torsion [C]-CA--N-[C] |==|  0.66304
USER: genes 8 Torsion [N]-C--CA-[N] |==|  0.43889
USER: genes 9 Torsion [C]-CA--CB-[SG] |==|  0.56428
USER: genes 10 Torsion [CA]-CB--SG-[HG] |==|  0.16711
USER: genes 11 Torsion [C]-CA--N-[C] |==|  0.79883
USER: genes 12 Torsion [N]-CA--CB-[CG] |==|  0.83796
USER: genes 13 Torsion [CA]-CB--CG-[CD] |==|  0.20457
USER: genes 14 Torsion [CB]-CG--CD-[NE2] |==|  0.59582
USER: genes 15 Torsion [N]-CA--C-[N] |==|  0.42108
USER: genes 16 Torsion [C]-N--CA-[C] |==|  0.15734
USER: genes 17 Torsion [N]-CA--CB-[CG] |==|  0.70077
USER: genes 18 Torsion [CA]-CB--CG-[ND2] |==|  0.52628
USER: genes 19 Torsion [N]-CA--C-[N] |==|  0.09034
USER: genes 20 Torsion [C]-N--CA-[C] |==|  0.17425
USER: genes 21 Torsion [N]-CA--C-[N] |==|  0.06431
USER: genes 22 Torsion [N]-CA--CB-[OG1] |==|  0.89080
USER: genes 23 Torsion [CA]-CB--OG1-[HG1] |==|  0.24755
ROOT
ATOM      1  CA  GLN M   4      36.989  10.914  -6.225  1.00 40.00 LIG 0.18  C 
ENDROOT
BRANCH 1 2
ATOM      2  N   GLN M   4      35.741  11.554  -5.949  1.00 41.31 LIG-0.35  N 
ATOM      3 H    GLN M   4      35.040  11.063  -6.031  1.00 41.31 LIG 0.16  HD
ATOM      4  C   PRO M   3      35.752  12.839  -5.593  1.00 42.91 LIG 0.24  C 
ATOM      5 O    PRO M   3      36.817  13.481  -5.468  1.00 42.50 LIG-0.27  OA
BRANCH 4 6
ATOM      6  CA  PRO M   3      34.390  13.478  -5.303  1.00 43.35 LIG 0.18  C 
ATOM      7  N   PRO M   3      33.580  13.870  -6.447  1.00 44.79 LIG-0.34  N 
ATOM      8  C   HIS M   2      33.845  14.935  -7.253  1.00 46.46 LIG 0.24  C 
ATOM      9  CD  PRO M   3      32.325  13.093  -6.437  1.00 43.94 LIG 0.13  C 
ATOM     10 O    HIS M   2      34.860  15.646  -7.169  1.00 45.68 LIG-0.27  OA
ATOM     11  CG  PRO M   3      32.665  11.891  -5.606  1.00 40.61 LIG 0.02  C 
ATOM     12  CB  PRO M   3      33.420  12.593  -4.535  1.00 40.36 LIG 0.04  C 
BRANCH 8 13
ATOM     13  CA  HIS M   2      32.823  15.233  -8.327  1.00 46.79 LIG 0.18  C 
BRANCH 13 14
ATOM     14  CB  HIS M   2      32.582  13.947  -9.187  1.00 44.05 LIG 0.10  C 
BRANCH 14 15
ATOM     15  CG  HIS M   2      31.088  13.688  -9.409  1.00 42.32 LIG 0.06  A 
ATOM     16  CD2 HIS M   2      30.072  14.302  -8.720  1.00 41.49 LIG 0.14  A 
ATOM     17 NE2  HIS M   2      29.028  13.603  -9.070  1.00 41.41 LIG-0.25  NA
ATOM     18  CE1 HIS M   2      29.379  12.643  -9.913  1.00 41.50 LIG 0.23  A 
ATOM     19 ND1  HIS M   2      30.670  12.670 -10.151  1.00 40.17 LIG-0.24  NA
ENDBRANCH 14 15
ENDBRANCH 13 14
BRANCH 13 20
ATOM     20  N   HIS M   2      33.301  16.347  -9.138  1.00 53.14 LIG-0.35  N 
ATOM     21 H    HIS M   2      34.060  16.204  -9.515  1.00 53.14 LIG 0.16  HD
ATOM     22  C   CYS M   1      32.611  17.483  -9.274  0.42 52.47 LIG 0.24  C 
ATOM     23 O    CYS M   1      31.545  17.711  -8.693  0.42 50.41 LIG-0.27  OA
BRANCH 22 24
ATOM     24  CA  CYS M   1      33.271  18.492 -10.214  0.42 53.64 LIG 0.18  C 
BRANCH 24 25
ATOM     25  CB  CYS M   1      34.372  19.227  -9.484  0.42 54.18 LIG 0.10  C 
BRANCH 25 26
ATOM     26 SG   CYS M   1      34.619  20.791 -10.351  0.42 57.26 LIG-0.18  SA
ATOM     27 HG   CYS M   1      33.601  21.426 -10.330  0.42 57.26 LIG 0.10  HD
ENDBRANCH 25 26
ENDBRANCH 24 25
BRANCH 24 28
ATOM     28  N   CYS M   1      32.301  19.445 -10.734  0.42 53.99 LIG-0.38  N 
ATOM     29  C   ACE M   0      31.388  19.105 -11.644  0.42 54.55 LIG 0.04  C 
ATOM     30  CH3 ACE M   0      30.372  20.125 -12.140  0.42 54.45 LIG 0.05  C 
ATOM     31 H    CYS M   1      32.373  20.235 -10.403  0.42 53.99 LIG 0.16  HD
ENDBRANCH 24 28
ENDBRANCH 22 24
ENDBRANCH 13 20
ENDBRANCH 8 13
ENDBRANCH 4 6
ENDBRANCH 1 2
BRANCH 1 32
ATOM     32  CB  GLN M   4      36.863   9.420  -6.007  1.00 35.03 LIG 0.04  C 
BRANCH 32 33
ATOM     33  CG  GLN M   4      36.425   9.168  -4.561  1.00 28.64 LIG 0.10  C 
BRANCH 33 34
ATOM     34  CD  GLN M   4      34.972   9.507  -4.300  1.00 28.38 LIG 0.21  C 
ATOM     35  NE2 GLN M   4      34.731   9.997  -3.082  1.00 21.52 LIG-0.37  N 
ATOM     36 22HE GLN M   4      33.928  10.208  -2.855  1.00 21.52 LIG 0.16  HD
ATOM     37 21HE GLN M   4      35.377  10.102  -2.524  1.00 21.52 LIG 0.16  HD
ATOM     38 OE1  GLN M   4      34.093   9.324  -5.169  1.00 23.11 LIG-0.27  OA
ENDBRANCH 33 34
ENDBRANCH 32 33
ENDBRANCH 1 32
BRANCH 1 39
ATOM     39  C   GLN M   4      37.374  11.203  -7.664  1.00 43.11 LIG 0.24  C 
ATOM     40  N   ASN M   5      38.673  11.213  -7.905  1.00 48.15 LIG-0.35  N 
ATOM     41 H    ASN M   5      39.285  11.033  -7.328  1.00 48.15 LIG 0.16  HD
ATOM     42 O    GLN M   4      36.535  11.351  -8.555  1.00 42.77 LIG-0.27  OA
BRANCH 40 43
ATOM     43  CA  ASN M   5      39.144  11.549  -9.234  1.00 54.08 LIG 0.18  C 
BRANCH 43 44
ATOM     44  CB  ASN M   5      38.674  10.421 -10.205  1.00 57.18 LIG 0.14  C 
BRANCH 44 45
ATOM     45  CG  ASN M   5      39.756   9.441 -10.744  1.00 60.38 LIG 0.22  C 
ATOM     46  ND2 ASN M   5      39.519   8.557 -11.714  1.00 60.67 LIG-0.37  N 
ATOM     47 22HD ASN M   5      38.734   8.499 -12.060  1.00 60.67 LIG 0.16  HD
ATOM     48 21HD ASN M   5      40.151   8.045 -11.993  1.00 60.67 LIG 0.16  HD
ATOM     49 OD1  ASN M   5      40.917   9.439 -10.321  1.00 60.50 LIG-0.27  OA
ENDBRANCH 44 45
ENDBRANCH 43 44
BRANCH 43 50
ATOM     50  C   ASN M   5      38.608  12.915  -9.615  1.00 53.60 LIG 0.24  C 
ATOM     51 O    ASN M   5      38.277  13.111 -10.784  1.00 54.31 LIG-0.27  OA
ATOM     52  N   THR M   6      38.426  13.835  -8.676  0.00 53.23 LIG-0.34  N 
ATOM     53 H    THR M   6      38.585  13.716  -7.839  0.00 53.23 LIG 0.16  HD
BRANCH 52 54
ATOM     54  CA  THR M   6      37.928  15.146  -9.023  0.00 52.61 LIG 0.21  C 
BRANCH 54 55
ATOM     55  C   THR M   6      36.521  15.016  -9.611  0.00 52.44 LIG 0.29  C 
ATOM     56  N   NH2 M   7      35.830  13.932  -9.288  0.00 52.35 LIG-0.11  N 
ATOM     57 O    THR M   6      36.049  15.829 -10.404  0.00 52.24 LIG-0.27  OA
ENDBRANCH 54 55
BRANCH 54 58
ATOM     58  CB  THR M   6      38.965  15.793  -9.997  0.00 52.38 LIG 0.15  C 
ATOM     59  CG2 THR M   6      38.873  17.310 -10.152  0.00 52.30 LIG 0.04  C 
BRANCH 58 60
ATOM     60 OG1  THR M   6      40.227  15.402  -9.471  0.00 52.26 LIG-0.39  OA
ATOM     61 HG1  THR M   6      40.455  14.667  -9.806  0.00 52.26 LIG 0.21  HD
ENDBRANCH 58 60
ENDBRANCH 54 58
ENDBRANCH 52 54
ENDBRANCH 43 50
ENDBRANCH 40 43
ENDBRANCH 1 39
TORSDOF 22
ENDMDL
MODEL 12
USER: ADFR SOLUTION from run 26
USER: SCORE 18.694953 LL:  -4.887 LR: -14.816 RR:   0.000 FEB:  -8.253
USER: RMSD 8.331035
USER: SEED 25
USER: STATUS no improvement in best in 7 clusters for 5 generations
USER: GENES 24
USER: genes 0 Translation |==|  0.50315 0.60184 0.61368
USER: genes 1 Rotation |==|  0.49868 0.26088 0.10353 0.68877
USER: genes 2 Torsion [C]-CA--N-[C] |==|  0.74649
USER: genes 3 Torsion [N]-C--CA-[N] |==|  0.95367
USER: genes 4 Torsion [N]-C--CA-[N] |==|  0.26574
USER: genes 5 Torsion [C]-CA--CB-[CG] |==|  0.50902
USER: genes 6 Torsion [CA]-CB--CG-[CD2] |==|  0.76719
USER: genes 7 Torsion [C]-CA--N-[C] |==|  0.70427
USER: genes 8 Torsion [N]-C--CA-[N] |==|  0.03090
USER: genes 9 Torsion [C]-CA--CB-[SG] |==|  0.85885
USER: genes 10 Torsion [CA]-CB--SG-[HG] |==|  0.88254
USER: genes 11 Torsion [C]-CA--N-[C] |==|  0.59447
USER: genes 12 Torsion [N]-CA--CB-[CG] |==|  0.71749
USER: genes 13 Torsion [CA]-CB--CG-[CD] |==|  0.81321
USER: genes 14 Torsion [CB]-CG--CD-[NE2] |==|  0.44491
USER: genes 15 Torsion [N]-CA--C-[N] |==|  0.43293
USER: genes 16 Torsion [C]-N--CA-[C] |==|  0.14807
USER: genes 17 Torsion [N]-CA--CB-[CG] |==|  0.63765
USER: genes 18 Torsion [CA]-CB--CG-[ND2] |==|  0.26457
USER: genes 19 Torsion [N]-CA--C-[N] |==|  0.10638
USER: genes 20 Torsion [C]-N--CA-[C] |==|  0.83805
USER: genes 21 Torsion [N]-CA--C-[N] |==|  0.38620
USER: genes 22 Torsion [N]-CA--CB-[OG1] |==|  0.03686
USER: genes 23 Torsion [CA]-CB--OG1-[HG1] |==|  0.50484
ROOT
ATOM      1  CA  GLN M   4      35.822  15.507  -8.383  1.00 40.00 LIG 0.18  C 
ENDROOT
BRANCH 1 2
ATOM      2  N   GLN M   4      36.952  14.676  -8.664  1.00 41.31 LIG-0.35  N 
ATOM      3 H    GLN M   4      37.131  14.553  -9.496  1.00 41.31 LIG 0.16  HD
ATOM      4  C   PRO M   3      37.632  14.164  -7.638  1.00 42.91 LIG 0.24  C 
ATOM      5 O    PRO M   3      37.327  14.413  -6.452  1.00 42.50 LIG-0.27  OA
BRANCH 4 6
ATOM      6  CA  PRO M   3      38.838  13.286  -7.990  1.00 43.35 LIG 0.18  C 
ATOM      7  N   PRO M   3      38.921  12.783  -9.353  1.00 44.79 LIG-0.34  N 
ATOM      8  C   HIS M   2      38.128  11.802  -9.866  1.00 46.46 LIG 0.24  C 
ATOM      9  CD  PRO M   3      40.138  13.324  -9.991  1.00 43.94 LIG 0.13  C 
ATOM     10 O    HIS M   2      37.175  11.282  -9.263  1.00 45.68 LIG-0.27  OA
ATOM     11  CG  PRO M   3      40.444  14.547  -9.178  1.00 40.61 LIG 0.02  C 
ATOM     12  CB  PRO M   3      40.189  13.965  -7.835  1.00 40.36 LIG 0.04  C 
BRANCH 8 13
ATOM     13  CA  HIS M   2      38.443  11.353 -11.275  1.00 46.79 LIG 0.18  C 
BRANCH 13 14
ATOM     14  CB  HIS M   2      37.109  11.071 -12.043  1.00 44.05 LIG 0.10  C 
BRANCH 14 15
ATOM     15  CG  HIS M   2      37.372  10.535 -13.454  1.00 42.32 LIG 0.06  A 
ATOM     16  CD2 HIS M   2      37.633  11.313 -14.555  1.00 41.49 LIG 0.14  A 
ATOM     17 NE2  HIS M   2      37.544  10.456 -15.535  1.00 41.41 LIG-0.25  NA
ATOM     18  CE1 HIS M   2      37.260   9.250 -15.067  1.00 41.50 LIG 0.23  A 
ATOM     19 ND1  HIS M   2      37.148   9.263 -13.759  1.00 40.17 LIG-0.24  NA
ENDBRANCH 14 15
ENDBRANCH 13 14
BRANCH 13 20
ATOM     20  N   HIS M   2      39.296  10.172 -11.214  1.00 53.14 LIG-0.35  N 
ATOM     21 H    HIS M   2      38.886   9.457 -10.974  1.00 53.14 LIG 0.16  HD
ATOM     22  C   CYS M   1      40.600  10.212 -11.509  0.42 52.47 LIG 0.24  C 
ATOM     23 O    CYS M   1      41.203  11.249 -11.805  0.42 50.41 LIG-0.27  OA
BRANCH 22 24
ATOM     24  CA  CYS M   1      41.287   8.849 -11.434  0.42 53.64 LIG 0.18  C 
BRANCH 24 25
ATOM     25  CB  CYS M   1      42.136   8.636 -12.666  0.42 54.18 LIG 0.10  C 
BRANCH 25 26
ATOM     26 SG   CYS M   1      41.084   8.980 -14.091  0.42 57.26 LIG-0.18  SA
ATOM     27 HG   CYS M   1      40.000   8.498 -13.915  0.42 57.26 LIG 0.10  HD
ENDBRANCH 25 26
ENDBRANCH 24 25
BRANCH 24 28
ATOM     28  N   CYS M   1      40.316   7.772 -11.311  0.42 53.99 LIG-0.38  N 
ATOM     29  C   ACE M   0      40.562   6.669 -10.605  0.42 54.55 LIG 0.04  C 
ATOM     30  CH3 ACE M   0      39.506   5.579 -10.478  0.42 54.45 LIG 0.05  C 
ATOM     31 H    CYS M   1      39.579   7.914 -11.733  0.42 53.99 LIG 0.16  HD
ENDBRANCH 24 28
ENDBRANCH 22 24
ENDBRANCH 13 20
ENDBRANCH 8 13
ENDBRANCH 4 6
ENDBRANCH 1 2
BRANCH 1 32
ATOM     32  CB  GLN M   4      35.676  16.561  -9.463  1.00 35.03 LIG 0.04  C 
BRANCH 32 33
ATOM     33  CG  GLN M   4      36.222  17.889  -8.932  1.00 28.64 LIG 0.10  C 
BRANCH 33 34
ATOM     34  CD  GLN M   4      35.396  18.476  -7.806  1.00 28.38 LIG 0.21  C 
ATOM     35  NE2 GLN M   4      36.042  19.375  -7.059  1.00 21.52 LIG-0.37  N 
ATOM     36 22HE GLN M   4      35.643  19.749  -6.396  1.00 21.52 LIG 0.16  HD
ATOM     37 21HE GLN M   4      36.857  19.580  -7.242  1.00 21.52 LIG 0.16  HD
ATOM     38 OE1  GLN M   4      34.214  18.123  -7.611  1.00 23.11 LIG-0.27  OA
ENDBRANCH 33 34
ENDBRANCH 32 33
ENDBRANCH 1 32
BRANCH 1 39
ATOM     39  C   GLN M   4      34.581  14.635  -8.331  1.00 43.11 LIG 0.24  C 
ATOM     40  N   ASN M   5      33.583  15.125  -7.618  1.00 48.15 LIG-0.35  N 
ATOM     41 H    ASN M   5      33.579  15.895  -7.233  1.00 48.15 LIG 0.16  HD
ATOM     42 O    GLN M   4      34.489  13.579  -8.960  1.00 42.77 LIG-0.27  OA
BRANCH 40 43
ATOM     43  CA  ASN M   5      32.380  14.335  -7.448  1.00 54.08 LIG 0.18  C 
BRANCH 43 44
ATOM     44  CB  ASN M   5      31.656  14.266  -8.830  1.00 57.18 LIG 0.14  C 
BRANCH 44 45
ATOM     45  CG  ASN M   5      30.138  14.605  -8.863  1.00 60.38 LIG 0.22  C 
ATOM     46  ND2 ASN M   5      29.669  15.817  -9.160  1.00 60.67 LIG-0.37  N 
ATOM     47 22HD ASN M   5      30.215  16.460  -9.329  1.00 60.67 LIG 0.16  HD
ATOM     48 21HD ASN M   5      28.821  15.957  -9.182  1.00 60.67 LIG 0.16  HD
ATOM     49 OD1  ASN M   5      29.266  13.759  -8.638  1.00 60.50 LIG-0.27  OA
ENDBRANCH 44 45
ENDBRANCH 43 44
BRANCH 43 50
ATOM     50  C   ASN M   5      32.760  12.968  -6.914  1.00 53.60 LIG 0.24  C 
ATOM     51 O    ASN M   5      32.207  11.977  -7.389  1.00 54.31 LIG-0.27  OA
ATOM     52  N   THR M   6      33.732  12.861  -6.017  0.00 53.23 LIG-0.34  N 
ATOM     53 H    THR M   6      34.186  13.523  -5.707  0.00 53.23 LIG 0.16  HD
BRANCH 52 54
ATOM     54  CA  THR M   6      34.099  11.567  -5.487  0.00 52.61 LIG 0.21  C 
BRANCH 54 55
ATOM     55  C   THR M   6      32.877  10.923  -4.828  0.00 52.44 LIG 0.29  C 
ATOM     56  N   NH2 M   7      32.696   9.625  -5.030  0.00 52.35 LIG-0.11  N 
ATOM     57 O    THR M   6      32.045  11.565  -4.189  0.00 52.24 LIG-0.27  OA
ENDBRANCH 54 55
BRANCH 54 58
ATOM     58  CB  THR M   6      35.302  11.789  -4.515  0.00 52.38 LIG 0.15  C 
ATOM     59  CG2 THR M   6      36.653  11.268  -5.002  0.00 52.30 LIG 0.04  C 
BRANCH 58 60
ATOM     60 OG1  THR M   6      35.332  13.195  -4.314  0.00 52.26 LIG-0.39  OA
ATOM     61 HG1  THR M   6      35.977  13.393  -3.814  0.00 52.26 LIG 0.21  HD
ENDBRANCH 58 60
ENDBRANCH 54 58
ENDBRANCH 52 54
ENDBRANCH 43 50
ENDBRANCH 40 43
ENDBRANCH 1 39
TORSDOF 22
ENDMDL
MODEL 13
USER: ADFR SOLUTION from run 129
USER: SCORE 18.585293 LL:  -4.224 LR: -14.813 RR:   0.000 FEB:  -8.251
USER: RMSD 4.500066
USER: SEED 128
USER: STATUS no improvement in best in 4 clusters for 5 generations
USER: GENES 24
USER: genes 0 Translation |==|  0.54142 0.36377 0.67269
USER: genes 1 Rotation |==|  0.59282 0.73716 0.57993 0.92279
USER: genes 2 Torsion [C]-CA--N-[C] |==|  0.71597
USER: genes 3 Torsion [N]-C--CA-[N] |==|  0.80021
USER: genes 4 Torsion [N]-C--CA-[N] |==|  0.86759
USER: genes 5 Torsion [C]-CA--CB-[CG] |==|  0.36971
USER: genes 6 Torsion [CA]-CB--CG-[CD2] |==|  0.58984
USER: genes 7 Torsion [C]-CA--N-[C] |==|  0.84696
USER: genes 8 Torsion [N]-C--CA-[N] |==|  0.99602
USER: genes 9 Torsion [C]-CA--CB-[SG] |==|  0.51200
USER: genes 10 Torsion [CA]-CB--SG-[HG] |==|  0.05299
USER: genes 11 Torsion [C]-CA--N-[C] |==|  0.76654
USER: genes 12 Torsion [N]-CA--CB-[CG] |==|  0.74537
USER: genes 13 Torsion [CA]-CB--CG-[CD] |==|  0.96002
USER: genes 14 Torsion [CB]-CG--CD-[NE2] |==|  0.36320
USER: genes 15 Torsion [N]-CA--C-[N] |==|  0.42656
USER: genes 16 Torsion [C]-N--CA-[C] |==|  0.77780
USER: genes 17 Torsion [N]-CA--CB-[CG] |==|  0.82902
USER: genes 18 Torsion [CA]-CB--CG-[ND2] |==|  0.26874
USER: genes 19 Torsion [N]-CA--C-[N] |==|  0.41135
USER: genes 20 Torsion [C]-N--CA-[C] |==|  0.72915
USER: genes 21 Torsion [N]-CA--C-[N] |==|  0.31231
USER: genes 22 Torsion [N]-CA--CB-[OG1] |==|  0.69840
USER: genes 23 Torsion [CA]-CB--OG1-[HG1] |==|  0.87725
ROOT
ATOM      1  CA  GLN M   4      36.626  11.400  -7.055  1.00 40.00 LIG 0.18  C 
ENDROOT
BRANCH 1 2
ATOM      2  N   GLN M   4      35.332  12.007  -7.001  1.00 41.31 LIG-0.35  N 
ATOM      3 H    GLN M   4      34.697  11.575  -7.389  1.00 41.31 LIG 0.16  HD
ATOM      4  C   PRO M   3      35.204  13.172  -6.367  1.00 42.91 LIG 0.24  C 
ATOM      5 O    PRO M   3      36.171  13.726  -5.800  1.00 42.50 LIG-0.27  OA
BRANCH 4 6
ATOM      6  CA  PRO M   3      33.798  13.779  -6.331  1.00 43.35 LIG 0.18  C 
ATOM      7  N   PRO M   3      33.277  14.327  -7.574  1.00 44.79 LIG-0.34  N 
ATOM      8  C   HIS M   2      33.701  15.487  -8.147  1.00 46.46 LIG 0.24  C 
ATOM      9  CD  PRO M   3      32.074  13.565  -7.968  1.00 43.94 LIG 0.13  C 
ATOM     10 O    HIS M   2      34.650  16.171  -7.729  1.00 45.68 LIG-0.27  OA
ATOM     11  CG  PRO M   3      32.233  12.261  -7.244  1.00 40.61 LIG 0.02  C 
ATOM     12  CB  PRO M   3      32.694  12.808  -5.941  1.00 40.36 LIG 0.04  C 
BRANCH 8 13
ATOM     13  CA  HIS M   2      32.959  15.933  -9.386  1.00 46.79 LIG 0.18  C 
BRANCH 13 14
ATOM     14  CB  HIS M   2      31.564  16.512  -8.978  1.00 44.05 LIG 0.10  C 
BRANCH 14 15
ATOM     15  CG  HIS M   2      31.279  17.846  -9.677  1.00 42.32 LIG 0.06  A 
ATOM     16  CD2 HIS M   2      30.547  18.875  -9.139  1.00 41.49 LIG 0.14  A 
ATOM     17 NE2  HIS M   2      30.376  19.666 -10.162  1.00 41.41 LIG-0.25  NA
ATOM     18  CE1 HIS M   2      30.964  19.162 -11.237  1.00 41.50 LIG 0.23  A 
ATOM     19 ND1  HIS M   2      31.546  18.017 -10.966  1.00 40.17 LIG-0.24  NA
ENDBRANCH 14 15
ENDBRANCH 13 14
BRANCH 13 20
ATOM     20  N   HIS M   2      32.833  14.799 -10.294  1.00 53.14 LIG-0.35  N 
ATOM     21 H    HIS M   2      32.024  14.627 -10.528  1.00 53.14 LIG 0.16  HD
ATOM     22  C   CYS M   1      33.888  14.097 -10.717  0.42 52.47 LIG 0.24  C 
ATOM     23 O    CYS M   1      35.046  14.309 -10.343  0.42 50.41 LIG-0.27  OA
BRANCH 22 24
ATOM     24  CA  CYS M   1      33.530  12.988 -11.708  0.42 53.64 LIG 0.18  C 
BRANCH 24 25
ATOM     25  CB  CYS M   1      34.252  13.217 -13.015  0.42 54.18 LIG 0.10  C 
BRANCH 25 26
ATOM     26 SG   CYS M   1      33.677  11.946 -14.160  0.42 57.26 LIG-0.18  SA
ATOM     27 HG   CYS M   1      32.640  11.491 -13.764  0.42 57.26 LIG 0.10  HD
ENDBRANCH 25 26
ENDBRANCH 24 25
BRANCH 24 28
ATOM     28  N   CYS M   1      32.095  12.930 -11.940  0.42 53.99 LIG-0.38  N 
ATOM     29  C   ACE M   0      31.269  12.266 -11.130  0.42 54.55 LIG 0.04  C 
ATOM     30  CH3 ACE M   0      29.769  12.255 -11.392  0.42 54.45 LIG 0.05  C 
ATOM     31 H    CYS M   1      31.835  13.357 -12.640  0.42 53.99 LIG 0.16  HD
ENDBRANCH 24 28
ENDBRANCH 22 24
ENDBRANCH 13 20
ENDBRANCH 8 13
ENDBRANCH 4 6
ENDBRANCH 1 2
BRANCH 1 32
ATOM     32  CB  GLN M   4      36.509   9.912  -6.792  1.00 35.03 LIG 0.04  C 
BRANCH 32 33
ATOM     33  CG  GLN M   4      36.684   9.662  -5.291  1.00 28.64 LIG 0.10  C 
BRANCH 33 34
ATOM     34  CD  GLN M   4      37.255  10.848  -4.543  1.00 28.38 LIG 0.21  C 
ATOM     35  NE2 GLN M   4      36.579  11.181  -3.441  1.00 21.52 LIG-0.37  N 
ATOM     36 22HE GLN M   4      36.836  11.849  -2.964  1.00 21.52 LIG 0.16  HD
ATOM     37 21HE GLN M   4      35.886  10.729  -3.208  1.00 21.52 LIG 0.16  HD
ATOM     38 OE1  GLN M   4      38.270  11.451  -4.951  1.00 23.11 LIG-0.27  OA
ENDBRANCH 33 34
ENDBRANCH 32 33
ENDBRANCH 1 32
BRANCH 1 39
ATOM     39  C   GLN M   4      37.217  11.644  -8.431  1.00 43.11 LIG 0.24  C 
ATOM     40  N   ASN M   5      38.538  11.649  -8.479  1.00 48.15 LIG-0.35  N 
ATOM     41 H    ASN M   5      39.059  11.488  -7.814  1.00 48.15 LIG 0.16  HD
ATOM     42 O    GLN M   4      36.518  11.763  -9.440  1.00 42.77 LIG-0.27  OA
BRANCH 40 43
ATOM     43  CA  ASN M   5      39.199  11.944  -9.735  1.00 54.08 LIG 0.18  C 
BRANCH 43 44
ATOM     44  CB  ASN M   5      40.640  12.449  -9.407  1.00 57.18 LIG 0.14  C 
BRANCH 44 45
ATOM     45  CG  ASN M   5      40.769  13.750  -8.562  1.00 60.38 LIG 0.22  C 
ATOM     46  ND2 ASN M   5      40.960  13.744  -7.242  1.00 60.67 LIG-0.37  N 
ATOM     47 22HD ASN M   5      41.002  12.997  -6.817  1.00 60.67 LIG 0.16  HD
ATOM     48 21HD ASN M   5      41.042  14.486  -6.816  1.00 60.67 LIG 0.16  HD
ATOM     49 OD1  ASN M   5      40.726  14.875  -9.069  1.00 60.50 LIG-0.27  OA
ENDBRANCH 44 45
ENDBRANCH 43 44
BRANCH 43 50
ATOM     50  C   ASN M   5      39.196  10.698 -10.599  1.00 53.60 LIG 0.24  C 
ATOM     51 O    ASN M   5      39.171   9.600 -10.046  1.00 54.31 LIG-0.27  OA
ATOM     52  N   THR M   6      39.133  10.815 -11.919  0.00 53.23 LIG-0.34  N 
ATOM     53 H    THR M   6      39.086  11.564 -12.342  0.00 53.23 LIG 0.16  HD
BRANCH 52 54
ATOM     54  CA  THR M   6      39.143   9.639 -12.759  0.00 52.61 LIG 0.21  C 
BRANCH 54 55
ATOM     55  C   THR M   6      40.564   9.391 -13.270  0.00 52.44 LIG 0.29  C 
ATOM     56  N   NH2 M   7      41.185   8.308 -12.823  0.00 52.35 LIG-0.11  N 
ATOM     57 O    THR M   6      41.156  10.175 -14.008  0.00 52.24 LIG-0.27  OA
ENDBRANCH 54 55
BRANCH 54 58
ATOM     58  CB  THR M   6      38.092   9.870 -13.892  0.00 52.38 LIG 0.15  C 
ATOM     59  CG2 THR M   6      38.591   9.637 -15.317  0.00 52.30 LIG 0.04  C 
BRANCH 58 60
ATOM     60 OG1  THR M   6      37.028   8.987 -13.566  0.00 52.26 LIG-0.39  OA
ATOM     61 HG1  THR M   6      37.341   8.240 -13.345  0.00 52.26 LIG 0.21  HD
ENDBRANCH 58 60
ENDBRANCH 54 58
ENDBRANCH 52 54
ENDBRANCH 43 50
ENDBRANCH 40 43
ENDBRANCH 1 39
TORSDOF 22
ENDMDL
MODEL 14
USER: ADFR SOLUTION from run 160
USER: SCORE 19.683401 LL:  -5.309 LR: -14.811 RR:   0.000 FEB:  -8.249
USER: RMSD 8.391480
USER: SEED 159
USER: STATUS no improvement in best in 4 clusters for 5 generations
USER: GENES 24
USER: genes 0 Translation |==|  0.44413 0.76104 0.62646
USER: genes 1 Rotation |==|  0.33345 0.63914 0.86277 0.76702
USER: genes 2 Torsion [C]-CA--N-[C] |==|  0.77039
USER: genes 3 Torsion [N]-C--CA-[N] |==|  0.15997
USER: genes 4 Torsion [N]-C--CA-[N] |==|  0.47307
USER: genes 5 Torsion [C]-CA--CB-[CG] |==|  0.39872
USER: genes 6 Torsion [CA]-CB--CG-[CD2] |==|  0.27686
USER: genes 7 Torsion [C]-CA--N-[C] |==|  0.56678
USER: genes 8 Torsion [N]-C--CA-[N] |==|  0.01629
USER: genes 9 Torsion [C]-CA--CB-[SG] |==|  0.13318
USER: genes 10 Torsion [CA]-CB--SG-[HG] |==|  0.47239
USER: genes 11 Torsion [C]-CA--N-[C] |==|  0.76291
USER: genes 12 Torsion [N]-CA--CB-[CG] |==|  0.87532
USER: genes 13 Torsion [CA]-CB--CG-[CD] |==|  0.29334
USER: genes 14 Torsion [CB]-CG--CD-[NE2] |==|  0.94764
USER: genes 15 Torsion [N]-CA--C-[N] |==|  0.97316
USER: genes 16 Torsion [C]-N--CA-[C] |==|  0.78296
USER: genes 17 Torsion [N]-CA--CB-[CG] |==|  0.80413
USER: genes 18 Torsion [CA]-CB--CG-[ND2] |==|  0.70527
USER: genes 19 Torsion [N]-CA--C-[N] |==|  0.94957
USER: genes 20 Torsion [C]-N--CA-[C] |==|  0.57453
USER: genes 21 Torsion [N]-CA--C-[N] |==|  0.45148
USER: genes 22 Torsion [N]-CA--CB-[OG1] |==|  0.57543
USER: genes 23 Torsion [CA]-CB--OG1-[HG1] |==|  0.28059
ROOT
ATOM      1  CA  GLN M   4      34.583  18.253  -8.096  1.00 40.00 LIG 0.18  C 
ENDROOT
BRANCH 1 2
ATOM      2  N   GLN M   4      34.236  16.920  -8.479  1.00 41.31 LIG-0.35  N 
ATOM      3 H    GLN M   4      34.881  16.351  -8.491  1.00 41.31 LIG 0.16  HD
ATOM      4  C   PRO M   3      32.965  16.658  -8.783  1.00 42.91 LIG 0.24  C 
ATOM      5 O    PRO M   3      32.075  17.533  -8.715  1.00 42.50 LIG-0.27  OA
BRANCH 4 6
ATOM      6  CA  PRO M   3      32.642  15.214  -9.182  1.00 43.35 LIG 0.18  C 
ATOM      7  N   PRO M   3      32.967  14.170  -8.222  1.00 44.79 LIG-0.34  N 
ATOM      8  C   HIS M   2      34.230  13.748  -7.935  1.00 46.46 LIG 0.24  C 
ATOM      9  CD  PRO M   3      31.722  13.492  -7.810  1.00 43.94 LIG 0.13  C 
ATOM     10 O    HIS M   2      35.264  14.268  -8.386  1.00 45.68 LIG-0.27  OA
ATOM     11  CG  PRO M   3      30.656  14.501  -8.119  1.00 40.61 LIG 0.02  C 
ATOM     12  CB  PRO M   3      31.170  14.938  -9.443  1.00 40.36 LIG 0.04  C 
BRANCH 8 13
ATOM     13  CA  HIS M   2      34.346  12.580  -6.982  1.00 46.79 LIG 0.18  C 
BRANCH 13 14
ATOM     14  CB  HIS M   2      33.862  13.018  -5.560  1.00 44.05 LIG 0.10  C 
BRANCH 14 15
ATOM     15  CG  HIS M   2      33.117  11.887  -4.843  1.00 42.32 LIG 0.06  A 
ATOM     16  CD2 HIS M   2      33.664  11.063  -3.891  1.00 41.49 LIG 0.14  A 
ATOM     17 NE2  HIS M   2      32.756  10.136  -3.762  1.00 41.41 LIG-0.25  NA
ATOM     18  CE1 HIS M   2      31.731  10.380  -4.566  1.00 41.50 LIG 0.23  A 
ATOM     19 ND1  HIS M   2      31.925  11.478  -5.260  1.00 40.17 LIG-0.24  NA
ENDBRANCH 14 15
ENDBRANCH 13 14
BRANCH 13 20
ATOM     20  N   HIS M   2      35.729  12.118  -6.968  1.00 53.14 LIG-0.35  N 
ATOM     21 H    HIS M   2      36.300  12.717  -7.200  1.00 53.14 LIG 0.16  HD
ATOM     22  C   CYS M   1      36.066  10.872  -6.622  0.42 52.47 LIG 0.24  C 
ATOM     23 O    CYS M   1      35.245   9.995  -6.338  0.42 50.41 LIG-0.27  OA
BRANCH 22 24
ATOM     24  CA  CYS M   1      37.575  10.622  -6.622  0.42 53.64 LIG 0.18  C 
BRANCH 24 25
ATOM     25  CB  CYS M   1      37.995  10.029  -5.298  0.42 54.18 LIG 0.10  C 
BRANCH 25 26
ATOM     26 SG   CYS M   1      36.848   8.682  -4.941  0.42 57.26 LIG-0.18  SA
ATOM     27 HG   CYS M   1      37.249   8.053  -4.001  0.42 57.26 LIG 0.10  HD
ENDBRANCH 25 26
ENDBRANCH 24 25
BRANCH 24 28
ATOM     28  N   CYS M   1      38.314  11.851  -6.870  0.42 53.99 LIG-0.38  N 
ATOM     29  C   ACE M   0      38.563  12.295  -8.102  0.42 54.55 LIG 0.04  C 
ATOM     30  CH3 ACE M   0      39.315  13.602  -8.318  0.42 54.45 LIG 0.05  C 
ATOM     31 H    CYS M   1      38.571  12.256  -6.157  0.42 53.99 LIG 0.16  HD
ENDBRANCH 24 28
ENDBRANCH 22 24
ENDBRANCH 13 20
ENDBRANCH 8 13
ENDBRANCH 4 6
ENDBRANCH 1 2
BRANCH 1 32
ATOM     32  CB  GLN M   4      35.853  18.238  -7.269  1.00 35.03 LIG 0.04  C 
BRANCH 32 33
ATOM     33  CG  GLN M   4      35.756  17.111  -6.237  1.00 28.64 LIG 0.10  C 
BRANCH 33 34
ATOM     34  CD  GLN M   4      36.615  15.909  -6.571  1.00 28.38 LIG 0.21  C 
ATOM     35  NE2 GLN M   4      36.992  15.840  -7.850  1.00 21.52 LIG-0.37  N 
ATOM     36 22HE GLN M   4      37.476  15.183  -8.121  1.00 21.52 LIG 0.16  HD
ATOM     37 21HE GLN M   4      36.751  16.453  -8.403  1.00 21.52 LIG 0.16  HD
ATOM     38 OE1  GLN M   4      36.920  15.063  -5.704  1.00 23.11 LIG-0.27  OA
ENDBRANCH 33 34
ENDBRANCH 32 33
ENDBRANCH 1 32
BRANCH 1 39
ATOM     39  C   GLN M   4      34.785  19.080  -9.352  1.00 43.11 LIG 0.24  C 
ATOM     40  N   ASN M   5      34.805  18.390 -10.479  1.00 48.15 LIG-0.35  N 
ATOM     41 H    ASN M   5      34.674  17.542 -10.543  1.00 48.15 LIG 0.16  HD
ATOM     42 O    GLN M   4      34.860  20.310  -9.328  1.00 42.77 LIG-0.27  OA
BRANCH 40 43
ATOM     43  CA  ASN M   5      35.064  19.080 -11.726  1.00 54.08 LIG 0.18  C 
BRANCH 43 44
ATOM     44  CB  ASN M   5      35.554  18.020 -12.763  1.00 57.18 LIG 0.14  C 
BRANCH 44 45
ATOM     45  CG  ASN M   5      36.969  17.409 -12.552  1.00 60.38 LIG 0.22  C 
ATOM     46  ND2 ASN M   5      38.021  17.732 -13.305  1.00 60.67 LIG-0.37  N 
ATOM     47 22HD ASN M   5      37.931  18.291 -13.952  1.00 60.67 LIG 0.16  HD
ATOM     48 21HD ASN M   5      38.789  17.382 -13.143  1.00 60.67 LIG 0.16  HD
ATOM     49 OD1  ASN M   5      37.212  16.599 -11.651  1.00 60.50 LIG-0.27  OA
ENDBRANCH 44 45
ENDBRANCH 43 44
BRANCH 43 50
ATOM     50  C   ASN M   5      33.802  19.794 -12.166  1.00 53.60 LIG 0.24  C 
ATOM     51 O    ASN M   5      33.884  20.640 -13.055  1.00 54.31 LIG-0.27  OA
ATOM     52  N   THR M   6      32.632  19.436 -11.651  0.00 53.23 LIG-0.34  N 
ATOM     53 H    THR M   6      32.524  18.806 -11.074  0.00 53.23 LIG 0.16  HD
BRANCH 52 54
ATOM     54  CA  THR M   6      31.419  20.114 -12.048  0.00 52.61 LIG 0.21  C 
BRANCH 54 55
ATOM     55  C   THR M   6      30.392  20.024 -10.917  0.00 52.44 LIG 0.29  C 
ATOM     56  N   NH2 M   7      29.376  20.875 -10.955  0.00 52.35 LIG-0.11  N 
ATOM     57 O    THR M   6      30.512  19.256  -9.964  0.00 52.24 LIG-0.27  OA
ENDBRANCH 54 55
BRANCH 54 58
ATOM     58  CB  THR M   6      30.944  19.467 -13.388  0.00 52.38 LIG 0.15  C 
ATOM     59  CG2 THR M   6      30.103  18.199 -13.252  0.00 52.30 LIG 0.04  C 
BRANCH 58 60
ATOM     60 OG1  THR M   6      30.217  20.502 -14.036  0.00 52.26 LIG-0.39  OA
ATOM     61 HG1  THR M   6      30.698  20.855 -14.628  0.00 52.26 LIG 0.21  HD
ENDBRANCH 58 60
ENDBRANCH 54 58
ENDBRANCH 52 54
ENDBRANCH 43 50
ENDBRANCH 40 43
ENDBRANCH 1 39
TORSDOF 22
ENDMDL
MODEL 15
USER: ADFR SOLUTION from run 53
USER: SCORE 18.481559 LL:  -5.161 LR: -14.774 RR:   0.000 FEB:  -8.212
USER: RMSD 8.741554
USER: SEED 52
USER: STATUS no improvement in best in 11 clusters for 5 generations
USER: GENES 24
USER: genes 0 Translation |==|  0.29972 0.53560 0.63145
USER: genes 1 Rotation |==|  0.56549 0.20320 0.10366 0.52320
USER: genes 2 Torsion [C]-CA--N-[C] |==|  0.80893
USER: genes 3 Torsion [N]-C--CA-[N] |==|  0.15781
USER: genes 4 Torsion [N]-C--CA-[N] |==|  0.46838
USER: genes 5 Torsion [C]-CA--CB-[CG] |==|  0.83176
USER: genes 6 Torsion [CA]-CB--CG-[CD2] |==|  0.20143
USER: genes 7 Torsion [C]-CA--N-[C] |==|  0.52233
USER: genes 8 Torsion [N]-C--CA-[N] |==|  0.01612
USER: genes 9 Torsion [C]-CA--CB-[SG] |==|  0.51853
USER: genes 10 Torsion [CA]-CB--SG-[HG] |==|  0.67396
USER: genes 11 Torsion [C]-CA--N-[C] |==|  0.72661
USER: genes 12 Torsion [N]-CA--CB-[CG] |==|  0.51666
USER: genes 13 Torsion [CA]-CB--CG-[CD] |==|  0.36119
USER: genes 14 Torsion [CB]-CG--CD-[NE2] |==|  0.45579
USER: genes 15 Torsion [N]-CA--C-[N] |==|  0.83471
USER: genes 16 Torsion [C]-N--CA-[C] |==|  0.51239
USER: genes 17 Torsion [N]-CA--CB-[CG] |==|  0.52155
USER: genes 18 Torsion [CA]-CB--CG-[ND2] |==|  0.28514
USER: genes 19 Torsion [N]-CA--C-[N] |==|  0.47365
USER: genes 20 Torsion [C]-N--CA-[C] |==|  0.18708
USER: genes 21 Torsion [N]-CA--C-[N] |==|  0.03409
USER: genes 22 Torsion [N]-CA--CB-[OG1] |==|  0.85559
USER: genes 23 Torsion [CA]-CB--OG1-[HG1] |==|  0.04403
ROOT
ATOM      1  CA  GLN M   4      31.550  14.364  -7.983  1.00 40.00 LIG 0.18  C 
ENDROOT
BRANCH 1 2
ATOM      2  N   GLN M   4      32.205  13.158  -7.581  1.00 41.31 LIG-0.35  N 
ATOM      3 H    GLN M   4      32.943  12.978  -7.984  1.00 41.31 LIG 0.16  HD
ATOM      4  C   PRO M   3      31.639  12.417  -6.629  1.00 42.91 LIG 0.24  C 
ATOM      5 O    PRO M   3      30.577  12.762  -6.066  1.00 42.50 LIG-0.27  OA
BRANCH 4 6
ATOM      6  CA  PRO M   3      32.382  11.138  -6.228  1.00 43.35 LIG 0.18  C 
ATOM      7  N   PRO M   3      33.756  11.281  -5.772  1.00 44.79 LIG-0.34  N 
ATOM      8  C   HIS M   2      34.813  11.574  -6.579  1.00 46.46 LIG 0.24  C 
ATOM      9  CD  PRO M   3      33.847  10.822  -4.371  1.00 43.94 LIG 0.13  C 
ATOM     10 O    HIS M   2      34.720  11.849  -7.786  1.00 45.68 LIG-0.27  OA
ATOM     11  CG  PRO M   3      32.436  10.932  -3.874  1.00 40.61 LIG 0.02  C 
ATOM     12  CB  PRO M   3      31.757  10.373  -5.072  1.00 40.36 LIG 0.04  C 
BRANCH 8 13
ATOM     13  CA  HIS M   2      36.175  11.578  -5.923  1.00 46.79 LIG 0.18  C 
BRANCH 13 14
ATOM     14  CB  HIS M   2      36.275  12.788  -4.935  1.00 44.05 LIG 0.10  C 
BRANCH 14 15
ATOM     15  CG  HIS M   2      36.097  14.126  -5.659  1.00 42.32 LIG 0.06  A 
ATOM     16  CD2 HIS M   2      34.908  14.600  -6.156  1.00 41.49 LIG 0.14  A 
ATOM     17 NE2  HIS M   2      35.287  15.619  -6.877  1.00 41.41 LIG-0.25  NA
ATOM     18  CE1 HIS M   2      36.603  15.761  -6.816  1.00 41.50 LIG 0.23  A 
ATOM     19 ND1  HIS M   2      37.145  14.838  -6.055  1.00 40.17 LIG-0.24  NA
ENDBRANCH 14 15
ENDBRANCH 13 14
BRANCH 13 20
ATOM     20  N   HIS M   2      37.198  11.639  -6.961  1.00 53.14 LIG-0.35  N 
ATOM     21 H    HIS M   2      36.887  11.772  -7.751  1.00 53.14 LIG 0.16  HD
ATOM     22  C   CYS M   1      38.500  11.498  -6.695  0.42 52.47 LIG 0.24  C 
ATOM     23 O    CYS M   1      38.946  11.256  -5.568  0.42 50.41 LIG-0.27  OA
BRANCH 22 24
ATOM     24  CA  CYS M   1      39.398  11.653  -7.923  0.42 53.64 LIG 0.18  C 
BRANCH 24 25
ATOM     25  CB  CYS M   1      40.477  12.672  -7.642  0.42 54.18 LIG 0.10  C 
BRANCH 25 26
ATOM     26 SG   CYS M   1      41.360  12.939  -9.193  0.42 57.26 LIG-0.18  SA
ATOM     27 HG   CYS M   1      42.504  12.601  -9.066  0.42 57.26 LIG 0.10  HD
ENDBRANCH 25 26
ENDBRANCH 24 25
BRANCH 24 28
ATOM     28  N   CYS M   1      38.630  12.056  -9.091  0.42 53.99 LIG-0.38  N 
ATOM     29  C   ACE M   0      38.224  11.181 -10.012  0.42 54.55 LIG 0.04  C 
ATOM     30  CH3 ACE M   0      37.397  11.640 -11.205  0.42 54.45 LIG 0.05  C 
ATOM     31 H    CYS M   1      38.467  12.899  -9.131  0.42 53.99 LIG 0.16  HD
ENDBRANCH 24 28
ENDBRANCH 22 24
ENDBRANCH 13 20
ENDBRANCH 8 13
ENDBRANCH 4 6
ENDBRANCH 1 2
BRANCH 1 32
ATOM     32  CB  GLN M   4      32.459  15.166  -8.894  1.00 35.03 LIG 0.04  C 
BRANCH 32 33
ATOM     33  CG  GLN M   4      31.796  16.515  -9.188  1.00 28.64 LIG 0.10  C 
BRANCH 33 34
ATOM     34  CD  GLN M   4      32.712  17.700  -8.963  1.00 28.38 LIG 0.21  C 
ATOM     35  NE2 GLN M   4      32.288  18.838  -9.519  1.00 21.52 LIG-0.37  N 
ATOM     36 22HE GLN M   4      32.756  19.555  -9.441  1.00 21.52 LIG 0.16  HD
ATOM     37 21HE GLN M   4      31.546  18.853  -9.953  1.00 21.52 LIG 0.16  HD
ATOM     38 OE1  GLN M   4      33.775  17.590  -8.316  1.00 23.11 LIG-0.27  OA
ENDBRANCH 33 34
ENDBRANCH 32 33
ENDBRANCH 1 32
BRANCH 1 39
ATOM     39  C   GLN M   4      30.269  13.999  -8.710  1.00 43.11 LIG 0.24  C 
ATOM     40  N   ASN M   5      30.432  13.255  -9.790  1.00 48.15 LIG-0.35  N 
ATOM     41 H    ASN M   5      31.184  12.945 -10.070  1.00 48.15 LIG 0.16  HD
ATOM     42 O    GLN M   4      29.156  14.318  -8.288  1.00 42.77 LIG-0.27  OA
BRANCH 40 43
ATOM     43  CA  ASN M   5      29.275  12.914 -10.595  1.00 54.08 LIG 0.18  C 
BRANCH 43 44
ATOM     44  CB  ASN M   5      28.663  14.244 -11.136  1.00 57.18 LIG 0.14  C 
BRANCH 44 45
ATOM     45  CG  ASN M   5      27.298  14.156 -11.879  1.00 60.38 LIG 0.22  C 
ATOM     46  ND2 ASN M   5      26.139  14.500 -11.316  1.00 60.67 LIG-0.37  N 
ATOM     47 22HD ASN M   5      26.122  14.772 -10.500  1.00 60.67 LIG 0.16  HD
ATOM     48 21HD ASN M   5      25.410  14.451 -11.769  1.00 60.67 LIG 0.16  HD
ATOM     49 OD1  ASN M   5      27.207  13.782 -13.053  1.00 60.50 LIG-0.27  OA
ENDBRANCH 44 45
ENDBRANCH 43 44
BRANCH 43 50
ATOM     50  C   ASN M   5      29.707  11.972 -11.702  1.00 53.60 LIG 0.24  C 
ATOM     51 O    ASN M   5      30.904  11.723 -11.828  1.00 54.31 LIG-0.27  OA
ATOM     52  N   THR M   6      28.787  11.375 -12.451  0.00 53.23 LIG-0.34  N 
ATOM     53 H    THR M   6      27.938  11.474 -12.353  0.00 53.23 LIG 0.16  HD
BRANCH 52 54
ATOM     54  CA  THR M   6      29.180  10.484 -13.520  0.00 52.61 LIG 0.21  C 
BRANCH 54 55
ATOM     55  C   THR M   6      29.831   9.233 -12.925  0.00 52.44 LIG 0.29  C 
ATOM     56  N   NH2 M   7      29.703   9.050 -11.618  0.00 52.35 LIG-0.11  N 
ATOM     57 O    THR M   6      30.506   8.449 -13.589  0.00 52.24 LIG-0.27  OA
ENDBRANCH 54 55
BRANCH 54 58
ATOM     58  CB  THR M   6      30.115  11.292 -14.475  0.00 52.38 LIG 0.15  C 
ATOM     59  CG2 THR M   6      30.544  10.570 -15.751  0.00 52.30 LIG 0.04  C 
BRANCH 58 60
ATOM     60 OG1  THR M   6      29.377  12.470 -14.771  0.00 52.26 LIG-0.39  OA
ATOM     61 HG1  THR M   6      28.750  12.554 -14.219  0.00 52.26 LIG 0.21  HD
ENDBRANCH 58 60
ENDBRANCH 54 58
ENDBRANCH 52 54
ENDBRANCH 43 50
ENDBRANCH 40 43
ENDBRANCH 1 39
TORSDOF 22
ENDMDL
MODEL 16
USER: ADFR SOLUTION from run 189
USER: SCORE 18.511435 LL:  -4.583 LR: -14.748 RR:   0.000 FEB:  -8.185
USER: RMSD 5.240185
USER: SEED 188
USER: STATUS no improvement in best in 2 clusters for 5 generations
USER: GENES 24
USER: genes 0 Translation |==|  0.57200 0.38171 0.66372
USER: genes 1 Rotation |==|  0.67471 0.74506 0.63663 0.87517
USER: genes 2 Torsion [C]-CA--N-[C] |==|  0.76592
USER: genes 3 Torsion [N]-C--CA-[N] |==|  0.83310
USER: genes 4 Torsion [N]-C--CA-[N] |==|  0.45197
USER: genes 5 Torsion [C]-CA--CB-[CG] |==|  0.36666
USER: genes 6 Torsion [CA]-CB--CG-[CD2] |==|  0.98524
USER: genes 7 Torsion [C]-CA--N-[C] |==|  0.55005
USER: genes 8 Torsion [N]-C--CA-[N] |==|  0.05122
USER: genes 9 Torsion [C]-CA--CB-[SG] |==|  0.34357
USER: genes 10 Torsion [CA]-CB--SG-[HG] |==|  0.88529
USER: genes 11 Torsion [C]-CA--N-[C] |==|  0.16948
USER: genes 12 Torsion [N]-CA--CB-[CG] |==|  0.85301
USER: genes 13 Torsion [CA]-CB--CG-[CD] |==|  0.88696
USER: genes 14 Torsion [CB]-CG--CD-[NE2] |==|  0.40737
USER: genes 15 Torsion [N]-CA--C-[N] |==|  0.31226
USER: genes 16 Torsion [C]-N--CA-[C] |==|  0.61897
USER: genes 17 Torsion [N]-CA--CB-[CG] |==|  0.47788
USER: genes 18 Torsion [CA]-CB--CG-[ND2] |==|  0.27846
USER: genes 19 Torsion [N]-CA--C-[N] |==|  0.35154
USER: genes 20 Torsion [C]-N--CA-[C] |==|  0.65782
USER: genes 21 Torsion [N]-CA--C-[N] |==|  0.43279
USER: genes 22 Torsion [N]-CA--CB-[OG1] |==|  0.83610
USER: genes 23 Torsion [CA]-CB--OG1-[HG1] |==|  0.90526
ROOT
ATOM      1  CA  GLN M   4      37.268  11.709  -7.257  1.00 40.00 LIG 0.18  C 
ENDROOT
BRANCH 1 2
ATOM      2  N   GLN M   4      35.969  12.115  -6.819  1.00 41.31 LIG-0.35  N 
ATOM      3 H    GLN M   4      35.310  11.643  -7.107  1.00 41.31 LIG 0.16  HD
ATOM      4  C   PRO M   3      35.873  13.171  -6.011  1.00 42.91 LIG 0.24  C 
ATOM      5 O    PRO M   3      36.882  13.790  -5.609  1.00 42.50 LIG-0.27  OA
BRANCH 4 6
ATOM      6  CA  PRO M   3      34.460  13.562  -5.564  1.00 43.35 LIG 0.18  C 
ATOM      7  N   PRO M   3      33.507  13.916  -6.604  1.00 44.79 LIG-0.34  N 
ATOM      8  C   HIS M   2      33.539  15.073  -7.322  1.00 46.46 LIG 0.24  C 
ATOM      9  CD  PRO M   3      32.387  12.953  -6.578  1.00 43.94 LIG 0.13  C 
ATOM     10 O    HIS M   2      34.439  15.924  -7.244  1.00 45.68 LIG-0.27  OA
ATOM     11  CG  PRO M   3      32.973  11.755  -5.891  1.00 40.61 LIG 0.02  C 
ATOM     12  CB  PRO M   3      33.704  12.475  -4.816  1.00 40.36 LIG 0.04  C 
BRANCH 8 13
ATOM     13  CA  HIS M   2      32.396  15.294  -8.287  1.00 46.79 LIG 0.18  C 
BRANCH 13 14
ATOM     14  CB  HIS M   2      32.584  14.373  -9.538  1.00 44.05 LIG 0.10  C 
BRANCH 14 15
ATOM     15  CG  HIS M   2      31.294  13.622  -9.886  1.00 42.32 LIG 0.06  A 
ATOM     16  CD2 HIS M   2      30.142  13.649  -9.140  1.00 41.49 LIG 0.14  A 
ATOM     17 NE2  HIS M   2      29.432  12.697  -9.680  1.00 41.41 LIG-0.25  NA
ATOM     18  CE1 HIS M   2      30.096  12.139 -10.682  1.00 41.50 LIG 0.23  A 
ATOM     19 ND1  HIS M   2      31.273  12.701 -10.841  1.00 40.17 LIG-0.24  NA
ENDBRANCH 14 15
ENDBRANCH 13 14
BRANCH 13 20
ATOM     20  N   HIS M   2      32.353  16.705  -8.652  1.00 53.14 LIG-0.35  N 
ATOM     21 H    HIS M   2      33.081  17.131  -8.487  1.00 53.14 LIG 0.16  HD
ATOM     22  C   CYS M   1      31.272  17.274  -9.195  0.42 52.47 LIG 0.24  C 
ATOM     23 O    CYS M   1      30.208  16.677  -9.387  0.42 50.41 LIG-0.27  OA
BRANCH 22 24
ATOM     24  CA  CYS M   1      31.468  18.748  -9.551  0.42 53.64 LIG 0.18  C 
BRANCH 24 25
ATOM     25  CB  CYS M   1      30.797  19.049 -10.871  0.42 54.18 LIG 0.10  C 
BRANCH 25 26
ATOM     26 SG   CYS M   1      29.633  20.395 -10.570  0.42 57.26 LIG-0.18  SA
ATOM     27 HG   CYS M   1      29.069  20.211  -9.527  0.42 57.26 LIG 0.10  HD
ENDBRANCH 25 26
ENDBRANCH 24 25
BRANCH 24 28
ATOM     28  N   CYS M   1      32.880  19.091  -9.625  0.42 53.99 LIG-0.38  N 
ATOM     29  C   ACE M   0      33.708  18.512 -10.494  0.42 54.55 LIG 0.04  C 
ATOM     30  CH3 ACE M   0      35.174  18.921 -10.560  0.42 54.45 LIG 0.05  C 
ATOM     31 H    CYS M   1      33.126  19.694  -9.062  0.42 53.99 LIG 0.16  HD
ENDBRANCH 24 28
ENDBRANCH 22 24
ENDBRANCH 13 20
ENDBRANCH 8 13
ENDBRANCH 4 6
ENDBRANCH 1 2
BRANCH 1 32
ATOM     32  CB  GLN M   4      37.256  10.237  -7.615  1.00 35.03 LIG 0.04  C 
BRANCH 32 33
ATOM     33  CG  GLN M   4      36.689   9.446  -6.432  1.00 28.64 LIG 0.10  C 
BRANCH 33 34
ATOM     34  CD  GLN M   4      37.175   9.940  -5.086  1.00 28.38 LIG 0.21  C 
ATOM     35  NE2 GLN M   4      36.282   9.825  -4.100  1.00 21.52 LIG-0.37  N 
ATOM     36 22HE GLN M   4      36.481  10.090  -3.307  1.00 21.52 LIG 0.16  HD
ATOM     37 21HE GLN M   4      35.508   9.486  -4.259  1.00 21.52 LIG 0.16  HD
ATOM     38 OE1  GLN M   4      38.320  10.420  -4.941  1.00 23.11 LIG-0.27  OA
ENDBRANCH 33 34
ENDBRANCH 32 33
ENDBRANCH 1 32
BRANCH 1 39
ATOM     39  C   GLN M   4      37.651  12.540  -8.468  1.00 43.11 LIG 0.24  C 
ATOM     40  N   ASN M   5      38.651  13.382  -8.276  1.00 48.15 LIG-0.35  N 
ATOM     41 H    ASN M   5      39.105  13.454  -7.549  1.00 48.15 LIG 0.16  HD
ATOM     42 O    GLN M   4      37.112  12.393  -9.567  1.00 42.77 LIG-0.27  OA
BRANCH 40 43
ATOM     43  CA  ASN M   5      39.044  14.271  -9.351  1.00 54.08 LIG 0.18  C 
BRANCH 43 44
ATOM     44  CB  ASN M   5      38.417  15.671  -9.064  1.00 57.18 LIG 0.14  C 
BRANCH 44 45
ATOM     45  CG  ASN M   5      38.851  16.853  -9.979  1.00 60.38 LIG 0.22  C 
ATOM     46  ND2 ASN M   5      38.108  17.299 -10.992  1.00 60.67 LIG-0.37  N 
ATOM     47 22HD ASN M   5      37.358  16.920 -11.175  1.00 60.67 LIG 0.16  HD
ATOM     48 21HD ASN M   5      38.378  17.966 -11.463  1.00 60.67 LIG 0.16  HD
ATOM     49 OD1  ASN M   5      39.907  17.471  -9.806  1.00 60.50 LIG-0.27  OA
ENDBRANCH 44 45
ENDBRANCH 43 44
BRANCH 43 50
ATOM     50  C   ASN M   5      40.558  14.309  -9.429  1.00 53.60 LIG 0.24  C 
ATOM     51 O    ASN M   5      41.195  14.500  -8.395  1.00 54.31 LIG-0.27  OA
ATOM     52  N   THR M   6      41.162  14.053 -10.583  0.00 53.23 LIG-0.34  N 
ATOM     53 H    THR M   6      40.754  13.853 -11.314  0.00 53.23 LIG 0.16  HD
BRANCH 52 54
ATOM     54  CA  THR M   6      42.603  14.098 -10.680  0.00 52.61 LIG 0.21  C 
BRANCH 54 55
ATOM     55  C   THR M   6      43.009  15.094 -11.769  0.00 52.44 LIG 0.29  C 
ATOM     56  N   NH2 M   7      44.218  15.631 -11.676  0.00 52.35 LIG-0.11  N 
ATOM     57 O    THR M   6      42.247  15.455 -12.664  0.00 52.24 LIG-0.27  OA
ENDBRANCH 54 55
BRANCH 54 58
ATOM     58  CB  THR M   6      43.096  12.639 -10.941  0.00 52.38 LIG 0.15  C 
ATOM     59  CG2 THR M   6      44.604  12.468 -11.113  0.00 52.30 LIG 0.04  C 
BRANCH 58 60
ATOM     60 OG1  THR M   6      42.618  11.905  -9.821  0.00 52.26 LIG-0.39  OA
ATOM     61 HG1  THR M   6      42.631  12.394  -9.139  0.00 52.26 LIG 0.21  HD
ENDBRANCH 58 60
ENDBRANCH 54 58
ENDBRANCH 52 54
ENDBRANCH 43 50
ENDBRANCH 40 43
ENDBRANCH 1 39
TORSDOF 22
ENDMDL
MODEL 17
USER: ADFR SOLUTION from run 121
USER: SCORE 18.992169 LL:  -5.093 LR: -14.695 RR:   0.000 FEB:  -8.133
USER: RMSD 7.849030
USER: SEED 120
USER: STATUS searching
USER: GENES 24
USER: genes 0 Translation |==|  0.46860 0.41429 0.67206
USER: genes 1 Rotation |==|  0.28371 0.26254 0.87260 0.58944
USER: genes 2 Torsion [C]-CA--N-[C] |==|  0.16899
USER: genes 3 Torsion [N]-C--CA-[N] |==|  0.08854
USER: genes 4 Torsion [N]-C--CA-[N] |==|  0.38102
USER: genes 5 Torsion [C]-CA--CB-[CG] |==|  0.53322
USER: genes 6 Torsion [CA]-CB--CG-[CD2] |==|  0.74252
USER: genes 7 Torsion [C]-CA--N-[C] |==|  0.82365
USER: genes 8 Torsion [N]-C--CA-[N] |==|  0.91972
USER: genes 9 Torsion [C]-CA--CB-[SG] |==|  0.81245
USER: genes 10 Torsion [CA]-CB--SG-[HG] |==|  0.93365
USER: genes 11 Torsion [C]-CA--N-[C] |==|  0.67621
USER: genes 12 Torsion [N]-CA--CB-[CG] |==|  0.79195
USER: genes 13 Torsion [CA]-CB--CG-[CD] |==|  0.28786
USER: genes 14 Torsion [CB]-CG--CD-[NE2] |==|  0.42730
USER: genes 15 Torsion [N]-CA--C-[N] |==|  0.15556
USER: genes 16 Torsion [C]-N--CA-[C] |==|  0.17072
USER: genes 17 Torsion [N]-CA--CB-[CG] |==|  0.53624
USER: genes 18 Torsion [CA]-CB--CG-[ND2] |==|  0.86814
USER: genes 19 Torsion [N]-CA--C-[N] |==|  0.10128
USER: genes 20 Torsion [C]-N--CA-[C] |==|  0.15111
USER: genes 21 Torsion [N]-CA--C-[N] |==|  0.10930
USER: genes 22 Torsion [N]-CA--CB-[OG1] |==|  0.59188
USER: genes 23 Torsion [CA]-CB--OG1-[HG1] |==|  0.51835
ROOT
ATOM      1  CA  GLN M   4      35.097  12.271  -7.070  1.00 40.00 LIG 0.18  C 
ENDROOT
BRANCH 1 2
ATOM      2  N   GLN M   4      36.395  12.317  -7.667  1.00 41.31 LIG-0.35  N 
ATOM      3 H    GLN M   4      36.557  11.717  -8.262  1.00 41.31 LIG 0.16  HD
ATOM      4  C   PRO M   3      37.243  13.265  -7.269  1.00 42.91 LIG 0.24  C 
ATOM      5 O    PRO M   3      36.924  14.122  -6.418  1.00 42.50 LIG-0.27  OA
BRANCH 4 6
ATOM      6  CA  PRO M   3      38.619  13.275  -7.943  1.00 43.35 LIG 0.18  C 
ATOM      7  N   PRO M   3      38.687  12.829  -9.327  1.00 44.79 LIG-0.34  N 
ATOM      8  C   HIS M   2      38.563  11.534  -9.729  1.00 46.46 LIG 0.24  C 
ATOM      9  CD  PRO M   3      39.149  13.949 -10.171  1.00 43.94 LIG 0.13  C 
ATOM     10 O    HIS M   2      38.282  10.588  -8.976  1.00 45.68 LIG-0.27  OA
ATOM     11  CG  PRO M   3      38.822  15.162  -9.351  1.00 40.61 LIG 0.02  C 
ATOM     12  CB  PRO M   3      39.275  14.644  -8.034  1.00 40.36 LIG 0.04  C 
BRANCH 8 13
ATOM     13  CA  HIS M   2      38.765  11.268 -11.204  1.00 46.79 LIG 0.18  C 
BRANCH 13 14
ATOM     14  CB  HIS M   2      37.373  11.130 -11.905  1.00 44.05 LIG 0.10  C 
BRANCH 14 15
ATOM     15  CG  HIS M   2      37.508  10.574 -13.326  1.00 42.32 LIG 0.06  A 
ATOM     16  CD2 HIS M   2      37.623  11.336 -14.462  1.00 41.49 LIG 0.14  A 
ATOM     17 NE2  HIS M   2      37.466  10.455 -15.412  1.00 41.41 LIG-0.25  NA
ATOM     18  CE1 HIS M   2      37.278   9.250 -14.895  1.00 41.50 LIG 0.23  A 
ATOM     19 ND1  HIS M   2      37.303   9.288 -13.582  1.00 40.17 LIG-0.24  NA
ENDBRANCH 14 15
ENDBRANCH 13 14
BRANCH 13 20
ATOM     20  N   HIS M   2      39.574  10.065 -11.360  1.00 53.14 LIG-0.35  N 
ATOM     21 H    HIS M   2      39.168   9.419 -11.755  1.00 53.14 LIG 0.16  HD
ATOM     22  C   CYS M   1      40.835   9.986 -10.922  0.42 52.47 LIG 0.24  C 
ATOM     23 O    CYS M   1      41.405  10.893 -10.308  0.42 50.41 LIG-0.27  OA
BRANCH 22 24
ATOM     24  CA  CYS M   1      41.512   8.652 -11.242  0.42 53.64 LIG 0.18  C 
BRANCH 24 25
ATOM     25  CB  CYS M   1      42.261   8.760 -12.550  0.42 54.18 LIG 0.10  C 
BRANCH 25 26
ATOM     26 SG   CYS M   1      41.021   8.952 -13.848  0.42 57.26 LIG-0.18  SA
ATOM     27 HG   CYS M   1      39.977   8.496 -13.474  0.42 57.26 LIG 0.10  HD
ENDBRANCH 25 26
ENDBRANCH 24 25
BRANCH 24 28
ATOM     28  N   CYS M   1      40.541   7.571 -11.316  0.42 53.99 LIG-0.38  N 
ATOM     29  C   ACE M   0      40.558   6.541 -10.469  0.42 54.55 LIG 0.04  C 
ATOM     30  CH3 ACE M   0      39.506   5.444 -10.563  0.42 54.45 LIG 0.05  C 
ATOM     31 H    CYS M   1      39.966   7.658 -11.949  0.42 53.99 LIG 0.16  HD
ENDBRANCH 24 28
ENDBRANCH 22 24
ENDBRANCH 13 20
ENDBRANCH 8 13
ENDBRANCH 4 6
ENDBRANCH 1 2
BRANCH 1 32
ATOM     32  CB  GLN M   4      35.224  12.072  -5.573  1.00 35.03 LIG 0.04  C 
BRANCH 32 33
ATOM     33  CG  GLN M   4      35.606  10.614  -5.301  1.00 28.64 LIG 0.10  C 
BRANCH 33 34
ATOM     34  CD  GLN M   4      37.065  10.428  -4.939  1.00 28.38 LIG 0.21  C 
ATOM     35  NE2 GLN M   4      37.315   9.350  -4.191  1.00 21.52 LIG-0.37  N 
ATOM     36 22HE GLN M   4      38.119   9.179  -3.939  1.00 21.52 LIG 0.16  HD
ATOM     37 21HE GLN M   4      36.672   8.827  -3.962  1.00 21.52 LIG 0.16  HD
ATOM     38 OE1  GLN M   4      37.939  11.237  -5.315  1.00 23.11 LIG-0.27  OA
ENDBRANCH 33 34
ENDBRANCH 32 33
ENDBRANCH 1 32
BRANCH 1 39
ATOM     39  C   GLN M   4      34.382  13.577  -7.364  1.00 43.11 LIG 0.24  C 
ATOM     40  N   ASN M   5      34.284  13.884  -8.646  1.00 48.15 LIG-0.35  N 
ATOM     41 H    ASN M   5      34.553  13.389  -9.296  1.00 48.15 LIG 0.16  HD
ATOM     42 O    GLN M   4      33.874  14.268  -6.479  1.00 42.77 LIG-0.27  OA
BRANCH 40 43
ATOM     43  CA  ASN M   5      33.683  15.146  -9.028  1.00 54.08 LIG 0.18  C 
BRANCH 43 44
ATOM     44  CB  ASN M   5      32.209  15.146  -8.511  1.00 57.18 LIG 0.14  C 
BRANCH 44 45
ATOM     45  CG  ASN M   5      31.257  16.250  -9.056  1.00 60.38 LIG 0.22  C 
ATOM     46  ND2 ASN M   5      31.593  17.539  -9.110  1.00 60.67 LIG-0.37  N 
ATOM     47 22HD ASN M   5      32.361  17.796  -8.821  1.00 60.67 LIG 0.16  HD
ATOM     48 21HD ASN M   5      31.042  18.114  -9.434  1.00 60.67 LIG 0.16  HD
ATOM     49 OD1  ASN M   5      30.133  15.994  -9.498  1.00 60.50 LIG-0.27  OA
ENDBRANCH 44 45
ENDBRANCH 43 44
BRANCH 43 50
ATOM     50  C   ASN M   5      34.508  16.280  -8.451  1.00 53.60 LIG 0.24  C 
ATOM     51 O    ASN M   5      33.922  17.252  -7.978  1.00 54.31 LIG-0.27  OA
ATOM     52  N   THR M   6      35.829  16.165  -8.391  0.00 53.23 LIG-0.34  N 
ATOM     53 H    THR M   6      36.272  15.475  -8.653  0.00 53.23 LIG 0.16  HD
BRANCH 52 54
ATOM     54  CA  THR M   6      36.633  17.241  -7.857  0.00 52.61 LIG 0.21  C 
BRANCH 54 55
ATOM     55  C   THR M   6      36.131  17.604  -6.458  0.00 52.44 LIG 0.29  C 
ATOM     56  N   NH2 M   7      35.759  16.603  -5.671  0.00 52.35 LIG-0.11  N 
ATOM     57 O    THR M   6      36.001  18.765  -6.074  0.00 52.24 LIG-0.27  OA
ENDBRANCH 54 55
BRANCH 54 58
ATOM     58  CB  THR M   6      36.569  18.419  -8.880  0.00 52.38 LIG 0.15  C 
ATOM     59  CG2 THR M   6      35.444  19.430  -8.659  0.00 52.30 LIG 0.04  C 
BRANCH 58 60
ATOM     60 OG1  THR M   6      37.845  19.036  -8.782  0.00 52.26 LIG-0.39  OA
ATOM     61 HG1  THR M   6      37.853  19.739  -9.242  0.00 52.26 LIG 0.21  HD
ENDBRANCH 58 60
ENDBRANCH 54 58
ENDBRANCH 52 54
ENDBRANCH 43 50
ENDBRANCH 40 43
ENDBRANCH 1 39
TORSDOF 22
ENDMDL
MODEL 18
USER: ADFR SOLUTION from run 81
USER: SCORE 18.080860 LL:  -4.688 LR: -14.648 RR:   0.000 FEB:  -8.085
USER: RMSD 4.860142
USER: SEED 80
USER: STATUS searching
USER: GENES 24
USER: genes 0 Translation |==|  0.58934 0.37657 0.71207
USER: genes 1 Rotation |==|  0.47991 0.81424 0.55831 0.88400
USER: genes 2 Torsion [C]-CA--N-[C] |==|  0.68952
USER: genes 3 Torsion [N]-C--CA-[N] |==|  0.77280
USER: genes 4 Torsion [N]-C--CA-[N] |==|  0.52462
USER: genes 5 Torsion [C]-CA--CB-[CG] |==|  0.40295
USER: genes 6 Torsion [CA]-CB--CG-[CD2] |==|  0.96785
USER: genes 7 Torsion [C]-CA--N-[C] |==|  0.68965
USER: genes 8 Torsion [N]-C--CA-[N] |==|  0.45441
USER: genes 9 Torsion [C]-CA--CB-[SG] |==|  0.56624
USER: genes 10 Torsion [CA]-CB--SG-[HG] |==|  0.26377
USER: genes 11 Torsion [C]-CA--N-[C] |==|  0.80635
USER: genes 12 Torsion [N]-CA--CB-[CG] |==|  0.98773
USER: genes 13 Torsion [CA]-CB--CG-[CD] |==|  0.28314
USER: genes 14 Torsion [CB]-CG--CD-[NE2] |==|  0.22493
USER: genes 15 Torsion [N]-CA--C-[N] |==|  0.41824
USER: genes 16 Torsion [C]-N--CA-[C] |==|  0.16172
USER: genes 17 Torsion [N]-CA--CB-[CG] |==|  0.60418
USER: genes 18 Torsion [CA]-CB--CG-[ND2] |==|  0.65515
USER: genes 19 Torsion [N]-CA--C-[N] |==|  0.66043
USER: genes 20 Torsion [C]-N--CA-[C] |==|  0.82687
USER: genes 21 Torsion [N]-CA--C-[N] |==|  0.40372
USER: genes 22 Torsion [N]-CA--CB-[OG1] |==|  0.94620
USER: genes 23 Torsion [CA]-CB--OG1-[HG1] |==|  0.77504
ROOT
ATOM      1  CA  GLN M   4      37.632  11.621  -6.169  1.00 40.00 LIG 0.18  C 
ENDROOT
BRANCH 1 2
ATOM      2  N   GLN M   4      36.265  11.980  -5.953  1.00 41.31 LIG-0.35  N 
ATOM      3 H    GLN M   4      35.690  11.347  -6.043  1.00 41.31 LIG 0.16  HD
ATOM      4  C   PRO M   3      35.985  13.244  -5.633  1.00 42.91 LIG 0.24  C 
ATOM      5 O    PRO M   3      36.881  14.104  -5.491  1.00 42.50 LIG-0.27  OA
BRANCH 4 6
ATOM      6  CA  PRO M   3      34.507  13.578  -5.405  1.00 43.35 LIG 0.18  C 
ATOM      7  N   PRO M   3      33.693  13.835  -6.583  1.00 44.79 LIG-0.34  N 
ATOM      8  C   HIS M   2      33.771  14.958  -7.348  1.00 46.46 LIG 0.24  C 
ATOM      9  CD  PRO M   3      32.627  12.815  -6.661  1.00 43.94 LIG 0.13  C 
ATOM     10 O    HIS M   2      34.611  15.859  -7.191  1.00 45.68 LIG-0.27  OA
ATOM     11  CG  PRO M   3      33.167  11.682  -5.840  1.00 40.61 LIG 0.02  C 
ATOM     12  CB  PRO M   3      33.706  12.487  -4.713  1.00 40.36 LIG 0.04  C 
BRANCH 8 13
ATOM     13  CA  HIS M   2      32.765  15.075  -8.471  1.00 46.79 LIG 0.18  C 
BRANCH 13 14
ATOM     14  CB  HIS M   2      32.737  13.740  -9.287  1.00 44.05 LIG 0.10  C 
BRANCH 14 15
ATOM     15  CG  HIS M   2      31.328  13.417  -9.794  1.00 42.32 LIG 0.06  A 
ATOM     16  CD2 HIS M   2      30.181  14.055  -9.391  1.00 41.49 LIG 0.14  A 
ATOM     17 NE2  HIS M   2      29.244  13.296  -9.890  1.00 41.41 LIG-0.25  NA
ATOM     18  CE1 HIS M   2      29.778  12.280 -10.551  1.00 41.50 LIG 0.23  A 
ATOM     19 ND1  HIS M   2      31.090  12.327 -10.514  1.00 40.17 LIG-0.24  NA
ENDBRANCH 14 15
ENDBRANCH 13 14
BRANCH 13 20
ATOM     20  N   HIS M   2      33.122  16.216  -9.307  1.00 53.14 LIG-0.35  N 
ATOM     21 H    HIS M   2      33.849  16.109  -9.752  1.00 53.14 LIG 0.16  HD
ATOM     22  C   CYS M   1      32.375  17.323  -9.367  0.42 52.47 LIG 0.24  C 
ATOM     23 O    CYS M   1      31.357  17.499  -8.691  0.42 50.41 LIG-0.27  OA
BRANCH 22 24
ATOM     24  CA  CYS M   1      32.906  18.367 -10.350  0.42 53.64 LIG 0.18  C 
BRANCH 24 25
ATOM     25  CB  CYS M   1      34.121  19.048  -9.765  0.42 54.18 LIG 0.10  C 
BRANCH 25 26
ATOM     26 SG   CYS M   1      34.256  20.658 -10.570  0.42 57.26 LIG-0.18  SA
ATOM     27 HG   CYS M   1      33.723  21.491  -9.891  0.42 57.26 LIG 0.10  HD
ENDBRANCH 25 26
ENDBRANCH 24 25
BRANCH 24 28
ATOM     28  N   CYS M   1      31.889  19.359 -10.668  0.42 53.99 LIG-0.38  N 
ATOM     29  C   ACE M   0      30.813  19.065 -11.398  0.42 54.55 LIG 0.04  C 
ATOM     30  CH3 ACE M   0      29.757  20.125 -11.683  0.42 54.45 LIG 0.05  C 
ATOM     31 H    CYS M   1      32.048  20.140 -10.346  0.42 53.99 LIG 0.16  HD
ENDBRANCH 24 28
ENDBRANCH 22 24
ENDBRANCH 13 20
ENDBRANCH 8 13
ENDBRANCH 4 6
ENDBRANCH 1 2
BRANCH 1 32
ATOM     32  CB  GLN M   4      37.990  10.418  -5.319  1.00 35.03 LIG 0.04  C 
BRANCH 32 33
ATOM     33  CG  GLN M   4      36.792  10.067  -4.433  1.00 28.64 LIG 0.10  C 
BRANCH 33 34
ATOM     34  CD  GLN M   4      35.993   8.883  -4.937  1.00 28.38 LIG 0.21  C 
ATOM     35  NE2 GLN M   4      36.513   7.694  -4.627  1.00 21.52 LIG-0.37  N 
ATOM     36 22HE GLN M   4      36.121   6.973  -4.884  1.00 21.52 LIG 0.16  HD
ATOM     37 21HE GLN M   4      37.241   7.648  -4.170  1.00 21.52 LIG 0.16  HD
ATOM     38 OE1  GLN M   4      34.942   9.038  -5.595  1.00 23.11 LIG-0.27  OA
ENDBRANCH 33 34
ENDBRANCH 32 33
ENDBRANCH 1 32
BRANCH 1 39
ATOM     39  C   GLN M   4      37.820  11.297  -7.640  1.00 43.11 LIG 0.24  C 
ATOM     40  N   ASN M   5      39.029  11.539  -8.116  1.00 48.15 LIG-0.35  N 
ATOM     41 H    ASN M   5      39.697  11.818  -7.652  1.00 48.15 LIG 0.16  HD
ATOM     42 O    GLN M   4      36.931  10.785  -8.323  1.00 42.77 LIG-0.27  OA
BRANCH 40 43
ATOM     43  CA  ASN M   5      39.289  11.331  -9.526  1.00 54.08 LIG 0.18  C 
BRANCH 43 44
ATOM     44  CB  ASN M   5      39.122   9.806  -9.820  1.00 57.18 LIG 0.14  C 
BRANCH 44 45
ATOM     45  CG  ASN M   5      40.103   9.160 -10.840  1.00 60.38 LIG 0.22  C 
ATOM     46  ND2 ASN M   5      39.695   8.500 -11.925  1.00 60.67 LIG-0.37  N 
ATOM     47 22HD ASN M   5      38.854   8.403 -12.078  1.00 60.67 LIG 0.16  HD
ATOM     48 21HD ASN M   5      40.272   8.172 -12.471  1.00 60.67 LIG 0.16  HD
ATOM     49 OD1  ASN M   5      41.330   9.240 -10.720  1.00 60.50 LIG-0.27  OA
ENDBRANCH 44 45
ENDBRANCH 43 44
BRANCH 43 50
ATOM     50  C   ASN M   5      38.340  12.193 -10.335  1.00 53.60 LIG 0.24  C 
ATOM     51 O    ASN M   5      38.403  13.415 -10.208  1.00 54.31 LIG-0.27  OA
ATOM     52  N   THR M   6      37.528  11.625 -11.218  0.00 53.23 LIG-0.34  N 
ATOM     53 H    THR M   6      37.498  10.781 -11.382  0.00 53.23 LIG 0.16  HD
BRANCH 52 54
ATOM     54  CA  THR M   6      36.607  12.430 -11.988  0.00 52.61 LIG 0.21  C 
BRANCH 54 55
ATOM     55  C   THR M   6      35.621  13.120 -11.042  0.00 52.44 LIG 0.29  C 
ATOM     56  N   NH2 M   7      35.213  14.336 -11.378  0.00 52.35 LIG-0.11  N 
ATOM     57 O    THR M   6      35.258  12.625  -9.977  0.00 52.24 LIG-0.27  OA
ENDBRANCH 54 55
BRANCH 54 58
ATOM     58  CB  THR M   6      35.929  11.488 -13.033  0.00 52.38 LIG 0.15  C 
ATOM     59  CG2 THR M   6      35.682  12.095 -14.413  0.00 52.30 LIG 0.04  C 
BRANCH 58 60
ATOM     60 OG1  THR M   6      36.803  10.369 -13.110  0.00 52.26 LIG-0.39  OA
ATOM     61 HG1  THR M   6      37.448  10.551 -13.616  0.00 52.26 LIG 0.21  HD
ENDBRANCH 58 60
ENDBRANCH 54 58
ENDBRANCH 52 54
ENDBRANCH 43 50
ENDBRANCH 40 43
ENDBRANCH 1 39
TORSDOF 22
ENDMDL
MODEL 19
USER: ADFR SOLUTION from run 48
USER: SCORE 18.759318 LL:  -5.460 LR: -14.593 RR:   0.000 FEB:  -8.031
USER: RMSD 5.442302
USER: SEED 47
USER: STATUS no improvement in best in 4 clusters for 5 generations
USER: GENES 24
USER: genes 0 Translation |==|  0.55887 0.63505 0.62049
USER: genes 1 Rotation |==|  0.39678 0.71160 0.28660 0.88605
USER: genes 2 Torsion [C]-CA--N-[C] |==|  0.67447
USER: genes 3 Torsion [N]-C--CA-[N] |==|  0.05816
USER: genes 4 Torsion [N]-C--CA-[N] |==|  0.20872
USER: genes 5 Torsion [C]-CA--CB-[CG] |==|  0.18593
USER: genes 6 Torsion [CA]-CB--CG-[CD2] |==|  0.98885
USER: genes 7 Torsion [C]-CA--N-[C] |==|  0.59822
USER: genes 8 Torsion [N]-C--CA-[N] |==|  0.98762
USER: genes 9 Torsion [C]-CA--CB-[SG] |==|  0.44252
USER: genes 10 Torsion [CA]-CB--SG-[HG] |==|  0.62123
USER: genes 11 Torsion [C]-CA--N-[C] |==|  0.21667
USER: genes 12 Torsion [N]-CA--CB-[CG] |==|  0.96295
USER: genes 13 Torsion [CA]-CB--CG-[CD] |==|  0.74611
USER: genes 14 Torsion [CB]-CG--CD-[NE2] |==|  0.72435
USER: genes 15 Torsion [N]-CA--C-[N] |==|  0.40605
USER: genes 16 Torsion [C]-N--CA-[C] |==|  0.78513
USER: genes 17 Torsion [N]-CA--CB-[CG] |==|  0.04676
USER: genes 18 Torsion [CA]-CB--CG-[ND2] |==|  0.24117
USER: genes 19 Torsion [N]-CA--C-[N] |==|  0.95665
USER: genes 20 Torsion [C]-N--CA-[C] |==|  0.60823
USER: genes 21 Torsion [N]-CA--C-[N] |==|  0.44409
USER: genes 22 Torsion [N]-CA--CB-[OG1] |==|  0.00251
USER: genes 23 Torsion [CA]-CB--OG1-[HG1] |==|  0.23671
ROOT
ATOM      1  CA  GLN M   4      36.992  16.080  -8.230  1.00 40.00 LIG 0.18  C 
ENDROOT
BRANCH 1 2
ATOM      2  N   GLN M   4      36.222  16.851  -9.156  1.00 41.31 LIG-0.35  N 
ATOM      3 H    GLN M   4      35.390  16.644  -9.217  1.00 41.31 LIG 0.16  HD
ATOM      4  C   PRO M   3      36.835  17.815  -9.842  1.00 42.91 LIG 0.24  C 
ATOM      5 O    PRO M   3      38.046  18.077  -9.676  1.00 42.50 LIG-0.27  OA
BRANCH 4 6
ATOM      6  CA  PRO M   3      35.967  18.617 -10.816  1.00 43.35 LIG 0.18  C 
ATOM      7  N   PRO M   3      34.529  18.606 -10.592  1.00 44.79 LIG-0.34  N 
ATOM      8  C   HIS M   2      33.716  17.540 -10.833  1.00 46.46 LIG 0.24  C 
ATOM      9  CD  PRO M   3      34.077  19.982 -10.304  1.00 43.94 LIG 0.13  C 
ATOM     10 O    HIS M   2      34.115  16.418 -11.184  1.00 45.68 LIG-0.27  OA
ATOM     11  CG  PRO M   3      35.326  20.669  -9.836  1.00 40.61 LIG 0.02  C 
ATOM     12  CB  PRO M   3      36.257  20.109 -10.850  1.00 40.36 LIG 0.04  C 
BRANCH 8 13
ATOM     13  CA  HIS M   2      32.236  17.767 -10.629  1.00 46.79 LIG 0.18  C 
BRANCH 13 14
ATOM     14  CB  HIS M   2      31.509  16.387 -10.500  1.00 44.05 LIG 0.10  C 
BRANCH 14 15
ATOM     15  CG  HIS M   2      31.917  15.650  -9.220  1.00 42.32 LIG 0.06  A 
ATOM     16  CD2 HIS M   2      32.865  16.087  -8.329  1.00 41.49 LIG 0.14  A 
ATOM     17 NE2  HIS M   2      33.035  15.046  -7.562  1.00 41.41 LIG-0.25  NA
ATOM     18  CE1 HIS M   2      32.247  14.054  -7.951  1.00 41.50 LIG 0.23  A 
ATOM     19 ND1  HIS M   2      31.526  14.402  -8.992  1.00 40.17 LIG-0.24  NA
ENDBRANCH 14 15
ENDBRANCH 13 14
BRANCH 13 20
ATOM     20  N   HIS M   2      31.720  18.551 -11.745  1.00 53.14 LIG-0.35  N 
ATOM     21 H    HIS M   2      32.092  18.372 -12.499  1.00 53.14 LIG 0.16  HD
ATOM     22  C   CYS M   1      30.755  19.464 -11.597  0.42 52.47 LIG 0.24  C 
ATOM     23 O    CYS M   1      30.255  19.760 -10.507  0.42 50.41 LIG-0.27  OA
BRANCH 22 24
ATOM     24  CA  CYS M   1      30.330  20.125 -12.908  0.42 53.64 LIG 0.18  C 
BRANCH 24 25
ATOM     25  CB  CYS M   1      28.878  19.814 -13.190  0.42 54.18 LIG 0.10  C 
BRANCH 25 26
ATOM     26 SG   CYS M   1      28.289  21.069 -14.345  0.42 57.26 LIG-0.18  SA
ATOM     27 HG   CYS M   1      27.205  21.451 -14.003  0.42 57.26 LIG 0.10  HD
ENDBRANCH 25 26
ENDBRANCH 24 25
BRANCH 24 28
ATOM     28  N   CYS M   1      31.156  19.677 -14.019  0.42 53.99 LIG-0.38  N 
ATOM     29  C   ACE M   0      30.978  18.493 -14.605  0.42 54.55 LIG 0.04  C 
ATOM     30  CH3 ACE M   0      31.845  18.074 -15.785  0.42 54.45 LIG 0.05  C 
ATOM     31 H    CYS M   1      31.760  20.240 -14.257  0.42 53.99 LIG 0.16  HD
ENDBRANCH 24 28
ENDBRANCH 22 24
ENDBRANCH 13 20
ENDBRANCH 8 13
ENDBRANCH 4 6
ENDBRANCH 1 2
BRANCH 1 32
ATOM     32  CB  GLN M   4      36.390  16.186  -6.843  1.00 35.03 LIG 0.04  C 
BRANCH 32 33
ATOM     33  CG  GLN M   4      35.375  17.333  -6.833  1.00 28.64 LIG 0.10  C 
BRANCH 33 34
ATOM     34  CD  GLN M   4      35.971  18.665  -6.429  1.00 28.38 LIG 0.21  C 
ATOM     35  NE2 GLN M   4      35.760  19.000  -5.154  1.00 21.52 LIG-0.37  N 
ATOM     36 22HE GLN M   4      36.062  19.745  -4.849  1.00 21.52 LIG 0.16  HD
ATOM     37 21HE GLN M   4      35.322  18.470  -4.637  1.00 21.52 LIG 0.16  HD
ATOM     38 OE1  GLN M   4      36.596  19.375  -7.245  1.00 23.11 LIG-0.27  OA
ENDBRANCH 33 34
ENDBRANCH 32 33
ENDBRANCH 1 32
BRANCH 1 39
ATOM     39  C   GLN M   4      36.995  14.633  -8.690  1.00 43.11 LIG 0.24  C 
ATOM     40  N   ASN M   5      38.110  13.969  -8.438  1.00 48.15 LIG-0.35  N 
ATOM     41 H    ASN M   5      38.788  14.282  -8.012  1.00 48.15 LIG 0.16  HD
ATOM     42 O    GLN M   4      36.008  14.100  -9.200  1.00 42.77 LIG-0.27  OA
BRANCH 40 43
ATOM     43  CA  ASN M   5      38.239  12.602  -8.902  1.00 54.08 LIG 0.18  C 
BRANCH 43 44
ATOM     44  CB  ASN M   5      39.760  12.254  -8.939  1.00 57.18 LIG 0.14  C 
BRANCH 44 45
ATOM     45  CG  ASN M   5      40.727  13.178  -8.144  1.00 60.38 LIG 0.22  C 
ATOM     46  ND2 ASN M   5      41.006  13.000  -6.852  1.00 60.67 LIG-0.37  N 
ATOM     47 22HD ASN M   5      40.633  12.360  -6.416  1.00 60.67 LIG 0.16  HD
ATOM     48 21HD ASN M   5      41.559  13.525  -6.456  1.00 60.67 LIG 0.16  HD
ATOM     49 OD1  ASN M   5      41.319  14.125  -8.671  1.00 60.50 LIG-0.27  OA
ENDBRANCH 44 45
ENDBRANCH 43 44
BRANCH 43 50
ATOM     50  C   ASN M   5      37.449  11.693  -7.981  1.00 53.60 LIG 0.24  C 
ATOM     51 O    ASN M   5      37.260  10.527  -8.326  1.00 54.31 LIG-0.27  OA
ATOM     52  N   THR M   6      37.055  12.142  -6.796  0.00 53.23 LIG-0.34  N 
ATOM     53 H    THR M   6      37.222  12.929  -6.492  0.00 53.23 LIG 0.16  HD
BRANCH 52 54
ATOM     54  CA  THR M   6      36.290  11.293  -5.910  0.00 52.61 LIG 0.21  C 
BRANCH 54 55
ATOM     55  C   THR M   6      35.214  12.128  -5.211  0.00 52.44 LIG 0.29  C 
ATOM     56  N   NH2 M   7      34.183  11.473  -4.695  0.00 52.35 LIG-0.11  N 
ATOM     57 O    THR M   6      35.240  13.357  -5.172  0.00 52.24 LIG-0.27  OA
ENDBRANCH 54 55
BRANCH 54 58
ATOM     58  CB  THR M   6      37.301  10.614  -4.932  0.00 52.38 LIG 0.15  C 
ATOM     59  CG2 THR M   6      37.309   9.086  -4.941  0.00 52.30 LIG 0.04  C 
BRANCH 58 60
ATOM     60 OG1  THR M   6      38.564  11.140  -5.316  0.00 52.26 LIG-0.39  OA
ATOM     61 HG1  THR M   6      38.692  11.875  -4.930  0.00 52.26 LIG 0.21  HD
ENDBRANCH 58 60
ENDBRANCH 54 58
ENDBRANCH 52 54
ENDBRANCH 43 50
ENDBRANCH 40 43
ENDBRANCH 1 39
TORSDOF 22
ENDMDL
MODEL 20
USER: ADFR SOLUTION from run 32
USER: SCORE 17.199576 LL:  -4.896 LR: -14.582 RR:   0.000 FEB:  -8.020
USER: RMSD 9.223332
USER: SEED 31
USER: STATUS no improvement in best in 9 clusters for 5 generations
USER: GENES 24
USER: genes 0 Translation |==|  0.37932 0.68851 0.61666
USER: genes 1 Rotation |==|  0.46310 0.81220 0.88286 0.56775
USER: genes 2 Torsion [C]-CA--N-[C] |==|  0.17065
USER: genes 3 Torsion [N]-C--CA-[N] |==|  0.77734
USER: genes 4 Torsion [N]-C--CA-[N] |==|  0.14039
USER: genes 5 Torsion [C]-CA--CB-[CG] |==|  0.27608
USER: genes 6 Torsion [CA]-CB--CG-[CD2] |==|  0.23750
USER: genes 7 Torsion [C]-CA--N-[C] |==|  0.61347
USER: genes 8 Torsion [N]-C--CA-[N] |==|  0.73483
USER: genes 9 Torsion [C]-CA--CB-[SG] |==|  0.40094
USER: genes 10 Torsion [CA]-CB--SG-[HG] |==|  0.97173
USER: genes 11 Torsion [C]-CA--N-[C] |==|  0.21541
USER: genes 12 Torsion [N]-CA--CB-[CG] |==|  0.58631
USER: genes 13 Torsion [CA]-CB--CG-[CD] |==|  0.40327
USER: genes 14 Torsion [CB]-CG--CD-[NE2] |==|  0.30216
USER: genes 15 Torsion [N]-CA--C-[N] |==|  0.66445
USER: genes 16 Torsion [C]-N--CA-[C] |==|  0.77101
USER: genes 17 Torsion [N]-CA--CB-[CG] |==|  0.55589
USER: genes 18 Torsion [CA]-CB--CG-[ND2] |==|  0.89056
USER: genes 19 Torsion [N]-CA--C-[N] |==|  0.95891
USER: genes 20 Torsion [C]-N--CA-[C] |==|  0.72210
USER: genes 21 Torsion [N]-CA--C-[N] |==|  0.01669
USER: genes 22 Torsion [N]-CA--CB-[OG1] |==|  0.54360
USER: genes 23 Torsion [CA]-CB--OG1-[HG1] |==|  0.91678
ROOT
ATOM      1  CA  GLN M   4      33.222  17.002  -8.316  1.00 40.00 LIG 0.18  C 
ENDROOT
BRANCH 1 2
ATOM      2  N   GLN M   4      33.346  15.670  -7.810  1.00 41.31 LIG-0.35  N 
ATOM      3 H    GLN M   4      33.301  15.587  -6.955  1.00 41.31 LIG 0.16  HD
ATOM      4  C   PRO M   3      33.520  14.675  -8.680  1.00 42.91 LIG 0.24  C 
ATOM      5 O    PRO M   3      33.547  14.873  -9.914  1.00 42.50 LIG-0.27  OA
BRANCH 4 6
ATOM      6  CA  PRO M   3      33.642  13.267  -8.089  1.00 43.35 LIG 0.18  C 
ATOM      7  N   PRO M   3      34.935  12.883  -7.543  1.00 44.79 LIG-0.34  N 
ATOM      8  C   HIS M   2      36.039  12.604  -8.290  1.00 46.46 LIG 0.24  C 
ATOM      9  CD  PRO M   3      34.785  12.612  -6.099  1.00 43.94 LIG 0.13  C 
ATOM     10 O    HIS M   2      36.104  12.735  -9.523  1.00 45.68 LIG-0.27  OA
ATOM     11  CG  PRO M   3      33.539  13.361  -5.730  1.00 40.61 LIG 0.02  C 
ATOM     12  CB  PRO M   3      32.721  12.986  -6.913  1.00 40.36 LIG 0.04  C 
BRANCH 8 13
ATOM     13  CA  HIS M   2      37.257  12.126  -7.533  1.00 46.79 LIG 0.18  C 
BRANCH 13 14
ATOM     14  CB  HIS M   2      38.364  11.689  -8.549  1.00 44.05 LIG 0.10  C 
BRANCH 14 15
ATOM     15  CG  HIS M   2      39.419  12.783  -8.741  1.00 42.32 LIG 0.06  A 
ATOM     16  CD2 HIS M   2      40.520  12.964  -7.941  1.00 41.49 LIG 0.14  A 
ATOM     17 NE2  HIS M   2      40.968  14.125  -8.334  1.00 41.41 LIG-0.25  NA
ATOM     18  CE1 HIS M   2      40.205  14.609  -9.303  1.00 41.50 LIG 0.23  A 
ATOM     19 ND1  HIS M   2      39.221  13.787  -9.587  1.00 40.17 LIG-0.24  NA
ENDBRANCH 14 15
ENDBRANCH 13 14
BRANCH 13 20
ATOM     20  N   HIS M   2      36.865  11.032  -6.652  1.00 53.14 LIG-0.35  N 
ATOM     21 H    HIS M   2      36.311  10.479  -7.006  1.00 53.14 LIG 0.16  HD
ATOM     22  C   CYS M   1      37.333  10.911  -5.406  0.42 52.47 LIG 0.24  C 
ATOM     23 O    CYS M   1      38.089  11.732  -4.876  0.42 50.41 LIG-0.27  OA
BRANCH 22 24
ATOM     24  CA  CYS M   1      36.835   9.660  -4.682  0.42 53.64 LIG 0.18  C 
BRANCH 24 25
ATOM     25  CB  CYS M   1      36.496   8.587  -5.691  0.42 54.18 LIG 0.10  C 
BRANCH 25 26
ATOM     26 SG   CYS M   1      36.949   7.007  -4.945  0.42 57.26 LIG-0.18  SA
ATOM     27 HG   CYS M   1      37.579   7.204  -3.943  0.42 57.26 LIG 0.10  HD
ENDBRANCH 25 26
ENDBRANCH 24 25
BRANCH 24 28
ATOM     28  N   CYS M   1      35.669   9.953  -3.862  0.42 53.99 LIG-0.38  N 
ATOM     29  C   ACE M   0      34.450  10.097  -4.383  0.42 54.55 LIG 0.04  C 
ATOM     30  CH3 ACE M   0      33.251  10.374  -3.486  0.42 54.45 LIG 0.05  C 
ATOM     31 H    CYS M   1      35.839  10.023  -3.022  0.42 53.99 LIG 0.16  HD
ENDBRANCH 24 28
ENDBRANCH 22 24
ENDBRANCH 13 20
ENDBRANCH 8 13
ENDBRANCH 4 6
ENDBRANCH 1 2
BRANCH 1 32
ATOM     32  CB  GLN M   4      34.463  17.373  -9.102  1.00 35.03 LIG 0.04  C 
BRANCH 32 33
ATOM     33  CG  GLN M   4      34.699  18.881  -8.968  1.00 28.64 LIG 0.10  C 
BRANCH 33 34
ATOM     34  CD  GLN M   4      36.164  19.263  -8.929  1.00 28.38 LIG 0.21  C 
ATOM     35  NE2 GLN M   4      36.602  19.881 -10.029  1.00 21.52 LIG-0.37  N 
ATOM     36 22HE GLN M   4      37.424  20.124 -10.087  1.00 21.52 LIG 0.16  HD
ATOM     37 21HE GLN M   4      36.061  20.036 -10.679  1.00 21.52 LIG 0.16  HD
ATOM     38 OE1  GLN M   4      36.881  19.000  -7.941  1.00 23.11 LIG-0.27  OA
ENDBRANCH 33 34
ENDBRANCH 32 33
ENDBRANCH 1 32
BRANCH 1 39
ATOM     39  C   GLN M   4      31.997  17.067  -9.210  1.00 43.11 LIG 0.24  C 
ATOM     40  N   ASN M   5      32.235  17.431 -10.458  1.00 48.15 LIG-0.35  N 
ATOM     41 H    ASN M   5      33.014  17.585 -10.790  1.00 48.15 LIG 0.16  HD
ATOM     42 O    GLN M   4      30.875  16.743  -8.818  1.00 42.77 LIG-0.27  OA
BRANCH 40 43
ATOM     43  CA  ASN M   5      31.122  17.593 -11.372  1.00 54.08 LIG 0.18  C 
BRANCH 43 44
ATOM     44  CB  ASN M   5      31.563  18.593 -12.487  1.00 57.18 LIG 0.14  C 
BRANCH 44 45
ATOM     45  CG  ASN M   5      30.442  19.302 -13.300  1.00 60.38 LIG 0.22  C 
ATOM     46  ND2 ASN M   5      29.327  18.684 -13.693  1.00 60.67 LIG-0.37  N 
ATOM     47 22HD ASN M   5      29.209  17.852 -13.511  1.00 60.67 LIG 0.16  HD
ATOM     48 21HD ASN M   5      28.725  19.119 -14.127  1.00 60.67 LIG 0.16  HD
ATOM     49 OD1  ASN M   5      30.505  20.495 -13.614  1.00 60.50 LIG-0.27  OA
ENDBRANCH 44 45
ENDBRANCH 43 44
BRANCH 43 50
ATOM     50  C   ASN M   5      30.734  16.234 -11.922  1.00 53.60 LIG 0.24  C 
ATOM     51 O    ASN M   5      29.688  16.135 -12.561  1.00 54.31 LIG-0.27  OA
ATOM     52  N   THR M   6      31.563  15.207 -11.778  0.00 53.23 LIG-0.34  N 
ATOM     53 H    THR M   6      32.331  15.250 -11.393  0.00 53.23 LIG 0.16  HD
BRANCH 52 54
ATOM     54  CA  THR M   6      31.204  13.901 -12.284  0.00 52.61 LIG 0.21  C 
BRANCH 54 55
ATOM     55  C   THR M   6      30.689  13.034 -11.132  0.00 52.44 LIG 0.29  C 
ATOM     56  N   NH2 M   7      30.542  13.623  -9.953  0.00 52.35 LIG-0.11  N 
ATOM     57 O    THR M   6      30.478  11.828 -11.244  0.00 52.24 LIG-0.27  OA
ENDBRANCH 54 55
BRANCH 54 58
ATOM     58  CB  THR M   6      32.463  13.320 -13.001  0.00 52.38 LIG 0.15  C 
ATOM     59  CG2 THR M   6      33.596  12.858 -12.085  0.00 52.30 LIG 0.04  C 
BRANCH 58 60
ATOM     60 OG1  THR M   6      31.956  12.244 -13.779  0.00 52.26 LIG-0.39  OA
ATOM     61 HG1  THR M   6      31.282  11.916 -13.398  0.00 52.26 LIG 0.21  HD
ENDBRANCH 58 60
ENDBRANCH 54 58
ENDBRANCH 52 54
ENDBRANCH 43 50
ENDBRANCH 40 43
ENDBRANCH 1 39
TORSDOF 22
ENDMDL
MODEL 21
USER: ADFR SOLUTION from run 46
USER: SCORE 18.899397 LL:  -5.378 LR: -14.574 RR:   0.000 FEB:  -8.012
USER: RMSD 4.211319
USER: SEED 45
USER: STATUS 1 or 2 clusters left
USER: GENES 24
USER: genes 0 Translation |==|  0.47356 0.49613 0.73070
USER: genes 1 Rotation |==|  0.52885 0.56188 0.34839 0.97154
USER: genes 2 Torsion [C]-CA--N-[C] |==|  0.76445
USER: genes 3 Torsion [N]-C--CA-[N] |==|  0.09320
USER: genes 4 Torsion [N]-C--CA-[N] |==|  0.20709
USER: genes 5 Torsion [C]-CA--CB-[CG] |==|  0.76332
USER: genes 6 Torsion [CA]-CB--CG-[CD2] |==|  0.18799
USER: genes 7 Torsion [C]-CA--N-[C] |==|  0.55582
USER: genes 8 Torsion [N]-C--CA-[N] |==|  0.89265
USER: genes 9 Torsion [C]-CA--CB-[SG] |==|  0.29667
USER: genes 10 Torsion [CA]-CB--SG-[HG] |==|  0.64418
USER: genes 11 Torsion [C]-CA--N-[C] |==|  0.82598
USER: genes 12 Torsion [N]-CA--CB-[CG] |==|  0.51165
USER: genes 13 Torsion [CA]-CB--CG-[CD] |==|  0.55762
USER: genes 14 Torsion [CB]-CG--CD-[NE2] |==|  0.48604
USER: genes 15 Torsion [N]-CA--C-[N] |==|  0.36467
USER: genes 16 Torsion [C]-N--CA-[C] |==|  0.15369
USER: genes 17 Torsion [N]-CA--CB-[CG] |==|  0.91749
USER: genes 18 Torsion [CA]-CB--CG-[ND2] |==|  0.84721
USER: genes 19 Torsion [N]-CA--C-[N] |==|  0.14983
USER: genes 20 Torsion [C]-N--CA-[C] |==|  0.62775
USER: genes 21 Torsion [N]-CA--C-[N] |==|  0.41524
USER: genes 22 Torsion [N]-CA--CB-[OG1] |==|  0.15608
USER: genes 23 Torsion [CA]-CB--OG1-[HG1] |==|  0.01970
ROOT
ATOM      1  CA  GLN M   4      35.201  13.683  -5.750  1.00 40.00 LIG 0.18  C 
ENDROOT
BRANCH 1 2
ATOM      2  N   GLN M   4      35.038  14.684  -6.759  1.00 41.31 LIG-0.35  N 
ATOM      3 H    GLN M   4      34.306  14.650  -7.209  1.00 41.31 LIG 0.16  HD
ATOM      4  C   PRO M   3      36.012  15.579  -6.926  1.00 42.91 LIG 0.24  C 
ATOM      5 O    PRO M   3      37.037  15.582  -6.211  1.00 42.50 LIG-0.27  OA
BRANCH 4 6
ATOM      6  CA  PRO M   3      35.789  16.635  -8.014  1.00 43.35 LIG 0.18  C 
ATOM      7  N   PRO M   3      34.422  17.083  -8.237  1.00 44.79 LIG-0.34  N 
ATOM      8  C   HIS M   2      33.452  16.339  -8.839  1.00 46.46 LIG 0.24  C 
ATOM      9  CD  PRO M   3      34.335  18.526  -7.937  1.00 43.94 LIG 0.13  C 
ATOM     10 O    HIS M   2      33.588  15.155  -9.184  1.00 45.68 LIG-0.27  OA
ATOM     11  CG  PRO M   3      35.509  18.767  -7.035  1.00 40.61 LIG 0.02  C 
ATOM     12  CB  PRO M   3      36.506  17.954  -7.780  1.00 40.36 LIG 0.04  C 
BRANCH 8 13
ATOM     13  CA  HIS M   2      32.126  17.027  -9.066  1.00 46.79 LIG 0.18  C 
BRANCH 13 14
ATOM     14  CB  HIS M   2      31.022  15.953  -9.344  1.00 44.05 LIG 0.10  C 
BRANCH 14 15
ATOM     15  CG  HIS M   2      30.982  15.554 -10.823  1.00 42.32 LIG 0.06  A 
ATOM     16  CD2 HIS M   2      31.970  14.863 -11.479  1.00 41.49 LIG 0.14  A 
ATOM     17 NE2  HIS M   2      31.612  14.973 -12.728  1.00 41.41 LIG-0.25  NA
ATOM     18  CE1 HIS M   2      30.489  15.668 -12.825  1.00 41.50 LIG 0.23  A 
ATOM     19 ND1  HIS M   2      30.062  16.047 -11.642  1.00 40.17 LIG-0.24  NA
ENDBRANCH 14 15
ENDBRANCH 13 14
BRANCH 13 20
ATOM     20  N   HIS M   2      32.264  17.964 -10.175  1.00 53.14 LIG-0.35  N 
ATOM     21 H    HIS M   2      32.934  17.802 -10.688  1.00 53.14 LIG 0.16  HD
ATOM     22  C   CYS M   1      31.417  18.981 -10.365  0.42 52.47 LIG 0.24  C 
ATOM     23 O    CYS M   1      30.484  19.248  -9.601  0.42 50.41 LIG-0.27  OA
BRANCH 22 24
ATOM     24  CA  CYS M   1      31.717  19.802 -11.620  0.42 53.64 LIG 0.18  C 
BRANCH 24 25
ATOM     25  CB  CYS M   1      31.104  19.132 -12.828  0.42 54.18 LIG 0.10  C 
BRANCH 25 26
ATOM     26 SG   CYS M   1      29.676  20.125 -13.308  0.42 57.26 LIG-0.18  SA
ATOM     27 HG   CYS M   1      28.712  19.418 -13.407  0.42 57.26 LIG 0.10  HD
ENDBRANCH 25 26
ENDBRANCH 24 25
BRANCH 24 28
ATOM     28  N   CYS M   1      33.150  19.961 -11.818  0.42 53.99 LIG-0.38  N 
ATOM     29  C   ACE M   0      33.922  20.603 -10.941  0.42 54.55 LIG 0.04  C 
ATOM     30  CH3 ACE M   0      35.423  20.722 -11.171  0.42 54.45 LIG 0.05  C 
ATOM     31 H    CYS M   1      33.446  19.608 -12.544  0.42 53.99 LIG 0.16  HD
ENDBRANCH 24 28
ENDBRANCH 22 24
ENDBRANCH 13 20
ENDBRANCH 8 13
ENDBRANCH 4 6
ENDBRANCH 1 2
BRANCH 1 32
ATOM     32  CB  GLN M   4      33.844  13.194  -5.286  1.00 35.03 LIG 0.04  C 
BRANCH 32 33
ATOM     33  CG  GLN M   4      34.044  12.203  -4.136  1.00 28.64 LIG 0.10  C 
BRANCH 33 34
ATOM     34  CD  GLN M   4      32.860  11.284  -3.915  1.00 28.38 LIG 0.21  C 
ATOM     35  NE2 GLN M   4      33.057  10.344  -2.988  1.00 21.52 LIG-0.37  N 
ATOM     36 22HE GLN M   4      32.434   9.779  -2.810  1.00 21.52 LIG 0.16  HD
ATOM     37 21HE GLN M   4      33.807  10.304  -2.569  1.00 21.52 LIG 0.16  HD
ATOM     38 OE1  GLN M   4      31.804  11.413  -4.569  1.00 23.11 LIG-0.27  OA
ENDBRANCH 33 34
ENDBRANCH 32 33
ENDBRANCH 1 32
BRANCH 1 39
ATOM     39  C   GLN M   4      36.000  12.533  -6.334  1.00 43.11 LIG 0.24  C 
ATOM     40  N   ASN M   5      37.012  12.122  -5.591  1.00 48.15 LIG-0.35  N 
ATOM     41 H    ASN M   5      37.211  12.426  -4.811  1.00 48.15 LIG 0.16  HD
ATOM     42 O    GLN M   4      35.689  11.982  -7.392  1.00 42.77 LIG-0.27  OA
BRANCH 40 43
ATOM     43  CA  ASN M   5      37.881  11.076  -6.094  1.00 54.08 LIG 0.18  C 
BRANCH 43 44
ATOM     44  CB  ASN M   5      37.047   9.758  -6.163  1.00 57.18 LIG 0.14  C 
BRANCH 44 45
ATOM     45  CG  ASN M   5      35.892   9.584  -5.134  1.00 60.38 LIG 0.22  C 
ATOM     46  ND2 ASN M   5      36.072   9.678  -3.816  1.00 60.67 LIG-0.37  N 
ATOM     47 22HD ASN M   5      36.857   9.826  -3.499  1.00 60.67 LIG 0.16  HD
ATOM     48 21HD ASN M   5      35.402   9.591  -3.284  1.00 60.67 LIG 0.16  HD
ATOM     49 OD1  ASN M   5      34.725   9.371  -5.479  1.00 60.50 LIG-0.27  OA
ENDBRANCH 44 45
ENDBRANCH 43 44
BRANCH 43 50
ATOM     50  C   ASN M   5      38.428  11.497  -7.444  1.00 53.60 LIG 0.24  C 
ATOM     51 O    ASN M   5      38.212  10.775  -8.416  1.00 54.31 LIG-0.27  OA
ATOM     52  N   THR M   6      39.047  12.664  -7.566  0.00 53.23 LIG-0.34  N 
ATOM     53 H    THR M   6      39.162  13.226  -6.924  0.00 53.23 LIG 0.16  HD
BRANCH 52 54
ATOM     54  CA  THR M   6      39.587  13.076  -8.842  0.00 52.61 LIG 0.21  C 
BRANCH 54 55
ATOM     55  C   THR M   6      41.003  13.622  -8.643  0.00 52.44 LIG 0.29  C 
ATOM     56  N   NH2 M   7      41.856  13.466  -9.646  0.00 52.35 LIG-0.11  N 
ATOM     57 O    THR M   6      41.384  14.125  -7.588  0.00 52.24 LIG-0.27  OA
ENDBRANCH 54 55
BRANCH 54 58
ATOM     58  CB  THR M   6      38.589  14.110  -9.455  0.00 52.38 LIG 0.15  C 
ATOM     59  CG2 THR M   6      37.216  13.561  -9.839  0.00 52.30 LIG 0.04  C 
BRANCH 58 60
ATOM     60 OG1  THR M   6      38.481  15.121  -8.462  0.00 52.26 LIG-0.39  OA
ATOM     61 HG1  THR M   6      39.038  14.974  -7.850  0.00 52.26 LIG 0.21  HD
ENDBRANCH 58 60
ENDBRANCH 54 58
ENDBRANCH 52 54
ENDBRANCH 43 50
ENDBRANCH 40 43
ENDBRANCH 1 39
TORSDOF 22
ENDMDL
MODEL 22
USER: ADFR SOLUTION from run 193
USER: SCORE 17.923551 LL:  -4.618 LR: -14.540 RR:   0.000 FEB:  -7.977
USER: RMSD 4.776709
USER: SEED 192
USER: STATUS searching
USER: GENES 24
USER: genes 0 Translation |==|  0.56427 0.37716 0.66169
USER: genes 1 Rotation |==|  0.65732 0.75769 0.61035 0.88297
USER: genes 2 Torsion [C]-CA--N-[C] |==|  0.74969
USER: genes 3 Torsion [N]-C--CA-[N] |==|  0.82374
USER: genes 4 Torsion [N]-C--CA-[N] |==|  0.49634
USER: genes 5 Torsion [C]-CA--CB-[CG] |==|  0.35934
USER: genes 6 Torsion [CA]-CB--CG-[CD2] |==|  0.99924
USER: genes 7 Torsion [C]-CA--N-[C] |==|  0.18619
USER: genes 8 Torsion [N]-C--CA-[N] |==|  0.93350
USER: genes 9 Torsion [C]-CA--CB-[SG] |==|  0.47818
USER: genes 10 Torsion [CA]-CB--SG-[HG] |==|  0.59551
USER: genes 11 Torsion [C]-CA--N-[C] |==|  0.81111
USER: genes 12 Torsion [N]-CA--CB-[CG] |==|  0.85348
USER: genes 13 Torsion [CA]-CB--CG-[CD] |==|  0.87423
USER: genes 14 Torsion [CB]-CG--CD-[NE2] |==|  0.43220
USER: genes 15 Torsion [N]-CA--C-[N] |==|  0.30399
USER: genes 16 Torsion [C]-N--CA-[C] |==|  0.79462
USER: genes 17 Torsion [N]-CA--CB-[CG] |==|  0.57382
USER: genes 18 Torsion [CA]-CB--CG-[ND2] |==|  0.92244
USER: genes 19 Torsion [N]-CA--C-[N] |==|  0.91356
USER: genes 20 Torsion [C]-N--CA-[C] |==|  0.70581
USER: genes 21 Torsion [N]-CA--C-[N] |==|  0.98587
USER: genes 22 Torsion [N]-CA--CB-[OG1] |==|  0.16571
USER: genes 23 Torsion [CA]-CB--OG1-[HG1] |==|  0.70138
ROOT
ATOM      1  CA  GLN M   4      37.106  11.631  -7.303  1.00 40.00 LIG 0.18  C 
ENDROOT
BRANCH 1 2
ATOM      2  N   GLN M   4      35.840  12.138  -6.871  1.00 41.31 LIG-0.35  N 
ATOM      3 H    GLN M   4      35.149  11.701  -7.138  1.00 41.31 LIG 0.16  HD
ATOM      4  C   PRO M   3      35.822  13.227  -6.103  1.00 42.91 LIG 0.24  C 
ATOM      5 O    PRO M   3      36.874  13.791  -5.731  1.00 42.50 LIG-0.27  OA
BRANCH 4 6
ATOM      6  CA  PRO M   3      34.443  13.728  -5.661  1.00 43.35 LIG 0.18  C 
ATOM      7  N   PRO M   3      33.533  14.178  -6.703  1.00 44.79 LIG-0.34  N 
ATOM      8  C   HIS M   2      33.669  15.339  -7.402  1.00 46.46 LIG 0.24  C 
ATOM      9  CD  PRO M   3      32.337  13.312  -6.703  1.00 43.94 LIG 0.13  C 
ATOM     10 O    HIS M   2      34.637  16.110  -7.301  1.00 45.68 LIG-0.27  OA
ATOM     11  CG  PRO M   3      32.814  12.058  -6.032  1.00 40.61 LIG 0.02  C 
ATOM     12  CB  PRO M   3      33.591  12.697  -4.939  1.00 40.36 LIG 0.04  C 
BRANCH 8 13
ATOM     13  CA  HIS M   2      32.558  15.671  -8.372  1.00 46.79 LIG 0.18  C 
BRANCH 13 14
ATOM     14  CB  HIS M   2      32.424  14.520  -9.424  1.00 44.05 LIG 0.10  C 
BRANCH 14 15
ATOM     15  CG  HIS M   2      30.975  14.037  -9.551  1.00 42.32 LIG 0.06  A 
ATOM     16  CD2 HIS M   2      29.914  14.535  -8.837  1.00 41.49 LIG 0.14  A 
ATOM     17 NE2  HIS M   2      28.968  13.675  -9.097  1.00 41.41 LIG-0.25  NA
ATOM     18  CE1 HIS M   2      29.416  12.731  -9.913  1.00 41.50 LIG 0.23  A 
ATOM     19 ND1  HIS M   2      30.676  12.931 -10.222  1.00 40.17 LIG-0.24  NA
ENDBRANCH 14 15
ENDBRANCH 13 14
BRANCH 13 20
ATOM     20  N   HIS M   2      32.850  16.953  -9.003  1.00 53.14 LIG-0.35  N 
ATOM     21 H    HIS M   2      32.303  17.580  -8.790  1.00 53.14 LIG 0.16  HD
ATOM     22  C   CYS M   1      33.881  17.124  -9.837  0.42 52.47 LIG 0.24  C 
ATOM     23 O    CYS M   1      34.638  16.213 -10.185  0.42 50.41 LIG-0.27  OA
BRANCH 22 24
ATOM     24  CA  CYS M   1      34.032  18.561 -10.338  0.42 53.64 LIG 0.18  C 
BRANCH 24 25
ATOM     25  CB  CYS M   1      35.076  19.281  -9.516  0.42 54.18 LIG 0.10  C 
BRANCH 25 26
ATOM     26 SG   CYS M   1      35.360  20.875 -10.312  0.42 57.26 LIG-0.18  SA
ATOM     27 HG   CYS M   1      36.513  21.184 -10.191  0.42 57.26 LIG 0.10  HD
ENDBRANCH 25 26
ENDBRANCH 24 25
BRANCH 24 28
ATOM     28  N   CYS M   1      32.769  19.280 -10.271  0.42 53.99 LIG-0.38  N 
ATOM     29  C   ACE M   0      31.734  18.974 -11.054  0.42 54.55 LIG 0.04  C 
ATOM     30  CH3 ACE M   0      30.419  19.732 -10.932  0.42 54.45 LIG 0.05  C 
ATOM     31 H    CYS M   1      32.755  19.913  -9.689  0.42 53.99 LIG 0.16  HD
ENDBRANCH 24 28
ENDBRANCH 22 24
ENDBRANCH 13 20
ENDBRANCH 8 13
ENDBRANCH 4 6
ENDBRANCH 1 2
BRANCH 1 32
ATOM     32  CB  GLN M   4      37.030  10.126  -7.467  1.00 35.03 LIG 0.04  C 
BRANCH 32 33
ATOM     33  CG  GLN M   4      36.484   9.516  -6.173  1.00 28.64 LIG 0.10  C 
BRANCH 33 34
ATOM     34  CD  GLN M   4      37.121  10.082  -4.921  1.00 28.38 LIG 0.21  C 
ATOM     35  NE2 GLN M   4      36.365   9.983  -3.825  1.00 21.52 LIG-0.37  N 
ATOM     36 22HE GLN M   4      36.654  10.287  -3.075  1.00 21.52 LIG 0.16  HD
ATOM     37 21HE GLN M   4      35.589   9.613  -3.869  1.00 21.52 LIG 0.16  HD
ATOM     38 OE1  GLN M   4      38.256  10.602  -4.945  1.00 23.11 LIG-0.27  OA
ENDBRANCH 33 34
ENDBRANCH 32 33
ENDBRANCH 1 32
BRANCH 1 39
ATOM     39  C   GLN M   4      37.464  12.285  -8.625  1.00 43.11 LIG 0.24  C 
ATOM     40  N   ASN M   5      38.459  13.152  -8.568  1.00 48.15 LIG-0.35  N 
ATOM     41 H    ASN M   5      38.922  13.330  -7.865  1.00 48.15 LIG 0.16  HD
ATOM     42 O    GLN M   4      36.911  11.981  -9.684  1.00 42.77 LIG-0.27  OA
BRANCH 40 43
ATOM     43  CA  ASN M   5      38.829  13.884  -9.763  1.00 54.08 LIG 0.18  C 
BRANCH 43 44
ATOM     44  CB  ASN M   5      39.702  15.102  -9.325  1.00 57.18 LIG 0.14  C 
BRANCH 44 45
ATOM     45  CG  ASN M   5      39.704  16.353 -10.250  1.00 60.38 LIG 0.22  C 
ATOM     46  ND2 ASN M   5      39.491  16.287 -11.565  1.00 60.67 LIG-0.37  N 
ATOM     47 22HD ASN M   5      39.359  15.525 -11.941  1.00 60.67 LIG 0.16  HD
ATOM     48 21HD ASN M   5      39.485  17.006 -12.036  1.00 60.67 LIG 0.16  HD
ATOM     49 OD1  ASN M   5      39.881  17.496  -9.816  1.00 60.50 LIG-0.27  OA
ENDBRANCH 44 45
ENDBRANCH 43 44
BRANCH 43 50
ATOM     50  C   ASN M   5      39.558  12.948 -10.707  1.00 53.60 LIG 0.24  C 
ATOM     51 O    ASN M   5      39.517  13.181 -11.914  1.00 54.31 LIG-0.27  OA
ATOM     52  N   THR M   6      40.290  11.956 -10.213  0.00 53.23 LIG-0.34  N 
ATOM     53 H    THR M   6      40.395  11.798  -9.374  0.00 53.23 LIG 0.16  HD
BRANCH 52 54
ATOM     54  CA  THR M   6      40.981  11.046 -11.098  0.00 52.61 LIG 0.21  C 
BRANCH 54 55
ATOM     55  C   THR M   6      40.252   9.700 -11.113  0.00 52.44 LIG 0.29  C 
ATOM     56  N   NH2 M   7      39.230   9.558 -10.279  0.00 52.35 LIG-0.11  N 
ATOM     57 O    THR M   6      40.614   8.750 -11.804  0.00 52.24 LIG-0.27  OA
ENDBRANCH 54 55
BRANCH 54 58
ATOM     58  CB  THR M   6      42.462  10.960 -10.609  0.00 52.38 LIG 0.15  C 
ATOM     59  CG2 THR M   6      43.258  12.262 -10.671  0.00 52.30 LIG 0.04  C 
BRANCH 58 60
ATOM     60 OG1  THR M   6      42.361  10.479  -9.275  0.00 52.26 LIG-0.39  OA
ATOM     61 HG1  THR M   6      42.536  11.101  -8.739  0.00 52.26 LIG 0.21  HD
ENDBRANCH 58 60
ENDBRANCH 54 58
ENDBRANCH 52 54
ENDBRANCH 43 50
ENDBRANCH 40 43
ENDBRANCH 1 39
TORSDOF 22
ENDMDL
MODEL 23
USER: ADFR SOLUTION from run 163
USER: SCORE 17.916429 LL:  -5.118 LR: -14.479 RR:   0.000 FEB:  -7.916
USER: RMSD 4.763844
USER: SEED 162
USER: STATUS no improvement in best in 2 clusters for 5 generations
USER: GENES 24
USER: genes 0 Translation |==|  0.44102 0.50278 0.72022
USER: genes 1 Rotation |==|  0.45890 0.49410 0.52962 0.99739
USER: genes 2 Torsion [C]-CA--N-[C] |==|  0.16666
USER: genes 3 Torsion [N]-C--CA-[N] |==|  0.04334
USER: genes 4 Torsion [N]-C--CA-[N] |==|  0.88926
USER: genes 5 Torsion [C]-CA--CB-[CG] |==|  0.38453
USER: genes 6 Torsion [CA]-CB--CG-[CD2] |==|  0.43521
USER: genes 7 Torsion [C]-CA--N-[C] |==|  0.84914
USER: genes 8 Torsion [N]-C--CA-[N] |==|  0.78949
USER: genes 9 Torsion [C]-CA--CB-[SG] |==|  0.65691
USER: genes 10 Torsion [CA]-CB--SG-[HG] |==|  0.74461
USER: genes 11 Torsion [C]-CA--N-[C] |==|  0.63510
USER: genes 12 Torsion [N]-CA--CB-[CG] |==|  0.53143
USER: genes 13 Torsion [CA]-CB--CG-[CD] |==|  0.55345
USER: genes 14 Torsion [CB]-CG--CD-[NE2] |==|  0.37233
USER: genes 15 Torsion [N]-CA--C-[N] |==|  0.68860
USER: genes 16 Torsion [C]-N--CA-[C] |==|  0.78521
USER: genes 17 Torsion [N]-CA--CB-[CG] |==|  0.09272
USER: genes 18 Torsion [CA]-CB--CG-[ND2] |==|  0.57852
USER: genes 19 Torsion [N]-CA--C-[N] |==|  0.32027
USER: genes 20 Torsion [C]-N--CA-[C] |==|  0.55293
USER: genes 21 Torsion [N]-CA--C-[N] |==|  0.42263
USER: genes 22 Torsion [N]-CA--CB-[OG1] |==|  0.06425
USER: genes 23 Torsion [CA]-CB--OG1-[HG1] |==|  0.75514
ROOT
ATOM      1  CA  GLN M   4      34.517  13.798  -5.986  1.00 40.00 LIG 0.18  C 
ENDROOT
BRANCH 1 2
ATOM      2  N   GLN M   4      34.066  14.223  -7.275  1.00 41.31 LIG-0.35  N 
ATOM      3 H    GLN M   4      33.743  15.019  -7.317  1.00 41.31 LIG 0.16  HD
ATOM      4  C   PRO M   3      34.176  13.374  -8.296  1.00 42.91 LIG 0.24  C 
ATOM      5 O    PRO M   3      34.684  12.240  -8.162  1.00 42.50 LIG-0.27  OA
BRANCH 4 6
ATOM      6  CA  PRO M   3      33.684  13.877  -9.657  1.00 43.35 LIG 0.18  C 
ATOM      7  N   PRO M   3      33.474  15.310  -9.802  1.00 44.79 LIG-0.34  N 
ATOM      8  C   HIS M   2      32.447  16.003  -9.237  1.00 46.46 LIG 0.24  C 
ATOM      9  CD  PRO M   3      34.393  15.828 -10.836  1.00 43.94 LIG 0.13  C 
ATOM     10 O    HIS M   2      31.617  15.514  -8.454  1.00 45.68 LIG-0.27  OA
ATOM     11  CG  PRO M   3      35.482  14.798 -10.883  1.00 40.61 LIG 0.02  C 
ATOM     12  CB  PRO M   3      34.619  13.589 -10.820  1.00 40.36 LIG 0.04  C 
BRANCH 8 13
ATOM     13  CA  HIS M   2      32.352  17.469  -9.594  1.00 46.79 LIG 0.18  C 
BRANCH 13 14
ATOM     14  CB  HIS M   2      31.618  17.625 -10.968  1.00 44.05 LIG 0.10  C 
BRANCH 14 15
ATOM     15  CG  HIS M   2      30.630  18.795 -10.951  1.00 42.32 LIG 0.06  A 
ATOM     16  CD2 HIS M   2      30.187  19.468 -12.063  1.00 41.49 LIG 0.14  A 
ATOM     17 NE2  HIS M   2      29.578  20.500 -11.547  1.00 41.41 LIG-0.25  NA
ATOM     18  CE1 HIS M   2      29.638  20.455 -10.224  1.00 41.50 LIG 0.23  A 
ATOM     19 ND1  HIS M   2      30.290  19.391  -9.815  1.00 40.17 LIG-0.24  NA
ENDBRANCH 14 15
ENDBRANCH 13 14
BRANCH 13 20
ATOM     20  N   HIS M   2      33.695  18.034  -9.627  1.00 53.14 LIG-0.35  N 
ATOM     21 H    HIS M   2      33.889  18.431 -10.365  1.00 53.14 LIG 0.16  HD
ATOM     22  C   CYS M   1      34.541  17.937  -8.597  0.42 52.47 LIG 0.24  C 
ATOM     23 O    CYS M   1      34.284  17.324  -7.556  0.42 50.41 LIG-0.27  OA
BRANCH 22 24
ATOM     24  CA  CYS M   1      35.874  18.651  -8.828  0.42 53.64 LIG 0.18  C 
BRANCH 24 25
ATOM     25  CB  CYS M   1      35.625  20.027  -9.401  0.42 54.18 LIG 0.10  C 
BRANCH 25 26
ATOM     26 SG   CYS M   1      36.538  20.119 -10.955  0.42 57.26 LIG-0.18  SA
ATOM     27 HG   CYS M   1      37.631  20.569 -10.751  0.42 57.26 LIG 0.10  HD
ENDBRANCH 25 26
ENDBRANCH 24 25
BRANCH 24 28
ATOM     28  N   CYS M   1      36.732  17.891  -9.725  0.42 53.99 LIG-0.38  N 
ATOM     29  C   ACE M   0      38.010  17.637  -9.441  0.42 54.55 LIG 0.04  C 
ATOM     30  CH3 ACE M   0      38.866  16.812 -10.393  0.42 54.45 LIG 0.05  C 
ATOM     31 H    CYS M   1      36.342  17.625 -10.443  0.42 53.99 LIG 0.16  HD
ENDBRANCH 24 28
ENDBRANCH 22 24
ENDBRANCH 13 20
ENDBRANCH 8 13
ENDBRANCH 4 6
ENDBRANCH 1 2
BRANCH 1 32
ATOM     32  CB  GLN M   4      33.734  12.579  -5.540  1.00 35.03 LIG 0.04  C 
BRANCH 32 33
ATOM     33  CG  GLN M   4      34.030  12.317  -4.061  1.00 28.64 LIG 0.10  C 
BRANCH 33 34
ATOM     34  CD  GLN M   4      33.695  10.908  -3.618  1.00 28.38 LIG 0.21  C 
ATOM     35  NE2 GLN M   4      34.642  10.322  -2.881  1.00 21.52 LIG-0.37  N 
ATOM     36 22HE GLN M   4      34.530   9.519  -2.596  1.00 21.52 LIG 0.16  HD
ATOM     37 21HE GLN M   4      35.365  10.749  -2.691  1.00 21.52 LIG 0.16  HD
ATOM     38 OE1  GLN M   4      32.619  10.361  -3.939  1.00 23.11 LIG-0.27  OA
ENDBRANCH 33 34
ENDBRANCH 32 33
ENDBRANCH 1 32
BRANCH 1 39
ATOM     39  C   GLN M   4      35.995  13.466  -6.076  1.00 43.11 LIG 0.24  C 
ATOM     40  N   ASN M   5      36.290  12.186  -5.930  1.00 48.15 LIG-0.35  N 
ATOM     41 H    ASN M   5      35.716  11.553  -5.832  1.00 48.15 LIG 0.16  HD
ATOM     42 O    GLN M   4      36.850  14.316  -6.332  1.00 42.77 LIG-0.27  OA
BRANCH 40 43
ATOM     43  CA  ASN M   5      37.681  11.776  -5.928  1.00 54.08 LIG 0.18  C 
BRANCH 43 44
ATOM     44  CB  ASN M   5      37.763  10.374  -5.246  1.00 57.18 LIG 0.14  C 
BRANCH 44 45
ATOM     45  CG  ASN M   5      36.561   9.406  -5.447  1.00 60.38 LIG 0.22  C 
ATOM     46  ND2 ASN M   5      36.221   8.473  -4.557  1.00 60.67 LIG-0.37  N 
ATOM     47 22HD ASN M   5      36.683   8.376  -3.839  1.00 60.67 LIG 0.16  HD
ATOM     48 21HD ASN M   5      35.539   7.970  -4.701  1.00 60.67 LIG 0.16  HD
ATOM     49 OD1  ASN M   5      35.828   9.459  -6.440  1.00 60.50 LIG-0.27  OA
ENDBRANCH 44 45
ENDBRANCH 43 44
BRANCH 43 50
ATOM     50  C   ASN M   5      38.193  11.766  -7.355  1.00 53.60 LIG 0.24  C 
ATOM     51 O    ASN M   5      37.648  11.023  -8.170  1.00 54.31 LIG-0.27  OA
ATOM     52  N   THR M   6      39.151  12.612  -7.714  0.00 53.23 LIG-0.34  N 
ATOM     53 H    THR M   6      39.514  13.190  -7.191  0.00 53.23 LIG 0.16  HD
BRANCH 52 54
ATOM     54  CA  THR M   6      39.661  12.607  -9.067  0.00 52.61 LIG 0.21  C 
BRANCH 54 55
ATOM     55  C   THR M   6      41.026  13.299  -9.097  0.00 52.44 LIG 0.29  C 
ATOM     56  N   NH2 M   7      41.875  12.919 -10.043  0.00 52.35 LIG-0.11  N 
ATOM     57 O    THR M   6      41.377  14.125  -8.257  0.00 52.24 LIG-0.27  OA
ENDBRANCH 54 55
BRANCH 54 58
ATOM     58  CB  THR M   6      38.584  13.288  -9.970  0.00 52.38 LIG 0.15  C 
ATOM     59  CG2 THR M   6      37.675  12.339 -10.750  0.00 52.30 LIG 0.04  C 
BRANCH 58 60
ATOM     60 OG1  THR M   6      37.837  14.097  -9.072  0.00 52.26 LIG-0.39  OA
ATOM     61 HG1  THR M   6      37.210  13.645  -8.742  0.00 52.26 LIG 0.21  HD
ENDBRANCH 58 60
ENDBRANCH 54 58
ENDBRANCH 52 54
ENDBRANCH 43 50
ENDBRANCH 40 43
ENDBRANCH 1 39
TORSDOF 22
ENDMDL
MODEL 24
USER: ADFR SOLUTION from run 74
USER: SCORE 17.696701 LL:  -4.285 LR: -14.465 RR:   0.000 FEB:  -7.902
USER: RMSD 8.426431
USER: SEED 73
USER: STATUS no improvement in best in 17 clusters for 5 generations
USER: GENES 24
USER: genes 0 Translation |==|  0.38422 0.73883 0.58175
USER: genes 1 Rotation |==|  0.38349 0.69279 0.90256 0.69287
USER: genes 2 Torsion [C]-CA--N-[C] |==|  0.80615
USER: genes 3 Torsion [N]-C--CA-[N] |==|  0.16713
USER: genes 4 Torsion [N]-C--CA-[N] |==|  0.47906
USER: genes 5 Torsion [C]-CA--CB-[CG] |==|  0.41067
USER: genes 6 Torsion [CA]-CB--CG-[CD2] |==|  0.23697
USER: genes 7 Torsion [C]-CA--N-[C] |==|  0.58203
USER: genes 8 Torsion [N]-C--CA-[N] |==|  0.00571
USER: genes 9 Torsion [C]-CA--CB-[SG] |==|  0.12835
USER: genes 10 Torsion [CA]-CB--SG-[HG] |==|  0.43176
USER: genes 11 Torsion [C]-CA--N-[C] |==|  0.60219
USER: genes 12 Torsion [N]-CA--CB-[CG] |==|  0.78728
USER: genes 13 Torsion [CA]-CB--CG-[CD] |==|  0.61439
USER: genes 14 Torsion [CB]-CG--CD-[NE2] |==|  0.41250
USER: genes 15 Torsion [N]-CA--C-[N] |==|  0.93490
USER: genes 16 Torsion [C]-N--CA-[C] |==|  0.15596
USER: genes 17 Torsion [N]-CA--CB-[CG] |==|  0.52514
USER: genes 18 Torsion [CA]-CB--CG-[ND2] |==|  0.47686
USER: genes 19 Torsion [N]-CA--C-[N] |==|  0.10000
USER: genes 20 Torsion [C]-N--CA-[C] |==|  0.66329
USER: genes 21 Torsion [N]-CA--C-[N] |==|  0.31958
USER: genes 22 Torsion [N]-CA--CB-[OG1] |==|  0.19272
USER: genes 23 Torsion [CA]-CB--OG1-[HG1] |==|  0.35755
ROOT
ATOM      1  CA  GLN M   4      33.325  17.870  -9.102  1.00 40.00 LIG 0.18  C 
ENDROOT
BRANCH 1 2
ATOM      2  N   GLN M   4      33.118  16.460  -9.227  1.00 41.31 LIG-0.35  N 
ATOM      3 H    GLN M   4      33.829  15.979  -9.284  1.00 41.31 LIG 0.16  HD
ATOM      4  C   PRO M   3      31.866  16.003  -9.247  1.00 42.91 LIG 0.24  C 
ATOM      5 O    PRO M   3      30.882  16.764  -9.130  1.00 42.50 LIG-0.27  OA
BRANCH 4 6
ATOM      6  CA  PRO M   3      31.697  14.485  -9.377  1.00 43.35 LIG 0.18  C 
ATOM      7  N   PRO M   3      32.281  13.658  -8.333  1.00 44.79 LIG-0.34  N 
ATOM      8  C   HIS M   2      33.616  13.438  -8.175  1.00 46.46 LIG 0.24  C 
ATOM      9  CD  PRO M   3      31.203  12.918  -7.646  1.00 43.94 LIG 0.13  C 
ATOM     10 O    HIS M   2      34.503  13.992  -8.843  1.00 45.68 LIG-0.27  OA
ATOM     11  CG  PRO M   3      29.978  13.732  -7.941  1.00 40.61 LIG 0.02  C 
ATOM     12  CB  PRO M   3      30.256  14.002  -9.376  1.00 40.36 LIG 0.04  C 
BRANCH 8 13
ATOM     13  CA  HIS M   2      34.011  12.464  -7.088  1.00 46.79 LIG 0.18  C 
BRANCH 13 14
ATOM     14  CB  HIS M   2      33.606  13.047  -5.693  1.00 44.05 LIG 0.10  C 
BRANCH 14 15
ATOM     15  CG  HIS M   2      33.227  11.938  -4.705  1.00 42.32 LIG 0.06  A 
ATOM     16  CD2 HIS M   2      34.116  11.241  -3.926  1.00 41.49 LIG 0.14  A 
ATOM     17 NE2  HIS M   2      33.380  10.272  -3.455  1.00 41.41 LIG-0.25  NA
ATOM     18  CE1 HIS M   2      32.139  10.375  -3.905  1.00 41.50 LIG 0.23  A 
ATOM     19 ND1  HIS M   2      32.006  11.417  -4.694  1.00 40.17 LIG-0.24  NA
ENDBRANCH 14 15
ENDBRANCH 13 14
BRANCH 13 20
ATOM     20  N   HIS M   2      35.445  12.214  -7.177  1.00 53.14 LIG-0.35  N 
ATOM     21 H    HIS M   2      35.896  12.874  -7.490  1.00 53.14 LIG 0.16  HD
ATOM     22  C   CYS M   1      35.996  11.056  -6.800  0.42 52.47 LIG 0.24  C 
ATOM     23 O    CYS M   1      35.344  10.087  -6.397  0.42 50.41 LIG-0.27  OA
BRANCH 22 24
ATOM     24  CA  CYS M   1      37.519  11.032  -6.926  0.42 53.64 LIG 0.18  C 
BRANCH 24 25
ATOM     25  CB  CYS M   1      38.137  10.685  -5.591  0.42 54.18 LIG 0.10  C 
BRANCH 25 26
ATOM     26 SG   CYS M   1      37.218   9.275  -4.941  0.42 57.26 LIG-0.18  SA
ATOM     27 HG   CYS M   1      37.910   8.665  -4.174  0.42 57.26 LIG 0.10  HD
ENDBRANCH 25 26
ENDBRANCH 24 25
BRANCH 24 28
ATOM     28  N   CYS M   1      38.032  12.313  -7.389  0.42 53.99 LIG-0.38  N 
ATOM     29  C   ACE M   0      39.068  12.405  -8.223  0.42 54.55 LIG 0.04  C 
ATOM     30  CH3 ACE M   0      39.555  13.765  -8.707  0.42 54.45 LIG 0.05  C 
ATOM     31 H    CYS M   1      37.609  12.994  -7.078  0.42 53.99 LIG 0.16  HD
ENDBRANCH 24 28
ENDBRANCH 22 24
ENDBRANCH 13 20
ENDBRANCH 8 13
ENDBRANCH 4 6
ENDBRANCH 1 2
BRANCH 1 32
ATOM     32  CB  GLN M   4      34.791  18.155  -8.844  1.00 35.03 LIG 0.04  C 
BRANCH 32 33
ATOM     33  CG  GLN M   4      35.107  17.828  -7.381  1.00 28.64 LIG 0.10  C 
BRANCH 33 34
ATOM     34  CD  GLN M   4      36.017  18.840  -6.718  1.00 28.38 LIG 0.21  C 
ATOM     35  NE2 GLN M   4      35.803  19.000  -5.409  1.00 21.52 LIG-0.37  N 
ATOM     36 22HE GLN M   4      36.275  19.563  -4.962  1.00 21.52 LIG 0.16  HD
ATOM     37 21HE GLN M   4      35.193  18.540  -5.014  1.00 21.52 LIG 0.16  HD
ATOM     38 OE1  GLN M   4      36.881  19.466  -7.368  1.00 23.11 LIG-0.27  OA
ENDBRANCH 33 34
ENDBRANCH 32 33
ENDBRANCH 1 32
BRANCH 1 39
ATOM     39  C   GLN M   4      32.879  18.541 -10.387  1.00 43.11 LIG 0.24  C 
ATOM     40  N   ASN M   5      32.878  17.760 -11.454  1.00 48.15 LIG-0.35  N 
ATOM     41 H    ASN M   5      33.066  16.921 -11.454  1.00 48.15 LIG 0.16  HD
ATOM     42 O    GLN M   4      32.485  19.708 -10.422  1.00 42.77 LIG-0.27  OA
BRANCH 40 43
ATOM     43  CA  ASN M   5      32.536  18.326 -12.744  1.00 54.08 LIG 0.18  C 
BRANCH 43 44
ATOM     44  CB  ASN M   5      31.033  18.745 -12.697  1.00 57.18 LIG 0.14  C 
BRANCH 44 45
ATOM     45  CG  ASN M   5      30.368  19.182 -14.034  1.00 60.38 LIG 0.22  C 
ATOM     46  ND2 ASN M   5      29.059  19.407 -14.156  1.00 60.67 LIG-0.37  N 
ATOM     47 22HD ASN M   5      28.539  19.296 -13.481  1.00 60.67 LIG 0.16  HD
ATOM     48 21HD ASN M   5      28.735  19.663 -14.911  1.00 60.67 LIG 0.16  HD
ATOM     49 OD1  ASN M   5      31.019  19.373 -15.066  1.00 60.50 LIG-0.27  OA
ENDBRANCH 44 45
ENDBRANCH 43 44
BRANCH 43 50
ATOM     50  C   ASN M   5      33.463  19.491 -13.032  1.00 53.60 LIG 0.24  C 
ATOM     51 O    ASN M   5      32.994  20.500 -13.556  1.00 54.31 LIG-0.27  OA
ATOM     52  N   THR M   6      34.730  19.435 -12.639  0.00 53.23 LIG-0.34  N 
ATOM     53 H    THR M   6      35.080  18.774 -12.214  0.00 53.23 LIG 0.16  HD
BRANCH 52 54
ATOM     54  CA  THR M   6      35.631  20.530 -12.917  0.00 52.61 LIG 0.21  C 
BRANCH 54 55
ATOM     55  C   THR M   6      36.811  20.019 -13.747  0.00 52.44 LIG 0.29  C 
ATOM     56  N   NH2 M   7      36.932  20.494 -14.979  0.00 52.35 LIG-0.11  N 
ATOM     57 O    THR M   6      37.590  19.157 -13.344  0.00 52.24 LIG-0.27  OA
ENDBRANCH 54 55
BRANCH 54 58
ATOM     58  CB  THR M   6      36.043  21.150 -11.544  0.00 52.38 LIG 0.15  C 
ATOM     59  CG2 THR M   6      34.890  21.552 -10.624  0.00 52.30 LIG 0.04  C 
BRANCH 58 60
ATOM     60 OG1  THR M   6      36.860  20.155 -10.943  0.00 52.26 LIG-0.39  OA
ATOM     61 HG1  THR M   6      37.583  20.500 -10.691  0.00 52.26 LIG 0.21  HD
ENDBRANCH 58 60
ENDBRANCH 54 58
ENDBRANCH 52 54
ENDBRANCH 43 50
ENDBRANCH 40 43
ENDBRANCH 1 39
TORSDOF 22
ENDMDL
MODEL 25
USER: ADFR SOLUTION from run 194
USER: SCORE 18.391813 LL:  -4.832 LR: -14.416 RR:   0.000 FEB:  -7.853
USER: RMSD 8.335119
USER: SEED 193
USER: STATUS no improvement in best in 4 clusters for 5 generations
USER: GENES 24
USER: genes 0 Translation |==|  0.41080 0.42789 0.71445
USER: genes 1 Rotation |==|  0.72321 0.74597 0.12652 0.51383
USER: genes 2 Torsion [C]-CA--N-[C] |==|  0.70000
USER: genes 3 Torsion [N]-C--CA-[N] |==|  0.60216
USER: genes 4 Torsion [N]-C--CA-[N] |==|  0.42710
USER: genes 5 Torsion [C]-CA--CB-[CG] |==|  0.58845
USER: genes 6 Torsion [CA]-CB--CG-[CD2] |==|  0.78991
USER: genes 7 Torsion [C]-CA--N-[C] |==|  0.76842
USER: genes 8 Torsion [N]-C--CA-[N] |==|  0.93203
USER: genes 9 Torsion [C]-CA--CB-[SG] |==|  0.79572
USER: genes 10 Torsion [CA]-CB--SG-[HG] |==|  0.95115
USER: genes 11 Torsion [C]-CA--N-[C] |==|  0.67873
USER: genes 12 Torsion [N]-CA--CB-[CG] |==|  0.66995
USER: genes 13 Torsion [CA]-CB--CG-[CD] |==|  0.17808
USER: genes 14 Torsion [CB]-CG--CD-[NE2] |==|  0.22098
USER: genes 15 Torsion [N]-CA--C-[N] |==|  0.01122
USER: genes 16 Torsion [C]-N--CA-[C] |==|  0.77495
USER: genes 17 Torsion [N]-CA--CB-[CG] |==|  0.53880
USER: genes 18 Torsion [CA]-CB--CG-[ND2] |==|  0.50169
USER: genes 19 Torsion [N]-CA--C-[N] |==|  0.23011
USER: genes 20 Torsion [C]-N--CA-[C] |==|  0.58004
USER: genes 21 Torsion [N]-CA--C-[N] |==|  0.43603
USER: genes 22 Torsion [N]-CA--CB-[OG1] |==|  0.73371
USER: genes 23 Torsion [CA]-CB--OG1-[HG1] |==|  0.08346
ROOT
ATOM      1  CA  GLN M   4      33.883  12.506  -6.116  1.00 40.00 LIG 0.18  C 
ENDROOT
BRANCH 1 2
ATOM      2  N   GLN M   4      35.218  12.892  -6.451  1.00 41.31 LIG-0.35  N 
ATOM      3 H    GLN M   4      35.507  13.611  -6.077  1.00 41.31 LIG 0.16  HD
ATOM      4  C   PRO M   3      35.905  12.128  -7.300  1.00 42.91 LIG 0.24  C 
ATOM      5 O    PRO M   3      35.425  11.079  -7.782  1.00 42.50 LIG-0.27  OA
BRANCH 4 6
ATOM      6  CA  PRO M   3      37.333  12.580  -7.623  1.00 43.35 LIG 0.18  C 
ATOM      7  N   PRO M   3      37.803  12.381  -8.985  1.00 44.79 LIG-0.34  N 
ATOM      8  C   HIS M   2      38.124  11.172  -9.524  1.00 46.46 LIG 0.24  C 
ATOM      9  CD  PRO M   3      38.102  13.696  -9.588  1.00 43.94 LIG 0.13  C 
ATOM     10 O    HIS M   2      37.965  10.083  -8.951  1.00 45.68 LIG-0.27  OA
ATOM     11  CG  PRO M   3      37.293  14.651  -8.760  1.00 40.61 LIG 0.02  C 
ATOM     12  CB  PRO M   3      37.591  14.066  -7.427  1.00 40.36 LIG 0.04  C 
BRANCH 8 13
ATOM     13  CA  HIS M   2      38.689  11.193 -10.926  1.00 46.79 LIG 0.18  C 
BRANCH 13 14
ATOM     14  CB  HIS M   2      37.516  11.247 -11.961  1.00 44.05 LIG 0.10  C 
BRANCH 14 15
ATOM     15  CG  HIS M   2      37.874  10.519 -13.261  1.00 42.32 LIG 0.06  A 
ATOM     16  CD2 HIS M   2      38.712  11.008 -14.232  1.00 41.49 LIG 0.14  A 
ATOM     17 NE2  HIS M   2      38.518  10.177 -15.219  1.00 41.41 LIG-0.25  NA
ATOM     18  CE1 HIS M   2      37.638   9.250 -14.873  1.00 41.50 LIG 0.23  A 
ATOM     19 ND1  HIS M   2      37.214   9.433 -13.644  1.00 40.17 LIG-0.24  NA
ENDBRANCH 14 15
ENDBRANCH 13 14
BRANCH 13 20
ATOM     20  N   HIS M   2      39.526  10.014 -11.115  1.00 53.14 LIG-0.35  N 
ATOM     21 H    HIS M   2      39.126   9.359 -11.501  1.00 53.14 LIG 0.16  HD
ATOM     22  C   CYS M   1      40.802   9.968 -10.719  0.42 52.47 LIG 0.24  C 
ATOM     23 O    CYS M   1      41.366  10.889 -10.119  0.42 50.41 LIG-0.27  OA
BRANCH 22 24
ATOM     24  CA  CYS M   1      41.506   8.657 -11.068  0.42 53.64 LIG 0.18  C 
BRANCH 24 25
ATOM     25  CB  CYS M   1      42.298   8.825 -12.344  0.42 54.18 LIG 0.10  C 
BRANCH 25 26
ATOM     26 SG   CYS M   1      41.105   8.875 -13.697  0.42 57.26 LIG-0.18  SA
ATOM     27 HG   CYS M   1      40.055   8.430 -13.322  0.42 57.26 LIG 0.10  HD
ENDBRANCH 25 26
ENDBRANCH 24 25
BRANCH 24 28
ATOM     28  N   CYS M   1      40.552   7.568 -11.219  0.42 53.99 LIG-0.38  N 
ATOM     29  C   ACE M   0      40.541   6.514 -10.403  0.42 54.55 LIG 0.04  C 
ATOM     30  CH3 ACE M   0      39.506   5.410 -10.577  0.42 54.45 LIG 0.05  C 
ATOM     31 H    CYS M   1      40.005   7.669 -11.875  0.42 53.99 LIG 0.16  HD
ENDBRANCH 24 28
ENDBRANCH 22 24
ENDBRANCH 13 20
ENDBRANCH 8 13
ENDBRANCH 4 6
ENDBRANCH 1 2
BRANCH 1 32
ATOM     32  CB  GLN M   4      33.697  12.542  -4.612  1.00 35.03 LIG 0.04  C 
BRANCH 32 33
ATOM     33  CG  GLN M   4      33.343  11.134  -4.125  1.00 28.64 LIG 0.10  C 
BRANCH 33 34
ATOM     34  CD  GLN M   4      34.447  10.122  -4.346  1.00 28.38 LIG 0.21  C 
ATOM     35  NE2 GLN M   4      35.428  10.169  -3.441  1.00 21.52 LIG-0.37  N 
ATOM     36 22HE GLN M   4      36.095   9.630  -3.502  1.00 21.52 LIG 0.16  HD
ATOM     37 21HE GLN M   4      35.391  10.738  -2.797  1.00 21.52 LIG 0.16  HD
ATOM     38 OE1  GLN M   4      34.421   9.328  -5.310  1.00 23.11 LIG-0.27  OA
ENDBRANCH 33 34
ENDBRANCH 32 33
ENDBRANCH 1 32
BRANCH 1 39
ATOM     39  C   GLN M   4      32.918  13.467  -6.786  1.00 43.11 LIG 0.24  C 
ATOM     40  N   ASN M   5      33.482  14.367  -7.573  1.00 48.15 LIG-0.35  N 
ATOM     41 H    ASN M   5      34.322  14.411  -7.753  1.00 48.15 LIG 0.16  HD
ATOM     42 O    GLN M   4      31.696  13.375  -6.657  1.00 42.77 LIG-0.27  OA
BRANCH 40 43
ATOM     43  CA  ASN M   5      32.653  15.375  -8.203  1.00 54.08 LIG 0.18  C 
BRANCH 43 44
ATOM     44  CB  ASN M   5      33.563  16.598  -8.538  1.00 57.18 LIG 0.14  C 
BRANCH 44 45
ATOM     45  CG  ASN M   5      32.860  17.935  -8.912  1.00 60.38 LIG 0.22  C 
ATOM     46  ND2 ASN M   5      33.529  19.045  -9.229  1.00 60.67 LIG-0.37  N 
ATOM     47 22HD ASN M   5      34.389  19.047  -9.218  1.00 60.67 LIG 0.16  HD
ATOM     48 21HD ASN M   5      33.100  19.758  -9.445  1.00 60.67 LIG 0.16  HD
ATOM     49 OD1  ASN M   5      31.631  18.045  -8.962  1.00 60.50 LIG-0.27  OA
ENDBRANCH 44 45
ENDBRANCH 43 44
BRANCH 43 50
ATOM     50  C   ASN M   5      31.997  14.776  -9.431  1.00 53.60 LIG 0.24  C 
ATOM     51 O    ASN M   5      32.557  14.907 -10.519  1.00 54.31 LIG-0.27  OA
ATOM     52  N   THR M   6      30.888  14.058  -9.300  0.00 53.23 LIG-0.34  N 
ATOM     53 H    THR M   6      30.501  13.891  -8.550  0.00 53.23 LIG 0.16  HD
BRANCH 52 54
ATOM     54  CA  THR M   6      30.242  13.491 -10.462  0.00 52.61 LIG 0.21  C 
BRANCH 54 55
ATOM     55  C   THR M   6      28.740  13.367 -10.197  0.00 52.44 LIG 0.29  C 
ATOM     56  N   NH2 M   7      27.942  13.321 -11.255  0.00 52.35 LIG-0.11  N 
ATOM     57 O    THR M   6      28.256  13.375  -9.066  0.00 52.24 LIG-0.27  OA
ENDBRANCH 54 55
BRANCH 54 58
ATOM     58  CB  THR M   6      30.947  12.131 -10.766  0.00 52.38 LIG 0.15  C 
ATOM     59  CG2 THR M   6      30.033  10.998 -11.231  0.00 52.30 LIG 0.04  C 
BRANCH 58 60
ATOM     60 OG1  THR M   6      31.913  12.454 -11.758  0.00 52.26 LIG-0.39  OA
ATOM     61 HG1  THR M   6      32.169  13.247 -11.652  0.00 52.26 LIG 0.21  HD
ENDBRANCH 58 60
ENDBRANCH 54 58
ENDBRANCH 52 54
ENDBRANCH 43 50
ENDBRANCH 40 43
ENDBRANCH 1 39
TORSDOF 22
ENDMDL
MODEL 26
USER: ADFR SOLUTION from run 143
USER: SCORE 18.197299 LL:  -5.277 LR: -14.398 RR:   0.000 FEB:  -7.835
USER: RMSD 4.015945
USER: SEED 142
USER: STATUS no improvement in best in 6 clusters for 5 generations
USER: GENES 24
USER: genes 0 Translation |==|  0.52575 0.42024 0.70733
USER: genes 1 Rotation |==|  0.58287 0.47377 0.51088 0.99227
USER: genes 2 Torsion [C]-CA--N-[C] |==|  0.80555
USER: genes 3 Torsion [N]-C--CA-[N] |==|  0.14571
USER: genes 4 Torsion [N]-C--CA-[N] |==|  0.23068
USER: genes 5 Torsion [C]-CA--CB-[CG] |==|  0.17715
USER: genes 6 Torsion [CA]-CB--CG-[CD2] |==|  0.25902
USER: genes 7 Torsion [C]-CA--N-[C] |==|  0.65849
USER: genes 8 Torsion [N]-C--CA-[N] |==|  0.42666
USER: genes 9 Torsion [C]-CA--CB-[SG] |==|  0.74871
USER: genes 10 Torsion [CA]-CB--SG-[HG] |==|  0.22485
USER: genes 11 Torsion [C]-CA--N-[C] |==|  0.61359
USER: genes 12 Torsion [N]-CA--CB-[CG] |==|  0.63213
USER: genes 13 Torsion [CA]-CB--CG-[CD] |==|  0.05428
USER: genes 14 Torsion [CB]-CG--CD-[NE2] |==|  0.68259
USER: genes 15 Torsion [N]-CA--C-[N] |==|  0.96549
USER: genes 16 Torsion [C]-N--CA-[C] |==|  0.61707
USER: genes 17 Torsion [N]-CA--CB-[CG] |==|  0.42215
USER: genes 18 Torsion [CA]-CB--CG-[ND2] |==|  0.12649
USER: genes 19 Torsion [N]-CA--C-[N] |==|  0.82305
USER: genes 20 Torsion [C]-N--CA-[C] |==|  0.68427
USER: genes 21 Torsion [N]-CA--C-[N] |==|  0.91692
USER: genes 22 Torsion [N]-CA--CB-[OG1] |==|  0.03265
USER: genes 23 Torsion [CA]-CB--OG1-[HG1] |==|  0.78430
ROOT
ATOM      1  CA  GLN M   4      36.297  12.374  -6.276  1.00 40.00 LIG 0.18  C 
ENDROOT
BRANCH 1 2
ATOM      2  N   GLN M   4      35.957  13.397  -7.217  1.00 41.31 LIG-0.35  N 
ATOM      3 H    GLN M   4      35.437  13.160  -7.859  1.00 41.31 LIG 0.16  HD
ATOM      4  C   PRO M   3      36.460  14.617  -7.035  1.00 42.91 LIG 0.24  C 
ATOM      5 O    PRO M   3      37.189  14.893  -6.057  1.00 42.50 LIG-0.27  OA
BRANCH 4 6
ATOM      6  CA  PRO M   3      36.063  15.680  -8.065  1.00 43.35 LIG 0.18  C 
ATOM      7  N   PRO M   3      34.643  15.857  -8.325  1.00 44.79 LIG-0.34  N 
ATOM      8  C   HIS M   2      33.866  14.977  -9.016  1.00 46.46 LIG 0.24  C 
ATOM      9  CD  PRO M   3      34.252  17.228  -7.941  1.00 43.94 LIG 0.13  C 
ATOM     10 O    HIS M   2      34.253  13.871  -9.428  1.00 45.68 LIG-0.27  OA
ATOM     11  CG  PRO M   3      35.320  17.637  -6.971  1.00 40.61 LIG 0.02  C 
ATOM     12  CB  PRO M   3      36.487  17.097  -7.716  1.00 40.36 LIG 0.04  C 
BRANCH 8 13
ATOM     13  CA  HIS M   2      32.435  15.397  -9.264  1.00 46.79 LIG 0.18  C 
BRANCH 13 14
ATOM     14  CB  HIS M   2      31.543  14.125  -9.447  1.00 44.05 LIG 0.10  C 
BRANCH 14 15
ATOM     15  CG  HIS M   2      31.501  13.276  -8.172  1.00 42.32 LIG 0.06  A 
ATOM     16  CD2 HIS M   2      30.545  13.375  -7.191  1.00 41.49 LIG 0.14  A 
ATOM     17 NE2  HIS M   2      31.050  12.653  -6.229  1.00 41.41 LIG-0.25  NA
ATOM     18  CE1 HIS M   2      32.218  12.147  -6.597  1.00 41.50 LIG 0.23  A 
ATOM     19 ND1  HIS M   2      32.531  12.516  -7.818  1.00 40.17 LIG-0.24  NA
ENDBRANCH 14 15
ENDBRANCH 13 14
BRANCH 13 20
ATOM     20  N   HIS M   2      32.394  16.263 -10.436  1.00 53.14 LIG-0.35  N 
ATOM     21 H    HIS M   2      32.719  15.905 -11.147  1.00 53.14 LIG 0.16  HD
ATOM     22  C   CYS M   1      31.892  17.501 -10.397  0.42 52.47 LIG 0.24  C 
ATOM     23 O    CYS M   1      31.471  18.037  -9.366  0.42 50.41 LIG-0.27  OA
BRANCH 22 24
ATOM     24  CA  CYS M   1      31.897  18.209 -11.752  0.42 53.64 LIG 0.18  C 
BRANCH 24 25
ATOM     25  CB  CYS M   1      33.244  18.850 -11.990  0.42 54.18 LIG 0.10  C 
BRANCH 25 26
ATOM     26 SG   CYS M   1      33.148  20.527 -11.330  0.42 57.26 LIG-0.18  SA
ATOM     27 HG   CYS M   1      33.309  20.500 -10.142  0.42 57.26 LIG 0.10  HD
ENDBRANCH 25 26
ENDBRANCH 24 25
BRANCH 24 28
ATOM     28  N   CYS M   1      30.850  19.216 -11.827  0.42 53.99 LIG-0.38  N 
ATOM     29  C   ACE M   0      30.112  19.396 -12.923  0.42 54.55 LIG 0.04  C 
ATOM     30  CH3 ACE M   0      29.006  20.442 -12.950  0.42 54.45 LIG 0.05  C 
ATOM     31 H    CYS M   1      30.754  19.678 -11.108  0.42 53.99 LIG 0.16  HD
ENDBRANCH 24 28
ENDBRANCH 22 24
ENDBRANCH 13 20
ENDBRANCH 8 13
ENDBRANCH 4 6
ENDBRANCH 1 2
BRANCH 1 32
ATOM     32  CB  GLN M   4      35.430  11.152  -6.507  1.00 35.03 LIG 0.04  C 
BRANCH 32 33
ATOM     33  CG  GLN M   4      34.870  10.684  -5.161  1.00 28.64 LIG 0.10  C 
BRANCH 33 34
ATOM     34  CD  GLN M   4      34.906  11.750  -4.086  1.00 28.38 LIG 0.21  C 
ATOM     35  NE2 GLN M   4      35.727  11.479  -3.068  1.00 21.52 LIG-0.37  N 
ATOM     36 22HE GLN M   4      35.798  12.033  -2.414  1.00 21.52 LIG 0.16  HD
ATOM     37 21HE GLN M   4      36.184  10.750  -3.066  1.00 21.52 LIG 0.16  HD
ATOM     38 OE1  GLN M   4      34.209  12.783  -4.167  1.00 23.11 LIG-0.27  OA
ENDBRANCH 33 34
ENDBRANCH 32 33
ENDBRANCH 1 32
BRANCH 1 39
ATOM     39  C   GLN M   4      37.761  12.018  -6.455  1.00 43.11 LIG 0.24  C 
ATOM     40  N   ASN M   5      38.323  12.497  -7.551  1.00 48.15 LIG-0.35  N 
ATOM     41 H    ASN M   5      37.936  13.011  -8.123  1.00 48.15 LIG 0.16  HD
ATOM     42 O    GLN M   4      38.396  11.386  -5.609  1.00 42.77 LIG-0.27  OA
BRANCH 40 43
ATOM     43  CA  ASN M   5      39.699  12.153  -7.850  1.00 54.08 LIG 0.18  C 
BRANCH 43 44
ATOM     44  CB  ASN M   5      39.684  10.997  -8.899  1.00 57.18 LIG 0.14  C 
BRANCH 44 45
ATOM     45  CG  ASN M   5      40.900  10.887  -9.863  1.00 60.38 LIG 0.22  C 
ATOM     46  ND2 ASN M   5      42.165  10.982  -9.452  1.00 60.67 LIG-0.37  N 
ATOM     47 22HD ASN M   5      42.338  11.125  -8.622  1.00 60.67 LIG 0.16  HD
ATOM     48 21HD ASN M   5      42.808  10.898 -10.016  1.00 60.67 LIG 0.16  HD
ATOM     49 OD1  ASN M   5      40.768  10.679 -11.073  1.00 60.50 LIG-0.27  OA
ENDBRANCH 44 45
ENDBRANCH 43 44
BRANCH 43 50
ATOM     50  C   ASN M   5      40.419  13.391  -8.348  1.00 53.60 LIG 0.24  C 
ATOM     51 O    ASN M   5      41.402  13.790  -7.726  1.00 54.31 LIG-0.27  OA
ATOM     52  N   THR M   6      40.032  13.963  -9.482  0.00 53.23 LIG-0.34  N 
ATOM     53 H    THR M   6      39.390  13.678  -9.979  0.00 53.23 LIG 0.16  HD
BRANCH 52 54
ATOM     54  CA  THR M   6      40.698  15.151  -9.966  0.00 52.61 LIG 0.21  C 
BRANCH 54 55
ATOM     55  C   THR M   6      39.724  16.332  -9.924  0.00 52.44 LIG 0.29  C 
ATOM     56  N   NH2 M   7      38.436  16.058 -10.082  0.00 52.35 LIG-0.11  N 
ATOM     57 O    THR M   6      40.093  17.500  -9.818  0.00 52.24 LIG-0.27  OA
ENDBRANCH 54 55
BRANCH 54 58
ATOM     58  CB  THR M   6      41.241  14.828 -11.394  0.00 52.38 LIG 0.15  C 
ATOM     59  CG2 THR M   6      42.761  14.732 -11.520  0.00 52.30 LIG 0.04  C 
BRANCH 58 60
ATOM     60 OG1  THR M   6      40.617  13.598 -11.735  0.00 52.26 LIG-0.39  OA
ATOM     61 HG1  THR M   6      41.005  12.967 -11.339  0.00 52.26 LIG 0.21  HD
ENDBRANCH 58 60
ENDBRANCH 54 58
ENDBRANCH 52 54
ENDBRANCH 43 50
ENDBRANCH 40 43
ENDBRANCH 1 39
TORSDOF 22
ENDMDL
MODEL 27
USER: ADFR SOLUTION from run 160
USER: SCORE 19.167029 LL:  -5.347 LR: -14.384 RR:   0.000 FEB:  -7.822
USER: RMSD 7.664899
USER: SEED 159
USER: STATUS no improvement in best in 4 clusters for 5 generations
USER: GENES 24
USER: genes 0 Translation |==|  0.47588 0.74591 0.65205
USER: genes 1 Rotation |==|  0.28268 0.61880 0.78175 0.83057
USER: genes 2 Torsion [C]-CA--N-[C] |==|  0.76925
USER: genes 3 Torsion [N]-C--CA-[N] |==|  0.10708
USER: genes 4 Torsion [N]-C--CA-[N] |==|  0.47775
USER: genes 5 Torsion [C]-CA--CB-[CG] |==|  0.40856
USER: genes 6 Torsion [CA]-CB--CG-[CD2] |==|  0.32057
USER: genes 7 Torsion [C]-CA--N-[C] |==|  0.52489
USER: genes 8 Torsion [N]-C--CA-[N] |==|  0.01666
USER: genes 9 Torsion [C]-CA--CB-[SG] |==|  0.90141
USER: genes 10 Torsion [CA]-CB--SG-[HG] |==|  0.43769
USER: genes 11 Torsion [C]-CA--N-[C] |==|  0.76763
USER: genes 12 Torsion [N]-CA--CB-[CG] |==|  0.95433
USER: genes 13 Torsion [CA]-CB--CG-[CD] |==|  0.26937
USER: genes 14 Torsion [CB]-CG--CD-[NE2] |==|  0.92936
USER: genes 15 Torsion [N]-CA--C-[N] |==|  0.91836
USER: genes 16 Torsion [C]-N--CA-[C] |==|  0.82168
USER: genes 17 Torsion [N]-CA--CB-[CG] |==|  0.73147
USER: genes 18 Torsion [CA]-CB--CG-[ND2] |==|  0.49646
USER: genes 19 Torsion [N]-CA--C-[N] |==|  0.95366
USER: genes 20 Torsion [C]-N--CA-[C] |==|  0.80165
USER: genes 21 Torsion [N]-CA--C-[N] |==|  0.89245
USER: genes 22 Torsion [N]-CA--CB-[OG1] |==|  0.58156
USER: genes 23 Torsion [CA]-CB--OG1-[HG1] |==|  0.28059
ROOT
ATOM      1  CA  GLN M   4      35.249  17.992  -7.520  1.00 40.00 LIG 0.18  C 
ENDROOT
BRANCH 1 2
ATOM      2  N   GLN M   4      34.705  16.760  -8.000  1.00 41.31 LIG-0.35  N 
ATOM      3 H    GLN M   4      35.133  16.047  -7.777  1.00 41.31 LIG 0.16  HD
ATOM      4  C   PRO M   3      33.599  16.802  -8.742  1.00 42.91 LIG 0.24  C 
ATOM      5 O    PRO M   3      33.016  17.877  -9.000  1.00 42.50 LIG-0.27  OA
BRANCH 4 6
ATOM      6  CA  PRO M   3      33.051  15.455  -9.227  1.00 43.35 LIG 0.18  C 
ATOM      7  N   PRO M   3      33.122  14.335  -8.302  1.00 44.79 LIG-0.34  N 
ATOM      8  C   HIS M   2      34.269  13.682  -7.962  1.00 46.46 LIG 0.24  C 
ATOM      9  CD  PRO M   3      31.752  13.878  -7.994  1.00 43.94 LIG 0.13  C 
ATOM     10 O    HIS M   2      35.405  14.023  -8.327  1.00 45.68 LIG-0.27  OA
ATOM     11  CG  PRO M   3      30.905  15.073  -8.316  1.00 40.61 LIG 0.02  C 
ATOM     12  CB  PRO M   3      31.574  15.459  -9.586  1.00 40.36 LIG 0.04  C 
BRANCH 8 13
ATOM     13  CA  HIS M   2      34.112  12.478  -7.062  1.00 46.79 LIG 0.18  C 
BRANCH 13 14
ATOM     14  CB  HIS M   2      33.581  12.938  -5.663  1.00 44.05 LIG 0.10  C 
BRANCH 14 15
ATOM     15  CG  HIS M   2      32.673  11.880  -5.027  1.00 42.32 LIG 0.06  A 
ATOM     16  CD2 HIS M   2      32.952  11.198  -3.869  1.00 41.49 LIG 0.14  A 
ATOM     17 NE2  HIS M   2      32.041  10.264  -3.863  1.00 41.41 LIG-0.25  NA
ATOM     18  CE1 HIS M   2      31.262  10.375  -4.929  1.00 41.50 LIG 0.23  A 
ATOM     19 ND1  HIS M   2      31.631  11.386  -5.683  1.00 40.17 LIG-0.24  NA
ENDBRANCH 14 15
ENDBRANCH 13 14
BRANCH 13 20
ATOM     20  N   HIS M   2      35.397  11.797  -6.957  1.00 53.14 LIG-0.35  N 
ATOM     21 H    HIS M   2      36.053  12.231  -7.304  1.00 53.14 LIG 0.16  HD
ATOM     22  C   CYS M   1      35.532  10.603  -6.371  0.42 52.47 LIG 0.24  C 
ATOM     23 O    CYS M   1      34.585   9.953  -5.917  0.42 50.41 LIG-0.27  OA
BRANCH 22 24
ATOM     24  CA  CYS M   1      36.976  10.102  -6.324  0.42 53.64 LIG 0.18  C 
BRANCH 24 25
ATOM     25  CB  CYS M   1      37.336   9.713  -4.908  0.42 54.18 LIG 0.10  C 
BRANCH 25 26
ATOM     26 SG   CYS M   1      36.488  10.873  -3.816  0.42 57.26 LIG-0.18  SA
ATOM     27 HG   CYS M   1      36.367  10.382  -2.728  0.42 57.26 LIG 0.10  HD
ENDBRANCH 25 26
ENDBRANCH 24 25
BRANCH 24 28
ATOM     28  N   CYS M   1      37.903  11.114  -6.809  0.42 53.99 LIG-0.38  N 
ATOM     29  C   ACE M   0      38.155  11.283  -8.107  0.42 54.55 LIG 0.04  C 
ATOM     30  CH3 ACE M   0      39.110  12.373  -8.575  0.42 54.45 LIG 0.05  C 
ATOM     31 H    CYS M   1      38.267  11.584  -6.187  0.42 53.99 LIG 0.16  HD
ENDBRANCH 24 28
ENDBRANCH 22 24
ENDBRANCH 13 20
ENDBRANCH 8 13
ENDBRANCH 4 6
ENDBRANCH 1 2
BRANCH 1 32
ATOM     32  CB  GLN M   4      36.090  17.739  -6.284  1.00 35.03 LIG 0.04  C 
BRANCH 32 33
ATOM     33  CG  GLN M   4      35.749  16.351  -5.732  1.00 28.64 LIG 0.10  C 
BRANCH 33 34
ATOM     34  CD  GLN M   4      36.712  15.270  -6.175  1.00 28.38 LIG 0.21  C 
ATOM     35  NE2 GLN M   4      37.337  15.526  -7.327  1.00 21.52 LIG-0.37  N 
ATOM     36 22HE GLN M   4      37.896  14.957  -7.648  1.00 21.52 LIG 0.16  HD
ATOM     37 21HE GLN M   4      37.181  16.260  -7.746  1.00 21.52 LIG 0.16  HD
ATOM     38 OE1  GLN M   4      36.881  14.231  -5.502  1.00 23.11 LIG-0.27  OA
ENDBRANCH 33 34
ENDBRANCH 32 33
ENDBRANCH 1 32
BRANCH 1 39
ATOM     39  C   GLN M   4      36.101  18.604  -8.616  1.00 43.11 LIG 0.24  C 
ATOM     40  N   ASN M   5      36.663  17.736  -9.438  1.00 48.15 LIG-0.35  N 
ATOM     41 H    ASN M   5      36.546  16.884  -9.415  1.00 48.15 LIG 0.16  HD
ATOM     42 O    GLN M   4      36.208  19.823  -8.768  1.00 42.77 LIG-0.27  OA
BRANCH 40 43
ATOM     43  CA  ASN M   5      37.554  18.218 -10.476  1.00 54.08 LIG 0.18  C 
BRANCH 43 44
ATOM     44  CB  ASN M   5      38.197  16.974 -11.166  1.00 57.18 LIG 0.14  C 
BRANCH 44 45
ATOM     45  CG  ASN M   5      39.607  16.532 -10.679  1.00 60.38 LIG 0.22  C 
ATOM     46  ND2 ASN M   5      40.249  15.472 -11.173  1.00 60.67 LIG-0.37  N 
ATOM     47 22HD ASN M   5      39.877  14.988 -11.779  1.00 60.67 LIG 0.16  HD
ATOM     48 21HD ASN M   5      41.035  15.273 -10.886  1.00 60.67 LIG 0.16  HD
ATOM     49 OD1  ASN M   5      40.234  17.154  -9.816  1.00 60.50 LIG-0.27  OA
ENDBRANCH 44 45
ENDBRANCH 43 44
BRANCH 43 50
ATOM     50  C   ASN M   5      36.765  19.082 -11.439  1.00 53.60 LIG 0.24  C 
ATOM     51 O    ASN M   5      37.382  19.769 -12.252  1.00 54.31 LIG-0.27  OA
ATOM     52  N   THR M   6      35.440  19.018 -11.445  0.00 53.23 LIG-0.34  N 
ATOM     53 H    THR M   6      34.973  18.504 -10.936  0.00 53.23 LIG 0.16  HD
BRANCH 52 54
ATOM     54  CA  THR M   6      34.671  19.845 -12.347  0.00 52.61 LIG 0.21  C 
BRANCH 54 55
ATOM     55  C   THR M   6      34.738  21.302 -11.883  0.00 52.44 LIG 0.29  C 
ATOM     56  N   NH2 M   7      34.698  21.521 -10.575  0.00 52.35 LIG-0.11  N 
ATOM     57 O    THR M   6      34.761  22.253 -12.662  0.00 52.24 LIG-0.27  OA
ENDBRANCH 54 55
BRANCH 54 58
ATOM     58  CB  THR M   6      33.223  19.260 -12.392  0.00 52.38 LIG 0.15  C 
ATOM     59  CG2 THR M   6      32.269  19.767 -11.312  0.00 52.30 LIG 0.04  C 
BRANCH 58 60
ATOM     60 OG1  THR M   6      32.754  19.591 -13.693  0.00 52.26 LIG-0.39  OA
ATOM     61 HG1  THR M   6      32.810  18.917 -14.191  0.00 52.26 LIG 0.21  HD
ENDBRANCH 58 60
ENDBRANCH 54 58
ENDBRANCH 52 54
ENDBRANCH 43 50
ENDBRANCH 40 43
ENDBRANCH 1 39
TORSDOF 22
ENDMDL
MODEL 28
USER: ADFR SOLUTION from run 8
USER: SCORE 19.948841 LL:  -6.309 LR: -14.378 RR:   0.000 FEB:  -7.816
USER: RMSD 5.174016
USER: SEED 653989
USER: STATUS no improvement in best in 3 clusters for 5 generations
USER: GENES 24
USER: genes 0 Translation |==|  0.58790 0.36151 0.65093
USER: genes 1 Rotation |==|  0.61477 0.66763 0.46758 0.95572
USER: genes 2 Torsion [C]-CA--N-[C] |==|  0.82345
USER: genes 3 Torsion [N]-C--CA-[N] |==|  0.07491
USER: genes 4 Torsion [N]-C--CA-[N] |==|  0.29530
USER: genes 5 Torsion [C]-CA--CB-[CG] |==|  0.24510
USER: genes 6 Torsion [CA]-CB--CG-[CD2] |==|  0.90278
USER: genes 7 Torsion [C]-CA--N-[C] |==|  0.81453
USER: genes 8 Torsion [N]-C--CA-[N] |==|  0.04574
USER: genes 9 Torsion [C]-CA--CB-[SG] |==|  0.28233
USER: genes 10 Torsion [CA]-CB--SG-[HG] |==|  0.69475
USER: genes 11 Torsion [C]-CA--N-[C] |==|  0.73438
USER: genes 12 Torsion [N]-CA--CB-[CG] |==|  0.72244
USER: genes 13 Torsion [CA]-CB--CG-[CD] |==|  0.00200
USER: genes 14 Torsion [CB]-CG--CD-[NE2] |==|  0.31985
USER: genes 15 Torsion [N]-CA--C-[N] |==|  0.89445
USER: genes 16 Torsion [C]-N--CA-[C] |==|  0.80920
USER: genes 17 Torsion [N]-CA--CB-[CG] |==|  0.60045
USER: genes 18 Torsion [CA]-CB--CG-[ND2] |==|  0.88336
USER: genes 19 Torsion [N]-CA--C-[N] |==|  0.96042
USER: genes 20 Torsion [C]-N--CA-[C] |==|  0.71862
USER: genes 21 Torsion [N]-CA--C-[N] |==|  0.29830
USER: genes 22 Torsion [N]-CA--CB-[OG1] |==|  0.23037
USER: genes 23 Torsion [CA]-CB--OG1-[HG1] |==|  0.88798
ROOT
ATOM      1  CA  GLN M   4      37.602  11.361  -7.545  1.00 40.00 LIG 0.18  C 
ENDROOT
BRANCH 1 2
ATOM      2  N   GLN M   4      36.779  12.498  -7.819  1.00 41.31 LIG-0.35  N 
ATOM      3 H    GLN M   4      35.930  12.357  -7.821  1.00 41.31 LIG 0.16  HD
ATOM      4  C   PRO M   3      37.372  13.670  -8.045  1.00 42.91 LIG 0.24  C 
ATOM      5 O    PRO M   3      38.614  13.803  -7.995  1.00 42.50 LIG-0.27  OA
BRANCH 4 6
ATOM      6  CA  PRO M   3      36.448  14.859  -8.328  1.00 43.35 LIG 0.18  C 
ATOM      7  N   PRO M   3      35.107  14.809  -7.764  1.00 44.79 LIG-0.34  N 
ATOM      8  C   HIS M   2      34.108  13.999  -8.212  1.00 46.46 LIG 0.24  C 
ATOM      9  CD  PRO M   3      34.943  15.930  -6.816  1.00 43.94 LIG 0.13  C 
ATOM     10 O    HIS M   2      34.246  13.136  -9.094  1.00 45.68 LIG-0.27  OA
ATOM     11  CG  PRO M   3      36.352  16.282  -6.443  1.00 40.61 LIG 0.02  C 
ATOM     12  CB  PRO M   3      36.948  16.195  -7.802  1.00 40.36 LIG 0.04  C 
BRANCH 8 13
ATOM     13  CA  HIS M   2      32.758  14.174  -7.555  1.00 46.79 LIG 0.18  C 
BRANCH 13 14
ATOM     14  CB  HIS M   2      32.201  12.774  -7.129  1.00 44.05 LIG 0.10  C 
BRANCH 14 15
ATOM     15  CG  HIS M   2      32.670  12.383  -5.723  1.00 42.32 LIG 0.06  A 
ATOM     16  CD2 HIS M   2      33.897  12.691  -5.189  1.00 41.49 LIG 0.14  A 
ATOM     17 NE2  HIS M   2      33.926  11.961  -4.108  1.00 41.41 LIG-0.25  NA
ATOM     18  CE1 HIS M   2      32.803  11.270  -3.989  1.00 41.50 LIG 0.23  A 
ATOM     19 ND1  HIS M   2      31.987  11.515  -4.989  1.00 40.17 LIG-0.24  NA
ENDBRANCH 14 15
ENDBRANCH 13 14
BRANCH 13 20
ATOM     20  N   HIS M   2      31.865  14.854  -8.485  1.00 53.14 LIG-0.35  N 
ATOM     21 H    HIS M   2      31.212  14.368  -8.762  1.00 53.14 LIG 0.16  HD
ATOM     22  C   CYS M   1      32.054  16.121  -8.866  0.42 52.47 LIG 0.24  C 
ATOM     23 O    CYS M   1      33.019  16.806  -8.510  0.42 50.41 LIG-0.27  OA
BRANCH 22 24
ATOM     24  CA  CYS M   1      30.966  16.650  -9.801  0.42 53.64 LIG 0.18  C 
BRANCH 24 25
ATOM     25  CB  CYS M   1      30.600  18.063  -9.412  0.42 54.18 LIG 0.10  C 
BRANCH 25 26
ATOM     26 SG   CYS M   1      31.428  19.158 -10.583  0.42 57.26 LIG-0.18  SA
ATOM     27 HG   CYS M   1      32.309  19.750 -10.024  0.42 57.26 LIG 0.10  HD
ENDBRANCH 25 26
ENDBRANCH 24 25
BRANCH 24 28
ATOM     28  N   CYS M   1      29.781  15.805  -9.765  0.42 53.99 LIG-0.38  N 
ATOM     29  C   ACE M   0      29.570  14.837 -10.657  0.42 54.55 LIG 0.04  C 
ATOM     30  CH3 ACE M   0      28.331  13.956 -10.566  0.42 54.45 LIG 0.05  C 
ATOM     31 H    CYS M   1      29.239  15.988  -9.123  0.42 53.99 LIG 0.16  HD
ENDBRANCH 24 28
ENDBRANCH 22 24
ENDBRANCH 13 20
ENDBRANCH 8 13
ENDBRANCH 4 6
ENDBRANCH 1 2
BRANCH 1 32
ATOM     32  CB  GLN M   4      36.734  10.162  -7.218  1.00 35.03 LIG 0.04  C 
BRANCH 32 33
ATOM     33  CG  GLN M   4      36.687   9.988  -5.697  1.00 28.64 LIG 0.10  C 
BRANCH 33 34
ATOM     34  CD  GLN M   4      37.479  11.035  -4.943  1.00 28.38 LIG 0.21  C 
ATOM     35  NE2 GLN M   4      36.740  11.839  -4.175  1.00 21.52 LIG-0.37  N 
ATOM     36 22HE GLN M   4      37.116  12.464  -3.720  1.00 21.52 LIG 0.16  HD
ATOM     37 21HE GLN M   4      35.887  11.731  -4.135  1.00 21.52 LIG 0.16  HD
ATOM     38 OE1  GLN M   4      38.720  11.122  -5.058  1.00 23.11 LIG-0.27  OA
ENDBRANCH 33 34
ENDBRANCH 32 33
ENDBRANCH 1 32
BRANCH 1 39
ATOM     39  C   GLN M   4      38.452  11.074  -8.768  1.00 43.11 LIG 0.24  C 
ATOM     40  N   ASN M   5      37.844  11.255  -9.927  1.00 48.15 LIG-0.35  N 
ATOM     41 H    ASN M   5      37.043  11.553 -10.026  1.00 48.15 LIG 0.16  HD
ATOM     42 O    GLN M   4      39.641  10.758  -8.687  1.00 42.77 LIG-0.27  OA
BRANCH 40 43
ATOM     43  CA  ASN M   5      38.549  10.938 -11.154  1.00 54.08 LIG 0.18  C 
BRANCH 43 44
ATOM     44  CB  ASN M   5      37.511  10.966 -12.320  1.00 57.18 LIG 0.14  C 
BRANCH 44 45
ATOM     45  CG  ASN M   5      37.688   9.925 -13.463  1.00 60.38 LIG 0.22  C 
ATOM     46  ND2 ASN M   5      38.874   9.615 -13.989  1.00 60.67 LIG-0.37  N 
ATOM     47 22HD ASN M   5      39.585  10.009 -13.707  1.00 60.67 LIG 0.16  HD
ATOM     48 21HD ASN M   5      38.927   9.022 -14.608  1.00 60.67 LIG 0.16  HD
ATOM     49 OD1  ASN M   5      36.736   9.300 -13.941  1.00 60.50 LIG-0.27  OA
ENDBRANCH 44 45
ENDBRANCH 43 44
BRANCH 43 50
ATOM     50  C   ASN M   5      39.676  11.933 -11.345  1.00 53.60 LIG 0.24  C 
ATOM     51 O    ASN M   5      40.505  11.721 -12.229  1.00 54.31 LIG-0.27  OA
ATOM     52  N   THR M   6      39.700  13.046 -10.621  0.00 53.23 LIG-0.34  N 
ATOM     53 H    THR M   6      39.105  13.261 -10.037  0.00 53.23 LIG 0.16  HD
BRANCH 52 54
ATOM     54  CA  THR M   6      40.774  14.000 -10.780  0.00 52.61 LIG 0.21  C 
BRANCH 54 55
ATOM     55  C   THR M   6      41.776  13.832  -9.636  0.00 52.44 LIG 0.29  C 
ATOM     56  N   NH2 M   7      42.943  13.276  -9.933  0.00 52.35 LIG-0.11  N 
ATOM     57 O    THR M   6      41.517  14.125  -8.470  0.00 52.24 LIG-0.27  OA
ENDBRANCH 54 55
BRANCH 54 58
ATOM     58  CB  THR M   6      40.125  15.419 -10.852  0.00 52.38 LIG 0.15  C 
ATOM     59  CG2 THR M   6      38.825  15.515 -11.648  0.00 52.30 LIG 0.04  C 
BRANCH 58 60
ATOM     60 OG1  THR M   6      39.927  15.781  -9.492  0.00 52.26 LIG-0.39  OA
ATOM     61 HG1  THR M   6      39.659  15.112  -9.060  0.00 52.26 LIG 0.21  HD
ENDBRANCH 58 60
ENDBRANCH 54 58
ENDBRANCH 52 54
ENDBRANCH 43 50
ENDBRANCH 40 43
ENDBRANCH 1 39
TORSDOF 22
ENDMDL
MODEL 29
USER: ADFR SOLUTION from run 38
USER: SCORE 17.627660 LL:  -4.552 LR: -14.320 RR:   0.000 FEB:  -7.757
USER: RMSD 5.680092
USER: SEED 37
USER: STATUS searching
USER: GENES 24
USER: genes 0 Translation |==|  0.57942 0.39240 0.68835
USER: genes 1 Rotation |==|  0.59914 0.70485 0.58524 0.93697
USER: genes 2 Torsion [C]-CA--N-[C] |==|  0.75000
USER: genes 3 Torsion [N]-C--CA-[N] |==|  0.70772
USER: genes 4 Torsion [N]-C--CA-[N] |==|  0.13588
USER: genes 5 Torsion [C]-CA--CB-[CG] |==|  0.41072
USER: genes 6 Torsion [CA]-CB--CG-[CD2] |==|  0.27116
USER: genes 7 Torsion [C]-CA--N-[C] |==|  0.58992
USER: genes 8 Torsion [N]-C--CA-[N] |==|  0.87380
USER: genes 9 Torsion [C]-CA--CB-[SG] |==|  0.24024
USER: genes 10 Torsion [CA]-CB--SG-[HG] |==|  0.75672
USER: genes 11 Torsion [C]-CA--N-[C] |==|  0.73788
USER: genes 12 Torsion [N]-CA--CB-[CG] |==|  0.75341
USER: genes 13 Torsion [CA]-CB--CG-[CD] |==|  0.16465
USER: genes 14 Torsion [CB]-CG--CD-[NE2] |==|  0.69882
USER: genes 15 Torsion [N]-CA--C-[N] |==|  0.16746
USER: genes 16 Torsion [C]-N--CA-[C] |==|  0.76840
USER: genes 17 Torsion [N]-CA--CB-[CG] |==|  0.41544
USER: genes 18 Torsion [CA]-CB--CG-[ND2] |==|  0.19785
USER: genes 19 Torsion [N]-CA--C-[N] |==|  0.36514
USER: genes 20 Torsion [C]-N--CA-[C] |==|  0.71023
USER: genes 21 Torsion [N]-CA--C-[N] |==|  0.03233
USER: genes 22 Torsion [N]-CA--CB-[OG1] |==|  0.86914
USER: genes 23 Torsion [CA]-CB--OG1-[HG1] |==|  0.86730
ROOT
ATOM      1  CA  GLN M   4      37.424  11.894  -6.703  1.00 40.00 LIG 0.18  C 
ENDROOT
BRANCH 1 2
ATOM      2  N   GLN M   4      36.150  12.536  -6.798  1.00 41.31 LIG-0.35  N 
ATOM      3 H    GLN M   4      35.517  12.068  -7.145  1.00 41.31 LIG 0.16  HD
ATOM      4  C   PRO M   3      36.036  13.787  -6.351  1.00 42.91 LIG 0.24  C 
ATOM      5 O    PRO M   3      36.997  14.393  -5.831  1.00 42.50 LIG-0.27  OA
BRANCH 4 6
ATOM      6  CA  PRO M   3      34.650  14.429  -6.469  1.00 43.35 LIG 0.18  C 
ATOM      7  N   PRO M   3      34.464  15.426  -7.513  1.00 44.79 LIG-0.34  N 
ATOM      8  C   HIS M   2      34.983  16.685  -7.483  1.00 46.46 LIG 0.24  C 
ATOM      9  CD  PRO M   3      33.443  14.941  -8.464  1.00 43.94 LIG 0.13  C 
ATOM     10 O    HIS M   2      35.756  17.105  -6.607  1.00 45.68 LIG-0.27  OA
ATOM     11  CG  PRO M   3      33.450  13.455  -8.257  1.00 40.61 LIG 0.02  C 
ATOM     12  CB  PRO M   3      33.520  13.458  -6.773  1.00 40.36 LIG 0.04  C 
BRANCH 8 13
ATOM     13  CA  HIS M   2      34.588  17.599  -8.620  1.00 46.79 LIG 0.18  C 
BRANCH 13 14
ATOM     14  CB  HIS M   2      35.088  19.052  -8.319  1.00 44.05 LIG 0.10  C 
BRANCH 14 15
ATOM     15  CG  HIS M   2      35.453  19.802  -9.604  1.00 42.32 LIG 0.06  A 
ATOM     16  CD2 HIS M   2      34.631  20.684 -10.260  1.00 41.49 LIG 0.14  A 
ATOM     17 NE2  HIS M   2      35.257  20.868 -11.390  1.00 41.41 LIG-0.25  NA
ATOM     18  CE1 HIS M   2      36.377  20.161 -11.416  1.00 41.50 LIG 0.23  A 
ATOM     19 ND1  HIS M   2      36.533  19.479 -10.304  1.00 40.17 LIG-0.24  NA
ENDBRANCH 14 15
ENDBRANCH 13 14
BRANCH 13 20
ATOM     20  N   HIS M   2      33.140  17.547  -8.787  1.00 53.14 LIG-0.35  N 
ATOM     21 H    HIS M   2      32.708  17.421  -8.054  1.00 53.14 LIG 0.16  HD
ATOM     22  C   CYS M   1      32.549  17.685  -9.978  0.42 52.47 LIG 0.24  C 
ATOM     23 O    CYS M   1      33.169  17.815 -11.038  0.42 50.41 LIG-0.27  OA
BRANCH 22 24
ATOM     24  CA  CYS M   1      31.022  17.654  -9.911  0.42 53.64 LIG 0.18  C 
BRANCH 24 25
ATOM     25  CB  CYS M   1      30.506  18.974  -9.389  0.42 54.18 LIG 0.10  C 
BRANCH 25 26
ATOM     26 SG   CYS M   1      30.345  20.072 -10.812  0.42 57.26 LIG-0.18  SA
ATOM     27 HG   CYS M   1      31.386  20.635 -11.004  0.42 57.26 LIG 0.10  HD
ENDBRANCH 25 26
ENDBRANCH 24 25
BRANCH 24 28
ATOM     28  N   CYS M   1      30.551  16.569  -9.063  0.42 53.99 LIG-0.38  N 
ATOM     29  C   ACE M   0      30.215  15.376  -9.555  0.42 54.55 LIG 0.04  C 
ATOM     30  CH3 ACE M   0      29.755  14.258  -8.629  0.42 54.45 LIG 0.05  C 
ATOM     31 H    CYS M   1      30.511  16.769  -8.228  0.42 53.99 LIG 0.16  HD
ENDBRANCH 24 28
ENDBRANCH 22 24
ENDBRANCH 13 20
ENDBRANCH 8 13
ENDBRANCH 4 6
ENDBRANCH 1 2
BRANCH 1 32
ATOM     32  CB  GLN M   4      37.237  10.401  -6.523  1.00 35.03 LIG 0.04  C 
BRANCH 32 33
ATOM     33  CG  GLN M   4      37.127  10.095  -5.026  1.00 28.64 LIG 0.10  C 
BRANCH 33 34
ATOM     34  CD  GLN M   4      35.975  10.805  -4.346  1.00 28.38 LIG 0.21  C 
ATOM     35  NE2 GLN M   4      36.342  11.796  -3.531  1.00 21.52 LIG-0.37  N 
ATOM     36 22HE GLN M   4      35.746  12.244  -3.103  1.00 21.52 LIG 0.16  HD
ATOM     37 21HE GLN M   4      37.175  11.987  -3.434  1.00 21.52 LIG 0.16  HD
ATOM     38 OE1  GLN M   4      34.789  10.464  -4.544  1.00 23.11 LIG-0.27  OA
ENDBRANCH 33 34
ENDBRANCH 32 33
ENDBRANCH 1 32
BRANCH 1 39
ATOM     39  C   GLN M   4      38.203  12.174  -7.975  1.00 43.11 LIG 0.24  C 
ATOM     40  N   ASN M   5      38.434  13.452  -8.218  1.00 48.15 LIG-0.35  N 
ATOM     41 H    ASN M   5      38.215  14.103  -7.700  1.00 48.15 LIG 0.16  HD
ATOM     42 O    GLN M   4      38.644  11.274  -8.692  1.00 42.77 LIG-0.27  OA
BRANCH 40 43
ATOM     43  CA  ASN M   5      39.109  13.828  -9.445  1.00 54.08 LIG 0.18  C 
BRANCH 43 44
ATOM     44  CB  ASN M   5      38.673  15.284  -9.801  1.00 57.18 LIG 0.14  C 
BRANCH 44 45
ATOM     45  CG  ASN M   5      39.697  16.174 -10.564  1.00 60.38 LIG 0.22  C 
ATOM     46  ND2 ASN M   5      40.022  15.977 -11.842  1.00 60.67 LIG-0.37  N 
ATOM     47 22HD ASN M   5      39.672  15.324 -12.279  1.00 60.67 LIG 0.16  HD
ATOM     48 21HD ASN M   5      40.581  16.503 -12.229  1.00 60.67 LIG 0.16  HD
ATOM     49 OD1  ASN M   5      40.257  17.139 -10.035  1.00 60.50 LIG-0.27  OA
ENDBRANCH 44 45
ENDBRANCH 43 44
BRANCH 43 50
ATOM     50  C   ASN M   5      40.605  13.695  -9.245  1.00 53.60 LIG 0.24  C 
ATOM     51 O    ASN M   5      41.100  14.123  -8.204  1.00 54.31 LIG-0.27  OA
ATOM     52  N   THR M   6      41.334  13.049 -10.148  0.00 53.23 LIG-0.34  N 
ATOM     53 H    THR M   6      41.017  12.680 -10.858  0.00 53.23 LIG 0.16  HD
BRANCH 52 54
ATOM     54  CA  THR M   6      42.764  12.923  -9.981  0.00 52.61 LIG 0.21  C 
BRANCH 54 55
ATOM     55  C   THR M   6      43.473  13.891 -10.931  0.00 52.44 LIG 0.29  C 
ATOM     56  N   NH2 M   7      42.723  14.805 -11.533  0.00 52.35 LIG-0.11  N 
ATOM     57 O    THR M   6      44.670  13.809 -11.200  0.00 52.24 LIG-0.27  OA
ENDBRANCH 54 55
BRANCH 54 58
ATOM     58  CB  THR M   6      43.128  11.423 -10.215  0.00 52.38 LIG 0.15  C 
ATOM     59  CG2 THR M   6      44.555  11.021  -9.847  0.00 52.30 LIG 0.04  C 
BRANCH 58 60
ATOM     60 OG1  THR M   6      42.174  10.708  -9.441  0.00 52.26 LIG-0.39  OA
ATOM     61 HG1  THR M   6      42.129  11.043  -8.671  0.00 52.26 LIG 0.21  HD
ENDBRANCH 58 60
ENDBRANCH 54 58
ENDBRANCH 52 54
ENDBRANCH 43 50
ENDBRANCH 40 43
ENDBRANCH 1 39
TORSDOF 22
ENDMDL
MODEL 30
USER: ADFR SOLUTION from run 72
USER: SCORE 17.456826 LL:  -4.620 LR: -14.301 RR:   0.000 FEB:  -7.738
USER: RMSD 8.566990
USER: SEED 71
USER: STATUS no improvement in best in 12 clusters for 5 generations
USER: GENES 24
USER: genes 0 Translation |==|  0.38595 0.50415 0.66880
USER: genes 1 Rotation |==|  0.30229 0.64390 0.93356 0.54727
USER: genes 2 Torsion [C]-CA--N-[C] |==|  0.60102
USER: genes 3 Torsion [N]-C--CA-[N] |==|  0.14955
USER: genes 4 Torsion [N]-C--CA-[N] |==|  0.48327
USER: genes 5 Torsion [C]-CA--CB-[CG] |==|  0.67550
USER: genes 6 Torsion [CA]-CB--CG-[CD2] |==|  0.68106
USER: genes 7 Torsion [C]-CA--N-[C] |==|  0.68066
USER: genes 8 Torsion [N]-C--CA-[N] |==|  0.48600
USER: genes 9 Torsion [C]-CA--CB-[SG] |==|  0.67070
USER: genes 10 Torsion [CA]-CB--SG-[HG] |==|  0.15742
USER: genes 11 Torsion [C]-CA--N-[C] |==|  0.72222
USER: genes 12 Torsion [N]-CA--CB-[CG] |==|  0.05016
USER: genes 13 Torsion [CA]-CB--CG-[CD] |==|  0.66983
USER: genes 14 Torsion [CB]-CG--CD-[NE2] |==|  0.20041
USER: genes 15 Torsion [N]-CA--C-[N] |==|  0.49422
USER: genes 16 Torsion [C]-N--CA-[C] |==|  0.68749
USER: genes 17 Torsion [N]-CA--CB-[CG] |==|  0.70889
USER: genes 18 Torsion [CA]-CB--CG-[ND2] |==|  0.74085
USER: genes 19 Torsion [N]-CA--C-[N] |==|  0.73121
USER: genes 20 Torsion [C]-N--CA-[C] |==|  0.79029
USER: genes 21 Torsion [N]-CA--C-[N] |==|  0.44523
USER: genes 22 Torsion [N]-CA--CB-[OG1] |==|  0.09840
USER: genes 23 Torsion [CA]-CB--OG1-[HG1] |==|  0.50410
ROOT
ATOM      1  CA  GLN M   4      33.361  13.822  -7.143  1.00 40.00 LIG 0.18  C 
ENDROOT
BRANCH 1 2
ATOM      2  N   GLN M   4      34.121  12.611  -7.166  1.00 41.31 LIG-0.35  N 
ATOM      3 H    GLN M   4      34.522  12.432  -7.906  1.00 41.31 LIG 0.16  HD
ATOM      4  C   PRO M   3      34.155  11.862  -6.064  1.00 42.91 LIG 0.24  C 
ATOM      5 O    PRO M   3      33.568  12.204  -5.015  1.00 42.50 LIG-0.27  OA
BRANCH 4 6
ATOM      6  CA  PRO M   3      34.987  10.578  -6.136  1.00 43.35 LIG 0.18  C 
ATOM      7  N   PRO M   3      36.374  10.706  -6.559  1.00 44.79 LIG-0.34  N 
ATOM      8  C   HIS M   2      36.773  10.970  -7.834  1.00 46.46 LIG 0.24  C 
ATOM      9  CD  PRO M   3      37.254  10.268  -5.457  1.00 43.94 LIG 0.13  C 
ATOM     10 O    HIS M   2      36.003  11.227  -8.773  1.00 45.68 LIG-0.27  OA
ATOM     11  CG  PRO M   3      36.388  10.408  -4.241  1.00 40.61 LIG 0.02  C 
ATOM     12  CB  PRO M   3      35.140   9.841  -4.816  1.00 40.36 LIG 0.04  C 
BRANCH 8 13
ATOM     13  CA  HIS M   2      38.264  10.962  -8.084  1.00 46.79 LIG 0.18  C 
BRANCH 13 14
ATOM     14  CB  HIS M   2      38.938  12.103  -7.251  1.00 44.05 LIG 0.10  C 
BRANCH 14 15
ATOM     15  CG  HIS M   2      39.598  13.150  -8.155  1.00 42.32 LIG 0.06  A 
ATOM     16  CD2 HIS M   2      40.946  13.399  -8.217  1.00 41.49 LIG 0.14  A 
ATOM     17 NE2  HIS M   2      40.999  14.500  -8.915  1.00 41.41 LIG-0.25  NA
ATOM     18  CE1 HIS M   2      39.780  14.887  -9.258  1.00 41.50 LIG 0.23  A 
ATOM     19 ND1  HIS M   2      38.872  14.056  -8.798  1.00 40.17 LIG-0.24  NA
ENDBRANCH 14 15
ENDBRANCH 13 14
BRANCH 13 20
ATOM     20  N   HIS M   2      38.504  11.119  -9.513  1.00 53.14 LIG-0.35  N 
ATOM     21 H    HIS M   2      38.252  11.877  -9.829  1.00 53.14 LIG 0.16  HD
ATOM     22  C   CYS M   1      39.067  10.160 -10.256  0.42 52.47 LIG 0.24  C 
ATOM     23 O    CYS M   1      39.384   9.051  -9.816  0.42 50.41 LIG-0.27  OA
BRANCH 22 24
ATOM     24  CA  CYS M   1      39.275  10.560 -11.717  0.42 53.64 LIG 0.18  C 
BRANCH 24 25
ATOM     25  CB  CYS M   1      37.938  10.816 -12.373  0.42 54.18 LIG 0.10  C 
BRANCH 25 26
ATOM     26 SG   CYS M   1      37.779   9.624 -13.719  0.42 57.26 LIG-0.18  SA
ATOM     27 HG   CYS M   1      37.895   8.512 -13.285  0.42 57.26 LIG 0.10  HD
ENDBRANCH 25 26
ENDBRANCH 24 25
BRANCH 24 28
ATOM     28  N   CYS M   1      39.995   9.530 -12.450  0.42 53.99 LIG-0.38  N 
ATOM     29  C   ACE M   0      41.302   9.617 -12.702  0.42 54.55 LIG 0.04  C 
ATOM     30  CH3 ACE M   0      42.024   8.502 -13.447  0.42 54.45 LIG 0.05  C 
ATOM     31 H    CYS M   1      39.505   8.870 -12.702  0.42 53.99 LIG 0.16  HD
ENDBRANCH 24 28
ENDBRANCH 22 24
ENDBRANCH 13 20
ENDBRANCH 8 13
ENDBRANCH 4 6
ENDBRANCH 1 2
BRANCH 1 32
ATOM     32  CB  GLN M   4      34.267  14.994  -6.823  1.00 35.03 LIG 0.04  C 
BRANCH 32 33
ATOM     33  CG  GLN M   4      35.719  14.578  -7.075  1.00 28.64 LIG 0.10  C 
BRANCH 33 34
ATOM     34  CD  GLN M   4      36.590  14.640  -5.838  1.00 28.38 LIG 0.21  C 
ATOM     35  NE2 GLN M   4      36.343  13.681  -4.942  1.00 21.52 LIG-0.37  N 
ATOM     36 22HE GLN M   4      36.792  13.652  -4.209  1.00 21.52 LIG 0.16  HD
ATOM     37 21HE GLN M   4      35.736  13.092  -5.098  1.00 21.52 LIG 0.16  HD
ATOM     38 OE1  GLN M   4      37.453  15.531  -5.690  1.00 23.11 LIG-0.27  OA
ENDBRANCH 33 34
ENDBRANCH 32 33
ENDBRANCH 1 32
BRANCH 1 39
ATOM     39  C   GLN M   4      32.716  14.014  -8.503  1.00 43.11 LIG 0.24  C 
ATOM     40  N   ASN M   5      31.943  15.081  -8.610  1.00 48.15 LIG-0.35  N 
ATOM     41 H    ASN M   5      31.823  15.669  -7.993  1.00 48.15 LIG 0.16  HD
ATOM     42 O    GLN M   4      32.948  13.268  -9.456  1.00 42.77 LIG-0.27  OA
BRANCH 40 43
ATOM     43  CA  ASN M   5      31.225  15.314  -9.847  1.00 54.08 LIG 0.18  C 
BRANCH 43 44
ATOM     44  CB  ASN M   5      29.710  15.456  -9.498  1.00 57.18 LIG 0.14  C 
BRANCH 44 45
ATOM     45  CG  ASN M   5      28.781  14.254  -9.835  1.00 60.38 LIG 0.22  C 
ATOM     46  ND2 ASN M   5      28.103  14.156 -10.979  1.00 60.67 LIG-0.37  N 
ATOM     47 22HD ASN M   5      28.157  14.783 -11.566  1.00 60.67 LIG 0.16  HD
ATOM     48 21HD ASN M   5      27.613  13.466 -11.131  1.00 60.67 LIG 0.16  HD
ATOM     49 OD1  ASN M   5      28.631  13.299  -9.066  1.00 60.50 LIG-0.27  OA
ENDBRANCH 44 45
ENDBRANCH 43 44
BRANCH 43 50
ATOM     50  C   ASN M   5      31.792  16.548 -10.520  1.00 53.60 LIG 0.24  C 
ATOM     51 O    ASN M   5      32.754  16.417 -11.275  1.00 54.31 LIG-0.27  OA
ATOM     52  N   THR M   6      31.193  17.721 -10.352  0.00 53.23 LIG-0.34  N 
ATOM     53 H    THR M   6      30.482  17.843  -9.884  0.00 53.23 LIG 0.16  HD
BRANCH 52 54
ATOM     54  CA  THR M   6      31.727  18.911 -10.976  0.00 52.61 LIG 0.21  C 
BRANCH 54 55
ATOM     55  C   THR M   6      32.968  19.373 -10.208  0.00 52.44 LIG 0.29  C 
ATOM     56  N   NH2 M   7      33.805  20.181 -10.845  0.00 52.35 LIG-0.11  N 
ATOM     57 O    THR M   6      33.241  18.977  -9.077  0.00 52.24 LIG-0.27  OA
ENDBRANCH 54 55
BRANCH 54 58
ATOM     58  CB  THR M   6      30.577  19.967 -11.017  0.00 52.38 LIG 0.15  C 
ATOM     59  CG2 THR M   6      29.658  19.900 -12.236  0.00 52.30 LIG 0.04  C 
BRANCH 58 60
ATOM     60 OG1  THR M   6      29.855  19.744  -9.813  0.00 52.26 LIG-0.39  OA
ATOM     61 HG1  THR M   6      29.201  20.270  -9.777  0.00 52.26 LIG 0.21  HD
ENDBRANCH 58 60
ENDBRANCH 54 58
ENDBRANCH 52 54
ENDBRANCH 43 50
ENDBRANCH 40 43
ENDBRANCH 1 39
TORSDOF 22
ENDMDL
MODEL 31
USER: ADFR SOLUTION from run 3
USER: SCORE 18.174781 LL:  -4.754 LR: -14.304 RR:   0.000 FEB:  -7.742
USER: RMSD 7.939450
USER: SEED 727313
USER: STATUS no improvement in best in 5 clusters for 5 generations
USER: GENES 24
USER: genes 0 Translation |==|  0.45801 0.58353 0.67481
USER: genes 1 Rotation |==|  0.37198 0.68804 0.93429 0.59822
USER: genes 2 Torsion [C]-CA--N-[C] |==|  0.73550
USER: genes 3 Torsion [N]-C--CA-[N] |==|  0.05352
USER: genes 4 Torsion [N]-C--CA-[N] |==|  0.48084
USER: genes 5 Torsion [C]-CA--CB-[CG] |==|  0.75072
USER: genes 6 Torsion [CA]-CB--CG-[CD2] |==|  0.64475
USER: genes 7 Torsion [C]-CA--N-[C] |==|  0.60681
USER: genes 8 Torsion [N]-C--CA-[N] |==|  0.03323
USER: genes 9 Torsion [C]-CA--CB-[SG] |==|  0.18373
USER: genes 10 Torsion [CA]-CB--SG-[HG] |==|  0.05745
USER: genes 11 Torsion [C]-CA--N-[C] |==|  0.75916
USER: genes 12 Torsion [N]-CA--CB-[CG] |==|  0.65862
USER: genes 13 Torsion [CA]-CB--CG-[CD] |==|  0.67784
USER: genes 14 Torsion [CB]-CG--CD-[NE2] |==|  0.44656
USER: genes 15 Torsion [N]-CA--C-[N] |==|  0.29155
USER: genes 16 Torsion [C]-N--CA-[C] |==|  0.77695
USER: genes 17 Torsion [N]-CA--CB-[CG] |==|  0.80804
USER: genes 18 Torsion [CA]-CB--CG-[ND2] |==|  0.05663
USER: genes 19 Torsion [N]-CA--C-[N] |==|  0.18639
USER: genes 20 Torsion [C]-N--CA-[C] |==|  0.70955
USER: genes 21 Torsion [N]-CA--C-[N] |==|  0.96535
USER: genes 22 Torsion [N]-CA--CB-[OG1] |==|  0.50604
USER: genes 23 Torsion [CA]-CB--OG1-[HG1] |==|  0.13752
ROOT
ATOM      1  CA  GLN M   4      34.874  15.191  -7.008  1.00 40.00 LIG 0.18  C 
ENDROOT
BRANCH 1 2
ATOM      2  N   GLN M   4      35.192  13.799  -7.081  1.00 41.31 LIG-0.35  N 
ATOM      3 H    GLN M   4      35.889  13.595  -7.541  1.00 41.31 LIG 0.16  HD
ATOM      4  C   PRO M   3      34.402  12.934  -6.445  1.00 42.91 LIG 0.24  C 
ATOM      5 O    PRO M   3      33.419  13.309  -5.770  1.00 42.50 LIG-0.27  OA
BRANCH 4 6
ATOM      6  CA  PRO M   3      34.787  11.454  -6.548  1.00 43.35 LIG 0.18  C 
ATOM      7  N   PRO M   3      36.156  11.148  -6.935  1.00 44.79 LIG-0.34  N 
ATOM      8  C   HIS M   2      36.660  11.309  -8.190  1.00 46.46 LIG 0.24  C 
ATOM      9  CD  PRO M   3      36.815  10.420  -5.831  1.00 43.94 LIG 0.13  C 
ATOM     10 O    HIS M   2      36.042  11.825  -9.134  1.00 45.68 LIG-0.27  OA
ATOM     11  CG  PRO M   3      35.998  10.792  -4.630  1.00 40.61 LIG 0.02  C 
ATOM     12  CB  PRO M   3      34.654  10.669  -5.254  1.00 40.36 LIG 0.04  C 
BRANCH 8 13
ATOM     13  CA  HIS M   2      38.079  10.835  -8.407  1.00 46.79 LIG 0.18  C 
BRANCH 13 14
ATOM     14  CB  HIS M   2      39.055  11.692  -7.533  1.00 44.05 LIG 0.10  C 
BRANCH 14 15
ATOM     15  CG  HIS M   2      39.547  12.932  -8.286  1.00 42.32 LIG 0.06  A 
ATOM     16  CD2 HIS M   2      40.864  13.290  -8.436  1.00 41.49 LIG 0.14  A 
ATOM     17 NE2  HIS M   2      40.776  14.500  -8.916  1.00 41.41 LIG-0.25  NA
ATOM     18  CE1 HIS M   2      39.506  14.849  -9.055  1.00 41.50 LIG 0.23  A 
ATOM     19 ND1  HIS M   2      38.704  13.882  -8.670  1.00 40.17 LIG-0.24  NA
ENDBRANCH 14 15
ENDBRANCH 13 14
BRANCH 13 20
ATOM     20  N   HIS M   2      38.397  10.929  -9.827  1.00 53.14 LIG-0.35  N 
ATOM     21 H    HIS M   2      38.071  11.625 -10.212  1.00 53.14 LIG 0.16  HD
ATOM     22  C   CYS M   1      39.130  10.010 -10.461  0.42 52.47 LIG 0.24  C 
ATOM     23 O    CYS M   1      39.557   8.984  -9.922  0.42 50.41 LIG-0.27  OA
BRANCH 22 24
ATOM     24  CA  CYS M   1      39.387  10.338 -11.932  0.42 53.64 LIG 0.18  C 
BRANCH 24 25
ATOM     25  CB  CYS M   1      40.846  10.119 -12.259  0.42 54.18 LIG 0.10  C 
BRANCH 25 26
ATOM     26 SG   CYS M   1      41.156   8.348 -12.101  0.42 57.26 LIG-0.18  SA
ATOM     27 HG   CYS M   1      40.119   7.751 -12.184  0.42 57.26 LIG 0.10  HD
ENDBRANCH 25 26
ENDBRANCH 24 25
BRANCH 24 28
ATOM     28  N   CYS M   1      39.013  11.710 -12.241  0.42 53.99 LIG-0.38  N 
ATOM     29  C   ACE M   0      37.770  12.048 -12.588  0.42 54.55 LIG 0.04  C 
ATOM     30  CH3 ACE M   0      37.413  13.501 -12.875  0.42 54.45 LIG 0.05  C 
ATOM     31 H    CYS M   1      39.660  12.273 -12.180  0.42 53.99 LIG 0.16  HD
ENDBRANCH 24 28
ENDBRANCH 22 24
ENDBRANCH 13 20
ENDBRANCH 8 13
ENDBRANCH 4 6
ENDBRANCH 1 2
BRANCH 1 32
ATOM     32  CB  GLN M   4      36.149  16.009  -6.957  1.00 35.03 LIG 0.04  C 
BRANCH 32 33
ATOM     33  CG  GLN M   4      36.131  16.871  -5.691  1.00 28.64 LIG 0.10  C 
BRANCH 33 34
ATOM     34  CD  GLN M   4      36.104  18.359  -5.973  1.00 28.38 LIG 0.21  C 
ATOM     35  NE2 GLN M   4      35.688  19.107  -4.948  1.00 21.52 LIG-0.37  N 
ATOM     36 22HE GLN M   4      35.638  19.961  -5.031  1.00 21.52 LIG 0.16  HD
ATOM     37 21HE GLN M   4      35.470  18.734  -4.204  1.00 21.52 LIG 0.16  HD
ATOM     38 OE1  GLN M   4      36.439  18.819  -7.085  1.00 23.11 LIG-0.27  OA
ENDBRANCH 33 34
ENDBRANCH 32 33
ENDBRANCH 1 32
BRANCH 1 39
ATOM     39  C   GLN M   4      34.060  15.567  -8.232  1.00 43.11 LIG 0.24  C 
ATOM     40  N   ASN M   5      32.769  15.745  -8.011  1.00 48.15 LIG-0.35  N 
ATOM     41 H    ASN M   5      32.387  15.703  -7.241  1.00 48.15 LIG 0.16  HD
ATOM     42 O    GLN M   4      34.574  15.756  -9.336  1.00 42.77 LIG-0.27  OA
BRANCH 40 43
ATOM     43  CA  ASN M   5      31.893  16.036  -9.129  1.00 54.08 LIG 0.18  C 
BRANCH 43 44
ATOM     44  CB  ASN M   5      30.445  15.620  -8.720  1.00 57.18 LIG 0.14  C 
BRANCH 44 45
ATOM     45  CG  ASN M   5      30.153  14.099  -8.562  1.00 60.38 LIG 0.22  C 
ATOM     46  ND2 ASN M   5      31.109  13.191  -8.366  1.00 60.67 LIG-0.37  N 
ATOM     47 22HD ASN M   5      31.933  13.434  -8.338  1.00 60.67 LIG 0.16  HD
ATOM     48 21HD ASN M   5      30.901  12.362  -8.268  1.00 60.67 LIG 0.16  HD
ATOM     49 OD1  ASN M   5      29.006  13.641  -8.584  1.00 60.50 LIG-0.27  OA
ENDBRANCH 44 45
ENDBRANCH 43 44
BRANCH 43 50
ATOM     50  C   ASN M   5      32.007  17.507  -9.474  1.00 53.60 LIG 0.24  C 
ATOM     51 O    ASN M   5      31.060  18.248  -9.211  1.00 54.31 LIG-0.27  OA
ATOM     52  N   THR M   6      33.145  17.980  -9.968  0.00 53.23 LIG-0.34  N 
ATOM     53 H    THR M   6      33.851  17.507 -10.107  0.00 53.23 LIG 0.16  HD
BRANCH 52 54
ATOM     54  CA  THR M   6      33.267  19.378 -10.315  0.00 52.61 LIG 0.21  C 
BRANCH 54 55
ATOM     55  C   THR M   6      33.208  19.530 -11.836  0.00 52.44 LIG 0.29  C 
ATOM     56  N   NH2 M   7      33.320  18.424 -12.559  0.00 52.35 LIG-0.11  N 
ATOM     57 O    THR M   6      33.131  20.622 -12.397  0.00 52.24 LIG-0.27  OA
ENDBRANCH 54 55
BRANCH 54 58
ATOM     58  CB  THR M   6      34.594  19.899  -9.676  0.00 52.38 LIG 0.15  C 
ATOM     59  CG2 THR M   6      35.871  19.192 -10.126  0.00 52.30 LIG 0.04  C 
BRANCH 58 60
ATOM     60 OG1  THR M   6      34.622  21.280 -10.011  0.00 52.26 LIG-0.39  OA
ATOM     61 HG1  THR M   6      33.885  21.632  -9.816  0.00 52.26 LIG 0.21  HD
ENDBRANCH 58 60
ENDBRANCH 54 58
ENDBRANCH 52 54
ENDBRANCH 43 50
ENDBRANCH 40 43
ENDBRANCH 1 39
TORSDOF 22
ENDMDL
