MODEL 1
USER: ADFR SOLUTION from run 5
USER: SCORE 22.388690 LL:  -6.494 LR: -18.627 RR:   0.000 FEB: -10.871
USER: RMSD 10.044064
USER: SEED 76896
USER: STATUS 1 or 2 clusters left
USER: GENES 28
USER: genes 0 Translation |==|  0.49820 0.59516 0.49185
USER: genes 1 Rotation |==|  0.40031 0.03161 0.62101 0.57764
USER: genes 2 Torsion [N]-CA--C-[O] |==|  0.49605
USER: genes 3 Torsion [C]-N--CA-[C] |==|  0.85552
USER: genes 4 Torsion [N]-CA--C-[N] |==|  0.90962
USER: genes 5 Torsion [C]-N--CA-[CB] |==|  0.33167
USER: genes 6 Torsion [N]-CA--CB-[CG] |==|  0.64486
USER: genes 7 Torsion [CA]-CB--CG-[ND2] |==|  0.88452
USER: genes 8 Torsion [N]-CA--C-[N] |==|  0.37490
USER: genes 9 Torsion [C]-N--CA-[CB] |==|  0.79765
USER: genes 10 Torsion [N]-CA--CB-[CG2] |==|  0.50060
USER: genes 11 Torsion [CA]-CB--OG1-[HG1] |==|  0.51233
USER: genes 12 Torsion [N]-CA--C-[N] |==|  0.34509
USER: genes 13 Torsion [N]-CA--CB-[CG] |==|  0.88366
USER: genes 14 Torsion [CA]-CB--CG-[CD] |==|  0.67087
USER: genes 15 Torsion [CB]-CG--CD-[OE1] |==|  0.91838
USER: genes 16 Torsion [N]-C--CA-[N] |==|  0.18808
USER: genes 17 Torsion [C]-CA--N-[C] |==|  0.66485
USER: genes 18 Torsion [N]-C--CA-[N] |==|  0.86186
USER: genes 19 Torsion [C]-CA--N-[C] |==|  0.71669
USER: genes 20 Torsion [N]-C--CA-[N] |==|  0.55237
USER: genes 21 Torsion [C]-CA--CB-[CG] |==|  0.56428
USER: genes 22 Torsion [CA]-CB--CG-[CD1] |==|  0.93541
USER: genes 23 Torsion [C]-CA--N-[H3] |==|  0.38651
USER: genes 24 Torsion [C]-CA--CB-[SG] |==|  0.21129
USER: genes 25 Torsion [CA]-CB--SG-[HG] |==|  0.17932
USER: genes 26 Torsion [C]-CA--CB-[CG] |==|  0.76073
USER: genes 27 Torsion [CA]-CB--CG-[ND1] |==|  0.34112
ROOT
ATOM      1  C   HIS P   3      17.134   3.545  16.861  1.00 29.14 LIG 0.24  C 
ATOM      2 O    HIS P   3      18.156   2.845  16.978  1.00 31.23 LIG-0.27  OA
ATOM      3  N   PRO P   4      17.132   4.647  16.091  1.00 24.67 LIG-0.34  N 
ATOM      4  CA  PRO P   4      18.321   5.133  15.428  1.00 22.95 LIG 0.18  C 
ATOM      5  CB  PRO P   4      17.858   6.341  14.627  1.00 20.99 LIG 0.04  C 
ATOM      6  CG  PRO P   4      16.346   6.331  14.659  1.00 22.70 LIG 0.02  C 
ATOM      7  CD  PRO P   4      15.979   5.556  15.873  1.00 21.81 LIG 0.13  C 
ENDROOT
BRANCH 4 8
ATOM      8  C   PRO P   4      19.509   5.496  16.308  1.00 19.64 LIG 0.24  C 
ATOM      9 O    PRO P   4      20.549   5.888  15.774  1.00 20.88 LIG-0.27  OA
ATOM     10  N   GLN P   5      19.365   5.431  17.642  1.00 22.98 LIG-0.35  N 
ATOM     11 H    GLN P   5      18.647   5.156  18.028  1.00 22.98 LIG 0.16  HD
BRANCH 10 12
ATOM     12  CA  GLN P   5      20.419   5.825  18.571  1.00 16.98 LIG 0.18  C 
BRANCH 12 13
ATOM     13  C   GLN P   5      21.761   5.173  18.308  1.00 21.89 LIG 0.24  C 
ATOM     14  N   ASN P   6      21.871   3.939  17.810  1.00 22.75 LIG-0.35  N 
ATOM     15 H    ASN P   6      21.227   3.407  17.606  1.00 22.75 LIG 0.16  HD
ATOM     16 O    GLN P   5      22.780   5.821  18.581  1.00 24.56 LIG-0.27  OA
BRANCH 14 17
ATOM     17  CA  ASN P   6      23.215   3.455  17.597  1.00 29.16 LIG 0.18  C 
BRANCH 17 18
ATOM     18  CB  ASN P   6      23.567   2.194  18.399  1.00 24.89 LIG 0.14  C 
BRANCH 18 19
ATOM     19  CG  ASN P   6      24.849   2.343  19.197  1.00 26.77 LIG 0.22  C 
ATOM     20 OD1  ASN P   6      25.016   1.918  20.355  1.00 24.78 LIG-0.27  OA
ATOM     21  ND2 ASN P   6      25.812   2.956  18.545  1.00 25.10 LIG-0.37  N 
ATOM     22 22HD ASN P   6      25.675   3.242  17.745  1.00 25.10 LIG 0.16  HD
ATOM     23 21HD ASN P   6      26.578   3.071  18.917  1.00 25.10 LIG 0.16  HD
ENDBRANCH 18 19
ENDBRANCH 17 18
BRANCH 17 24
ATOM     24  C   ASN P   6      23.441   3.128  16.174  1.00 33.65 LIG 0.24  C 
ATOM     25 O    ASN P   6      22.582   2.601  15.475  1.00 34.15 LIG-0.27  OA
ATOM     26  N   THR P   7      24.628   3.654  15.886  1.00 46.42 LIG-0.34  N 
ATOM     27 H    THR P   7      25.058   4.094  16.486  1.00 46.42 LIG 0.16  HD
BRANCH 26 28
ATOM     28  CA  THR P   7      25.383   3.613  14.643  1.00 55.98 LIG 0.21  C 
BRANCH 28 29
ATOM     29  CB  THR P   7      25.883   2.117  14.603  1.00 59.10 LIG 0.15  C 
ATOM     30  CG2 THR P   7      26.733   1.795  13.360  1.00 61.71 LIG 0.04  C 
BRANCH 29 31
ATOM     31 OG1  THR P   7      26.584   1.891  15.829  1.00 60.27 LIG-0.39  OA
ATOM     32 HG1  THR P   7      26.919   1.121  15.821  1.00 60.27 LIG 0.21  HD
ENDBRANCH 29 31
ENDBRANCH 28 29
BRANCH 28 33
ATOM     33  C   THR P   7      24.806   4.105  13.309  1.00 57.95 LIG 0.29  C 
ATOM     34  N   NH2 P   8      25.534   5.035  12.702  1.00 58.98 LIG-0.11  N 
ATOM     35 O    THR P   7      23.723   3.738  12.844  1.00 60.38 LIG-0.27  OA
ENDBRANCH 28 33
ENDBRANCH 26 28
ENDBRANCH 17 24
ENDBRANCH 14 17
ENDBRANCH 12 13
BRANCH 12 36
ATOM     36  CB  GLN P   5      19.967   5.535  19.989  1.00 11.38 LIG 0.04  C 
BRANCH 36 37
ATOM     37  CG  GLN P   5      18.507   5.919  20.221  1.00 11.43 LIG 0.10  C 
BRANCH 37 38
ATOM     38  CD  GLN P   5      18.288   6.989  21.280  1.00 11.64 LIG 0.21  C 
ATOM     39  NE2 GLN P   5      17.275   7.830  21.227  1.00  7.77 LIG-0.37  N 
ATOM     40 21HE GLN P   5      16.708   7.779  20.583  1.00  7.77 LIG 0.16  HD
ATOM     41 22HE GLN P   5      17.181   8.429  21.837  1.00  7.77 LIG 0.16  HD
ATOM     42 OE1  GLN P   5      19.080   7.082  22.206  1.00 11.36 LIG-0.27  OA
ENDBRANCH 37 38
ENDBRANCH 36 37
ENDBRANCH 12 36
ENDBRANCH 10 12
ENDBRANCH 4 8
BRANCH 1 43
ATOM     43  CA  HIS P   3      15.826   3.089  17.504  1.00 30.34 LIG 0.18  C 
BRANCH 43 44
ATOM     44  N   HIS P   3      15.168   2.716  16.272  1.00 35.71 LIG-0.35  N 
ATOM     45  C   CYS P   2      14.040   3.223  15.822  0.17 38.31 LIG 0.24  C 
ATOM     46 O    CYS P   2      13.337   3.979  16.501  0.17 38.29 LIG-0.27  OA
ATOM     47 H    HIS P   3      15.596   2.108  15.840  1.00 35.71 LIG 0.16  HD
BRANCH 45 48
ATOM     48  CA  CYS P   2      13.690   2.694  14.431  0.17 40.64 LIG 0.18  C 
BRANCH 48 49
ATOM     49  N   CYS P   2      14.750   2.751  13.413  0.17 43.25 LIG-0.34  N 
ATOM     50  C   PHE P   1      14.825   3.668  12.444  0.36 44.98 LIG 0.25  C 
ATOM     51 O    PHE P   1      13.911   4.457  12.211  0.36 46.44 LIG-0.27  OA
ATOM     52 H    CYS P   2      15.332   2.124  13.500  0.17 43.25 LIG 0.16  HD
BRANCH 50 53
ATOM     53  CA  PHE P   1      15.975   3.732  11.442  0.36 46.68 LIG 0.28  C 
BRANCH 53 54
ATOM     54  CB  PHE P   1      17.235   3.469  12.292  0.36 47.92 LIG 0.08  C 
BRANCH 54 55
ATOM     55  CG  PHE P   1      18.640   3.914  11.892  0.36 47.93 LIG-0.06  A 
ATOM     56  CD1 PHE P   1      19.023   4.169  10.571  0.36 48.98 LIG 0.01  A 
ATOM     57  CE1 PHE P   1      20.330   4.585  10.292  0.36 50.12 LIG 0.00  A 
ATOM     58  CZ  PHE P   1      21.256   4.748  11.322  0.36 48.72 LIG 0.00  A 
ATOM     59  CE2 PHE P   1      20.871   4.496  12.637  0.36 48.48 LIG 0.00  A 
ATOM     60  CD2 PHE P   1      19.568   4.081  12.923  0.36 48.25 LIG 0.01  A 
ENDBRANCH 54 55
ENDBRANCH 53 54
BRANCH 53 61
ATOM     61  N   PHE P   1      15.824   5.096  10.967  0.36 46.83 LIG-0.07  N 
ATOM     62 H3   PHE P   1      16.626   5.472  10.881  0.36 46.83 LIG 0.28  HD
ATOM     63 H1   PHE P   1      15.412   5.092  10.178  0.36 46.83 LIG 0.28  HD
ATOM     64 H2   PHE P   1      15.340   5.562  11.551  0.36 46.83 LIG 0.28  HD
ENDBRANCH 53 61
ENDBRANCH 50 53
ENDBRANCH 48 49
BRANCH 48 65
ATOM     65  CB  CYS P   2      13.099   1.304  14.661  0.17 41.02 LIG 0.10  C 
BRANCH 65 66
ATOM     66 SG   CYS P   2      11.434   1.659  15.272  0.17 41.68 LIG-0.18  SA
ATOM     67 HG   CYS P   2      10.800   2.206  14.413  0.17 41.68 LIG 0.10  HD
ENDBRANCH 65 66
ENDBRANCH 48 65
ENDBRANCH 45 48
ENDBRANCH 43 44
BRANCH 43 68
ATOM     68  CB  HIS P   3      16.180   1.997  18.563  1.00 25.21 LIG 0.10  C 
BRANCH 68 69
ATOM     69  CG  HIS P   3      16.242   0.618  17.829  1.00 21.50 LIG 0.06  A 
ATOM     70 ND1  HIS P   3      17.338  -0.141  17.860  1.00 15.93 LIG-0.24  NA
ATOM     71  CE1 HIS P   3      16.948  -1.298  17.348  1.00 14.31 LIG 0.23  A 
ATOM     72 NE2  HIS P   3      15.665  -1.258  17.022  1.00 14.39 LIG-0.25  NA
ATOM     73  CD2 HIS P   3      15.164  -0.073  17.292  1.00 20.69 LIG 0.14  A 
ENDBRANCH 68 69
ENDBRANCH 43 68
ENDBRANCH 1 43
TORSDOF 26
ENDMDL
MODEL 2
USER: ADFR SOLUTION from run 83
USER: SCORE 21.809883 LL:  -6.360 LR: -18.622 RR:   0.000 FEB: -10.866
USER: RMSD 10.234901
USER: SEED 82
USER: STATUS no improvement in best in 2 clusters for 5 generations
USER: GENES 28
USER: genes 0 Translation |==|  0.49600 0.60798 0.38004
USER: genes 1 Rotation |==|  0.43769 0.03352 0.35571 0.58774
USER: genes 2 Torsion [N]-CA--C-[O] |==|  0.01065
USER: genes 3 Torsion [C]-N--CA-[C] |==|  0.17918
USER: genes 4 Torsion [N]-CA--C-[N] |==|  0.39096
USER: genes 5 Torsion [C]-N--CA-[CB] |==|  0.47840
USER: genes 6 Torsion [N]-CA--CB-[CG] |==|  0.67881
USER: genes 7 Torsion [CA]-CB--CG-[ND2] |==|  0.42607
USER: genes 8 Torsion [N]-CA--C-[N] |==|  0.46155
USER: genes 9 Torsion [C]-N--CA-[CB] |==|  0.66214
USER: genes 10 Torsion [N]-CA--CB-[CG2] |==|  0.60351
USER: genes 11 Torsion [CA]-CB--OG1-[HG1] |==|  0.47176
USER: genes 12 Torsion [N]-CA--C-[N] |==|  0.08873
USER: genes 13 Torsion [N]-CA--CB-[CG] |==|  0.77139
USER: genes 14 Torsion [CA]-CB--CG-[CD] |==|  0.84343
USER: genes 15 Torsion [CB]-CG--CD-[OE1] |==|  0.99598
USER: genes 16 Torsion [N]-C--CA-[N] |==|  0.33554
USER: genes 17 Torsion [C]-CA--N-[C] |==|  0.66158
USER: genes 18 Torsion [N]-C--CA-[N] |==|  0.79516
USER: genes 19 Torsion [C]-CA--N-[C] |==|  0.23328
USER: genes 20 Torsion [N]-C--CA-[N] |==|  0.98273
USER: genes 21 Torsion [C]-CA--CB-[CG] |==|  0.26572
USER: genes 22 Torsion [CA]-CB--CG-[CD1] |==|  0.03499
USER: genes 23 Torsion [C]-CA--N-[H3] |==|  0.75772
USER: genes 24 Torsion [C]-CA--CB-[SG] |==|  0.45917
USER: genes 25 Torsion [CA]-CB--SG-[HG] |==|  0.91763
USER: genes 26 Torsion [C]-CA--CB-[CG] |==|  0.13660
USER: genes 27 Torsion [CA]-CB--CG-[ND1] |==|  0.18224
ROOT
ATOM      1  C   HIS P   3      17.086   3.776  14.345  1.00 29.14 LIG 0.24  C 
ATOM      2 O    HIS P   3      18.110   3.237  13.885  1.00 31.23 LIG-0.27  OA
ATOM      3  N   PRO P   4      17.145   4.973  14.954  1.00 24.67 LIG-0.34  N 
ATOM      4  CA  PRO P   4      18.393   5.663  15.188  1.00 22.95 LIG 0.18  C 
ATOM      5  CB  PRO P   4      17.996   6.984  15.830  1.00 20.99 LIG 0.04  C 
ATOM      6  CG  PRO P   4      16.495   7.104  15.688  1.00 22.70 LIG 0.02  C 
ATOM      7  CD  PRO P   4      15.998   5.711  15.538  1.00 21.81 LIG 0.13  C 
ENDROOT
BRANCH 4 8
ATOM      8  C   PRO P   4      19.437   4.947  16.035  1.00 19.64 LIG 0.24  C 
ATOM      9 O    PRO P   4      19.207   3.799  16.419  1.00 20.88 LIG-0.27  OA
ATOM     10  N   GLN P   5      20.599   5.573  16.286  1.00 22.98 LIG-0.35  N 
ATOM     11 H    GLN P   5      20.770   6.375  16.028  1.00 22.98 LIG 0.16  HD
BRANCH 10 12
ATOM     12  CA  GLN P   5      21.689   4.946  17.027  1.00 16.98 LIG 0.18  C 
BRANCH 12 13
ATOM     13  C   GLN P   5      22.300   3.741  16.342  1.00 21.89 LIG 0.24  C 
ATOM     14  N   ASN P   6      23.614   3.502  16.356  1.00 22.75 LIG-0.35  N 
ATOM     15 H    ASN P   6      24.222   3.985  16.726  1.00 22.75 LIG 0.16  HD
ATOM     16 O    GLN P   5      21.538   2.969  15.746  1.00 24.56 LIG-0.27  OA
BRANCH 14 17
ATOM     17  CA  ASN P   6      24.051   2.305  15.676  1.00 29.16 LIG 0.18  C 
BRANCH 17 18
ATOM     18  CB  ASN P   6      25.576   2.169  15.554  1.00 24.89 LIG 0.14  C 
BRANCH 18 19
ATOM     19  CG  ASN P   6      26.058   2.205  14.116  1.00 26.77 LIG 0.22  C 
ATOM     20 OD1  ASN P   6      25.372   1.882  13.130  1.00 24.78 LIG-0.27  OA
ATOM     21  ND2 ASN P   6      27.293   2.639  13.982  1.00 25.10 LIG-0.37  N 
ATOM     22 22HD ASN P   6      27.750   2.857  14.677  1.00 25.10 LIG 0.16  HD
ATOM     23 21HD ASN P   6      27.642   2.705  13.199  1.00 25.10 LIG 0.16  HD
ENDBRANCH 18 19
ENDBRANCH 17 18
BRANCH 17 24
ATOM     24  C   ASN P   6      23.571   1.094  16.371  1.00 33.65 LIG 0.24  C 
ATOM     25 O    ASN P   6      23.007   1.140  17.459  1.00 34.15 LIG-0.27  OA
ATOM     26  N   THR P   7      23.765   0.102  15.507  1.00 46.42 LIG-0.34  N 
ATOM     27 H    THR P   7      24.084   0.271  14.726  1.00 46.42 LIG 0.16  HD
BRANCH 26 28
ATOM     28  CA  THR P   7      23.514  -1.323  15.660  1.00 55.98 LIG 0.21  C 
BRANCH 28 29
ATOM     29  CB  THR P   7      24.942  -1.943  15.404  1.00 59.10 LIG 0.15  C 
ATOM     30  CG2 THR P   7      24.895  -3.274  14.629  1.00 61.71 LIG 0.04  C 
BRANCH 29 31
ATOM     31 OG1  THR P   7      25.708  -0.939  14.734  1.00 60.27 LIG-0.39  OA
ATOM     32 HG1  THR P   7      26.513  -1.175  14.702  1.00 60.27 LIG 0.21  HD
ENDBRANCH 29 31
ENDBRANCH 28 29
BRANCH 28 33
ATOM     33  C   THR P   7      22.798  -1.909  16.882  1.00 57.95 LIG 0.29  C 
ATOM     34  N   NH2 P   8      21.882  -1.113  17.420  1.00 58.98 LIG-0.11  N 
ATOM     35 O    THR P   7      23.074  -2.999  17.392  1.00 60.38 LIG-0.27  OA
ENDBRANCH 28 33
ENDBRANCH 26 28
ENDBRANCH 17 24
ENDBRANCH 14 17
ENDBRANCH 12 13
BRANCH 12 36
ATOM     36  CB  GLN P   5      21.197   4.568  18.411  1.00 11.38 LIG 0.04  C 
BRANCH 36 37
ATOM     37  CG  GLN P   5      21.231   5.747  19.379  1.00 11.43 LIG 0.10  C 
BRANCH 37 38
ATOM     38  CD  GLN P   5      22.593   6.408  19.534  1.00 11.64 LIG 0.21  C 
ATOM     39  NE2 GLN P   5      22.777   7.462  20.303  1.00  7.77 LIG-0.37  N 
ATOM     40 21HE GLN P   5      22.116   7.793  20.743  1.00  7.77 LIG 0.16  HD
ATOM     41 22HE GLN P   5      23.557   7.818  20.366  1.00  7.77 LIG 0.16  HD
ATOM     42 OE1  GLN P   5      23.548   5.957  18.919  1.00 11.36 LIG-0.27  OA
ENDBRANCH 37 38
ENDBRANCH 36 37
ENDBRANCH 12 36
ENDBRANCH 10 12
ENDBRANCH 4 8
BRANCH 1 43
ATOM     43  CA  HIS P   3      15.722   3.128  14.116  1.00 30.34 LIG 0.18  C 
BRANCH 43 44
ATOM     44  N   HIS P   3      15.827   3.047  12.676  1.00 35.71 LIG-0.35  N 
ATOM     45  C   CYS P   2      14.994   3.590  11.815  0.17 38.31 LIG 0.24  C 
ATOM     46 O    CYS P   2      13.927   4.108  12.163  0.17 38.29 LIG-0.27  OA
ATOM     47 H    HIS P   3      16.512   2.593  12.420  1.00 35.71 LIG 0.16  HD
BRANCH 45 48
ATOM     48  CA  CYS P   2      15.468   3.415  10.372  0.17 40.64 LIG 0.18  C 
BRANCH 48 49
ATOM     49  N   CYS P   2      16.602   4.248   9.940  0.17 43.25 LIG-0.34  N 
ATOM     50  C   PHE P   1      17.888   3.946  10.145  0.36 44.98 LIG 0.25  C 
ATOM     51 O    PHE P   1      18.239   3.017  10.870  0.36 46.44 LIG-0.27  OA
ATOM     52 H    CYS P   2      16.355   4.965   9.534  0.17 43.25 LIG 0.16  HD
BRANCH 50 53
ATOM     53  CA  PHE P   1      19.038   4.805   9.627  0.36 46.68 LIG 0.28  C 
BRANCH 53 54
ATOM     54  CB  PHE P   1      19.696   5.370  10.903  0.36 47.92 LIG 0.08  C 
BRANCH 54 55
ATOM     55  CG  PHE P   1      20.910   4.742  11.584  0.36 47.93 LIG-0.06  A 
ATOM     56  CD1 PHE P   1      21.702   3.752  10.993  0.36 48.98 LIG 0.01  A 
ATOM     57  CE1 PHE P   1      22.806   3.239  11.683  0.36 50.12 LIG 0.00  A 
ATOM     58  CZ  PHE P   1      23.125   3.706  12.958  0.36 48.72 LIG 0.00  A 
ATOM     59  CE2 PHE P   1      22.335   4.694  13.543  0.36 48.48 LIG 0.00  A 
ATOM     60  CD2 PHE P   1      21.233   5.212  12.860  0.36 48.25 LIG 0.01  A 
ENDBRANCH 54 55
ENDBRANCH 53 54
BRANCH 53 61
ATOM     61  N   PHE P   1      18.298   5.771   8.835  0.36 46.83 LIG-0.07  N 
ATOM     62 H3   PHE P   1      18.181   5.453   8.011  0.36 46.83 LIG 0.28  HD
ATOM     63 H1   PHE P   1      17.505   5.918   9.211  0.36 46.83 LIG 0.28  HD
ATOM     64 H2   PHE P   1      18.754   6.534   8.795  0.36 46.83 LIG 0.28  HD
ENDBRANCH 53 61
ENDBRANCH 50 53
ENDBRANCH 48 49
BRANCH 48 65
ATOM     65  CB  CYS P   2      15.673   1.913  10.190  0.17 41.02 LIG 0.10  C 
BRANCH 65 66
ATOM     66 SG   CYS P   2      15.790   1.726   8.395  0.17 41.68 LIG-0.18  SA
ATOM     67 HG   CYS P   2      15.141   2.582   7.860  0.17 41.68 LIG 0.10  HD
ENDBRANCH 65 66
ENDBRANCH 48 65
ENDBRANCH 45 48
ENDBRANCH 43 44
BRANCH 43 68
ATOM     68  CB  HIS P   3      15.673   1.822  14.971  1.00 25.21 LIG 0.10  C 
BRANCH 68 69
ATOM     69  CG  HIS P   3      16.138   2.180  16.421  1.00 21.50 LIG 0.06  A 
ATOM     70 ND1  HIS P   3      15.426   2.995  17.200  1.00 15.93 LIG-0.24  NA
ATOM     71  CE1 HIS P   3      15.985   2.874  18.394  1.00 14.31 LIG 0.23  A 
ATOM     72 NE2  HIS P   3      16.994   2.016  18.356  1.00 14.39 LIG-0.25  NA
ATOM     73  CD2 HIS P   3      17.146   1.549  17.136  1.00 20.69 LIG 0.14  A 
ENDBRANCH 68 69
ENDBRANCH 43 68
ENDBRANCH 1 43
TORSDOF 26
ENDMDL
MODEL 3
USER: ADFR SOLUTION from run 83
USER: SCORE 21.968063 LL:  -7.175 LR: -18.263 RR:   0.000 FEB: -10.508
USER: RMSD 9.577321
USER: SEED 82
USER: STATUS no improvement in best in 2 clusters for 5 generations
USER: GENES 28
USER: genes 0 Translation |==|  0.49343 0.61074 0.37700
USER: genes 1 Rotation |==|  0.44225 0.03965 0.34012 0.59581
USER: genes 2 Torsion [N]-CA--C-[O] |==|  0.96996
USER: genes 3 Torsion [C]-N--CA-[C] |==|  0.13427
USER: genes 4 Torsion [N]-CA--C-[N] |==|  0.56292
USER: genes 5 Torsion [C]-N--CA-[CB] |==|  0.40902
USER: genes 6 Torsion [N]-CA--CB-[CG] |==|  0.57809
USER: genes 7 Torsion [CA]-CB--CG-[ND2] |==|  0.43302
USER: genes 8 Torsion [N]-CA--C-[N] |==|  0.92143
USER: genes 9 Torsion [C]-N--CA-[CB] |==|  0.59927
USER: genes 10 Torsion [N]-CA--CB-[CG2] |==|  0.80277
USER: genes 11 Torsion [CA]-CB--OG1-[HG1] |==|  0.98536
USER: genes 12 Torsion [N]-CA--C-[N] |==|  0.50179
USER: genes 13 Torsion [N]-CA--CB-[CG] |==|  0.70382
USER: genes 14 Torsion [CA]-CB--CG-[CD] |==|  0.39922
USER: genes 15 Torsion [CB]-CG--CD-[OE1] |==|  0.97363
USER: genes 16 Torsion [N]-C--CA-[N] |==|  0.34972
USER: genes 17 Torsion [C]-CA--N-[C] |==|  0.65627
USER: genes 18 Torsion [N]-C--CA-[N] |==|  0.80003
USER: genes 19 Torsion [C]-CA--N-[C] |==|  0.23333
USER: genes 20 Torsion [N]-C--CA-[N] |==|  0.98612
USER: genes 21 Torsion [C]-CA--CB-[CG] |==|  0.26968
USER: genes 22 Torsion [CA]-CB--CG-[CD1] |==|  0.02955
USER: genes 23 Torsion [C]-CA--N-[H3] |==|  0.75767
USER: genes 24 Torsion [C]-CA--CB-[SG] |==|  0.45909
USER: genes 25 Torsion [CA]-CB--SG-[HG] |==|  0.91677
USER: genes 26 Torsion [C]-CA--CB-[CG] |==|  0.13787
USER: genes 27 Torsion [CA]-CB--CG-[ND1] |==|  0.18337
ROOT
ATOM      1  C   HIS P   3      17.030   3.825  14.277  1.00 29.14 LIG 0.24  C 
ATOM      2 O    HIS P   3      18.049   3.335  13.757  1.00 31.23 LIG-0.27  OA
ATOM      3  N   PRO P   4      17.089   4.976  14.970  1.00 24.67 LIG-0.34  N 
ATOM      4  CA  PRO P   4      18.333   5.664  15.227  1.00 22.95 LIG 0.18  C 
ATOM      5  CB  PRO P   4      17.935   6.930  15.972  1.00 20.99 LIG 0.04  C 
ATOM      6  CG  PRO P   4      16.430   7.040  15.870  1.00 22.70 LIG 0.02  C 
ATOM      7  CD  PRO P   4      15.946   5.655  15.630  1.00 21.81 LIG 0.13  C 
ENDROOT
BRANCH 4 8
ATOM      8  C   PRO P   4      19.403   4.902  15.998  1.00 19.64 LIG 0.24  C 
ATOM      9 O    PRO P   4      19.104   3.835  16.537  1.00 20.88 LIG-0.27  OA
ATOM     10  N   GLN P   5      20.654   5.392  16.014  1.00 22.98 LIG-0.35  N 
ATOM     11 H    GLN P   5      20.876   6.137  15.645  1.00 22.98 LIG 0.16  HD
BRANCH 10 12
ATOM     12  CA  GLN P   5      21.764   4.703  16.664  1.00 16.98 LIG 0.18  C 
BRANCH 12 13
ATOM     13  C   GLN P   5      21.881   3.233  16.313  1.00 21.89 LIG 0.24  C 
ATOM     14  N   ASN P   6      22.511   2.359  17.101  1.00 22.75 LIG-0.35  N 
ATOM     15 H    ASN P   6      22.905   2.528  17.847  1.00 22.75 LIG 0.16  HD
ATOM     16 O    GLN P   5      21.376   2.853  15.249  1.00 24.56 LIG-0.27  OA
BRANCH 14 17
ATOM     17  CA  ASN P   6      22.527   0.988  16.647  1.00 29.16 LIG 0.18  C 
BRANCH 17 18
ATOM     18  CB  ASN P   6      23.793   0.210  17.034  1.00 24.89 LIG 0.14  C 
BRANCH 18 19
ATOM     19  CG  ASN P   6      24.124  -0.901  16.055  1.00 26.77 LIG 0.22  C 
ATOM     20 OD1  ASN P   6      23.300  -1.448  15.299  1.00 24.78 LIG-0.27  OA
ATOM     21  ND2 ASN P   6      25.394  -1.241  16.048  1.00 25.10 LIG-0.37  N 
ATOM     22 22HD ASN P   6      25.947  -0.850  16.578  1.00 25.10 LIG 0.16  HD
ATOM     23 21HD ASN P   6      25.673  -1.854  15.512  1.00 25.10 LIG 0.16  HD
ENDBRANCH 18 19
ENDBRANCH 17 18
BRANCH 17 24
ATOM     24  C   ASN P   6      21.382   0.233  17.196  1.00 33.65 LIG 0.24  C 
ATOM     25 O    ASN P   6      20.960  -0.793  16.673  1.00 34.15 LIG-0.27  OA
ATOM     26  N   THR P   7      21.099   0.829  18.350  1.00 46.42 LIG-0.34  N 
ATOM     27 H    THR P   7      21.580   1.489  18.620  1.00 46.42 LIG 0.16  HD
BRANCH 26 28
ATOM     28  CA  THR P   7      20.042   0.541  19.308  1.00 55.98 LIG 0.21  C 
BRANCH 28 29
ATOM     29  CB  THR P   7      19.659   1.980  19.827  1.00 59.10 LIG 0.15  C 
ATOM     30  CG2 THR P   7      20.742   2.609  20.724  1.00 61.71 LIG 0.04  C 
BRANCH 29 31
ATOM     31 OG1  THR P   7      19.372   2.768  18.668  1.00 60.27 LIG-0.39  OA
ATOM     32 HG1  THR P   7      19.539   2.320  17.977  1.00 60.27 LIG 0.21  HD
ENDBRANCH 29 31
ENDBRANCH 28 29
BRANCH 28 33
ATOM     33  C   THR P   7      18.830  -0.332  18.961  1.00 57.95 LIG 0.29  C 
ATOM     34  N   NH2 P   8      17.955  -0.480  19.949  1.00 58.98 LIG-0.11  N 
ATOM     35 O    THR P   7      18.682  -0.920  17.885  1.00 60.38 LIG-0.27  OA
ENDBRANCH 28 33
ENDBRANCH 26 28
ENDBRANCH 17 24
ENDBRANCH 14 17
ENDBRANCH 12 13
BRANCH 12 36
ATOM     36  CB  GLN P   5      21.645   4.874  18.166  1.00 11.38 LIG 0.04  C 
BRANCH 36 37
ATOM     37  CG  GLN P   5      22.679   5.851  18.720  1.00 11.43 LIG 0.10  C 
BRANCH 37 38
ATOM     38  CD  GLN P   5      22.186   6.722  19.866  1.00 11.64 LIG 0.21  C 
ATOM     39  NE2 GLN P   5      23.003   7.472  20.577  1.00  7.77 LIG-0.37  N 
ATOM     40 21HE GLN P   5      23.843   7.485  20.395  1.00  7.77 LIG 0.16  HD
ATOM     41 22HE GLN P   5      22.696   7.949  21.224  1.00  7.77 LIG 0.16  HD
ATOM     42 OE1  GLN P   5      20.997   6.722  20.146  1.00 11.36 LIG-0.27  OA
ENDBRANCH 37 38
ENDBRANCH 36 37
ENDBRANCH 12 36
ENDBRANCH 10 12
ENDBRANCH 4 8
BRANCH 1 43
ATOM     43  CA  HIS P   3      15.669   3.178  14.030  1.00 30.34 LIG 0.18  C 
BRANCH 43 44
ATOM     44  N   HIS P   3      15.798   3.087  12.592  1.00 35.71 LIG-0.35  N 
ATOM     45  C   CYS P   2      14.960   3.595  11.714  0.17 38.31 LIG 0.24  C 
ATOM     46 O    CYS P   2      13.873   4.082  12.042  0.17 38.29 LIG-0.27  OA
ATOM     47 H    HIS P   3      16.500   2.653  12.351  1.00 35.71 LIG 0.16  HD
BRANCH 45 48
ATOM     48  CA  CYS P   2      15.461   3.422  10.280  0.17 40.64 LIG 0.18  C 
BRANCH 48 49
ATOM     49  N   CYS P   2      16.599   4.257   9.869  0.17 43.25 LIG-0.34  N 
ATOM     50  C   PHE P   1      17.882   3.959  10.096  0.36 44.98 LIG 0.25  C 
ATOM     51 O    PHE P   1      18.223   3.031  10.827  0.36 46.44 LIG-0.27  OA
ATOM     52 H    CYS P   2      16.358   4.974   9.458  0.17 43.25 LIG 0.16  HD
BRANCH 50 53
ATOM     53  CA  PHE P   1      19.040   4.821   9.599  0.36 46.68 LIG 0.28  C 
BRANCH 53 54
ATOM     54  CB  PHE P   1      19.693   5.362  10.888  0.36 47.92 LIG 0.08  C 
BRANCH 54 55
ATOM     55  CG  PHE P   1      20.919   4.737  11.548  0.36 47.93 LIG-0.06  A 
ATOM     56  CD1 PHE P   1      21.702   3.747  10.944  0.36 48.98 LIG 0.01  A 
ATOM     57  CE1 PHE P   1      22.818   3.236  11.614  0.36 50.12 LIG 0.00  A 
ATOM     58  CZ  PHE P   1      23.158   3.704  12.884  0.36 48.72 LIG 0.00  A 
ATOM     59  CE2 PHE P   1      22.378   4.691  13.482  0.36 48.48 LIG 0.00  A 
ATOM     60  CD2 PHE P   1      21.263   5.207  12.818  0.36 48.25 LIG 0.01  A 
ENDBRANCH 54 55
ENDBRANCH 53 54
BRANCH 53 61
ATOM     61  N   PHE P   1      18.308   5.804   8.819  0.36 46.83 LIG-0.07  N 
ATOM     62 H3   PHE P   1      18.194   5.500   7.989  0.36 46.83 LIG 0.28  HD
ATOM     63 H1   PHE P   1      17.513   5.948   9.193  0.36 46.83 LIG 0.28  HD
ATOM     64 H2   PHE P   1      18.767   6.566   8.795  0.36 46.83 LIG 0.28  HD
ENDBRANCH 53 61
ENDBRANCH 50 53
ENDBRANCH 48 49
BRANCH 48 65
ATOM     65  CB  CYS P   2      15.673   1.920  10.101  0.17 41.02 LIG 0.10  C 
BRANCH 65 66
ATOM     66 SG   CYS P   2      15.822   1.733   8.309  0.17 41.68 LIG-0.18  SA
ATOM     67 HG   CYS P   2      15.175   2.584   7.762  0.17 41.68 LIG 0.10  HD
ENDBRANCH 65 66
ENDBRANCH 48 65
ENDBRANCH 45 48
ENDBRANCH 43 44
BRANCH 43 68
ATOM     68  CB  HIS P   3      15.604   1.878  14.893  1.00 25.21 LIG 0.10  C 
BRANCH 68 69
ATOM     69  CG  HIS P   3      16.034   2.248  16.350  1.00 21.50 LIG 0.06  A 
ATOM     70 ND1  HIS P   3      15.298   3.060  17.110  1.00 15.93 LIG-0.24  NA
ATOM     71  CE1 HIS P   3      15.833   2.950  18.317  1.00 14.31 LIG 0.23  A 
ATOM     72 NE2  HIS P   3      16.850   2.102  18.304  1.00 14.39 LIG-0.25  NA
ATOM     73  CD2 HIS P   3      17.033   1.630  17.091  1.00 20.69 LIG 0.14  A 
ENDBRANCH 68 69
ENDBRANCH 43 68
ENDBRANCH 1 43
TORSDOF 26
ENDMDL
MODEL 4
USER: ADFR SOLUTION from run 86
USER: SCORE 20.402542 LL:  -6.209 LR: -17.940 RR:   0.000 FEB: -10.184
USER: RMSD 8.710822
USER: SEED 85
USER: STATUS no improvement in best in 3 clusters for 5 generations
USER: GENES 28
USER: genes 0 Translation |==|  0.55762 0.58693 0.49323
USER: genes 1 Rotation |==|  0.91152 0.70311 0.69623 0.52979
USER: genes 2 Torsion [N]-CA--C-[O] |==|  0.96762
USER: genes 3 Torsion [C]-N--CA-[C] |==|  0.18591
USER: genes 4 Torsion [N]-CA--C-[N] |==|  0.78537
USER: genes 5 Torsion [C]-N--CA-[CB] |==|  0.24044
USER: genes 6 Torsion [N]-CA--CB-[CG] |==|  0.58134
USER: genes 7 Torsion [CA]-CB--CG-[ND2] |==|  0.11944
USER: genes 8 Torsion [N]-CA--C-[N] |==|  0.26311
USER: genes 9 Torsion [C]-N--CA-[CB] |==|  0.74654
USER: genes 10 Torsion [N]-CA--CB-[CG2] |==|  0.96929
USER: genes 11 Torsion [CA]-CB--OG1-[HG1] |==|  0.58026
USER: genes 12 Torsion [N]-CA--C-[N] |==|  0.10646
USER: genes 13 Torsion [N]-CA--CB-[CG] |==|  0.64432
USER: genes 14 Torsion [CA]-CB--CG-[CD] |==|  0.93610
USER: genes 15 Torsion [CB]-CG--CD-[OE1] |==|  0.28359
USER: genes 16 Torsion [N]-C--CA-[N] |==|  0.43108
USER: genes 17 Torsion [C]-CA--N-[C] |==|  0.69836
USER: genes 18 Torsion [N]-C--CA-[N] |==|  0.55523
USER: genes 19 Torsion [C]-CA--N-[C] |==|  0.23204
USER: genes 20 Torsion [N]-C--CA-[N] |==|  0.91821
USER: genes 21 Torsion [C]-CA--CB-[CG] |==|  0.10215
USER: genes 22 Torsion [CA]-CB--CG-[CD1] |==|  0.77946
USER: genes 23 Torsion [C]-CA--N-[H3] |==|  0.42938
USER: genes 24 Torsion [C]-CA--CB-[SG] |==|  0.49199
USER: genes 25 Torsion [CA]-CB--SG-[HG] |==|  0.31124
USER: genes 26 Torsion [C]-CA--CB-[CG] |==|  0.30857
USER: genes 27 Torsion [CA]-CB--CG-[ND1] |==|  0.62838
ROOT
ATOM      1  C   HIS P   3      18.426   3.397  16.892  1.00 29.14 LIG 0.24  C 
ATOM      2 O    HIS P   3      17.648   2.713  16.203  1.00 31.23 LIG-0.27  OA
ATOM      3  N   PRO P   4      19.496   2.842  17.488  1.00 24.67 LIG-0.34  N 
ATOM      4  CA  PRO P   4      19.761   1.422  17.442  1.00 22.95 LIG 0.18  C 
ATOM      5  CB  PRO P   4      21.081   1.245  18.176  1.00 20.99 LIG 0.04  C 
ATOM      6  CG  PRO P   4      21.655   2.629  18.382  1.00 22.70 LIG 0.02  C 
ATOM      7  CD  PRO P   4      20.491   3.553  18.329  1.00 21.81 LIG 0.13  C 
ENDROOT
BRANCH 4 8
ATOM      8  C   PRO P   4      18.698   0.496  18.018  1.00 19.64 LIG 0.24  C 
ATOM      9 O    PRO P   4      17.781   0.982  18.682  1.00 20.88 LIG-0.27  OA
ATOM     10  N   GLN P   5      18.765  -0.815  17.731  1.00 22.98 LIG-0.35  N 
ATOM     11 H    GLN P   5      19.401  -1.167  17.272  1.00 22.98 LIG 0.16  HD
BRANCH 10 12
ATOM     12  CA  GLN P   5      17.758  -1.773  18.176  1.00 16.98 LIG 0.18  C 
BRANCH 12 13
ATOM     13  C   GLN P   5      16.393  -1.586  17.545  1.00 21.89 LIG 0.24  C 
ATOM     14  N   ASN P   6      15.551  -0.626  17.933  1.00 22.75 LIG-0.35  N 
ATOM     15 H    ASN P   6      15.681  -0.048  18.556  1.00 22.75 LIG 0.16  HD
ATOM     16 O    GLN P   5      16.063  -2.370  16.645  1.00 24.56 LIG-0.27  OA
BRANCH 14 17
ATOM     17  CA  ASN P   6      14.292  -0.558  17.229  1.00 29.16 LIG 0.18  C 
BRANCH 17 18
ATOM     18  CB  ASN P   6      13.197  -1.468  17.804  1.00 24.89 LIG 0.14  C 
BRANCH 18 19
ATOM     19  CG  ASN P   6      12.206  -1.934  16.753  1.00 26.77 LIG 0.22  C 
ATOM     20 OD1  ASN P   6      10.971  -1.959  16.905  1.00 24.78 LIG-0.27  OA
ATOM     21  ND2 ASN P   6      12.767  -2.303  15.622  1.00 25.10 LIG-0.37  N 
ATOM     22 22HD ASN P   6      13.623  -2.277  15.538  1.00 25.10 LIG 0.16  HD
ATOM     23 21HD ASN P   6      12.279  -2.568  14.966  1.00 25.10 LIG 0.16  HD
ENDBRANCH 18 19
ENDBRANCH 17 18
BRANCH 17 24
ATOM     24  C   ASN P   6      13.750   0.816  17.241  1.00 33.65 LIG 0.24  C 
ATOM     25 O    ASN P   6      13.174   1.288  18.216  1.00 34.15 LIG-0.27  OA
ATOM     26  N   THR P   7      14.163   1.358  16.099  1.00 46.42 LIG-0.34  N 
ATOM     27 H    THR P   7      14.662   0.904  15.566  1.00 46.42 LIG 0.16  HD
BRANCH 26 28
ATOM     28  CA  THR P   7      13.900   2.680  15.553  1.00 55.98 LIG 0.21  C 
BRANCH 28 29
ATOM     29  CB  THR P   7      12.604   2.434  14.688  1.00 59.10 LIG 0.15  C 
ATOM     30  CG2 THR P   7      12.269   0.942  14.510  1.00 61.71 LIG 0.04  C 
BRANCH 29 31
ATOM     31 OG1  THR P   7      11.550   3.167  15.318  1.00 60.27 LIG-0.39  OA
ATOM     32 HG1  THR P   7      10.816   2.787  15.169  1.00 60.27 LIG 0.21  HD
ENDBRANCH 29 31
ENDBRANCH 28 29
BRANCH 28 33
ATOM     33  C   THR P   7      13.827   3.937  16.429  1.00 57.95 LIG 0.29  C 
ATOM     34  N   NH2 P   8      14.710   3.971  17.420  1.00 58.98 LIG-0.11  N 
ATOM     35 O    THR P   7      12.985   4.829  16.294  1.00 60.38 LIG-0.27  OA
ENDBRANCH 28 33
ENDBRANCH 26 28
ENDBRANCH 17 24
ENDBRANCH 14 17
ENDBRANCH 12 13
BRANCH 12 36
ATOM     36  CB  GLN P   5      17.646  -1.712  19.688  1.00 11.38 LIG 0.04  C 
BRANCH 36 37
ATOM     37  CG  GLN P   5      17.775  -3.090  20.332  1.00 11.43 LIG 0.10  C 
BRANCH 37 38
ATOM     38  CD  GLN P   5      17.439  -4.258  19.417  1.00 11.64 LIG 0.21  C 
ATOM     39  NE2 GLN P   5      16.196  -4.602  19.147  1.00  7.77 LIG-0.37  N 
ATOM     40 21HE GLN P   5      15.544  -4.157  19.487  1.00  7.77 LIG 0.16  HD
ATOM     41 22HE GLN P   5      16.037  -5.272  18.632  1.00  7.77 LIG 0.16  HD
ATOM     42 OE1  GLN P   5      18.348  -4.908  18.922  1.00 11.36 LIG-0.27  OA
ENDBRANCH 37 38
ENDBRANCH 36 37
ENDBRANCH 12 36
ENDBRANCH 10 12
ENDBRANCH 4 8
BRANCH 1 43
ATOM     43  CA  HIS P   3      18.236   4.910  16.971  1.00 30.34 LIG 0.18  C 
BRANCH 43 44
ATOM     44  N   HIS P   3      17.438   5.030  15.771  1.00 35.71 LIG-0.35  N 
ATOM     45  C   CYS P   2      17.835   5.564  14.636  0.17 38.31 LIG 0.24  C 
ATOM     46 O    CYS P   2      18.907   6.169  14.529  0.17 38.29 LIG-0.27  OA
ATOM     47 H    HIS P   3      16.646   4.707  15.869  1.00 35.71 LIG 0.16  HD
BRANCH 45 48
ATOM     48  CA  CYS P   2      16.783   5.418  13.536  0.17 40.64 LIG 0.18  C 
BRANCH 48 49
ATOM     49  N   CYS P   2      17.250   5.553  12.149  0.17 43.25 LIG-0.34  N 
ATOM     50  C   PHE P   1      17.798   4.566  11.432  0.36 44.98 LIG 0.25  C 
ATOM     51 O    PHE P   1      18.120   3.490  11.931  0.36 46.44 LIG-0.27  OA
ATOM     52 H    CYS P   2      17.135   6.344  11.831  0.17 43.25 LIG 0.16  HD
BRANCH 50 53
ATOM     53  CA  PHE P   1      18.215   4.728   9.972  0.36 46.68 LIG 0.28  C 
BRANCH 53 54
ATOM     54  CB  PHE P   1      19.678   5.209  10.044  0.36 47.92 LIG 0.08  C 
BRANCH 54 55
ATOM     55  CG  PHE P   1      20.684   4.723  11.086  0.36 47.93 LIG-0.06  A 
ATOM     56  CD1 PHE P   1      20.728   5.202  12.400  0.36 48.98 LIG 0.01  A 
ATOM     57  CE1 PHE P   1      21.675   4.693  13.295  0.36 50.12 LIG 0.00  A 
ATOM     58  CZ  PHE P   1      22.578   3.711  12.888  0.36 48.72 LIG 0.00  A 
ATOM     59  CE2 PHE P   1      22.530   3.234  11.580  0.36 48.48 LIG 0.00  A 
ATOM     60  CD2 PHE P   1      21.587   3.737  10.681  0.36 48.25 LIG 0.01  A 
ENDBRANCH 54 55
ENDBRANCH 53 54
BRANCH 53 61
ATOM     61  N   PHE P   1      17.256   5.732   9.544  0.36 46.83 LIG-0.07  N 
ATOM     62 H3   PHE P   1      17.588   6.186   8.854  0.36 46.83 LIG 0.28  HD
ATOM     63 H1   PHE P   1      16.498   5.333   9.298  0.36 46.83 LIG 0.28  HD
ATOM     64 H2   PHE P   1      17.091   6.292  10.216  0.36 46.83 LIG 0.28  HD
ENDBRANCH 53 61
ENDBRANCH 50 53
ENDBRANCH 48 49
BRANCH 48 65
ATOM     65  CB  CYS P   2      16.055   4.110  13.842  0.17 41.02 LIG 0.10  C 
BRANCH 65 66
ATOM     66 SG   CYS P   2      14.776   4.041  12.565  0.17 41.68 LIG-0.18  SA
ATOM     67 HG   CYS P   2      15.014   3.142  11.807  0.17 41.68 LIG 0.10  HD
ENDBRANCH 65 66
ENDBRANCH 48 65
ENDBRANCH 45 48
ENDBRANCH 43 44
BRANCH 43 68
ATOM     68  CB  HIS P   3      17.608   5.232  18.364  1.00 25.21 LIG 0.10  C 
BRANCH 68 69
ATOM     69  CG  HIS P   3      18.684   5.983  19.213  1.00 21.50 LIG 0.06  A 
ATOM     70 ND1  HIS P   3      18.931   5.650  20.481  1.00 15.93 LIG-0.24  NA
ATOM     71  CE1 HIS P   3      20.031   6.321  20.786  1.00 14.31 LIG 0.23  A 
ATOM     72 NE2  HIS P   3      20.450   7.031  19.750  1.00 14.39 LIG-0.25  NA
ATOM     73  CD2 HIS P   3      19.638   6.868  18.729  1.00 20.69 LIG 0.14  A 
ENDBRANCH 68 69
ENDBRANCH 43 68
ENDBRANCH 1 43
TORSDOF 26
ENDMDL
MODEL 5
USER: ADFR SOLUTION from run 93
USER: SCORE 21.167125 LL:  -5.949 LR: -17.818 RR:   0.000 FEB: -10.062
USER: RMSD 10.087700
USER: SEED 92
USER: STATUS no improvement in best in 1 clusters for 5 generations
USER: GENES 28
USER: genes 0 Translation |==|  0.52255 0.62142 0.47283
USER: genes 1 Rotation |==|  0.30672 0.07330 0.65491 0.58108
USER: genes 2 Torsion [N]-CA--C-[O] |==|  0.50771
USER: genes 3 Torsion [C]-N--CA-[C] |==|  0.85939
USER: genes 4 Torsion [N]-CA--C-[N] |==|  0.94080
USER: genes 5 Torsion [C]-N--CA-[CB] |==|  0.43704
USER: genes 6 Torsion [N]-CA--CB-[CG] |==|  0.93496
USER: genes 7 Torsion [CA]-CB--CG-[ND2] |==|  0.85201
USER: genes 8 Torsion [N]-CA--C-[N] |==|  0.82403
USER: genes 9 Torsion [C]-N--CA-[CB] |==|  0.79458
USER: genes 10 Torsion [N]-CA--CB-[CG2] |==|  0.23565
USER: genes 11 Torsion [CA]-CB--OG1-[HG1] |==|  0.65875
USER: genes 12 Torsion [N]-CA--C-[N] |==|  0.92834
USER: genes 13 Torsion [N]-CA--CB-[CG] |==|  0.68036
USER: genes 14 Torsion [CA]-CB--CG-[CD] |==|  0.71334
USER: genes 15 Torsion [CB]-CG--CD-[OE1] |==|  0.82868
USER: genes 16 Torsion [N]-C--CA-[N] |==|  0.16660
USER: genes 17 Torsion [C]-CA--N-[C] |==|  0.18333
USER: genes 18 Torsion [N]-C--CA-[N] |==|  0.36157
USER: genes 19 Torsion [C]-CA--N-[C] |==|  0.71367
USER: genes 20 Torsion [N]-C--CA-[N] |==|  0.44176
USER: genes 21 Torsion [C]-CA--CB-[CG] |==|  0.75936
USER: genes 22 Torsion [CA]-CB--CG-[CD1] |==|  0.39989
USER: genes 23 Torsion [C]-CA--N-[H3] |==|  0.78552
USER: genes 24 Torsion [C]-CA--CB-[SG] |==|  0.26505
USER: genes 25 Torsion [CA]-CB--SG-[HG] |==|  0.46638
USER: genes 26 Torsion [C]-CA--CB-[CG] |==|  0.55826
USER: genes 27 Torsion [CA]-CB--CG-[ND1] |==|  0.38459
ROOT
ATOM      1  C   HIS P   3      17.663   4.017  16.433  1.00 29.14 LIG 0.24  C 
ATOM      2 O    HIS P   3      18.366   3.045  16.763  1.00 31.23 LIG-0.27  OA
ATOM      3  N   PRO P   4      18.046   4.849  15.447  1.00 24.67 LIG-0.34  N 
ATOM      4  CA  PRO P   4      19.319   4.720  14.775  1.00 22.95 LIG 0.18  C 
ATOM      5  CB  PRO P   4      19.309   5.804  13.707  1.00 20.99 LIG 0.04  C 
ATOM      6  CG  PRO P   4      17.896   6.339  13.641  1.00 22.70 LIG 0.02  C 
ATOM      7  CD  PRO P   4      17.295   6.035  14.967  1.00 21.81 LIG 0.13  C 
ENDROOT
BRANCH 4 8
ATOM      8  C   PRO P   4      20.573   4.824  15.633  1.00 19.64 LIG 0.24  C 
ATOM      9 O    PRO P   4      21.676   4.770  15.085  1.00 20.88 LIG-0.27  OA
ATOM     10  N   GLN P   5      20.433   5.028  16.953  1.00 22.98 LIG-0.35  N 
ATOM     11 H    GLN P   5      19.670   5.063  17.349  1.00 22.98 LIG 0.16  HD
BRANCH 10 12
ATOM     12  CA  GLN P   5      21.570   5.210  17.849  1.00 16.98 LIG 0.18  C 
BRANCH 12 13
ATOM     13  C   GLN P   5      22.644   4.148  17.723  1.00 21.89 LIG 0.24  C 
ATOM     14  N   ASN P   6      22.400   2.943  17.202  1.00 22.75 LIG-0.35  N 
ATOM     15 H    ASN P   6      21.646   2.654  16.907  1.00 22.75 LIG 0.16  HD
ATOM     16 O    GLN P   5      23.778   4.425  18.135  1.00 24.56 LIG-0.27  OA
BRANCH 14 17
ATOM     17  CA  ASN P   6      23.524   2.040  17.131  1.00 29.16 LIG 0.18  C 
BRANCH 17 18
ATOM     18  CB  ASN P   6      23.137   0.556  17.060  1.00 24.89 LIG 0.14  C 
BRANCH 18 19
ATOM     19  CG  ASN P   6      21.759   0.278  17.630  1.00 26.77 LIG 0.22  C 
ATOM     20 OD1  ASN P   6      20.858  -0.342  17.036  1.00 24.78 LIG-0.27  OA
ATOM     21  ND2 ASN P   6      21.587   0.737  18.851  1.00 25.10 LIG-0.37  N 
ATOM     22 22HD ASN P   6      22.223   1.163  19.243  1.00 25.10 LIG 0.16  HD
ATOM     23 21HD ASN P   6      20.840   0.612  19.256  1.00 25.10 LIG 0.16  HD
ENDBRANCH 18 19
ENDBRANCH 17 18
BRANCH 17 24
ATOM     24  C   ASN P   6      24.355   2.318  15.942  1.00 33.65 LIG 0.24  C 
ATOM     25 O    ASN P   6      25.551   2.579  16.022  1.00 34.15 LIG-0.27  OA
ATOM     26  N   THR P   7      23.561   2.075  14.903  1.00 46.42 LIG-0.34  N 
ATOM     27 H    THR P   7      22.760   1.790  15.034  1.00 46.42 LIG 0.16  HD
BRANCH 26 28
ATOM     28  CA  THR P   7      23.827   2.215  13.480  1.00 55.98 LIG 0.21  C 
BRANCH 28 29
ATOM     29  CB  THR P   7      23.794   3.780  13.285  1.00 59.10 LIG 0.15  C 
ATOM     30  CG2 THR P   7      25.140   4.459  13.600  1.00 61.71 LIG 0.04  C 
BRANCH 29 31
ATOM     31 OG1  THR P   7      23.355   4.014  11.945  1.00 60.27 LIG-0.39  OA
ATOM     32 HG1  THR P   7      23.931   4.471  11.537  1.00 60.27 LIG 0.21  HD
ENDBRANCH 29 31
ENDBRANCH 28 29
BRANCH 28 33
ATOM     33  C   THR P   7      25.016   1.534  12.791  1.00 57.95 LIG 0.29  C 
ATOM     34  N   NH2 P   8      26.045   1.278  13.590  1.00 58.98 LIG-0.11  N 
ATOM     35 O    THR P   7      25.073   1.293  11.582  1.00 60.38 LIG-0.27  OA
ENDBRANCH 28 33
ENDBRANCH 26 28
ENDBRANCH 17 24
ENDBRANCH 14 17
ENDBRANCH 12 13
BRANCH 12 36
ATOM     36  CB  GLN P   5      21.071   5.282  19.279  1.00 11.38 LIG 0.04  C 
BRANCH 36 37
ATOM     37  CG  GLN P   5      21.323   6.648  19.912  1.00 11.43 LIG 0.10  C 
BRANCH 37 38
ATOM     38  CD  GLN P   5      22.492   6.697  20.884  1.00 11.64 LIG 0.21  C 
ATOM     39  NE2 GLN P   5      23.547   7.457  20.673  1.00  7.77 LIG-0.37  N 
ATOM     40 21HE GLN P   5      23.587   7.951  19.970  1.00  7.77 LIG 0.16  HD
ATOM     41 22HE GLN P   5      24.196   7.459  21.237  1.00  7.77 LIG 0.16  HD
ATOM     42 OE1  GLN P   5      22.460   6.004  21.890  1.00 11.36 LIG-0.27  OA
ENDBRANCH 37 38
ENDBRANCH 36 37
ENDBRANCH 12 36
ENDBRANCH 10 12
ENDBRANCH 4 8
BRANCH 1 43
ATOM     43  CA  HIS P   3      16.290   4.210  17.072  1.00 30.34 LIG 0.18  C 
BRANCH 43 44
ATOM     44  N   HIS P   3      15.525   4.020  15.860  1.00 35.71 LIG-0.35  N 
ATOM     45  C   CYS P   2      15.438   2.899  15.176  0.17 38.31 LIG 0.24  C 
ATOM     46 O    CYS P   2      16.142   1.915  15.427  0.17 38.29 LIG-0.27  OA
ATOM     47 H    HIS P   3      15.115   4.735  15.613  1.00 35.71 LIG 0.16  HD
BRANCH 45 48
ATOM     48  CA  CYS P   2      14.449   3.013  14.016  0.17 40.64 LIG 0.18  C 
BRANCH 48 49
ATOM     49  N   CYS P   2      14.920   2.569  12.696  0.17 43.25 LIG-0.34  N 
ATOM     50  C   PHE P   1      15.298   3.387  11.708  0.36 44.98 LIG 0.25  C 
ATOM     51 O    PHE P   1      15.123   4.603  11.758  0.36 46.44 LIG-0.27  OA
ATOM     52 H    CYS P   2      14.931   1.712  12.614  0.17 43.25 LIG 0.16  HD
BRANCH 50 53
ATOM     53  CA  PHE P   1      15.840   2.887  10.372  0.36 46.68 LIG 0.28  C 
BRANCH 53 54
ATOM     54  CB  PHE P   1      17.325   2.582  10.654  0.36 47.92 LIG 0.08  C 
BRANCH 54 55
ATOM     55  CG  PHE P   1      18.441   3.620  10.560  0.36 47.93 LIG-0.06  A 
ATOM     56  CD1 PHE P   1      19.544   3.650  11.420  0.36 48.98 LIG 0.01  A 
ATOM     57  CE1 PHE P   1      20.528   4.631  11.257  0.36 50.12 LIG 0.00  A 
ATOM     58  CZ  PHE P   1      20.419   5.582  10.243  0.36 48.72 LIG 0.00  A 
ATOM     59  CE2 PHE P   1      19.321   5.548   9.386  0.36 48.48 LIG 0.00  A 
ATOM     60  CD2 PHE P   1      18.335   4.572   9.543  0.36 48.25 LIG 0.01  A 
ENDBRANCH 54 55
ENDBRANCH 53 54
BRANCH 53 61
ATOM     61  N   PHE P   1      15.596   4.056   9.545  0.36 46.83 LIG-0.07  N 
ATOM     62 H3   PHE P   1      14.733   4.093   9.330  0.36 46.83 LIG 0.28  HD
ATOM     63 H1   PHE P   1      15.821   4.790   9.995  0.36 46.83 LIG 0.28  HD
ATOM     64 H2   PHE P   1      16.084   4.001   8.803  0.36 46.83 LIG 0.28  HD
ENDBRANCH 53 61
ENDBRANCH 50 53
ENDBRANCH 48 49
BRANCH 48 65
ATOM     65  CB  CYS P   2      13.172   2.329  14.502  0.17 41.02 LIG 0.10  C 
BRANCH 65 66
ATOM     66 SG   CYS P   2      12.179   3.705  15.127  0.17 41.68 LIG-0.18  SA
ATOM     67 HG   CYS P   2      11.055   3.332  15.322  0.17 41.68 LIG 0.10  HD
ENDBRANCH 65 66
ENDBRANCH 48 65
ENDBRANCH 45 48
ENDBRANCH 43 44
BRANCH 43 68
ATOM     68  CB  HIS P   3      16.169   3.184  18.243  1.00 25.21 LIG 0.10  C 
BRANCH 68 69
ATOM     69  CG  HIS P   3      14.649   2.982  18.548  1.00 21.50 LIG 0.06  A 
ATOM     70 ND1  HIS P   3      14.143   1.775  18.803  1.00 15.93 LIG-0.24  NA
ATOM     71  CE1 HIS P   3      12.916   2.021  19.237  1.00 14.31 LIG 0.23  A 
ATOM     72 NE2  HIS P   3      12.678   3.324  19.257  1.00 14.39 LIG-0.25  NA
ATOM     73  CD2 HIS P   3      13.730   3.984  18.826  1.00 20.69 LIG 0.14  A 
ENDBRANCH 68 69
ENDBRANCH 43 68
ENDBRANCH 1 43
TORSDOF 26
ENDMDL
MODEL 6
USER: ADFR SOLUTION from run 190
USER: SCORE 21.644711 LL:  -6.807 LR: -17.723 RR:   0.000 FEB:  -9.967
USER: RMSD 9.340904
USER: SEED 189
USER: STATUS no improvement in best in 3 clusters for 5 generations
USER: GENES 28
USER: genes 0 Translation |==|  0.46872 0.59518 0.36320
USER: genes 1 Rotation |==|  0.69052 0.93569 0.65348 0.51780
USER: genes 2 Torsion [N]-CA--C-[O] |==|  0.44932
USER: genes 3 Torsion [C]-N--CA-[C] |==|  0.61667
USER: genes 4 Torsion [N]-CA--C-[N] |==|  0.07404
USER: genes 5 Torsion [C]-N--CA-[CB] |==|  0.46738
USER: genes 6 Torsion [N]-CA--CB-[CG] |==|  0.60510
USER: genes 7 Torsion [CA]-CB--CG-[ND2] |==|  0.70611
USER: genes 8 Torsion [N]-CA--C-[N] |==|  0.34568
USER: genes 9 Torsion [C]-N--CA-[CB] |==|  0.74423
USER: genes 10 Torsion [N]-CA--CB-[CG2] |==|  0.74690
USER: genes 11 Torsion [CA]-CB--OG1-[HG1] |==|  0.22397
USER: genes 12 Torsion [N]-CA--C-[N] |==|  0.43316
USER: genes 13 Torsion [N]-CA--CB-[CG] |==|  0.05918
USER: genes 14 Torsion [CA]-CB--CG-[CD] |==|  0.65602
USER: genes 15 Torsion [CB]-CG--CD-[OE1] |==|  0.10366
USER: genes 16 Torsion [N]-C--CA-[N] |==|  0.30821
USER: genes 17 Torsion [C]-CA--N-[C] |==|  0.22194
USER: genes 18 Torsion [N]-C--CA-[N] |==|  0.13423
USER: genes 19 Torsion [C]-CA--N-[C] |==|  0.15378
USER: genes 20 Torsion [N]-C--CA-[N] |==|  0.02494
USER: genes 21 Torsion [C]-CA--CB-[CG] |==|  0.23202
USER: genes 22 Torsion [CA]-CB--CG-[CD1] |==|  0.06104
USER: genes 23 Torsion [C]-CA--N-[H3] |==|  0.36747
USER: genes 24 Torsion [C]-CA--CB-[SG] |==|  0.46128
USER: genes 25 Torsion [CA]-CB--SG-[HG] |==|  0.89315
USER: genes 26 Torsion [C]-CA--CB-[CG] |==|  0.22840
USER: genes 27 Torsion [CA]-CB--CG-[ND1] |==|  0.76965
ROOT
ATOM      1  C   HIS P   3      16.493   3.545  13.966  1.00 29.14 LIG 0.24  C 
ATOM      2 O    HIS P   3      17.060   2.456  13.762  1.00 31.23 LIG-0.27  OA
ATOM      3  N   PRO P   4      17.133   4.559  14.575  1.00 24.67 LIG-0.34  N 
ATOM      4  CA  PRO P   4      18.472   4.425  15.102  1.00 22.95 LIG 0.18  C 
ATOM      5  CB  PRO P   4      18.824   5.806  15.634  1.00 20.99 LIG 0.04  C 
ATOM      6  CG  PRO P   4      17.752   6.751  15.138  1.00 22.70 LIG 0.02  C 
ATOM      7  CD  PRO P   4      16.564   5.897  14.870  1.00 21.81 LIG 0.13  C 
ENDROOT
BRANCH 4 8
ATOM      8  C   PRO P   4      18.697   3.364  16.171  1.00 19.64 LIG 0.24  C 
ATOM      9 O    PRO P   4      19.847   2.983  16.399  1.00 20.88 LIG-0.27  OA
ATOM     10  N   GLN P   5      17.639   2.922  16.870  1.00 22.98 LIG-0.35  N 
ATOM     11 H    GLN P   5      16.832   3.177  16.719  1.00 22.98 LIG 0.16  HD
BRANCH 10 12
ATOM     12  CA  GLN P   5      17.759   1.961  17.961  1.00 16.98 LIG 0.18  C 
BRANCH 12 13
ATOM     13  C   GLN P   5      16.689   0.888  17.972  1.00 21.89 LIG 0.24  C 
ATOM     14  N   ASN P   6      16.062   0.493  16.861  1.00 22.75 LIG-0.35  N 
ATOM     15 H    ASN P   6      16.184   0.796  16.066  1.00 22.75 LIG 0.16  HD
ATOM     16 O    GLN P   5      16.394   0.380  19.062  1.00 24.56 LIG-0.27  OA
BRANCH 14 17
ATOM     17  CA  ASN P   6      15.077  -0.550  17.022  1.00 29.16 LIG 0.18  C 
BRANCH 17 18
ATOM     18  CB  ASN P   6      14.187  -0.774  15.791  1.00 24.89 LIG 0.14  C 
BRANCH 18 19
ATOM     19  CG  ASN P   6      12.748  -1.088  16.153  1.00 26.77 LIG 0.22  C 
ATOM     20 OD1  ASN P   6      11.919  -0.251  16.555  1.00 24.78 LIG-0.27  OA
ATOM     21  ND2 ASN P   6      12.422  -2.351  15.985  1.00 25.10 LIG-0.37  N 
ATOM     22 22HD ASN P   6      13.010  -2.913  15.706  1.00 25.10 LIG 0.16  HD
ATOM     23 21HD ASN P   6      11.621  -2.615  16.153  1.00 25.10 LIG 0.16  HD
ENDBRANCH 18 19
ENDBRANCH 17 18
BRANCH 17 24
ATOM     24  C   ASN P   6      15.721  -1.846  17.320  1.00 33.65 LIG 0.24  C 
ATOM     25 O    ASN P   6      16.657  -2.283  16.659  1.00 34.15 LIG-0.27  OA
ATOM     26  N   THR P   7      15.162  -2.253  18.456  1.00 46.42 LIG-0.34  N 
ATOM     27 H    THR P   7      14.581  -1.757  18.849  1.00 46.42 LIG 0.16  HD
BRANCH 26 28
ATOM     28  CA  THR P   7      15.377  -3.481  19.206  1.00 55.98 LIG 0.21  C 
BRANCH 28 29
ATOM     29  CB  THR P   7      14.264  -4.432  18.619  1.00 59.10 LIG 0.15  C 
ATOM     30  CG2 THR P   7      12.939  -4.370  19.401  1.00 61.71 LIG 0.04  C 
BRANCH 29 31
ATOM     31 OG1  THR P   7      14.112  -4.077  17.242  1.00 60.27 LIG-0.39  OA
ATOM     32 HG1  THR P   7      14.721  -4.438  16.790  1.00 60.27 LIG 0.21  HD
ENDBRANCH 29 31
ENDBRANCH 28 29
BRANCH 28 33
ATOM     33  C   THR P   7      16.754  -4.146  19.327  1.00 57.95 LIG 0.29  C 
ATOM     34  N   NH2 P   8      16.902  -4.920  20.395  1.00 58.98 LIG-0.11  N 
ATOM     35 O    THR P   7      17.692  -3.945  18.550  1.00 60.38 LIG-0.27  OA
ENDBRANCH 28 33
ENDBRANCH 26 28
ENDBRANCH 17 24
ENDBRANCH 14 17
ENDBRANCH 12 13
BRANCH 12 36
ATOM     36  CB  GLN P   5      17.765   2.705  19.283  1.00 11.38 LIG 0.04  C 
BRANCH 36 37
ATOM     37  CG  GLN P   5      17.144   4.095  19.167  1.00 11.43 LIG 0.10  C 
BRANCH 37 38
ATOM     38  CD  GLN P   5      18.044   5.238  19.613  1.00 11.64 LIG 0.21  C 
ATOM     39  NE2 GLN P   5      17.573   6.294  20.244  1.00  7.77 LIG-0.37  N 
ATOM     40 21HE GLN P   5      16.734   6.350  20.421  1.00  7.77 LIG 0.16  HD
ATOM     41 22HE GLN P   5      18.106   6.928  20.478  1.00  7.77 LIG 0.16  HD
ATOM     42 OE1  GLN P   5      19.241   5.182  19.372  1.00 11.36 LIG-0.27  OA
ENDBRANCH 37 38
ENDBRANCH 36 37
ENDBRANCH 12 36
ENDBRANCH 10 12
ENDBRANCH 4 8
BRANCH 1 43
ATOM     43  CA  HIS P   3      15.088   3.781  13.417  1.00 30.34 LIG 0.18  C 
BRANCH 43 44
ATOM     44  N   HIS P   3      15.449   3.695  12.020  1.00 35.71 LIG-0.35  N 
ATOM     45  C   CYS P   2      15.639   2.581  11.344  0.17 38.31 LIG 0.24  C 
ATOM     46 O    CYS P   2      15.675   1.474  11.891  0.17 38.29 LIG-0.27  OA
ATOM     47 H    HIS P   3      15.534   4.468  11.653  1.00 35.71 LIG 0.16  HD
BRANCH 45 48
ATOM     48  CA  CYS P   2      15.889   2.849   9.860  0.17 40.64 LIG 0.18  C 
BRANCH 48 49
ATOM     49  N   CYS P   2      16.883   3.882   9.530  0.17 43.25 LIG-0.34  N 
ATOM     50  C   PHE P   1      18.147   3.887   9.965  0.36 44.98 LIG 0.25  C 
ATOM     51 O    PHE P   1      18.550   3.110  10.827  0.36 46.44 LIG-0.27  OA
ATOM     52 H    CYS P   2      16.569   4.498   9.018  0.17 43.25 LIG 0.16  HD
BRANCH 50 53
ATOM     53  CA  PHE P   1      19.167   4.944   9.550  0.36 46.68 LIG 0.28  C 
BRANCH 53 54
ATOM     54  CB  PHE P   1      19.748   5.457  10.883  0.36 47.92 LIG 0.08  C 
BRANCH 54 55
ATOM     55  CG  PHE P   1      20.879   4.767  11.641  0.36 47.93 LIG-0.06  A 
ATOM     56  CD1 PHE P   1      21.792   3.894  11.040  0.36 48.98 LIG 0.01  A 
ATOM     57  CE1 PHE P   1      22.808   3.312  11.806  0.36 50.12 LIG 0.00  A 
ATOM     58  CZ  PHE P   1      22.919   3.594  13.167  0.36 48.72 LIG 0.00  A 
ATOM     59  CE2 PHE P   1      22.009   4.466  13.762  0.36 48.48 LIG 0.00  A 
ATOM     60  CD2 PHE P   1      20.994   5.051  13.004  0.36 48.25 LIG 0.01  A 
ENDBRANCH 54 55
ENDBRANCH 53 54
BRANCH 53 61
ATOM     61  N   PHE P   1      18.297   5.878   8.855  0.36 46.83 LIG-0.07  N 
ATOM     62 H3   PHE P   1      18.464   6.706   9.137  0.36 46.83 LIG 0.28  HD
ATOM     63 H1   PHE P   1      18.447   5.827   7.979  0.36 46.83 LIG 0.28  HD
ATOM     64 H2   PHE P   1      17.448   5.673   9.023  0.36 46.83 LIG 0.28  HD
ENDBRANCH 53 61
ENDBRANCH 50 53
ENDBRANCH 48 49
BRANCH 48 65
ATOM     65  CB  CYS P   2      16.160   1.479   9.240  0.17 41.02 LIG 0.10  C 
BRANCH 65 66
ATOM     66 SG   CYS P   2      16.026   1.796   7.464  0.17 41.68 LIG-0.18  SA
ATOM     67 HG   CYS P   2      15.132   2.570   7.262  0.17 41.68 LIG 0.10  HD
ENDBRANCH 65 66
ENDBRANCH 48 65
ENDBRANCH 45 48
ENDBRANCH 43 44
BRANCH 43 68
ATOM     68  CB  HIS P   3      14.149   2.705  14.050  1.00 25.21 LIG 0.10  C 
BRANCH 68 69
ATOM     69  CG  HIS P   3      13.731   3.208  15.470  1.00 21.50 LIG 0.06  A 
ATOM     70 ND1  HIS P   3      14.517   3.031  16.533  1.00 15.93 LIG-0.24  NA
ATOM     71  CE1 HIS P   3      13.960   3.775  17.477  1.00 14.31 LIG 0.23  A 
ATOM     72 NE2  HIS P   3      12.883   4.391  17.015  1.00 14.39 LIG-0.25  NA
ATOM     73  CD2 HIS P   3      12.679   4.068  15.757  1.00 20.69 LIG 0.14  A 
ENDBRANCH 68 69
ENDBRANCH 43 68
ENDBRANCH 1 43
TORSDOF 26
ENDMDL
MODEL 7
USER: ADFR SOLUTION from run 108
USER: SCORE 21.940340 LL:  -5.661 LR: -17.578 RR:   0.000 FEB:  -9.822
USER: RMSD 8.950582
USER: SEED 107
USER: STATUS 1 or 2 clusters left
USER: GENES 28
USER: genes 0 Translation |==|  0.48231 0.59958 0.52618
USER: genes 1 Rotation |==|  0.55445 0.98697 0.40218 0.51817
USER: genes 2 Torsion [N]-CA--C-[O] |==|  0.73866
USER: genes 3 Torsion [C]-N--CA-[C] |==|  0.16764
USER: genes 4 Torsion [N]-CA--C-[N] |==|  0.09825
USER: genes 5 Torsion [C]-N--CA-[CB] |==|  0.19929
USER: genes 6 Torsion [N]-CA--CB-[CG] |==|  0.46452
USER: genes 7 Torsion [CA]-CB--CG-[ND2] |==|  0.69434
USER: genes 8 Torsion [N]-CA--C-[N] |==|  0.88333
USER: genes 9 Torsion [C]-N--CA-[CB] |==|  0.84174
USER: genes 10 Torsion [N]-CA--CB-[CG2] |==|  0.49736
USER: genes 11 Torsion [CA]-CB--OG1-[HG1] |==|  0.23737
USER: genes 12 Torsion [N]-CA--C-[N] |==|  0.90028
USER: genes 13 Torsion [N]-CA--CB-[CG] |==|  0.65701
USER: genes 14 Torsion [CA]-CB--CG-[CD] |==|  0.78580
USER: genes 15 Torsion [CB]-CG--CD-[OE1] |==|  0.12042
USER: genes 16 Torsion [N]-C--CA-[N] |==|  0.11183
USER: genes 17 Torsion [C]-CA--N-[C] |==|  0.19426
USER: genes 18 Torsion [N]-C--CA-[N] |==|  0.44418
USER: genes 19 Torsion [C]-CA--N-[C] |==|  0.62511
USER: genes 20 Torsion [N]-C--CA-[N] |==|  0.33839
USER: genes 21 Torsion [C]-CA--CB-[CG] |==|  0.22106
USER: genes 22 Torsion [CA]-CB--CG-[CD1] |==|  0.78850
USER: genes 23 Torsion [C]-CA--N-[H3] |==|  0.89413
USER: genes 24 Torsion [C]-CA--CB-[SG] |==|  0.27750
USER: genes 25 Torsion [CA]-CB--SG-[HG] |==|  0.44029
USER: genes 26 Torsion [C]-CA--CB-[CG] |==|  0.61573
USER: genes 27 Torsion [CA]-CB--CG-[ND1] |==|  0.38230
ROOT
ATOM      1  C   HIS P   3      16.788   3.624  17.633  1.00 29.14 LIG 0.24  C 
ATOM      2 O    HIS P   3      17.862   3.190  18.088  1.00 31.23 LIG-0.27  OA
ATOM      3  N   PRO P   4      16.747   4.764  16.920  1.00 24.67 LIG-0.34  N 
ATOM      4  CA  PRO P   4      17.913   5.592  16.713  1.00 22.95 LIG 0.18  C 
ATOM      5  CB  PRO P   4      17.436   6.722  15.813  1.00 20.99 LIG 0.04  C 
ATOM      6  CG  PRO P   4      16.058   6.337  15.322  1.00 22.70 LIG 0.02  C 
ATOM      7  CD  PRO P   4      15.532   5.378  16.328  1.00 21.81 LIG 0.13  C 
ENDROOT
BRANCH 4 8
ATOM      8  C   PRO P   4      18.603   6.146  17.951  1.00 19.64 LIG 0.24  C 
ATOM      9 O    PRO P   4      18.298   7.272  18.350  1.00 20.88 LIG-0.27  OA
ATOM     10  N   GLN P   5      19.481   5.364  18.602  1.00 22.98 LIG-0.35  N 
ATOM     11 H    GLN P   5      19.706   4.579  18.332  1.00 22.98 LIG 0.16  HD
BRANCH 10 12
ATOM     12  CA  GLN P   5      20.142   5.776  19.836  1.00 16.98 LIG 0.18  C 
BRANCH 12 13
ATOM     13  C   GLN P   5      19.198   6.074  20.983  1.00 21.89 LIG 0.24  C 
ATOM     14  N   ASN P   6      18.069   5.388  21.177  1.00 22.75 LIG-0.35  N 
ATOM     15 H    ASN P   6      17.768   4.745  20.691  1.00 22.75 LIG 0.16  HD
ATOM     16 O    GLN P   5      19.499   6.998  21.751  1.00 24.56 LIG-0.27  OA
BRANCH 14 17
ATOM     17  CA  ASN P   6      17.277   5.773  22.321  1.00 29.16 LIG 0.18  C 
BRANCH 17 18
ATOM     18  CB  ASN P   6      16.566   7.124  22.171  1.00 24.89 LIG 0.14  C 
BRANCH 18 19
ATOM     19  CG  ASN P   6      15.512   7.357  23.238  1.00 26.77 LIG 0.22  C 
ATOM     20 OD1  ASN P   6      15.755   7.583  24.438  1.00 24.78 LIG-0.27  OA
ATOM     21  ND2 ASN P   6      14.279   7.323  22.782  1.00 25.10 LIG-0.37  N 
ATOM     22 22HD ASN P   6      14.133   7.165  21.949  1.00 25.10 LIG 0.16  HD
ATOM     23 21HD ASN P   6      13.618   7.458  23.315  1.00 25.10 LIG 0.16  HD
ENDBRANCH 18 19
ENDBRANCH 17 18
BRANCH 17 24
ATOM     24  C   ASN P   6      16.229   4.771  22.602  1.00 33.65 LIG 0.24  C 
ATOM     25 O    ASN P   6      15.876   4.490  23.743  1.00 34.15 LIG-0.27  OA
ATOM     26  N   THR P   7      15.743   4.438  21.410  1.00 46.42 LIG-0.34  N 
ATOM     27 H    THR P   7      16.044   4.823  20.702  1.00 46.42 LIG 0.16  HD
BRANCH 26 28
ATOM     28  CA  THR P   7      14.716   3.466  21.065  1.00 55.98 LIG 0.21  C 
BRANCH 28 29
ATOM     29  CB  THR P   7      15.293   2.135  21.686  1.00 59.10 LIG 0.15  C 
ATOM     30  CG2 THR P   7      14.369   0.921  21.480  1.00 61.71 LIG 0.04  C 
BRANCH 29 31
ATOM     31 OG1  THR P   7      16.590   1.949  21.113  1.00 60.27 LIG-0.39  OA
ATOM     32 HG1  THR P   7      17.157   2.379  21.558  1.00 60.27 LIG 0.21  HD
ENDBRANCH 29 31
ENDBRANCH 28 29
BRANCH 28 33
ATOM     33  C   THR P   7      13.230   3.693  21.367  1.00 57.95 LIG 0.29  C 
ATOM     34  N   NH2 P   8      12.988   4.333  22.505  1.00 58.98 LIG-0.11  N 
ATOM     35 O    THR P   7      12.306   3.269  20.666  1.00 60.38 LIG-0.27  OA
ENDBRANCH 28 33
ENDBRANCH 26 28
ENDBRANCH 17 24
ENDBRANCH 14 17
ENDBRANCH 12 13
BRANCH 12 36
ATOM     36  CB  GLN P   5      21.018   6.981  19.553  1.00 11.38 LIG 0.04  C 
BRANCH 36 37
ATOM     37  CG  GLN P   5      22.473   6.744  19.948  1.00 11.43 LIG 0.10  C 
BRANCH 37 38
ATOM     38  CD  GLN P   5      22.755   6.836  21.440  1.00 11.64 LIG 0.21  C 
ATOM     39  NE2 GLN P   5      23.814   7.457  21.916  1.00  7.77 LIG-0.37  N 
ATOM     40 21HE GLN P   5      24.370   7.832  21.378  1.00  7.77 LIG 0.16  HD
ATOM     41 22HE GLN P   5      23.950   7.486  22.765  1.00  7.77 LIG 0.16  HD
ATOM     42 OE1  GLN P   5      21.980   6.310  22.226  1.00 11.36 LIG-0.27  OA
ENDBRANCH 37 38
ENDBRANCH 36 37
ENDBRANCH 12 36
ENDBRANCH 10 12
ENDBRANCH 4 8
BRANCH 1 43
ATOM     43  CA  HIS P   3      15.513   2.798  17.782  1.00 30.34 LIG 0.18  C 
BRANCH 43 44
ATOM     44  N   HIS P   3      15.053   2.974  16.423  1.00 35.71 LIG-0.35  N 
ATOM     45  C   CYS P   2      15.607   2.447  15.352  0.17 38.31 LIG 0.24  C 
ATOM     46 O    CYS P   2      16.692   1.858  15.390  0.17 38.29 LIG-0.27  OA
ATOM     47 H    HIS P   3      14.356   3.475  16.373  1.00 35.71 LIG 0.16  HD
BRANCH 45 48
ATOM     48  CA  CYS P   2      14.795   2.734  14.088  0.17 40.64 LIG 0.18  C 
BRANCH 48 49
ATOM     49  N   CYS P   2      15.500   2.613  12.804  0.17 43.25 LIG-0.34  N 
ATOM     50  C   PHE P   1      15.417   3.496  11.804  0.36 44.98 LIG 0.25  C 
ATOM     51 O    PHE P   1      14.601   4.415  11.804  0.36 46.44 LIG-0.27  OA
ATOM     52 H    CYS P   2      15.984   1.903  12.753  0.17 43.25 LIG 0.16  HD
BRANCH 50 53
ATOM     53  CA  PHE P   1      16.213   3.367  10.508  0.36 46.68 LIG 0.28  C 
BRANCH 53 54
ATOM     54  CB  PHE P   1      17.090   4.636  10.472  0.36 47.92 LIG 0.08  C 
BRANCH 54 55
ATOM     55  CG  PHE P   1      18.384   4.799  11.265  0.36 47.93 LIG-0.06  A 
ATOM     56  CD1 PHE P   1      18.421   5.056  12.640  0.36 48.98 LIG 0.01  A 
ATOM     57  CE1 PHE P   1      19.652   5.180  13.293  0.36 50.12 LIG 0.00  A 
ATOM     58  CZ  PHE P   1      20.847   5.051  12.583  0.36 48.72 LIG 0.00  A 
ATOM     59  CE2 PHE P   1      20.806   4.794  11.214  0.36 48.48 LIG 0.00  A 
ATOM     60  CD2 PHE P   1      19.581   4.668  10.556  0.36 48.25 LIG 0.01  A 
ENDBRANCH 54 55
ENDBRANCH 53 54
BRANCH 53 61
ATOM     61  N   PHE P   1      15.128   3.339   9.544  0.36 46.83 LIG-0.07  N 
ATOM     62 H3   PHE P   1      14.447   2.871   9.876  0.36 46.83 LIG 0.28  HD
ATOM     63 H1   PHE P   1      14.861   4.171   9.373  0.36 46.83 LIG 0.28  HD
ATOM     64 H2   PHE P   1      15.409   2.957   8.791  0.36 46.83 LIG 0.28  HD
ENDBRANCH 53 61
ENDBRANCH 50 53
ENDBRANCH 48 49
BRANCH 48 65
ATOM     65  CB  CYS P   2      13.536   1.877  14.210  0.17 41.02 LIG 0.10  C 
BRANCH 65 66
ATOM     66 SG   CYS P   2      12.290   3.052  14.791  0.17 41.68 LIG-0.18  SA
ATOM     67 HG   CYS P   2      11.195   2.634  14.534  0.17 41.68 LIG 0.10  HD
ENDBRANCH 65 66
ENDBRANCH 48 65
ENDBRANCH 45 48
ENDBRANCH 43 44
BRANCH 43 68
ATOM     68  CB  HIS P   3      15.929   1.381  18.290  1.00 25.21 LIG 0.10  C 
BRANCH 68 69
ATOM     69  CG  HIS P   3      15.081   0.324  17.511  1.00 21.50 LIG 0.06  A 
ATOM     70 ND1  HIS P   3      15.624  -0.801  17.044  1.00 15.93 LIG-0.24  NA
ATOM     71  CE1 HIS P   3      14.587  -1.532  16.666  1.00 14.31 LIG 0.23  A 
ATOM     72 NE2  HIS P   3      13.451  -0.890  16.897  1.00 14.39 LIG-0.25  NA
ATOM     73  CD2 HIS P   3      13.696   0.290  17.422  1.00 20.69 LIG 0.14  A 
ENDBRANCH 68 69
ENDBRANCH 43 68
ENDBRANCH 1 43
TORSDOF 26
ENDMDL
MODEL 8
USER: ADFR SOLUTION from run 10
USER: SCORE 21.428491 LL:  -5.838 LR: -17.550 RR:   0.000 FEB:  -9.794
USER: RMSD 10.042846
USER: SEED 99807
USER: STATUS no improvement in best in 6 clusters for 5 generations
USER: GENES 28
USER: genes 0 Translation |==|  0.49454 0.61947 0.39180
USER: genes 1 Rotation |==|  0.43930 0.03112 0.34897 0.56047
USER: genes 2 Torsion [N]-CA--C-[O] |==|  0.91133
USER: genes 3 Torsion [C]-N--CA-[C] |==|  0.81897
USER: genes 4 Torsion [N]-CA--C-[N] |==|  0.31161
USER: genes 5 Torsion [C]-N--CA-[CB] |==|  0.85556
USER: genes 6 Torsion [N]-CA--CB-[CG] |==|  0.44093
USER: genes 7 Torsion [CA]-CB--CG-[ND2] |==|  0.72483
USER: genes 8 Torsion [N]-CA--C-[N] |==|  0.31274
USER: genes 9 Torsion [C]-N--CA-[CB] |==|  0.60750
USER: genes 10 Torsion [N]-CA--CB-[CG2] |==|  0.55142
USER: genes 11 Torsion [CA]-CB--OG1-[HG1] |==|  0.46732
USER: genes 12 Torsion [N]-CA--C-[N] |==|  0.36559
USER: genes 13 Torsion [N]-CA--CB-[CG] |==|  0.48155
USER: genes 14 Torsion [CA]-CB--CG-[CD] |==|  0.27460
USER: genes 15 Torsion [CB]-CG--CD-[OE1] |==|  0.78926
USER: genes 16 Torsion [N]-C--CA-[N] |==|  0.33013
USER: genes 17 Torsion [C]-CA--N-[C] |==|  0.63028
USER: genes 18 Torsion [N]-C--CA-[N] |==|  0.81395
USER: genes 19 Torsion [C]-CA--N-[C] |==|  0.18866
USER: genes 20 Torsion [N]-C--CA-[N] |==|  0.29450
USER: genes 21 Torsion [C]-CA--CB-[CG] |==|  0.74711
USER: genes 22 Torsion [CA]-CB--CG-[CD1] |==|  0.04696
USER: genes 23 Torsion [C]-CA--N-[H3] |==|  0.44951
USER: genes 24 Torsion [C]-CA--CB-[SG] |==|  0.43178
USER: genes 25 Torsion [CA]-CB--SG-[HG] |==|  0.91886
USER: genes 26 Torsion [C]-CA--CB-[CG] |==|  0.44403
USER: genes 27 Torsion [CA]-CB--CG-[ND1] |==|  0.86592
ROOT
ATOM      1  C   HIS P   3      17.054   3.982  14.609  1.00 29.14 LIG 0.24  C 
ATOM      2 O    HIS P   3      18.106   3.418  14.257  1.00 31.23 LIG-0.27  OA
ATOM      3  N   PRO P   4      17.081   5.173  15.235  1.00 24.67 LIG-0.34  N 
ATOM      4  CA  PRO P   4      18.315   5.824  15.611  1.00 22.95 LIG 0.18  C 
ATOM      5  CB  PRO P   4      17.888   7.150  16.221  1.00 20.99 LIG 0.04  C 
ATOM      6  CG  PRO P   4      16.415   7.316  15.919  1.00 22.70 LIG 0.02  C 
ATOM      7  CD  PRO P   4      15.898   5.939  15.700  1.00 21.81 LIG 0.13  C 
ENDROOT
BRANCH 4 8
ATOM      8  C   PRO P   4      19.240   5.070  16.558  1.00 19.64 LIG 0.24  C 
ATOM      9 O    PRO P   4      18.746   4.318  17.400  1.00 20.88 LIG-0.27  OA
ATOM     10  N   GLN P   5      20.567   5.208  16.404  1.00 22.98 LIG-0.35  N 
ATOM     11 H    GLN P   5      20.924   5.732  15.823  1.00 22.98 LIG 0.16  HD
BRANCH 10 12
ATOM     12  CA  GLN P   5      21.536   4.476  17.212  1.00 16.98 LIG 0.18  C 
BRANCH 12 13
ATOM     13  C   GLN P   5      21.521   4.833  18.685  1.00 21.89 LIG 0.24  C 
ATOM     14  N   ASN P   6      21.117   3.975  19.624  1.00 22.75 LIG-0.35  N 
ATOM     15 H    ASN P   6      20.829   3.174  19.500  1.00 22.75 LIG 0.16  HD
ATOM     16 O    GLN P   5      21.890   5.971  19.005  1.00 24.56 LIG-0.27  OA
BRANCH 14 17
ATOM     17  CA  ASN P   6      21.173   4.448  20.987  1.00 29.16 LIG 0.18  C 
BRANCH 17 18
ATOM     18  CB  ASN P   6      22.533   5.027  21.400  1.00 24.89 LIG 0.14  C 
BRANCH 18 19
ATOM     19  CG  ASN P   6      22.440   5.956  22.596  1.00 26.77 LIG 0.22  C 
ATOM     20 OD1  ASN P   6      22.403   5.582  23.782  1.00 24.78 LIG-0.27  OA
ATOM     21  ND2 ASN P   6      22.423   7.232  22.277  1.00 25.10 LIG-0.37  N 
ATOM     22 22HD ASN P   6      22.450   7.469  21.450  1.00 25.10 LIG 0.16  HD
ATOM     23 21HD ASN P   6      22.386   7.829  22.894  1.00 25.10 LIG 0.16  HD
ENDBRANCH 18 19
ENDBRANCH 17 18
BRANCH 17 24
ATOM     24  C   ASN P   6      20.172   5.509  21.222  1.00 33.65 LIG 0.24  C 
ATOM     25 O    ASN P   6      20.181   6.570  20.607  1.00 34.15 LIG-0.27  OA
ATOM     26  N   THR P   7      19.293   4.971  22.063  1.00 46.42 LIG-0.34  N 
ATOM     27 H    THR P   7      19.388   4.155  22.318  1.00 46.42 LIG 0.16  HD
BRANCH 26 28
ATOM     28  CA  THR P   7      18.113   5.564  22.674  1.00 55.98 LIG 0.21  C 
BRANCH 28 29
ATOM     29  CB  THR P   7      18.151   4.959  24.131  1.00 59.10 LIG 0.15  C 
ATOM     30  CG2 THR P   7      16.797   5.049  24.859  1.00 61.71 LIG 0.04  C 
BRANCH 29 31
ATOM     31 OG1  THR P   7      18.622   3.615  24.001  1.00 60.27 LIG-0.39  OA
ATOM     32 HG1  THR P   7      18.810   3.310  24.761  1.00 60.27 LIG 0.21  HD
ENDBRANCH 29 31
ENDBRANCH 28 29
BRANCH 28 33
ATOM     33  C   THR P   7      17.834   7.071  22.640  1.00 57.95 LIG 0.29  C 
ATOM     34  N   NH2 P   8      16.603   7.397  22.264  1.00 58.98 LIG-0.11  N 
ATOM     35 O    THR P   7      18.681   7.940  22.871  1.00 60.38 LIG-0.27  OA
ENDBRANCH 28 33
ENDBRANCH 26 28
ENDBRANCH 17 24
ENDBRANCH 14 17
ENDBRANCH 12 13
BRANCH 12 36
ATOM     36  CB  GLN P   5      22.924   4.687  16.638  1.00 11.38 LIG 0.04  C 
BRANCH 36 37
ATOM     37  CG  GLN P   5      24.013   4.086  17.523  1.00 11.43 LIG 0.10  C 
BRANCH 37 38
ATOM     38  CD  GLN P   5      24.517   2.720  17.079  1.00 11.64 LIG 0.21  C 
ATOM     39  NE2 GLN P   5      25.674   2.565  16.468  1.00  7.77 LIG-0.37  N 
ATOM     40 21HE GLN P   5      26.173   3.247  16.314  1.00  7.77 LIG 0.16  HD
ATOM     41 22HE GLN P   5      25.929   1.781  16.223  1.00  7.77 LIG 0.16  HD
ATOM     42 OE1  GLN P   5      23.825   1.734  17.285  1.00 11.36 LIG-0.27  OA
ENDBRANCH 37 38
ENDBRANCH 36 37
ENDBRANCH 12 36
ENDBRANCH 10 12
ENDBRANCH 4 8
BRANCH 1 43
ATOM     43  CA  HIS P   3      15.706   3.377  14.227  1.00 30.34 LIG 0.18  C 
BRANCH 43 44
ATOM     44  N   HIS P   3      15.945   3.350  12.801  1.00 35.71 LIG-0.35  N 
ATOM     45  C   CYS P   2      15.107   3.763  11.874  0.17 38.31 LIG 0.24  C 
ATOM     46 O    CYS P   2      13.941   4.082  12.132  0.17 38.29 LIG-0.27  OA
ATOM     47 H    HIS P   3      16.718   3.027  12.603  1.00 35.71 LIG 0.16  HD
BRANCH 45 48
ATOM     48  CA  CYS P   2      15.726   3.707  10.478  0.17 40.64 LIG 0.18  C 
BRANCH 48 49
ATOM     49  N   CYS P   2      16.838   4.631  10.206  0.17 43.25 LIG-0.34  N 
ATOM     50  C   PHE P   1      18.046   4.553  10.773  0.36 44.98 LIG 0.25  C 
ATOM     51 O    PHE P   1      18.287   3.794  11.709  0.36 46.44 LIG-0.27  OA
ATOM     52 H    CYS P   2      16.634   5.241   9.635  0.17 43.25 LIG 0.16  HD
BRANCH 50 53
ATOM     53  CA  PHE P   1      19.195   5.494  10.419  0.36 46.68 LIG 0.28  C 
BRANCH 53 54
ATOM     54  CB  PHE P   1      20.413   4.563  10.256  0.36 47.92 LIG 0.08  C 
BRANCH 54 55
ATOM     55  CG  PHE P   1      21.367   4.203  11.393  0.36 47.93 LIG-0.06  A 
ATOM     56  CD1 PHE P   1      21.063   4.388  12.746  0.36 48.98 LIG 0.01  A 
ATOM     57  CE1 PHE P   1      21.991   4.019  13.726  0.36 50.12 LIG 0.00  A 
ATOM     58  CZ  PHE P   1      23.221   3.468  13.365  0.36 48.72 LIG 0.00  A 
ATOM     59  CE2 PHE P   1      23.520   3.283  12.017  0.36 48.48 LIG 0.00  A 
ATOM     60  CD2 PHE P   1      22.598   3.647  11.034  0.36 48.25 LIG 0.01  A 
ENDBRANCH 54 55
ENDBRANCH 53 54
BRANCH 53 61
ATOM     61  N   PHE P   1      19.212   6.332  11.605  0.36 46.83 LIG-0.07  N 
ATOM     62 H3   PHE P   1      19.992   6.757  11.658  0.36 46.83 LIG 0.28  HD
ATOM     63 H1   PHE P   1      18.552   6.928  11.557  0.36 46.83 LIG 0.28  HD
ATOM     64 H2   PHE P   1      19.101   5.825  12.329  0.36 46.83 LIG 0.28  HD
ENDBRANCH 53 61
ENDBRANCH 50 53
ENDBRANCH 48 49
BRANCH 48 65
ATOM     65  CB  CYS P   2      16.045   2.233  10.233  0.17 41.02 LIG 0.10  C 
BRANCH 65 66
ATOM     66 SG   CYS P   2      16.047   2.105   8.429  0.17 41.68 LIG-0.18  SA
ATOM     67 HG   CYS P   2      15.296   2.920   7.968  0.17 41.68 LIG 0.10  HD
ENDBRANCH 65 66
ENDBRANCH 48 65
ENDBRANCH 45 48
ENDBRANCH 43 44
BRANCH 43 68
ATOM     68  CB  HIS P   3      15.549   2.040  15.019  1.00 25.21 LIG 0.10  C 
BRANCH 68 69
ATOM     69  CG  HIS P   3      14.028   1.680  15.057  1.00 21.50 LIG 0.06  A 
ATOM     70 ND1  HIS P   3      13.106   2.581  15.398  1.00 15.93 LIG-0.24  NA
ATOM     71  CE1 HIS P   3      11.955   2.001  15.093  1.00 14.31 LIG 0.23  A 
ATOM     72 NE2  HIS P   3      12.158   0.797  14.579  1.00 14.39 LIG-0.25  NA
ATOM     73  CD2 HIS P   3      13.445   0.533  14.537  1.00 20.69 LIG 0.14  A 
ENDBRANCH 68 69
ENDBRANCH 43 68
ENDBRANCH 1 43
TORSDOF 26
ENDMDL
MODEL 9
USER: ADFR SOLUTION from run 66
USER: SCORE 21.418575 LL:  -6.955 LR: -17.468 RR:   0.000 FEB:  -9.712
USER: RMSD 8.377033
USER: SEED 65
USER: STATUS no improvement in best in 4 clusters for 5 generations
USER: GENES 28
USER: genes 0 Translation |==|  0.60189 0.67123 0.50861
USER: genes 1 Rotation |==|  0.21513 0.18802 0.27240 0.64041
USER: genes 2 Torsion [N]-CA--C-[O] |==|  0.46392
USER: genes 3 Torsion [C]-N--CA-[C] |==|  0.65378
USER: genes 4 Torsion [N]-CA--C-[N] |==|  0.87265
USER: genes 5 Torsion [C]-N--CA-[CB] |==|  0.27758
USER: genes 6 Torsion [N]-CA--CB-[CG] |==|  0.68542
USER: genes 7 Torsion [CA]-CB--CG-[ND2] |==|  0.79963
USER: genes 8 Torsion [N]-CA--C-[N] |==|  0.42551
USER: genes 9 Torsion [C]-N--CA-[CB] |==|  0.60822
USER: genes 10 Torsion [N]-CA--CB-[CG2] |==|  0.58542
USER: genes 11 Torsion [CA]-CB--OG1-[HG1] |==|  0.63698
USER: genes 12 Torsion [N]-CA--C-[N] |==|  0.39059
USER: genes 13 Torsion [N]-CA--CB-[CG] |==|  0.38408
USER: genes 14 Torsion [CA]-CB--CG-[CD] |==|  0.24611
USER: genes 15 Torsion [CB]-CG--CD-[OE1] |==|  0.99908
USER: genes 16 Torsion [N]-C--CA-[N] |==|  0.44997
USER: genes 17 Torsion [C]-CA--N-[C] |==|  0.71138
USER: genes 18 Torsion [N]-C--CA-[N] |==|  0.72463
USER: genes 19 Torsion [C]-CA--N-[C] |==|  0.53838
USER: genes 20 Torsion [N]-C--CA-[N] |==|  0.58807
USER: genes 21 Torsion [C]-CA--CB-[CG] |==|  0.25448
USER: genes 22 Torsion [CA]-CB--CG-[CD1] |==|  0.74548
USER: genes 23 Torsion [C]-CA--N-[H3] |==|  0.73128
USER: genes 24 Torsion [C]-CA--CB-[SG] |==|  0.72712
USER: genes 25 Torsion [CA]-CB--SG-[HG] |==|  0.16828
USER: genes 26 Torsion [C]-CA--CB-[CG] |==|  0.34124
USER: genes 27 Torsion [CA]-CB--CG-[ND1] |==|  0.50449
ROOT
ATOM      1  C   HIS P   3      19.389   4.914  17.238  1.00 29.14 LIG 0.24  C 
ATOM      2 O    HIS P   3      19.273   4.200  16.225  1.00 31.23 LIG-0.27  OA
ATOM      3  N   PRO P   4      20.597   5.179  17.767  1.00 24.67 LIG-0.34  N 
ATOM      4  CA  PRO P   4      21.813   4.591  17.254  1.00 22.95 LIG 0.18  C 
ATOM      5  CB  PRO P   4      22.927   5.205  18.089  1.00 20.99 LIG 0.04  C 
ATOM      6  CG  PRO P   4      22.308   6.336  18.879  1.00 22.70 LIG 0.02  C 
ATOM      7  CD  PRO P   4      20.859   6.013  18.965  1.00 21.81 LIG 0.13  C 
ENDROOT
BRANCH 4 8
ATOM      8  C   PRO P   4      21.911   3.071  17.263  1.00 19.64 LIG 0.24  C 
ATOM      9 O    PRO P   4      22.812   2.528  16.622  1.00 20.88 LIG-0.27  OA
ATOM     10  N   GLN P   5      21.044   2.377  18.018  1.00 22.98 LIG-0.35  N 
ATOM     11 H    GLN P   5      20.408   2.743  18.467  1.00 22.98 LIG 0.16  HD
BRANCH 10 12
ATOM     12  CA  GLN P   5      21.098   0.924  18.150  1.00 16.98 LIG 0.18  C 
BRANCH 12 13
ATOM     13  C   GLN P   5      19.808   0.214  17.792  1.00 21.89 LIG 0.24  C 
ATOM     14  N   ASN P   6      18.618   0.630  18.230  1.00 22.75 LIG-0.35  N 
ATOM     15 H    ASN P   6      18.464   1.304  18.742  1.00 22.75 LIG 0.16  HD
ATOM     16 O    GLN P   5      19.885  -0.793  17.076  1.00 24.56 LIG-0.27  OA
BRANCH 14 17
ATOM     17  CA  ASN P   6      17.474  -0.136  17.794  1.00 29.16 LIG 0.18  C 
BRANCH 17 18
ATOM     18  CB  ASN P   6      16.951  -1.137  18.834  1.00 24.89 LIG 0.14  C 
BRANCH 18 19
ATOM     19  CG  ASN P   6      17.139  -2.581  18.409  1.00 26.77 LIG 0.22  C 
ATOM     20 OD1  ASN P   6      17.956  -3.369  18.919  1.00 24.78 LIG-0.27  OA
ATOM     21  ND2 ASN P   6      16.332  -2.958  17.441  1.00 25.10 LIG-0.37  N 
ATOM     22 22HD ASN P   6      15.775  -2.397  17.102  1.00 25.10 LIG 0.16  HD
ATOM     23 21HD ASN P   6      16.361  -3.766  17.147  1.00 25.10 LIG 0.16  HD
ENDBRANCH 18 19
ENDBRANCH 17 18
BRANCH 17 24
ATOM     24  C   ASN P   6      16.342   0.749  17.450  1.00 33.65 LIG 0.24  C 
ATOM     25 O    ASN P   6      16.258   1.901  17.864  1.00 34.15 LIG-0.27  OA
ATOM     26  N   THR P   7      15.633   0.067  16.555  1.00 46.42 LIG-0.34  N 
ATOM     27 H    THR P   7      15.904  -0.706  16.294  1.00 46.42 LIG 0.16  HD
BRANCH 26 28
ATOM     28  CA  THR P   7      14.389   0.425  15.892  1.00 55.98 LIG 0.21  C 
BRANCH 28 29
ATOM     29  CB  THR P   7      13.618  -0.951  15.860  1.00 59.10 LIG 0.15  C 
ATOM     30  CG2 THR P   7      12.685  -1.095  14.643  1.00 61.71 LIG 0.04  C 
BRANCH 29 31
ATOM     31 OG1  THR P   7      14.614  -1.976  15.919  1.00 60.27 LIG-0.39  OA
ATOM     32 HG1  THR P   7      14.471  -2.540  15.314  1.00 60.27 LIG 0.21  HD
ENDBRANCH 29 31
ENDBRANCH 28 29
BRANCH 28 33
ATOM     33  C   THR P   7      13.521   1.606  16.344  1.00 57.95 LIG 0.29  C 
ATOM     34  N   NH2 P   8      12.985   2.309  15.353  1.00 58.98 LIG-0.11  N 
ATOM     35 O    THR P   7      13.369   1.946  17.521  1.00 60.38 LIG-0.27  OA
ENDBRANCH 28 33
ENDBRANCH 26 28
ENDBRANCH 17 24
ENDBRANCH 14 17
ENDBRANCH 12 13
BRANCH 12 36
ATOM     36  CB  GLN P   5      21.516   0.568  19.563  1.00 11.38 LIG 0.04  C 
BRANCH 36 37
ATOM     37  CG  GLN P   5      20.714  -0.603  20.126  1.00 11.43 LIG 0.10  C 
BRANCH 37 38
ATOM     38  CD  GLN P   5      21.297  -1.978  19.833  1.00 11.64 LIG 0.21  C 
ATOM     39  NE2 GLN P   5      20.730  -3.085  20.265  1.00  7.77 LIG-0.37  N 
ATOM     40 21HE GLN P   5      20.004  -3.046  20.723  1.00  7.77 LIG 0.16  HD
ATOM     41 22HE GLN P   5      21.087  -3.848  20.089  1.00  7.77 LIG 0.16  HD
ATOM     42 OE1  GLN P   5      22.330  -2.061  19.184  1.00 11.36 LIG-0.27  OA
ENDBRANCH 37 38
ENDBRANCH 36 37
ENDBRANCH 12 36
ENDBRANCH 10 12
ENDBRANCH 4 8
BRANCH 1 43
ATOM     43  CA  HIS P   3      18.157   5.598  17.827  1.00 30.34 LIG 0.18  C 
BRANCH 43 44
ATOM     44  N   HIS P   3      17.290   5.358  16.695  1.00 35.71 LIG-0.35  N 
ATOM     45  C   CYS P   2      16.937   6.252  15.796  0.17 38.31 LIG 0.24  C 
ATOM     46 O    CYS P   2      17.199   7.454  15.920  0.17 38.29 LIG-0.27  OA
ATOM     47 H    HIS P   3      17.012   4.545  16.659  1.00 35.71 LIG 0.16  HD
BRANCH 45 48
ATOM     48  CA  CYS P   2      16.111   5.634  14.668  0.17 40.64 LIG 0.18  C 
BRANCH 48 49
ATOM     49  N   CYS P   2      16.825   5.313  13.422  0.17 43.25 LIG-0.34  N 
ATOM     50  C   PHE P   1      16.232   5.021  12.260  0.36 44.98 LIG 0.25  C 
ATOM     51 O    PHE P   1      15.021   4.826  12.169  0.36 46.44 LIG-0.27  OA
ATOM     52 H    CYS P   2      17.680   5.331  13.512  0.17 43.25 LIG 0.16  HD
BRANCH 50 53
ATOM     53  CA  PHE P   1      17.007   4.753  10.973  0.36 46.68 LIG 0.28  C 
BRANCH 53 54
ATOM     54  CB  PHE P   1      18.299   5.582  11.127  0.36 47.92 LIG 0.08  C 
BRANCH 54 55
ATOM     55  CG  PHE P   1      19.593   5.038  11.728  0.36 47.93 LIG-0.06  A 
ATOM     56  CD1 PHE P   1      19.915   5.136  13.086  0.36 48.98 LIG 0.01  A 
ATOM     57  CE1 PHE P   1      21.119   4.599  13.556  0.36 50.12 LIG 0.00  A 
ATOM     58  CZ  PHE P   1      22.002   3.966  12.682  0.36 48.72 LIG 0.00  A 
ATOM     59  CE2 PHE P   1      21.676   3.868  11.331  0.36 48.48 LIG 0.00  A 
ATOM     60  CD2 PHE P   1      20.477   4.400  10.854  0.36 48.25 LIG 0.01  A 
ENDBRANCH 54 55
ENDBRANCH 53 54
BRANCH 53 61
ATOM     61  N   PHE P   1      16.060   5.262   9.996  0.36 46.83 LIG-0.07  N 
ATOM     62 H3   PHE P   1      15.578   4.588   9.669  0.36 46.83 LIG 0.28  HD
ATOM     63 H1   PHE P   1      15.518   5.851  10.386  0.36 46.83 LIG 0.28  HD
ATOM     64 H2   PHE P   1      16.501   5.659   9.333  0.36 46.83 LIG 0.28  HD
ENDBRANCH 53 61
ENDBRANCH 50 53
ENDBRANCH 48 49
BRANCH 48 65
ATOM     65  CB  CYS P   2      15.372   4.457  15.302  0.17 41.02 LIG 0.10  C 
BRANCH 65 66
ATOM     66 SG   CYS P   2      16.396   3.035  14.854  0.17 41.68 LIG-0.18  SA
ATOM     67 HG   CYS P   2      17.497   3.174  15.312  0.17 41.68 LIG 0.10  HD
ENDBRANCH 65 66
ENDBRANCH 48 65
ENDBRANCH 45 48
ENDBRANCH 43 44
BRANCH 43 68
ATOM     68  CB  HIS P   3      17.856   4.920  19.201  1.00 25.21 LIG 0.10  C 
BRANCH 68 69
ATOM     69  CG  HIS P   3      17.866   6.033  20.298  1.00 21.50 LIG 0.06  A 
ATOM     70 ND1  HIS P   3      17.669   5.747  21.585  1.00 15.93 LIG-0.24  NA
ATOM     71  CE1 HIS P   3      17.977   6.868  22.220  1.00 14.31 LIG 0.23  A 
ATOM     72 NE2  HIS P   3      18.355   7.804  21.362  1.00 14.39 LIG-0.25  NA
ATOM     73  CD2 HIS P   3      18.298   7.342  20.132  1.00 20.69 LIG 0.14  A 
ENDBRANCH 68 69
ENDBRANCH 43 68
ENDBRANCH 1 43
TORSDOF 26
ENDMDL
MODEL 10
USER: ADFR SOLUTION from run 60
USER: SCORE 19.208448 LL:  -5.102 LR: -17.463 RR:   0.000 FEB:  -9.707
USER: RMSD 9.069422
USER: SEED 59
USER: STATUS no improvement in best in 9 clusters for 5 generations
USER: GENES 28
USER: genes 0 Translation |==|  0.47943 0.67001 0.41035
USER: genes 1 Rotation |==|  0.77714 0.32455 0.22835 0.76195
USER: genes 2 Torsion [N]-CA--C-[O] |==|  0.26493
USER: genes 3 Torsion [C]-N--CA-[C] |==|  0.58245
USER: genes 4 Torsion [N]-CA--C-[N] |==|  0.08115
USER: genes 5 Torsion [C]-N--CA-[CB] |==|  0.25556
USER: genes 6 Torsion [N]-CA--CB-[CG] |==|  0.62442
USER: genes 7 Torsion [CA]-CB--CG-[ND2] |==|  0.89515
USER: genes 8 Torsion [N]-CA--C-[N] |==|  0.17060
USER: genes 9 Torsion [C]-N--CA-[CB] |==|  0.80156
USER: genes 10 Torsion [N]-CA--CB-[CG2] |==|  0.26177
USER: genes 11 Torsion [CA]-CB--OG1-[HG1] |==|  0.06191
USER: genes 12 Torsion [N]-CA--C-[N] |==|  0.91686
USER: genes 13 Torsion [N]-CA--CB-[CG] |==|  0.05030
USER: genes 14 Torsion [CA]-CB--CG-[CD] |==|  0.63225
USER: genes 15 Torsion [CB]-CG--CD-[OE1] |==|  0.80192
USER: genes 16 Torsion [N]-C--CA-[N] |==|  0.18500
USER: genes 17 Torsion [C]-CA--N-[C] |==|  0.61495
USER: genes 18 Torsion [N]-C--CA-[N] |==|  0.52419
USER: genes 19 Torsion [C]-CA--N-[C] |==|  0.18931
USER: genes 20 Torsion [N]-C--CA-[N] |==|  0.67810
USER: genes 21 Torsion [C]-CA--CB-[CG] |==|  0.29067
USER: genes 22 Torsion [CA]-CB--CG-[CD1] |==|  0.89416
USER: genes 23 Torsion [C]-CA--N-[H3] |==|  0.32334
USER: genes 24 Torsion [C]-CA--CB-[SG] |==|  0.32469
USER: genes 25 Torsion [CA]-CB--SG-[HG] |==|  0.86396
USER: genes 26 Torsion [C]-CA--CB-[CG] |==|  0.24798
USER: genes 27 Torsion [CA]-CB--CG-[ND1] |==|  0.39669
ROOT
ATOM      1  C   HIS P   3      16.726   4.892  15.027  1.00 29.14 LIG 0.24  C 
ATOM      2 O    HIS P   3      16.688   6.135  14.968  1.00 31.23 LIG-0.27  OA
ATOM      3  N   PRO P   4      16.808   4.255  16.208  1.00 24.67 LIG-0.34  N 
ATOM      4  CA  PRO P   4      16.944   4.960  17.462  1.00 22.95 LIG 0.18  C 
ATOM      5  CB  PRO P   4      16.934   3.874  18.526  1.00 20.99 LIG 0.04  C 
ATOM      6  CG  PRO P   4      16.518   2.593  17.838  1.00 22.70 LIG 0.02  C 
ATOM      7  CD  PRO P   4      16.858   2.785  16.404  1.00 21.81 LIG 0.13  C 
ENDROOT
BRANCH 4 8
ATOM      8  C   PRO P   4      18.161   5.861  17.626  1.00 19.64 LIG 0.24  C 
ATOM      9 O    PRO P   4      18.050   7.064  17.379  1.00 20.88 LIG-0.27  OA
ATOM     10  N   GLN P   5      19.300   5.323  18.092  1.00 22.98 LIG-0.35  N 
ATOM     11 H    GLN P   5      19.392   4.485  18.264  1.00 22.98 LIG 0.16  HD
BRANCH 10 12
ATOM     12  CA  GLN P   5      20.499   6.113  18.350  1.00 16.98 LIG 0.18  C 
BRANCH 12 13
ATOM     13  C   GLN P   5      21.799   5.355  18.177  1.00 21.89 LIG 0.24  C 
ATOM     14  N   ASN P   6      21.925   4.336  17.324  1.00 22.75 LIG-0.35  N 
ATOM     15 H    ASN P   6      21.311   4.013  16.815  1.00 22.75 LIG 0.16  HD
ATOM     16 O    GLN P   5      22.765   5.702  18.870  1.00 24.56 LIG-0.27  OA
BRANCH 14 17
ATOM     17  CA  ASN P   6      23.228   3.719  17.254  1.00 29.16 LIG 0.18  C 
BRANCH 17 18
ATOM     18  CB  ASN P   6      23.414   2.526  18.201  1.00 24.89 LIG 0.14  C 
BRANCH 18 19
ATOM     19  CG  ASN P   6      24.740   2.559  18.938  1.00 26.77 LIG 0.22  C 
ATOM     20 OD1  ASN P   6      24.905   2.193  20.116  1.00 24.78 LIG-0.27  OA
ATOM     21  ND2 ASN P   6      25.741   2.999  18.208  1.00 25.10 LIG-0.37  N 
ATOM     22 22HD ASN P   6      25.605   3.247  17.396  1.00 25.10 LIG 0.16  HD
ATOM     23 21HD ASN P   6      26.533   3.038  18.542  1.00 25.10 LIG 0.16  HD
ENDBRANCH 18 19
ENDBRANCH 17 18
BRANCH 17 24
ATOM     24  C   ASN P   6      23.510   3.226  15.890  1.00 33.65 LIG 0.24  C 
ATOM     25 O    ASN P   6      23.595   2.031  15.627  1.00 34.15 LIG-0.27  OA
ATOM     26  N   THR P   7      23.483   4.310  15.120  1.00 46.42 LIG-0.34  N 
ATOM     27 H    THR P   7      23.298   5.076  15.465  1.00 46.42 LIG 0.16  HD
BRANCH 26 28
ATOM     28  CA  THR P   7      23.728   4.439  13.692  1.00 55.98 LIG 0.21  C 
BRANCH 28 29
ATOM     29  CB  THR P   7      25.286   4.209  13.598  1.00 59.10 LIG 0.15  C 
ATOM     30  CG2 THR P   7      25.666   2.747  13.296  1.00 61.71 LIG 0.04  C 
BRANCH 29 31
ATOM     31 OG1  THR P   7      25.773   5.123  12.612  1.00 60.27 LIG-0.39  OA
ATOM     32 HG1  THR P   7      25.231   5.759  12.528  1.00 60.27 LIG 0.21  HD
ENDBRANCH 29 31
ENDBRANCH 28 29
BRANCH 28 33
ATOM     33  C   THR P   7      22.926   3.660  12.642  1.00 57.95 LIG 0.29  C 
ATOM     34  N   NH2 P   8      22.478   2.480  13.053  1.00 58.98 LIG-0.11  N 
ATOM     35 O    THR P   7      22.752   4.038  11.480  1.00 60.38 LIG-0.27  OA
ENDBRANCH 28 33
ENDBRANCH 26 28
ENDBRANCH 17 24
ENDBRANCH 14 17
ENDBRANCH 12 13
BRANCH 12 36
ATOM     36  CB  GLN P   5      20.417   6.699  19.747  1.00 11.38 LIG 0.04  C 
BRANCH 36 37
ATOM     37  CG  GLN P   5      19.393   5.977  20.618  1.00 11.43 LIG 0.10  C 
BRANCH 37 38
ATOM     38  CD  GLN P   5      18.442   6.889  21.378  1.00 11.64 LIG 0.21  C 
ATOM     39  NE2 GLN P   5      17.172   7.006  21.050  1.00  7.77 LIG-0.37  N 
ATOM     40 21HE GLN P   5      16.854   6.554  20.392  1.00  7.77 LIG 0.16  HD
ATOM     41 22HE GLN P   5      16.660   7.536  21.495  1.00  7.77 LIG 0.16  HD
ATOM     42 OE1  GLN P   5      18.869   7.544  22.318  1.00 11.36 LIG-0.27  OA
ENDBRANCH 37 38
ENDBRANCH 36 37
ENDBRANCH 12 36
ENDBRANCH 10 12
ENDBRANCH 4 8
BRANCH 1 43
ATOM     43  CA  HIS P   3      16.559   4.069  13.752  1.00 30.34 LIG 0.18  C 
BRANCH 43 44
ATOM     44  N   HIS P   3      15.236   3.572  14.058  1.00 35.71 LIG-0.35  N 
ATOM     45  C   CYS P   2      14.812   2.344  13.853  0.17 38.31 LIG 0.24  C 
ATOM     46 O    CYS P   2      15.473   1.513  13.221  0.17 38.29 LIG-0.27  OA
ATOM     47 H    HIS P   3      14.729   4.176  14.401  1.00 35.71 LIG 0.16  HD
BRANCH 45 48
ATOM     48  CA  CYS P   2      13.403   2.126  14.404  0.17 40.64 LIG 0.18  C 
BRANCH 48 49
ATOM     49  N   CYS P   2      12.898   0.745  14.411  0.17 43.25 LIG-0.34  N 
ATOM     50  C   PHE P   1      13.376  -0.236  15.184  0.36 44.98 LIG 0.25  C 
ATOM     51 O    PHE P   1      14.404  -0.110  15.846  0.36 46.44 LIG-0.27  OA
ATOM     52 H    CYS P   2      12.251   0.621  13.858  0.17 43.25 LIG 0.16  HD
BRANCH 50 53
ATOM     53  CA  PHE P   1      12.785  -1.643  15.208  0.36 46.68 LIG 0.28  C 
BRANCH 53 54
ATOM     54  CB  PHE P   1      11.681  -1.610  14.131  0.36 47.92 LIG 0.08  C 
BRANCH 54 55
ATOM     55  CG  PHE P   1      11.816  -2.255  12.754  0.36 47.93 LIG-0.06  A 
ATOM     56  CD1 PHE P   1      13.002  -2.252  12.012  0.36 48.98 LIG 0.01  A 
ATOM     57  CE1 PHE P   1      13.043  -2.878  10.761  0.36 50.12 LIG 0.00  A 
ATOM     58  CZ  PHE P   1      11.909  -3.505  10.245  0.36 48.72 LIG 0.00  A 
ATOM     59  CE2 PHE P   1      10.730  -3.509  10.988  0.36 48.48 LIG 0.00  A 
ATOM     60  CD2 PHE P   1      10.682  -2.888  12.237  0.36 48.25 LIG 0.01  A 
ENDBRANCH 54 55
ENDBRANCH 53 54
BRANCH 53 61
ATOM     61  N   PHE P   1      12.309  -1.695  16.579  0.36 46.83 LIG-0.07  N 
ATOM     62 H3   PHE P   1      11.422  -1.778  16.583  0.36 46.83 LIG 0.28  HD
ATOM     63 H1   PHE P   1      12.673  -2.394  16.993  0.36 46.83 LIG 0.28  HD
ATOM     64 H2   PHE P   1      12.538  -0.947  17.002  0.36 46.83 LIG 0.28  HD
ENDBRANCH 53 61
ENDBRANCH 50 53
ENDBRANCH 48 49
BRANCH 48 65
ATOM     65  CB  CYS P   2      13.387   2.819  15.765  0.17 41.02 LIG 0.10  C 
BRANCH 65 66
ATOM     66 SG   CYS P   2      12.150   4.121  15.553  0.17 41.68 LIG-0.18  SA
ATOM     67 HG   CYS P   2      12.374   4.725  14.540  0.17 41.68 LIG 0.10  HD
ENDBRANCH 65 66
ENDBRANCH 48 65
ENDBRANCH 45 48
ENDBRANCH 43 44
BRANCH 43 68
ATOM     68  CB  HIS P   3      16.772   5.031  12.540  1.00 25.21 LIG 0.10  C 
BRANCH 68 69
ATOM     69  CG  HIS P   3      18.296   5.032  12.190  1.00 21.50 LIG 0.06  A 
ATOM     70 ND1  HIS P   3      18.722   5.094  10.928  1.00 15.93 LIG-0.24  NA
ATOM     71  CE1 HIS P   3      20.024   5.309  11.034  1.00 14.31 LIG 0.23  A 
ATOM     72 NE2  HIS P   3      20.385   5.384  12.306  1.00 14.39 LIG-0.25  NA
ATOM     73  CD2 HIS P   3      19.342   5.208  13.085  1.00 20.69 LIG 0.14  A 
ENDBRANCH 68 69
ENDBRANCH 43 68
ENDBRANCH 1 43
TORSDOF 26
ENDMDL
MODEL 11
USER: ADFR SOLUTION from run 86
USER: SCORE 20.833920 LL:  -6.199 LR: -17.296 RR:   0.000 FEB:  -9.540
USER: RMSD 9.526143
USER: SEED 85
USER: STATUS no improvement in best in 3 clusters for 5 generations
USER: GENES 28
USER: genes 0 Translation |==|  0.49846 0.54468 0.50141
USER: genes 1 Rotation |==|  0.86924 0.75268 0.72159 0.52674
USER: genes 2 Torsion [N]-CA--C-[O] |==|  0.96513
USER: genes 3 Torsion [C]-N--CA-[C] |==|  0.18333
USER: genes 4 Torsion [N]-CA--C-[N] |==|  0.65081
USER: genes 5 Torsion [C]-N--CA-[CB] |==|  0.45701
USER: genes 6 Torsion [N]-CA--CB-[CG] |==|  0.85831
USER: genes 7 Torsion [CA]-CB--CG-[ND2] |==|  0.91933
USER: genes 8 Torsion [N]-CA--C-[N] |==|  0.35209
USER: genes 9 Torsion [C]-N--CA-[CB] |==|  0.64249
USER: genes 10 Torsion [N]-CA--CB-[CG2] |==|  0.70732
USER: genes 11 Torsion [CA]-CB--OG1-[HG1] |==|  0.80675
USER: genes 12 Torsion [N]-CA--C-[N] |==|  0.21223
USER: genes 13 Torsion [N]-CA--CB-[CG] |==|  0.59240
USER: genes 14 Torsion [CA]-CB--CG-[CD] |==|  0.01896
USER: genes 15 Torsion [CB]-CG--CD-[OE1] |==|  0.18012
USER: genes 16 Torsion [N]-C--CA-[N] |==|  0.37365
USER: genes 17 Torsion [C]-CA--N-[C] |==|  0.82364
USER: genes 18 Torsion [N]-C--CA-[N] |==|  0.49127
USER: genes 19 Torsion [C]-CA--N-[C] |==|  0.55554
USER: genes 20 Torsion [N]-C--CA-[N] |==|  0.52900
USER: genes 21 Torsion [C]-CA--CB-[CG] |==|  0.22669
USER: genes 22 Torsion [CA]-CB--CG-[CD1] |==|  0.20291
USER: genes 23 Torsion [C]-CA--N-[H3] |==|  0.45178
USER: genes 24 Torsion [C]-CA--CB-[SG] |==|  0.31371
USER: genes 25 Torsion [CA]-CB--SG-[HG] |==|  0.89225
USER: genes 26 Torsion [C]-CA--CB-[CG] |==|  0.72887
USER: genes 27 Torsion [CA]-CB--CG-[ND1] |==|  0.35590
ROOT
ATOM      1  C   HIS P   3      17.140   2.636  17.076  1.00 29.14 LIG 0.24  C 
ATOM      2 O    HIS P   3      16.647   1.770  16.330  1.00 31.23 LIG-0.27  OA
ATOM      3  N   PRO P   4      18.219   2.370  17.832  1.00 24.67 LIG-0.34  N 
ATOM      4  CA  PRO P   4      18.818   1.056  17.894  1.00 22.95 LIG 0.18  C 
ATOM      5  CB  PRO P   4      20.030   1.220  18.799  1.00 20.99 LIG 0.04  C 
ATOM      6  CG  PRO P   4      20.224   2.706  19.003  1.00 22.70 LIG 0.02  C 
ATOM      7  CD  PRO P   4      18.892   3.318  18.754  1.00 21.81 LIG 0.13  C 
ENDROOT
BRANCH 4 8
ATOM      8  C   PRO P   4      17.937  -0.088  18.378  1.00 19.64 LIG 0.24  C 
ATOM      9 O    PRO P   4      16.857   0.174  18.909  1.00 20.88 LIG-0.27  OA
ATOM     10  N   GLN P   5      18.344  -1.349  18.155  1.00 22.98 LIG-0.35  N 
ATOM     11 H    GLN P   5      19.096  -1.547  17.789  1.00 22.98 LIG 0.16  HD
BRANCH 10 12
ATOM     12  CA  GLN P   5      17.541  -2.513  18.517  1.00 16.98 LIG 0.18  C 
BRANCH 12 13
ATOM     13  C   GLN P   5      16.249  -2.651  17.737  1.00 21.89 LIG 0.24  C 
ATOM     14  N   ASN P   6      15.062  -2.768  18.335  1.00 22.75 LIG-0.35  N 
ATOM     15 H    ASN P   6      14.912  -2.786  19.182  1.00 22.75 LIG 0.16  HD
ATOM     16 O    GLN P   5      16.322  -2.663  16.501  1.00 24.56 LIG-0.27  OA
BRANCH 14 17
ATOM     17  CA  ASN P   6      13.916  -2.874  17.464  1.00 29.16 LIG 0.18  C 
BRANCH 17 18
ATOM     18  CB  ASN P   6      12.640  -3.375  18.156  1.00 24.89 LIG 0.14  C 
BRANCH 18 19
ATOM     19  CG  ASN P   6      12.861  -4.651  18.947  1.00 26.77 LIG 0.22  C 
ATOM     20 OD1  ASN P   6      12.203  -4.987  19.948  1.00 24.78 LIG-0.27  OA
ATOM     21  ND2 ASN P   6      13.819  -5.413  18.467  1.00 25.10 LIG-0.37  N 
ATOM     22 22HD ASN P   6      14.262  -5.162  17.773  1.00 25.10 LIG 0.16  HD
ATOM     23 21HD ASN P   6      14.003  -6.163  18.845  1.00 25.10 LIG 0.16  HD
ENDBRANCH 18 19
ENDBRANCH 17 18
BRANCH 17 24
ATOM     24  C   ASN P   6      13.585  -1.566  16.860  1.00 33.65 LIG 0.24  C 
ATOM     25 O    ASN P   6      13.523  -0.534  17.521  1.00 34.15 LIG-0.27  OA
ATOM     26  N   THR P   7      13.542  -1.793  15.551  1.00 46.42 LIG-0.34  N 
ATOM     27 H    THR P   7      13.720  -2.578  15.247  1.00 46.42 LIG 0.16  HD
BRANCH 26 28
ATOM     28  CA  THR P   7      13.225  -0.882  14.462  1.00 55.98 LIG 0.21  C 
BRANCH 28 29
ATOM     29  CB  THR P   7      12.124  -1.683  13.665  1.00 59.10 LIG 0.15  C 
ATOM     30  CG2 THR P   7      12.647  -2.284  12.347  1.00 61.71 LIG 0.04  C 
BRANCH 29 31
ATOM     31 OG1  THR P   7      11.612  -2.672  14.562  1.00 60.27 LIG-0.39  OA
ATOM     32 HG1  THR P   7      12.201  -3.255  14.701  1.00 60.27 LIG 0.21  HD
ENDBRANCH 29 31
ENDBRANCH 28 29
BRANCH 28 33
ATOM     33  C   THR P   7      12.868   0.591  14.695  1.00 57.95 LIG 0.29  C 
ATOM     34  N   NH2 P   8      13.904   1.374  14.971  1.00 58.98 LIG-0.11  N 
ATOM     35 O    THR P   7      11.715   1.033  14.702  1.00 60.38 LIG-0.27  OA
ENDBRANCH 28 33
ENDBRANCH 26 28
ENDBRANCH 17 24
ENDBRANCH 14 17
ENDBRANCH 12 13
BRANCH 12 36
ATOM     36  CB  GLN P   5      17.251  -2.475  20.005  1.00 11.38 LIG 0.04  C 
BRANCH 36 37
ATOM     37  CG  GLN P   5      17.178  -3.872  20.616  1.00 11.43 LIG 0.10  C 
BRANCH 37 38
ATOM     38  CD  GLN P   5      17.565  -5.003  19.674  1.00 11.64 LIG 0.21  C 
ATOM     39  NE2 GLN P   5      16.703  -5.925  19.295  1.00  7.77 LIG-0.37  N 
ATOM     40 21HE GLN P   5      15.891  -5.895  19.576  1.00  7.77 LIG 0.16  HD
ATOM     41 22HE GLN P   5      16.953  -6.556  18.767  1.00  7.77 LIG 0.16  HD
ATOM     42 OE1  GLN P   5      18.713  -5.068  19.261  1.00 11.36 LIG-0.27  OA
ENDBRANCH 37 38
ENDBRANCH 36 37
ENDBRANCH 12 36
ENDBRANCH 10 12
ENDBRANCH 4 8
BRANCH 1 43
ATOM     43  CA  HIS P   3      16.586   4.059  17.051  1.00 30.34 LIG 0.18  C 
BRANCH 43 44
ATOM     44  N   HIS P   3      16.417   4.136  15.616  1.00 35.71 LIG-0.35  N 
ATOM     45  C   CYS P   2      17.384   4.075  14.726  0.17 38.31 LIG 0.24  C 
ATOM     46 O    CYS P   2      18.578   4.101  15.044  0.17 38.29 LIG-0.27  OA
ATOM     47 H    HIS P   3      15.593   4.228  15.386  1.00 35.71 LIG 0.16  HD
BRANCH 45 48
ATOM     48  CA  CYS P   2      16.845   4.063  13.296  0.17 40.64 LIG 0.18  C 
BRANCH 48 49
ATOM     49  N   CYS P   2      17.838   4.070  12.211  0.17 43.25 LIG-0.34  N 
ATOM     50  C   PHE P   1      17.585   4.437  10.951  0.36 44.98 LIG 0.25  C 
ATOM     51 O    PHE P   1      16.445   4.645  10.542  0.36 46.44 LIG-0.27  OA
ATOM     52 H    CYS P   2      18.616   3.808  12.468  0.17 43.25 LIG 0.16  HD
BRANCH 50 53
ATOM     53  CA  PHE P   1      18.658   4.490   9.867  0.36 46.68 LIG 0.28  C 
BRANCH 53 54
ATOM     54  CB  PHE P   1      19.804   5.301  10.503  0.36 47.92 LIG 0.08  C 
BRANCH 54 55
ATOM     55  CG  PHE P   1      20.840   4.709  11.456  0.36 47.93 LIG-0.06  A 
ATOM     56  CD1 PHE P   1      21.872   3.858  11.045  0.36 48.98 LIG 0.01  A 
ATOM     57  CE1 PHE P   1      22.788   3.369  11.982  0.36 50.12 LIG 0.00  A 
ATOM     58  CZ  PHE P   1      22.680   3.721  13.328  0.36 48.72 LIG 0.00  A 
ATOM     59  CE2 PHE P   1      21.653   4.570  13.734  0.36 48.48 LIG 0.00  A 
ATOM     60  CD2 PHE P   1      20.736   5.064  12.804  0.36 48.25 LIG 0.01  A 
ENDBRANCH 54 55
ENDBRANCH 53 54
BRANCH 53 61
ATOM     61  N   PHE P   1      17.925   5.175   8.817  0.36 46.83 LIG-0.07  N 
ATOM     62 H3   PHE P   1      18.498   5.497   8.215  0.36 46.83 LIG 0.28  HD
ATOM     63 H1   PHE P   1      17.370   4.603   8.421  0.36 46.83 LIG 0.28  HD
ATOM     64 H2   PHE P   1      17.459   5.846   9.170  0.36 46.83 LIG 0.28  HD
ENDBRANCH 53 61
ENDBRANCH 50 53
ENDBRANCH 48 49
BRANCH 48 65
ATOM     65  CB  CYS P   2      15.851   2.904  13.246  0.17 41.02 LIG 0.10  C 
BRANCH 65 66
ATOM     66 SG   CYS P   2      14.260   3.733  13.014  0.17 41.68 LIG-0.18  SA
ATOM     67 HG   CYS P   2      14.233   4.738  13.669  0.17 41.68 LIG 0.10  HD
ENDBRANCH 65 66
ENDBRANCH 48 65
ENDBRANCH 45 48
ENDBRANCH 43 44
BRANCH 43 68
ATOM     68  CB  HIS P   3      15.338   4.094  17.988  1.00 25.21 LIG 0.10  C 
BRANCH 68 69
ATOM     69  CG  HIS P   3      14.063   3.939  17.096  1.00 21.50 LIG 0.06  A 
ATOM     70 ND1  HIS P   3      13.133   3.021  17.361  1.00 15.93 LIG-0.24  NA
ATOM     71  CE1 HIS P   3      12.125   3.338  16.563  1.00 14.31 LIG 0.23  A 
ATOM     72 NE2  HIS P   3      12.417   4.411  15.843  1.00 14.39 LIG-0.25  NA
ATOM     73  CD2 HIS P   3      13.629   4.832  16.126  1.00 20.69 LIG 0.14  A 
ENDBRANCH 68 69
ENDBRANCH 43 68
ENDBRANCH 1 43
TORSDOF 26
ENDMDL
MODEL 12
USER: ADFR SOLUTION from run 73
USER: SCORE 21.837367 LL:  -5.955 LR: -17.252 RR:   0.000 FEB:  -9.497
USER: RMSD 9.682979
USER: SEED 72
USER: STATUS 1 or 2 clusters left
USER: GENES 28
USER: genes 0 Translation |==|  0.53961 0.63093 0.42774
USER: genes 1 Rotation |==|  0.28206 0.09565 0.64116 0.63811
USER: genes 2 Torsion [N]-CA--C-[O] |==|  0.65604
USER: genes 3 Torsion [C]-N--CA-[C] |==|  0.78154
USER: genes 4 Torsion [N]-CA--C-[N] |==|  0.99330
USER: genes 5 Torsion [C]-N--CA-[CB] |==|  0.81111
USER: genes 6 Torsion [N]-CA--CB-[CG] |==|  0.98368
USER: genes 7 Torsion [CA]-CB--CG-[ND2] |==|  0.77873
USER: genes 8 Torsion [N]-CA--C-[N] |==|  0.15159
USER: genes 9 Torsion [C]-N--CA-[CB] |==|  0.85262
USER: genes 10 Torsion [N]-CA--CB-[CG2] |==|  0.31242
USER: genes 11 Torsion [CA]-CB--OG1-[HG1] |==|  0.27643
USER: genes 12 Torsion [N]-CA--C-[N] |==|  0.90926
USER: genes 13 Torsion [N]-CA--CB-[CG] |==|  0.72466
USER: genes 14 Torsion [CA]-CB--CG-[CD] |==|  0.90660
USER: genes 15 Torsion [CB]-CG--CD-[OE1] |==|  0.40719
USER: genes 16 Torsion [N]-C--CA-[N] |==|  0.27069
USER: genes 17 Torsion [C]-CA--N-[C] |==|  0.59503
USER: genes 18 Torsion [N]-C--CA-[N] |==|  0.89057
USER: genes 19 Torsion [C]-CA--N-[C] |==|  0.79152
USER: genes 20 Torsion [N]-C--CA-[N] |==|  0.44786
USER: genes 21 Torsion [C]-CA--CB-[CG] |==|  0.66122
USER: genes 22 Torsion [CA]-CB--CG-[CD1] |==|  0.08154
USER: genes 23 Torsion [C]-CA--N-[H3] |==|  0.49171
USER: genes 24 Torsion [C]-CA--CB-[SG] |==|  0.25339
USER: genes 25 Torsion [CA]-CB--SG-[HG] |==|  0.16859
USER: genes 26 Torsion [C]-CA--CB-[CG] |==|  0.22637
USER: genes 27 Torsion [CA]-CB--CG-[ND1] |==|  0.06406
ROOT
ATOM      1  C   HIS P   3      18.034   4.189  15.418  1.00 29.14 LIG 0.24  C 
ATOM      2 O    HIS P   3      18.565   3.071  15.554  1.00 31.23 LIG-0.27  OA
ATOM      3  N   PRO P   4      18.429   5.032  14.448  1.00 24.67 LIG-0.34  N 
ATOM      4  CA  PRO P   4      19.537   4.737  13.568  1.00 22.95 LIG 0.18  C 
ATOM      5  CB  PRO P   4      19.591   5.910  12.600  1.00 20.99 LIG 0.04  C 
ATOM      6  CG  PRO P   4      18.323   6.707  12.809  1.00 22.70 LIG 0.02  C 
ATOM      7  CD  PRO P   4      17.873   6.383  14.188  1.00 21.81 LIG 0.13  C 
ENDROOT
BRANCH 4 8
ATOM      8  C   PRO P   4      20.897   4.510  14.212  1.00 19.64 LIG 0.24  C 
ATOM      9 O    PRO P   4      21.850   5.204  13.853  1.00 20.88 LIG-0.27  OA
ATOM     10  N   GLN P   5      20.999   3.597  15.192  1.00 22.98 LIG-0.35  N 
ATOM     11 H    GLN P   5      20.344   3.103  15.449  1.00 22.98 LIG 0.16  HD
BRANCH 10 12
ATOM     12  CA  GLN P   5      22.241   3.354  15.919  1.00 16.98 LIG 0.18  C 
BRANCH 12 13
ATOM     13  C   GLN P   5      23.248   2.502  15.174  1.00 21.89 LIG 0.24  C 
ATOM     14  N   ASN P   6      22.991   1.979  13.972  1.00 22.75 LIG-0.35  N 
ATOM     15 H    ASN P   6      22.263   2.057  13.522  1.00 22.75 LIG 0.16  HD
ATOM     16 O    GLN P   5      24.337   2.287  15.721  1.00 24.56 LIG-0.27  OA
BRANCH 14 17
ATOM     17  CA  ASN P   6      24.052   1.203  13.375  1.00 29.16 LIG 0.18  C 
BRANCH 17 18
ATOM     18  CB  ASN P   6      25.283   2.024  12.967  1.00 24.89 LIG 0.14  C 
BRANCH 18 19
ATOM     19  CG  ASN P   6      25.081   3.517  13.145  1.00 26.77 LIG 0.22  C 
ATOM     20 OD1  ASN P   6      25.527   4.184  14.096  1.00 24.78 LIG-0.27  OA
ATOM     21  ND2 ASN P   6      24.393   4.079  12.175  1.00 25.10 LIG-0.37  N 
ATOM     22 22HD ASN P   6      24.094   3.600  11.527  1.00 25.10 LIG 0.16  HD
ATOM     23 21HD ASN P   6      24.243   4.925  12.188  1.00 25.10 LIG 0.16  HD
ENDBRANCH 18 19
ENDBRANCH 17 18
BRANCH 17 24
ATOM     24  C   ASN P   6      24.529   0.155  14.301  1.00 33.65 LIG 0.24  C 
ATOM     25 O    ASN P   6      25.686   0.114  14.706  1.00 34.15 LIG-0.27  OA
ATOM     26  N   THR P   7      23.440  -0.529  14.636  1.00 46.42 LIG-0.34  N 
ATOM     27 H    THR P   7      22.672  -0.289  14.331  1.00 46.42 LIG 0.16  HD
BRANCH 26 28
ATOM     28  CA  THR P   7      23.306  -1.698  15.492  1.00 55.98 LIG 0.21  C 
BRANCH 28 29
ATOM     29  CB  THR P   7      24.350  -2.698  14.859  1.00 59.10 LIG 0.15  C 
ATOM     30  CG2 THR P   7      25.553  -2.980  15.778  1.00 61.71 LIG 0.04  C 
BRANCH 29 31
ATOM     31 OG1  THR P   7      23.623  -3.881  14.517  1.00 60.27 LIG-0.39  OA
ATOM     32 HG1  THR P   7      23.444  -3.872  13.696  1.00 60.27 LIG 0.21  HD
ENDBRANCH 29 31
ENDBRANCH 28 29
BRANCH 28 33
ATOM     33  C   THR P   7      23.383  -1.615  17.021  1.00 57.95 LIG 0.29  C 
ATOM     34  N   NH2 P   8      24.197  -0.674  17.484  1.00 58.98 LIG-0.11  N 
ATOM     35 O    THR P   7      22.801  -2.389  17.788  1.00 60.38 LIG-0.27  OA
ENDBRANCH 28 33
ENDBRANCH 26 28
ENDBRANCH 17 24
ENDBRANCH 14 17
ENDBRANCH 12 13
BRANCH 12 36
ATOM     36  CB  GLN P   5      21.917   2.726  17.261  1.00 11.38 LIG 0.04  C 
BRANCH 36 37
ATOM     37  CG  GLN P   5      21.924   3.748  18.395  1.00 11.43 LIG 0.10  C 
BRANCH 37 38
ATOM     38  CD  GLN P   5      22.939   4.871  18.237  1.00 11.64 LIG 0.21  C 
ATOM     39  NE2 GLN P   5      24.111   4.682  17.666  1.00  7.77 LIG-0.37  N 
ATOM     40 21HE GLN P   5      24.320   3.905  17.363  1.00  7.77 LIG 0.16  HD
ATOM     41 22HE GLN P   5      24.666   5.335  17.597  1.00  7.77 LIG 0.16  HD
ATOM     42 OE1  GLN P   5      22.665   5.984  18.661  1.00 11.36 LIG-0.27  OA
ENDBRANCH 37 38
ENDBRANCH 36 37
ENDBRANCH 12 36
ENDBRANCH 10 12
ENDBRANCH 4 8
BRANCH 1 43
ATOM     43  CA  HIS P   3      16.839   4.569  16.288  1.00 30.34 LIG 0.18  C 
BRANCH 43 44
ATOM     44  N   HIS P   3      15.859   3.800  15.552  1.00 35.71 LIG-0.35  N 
ATOM     45  C   CYS P   2      14.602   4.140  15.364  0.17 38.31 LIG 0.24  C 
ATOM     46 O    CYS P   2      14.083   5.101  15.941  0.17 38.29 LIG-0.27  OA
ATOM     47 H    HIS P   3      16.185   3.070  15.235  1.00 35.71 LIG 0.16  HD
BRANCH 45 48
ATOM     48  CA  CYS P   2      13.879   3.162  14.438  0.17 40.64 LIG 0.18  C 
BRANCH 48 49
ATOM     49  N   CYS P   2      14.638   2.653  13.286  0.17 43.25 LIG-0.34  N 
ATOM     50  C   PHE P   1      14.909   3.357  12.182  0.36 44.98 LIG 0.25  C 
ATOM     51 O    PHE P   1      14.396   4.451  11.957  0.36 46.44 LIG-0.27  OA
ATOM     52 H    CYS P   2      14.899   1.839  13.389  0.17 43.25 LIG 0.16  HD
BRANCH 50 53
ATOM     53  CA  PHE P   1      15.754   2.814  11.033  0.36 46.68 LIG 0.28  C 
BRANCH 53 54
ATOM     54  CB  PHE P   1      17.208   2.975  11.520  0.36 47.92 LIG 0.08  C 
BRANCH 54 55
ATOM     55  CG  PHE P   1      18.271   3.783  10.777  0.36 47.93 LIG-0.06  A 
ATOM     56  CD1 PHE P   1      17.979   4.891   9.975  0.36 48.98 LIG 0.01  A 
ATOM     57  CE1 PHE P   1      19.015   5.583   9.338  0.36 50.12 LIG 0.00  A 
ATOM     58  CZ  PHE P   1      20.340   5.175   9.496  0.36 48.72 LIG 0.00  A 
ATOM     59  CE2 PHE P   1      20.628   4.072  10.297  0.36 48.48 LIG 0.00  A 
ATOM     60  CD2 PHE P   1      19.599   3.378  10.936  0.36 48.25 LIG 0.01  A 
ENDBRANCH 54 55
ENDBRANCH 53 54
BRANCH 53 61
ATOM     61  N   PHE P   1      15.354   3.721   9.972  0.36 46.83 LIG-0.07  N 
ATOM     62 H3   PHE P   1      15.817   3.539   9.234  0.36 46.83 LIG 0.28  HD
ATOM     63 H1   PHE P   1      14.484   3.622   9.809  0.36 46.83 LIG 0.28  HD
ATOM     64 H2   PHE P   1      15.515   4.560  10.222  0.36 46.83 LIG 0.28  HD
ENDBRANCH 53 61
ENDBRANCH 50 53
ENDBRANCH 48 49
BRANCH 48 65
ATOM     65  CB  CYS P   2      13.306   2.082  15.353  0.17 41.02 LIG 0.10  C 
BRANCH 65 66
ATOM     66 SG   CYS P   2      11.654   2.704  15.745  0.17 41.68 LIG-0.18  SA
ATOM     67 HG   CYS P   2      11.018   2.817  14.733  0.17 41.68 LIG 0.10  HD
ENDBRANCH 65 66
ENDBRANCH 48 65
ENDBRANCH 45 48
ENDBRANCH 43 44
BRANCH 43 68
ATOM     68  CB  HIS P   3      17.188   4.185  17.761  1.00 25.21 LIG 0.10  C 
BRANCH 68 69
ATOM     69  CG  HIS P   3      18.071   5.329  18.359  1.00 21.50 LIG 0.06  A 
ATOM     70 ND1  HIS P   3      18.042   6.565  17.859  1.00 15.93 LIG-0.24  NA
ATOM     71  CE1 HIS P   3      18.714   7.289  18.743  1.00 14.31 LIG 0.23  A 
ATOM     72 NE2  HIS P   3      19.132   6.533  19.747  1.00 14.39 LIG-0.25  NA
ATOM     73  CD2 HIS P   3      18.766   5.285  19.560  1.00 20.69 LIG 0.14  A 
ENDBRANCH 68 69
ENDBRANCH 43 68
ENDBRANCH 1 43
TORSDOF 26
ENDMDL
MODEL 13
USER: ADFR SOLUTION from run 123
USER: SCORE 20.996641 LL:  -5.702 LR: -17.171 RR:   0.000 FEB:  -9.415
USER: RMSD 8.516151
USER: SEED 122
USER: STATUS no improvement in best in 1 clusters for 5 generations
USER: GENES 28
USER: genes 0 Translation |==|  0.56292 0.64781 0.40604
USER: genes 1 Rotation |==|  0.70728 0.61558 0.77790 0.84124
USER: genes 2 Torsion [N]-CA--C-[O] |==|  0.56717
USER: genes 3 Torsion [C]-N--CA-[C] |==|  0.83805
USER: genes 4 Torsion [N]-CA--C-[N] |==|  0.35556
USER: genes 5 Torsion [C]-N--CA-[CB] |==|  0.20303
USER: genes 6 Torsion [N]-CA--CB-[CG] |==|  0.67040
USER: genes 7 Torsion [CA]-CB--CG-[ND2] |==|  0.85087
USER: genes 8 Torsion [N]-CA--C-[N] |==|  0.35683
USER: genes 9 Torsion [C]-N--CA-[CB] |==|  0.69277
USER: genes 10 Torsion [N]-CA--CB-[CG2] |==|  0.62833
USER: genes 11 Torsion [CA]-CB--OG1-[HG1] |==|  0.70508
USER: genes 12 Torsion [N]-CA--C-[N] |==|  0.27719
USER: genes 13 Torsion [N]-CA--CB-[CG] |==|  0.07287
USER: genes 14 Torsion [CA]-CB--CG-[CD] |==|  0.50613
USER: genes 15 Torsion [CB]-CG--CD-[OE1] |==|  0.71125
USER: genes 16 Torsion [N]-C--CA-[N] |==|  0.29024
USER: genes 17 Torsion [C]-CA--N-[C] |==|  0.73641
USER: genes 18 Torsion [N]-C--CA-[N] |==|  0.25730
USER: genes 19 Torsion [C]-CA--N-[C] |==|  0.73038
USER: genes 20 Torsion [N]-C--CA-[N] |==|  0.84027
USER: genes 21 Torsion [C]-CA--CB-[CG] |==|  0.20683
USER: genes 22 Torsion [CA]-CB--CG-[CD1] |==|  0.23222
USER: genes 23 Torsion [C]-CA--N-[H3] |==|  0.33426
USER: genes 24 Torsion [C]-CA--CB-[SG] |==|  0.76435
USER: genes 25 Torsion [CA]-CB--SG-[HG] |==|  0.90098
USER: genes 26 Torsion [C]-CA--CB-[CG] |==|  0.70382
USER: genes 27 Torsion [CA]-CB--CG-[ND1] |==|  0.83046
ROOT
ATOM      1  C   HIS P   3      18.541   4.493  14.930  1.00 29.14 LIG 0.24  C 
ATOM      2 O    HIS P   3      18.225   3.424  14.375  1.00 31.23 LIG-0.27  OA
ATOM      3  N   PRO P   4      18.075   4.806  16.152  1.00 24.67 LIG-0.34  N 
ATOM      4  CA  PRO P   4      17.122   3.977  16.854  1.00 22.95 LIG 0.18  C 
ATOM      5  CB  PRO P   4      16.925   4.660  18.199  1.00 20.99 LIG 0.04  C 
ATOM      6  CG  PRO P   4      17.995   5.723  18.309  1.00 22.70 LIG 0.02  C 
ATOM      7  CD  PRO P   4      18.381   6.044  16.910  1.00 21.81 LIG 0.13  C 
ENDROOT
BRANCH 4 8
ATOM      8  C   PRO P   4      15.781   3.730  16.176  1.00 19.64 LIG 0.24  C 
ATOM      9 O    PRO P   4      14.806   3.439  16.871  1.00 20.88 LIG-0.27  OA
ATOM     10  N   GLN P   5      15.694   3.894  14.845  1.00 22.98 LIG-0.35  N 
ATOM     11 H    GLN P   5      16.366   4.093  14.348  1.00 22.98 LIG 0.16  HD
BRANCH 10 12
ATOM     12  CA  GLN P   5      14.440   3.750  14.112  1.00 16.98 LIG 0.18  C 
BRANCH 12 13
ATOM     13  C   GLN P   5      13.780   2.394  14.260  1.00 21.89 LIG 0.24  C 
ATOM     14  N   ASN P   6      12.503   2.257  14.624  1.00 22.75 LIG-0.35  N 
ATOM     15 H    ASN P   6      11.951   2.889  14.813  1.00 22.75 LIG 0.16  HD
ATOM     16 O    GLN P   5      14.471   1.390  14.042  1.00 24.56 LIG-0.27  OA
BRANCH 14 17
ATOM     17  CA  ASN P   6      12.005   0.904  14.708  1.00 29.16 LIG 0.18  C 
BRANCH 17 18
ATOM     18  CB  ASN P   6      12.524   0.114  15.917  1.00 24.89 LIG 0.14  C 
BRANCH 18 19
ATOM     19  CG  ASN P   6      13.321  -1.115  15.520  1.00 26.77 LIG 0.22  C 
ATOM     20 OD1  ASN P   6      14.465  -1.382  15.930  1.00 24.78 LIG-0.27  OA
ATOM     21  ND2 ASN P   6      12.682  -1.918  14.697  1.00 25.10 LIG-0.37  N 
ATOM     22 22HD ASN P   6      11.891  -1.715  14.425  1.00 25.10 LIG 0.16  HD
ATOM     23 21HD ASN P   6      13.054  -2.646  14.431  1.00 25.10 LIG 0.16  HD
ENDBRANCH 18 19
ENDBRANCH 17 18
BRANCH 17 24
ATOM     24  C   ASN P   6      10.530   0.886  14.791  1.00 33.65 LIG 0.24  C 
ATOM     25 O    ASN P   6       9.903   1.638  15.530  1.00 34.15 LIG-0.27  OA
ATOM     26  N   THR P   7      10.143   0.042  13.839  1.00 46.42 LIG-0.34  N 
ATOM     27 H    THR P   7      10.730  -0.328  13.330  1.00 46.42 LIG 0.16  HD
BRANCH 26 28
ATOM     28  CA  THR P   7       8.804  -0.400  13.481  1.00 55.98 LIG 0.21  C 
BRANCH 28 29
ATOM     29  CB  THR P   7       8.818  -1.912  13.933  1.00 59.10 LIG 0.15  C 
ATOM     30  CG2 THR P   7       8.236  -2.866  12.873  1.00 61.71 LIG 0.04  C 
BRANCH 29 31
ATOM     31 OG1  THR P   7      10.171  -2.221  14.275  1.00 60.27 LIG-0.39  OA
ATOM     32 HG1  THR P   7      10.509  -2.702  13.674  1.00 60.27 LIG 0.21  HD
ENDBRANCH 29 31
ENDBRANCH 28 29
BRANCH 28 33
ATOM     33  C   THR P   7       7.542   0.359  13.907  1.00 57.95 LIG 0.29  C 
ATOM     34  N   NH2 P   8       7.024   1.141  12.968  1.00 58.98 LIG-0.11  N 
ATOM     35 O    THR P   7       7.060   0.322  15.043  1.00 60.38 LIG-0.27  OA
ENDBRANCH 28 33
ENDBRANCH 26 28
ENDBRANCH 17 24
ENDBRANCH 14 17
ENDBRANCH 12 13
BRANCH 12 36
ATOM     36  CB  GLN P   5      14.683   4.055  12.646  1.00 11.38 LIG 0.04  C 
BRANCH 36 37
ATOM     37  CG  GLN P   5      16.128   3.792  12.232  1.00 11.43 LIG 0.10  C 
BRANCH 37 38
ATOM     38  CD  GLN P   5      16.451   4.129  10.784  1.00 11.64 LIG 0.21  C 
ATOM     39  NE2 GLN P   5      16.602   5.371  10.371  1.00  7.77 LIG-0.37  N 
ATOM     40 21HE GLN P   5      16.526   6.021  10.928  1.00  7.77 LIG 0.16  HD
ATOM     41 22HE GLN P   5      16.778   5.531   9.544  1.00  7.77 LIG 0.16  HD
ATOM     42 OE1  GLN P   5      16.564   3.223   9.972  1.00 11.36 LIG-0.27  OA
ENDBRANCH 37 38
ENDBRANCH 36 37
ENDBRANCH 12 36
ENDBRANCH 10 12
ENDBRANCH 4 8
BRANCH 1 43
ATOM     43  CA  HIS P   3      19.565   5.413  14.270  1.00 30.34 LIG 0.18  C 
BRANCH 43 44
ATOM     44  N   HIS P   3      20.711   4.561  14.497  1.00 35.71 LIG-0.35  N 
ATOM     45  C   CYS P   2      21.544   4.649  15.512  0.17 38.31 LIG 0.24  C 
ATOM     46 O    CYS P   2      21.515   5.592  16.311  0.17 38.29 LIG-0.27  OA
ATOM     47 H    HIS P   3      20.805   3.965  13.884  1.00 35.71 LIG 0.16  HD
BRANCH 45 48
ATOM     48  CA  CYS P   2      22.570   3.516  15.510  0.17 40.64 LIG 0.18  C 
BRANCH 48 49
ATOM     49  N   CYS P   2      23.849   3.779  14.832  0.17 43.25 LIG-0.34  N 
ATOM     50  C   PHE P   1      24.134   3.414  13.579  0.36 44.98 LIG 0.25  C 
ATOM     51 O    PHE P   1      23.405   2.667  12.928  0.36 46.44 LIG-0.27  OA
ATOM     52 H    CYS P   2      24.411   4.201  15.329  0.17 43.25 LIG 0.16  HD
BRANCH 50 53
ATOM     53  CA  PHE P   1      25.450   3.759  12.888  0.36 46.68 LIG 0.28  C 
BRANCH 53 54
ATOM     54  CB  PHE P   1      26.525   3.058  13.744  0.36 47.92 LIG 0.08  C 
BRANCH 54 55
ATOM     55  CG  PHE P   1      26.775   1.552  13.729  0.36 47.93 LIG-0.06  A 
ATOM     56  CD1 PHE P   1      27.577   0.910  12.779  0.36 48.98 LIG 0.01  A 
ATOM     57  CE1 PHE P   1      27.764  -0.475  12.846  0.36 50.12 LIG 0.00  A 
ATOM     58  CZ  PHE P   1      27.156  -1.224  13.854  0.36 48.72 LIG 0.00  A 
ATOM     59  CE2 PHE P   1      26.360  -0.581  14.800  0.36 48.48 LIG 0.00  A 
ATOM     60  CD2 PHE P   1      26.169   0.800  14.740  0.36 48.25 LIG 0.01  A 
ENDBRANCH 54 55
ENDBRANCH 53 54
BRANCH 53 61
ATOM     61  N   PHE P   1      25.422   5.207  12.997  0.36 46.83 LIG-0.07  N 
ATOM     62 H3   PHE P   1      26.134   5.485  13.455  0.36 46.83 LIG 0.28  HD
ATOM     63 H1   PHE P   1      25.435   5.567  12.183  0.36 46.83 LIG 0.28  HD
ATOM     64 H2   PHE P   1      24.681   5.459  13.421  0.36 46.83 LIG 0.28  HD
ENDBRANCH 53 61
ENDBRANCH 50 53
ENDBRANCH 48 49
BRANCH 48 65
ATOM     65  CB  CYS P   2      22.698   3.080  16.969  0.17 41.02 LIG 0.10  C 
BRANCH 65 66
ATOM     66 SG   CYS P   2      23.914   4.238  17.641  0.17 41.68 LIG-0.18  SA
ATOM     67 HG   CYS P   2      24.735   4.488  16.803  0.17 41.68 LIG 0.10  HD
ENDBRANCH 65 66
ENDBRANCH 48 65
ENDBRANCH 45 48
ENDBRANCH 43 44
BRANCH 43 68
ATOM     68  CB  HIS P   3      19.075   5.694  12.814  1.00 25.21 LIG 0.10  C 
BRANCH 68 69
ATOM     69  CG  HIS P   3      19.991   4.887  11.836  1.00 21.50 LIG 0.06  A 
ATOM     70 ND1  HIS P   3      21.304   5.108  11.768  1.00 15.93 LIG-0.24  NA
ATOM     71  CE1 HIS P   3      21.765   4.108  11.032  1.00 14.31 LIG 0.23  A 
ATOM     72 NE2  HIS P   3      20.779   3.301  10.668  1.00 14.39 LIG-0.25  NA
ATOM     73  CD2 HIS P   3      19.634   3.743  11.136  1.00 20.69 LIG 0.14  A 
ENDBRANCH 68 69
ENDBRANCH 43 68
ENDBRANCH 1 43
TORSDOF 26
ENDMDL
MODEL 14
USER: ADFR SOLUTION from run 6
USER: SCORE 20.774220 LL:  -5.987 LR: -17.162 RR:   0.000 FEB:  -9.406
USER: RMSD 9.369692
USER: SEED 155991
USER: STATUS 1 or 2 clusters left
USER: GENES 28
USER: genes 0 Translation |==|  0.56201 0.66235 0.52032
USER: genes 1 Rotation |==|  0.93879 0.36796 0.33594 0.61452
USER: genes 2 Torsion [N]-CA--C-[O] |==|  0.53892
USER: genes 3 Torsion [C]-N--CA-[C] |==|  0.81667
USER: genes 4 Torsion [N]-CA--C-[N] |==|  0.23355
USER: genes 5 Torsion [C]-N--CA-[CB] |==|  0.19024
USER: genes 6 Torsion [N]-CA--CB-[CG] |==|  0.15361
USER: genes 7 Torsion [CA]-CB--CG-[ND2] |==|  0.35337
USER: genes 8 Torsion [N]-CA--C-[N] |==|  0.08191
USER: genes 9 Torsion [C]-N--CA-[CB] |==|  0.18835
USER: genes 10 Torsion [N]-CA--CB-[CG2] |==|  0.25302
USER: genes 11 Torsion [CA]-CB--OG1-[HG1] |==|  0.93625
USER: genes 12 Torsion [N]-CA--C-[N] |==|  0.05059
USER: genes 13 Torsion [N]-CA--CB-[CG] |==|  0.57555
USER: genes 14 Torsion [CA]-CB--CG-[CD] |==|  0.46596
USER: genes 15 Torsion [CB]-CG--CD-[OE1] |==|  0.62355
USER: genes 16 Torsion [N]-C--CA-[N] |==|  0.28462
USER: genes 17 Torsion [C]-CA--N-[C] |==|  0.77081
USER: genes 18 Torsion [N]-C--CA-[N] |==|  0.25272
USER: genes 19 Torsion [C]-CA--N-[C] |==|  0.14491
USER: genes 20 Torsion [N]-C--CA-[N] |==|  0.90636
USER: genes 21 Torsion [C]-CA--CB-[CG] |==|  0.08895
USER: genes 22 Torsion [CA]-CB--CG-[CD1] |==|  0.77909
USER: genes 23 Torsion [C]-CA--N-[H3] |==|  0.40628
USER: genes 24 Torsion [C]-CA--CB-[SG] |==|  0.84313
USER: genes 25 Torsion [CA]-CB--SG-[HG] |==|  0.29701
USER: genes 26 Torsion [C]-CA--CB-[CG] |==|  0.27581
USER: genes 27 Torsion [CA]-CB--CG-[ND1] |==|  0.73270
ROOT
ATOM      1  C   HIS P   3      18.522   4.754  17.501  1.00 29.14 LIG 0.24  C 
ATOM      2 O    HIS P   3      18.011   5.771  18.006  1.00 31.23 LIG-0.27  OA
ATOM      3  N   PRO P   4      18.196   3.524  17.937  1.00 24.67 LIG-0.34  N 
ATOM      4  CA  PRO P   4      17.313   3.308  19.059  1.00 22.95 LIG 0.18  C 
ATOM      5  CB  PRO P   4      17.171   1.796  19.161  1.00 20.99 LIG 0.04  C 
ATOM      6  CG  PRO P   4      17.780   1.216  17.904  1.00 22.70 LIG 0.02  C 
ATOM      7  CD  PRO P   4      18.735   2.244  17.415  1.00 21.81 LIG 0.13  C 
ENDROOT
BRANCH 4 8
ATOM      8  C   PRO P   4      17.731   3.899  20.399  1.00 19.64 LIG 0.24  C 
ATOM      9 O    PRO P   4      17.154   3.525  21.422  1.00 20.88 LIG-0.27  OA
ATOM     10  N   GLN P   5      18.755   4.768  20.426  1.00 22.98 LIG-0.35  N 
ATOM     11 H    GLN P   5      19.164   5.040  19.720  1.00 22.98 LIG 0.16  HD
BRANCH 10 12
ATOM     12  CA  GLN P   5      19.276   5.336  21.665  1.00 16.98 LIG 0.18  C 
BRANCH 12 13
ATOM     13  C   GLN P   5      18.309   6.249  22.391  1.00 21.89 LIG 0.24  C 
ATOM     14  N   ASN P   6      17.373   5.783  23.222  1.00 22.75 LIG-0.35  N 
ATOM     15 H    ASN P   6      17.221   4.959  23.416  1.00 22.75 LIG 0.16  HD
ATOM     16 O    GLN P   5      18.401   7.466  22.185  1.00 24.56 LIG-0.27  OA
BRANCH 14 17
ATOM     17  CA  ASN P   6      16.534   6.772  23.856  1.00 29.16 LIG 0.18  C 
BRANCH 17 18
ATOM     18  CB  ASN P   6      15.581   7.500  22.898  1.00 24.89 LIG 0.14  C 
BRANCH 18 19
ATOM     19  CG  ASN P   6      14.697   6.549  22.112  1.00 26.77 LIG 0.22  C 
ATOM     20 OD1  ASN P   6      15.111   5.576  21.456  1.00 24.78 LIG-0.27  OA
ATOM     21  ND2 ASN P   6      13.414   6.827  22.195  1.00 25.10 LIG-0.37  N 
ATOM     22 22HD ASN P   6      13.149   7.504  22.654  1.00 25.10 LIG 0.16  HD
ATOM     23 21HD ASN P   6      12.840   6.330  21.791  1.00 25.10 LIG 0.16  HD
ENDBRANCH 18 19
ENDBRANCH 17 18
BRANCH 17 24
ATOM     24  C   ASN P   6      15.695   6.161  24.907  1.00 33.65 LIG 0.24  C 
ATOM     25 O    ASN P   6      14.546   6.532  25.129  1.00 34.15 LIG-0.27  OA
ATOM     26  N   THR P   7      16.404   5.131  25.358  1.00 46.42 LIG-0.34  N 
ATOM     27 H    THR P   7      17.167   4.949  25.004  1.00 46.42 LIG 0.16  HD
BRANCH 26 28
ATOM     28  CA  THR P   7      16.096   4.188  26.422  1.00 55.98 LIG 0.21  C 
BRANCH 28 29
ATOM     29  CB  THR P   7      14.877   3.388  25.818  1.00 59.10 LIG 0.15  C 
ATOM     30  CG2 THR P   7      15.305   2.130  25.039  1.00 61.71 LIG 0.04  C 
BRANCH 29 31
ATOM     31 OG1  THR P   7      14.003   3.093  26.911  1.00 60.27 LIG-0.39  OA
ATOM     32 HG1  THR P   7      14.437   3.111  27.630  1.00 60.27 LIG 0.21  HD
ENDBRANCH 29 31
ENDBRANCH 28 29
BRANCH 28 33
ATOM     33  C   THR P   7      17.161   3.293  27.067  1.00 57.95 LIG 0.29  C 
ATOM     34  N   NH2 P   8      18.412   3.692  26.869  1.00 58.98 LIG-0.11  N 
ATOM     35 O    THR P   7      16.914   2.243  27.669  1.00 60.38 LIG-0.27  OA
ENDBRANCH 28 33
ENDBRANCH 26 28
ENDBRANCH 17 24
ENDBRANCH 14 17
ENDBRANCH 12 13
BRANCH 12 36
ATOM     36  CB  GLN P   5      20.569   6.073  21.370  1.00 11.38 LIG 0.04  C 
BRANCH 36 37
ATOM     37  CG  GLN P   5      21.498   6.117  22.580  1.00 11.43 LIG 0.10  C 
BRANCH 37 38
ATOM     38  CD  GLN P   5      22.918   6.576  22.280  1.00 11.64 LIG 0.21  C 
ATOM     39  NE2 GLN P   5      23.170   7.607  21.500  1.00  7.77 LIG-0.37  N 
ATOM     40 21HE GLN P   5      22.522   8.048  21.148  1.00  7.77 LIG 0.16  HD
ATOM     41 22HE GLN P   5      23.984   7.839  21.344  1.00  7.77 LIG 0.16  HD
ATOM     42 OE1  GLN P   5      23.857   5.966  22.769  1.00 11.36 LIG-0.27  OA
ENDBRANCH 37 38
ENDBRANCH 36 37
ENDBRANCH 12 36
ENDBRANCH 10 12
ENDBRANCH 4 8
BRANCH 1 43
ATOM     43  CA  HIS P   3      19.444   4.891  16.292  1.00 30.34 LIG 0.18  C 
BRANCH 43 44
ATOM     44  N   HIS P   3      18.404   5.208  15.338  1.00 35.71 LIG-0.35  N 
ATOM     45  C   CYS P   2      17.636   4.334  14.723  0.17 38.31 LIG 0.24  C 
ATOM     46 O    CYS P   2      17.835   3.116  14.790  0.17 38.29 LIG-0.27  OA
ATOM     47 H    HIS P   3      18.329   6.054  15.201  1.00 35.71 LIG 0.16  HD
BRANCH 45 48
ATOM     48  CA  CYS P   2      16.561   5.015  13.876  0.17 40.64 LIG 0.18  C 
BRANCH 48 49
ATOM     49  N   CYS P   2      16.901   5.297  12.473  0.17 43.25 LIG-0.34  N 
ATOM     50  C   PHE P   1      17.378   4.395  11.610  0.36 44.98 LIG 0.25  C 
ATOM     51 O    PHE P   1      17.737   3.273  11.962  0.36 46.44 LIG-0.27  OA
ATOM     52 H    CYS P   2      16.762   6.117  12.253  0.17 43.25 LIG 0.16  HD
BRANCH 50 53
ATOM     53  CA  PHE P   1      17.661   4.711  10.144  0.36 46.68 LIG 0.28  C 
BRANCH 53 54
ATOM     54  CB  PHE P   1      19.090   5.292  10.148  0.36 47.92 LIG 0.08  C 
BRANCH 54 55
ATOM     55  CG  PHE P   1      20.178   4.868  11.132  0.36 47.93 LIG-0.06  A 
ATOM     56  CD1 PHE P   1      20.257   5.339  12.447  0.36 48.98 LIG 0.01  A 
ATOM     57  CE1 PHE P   1      21.281   4.890  13.288  0.36 50.12 LIG 0.00  A 
ATOM     58  CZ  PHE P   1      22.227   3.974  12.825  0.36 48.72 LIG 0.00  A 
ATOM     59  CE2 PHE P   1      22.143   3.505  11.516  0.36 48.48 LIG 0.00  A 
ATOM     60  CD2 PHE P   1      21.124   3.948  10.672  0.36 48.25 LIG 0.01  A 
ENDBRANCH 54 55
ENDBRANCH 53 54
BRANCH 53 61
ATOM     61  N   PHE P   1      16.604   5.673   9.883  0.36 46.83 LIG-0.07  N 
ATOM     62 H3   PHE P   1      16.893   6.281   9.300  0.36 46.83 LIG 0.28  HD
ATOM     63 H1   PHE P   1      15.896   5.252   9.545  0.36 46.83 LIG 0.28  HD
ATOM     64 H2   PHE P   1      16.375   6.076  10.642  0.36 46.83 LIG 0.28  HD
ENDBRANCH 53 61
ENDBRANCH 50 53
ENDBRANCH 48 49
BRANCH 48 65
ATOM     65  CB  CYS P   2      15.298   4.179  14.071  0.17 41.02 LIG 0.10  C 
BRANCH 65 66
ATOM     66 SG   CYS P   2      15.819   2.521  13.570  0.17 41.68 LIG-0.18  SA
ATOM     67 HG   CYS P   2      15.931   1.825  14.543  0.17 41.68 LIG 0.10  HD
ENDBRANCH 65 66
ENDBRANCH 48 65
ENDBRANCH 45 48
ENDBRANCH 43 44
BRANCH 43 68
ATOM     68  CB  HIS P   3      20.530   5.956  16.648  1.00 25.21 LIG 0.10  C 
BRANCH 68 69
ATOM     69  CG  HIS P   3      21.826   5.195  17.078  1.00 21.50 LIG 0.06  A 
ATOM     70 ND1  HIS P   3      22.107   4.966  18.361  1.00 15.93 LIG-0.24  NA
ATOM     71  CE1 HIS P   3      23.123   4.117  18.326  1.00 14.31 LIG 0.23  A 
ATOM     72 NE2  HIS P   3      23.450   3.829  17.075  1.00 14.39 LIG-0.25  NA
ATOM     73  CD2 HIS P   3      22.674   4.484  16.240  1.00 20.69 LIG 0.14  A 
ENDBRANCH 68 69
ENDBRANCH 43 68
ENDBRANCH 1 43
TORSDOF 26
ENDMDL
MODEL 15
USER: ADFR SOLUTION from run 100
USER: SCORE 21.680247 LL:  -5.861 LR: -17.118 RR:   0.000 FEB:  -9.362
USER: RMSD 10.633679
USER: SEED 99
USER: STATUS no improvement in best in 3 clusters for 5 generations
USER: GENES 28
USER: genes 0 Translation |==|  0.38301 0.52850 0.39455
USER: genes 1 Rotation |==|  0.79803 0.78453 0.77187 0.57939
USER: genes 2 Torsion [N]-CA--C-[O] |==|  0.49110
USER: genes 3 Torsion [C]-N--CA-[C] |==|  0.66191
USER: genes 4 Torsion [N]-CA--C-[N] |==|  0.35479
USER: genes 5 Torsion [C]-N--CA-[CB] |==|  0.85790
USER: genes 6 Torsion [N]-CA--CB-[CG] |==|  0.65643
USER: genes 7 Torsion [CA]-CB--CG-[ND2] |==|  0.84038
USER: genes 8 Torsion [N]-CA--C-[N] |==|  0.35556
USER: genes 9 Torsion [C]-N--CA-[CB] |==|  0.75312
USER: genes 10 Torsion [N]-CA--CB-[CG2] |==|  0.61456
USER: genes 11 Torsion [CA]-CB--OG1-[HG1] |==|  0.20343
USER: genes 12 Torsion [N]-CA--C-[N] |==|  0.01365
USER: genes 13 Torsion [N]-CA--CB-[CG] |==|  0.63883
USER: genes 14 Torsion [CA]-CB--CG-[CD] |==|  0.96783
USER: genes 15 Torsion [CB]-CG--CD-[OE1] |==|  0.70918
USER: genes 16 Torsion [N]-C--CA-[N] |==|  0.36846
USER: genes 17 Torsion [C]-CA--N-[C] |==|  0.75368
USER: genes 18 Torsion [N]-C--CA-[N] |==|  0.47627
USER: genes 19 Torsion [C]-CA--N-[C] |==|  0.18760
USER: genes 20 Torsion [N]-C--CA-[N] |==|  0.00873
USER: genes 21 Torsion [C]-CA--CB-[CG] |==|  0.21928
USER: genes 22 Torsion [CA]-CB--CG-[CD1] |==|  0.63215
USER: genes 23 Torsion [C]-CA--N-[H3] |==|  0.43190
USER: genes 24 Torsion [C]-CA--CB-[SG] |==|  0.49596
USER: genes 25 Torsion [CA]-CB--SG-[HG] |==|  0.88785
USER: genes 26 Torsion [C]-CA--CB-[CG] |==|  0.15761
USER: genes 27 Torsion [CA]-CB--CG-[ND1] |==|  0.17896
ROOT
ATOM      1  C   HIS P   3      14.628   2.345  14.671  1.00 29.14 LIG 0.24  C 
ATOM      2 O    HIS P   3      14.568   1.340  13.940  1.00 31.23 LIG-0.27  OA
ATOM      3  N   PRO P   4      15.370   2.344  15.794  1.00 24.67 LIG-0.34  N 
ATOM      4  CA  PRO P   4      16.064   1.168  16.263  1.00 22.95 LIG 0.18  C 
ATOM      5  CB  PRO P   4      16.816   1.625  17.504  1.00 20.99 LIG 0.04  C 
ATOM      6  CG  PRO P   4      16.727   3.135  17.536  1.00 22.70 LIG 0.02  C 
ATOM      7  CD  PRO P   4      15.519   3.478  16.740  1.00 21.81 LIG 0.13  C 
ENDROOT
BRANCH 4 8
ATOM      8  C   PRO P   4      15.221  -0.063  16.569  1.00 19.64 LIG 0.24  C 
ATOM      9 O    PRO P   4      15.787  -1.102  16.915  1.00 20.88 LIG-0.27  OA
ATOM     10  N   GLN P   5      13.883   0.043  16.509  1.00 22.98 LIG-0.35  N 
ATOM     11 H    GLN P   5      13.476   0.760  16.266  1.00 22.98 LIG 0.16  HD
BRANCH 10 12
ATOM     12  CA  GLN P   5      12.988  -1.057  16.852  1.00 16.98 LIG 0.18  C 
BRANCH 12 13
ATOM     13  C   GLN P   5      12.052  -1.474  15.736  1.00 21.89 LIG 0.24  C 
ATOM     14  N   ASN P   6      11.946  -2.741  15.328  1.00 22.75 LIG-0.35  N 
ATOM     15 H    ASN P   6      12.382  -3.418  15.632  1.00 22.75 LIG 0.16  HD
ATOM     16 O    GLN P   5      11.378  -0.591  15.188  1.00 24.56 LIG-0.27  OA
BRANCH 14 17
ATOM     17  CA  ASN P   6      11.001  -2.993  14.265  1.00 29.16 LIG 0.18  C 
BRANCH 17 18
ATOM     18  CB  ASN P   6       9.599  -2.422  14.519  1.00 24.89 LIG 0.14  C 
BRANCH 18 19
ATOM     19  CG  ASN P   6       8.511  -3.477  14.447  1.00 26.77 LIG 0.22  C 
ATOM     20 OD1  ASN P   6       7.702  -3.726  15.359  1.00 24.78 LIG-0.27  OA
ATOM     21  ND2 ASN P   6       8.470  -4.118  13.299  1.00 25.10 LIG-0.37  N 
ATOM     22 22HD ASN P   6       9.039  -3.931  12.681  1.00 25.10 LIG 0.16  HD
ATOM     23 21HD ASN P   6       7.875  -4.724  13.165  1.00 25.10 LIG 0.16  HD
ENDBRANCH 18 19
ENDBRANCH 17 18
BRANCH 17 24
ATOM     24  C   ASN P   6      11.470  -2.413  12.990  1.00 33.65 LIG 0.24  C 
ATOM     25 O    ASN P   6      11.928  -1.278  12.912  1.00 34.15 LIG-0.27  OA
ATOM     26  N   THR P   7      11.404  -3.412  12.114  1.00 46.42 LIG-0.34  N 
ATOM     27 H    THR P   7      11.151  -4.192  12.373  1.00 46.42 LIG 0.16  HD
BRANCH 26 28
ATOM     28  CA  THR P   7      11.704  -3.418  10.691  1.00 55.98 LIG 0.21  C 
BRANCH 28 29
ATOM     29  CB  THR P   7      10.317  -3.020  10.054  1.00 59.10 LIG 0.15  C 
ATOM     30  CG2 THR P   7       9.976  -3.832   8.790  1.00 61.71 LIG 0.04  C 
BRANCH 29 31
ATOM     31 OG1  THR P   7       9.339  -3.165  11.087  1.00 60.27 LIG-0.39  OA
ATOM     32 HG1  THR P   7       9.422  -2.540  11.641  1.00 60.27 LIG 0.21  HD
ENDBRANCH 29 31
ENDBRANCH 28 29
BRANCH 28 33
ATOM     33  C   THR P   7      12.896  -2.658  10.095  1.00 57.95 LIG 0.29  C 
ATOM     34  N   NH2 P   8      13.687  -2.082  10.992  1.00 58.98 LIG-0.11  N 
ATOM     35 O    THR P   7      13.094  -2.517   8.885  1.00 60.38 LIG-0.27  OA
ENDBRANCH 28 33
ENDBRANCH 26 28
ENDBRANCH 17 24
ENDBRANCH 14 17
ENDBRANCH 12 13
BRANCH 12 36
ATOM     36  CB  GLN P   5      12.192  -0.684  18.088  1.00 11.38 LIG 0.04  C 
BRANCH 36 37
ATOM     37  CG  GLN P   5      12.234  -1.777  19.154  1.00 11.43 LIG 0.10  C 
BRANCH 37 38
ATOM     38  CD  GLN P   5      12.807  -3.106  18.684  1.00 11.64 LIG 0.21  C 
ATOM     39  NE2 GLN P   5      14.098  -3.284  18.493  1.00  7.77 LIG-0.37  N 
ATOM     40 21HE GLN P   5      14.647  -2.639  18.639  1.00  7.77 LIG 0.16  HD
ATOM     41 22HE GLN P   5      14.391  -4.045  18.220  1.00  7.77 LIG 0.16  HD
ATOM     42 OE1  GLN P   5      12.047  -4.039  18.468  1.00 11.36 LIG-0.27  OA
ENDBRANCH 37 38
ENDBRANCH 36 37
ENDBRANCH 12 36
ENDBRANCH 10 12
ENDBRANCH 4 8
BRANCH 1 43
ATOM     43  CA  HIS P   3      13.947   3.640  14.235  1.00 30.34 LIG 0.18  C 
BRANCH 43 44
ATOM     44  N   HIS P   3      14.360   3.575  12.851  1.00 35.71 LIG-0.35  N 
ATOM     45  C   CYS P   2      15.478   4.066  12.360  0.17 38.31 LIG 0.24  C 
ATOM     46 O    CYS P   2      16.233   4.783  13.025  0.17 38.29 LIG-0.27  OA
ATOM     47 H    HIS P   3      13.786   3.170  12.354  1.00 35.71 LIG 0.16  HD
BRANCH 45 48
ATOM     48  CA  CYS P   2      15.657   3.715  10.883  0.17 40.64 LIG 0.18  C 
BRANCH 48 49
ATOM     49  N   CYS P   2      16.768   4.368  10.175  0.17 43.25 LIG-0.34  N 
ATOM     50  C   PHE P   1      18.063   4.141  10.419  0.36 44.98 LIG 0.25  C 
ATOM     51 O    PHE P   1      18.446   3.483  11.384  0.36 46.44 LIG-0.27  OA
ATOM     52 H    CYS P   2      16.503   4.924   9.574  0.17 43.25 LIG 0.16  HD
BRANCH 50 53
ATOM     53  CA  PHE P   1      19.189   4.793   9.620  0.36 46.68 LIG 0.28  C 
BRANCH 53 54
ATOM     54  CB  PHE P   1      20.029   5.534  10.680  0.36 47.92 LIG 0.08  C 
BRANCH 54 55
ATOM     55  CG  PHE P   1      21.041   4.848  11.595  0.36 47.93 LIG-0.06  A 
ATOM     56  CD1 PHE P   1      21.101   5.060  12.977  0.36 48.98 LIG 0.01  A 
ATOM     57  CE1 PHE P   1      22.054   4.381  13.745  0.36 50.12 LIG 0.00  A 
ATOM     58  CZ  PHE P   1      22.947   3.494  13.143  0.36 48.72 LIG 0.00  A 
ATOM     59  CE2 PHE P   1      22.883   3.283  11.768  0.36 48.48 LIG 0.00  A 
ATOM     60  CD2 PHE P   1      21.934   3.957  10.995  0.36 48.25 LIG 0.01  A 
ENDBRANCH 54 55
ENDBRANCH 53 54
BRANCH 53 61
ATOM     61  N   PHE P   1      18.413   5.648   8.739  0.36 46.83 LIG-0.07  N 
ATOM     62 H3   PHE P   1      18.916   6.332   8.469  0.36 46.83 LIG 0.28  HD
ATOM     63 H1   PHE P   1      18.145   5.180   8.031  0.36 46.83 LIG 0.28  HD
ATOM     64 H2   PHE P   1      17.702   5.958   9.176  0.36 46.83 LIG 0.28  HD
ENDBRANCH 53 61
ENDBRANCH 50 53
ENDBRANCH 48 49
BRANCH 48 65
ATOM     65  CB  CYS P   2      15.673   2.188  10.827  0.17 41.02 LIG 0.10  C 
BRANCH 65 66
ATOM     66 SG   CYS P   2      15.842   1.841   9.060  0.17 41.68 LIG-0.18  SA
ATOM     67 HG   CYS P   2      15.159   2.605   8.435  0.17 41.68 LIG 0.10  HD
ENDBRANCH 65 66
ENDBRANCH 48 65
ENDBRANCH 45 48
ENDBRANCH 43 44
BRANCH 43 68
ATOM     68  CB  HIS P   3      12.435   3.523  14.606  1.00 25.21 LIG 0.10  C 
BRANCH 68 69
ATOM     69  CG  HIS P   3      12.338   3.242  16.141  1.00 21.50 LIG 0.06  A 
ATOM     70 ND1  HIS P   3      12.751   4.134  17.042  1.00 15.93 LIG-0.24  NA
ATOM     71  CE1 HIS P   3      12.304   3.663  18.196  1.00 14.31 LIG 0.23  A 
ATOM     72 NE2  HIS P   3      11.638   2.533  18.015  1.00 14.39 LIG-0.25  NA
ATOM     73  CD2 HIS P   3      11.630   2.209  16.741  1.00 20.69 LIG 0.14  A 
ENDBRANCH 68 69
ENDBRANCH 43 68
ENDBRANCH 1 43
TORSDOF 26
ENDMDL
MODEL 16
USER: ADFR SOLUTION from run 136
USER: SCORE 20.527083 LL:  -6.115 LR: -17.051 RR:   0.000 FEB:  -9.296
USER: RMSD 7.879573
USER: SEED 135
USER: STATUS no improvement in best in 2 clusters for 5 generations
USER: GENES 28
USER: genes 0 Translation |==|  0.51369 0.69794 0.31687
USER: genes 1 Rotation |==|  0.03143 0.61954 0.52519 0.62458
USER: genes 2 Torsion [N]-CA--C-[O] |==|  0.42870
USER: genes 3 Torsion [C]-N--CA-[C] |==|  0.20337
USER: genes 4 Torsion [N]-CA--C-[N] |==|  0.40188
USER: genes 5 Torsion [C]-N--CA-[CB] |==|  0.49505
USER: genes 6 Torsion [N]-CA--CB-[CG] |==|  0.84977
USER: genes 7 Torsion [CA]-CB--CG-[ND2] |==|  0.54690
USER: genes 8 Torsion [N]-CA--C-[N] |==|  0.36345
USER: genes 9 Torsion [C]-N--CA-[CB] |==|  0.60167
USER: genes 10 Torsion [N]-CA--CB-[CG2] |==|  0.52776
USER: genes 11 Torsion [CA]-CB--OG1-[HG1] |==|  0.57066
USER: genes 12 Torsion [N]-CA--C-[N] |==|  0.38062
USER: genes 13 Torsion [N]-CA--CB-[CG] |==|  0.43448
USER: genes 14 Torsion [CA]-CB--CG-[CD] |==|  0.69922
USER: genes 15 Torsion [CB]-CG--CD-[OE1] |==|  0.58635
USER: genes 16 Torsion [N]-C--CA-[N] |==|  0.78333
USER: genes 17 Torsion [C]-CA--N-[C] |==|  0.71466
USER: genes 18 Torsion [N]-C--CA-[N] |==|  0.36130
USER: genes 19 Torsion [C]-CA--N-[C] |==|  0.84909
USER: genes 20 Torsion [N]-C--CA-[N] |==|  0.45307
USER: genes 21 Torsion [C]-CA--CB-[CG] |==|  0.13676
USER: genes 22 Torsion [CA]-CB--CG-[CD1] |==|  0.23151
USER: genes 23 Torsion [C]-CA--N-[H3] |==|  0.56257
USER: genes 24 Torsion [C]-CA--CB-[SG] |==|  0.60127
USER: genes 25 Torsion [CA]-CB--SG-[HG] |==|  0.29637
USER: genes 26 Torsion [C]-CA--CB-[CG] |==|  0.64936
USER: genes 27 Torsion [CA]-CB--CG-[ND1] |==|  0.89262
ROOT
ATOM      1  C   HIS P   3      17.471   5.395  12.924  1.00 29.14 LIG 0.24  C 
ATOM      2 O    HIS P   3      16.574   6.029  13.509  1.00 31.23 LIG-0.27  OA
ATOM      3  N   PRO P   4      17.175   4.376  12.097  1.00 24.67 LIG-0.34  N 
ATOM      4  CA  PRO P   4      15.824   3.902  11.904  1.00 22.95 LIG 0.18  C 
ATOM      5  CB  PRO P   4      15.940   2.804  10.857  1.00 20.99 LIG 0.04  C 
ATOM      6  CG  PRO P   4      17.342   2.883  10.295  1.00 22.70 LIG 0.02  C 
ATOM      7  CD  PRO P   4      18.153   3.550  11.347  1.00 21.81 LIG 0.13  C 
ENDROOT
BRANCH 4 8
ATOM      8  C   PRO P   4      15.080   3.396  13.133  1.00 19.64 LIG 0.24  C 
ATOM      9 O    PRO P   4      13.849   3.436  13.143  1.00 20.88 LIG-0.27  OA
ATOM     10  N   GLN P   5      15.793   2.868  14.142  1.00 22.98 LIG-0.35  N 
ATOM     11 H    GLN P   5      16.652   2.837  14.150  1.00 22.98 LIG 0.16  HD
BRANCH 10 12
ATOM     12  CA  GLN P   5      15.171   2.293  15.331  1.00 16.98 LIG 0.18  C 
BRANCH 12 13
ATOM     13  C   GLN P   5      14.507   0.950  15.103  1.00 21.89 LIG 0.24  C 
ATOM     14  N   ASN P   6      14.505  -0.013  16.029  1.00 22.75 LIG-0.35  N 
ATOM     15 H    ASN P   6      14.871   0.021  16.806  1.00 22.75 LIG 0.16  HD
ATOM     16 O    GLN P   5      13.960   0.756  14.010  1.00 24.56 LIG-0.27  OA
BRANCH 14 17
ATOM     17  CA  ASN P   6      13.818  -1.233  15.678  1.00 29.16 LIG 0.18  C 
BRANCH 17 18
ATOM     18  CB  ASN P   6      13.881  -2.325  16.755  1.00 24.89 LIG 0.14  C 
BRANCH 18 19
ATOM     19  CG  ASN P   6      15.300  -2.650  17.184  1.00 26.77 LIG 0.22  C 
ATOM     20 OD1  ASN P   6      16.286  -1.917  16.983  1.00 24.78 LIG-0.27  OA
ATOM     21  ND2 ASN P   6      15.412  -3.793  17.824  1.00 25.10 LIG-0.37  N 
ATOM     22 22HD ASN P   6      14.718  -4.284  17.952  1.00 25.10 LIG 0.16  HD
ATOM     23 21HD ASN P   6      16.179  -4.049  18.116  1.00 25.10 LIG 0.16  HD
ENDBRANCH 18 19
ENDBRANCH 17 18
BRANCH 17 24
ATOM     24  C   ASN P   6      12.387  -0.979  15.415  1.00 33.65 LIG 0.24  C 
ATOM     25 O    ASN P   6      11.709  -0.240  16.121  1.00 34.15 LIG-0.27  OA
ATOM     26  N   THR P   7      12.139  -1.580  14.255  1.00 46.42 LIG-0.34  N 
ATOM     27 H    THR P   7      12.776  -1.975  13.833  1.00 46.42 LIG 0.16  HD
BRANCH 26 28
ATOM     28  CA  THR P   7      10.889  -1.697  13.520  1.00 55.98 LIG 0.21  C 
BRANCH 28 29
ATOM     29  CB  THR P   7      10.992  -3.149  12.912  1.00 59.10 LIG 0.15  C 
ATOM     30  CG2 THR P   7       9.895  -3.451  11.874  1.00 61.71 LIG 0.04  C 
BRANCH 29 31
ATOM     31 OG1  THR P   7      12.312  -3.273  12.375  1.00 60.27 LIG-0.39  OA
ATOM     32 HG1  THR P   7      12.312  -3.848  11.763  1.00 60.27 LIG 0.21  HD
ENDBRANCH 29 31
ENDBRANCH 28 29
BRANCH 28 33
ATOM     33  C   THR P   7       9.527  -1.390  14.153  1.00 57.95 LIG 0.29  C 
ATOM     34  N   NH2 P   8       8.703  -0.691  13.381  1.00 58.98 LIG-0.11  N 
ATOM     35 O    THR P   7       9.214  -1.692  15.309  1.00 60.38 LIG-0.27  OA
ENDBRANCH 28 33
ENDBRANCH 26 28
ENDBRANCH 17 24
ENDBRANCH 14 17
ENDBRANCH 12 13
BRANCH 12 36
ATOM     36  CB  GLN P   5      14.171   3.282  15.898  1.00 11.38 LIG 0.04  C 
BRANCH 36 37
ATOM     37  CG  GLN P   5      13.097   2.599  16.740  1.00 11.43 LIG 0.10  C 
BRANCH 37 38
ATOM     38  CD  GLN P   5      11.716   2.554  16.103  1.00 11.64 LIG 0.21  C 
ATOM     39  NE2 GLN P   5      11.549   2.497  14.797  1.00  7.77 LIG-0.37  N 
ATOM     40 21HE GLN P   5      12.233   2.477  14.277  1.00  7.77 LIG 0.16  HD
ATOM     41 22HE GLN P   5      10.755   2.479  14.466  1.00  7.77 LIG 0.16  HD
ATOM     42 OE1  GLN P   5      10.727   2.582  16.820  1.00 11.36 LIG-0.27  OA
ENDBRANCH 37 38
ENDBRANCH 36 37
ENDBRANCH 12 36
ENDBRANCH 10 12
ENDBRANCH 4 8
BRANCH 1 43
ATOM     43  CA  HIS P   3      18.924   5.847  13.050  1.00 30.34 LIG 0.18  C 
BRANCH 43 44
ATOM     44  N   HIS P   3      19.346   4.773  13.921  1.00 35.71 LIG-0.35  N 
ATOM     45  C   CYS P   2      19.537   4.868  15.219  0.17 38.31 LIG 0.24  C 
ATOM     46 O    CYS P   2      19.518   5.952  15.813  0.17 38.29 LIG-0.27  OA
ATOM     47 H    HIS P   3      19.468   4.034  13.497  1.00 35.71 LIG 0.16  HD
BRANCH 45 48
ATOM     48  CA  CYS P   2      19.862   3.514  15.850  0.17 40.64 LIG 0.18  C 
BRANCH 48 49
ATOM     49  N   CYS P   2      21.041   3.456  16.727  0.17 43.25 LIG-0.34  N 
ATOM     50  C   PHE P   1      22.270   3.845  16.375  0.36 44.98 LIG 0.25  C 
ATOM     51 O    PHE P   1      22.563   4.133  15.216  0.36 46.44 LIG-0.27  OA
ATOM     52 H    CYS P   2      20.863   3.141  17.508  0.17 43.25 LIG 0.16  HD
BRANCH 50 53
ATOM     53  CA  PHE P   1      23.458   3.828  17.334  0.36 46.68 LIG 0.28  C 
BRANCH 53 54
ATOM     54  CB  PHE P   1      23.249   5.072  18.221  0.36 47.92 LIG 0.08  C 
BRANCH 54 55
ATOM     55  CG  PHE P   1      21.933   5.412  18.915  0.36 47.93 LIG-0.06  A 
ATOM     56  CD1 PHE P   1      21.543   4.867  20.143  0.36 48.98 LIG 0.01  A 
ATOM     57  CE1 PHE P   1      20.323   5.243  20.717  0.36 50.12 LIG 0.00  A 
ATOM     58  CZ  PHE P   1      19.490   6.157  20.073  0.36 48.72 LIG 0.00  A 
ATOM     59  CE2 PHE P   1      19.882   6.700  18.851  0.36 48.48 LIG 0.00  A 
ATOM     60  CD2 PHE P   1      21.098   6.331  18.273  0.36 48.25 LIG 0.01  A 
ENDBRANCH 54 55
ENDBRANCH 53 54
BRANCH 53 61
ATOM     61  N   PHE P   1      24.553   3.922  16.385  0.36 46.83 LIG-0.07  N 
ATOM     62 H3   PHE P   1      25.297   3.603  16.755  0.36 46.83 LIG 0.28  HD
ATOM     63 H1   PHE P   1      24.357   3.447  15.657  0.36 46.83 LIG 0.28  HD
ATOM     64 H2   PHE P   1      24.677   4.774  16.158  0.36 46.83 LIG 0.28  HD
ENDBRANCH 53 61
ENDBRANCH 50 53
ENDBRANCH 48 49
BRANCH 48 65
ATOM     65  CB  CYS P   2      18.560   3.044  16.497  0.17 41.02 LIG 0.10  C 
BRANCH 65 66
ATOM     66 SG   CYS P   2      19.123   2.215  18.003  0.17 41.68 LIG-0.18  SA
ATOM     67 HG   CYS P   2      18.870   2.900  18.956  0.17 41.68 LIG 0.10  HD
ENDBRANCH 65 66
ENDBRANCH 48 65
ENDBRANCH 45 48
ENDBRANCH 43 44
BRANCH 43 68
ATOM     68  CB  HIS P   3      19.508   5.960  11.606  1.00 25.21 LIG 0.10  C 
BRANCH 68 69
ATOM     69  CG  HIS P   3      20.813   5.101  11.548  1.00 21.50 LIG 0.06  A 
ATOM     70 ND1  HIS P   3      21.667   5.060  12.572  1.00 15.93 LIG-0.24  NA
ATOM     71  CE1 HIS P   3      22.498   4.077  12.263  1.00 14.31 LIG 0.23  A 
ATOM     72 NE2  HIS P   3      22.168   3.530  11.102  1.00 14.39 LIG-0.25  NA
ATOM     73  CD2 HIS P   3      21.118   4.138  10.597  1.00 20.69 LIG 0.14  A 
ENDBRANCH 68 69
ENDBRANCH 43 68
ENDBRANCH 1 43
TORSDOF 26
ENDMDL
MODEL 17
USER: ADFR SOLUTION from run 58
USER: SCORE 21.161424 LL:  -7.367 LR: -17.005 RR:   0.000 FEB:  -9.249
USER: RMSD 9.006445
USER: SEED 57
USER: STATUS no improvement in best in 4 clusters for 5 generations
USER: GENES 28
USER: genes 0 Translation |==|  0.53495 0.57581 0.48027
USER: genes 1 Rotation |==|  0.34361 0.05436 0.62049 0.61148
USER: genes 2 Torsion [N]-CA--C-[O] |==|  0.77515
USER: genes 3 Torsion [C]-N--CA-[C] |==|  0.18756
USER: genes 4 Torsion [N]-CA--C-[N] |==|  0.91731
USER: genes 5 Torsion [C]-N--CA-[CB] |==|  0.19848
USER: genes 6 Torsion [N]-CA--CB-[CG] |==|  0.42295
USER: genes 7 Torsion [CA]-CB--CG-[ND2] |==|  0.66685
USER: genes 8 Torsion [N]-CA--C-[N] |==|  0.83880
USER: genes 9 Torsion [C]-N--CA-[CB] |==|  0.72221
USER: genes 10 Torsion [N]-CA--CB-[CG2] |==|  0.66143
USER: genes 11 Torsion [CA]-CB--OG1-[HG1] |==|  0.79213
USER: genes 12 Torsion [N]-CA--C-[N] |==|  0.75607
USER: genes 13 Torsion [N]-CA--CB-[CG] |==|  0.76342
USER: genes 14 Torsion [CA]-CB--CG-[CD] |==|  0.27216
USER: genes 15 Torsion [CB]-CG--CD-[OE1] |==|  0.92052
USER: genes 16 Torsion [N]-C--CA-[N] |==|  0.19412
USER: genes 17 Torsion [C]-CA--N-[C] |==|  0.67869
USER: genes 18 Torsion [N]-C--CA-[N] |==|  0.83085
USER: genes 19 Torsion [C]-CA--N-[C] |==|  0.65174
USER: genes 20 Torsion [N]-C--CA-[N] |==|  0.40990
USER: genes 21 Torsion [C]-CA--CB-[CG] |==|  0.37136
USER: genes 22 Torsion [CA]-CB--CG-[CD1] |==|  0.49930
USER: genes 23 Torsion [C]-CA--N-[H3] |==|  0.25065
USER: genes 24 Torsion [C]-CA--CB-[SG] |==|  0.23548
USER: genes 25 Torsion [CA]-CB--SG-[HG] |==|  0.23825
USER: genes 26 Torsion [C]-CA--CB-[CG] |==|  0.72464
USER: genes 27 Torsion [CA]-CB--CG-[ND1] |==|  0.82127
ROOT
ATOM      1  C   HIS P   3      17.933   3.197  16.600  1.00 29.14 LIG 0.24  C 
ATOM      2 O    HIS P   3      18.745   2.255  16.662  1.00 31.23 LIG-0.27  OA
ATOM      3  N   PRO P   4      18.149   4.248  15.790  1.00 24.67 LIG-0.34  N 
ATOM      4  CA  PRO P   4      19.360   4.394  15.015  1.00 22.95 LIG 0.18  C 
ATOM      5  CB  PRO P   4      19.158   5.667  14.207  1.00 20.99 LIG 0.04  C 
ATOM      6  CG  PRO P   4      17.704   6.055  14.362  1.00 22.70 LIG 0.02  C 
ATOM      7  CD  PRO P   4      17.258   5.424  15.631  1.00 21.81 LIG 0.13  C 
ENDROOT
BRANCH 4 8
ATOM      8  C   PRO P   4      20.675   4.447  15.780  1.00 19.64 LIG 0.24  C 
ATOM      9 O    PRO P   4      21.023   5.511  16.296  1.00 20.88 LIG-0.27  OA
ATOM     10  N   GLN P   5      21.385   3.314  15.918  1.00 22.98 LIG-0.35  N 
ATOM     11 H    GLN P   5      21.156   2.566  15.561  1.00 22.98 LIG 0.16  HD
BRANCH 10 12
ATOM     12  CA  GLN P   5      22.621   3.245  16.691  1.00 16.98 LIG 0.18  C 
BRANCH 12 13
ATOM     13  C   GLN P   5      22.438   3.435  18.183  1.00 21.89 LIG 0.24  C 
ATOM     14  N   ASN P   6      21.457   4.183  18.693  1.00 22.75 LIG-0.35  N 
ATOM     15 H    ASN P   6      20.862   4.622  18.254  1.00 22.75 LIG 0.16  HD
ATOM     16 O    GLN P   5      23.245   2.876  18.937  1.00 24.56 LIG-0.27  OA
BRANCH 14 17
ATOM     17  CA  ASN P   6      21.397   4.259  20.134  1.00 29.16 LIG 0.18  C 
BRANCH 17 18
ATOM     18  CB  ASN P   6      22.523   5.086  20.771  1.00 24.89 LIG 0.14  C 
BRANCH 18 19
ATOM     19  CG  ASN P   6      22.120   5.709  22.095  1.00 26.77 LIG 0.22  C 
ATOM     20 OD1  ASN P   6      21.775   5.068  23.104  1.00 24.78 LIG-0.27  OA
ATOM     21  ND2 ASN P   6      22.185   7.023  22.104  1.00 25.10 LIG-0.37  N 
ATOM     22 22HD ASN P   6      22.426   7.446  21.396  1.00 25.10 LIG 0.16  HD
ATOM     23 21HD ASN P   6      21.988   7.458  22.819  1.00 25.10 LIG 0.16  HD
ENDBRANCH 18 19
ENDBRANCH 17 18
BRANCH 17 24
ATOM     24  C   ASN P   6      20.124   4.862  20.581  1.00 33.65 LIG 0.24  C 
ATOM     25 O    ASN P   6      19.402   4.329  21.418  1.00 34.15 LIG-0.27  OA
ATOM     26  N   THR P   7      20.090   6.059  20.004  1.00 46.42 LIG-0.34  N 
ATOM     27 H    THR P   7      20.750   6.320  19.518  1.00 46.42 LIG 0.16  HD
BRANCH 26 28
ATOM     28  CA  THR P   7      19.056   7.082  20.053  1.00 55.98 LIG 0.21  C 
BRANCH 28 29
ATOM     29  CB  THR P   7      18.306   6.866  18.681  1.00 59.10 LIG 0.15  C 
ATOM     30  CG2 THR P   7      18.298   8.123  17.791  1.00 61.71 LIG 0.04  C 
BRANCH 29 31
ATOM     31 OG1  THR P   7      18.928   5.744  18.051  1.00 60.27 LIG-0.39  OA
ATOM     32 HG1  THR P   7      19.675   5.974  17.743  1.00 60.27 LIG 0.21  HD
ENDBRANCH 29 31
ENDBRANCH 28 29
BRANCH 28 33
ATOM     33  C   THR P   7      18.113   7.247  21.251  1.00 57.95 LIG 0.29  C 
ATOM     34  N   NH2 P   8      17.013   6.506  21.194  1.00 58.98 LIG-0.11  N 
ATOM     35 O    THR P   7      18.297   8.045  22.175  1.00 60.38 LIG-0.27  OA
ENDBRANCH 28 33
ENDBRANCH 26 28
ENDBRANCH 17 24
ENDBRANCH 14 17
ENDBRANCH 12 13
BRANCH 12 36
ATOM     36  CB  GLN P   5      23.603   4.266  16.151  1.00 11.38 LIG 0.04  C 
BRANCH 36 37
ATOM     37  CG  GLN P   5      24.405   3.728  14.968  1.00 11.43 LIG 0.10  C 
BRANCH 37 38
ATOM     38  CD  GLN P   5      23.877   4.135  13.600  1.00 11.64 LIG 0.21  C 
ATOM     39  NE2 GLN P   5      24.669   4.267  12.555  1.00  7.77 LIG-0.37  N 
ATOM     40 21HE GLN P   5      25.511   4.115  12.632  1.00  7.77 LIG 0.16  HD
ATOM     41 22HE GLN P   5      24.342   4.505  11.795  1.00  7.77 LIG 0.16  HD
ATOM     42 OE1  GLN P   5      22.683   4.358  13.464  1.00 11.36 LIG-0.27  OA
ENDBRANCH 37 38
ENDBRANCH 36 37
ENDBRANCH 12 36
ENDBRANCH 10 12
ENDBRANCH 4 8
BRANCH 1 43
ATOM     43  CA  HIS P   3      16.614   3.110  17.365  1.00 30.34 LIG 0.18  C 
BRANCH 43 44
ATOM     44  N   HIS P   3      15.782   2.849  16.212  1.00 35.71 LIG-0.35  N 
ATOM     45  C   CYS P   2      14.836   3.641  15.754  0.17 38.31 LIG 0.24  C 
ATOM     46 O    CYS P   2      14.454   4.641  16.372  0.17 38.29 LIG-0.27  OA
ATOM     47 H    HIS P   3      15.967   2.098  15.835  1.00 35.71 LIG 0.16  HD
BRANCH 45 48
ATOM     48  CA  CYS P   2      14.236   3.119  14.448  0.17 40.64 LIG 0.18  C 
BRANCH 48 49
ATOM     49  N   CYS P   2      15.151   2.981  13.305  0.17 43.25 LIG-0.34  N 
ATOM     50  C   PHE P   1      14.958   3.537  12.105  0.36 44.98 LIG 0.25  C 
ATOM     51 O    PHE P   1      13.901   4.082  11.794  0.36 46.44 LIG-0.27  OA
ATOM     52 H    CYS P   2      15.840   2.498  13.484  0.17 43.25 LIG 0.16  HD
BRANCH 50 53
ATOM     53  CA  PHE P   1      15.962   3.423  10.962  0.36 46.68 LIG 0.28  C 
BRANCH 53 54
ATOM     54  CB  PHE P   1      16.841   4.683  11.098  0.36 47.92 LIG 0.08  C 
BRANCH 54 55
ATOM     55  CG  PHE P   1      18.366   4.669  11.026  0.36 47.93 LIG-0.06  A 
ATOM     56  CD1 PHE P   1      19.156   5.817  11.146  0.36 48.98 LIG 0.01  A 
ATOM     57  CE1 PHE P   1      20.550   5.715  11.080  0.36 50.12 LIG 0.00  A 
ATOM     58  CZ  PHE P   1      21.161   4.474  10.894  0.36 48.72 LIG 0.00  A 
ATOM     59  CE2 PHE P   1      20.371   3.332  10.778  0.36 48.48 LIG 0.00  A 
ATOM     60  CD2 PHE P   1      18.980   3.427  10.843  0.36 48.25 LIG 0.01  A 
ENDBRANCH 54 55
ENDBRANCH 53 54
BRANCH 53 61
ATOM     61  N   PHE P   1      15.056   3.422   9.826  0.36 46.83 LIG-0.07  N 
ATOM     62 H3   PHE P   1      14.923   4.258   9.551  0.36 46.83 LIG 0.28  HD
ATOM     63 H1   PHE P   1      15.411   2.945   9.164  0.36 46.83 LIG 0.28  HD
ATOM     64 H2   PHE P   1      14.279   3.062  10.067  0.36 46.83 LIG 0.28  HD
ENDBRANCH 53 61
ENDBRANCH 50 53
ENDBRANCH 48 49
BRANCH 48 65
ATOM     65  CB  CYS P   2      13.488   1.842  14.826  0.17 41.02 LIG 0.10  C 
BRANCH 65 66
ATOM     66 SG   CYS P   2      11.876   2.453  15.374  0.17 41.68 LIG-0.18  SA
ATOM     67 HG   CYS P   2      11.153   2.584  14.425  0.17 41.68 LIG 0.10  HD
ENDBRANCH 65 66
ENDBRANCH 48 65
ENDBRANCH 45 48
ENDBRANCH 43 44
BRANCH 43 68
ATOM     68  CB  HIS P   3      16.783   2.020  18.471  1.00 25.21 LIG 0.10  C 
BRANCH 68 69
ATOM     69  CG  HIS P   3      16.136   0.698  17.944  1.00 21.50 LIG 0.06  A 
ATOM     70 ND1  HIS P   3      14.828   0.611  17.698  1.00 15.93 LIG-0.24  NA
ATOM     71  CE1 HIS P   3      14.693  -0.541  17.060  1.00 14.31 LIG 0.23  A 
ATOM     72 NE2  HIS P   3      15.867  -1.136  16.911  1.00 14.39 LIG-0.25  NA
ATOM     73  CD2 HIS P   3      16.817  -0.408  17.455  1.00 20.69 LIG 0.14  A 
ENDBRANCH 68 69
ENDBRANCH 43 68
ENDBRANCH 1 43
TORSDOF 26
ENDMDL
MODEL 18
USER: ADFR SOLUTION from run 39
USER: SCORE 22.176852 LL:  -7.772 LR: -16.999 RR:   0.000 FEB:  -9.244
USER: RMSD 9.628558
USER: SEED 38
USER: STATUS no improvement in best in 1 clusters for 5 generations
USER: GENES 28
USER: genes 0 Translation |==|  0.51475 0.58150 0.46721
USER: genes 1 Rotation |==|  0.37683 0.04458 0.60688 0.62650
USER: genes 2 Torsion [N]-CA--C-[O] |==|  0.49669
USER: genes 3 Torsion [C]-N--CA-[C] |==|  0.74441
USER: genes 4 Torsion [N]-CA--C-[N] |==|  0.07639
USER: genes 5 Torsion [C]-N--CA-[CB] |==|  0.38384
USER: genes 6 Torsion [N]-CA--CB-[CG] |==|  0.84447
USER: genes 7 Torsion [CA]-CB--CG-[ND2] |==|  0.91988
USER: genes 8 Torsion [N]-CA--C-[N] |==|  0.89248
USER: genes 9 Torsion [C]-N--CA-[CB] |==|  0.72572
USER: genes 10 Torsion [N]-CA--CB-[CG2] |==|  0.77061
USER: genes 11 Torsion [CA]-CB--OG1-[HG1] |==|  0.52513
USER: genes 12 Torsion [N]-CA--C-[N] |==|  0.41421
USER: genes 13 Torsion [N]-CA--CB-[CG] |==|  0.84451
USER: genes 14 Torsion [CA]-CB--CG-[CD] |==|  0.27221
USER: genes 15 Torsion [CB]-CG--CD-[OE1] |==|  0.73183
USER: genes 16 Torsion [N]-C--CA-[N] |==|  0.20845
USER: genes 17 Torsion [C]-CA--N-[C] |==|  0.67767
USER: genes 18 Torsion [N]-C--CA-[N] |==|  0.85363
USER: genes 19 Torsion [C]-CA--N-[C] |==|  0.74577
USER: genes 20 Torsion [N]-C--CA-[N] |==|  0.32883
USER: genes 21 Torsion [C]-CA--CB-[CG] |==|  0.41079
USER: genes 22 Torsion [CA]-CB--CG-[CD1] |==|  0.29419
USER: genes 23 Torsion [C]-CA--N-[H3] |==|  0.61105
USER: genes 24 Torsion [C]-CA--CB-[SG] |==|  0.21987
USER: genes 25 Torsion [CA]-CB--SG-[HG] |==|  0.19065
USER: genes 26 Torsion [C]-CA--CB-[CG] |==|  0.19458
USER: genes 27 Torsion [CA]-CB--CG-[ND1] |==|  0.68708
ROOT
ATOM      1  C   HIS P   3      17.494   3.299  16.306  1.00 29.14 LIG 0.24  C 
ATOM      2 O    HIS P   3      18.398   2.448  16.221  1.00 31.23 LIG-0.27  OA
ATOM      3  N   PRO P   4      17.550   4.445  15.605  1.00 24.67 LIG-0.34  N 
ATOM      4  CA  PRO P   4      18.687   4.798  14.786  1.00 22.95 LIG 0.18  C 
ATOM      5  CB  PRO P   4      18.306   6.119  14.134  1.00 20.99 LIG 0.04  C 
ATOM      6  CG  PRO P   4      16.834   6.332  14.409  1.00 22.70 LIG 0.02  C 
ATOM      7  CD  PRO P   4      16.536   5.529  15.624  1.00 21.81 LIG 0.13  C 
ENDROOT
BRANCH 4 8
ATOM      8  C   PRO P   4      20.037   4.913  15.481  1.00 19.64 LIG 0.24  C 
ATOM      9 O    PRO P   4      21.032   5.190  14.808  1.00 20.88 LIG-0.27  OA
ATOM     10  N   GLN P   5      20.088   4.764  16.815  1.00 22.98 LIG-0.35  N 
ATOM     11 H    GLN P   5      19.403   4.567  17.296  1.00 22.98 LIG 0.16  HD
BRANCH 10 12
ATOM     12  CA  GLN P   5      21.320   4.924  17.581  1.00 16.98 LIG 0.18  C 
BRANCH 12 13
ATOM     13  C   GLN P   5      22.098   3.641  17.791  1.00 21.89 LIG 0.24  C 
ATOM     14  N   ASN P   6      22.035   2.618  16.936  1.00 22.75 LIG-0.35  N 
ATOM     15 H    ASN P   6      21.563   2.576  16.218  1.00 22.75 LIG 0.16  HD
ATOM     16 O    GLN P   5      22.804   3.556  18.805  1.00 24.56 LIG-0.27  OA
BRANCH 14 17
ATOM     17  CA  ASN P   6      22.845   1.467  17.257  1.00 29.16 LIG 0.18  C 
BRANCH 17 18
ATOM     18  CB  ASN P   6      22.147   0.119  17.024  1.00 24.89 LIG 0.14  C 
BRANCH 18 19
ATOM     19  CG  ASN P   6      20.836  -0.003  17.778  1.00 26.77 LIG 0.22  C 
ATOM     20 OD1  ASN P   6      19.875  -0.708  17.419  1.00 24.78 LIG-0.27  OA
ATOM     21  ND2 ASN P   6      20.796   0.698  18.890  1.00 25.10 LIG-0.37  N 
ATOM     22 22HD ASN P   6      21.471   1.179  19.120  1.00 25.10 LIG 0.16  HD
ATOM     23 21HD ASN P   6      20.095   0.676  19.388  1.00 25.10 LIG 0.16  HD
ENDBRANCH 18 19
ENDBRANCH 17 18
BRANCH 17 24
ATOM     24  C   ASN P   6      24.083   1.448  16.451  1.00 33.65 LIG 0.24  C 
ATOM     25 O    ASN P   6      25.137   0.986  16.877  1.00 34.15 LIG-0.27  OA
ATOM     26  N   THR P   7      23.715   1.871  15.245  1.00 46.42 LIG-0.34  N 
ATOM     27 H    THR P   7      22.890   2.057  15.091  1.00 46.42 LIG 0.16  HD
BRANCH 26 28
ATOM     28  CA  THR P   7      24.521   2.091  14.055  1.00 55.98 LIG 0.21  C 
BRANCH 28 29
ATOM     29  CB  THR P   7      24.759   3.650  14.095  1.00 59.10 LIG 0.15  C 
ATOM     30  CG2 THR P   7      23.585   4.457  13.510  1.00 61.71 LIG 0.04  C 
BRANCH 29 31
ATOM     31 OG1  THR P   7      25.037   3.984  15.457  1.00 60.27 LIG-0.39  OA
ATOM     32 HG1  THR P   7      25.048   4.819  15.544  1.00 60.27 LIG 0.21  HD
ENDBRANCH 29 31
ENDBRANCH 28 29
BRANCH 28 33
ATOM     33  C   THR P   7      25.789   1.282  13.754  1.00 57.95 LIG 0.29  C 
ATOM     34  N   NH2 P   8      26.041   1.109  12.462  1.00 58.98 LIG-0.11  N 
ATOM     35 O    THR P   7      26.502   0.763  14.618  1.00 60.38 LIG-0.27  OA
ENDBRANCH 28 33
ENDBRANCH 26 28
ENDBRANCH 17 24
ENDBRANCH 14 17
ENDBRANCH 12 13
BRANCH 12 36
ATOM     36  CB  GLN P   5      20.995   5.563  18.918  1.00 11.38 LIG 0.04  C 
BRANCH 36 37
ATOM     37  CG  GLN P   5      20.260   6.892  18.760  1.00 11.43 LIG 0.10  C 
BRANCH 37 38
ATOM     38  CD  GLN P   5      18.748   6.809  18.909  1.00 11.64 LIG 0.21  C 
ATOM     39  NE2 GLN P   5      18.159   6.818  20.087  1.00  7.77 LIG-0.37  N 
ATOM     40 21HE GLN P   5      18.631   6.879  20.803  1.00  7.77 LIG 0.16  HD
ATOM     41 22HE GLN P   5      17.302   6.763  20.140  1.00  7.77 LIG 0.16  HD
ATOM     42 OE1  GLN P   5      18.055   6.721  17.907  1.00 11.36 LIG-0.27  OA
ENDBRANCH 37 38
ENDBRANCH 36 37
ENDBRANCH 12 36
ENDBRANCH 10 12
ENDBRANCH 4 8
BRANCH 1 43
ATOM     43  CA  HIS P   3      16.243   2.994  17.127  1.00 30.34 LIG 0.18  C 
BRANCH 43 44
ATOM     44  N   HIS P   3      15.402   2.641  16.005  1.00 35.71 LIG-0.35  N 
ATOM     45  C   CYS P   2      14.322   3.289  15.622  0.17 38.31 LIG 0.24  C 
ATOM     46 O    CYS P   2      13.824   4.198  16.294  0.17 38.29 LIG-0.27  OA
ATOM     47 H    HIS P   3      15.681   1.940  15.592  1.00 35.71 LIG 0.16  HD
BRANCH 45 48
ATOM     48  CA  CYS P   2      13.743   2.719  14.327  0.17 40.64 LIG 0.18  C 
BRANCH 48 49
ATOM     49  N   CYS P   2      14.665   2.589  13.189  0.17 43.25 LIG-0.34  N 
ATOM     50  C   PHE P   1      14.857   3.526  12.255  0.36 44.98 LIG 0.25  C 
ATOM     51 O    PHE P   1      14.146   4.525  12.169  0.36 46.44 LIG-0.27  OA
ATOM     52 H    CYS P   2      15.080   1.835  13.178  0.17 43.25 LIG 0.16  HD
BRANCH 50 53
ATOM     53  CA  PHE P   1      15.869   3.379  11.122  0.36 46.68 LIG 0.28  C 
BRANCH 53 54
ATOM     54  CB  PHE P   1      16.800   4.597  11.282  0.36 47.92 LIG 0.08  C 
BRANCH 54 55
ATOM     55  CG  PHE P   1      18.285   4.587  10.925  0.36 47.93 LIG-0.06  A 
ATOM     56  CD1 PHE P   1      18.812   5.215   9.791  0.36 48.98 LIG 0.01  A 
ATOM     57  CE1 PHE P   1      20.188   5.167   9.544  0.36 50.12 LIG 0.00  A 
ATOM     58  CZ  PHE P   1      21.042   4.496  10.420  0.36 48.72 LIG 0.00  A 
ATOM     59  CE2 PHE P   1      20.515   3.873  11.549  0.36 48.48 LIG 0.00  A 
ATOM     60  CD2 PHE P   1      19.142   3.917  11.802  0.36 48.25 LIG 0.01  A 
ENDBRANCH 54 55
ENDBRANCH 53 54
BRANCH 53 61
ATOM     61  N   PHE P   1      14.977   3.430   9.976  0.36 46.83 LIG-0.07  N 
ATOM     62 H3   PHE P   1      15.242   2.838   9.366  0.36 46.83 LIG 0.28  HD
ATOM     63 H1   PHE P   1      14.148   3.237  10.237  0.36 46.83 LIG 0.28  HD
ATOM     64 H2   PHE P   1      14.994   4.247   9.623  0.36 46.83 LIG 0.28  HD
ENDBRANCH 53 61
ENDBRANCH 50 53
ENDBRANCH 48 49
BRANCH 48 65
ATOM     65  CB  CYS P   2      13.039   1.425  14.731  0.17 41.02 LIG 0.10  C 
BRANCH 65 66
ATOM     66 SG   CYS P   2      11.472   2.006  15.423  0.17 41.68 LIG-0.18  SA
ATOM     67 HG   CYS P   2      10.794   2.467  14.547  0.17 41.68 LIG 0.10  HD
ENDBRANCH 65 66
ENDBRANCH 48 65
ENDBRANCH 45 48
ENDBRANCH 43 44
BRANCH 43 68
ATOM     68  CB  HIS P   3      16.629   1.913  18.186  1.00 25.21 LIG 0.10  C 
BRANCH 68 69
ATOM     69  CG  HIS P   3      17.570   2.586  19.238  1.00 21.50 LIG 0.06  A 
ATOM     70 ND1  HIS P   3      18.853   2.240  19.348  1.00 15.93 LIG-0.24  NA
ATOM     71  CE1 HIS P   3      19.370   3.159  20.149  1.00 14.31 LIG 0.23  A 
ATOM     72 NE2  HIS P   3      18.449   4.038  20.511  1.00 14.39 LIG-0.25  NA
ATOM     73  CD2 HIS P   3      17.289   3.727  19.977  1.00 20.69 LIG 0.14  A 
ENDBRANCH 68 69
ENDBRANCH 43 68
ENDBRANCH 1 43
TORSDOF 26
ENDMDL
MODEL 19
USER: ADFR SOLUTION from run 55
USER: SCORE 20.637212 LL:  -6.281 LR: -16.974 RR:   0.000 FEB:  -9.219
USER: RMSD 8.808538
USER: SEED 54
USER: STATUS 1 or 2 clusters left
USER: GENES 28
USER: genes 0 Translation |==|  0.49729 0.58338 0.46220
USER: genes 1 Rotation |==|  0.36759 0.05351 0.64706 0.60719
USER: genes 2 Torsion [N]-CA--C-[O] |==|  0.77152
USER: genes 3 Torsion [C]-N--CA-[C] |==|  0.12353
USER: genes 4 Torsion [N]-CA--C-[N] |==|  0.08034
USER: genes 5 Torsion [C]-N--CA-[CB] |==|  0.26667
USER: genes 6 Torsion [N]-CA--CB-[CG] |==|  0.13993
USER: genes 7 Torsion [CA]-CB--CG-[ND2] |==|  0.51352
USER: genes 8 Torsion [N]-CA--C-[N] |==|  0.51553
USER: genes 9 Torsion [C]-N--CA-[CB] |==|  0.73776
USER: genes 10 Torsion [N]-CA--CB-[CG2] |==|  0.51847
USER: genes 11 Torsion [CA]-CB--OG1-[HG1] |==|  0.90140
USER: genes 12 Torsion [N]-CA--C-[N] |==|  0.04643
USER: genes 13 Torsion [N]-CA--CB-[CG] |==|  0.94898
USER: genes 14 Torsion [CA]-CB--CG-[CD] |==|  0.60419
USER: genes 15 Torsion [CB]-CG--CD-[OE1] |==|  0.90800
USER: genes 16 Torsion [N]-C--CA-[N] |==|  0.18123
USER: genes 17 Torsion [C]-CA--N-[C] |==|  0.63946
USER: genes 18 Torsion [N]-C--CA-[N] |==|  0.91398
USER: genes 19 Torsion [C]-CA--N-[C] |==|  0.74839
USER: genes 20 Torsion [N]-C--CA-[N] |==|  0.40411
USER: genes 21 Torsion [C]-CA--CB-[CG] |==|  0.61720
USER: genes 22 Torsion [CA]-CB--CG-[CD1] |==|  0.60723
USER: genes 23 Torsion [C]-CA--N-[H3] |==|  0.88448
USER: genes 24 Torsion [C]-CA--CB-[SG] |==|  0.14880
USER: genes 25 Torsion [CA]-CB--SG-[HG] |==|  0.20334
USER: genes 26 Torsion [C]-CA--CB-[CG] |==|  0.78168
USER: genes 27 Torsion [CA]-CB--CG-[ND1] |==|  0.35864
ROOT
ATOM      1  C   HIS P   3      17.114   3.333  16.194  1.00 29.14 LIG 0.24  C 
ATOM      2 O    HIS P   3      18.031   2.496  16.290  1.00 31.23 LIG-0.27  OA
ATOM      3  N   PRO P   4      17.178   4.334  15.298  1.00 24.67 LIG-0.34  N 
ATOM      4  CA  PRO P   4      18.336   4.552  14.461  1.00 22.95 LIG 0.18  C 
ATOM      5  CB  PRO P   4      17.959   5.726  13.569  1.00 20.99 LIG 0.04  C 
ATOM      6  CG  PRO P   4      16.477   5.959  13.759  1.00 22.70 LIG 0.02  C 
ATOM      7  CD  PRO P   4      16.152   5.385  15.091  1.00 21.81 LIG 0.13  C 
ENDROOT
BRANCH 4 8
ATOM      8  C   PRO P   4      19.662   4.814  15.160  1.00 19.64 LIG 0.24  C 
ATOM      9 O    PRO P   4      19.913   5.954  15.556  1.00 20.88 LIG-0.27  OA
ATOM     10  N   GLN P   5      20.491   3.778  15.375  1.00 22.98 LIG-0.35  N 
ATOM     11 H    GLN P   5      20.331   2.979  15.101  1.00 22.98 LIG 0.16  HD
BRANCH 10 12
ATOM     12  CA  GLN P   5      21.752   3.912  16.097  1.00 16.98 LIG 0.18  C 
BRANCH 12 13
ATOM     13  C   GLN P   5      21.664   4.737  17.365  1.00 21.89 LIG 0.24  C 
ATOM     14  N   ASN P   6      20.543   4.821  18.086  1.00 22.75 LIG-0.35  N 
ATOM     15 H    ASN P   6      19.790   4.444  17.913  1.00 22.75 LIG 0.16  HD
ATOM     16 O    GLN P   5      22.675   5.356  17.720  1.00 24.56 LIG-0.27  OA
BRANCH 14 17
ATOM     17  CA  ASN P   6      20.612   5.631  19.280  1.00 29.16 LIG 0.18  C 
BRANCH 17 18
ATOM     18  CB  ASN P   6      20.113   7.071  19.096  1.00 24.89 LIG 0.14  C 
BRANCH 18 19
ATOM     19  CG  ASN P   6      18.747   7.141  18.437  1.00 26.77 LIG 0.22  C 
ATOM     20 OD1  ASN P   6      18.037   6.154  18.171  1.00 24.78 LIG-0.27  OA
ATOM     21  ND2 ASN P   6      18.346   8.367  18.178  1.00 25.10 LIG-0.37  N 
ATOM     22 22HD ASN P   6      18.853   9.035  18.370  1.00 25.10 LIG 0.16  HD
ATOM     23 21HD ASN P   6      17.577   8.500  17.818  1.00 25.10 LIG 0.16  HD
ENDBRANCH 18 19
ENDBRANCH 17 18
BRANCH 17 24
ATOM     24  C   ASN P   6      19.809   5.040  20.370  1.00 33.65 LIG 0.24  C 
ATOM     25 O    ASN P   6      19.360   3.899  20.312  1.00 34.15 LIG-0.27  OA
ATOM     26  N   THR P   7      19.856   5.933  21.354  1.00 46.42 LIG-0.34  N 
ATOM     27 H    THR P   7      20.318   6.652  21.258  1.00 46.42 LIG 0.16  HD
BRANCH 26 28
ATOM     28  CA  THR P   7      19.216   5.907  22.660  1.00 55.98 LIG 0.21  C 
BRANCH 28 29
ATOM     29  CB  THR P   7      17.888   6.718  22.399  1.00 59.10 LIG 0.15  C 
ATOM     30  CG2 THR P   7      17.079   6.986  23.682  1.00 61.71 LIG 0.04  C 
BRANCH 29 31
ATOM     31 OG1  THR P   7      18.272   7.919  21.724  1.00 60.27 LIG-0.39  OA
ATOM     32 HG1  THR P   7      19.014   8.181  22.019  1.00 60.27 LIG 0.21  HD
ENDBRANCH 29 31
ENDBRANCH 28 29
BRANCH 28 33
ATOM     33  C   THR P   7      19.000   4.609  23.448  1.00 57.95 LIG 0.29  C 
ATOM     34  N   NH2 P   8      19.731   3.582  23.033  1.00 58.98 LIG-0.11  N 
ATOM     35 O    THR P   7      18.173   4.478  24.355  1.00 60.38 LIG-0.27  OA
ENDBRANCH 28 33
ENDBRANCH 26 28
ENDBRANCH 17 24
ENDBRANCH 14 17
ENDBRANCH 12 13
BRANCH 12 36
ATOM     36  CB  GLN P   5      22.799   4.494  15.167  1.00 11.38 LIG 0.04  C 
BRANCH 36 37
ATOM     37  CG  GLN P   5      22.410   4.353  13.698  1.00 11.43 LIG 0.10  C 
BRANCH 37 38
ATOM     38  CD  GLN P   5      23.565   4.044  12.757  1.00 11.64 LIG 0.21  C 
ATOM     39  NE2 GLN P   5      23.414   3.289  11.687  1.00  7.77 LIG-0.37  N 
ATOM     40 21HE GLN P   5      22.643   2.960  11.499  1.00  7.77 LIG 0.16  HD
ATOM     41 22HE GLN P   5      24.088   3.126  11.177  1.00  7.77 LIG 0.16  HD
ATOM     42 OE1  GLN P   5      24.672   4.500  13.002  1.00 11.36 LIG-0.27  OA
ENDBRANCH 37 38
ENDBRANCH 36 37
ENDBRANCH 12 36
ENDBRANCH 10 12
ENDBRANCH 4 8
BRANCH 1 43
ATOM     43  CA  HIS P   3      15.842   3.160  17.021  1.00 30.34 LIG 0.18  C 
BRANCH 43 44
ATOM     44  N   HIS P   3      14.978   2.828  15.910  1.00 35.71 LIG-0.35  N 
ATOM     45  C   CYS P   2      13.816   3.387  15.649  0.17 38.31 LIG 0.24  C 
ATOM     46 O    CYS P   2      13.265   4.166  16.434  0.17 38.29 LIG-0.27  OA
ATOM     47 H    HIS P   3      15.304   2.205  15.414  1.00 35.71 LIG 0.16  HD
BRANCH 45 48
ATOM     48  CA  CYS P   2      13.223   2.885  14.332  0.17 40.64 LIG 0.18  C 
BRANCH 48 49
ATOM     49  N   CYS P   2      14.176   2.501  13.279  0.17 43.25 LIG-0.34  N 
ATOM     50  C   PHE P   1      14.648   3.329  12.342  0.36 44.98 LIG 0.25  C 
ATOM     51 O    PHE P   1      14.193   4.459  12.171  0.36 46.44 LIG-0.27  OA
ATOM     52 H    CYS P   2      14.408   1.674  13.322  0.17 43.25 LIG 0.16  HD
BRANCH 50 53
ATOM     53  CA  PHE P   1      15.684   2.909  11.303  0.36 46.68 LIG 0.28  C 
BRANCH 53 54
ATOM     54  CB  PHE P   1      17.032   3.345  11.911  0.36 47.92 LIG 0.08  C 
BRANCH 54 55
ATOM     55  CG  PHE P   1      18.151   4.010  11.112  0.36 47.93 LIG-0.06  A 
ATOM     56  CD1 PHE P   1      19.509   3.736  11.309  0.36 48.98 LIG 0.01  A 
ATOM     57  CE1 PHE P   1      20.471   4.382  10.524  0.36 50.12 LIG 0.00  A 
ATOM     58  CZ  PHE P   1      20.087   5.298   9.545  0.36 48.72 LIG 0.00  A 
ATOM     59  CE2 PHE P   1      18.734   5.567   9.350  0.36 48.48 LIG 0.00  A 
ATOM     60  CD2 PHE P   1      17.769   4.926  10.129  0.36 48.25 LIG 0.01  A 
ENDBRANCH 54 55
ENDBRANCH 53 54
BRANCH 53 61
ATOM     61  N   PHE P   1      15.236   3.694  10.166  0.36 46.83 LIG-0.07  N 
ATOM     62 H3   PHE P   1      14.347   3.672  10.120  0.36 46.83 LIG 0.28  HD
ATOM     63 H1   PHE P   1      15.507   4.537  10.262  0.36 46.83 LIG 0.28  HD
ATOM     64 H2   PHE P   1      15.580   3.356   9.417  0.36 46.83 LIG 0.28  HD
ENDBRANCH 53 61
ENDBRANCH 50 53
ENDBRANCH 48 49
BRANCH 48 65
ATOM     65  CB  CYS P   2      12.228   1.794  14.722  0.17 41.02 LIG 0.10  C 
BRANCH 65 66
ATOM     66 SG   CYS P   2      11.163   2.619  15.929  0.17 41.68 LIG-0.18  SA
ATOM     67 HG   CYS P   2      10.441   3.392  15.363  0.17 41.68 LIG 0.10  HD
ENDBRANCH 65 66
ENDBRANCH 48 65
ENDBRANCH 45 48
ENDBRANCH 43 44
BRANCH 43 68
ATOM     68  CB  HIS P   3      16.141   2.097  18.125  1.00 25.21 LIG 0.10  C 
BRANCH 68 69
ATOM     69  CG  HIS P   3      16.066   0.683  17.463  1.00 21.50 LIG 0.06  A 
ATOM     70 ND1  HIS P   3      17.047  -0.208  17.607  1.00 15.93 LIG-0.24  NA
ATOM     71  CE1 HIS P   3      16.540  -1.332  17.125  1.00 14.31 LIG 0.23  A 
ATOM     72 NE2  HIS P   3      15.297  -1.145  16.708  1.00 14.39 LIG-0.25  NA
ATOM     73  CD2 HIS P   3      14.942   0.108  16.886  1.00 20.69 LIG 0.14  A 
ENDBRANCH 68 69
ENDBRANCH 43 68
ENDBRANCH 1 43
TORSDOF 26
ENDMDL
MODEL 20
USER: ADFR SOLUTION from run 10
USER: SCORE 21.054758 LL:  -6.739 LR: -16.946 RR:   0.000 FEB:  -9.190
USER: RMSD 10.214588
USER: SEED 99807
USER: STATUS no improvement in best in 6 clusters for 5 generations
USER: GENES 28
USER: genes 0 Translation |==|  0.49338 0.61748 0.39365
USER: genes 1 Rotation |==|  0.45469 0.02482 0.36192 0.55558
USER: genes 2 Torsion [N]-CA--C-[O] |==|  0.95077
USER: genes 3 Torsion [C]-N--CA-[C] |==|  0.75556
USER: genes 4 Torsion [N]-CA--C-[N] |==|  0.22035
USER: genes 5 Torsion [C]-N--CA-[CB] |==|  0.44973
USER: genes 6 Torsion [N]-CA--CB-[CG] |==|  0.79354
USER: genes 7 Torsion [CA]-CB--CG-[ND2] |==|  0.26665
USER: genes 8 Torsion [N]-CA--C-[N] |==|  0.91985
USER: genes 9 Torsion [C]-N--CA-[CB] |==|  0.65292
USER: genes 10 Torsion [N]-CA--CB-[CG2] |==|  0.53837
USER: genes 11 Torsion [CA]-CB--OG1-[HG1] |==|  0.47327
USER: genes 12 Torsion [N]-CA--C-[N] |==|  0.36409
USER: genes 13 Torsion [N]-CA--CB-[CG] |==|  0.52391
USER: genes 14 Torsion [CA]-CB--CG-[CD] |==|  0.27270
USER: genes 15 Torsion [CB]-CG--CD-[OE1] |==|  0.79144
USER: genes 16 Torsion [N]-C--CA-[N] |==|  0.31939
USER: genes 17 Torsion [C]-CA--N-[C] |==|  0.64985
USER: genes 18 Torsion [N]-C--CA-[N] |==|  0.80778
USER: genes 19 Torsion [C]-CA--N-[C] |==|  0.19163
USER: genes 20 Torsion [N]-C--CA-[N] |==|  0.27970
USER: genes 21 Torsion [C]-CA--CB-[CG] |==|  0.74647
USER: genes 22 Torsion [CA]-CB--CG-[CD1] |==|  0.04640
USER: genes 23 Torsion [C]-CA--N-[H3] |==|  0.44949
USER: genes 24 Torsion [C]-CA--CB-[SG] |==|  0.42373
USER: genes 25 Torsion [CA]-CB--SG-[HG] |==|  0.91723
USER: genes 26 Torsion [C]-CA--CB-[CG] |==|  0.44083
USER: genes 27 Torsion [CA]-CB--CG-[ND1] |==|  0.86813
ROOT
ATOM      1  C   HIS P   3      17.029   3.947  14.651  1.00 29.14 LIG 0.24  C 
ATOM      2 O    HIS P   3      18.125   3.431  14.362  1.00 31.23 LIG-0.27  OA
ATOM      3  N   PRO P   4      16.962   5.166  15.214  1.00 24.67 LIG-0.34  N 
ATOM      4  CA  PRO P   4      18.140   5.910  15.595  1.00 22.95 LIG 0.18  C 
ATOM      5  CB  PRO P   4      17.613   7.237  16.122  1.00 20.99 LIG 0.04  C 
ATOM      6  CG  PRO P   4      16.145   7.295  15.764  1.00 22.70 LIG 0.02  C 
ATOM      7  CD  PRO P   4      15.720   5.880  15.600  1.00 21.81 LIG 0.13  C 
ENDROOT
BRANCH 4 8
ATOM      8  C   PRO P   4      19.075   5.264  16.609  1.00 19.64 LIG 0.24  C 
ATOM      9 O    PRO P   4      18.655   4.332  17.298  1.00 20.88 LIG-0.27  OA
ATOM     10  N   GLN P   5      20.346   5.694  16.677  1.00 22.98 LIG-0.35  N 
ATOM     11 H    GLN P   5      20.651   6.346  16.205  1.00 22.98 LIG 0.16  HD
BRANCH 10 12
ATOM     12  CA  GLN P   5      21.337   5.094  17.564  1.00 16.98 LIG 0.18  C 
BRANCH 12 13
ATOM     13  C   GLN P   5      21.376   5.692  18.955  1.00 21.89 LIG 0.24  C 
ATOM     14  N   ASN P   6      20.490   5.365  19.899  1.00 22.75 LIG-0.35  N 
ATOM     15 H    ASN P   6      19.831   4.818  19.819  1.00 22.75 LIG 0.16  HD
ATOM     16 O    GLN P   5      22.264   6.519  19.202  1.00 24.56 LIG-0.27  OA
BRANCH 14 17
ATOM     17  CA  ASN P   6      20.661   6.002  21.183  1.00 29.16 LIG 0.18  C 
BRANCH 17 18
ATOM     18  CB  ASN P   6      19.418   5.956  22.082  1.00 24.89 LIG 0.14  C 
BRANCH 18 19
ATOM     19  CG  ASN P   6      18.332   6.918  21.636  1.00 26.77 LIG 0.22  C 
ATOM     20 OD1  ASN P   6      18.297   8.129  21.921  1.00 24.78 LIG-0.27  OA
ATOM     21  ND2 ASN P   6      17.409   6.363  20.881  1.00 25.10 LIG-0.37  N 
ATOM     22 22HD ASN P   6      17.453   5.524  20.696  1.00 25.10 LIG 0.16  HD
ATOM     23 21HD ASN P   6      16.763   6.838  20.571  1.00 25.10 LIG 0.16  HD
ENDBRANCH 18 19
ENDBRANCH 17 18
BRANCH 17 24
ATOM     24  C   ASN P   6      21.759   5.372  21.946  1.00 33.65 LIG 0.24  C 
ATOM     25 O    ASN P   6      22.352   5.955  22.848  1.00 34.15 LIG-0.27  OA
ATOM     26  N   THR P   7      21.789   4.111  21.526  1.00 46.42 LIG-0.34  N 
ATOM     27 H    THR P   7      21.214   3.839  20.947  1.00 46.42 LIG 0.16  HD
BRANCH 26 28
ATOM     28  CA  THR P   7      22.690   3.031  21.899  1.00 55.98 LIG 0.21  C 
BRANCH 28 29
ATOM     29  CB  THR P   7      23.255   2.568  20.501  1.00 59.10 LIG 0.15  C 
ATOM     30  CG2 THR P   7      23.983   1.212  20.560  1.00 61.71 LIG 0.04  C 
BRANCH 29 31
ATOM     31 OG1  THR P   7      22.147   2.564  19.596  1.00 60.27 LIG-0.39  OA
ATOM     32 HG1  THR P   7      22.427   2.450  18.812  1.00 60.27 LIG 0.21  HD
ENDBRANCH 29 31
ENDBRANCH 28 29
BRANCH 28 33
ATOM     33  C   THR P   7      23.769   3.191  22.977  1.00 57.95 LIG 0.29  C 
ATOM     34  N   NH2 P   8      23.792   2.222  23.884  1.00 58.98 LIG-0.11  N 
ATOM     35 O    THR P   7      24.525   4.163  23.063  1.00 60.38 LIG-0.27  OA
ENDBRANCH 28 33
ENDBRANCH 26 28
ENDBRANCH 17 24
ENDBRANCH 14 17
ENDBRANCH 12 13
BRANCH 12 36
ATOM     36  CB  GLN P   5      22.705   5.187  16.916  1.00 11.38 LIG 0.04  C 
BRANCH 36 37
ATOM     37  CG  GLN P   5      23.763   4.397  17.683  1.00 11.43 LIG 0.10  C 
BRANCH 37 38
ATOM     38  CD  GLN P   5      24.060   3.014  17.121  1.00 11.64 LIG 0.21  C 
ATOM     39  NE2 GLN P   5      25.155   2.758  16.435  1.00  7.77 LIG-0.37  N 
ATOM     40 21HE GLN P   5      25.732   3.381  16.297  1.00  7.77 LIG 0.16  HD
ATOM     41 22HE GLN P   5      25.293   1.968  16.124  1.00  7.77 LIG 0.16  HD
ATOM     42 OE1  GLN P   5      23.256   2.112  17.302  1.00 11.36 LIG-0.27  OA
ENDBRANCH 37 38
ENDBRANCH 36 37
ENDBRANCH 12 36
ENDBRANCH 10 12
ENDBRANCH 4 8
BRANCH 1 43
ATOM     43  CA  HIS P   3      15.734   3.241  14.257  1.00 30.34 LIG 0.18  C 
BRANCH 43 44
ATOM     44  N   HIS P   3      15.981   3.244  12.833  1.00 35.71 LIG-0.35  N 
ATOM     45  C   CYS P   2      15.167   3.717  11.914  0.17 38.31 LIG 0.24  C 
ATOM     46 O    CYS P   2      14.014   4.079  12.175  0.17 38.29 LIG-0.27  OA
ATOM     47 H    HIS P   3      16.740   2.893  12.629  1.00 35.71 LIG 0.16  HD
BRANCH 45 48
ATOM     48  CA  CYS P   2      15.792   3.674  10.519  0.17 40.64 LIG 0.18  C 
BRANCH 48 49
ATOM     49  N   CYS P   2      16.911   4.593  10.264  0.17 43.25 LIG-0.34  N 
ATOM     50  C   PHE P   1      18.123   4.487  10.819  0.36 44.98 LIG 0.25  C 
ATOM     51 O    PHE P   1      18.362   3.701  11.734  0.36 46.44 LIG-0.27  OA
ATOM     52 H    CYS P   2      16.711   5.220   9.711  0.17 43.25 LIG 0.16  HD
BRANCH 50 53
ATOM     53  CA  PHE P   1      19.279   5.425  10.482  0.36 46.68 LIG 0.28  C 
BRANCH 53 54
ATOM     54  CB  PHE P   1      20.513   4.501  10.421  0.36 47.92 LIG 0.08  C 
BRANCH 54 55
ATOM     55  CG  PHE P   1      21.415   4.206  11.618  0.36 47.93 LIG-0.06  A 
ATOM     56  CD1 PHE P   1      21.047   4.454  12.944  0.36 48.98 LIG 0.01  A 
ATOM     57  CE1 PHE P   1      21.930   4.142  13.983  0.36 50.12 LIG 0.00  A 
ATOM     58  CZ  PHE P   1      23.179   3.585  13.707  0.36 48.72 LIG 0.00  A 
ATOM     59  CE2 PHE P   1      23.542   3.336  12.385  0.36 48.48 LIG 0.00  A 
ATOM     60  CD2 PHE P   1      22.665   3.644  11.344  0.36 48.25 LIG 0.01  A 
ENDBRANCH 54 55
ENDBRANCH 53 54
BRANCH 53 61
ATOM     61  N   PHE P   1      19.229   6.313  11.630  0.36 46.83 LIG-0.07  N 
ATOM     62 H3   PHE P   1      20.002   6.749  11.703  0.36 46.83 LIG 0.28  HD
ATOM     63 H1   PHE P   1      18.568   6.900  11.523  0.36 46.83 LIG 0.28  HD
ATOM     64 H2   PHE P   1      19.087   5.837  12.368  0.36 46.83 LIG 0.28  HD
ENDBRANCH 53 61
ENDBRANCH 50 53
ENDBRANCH 48 49
BRANCH 48 65
ATOM     65  CB  CYS P   2      16.101   2.201  10.257  0.17 41.02 LIG 0.10  C 
BRANCH 65 66
ATOM     66 SG   CYS P   2      16.023   2.076   8.455  0.17 41.68 LIG-0.18  SA
ATOM     67 HG   CYS P   2      15.243   2.884   8.031  0.17 41.68 LIG 0.10  HD
ENDBRANCH 65 66
ENDBRANCH 48 65
ENDBRANCH 45 48
ENDBRANCH 43 44
BRANCH 43 68
ATOM     68  CB  HIS P   3      15.679   1.890  15.039  1.00 25.21 LIG 0.10  C 
BRANCH 68 69
ATOM     69  CG  HIS P   3      14.187   1.426  15.093  1.00 21.50 LIG 0.06  A 
ATOM     70 ND1  HIS P   3      13.208   2.264  15.438  1.00 15.93 LIG-0.24  NA
ATOM     71  CE1 HIS P   3      12.097   1.605  15.146  1.00 14.31 LIG 0.23  A 
ATOM     72 NE2  HIS P   3      12.378   0.415  14.635  1.00 14.39 LIG-0.25  NA
ATOM     73  CD2 HIS P   3      13.679   0.239  14.583  1.00 20.69 LIG 0.14  A 
ENDBRANCH 68 69
ENDBRANCH 43 68
ENDBRANCH 1 43
TORSDOF 26
ENDMDL
MODEL 21
USER: ADFR SOLUTION from run 164
USER: SCORE 21.900069 LL:  -6.826 LR: -16.850 RR:   0.000 FEB:  -9.094
USER: RMSD 9.188992
USER: SEED 163
USER: STATUS no improvement in best in 4 clusters for 5 generations
USER: GENES 28
USER: genes 0 Translation |==|  0.49763 0.61147 0.39070
USER: genes 1 Rotation |==|  0.36999 0.05037 0.32503 0.51785
USER: genes 2 Torsion [N]-CA--C-[O] |==|  0.73855
USER: genes 3 Torsion [C]-N--CA-[C] |==|  0.18889
USER: genes 4 Torsion [N]-CA--C-[N] |==|  0.00754
USER: genes 5 Torsion [C]-N--CA-[CB] |==|  0.47778
USER: genes 6 Torsion [N]-CA--CB-[CG] |==|  0.86913
USER: genes 7 Torsion [CA]-CB--CG-[ND2] |==|  0.62722
USER: genes 8 Torsion [N]-CA--C-[N] |==|  0.49704
USER: genes 9 Torsion [C]-N--CA-[CB] |==|  0.82064
USER: genes 10 Torsion [N]-CA--CB-[CG2] |==|  0.87513
USER: genes 11 Torsion [CA]-CB--OG1-[HG1] |==|  0.43270
USER: genes 12 Torsion [N]-CA--C-[N] |==|  0.41856
USER: genes 13 Torsion [N]-CA--CB-[CG] |==|  0.81077
USER: genes 14 Torsion [CA]-CB--CG-[CD] |==|  0.33186
USER: genes 15 Torsion [CB]-CG--CD-[OE1] |==|  0.91572
USER: genes 16 Torsion [N]-C--CA-[N] |==|  0.33970
USER: genes 17 Torsion [C]-CA--N-[C] |==|  0.55772
USER: genes 18 Torsion [N]-C--CA-[N] |==|  0.96641
USER: genes 19 Torsion [C]-CA--N-[C] |==|  0.73420
USER: genes 20 Torsion [N]-C--CA-[N] |==|  0.40747
USER: genes 21 Torsion [C]-CA--CB-[CG] |==|  0.43620
USER: genes 22 Torsion [CA]-CB--CG-[CD1] |==|  0.49860
USER: genes 23 Torsion [C]-CA--N-[H3] |==|  0.95149
USER: genes 24 Torsion [C]-CA--CB-[SG] |==|  0.54293
USER: genes 25 Torsion [CA]-CB--SG-[HG] |==|  0.71901
USER: genes 26 Torsion [C]-CA--CB-[CG] |==|  0.35586
USER: genes 27 Torsion [CA]-CB--CG-[ND1] |==|  0.39650
ROOT
ATOM      1  C   HIS P   3      17.121   3.838  14.585  1.00 29.14 LIG 0.24  C 
ATOM      2 O    HIS P   3      17.959   2.975  14.265  1.00 31.23 LIG-0.27  OA
ATOM      3  N   PRO P   4      17.479   4.924  15.294  1.00 24.67 LIG-0.34  N 
ATOM      4  CA  PRO P   4      18.820   5.114  15.797  1.00 22.95 LIG 0.18  C 
ATOM      5  CB  PRO P   4      18.796   6.479  16.470  1.00 20.99 LIG 0.04  C 
ATOM      6  CG  PRO P   4      17.489   7.134  16.082  1.00 22.70 LIG 0.02  C 
ATOM      7  CD  PRO P   4      16.574   6.016  15.731  1.00 21.81 LIG 0.13  C 
ENDROOT
BRANCH 4 8
ATOM      8  C   PRO P   4      19.363   4.056  16.748  1.00 19.64 LIG 0.24  C 
ATOM      9 O    PRO P   4      19.251   4.232  17.963  1.00 20.88 LIG-0.27  OA
ATOM     10  N   GLN P   5      19.897   2.938  16.228  1.00 22.98 LIG-0.35  N 
ATOM     11 H    GLN P   5      19.985   2.804  15.383  1.00 22.98 LIG 0.16  HD
BRANCH 10 12
ATOM     12  CA  GLN P   5      20.381   1.836  17.053  1.00 16.98 LIG 0.18  C 
BRANCH 12 13
ATOM     13  C   GLN P   5      19.295   1.087  17.798  1.00 21.89 LIG 0.24  C 
ATOM     14  N   ASN P   6      17.999   1.381  17.660  1.00 22.75 LIG-0.35  N 
ATOM     15 H    ASN P   6      17.662   2.000  17.168  1.00 22.75 LIG 0.16  HD
ATOM     16 O    GLN P   5      19.643   0.179  18.565  1.00 24.56 LIG-0.27  OA
BRANCH 14 17
ATOM     17  CA  ASN P   6      17.077   0.571  18.420  1.00 29.16 LIG 0.18  C 
BRANCH 17 18
ATOM     18  CB  ASN P   6      15.624   1.064  18.382  1.00 24.89 LIG 0.14  C 
BRANCH 18 19
ATOM     19  CG  ASN P   6      15.501   2.555  18.636  1.00 26.77 LIG 0.22  C 
ATOM     20 OD1  ASN P   6      16.201   3.427  18.089  1.00 24.78 LIG-0.27  OA
ATOM     21  ND2 ASN P   6      14.552   2.871  19.489  1.00 25.10 LIG-0.37  N 
ATOM     22 22HD ASN P   6      14.079   2.253  19.856  1.00 25.10 LIG 0.16  HD
ATOM     23 21HD ASN P   6      14.403   3.696  19.681  1.00 25.10 LIG 0.16  HD
ENDBRANCH 18 19
ENDBRANCH 17 18
BRANCH 17 24
ATOM     24  C   ASN P   6      17.064  -0.822  17.927  1.00 33.65 LIG 0.24  C 
ATOM     25 O    ASN P   6      17.832  -1.220  17.057  1.00 34.15 LIG-0.27  OA
ATOM     26  N   THR P   7      16.203  -1.458  18.717  1.00 46.42 LIG-0.34  N 
ATOM     27 H    THR P   7      15.823  -1.035  19.363  1.00 46.42 LIG 0.16  HD
BRANCH 26 28
ATOM     28  CA  THR P   7      15.759  -2.842  18.679  1.00 55.98 LIG 0.21  C 
BRANCH 28 29
ATOM     29  CB  THR P   7      15.001  -2.913  17.297  1.00 59.10 LIG 0.15  C 
ATOM     30  CG2 THR P   7      14.067  -1.713  17.056  1.00 61.71 LIG 0.04  C 
BRANCH 29 31
ATOM     31 OG1  THR P   7      16.007  -3.044  16.289  1.00 60.27 LIG-0.39  OA
ATOM     32 HG1  THR P   7      15.675  -3.408  15.608  1.00 60.27 LIG 0.21  HD
ENDBRANCH 29 31
ENDBRANCH 28 29
BRANCH 28 33
ATOM     33  C   THR P   7      16.708  -4.022  18.922  1.00 57.95 LIG 0.29  C 
ATOM     34  N   NH2 P   8      16.132  -5.096  19.449  1.00 58.98 LIG-0.11  N 
ATOM     35 O    THR P   7      17.926  -3.986  18.721  1.00 60.38 LIG-0.27  OA
ENDBRANCH 28 33
ENDBRANCH 26 28
ENDBRANCH 17 24
ENDBRANCH 14 17
ENDBRANCH 12 13
BRANCH 12 36
ATOM     36  CB  GLN P   5      21.415   2.363  18.029  1.00 11.38 LIG 0.04  C 
BRANCH 36 37
ATOM     37  CG  GLN P   5      22.697   2.808  17.329  1.00 11.43 LIG 0.10  C 
BRANCH 37 38
ATOM     38  CD  GLN P   5      23.050   4.276  17.516  1.00 11.64 LIG 0.21  C 
ATOM     39  NE2 GLN P   5      24.297   4.700  17.532  1.00  7.77 LIG-0.37  N 
ATOM     40 21HE GLN P   5      24.942   4.141  17.428  1.00  7.77 LIG 0.16  HD
ATOM     41 22HE GLN P   5      24.466   5.536  17.646  1.00  7.77 LIG 0.16  HD
ATOM     42 OE1  GLN P   5      22.152   5.091  17.666  1.00 11.36 LIG-0.27  OA
ENDBRANCH 37 38
ENDBRANCH 36 37
ENDBRANCH 12 36
ENDBRANCH 10 12
ENDBRANCH 4 8
BRANCH 1 43
ATOM     43  CA  HIS P   3      15.688   3.730  14.070  1.00 30.34 LIG 0.18  C 
BRANCH 43 44
ATOM     44  N   HIS P   3      16.034   3.603  12.672  1.00 35.71 LIG-0.35  N 
ATOM     45  C   CYS P   2      15.232   3.851  11.658  0.17 38.31 LIG 0.24  C 
ATOM     46 O    CYS P   2      14.026   4.077  11.809  0.17 38.29 LIG-0.27  OA
ATOM     47 H    HIS P   3      16.844   3.340  12.555  1.00 35.71 LIG 0.16  HD
BRANCH 45 48
ATOM     48  CA  CYS P   2      15.954   3.735  10.316  0.17 40.64 LIG 0.18  C 
BRANCH 48 49
ATOM     49  N   CYS P   2      17.422   3.651  10.357  0.17 43.25 LIG-0.34  N 
ATOM     50  C   PHE P   1      18.247   4.692  10.209  0.36 44.98 LIG 0.25  C 
ATOM     51 O    PHE P   1      17.852   5.801   9.854  0.36 46.44 LIG-0.27  OA
ATOM     52 H    CYS P   2      17.708   2.850  10.487  0.17 43.25 LIG 0.16  HD
BRANCH 50 53
ATOM     53  CA  PHE P   1      19.765   4.575  10.320  0.36 46.68 LIG 0.28  C 
BRANCH 53 54
ATOM     54  CB  PHE P   1      20.068   4.921  11.792  0.36 47.92 LIG 0.08  C 
BRANCH 54 55
ATOM     55  CG  PHE P   1      21.328   4.475  12.530  0.36 47.93 LIG-0.06  A 
ATOM     56  CD1 PHE P   1      21.600   4.801  13.863  0.36 48.98 LIG 0.01  A 
ATOM     57  CE1 PHE P   1      22.776   4.342  14.467  0.36 50.12 LIG 0.00  A 
ATOM     58  CZ  PHE P   1      23.681   3.559  13.750  0.36 48.72 LIG 0.00  A 
ATOM     59  CE2 PHE P   1      23.406   3.234  12.423  0.36 48.48 LIG 0.00  A 
ATOM     60  CD2 PHE P   1      22.235   3.689  11.814  0.36 48.25 LIG 0.01  A 
ENDBRANCH 54 55
ENDBRANCH 53 54
BRANCH 53 61
ATOM     61  N   PHE P   1      20.169   5.582   9.354  0.36 46.83 LIG-0.07  N 
ATOM     62 H3   PHE P   1      19.482   5.775   8.820  0.36 46.83 LIG 0.28  HD
ATOM     63 H1   PHE P   1      20.427   6.318   9.783  0.36 46.83 LIG 0.28  HD
ATOM     64 H2   PHE P   1      20.845   5.271   8.865  0.36 46.83 LIG 0.28  HD
ENDBRANCH 53 61
ENDBRANCH 50 53
ENDBRANCH 48 49
BRANCH 48 65
ATOM     65  CB  CYS P   2      15.268   2.583   9.583  0.17 41.02 LIG 0.10  C 
BRANCH 65 66
ATOM     66 SG   CYS P   2      16.430   2.189   8.254  0.17 41.68 LIG-0.18  SA
ATOM     67 HG   CYS P   2      16.040   2.671   7.226  0.17 41.68 LIG 0.10  HD
ENDBRANCH 65 66
ENDBRANCH 48 65
ENDBRANCH 45 48
ENDBRANCH 43 44
BRANCH 43 68
ATOM     68  CB  HIS P   3      15.009   2.539  14.819  1.00 25.21 LIG 0.10  C 
BRANCH 68 69
ATOM     69  CG  HIS P   3      13.665   3.057  15.426  1.00 21.50 LIG 0.06  A 
ATOM     70 ND1  HIS P   3      12.574   2.291  15.462  1.00 15.93 LIG-0.24  NA
ATOM     71  CE1 HIS P   3      11.733   2.959  16.237  1.00 14.31 LIG 0.23  A 
ATOM     72 NE2  HIS P   3      12.283   4.084  16.667  1.00 14.39 LIG-0.25  NA
ATOM     73  CD2 HIS P   3      13.499   4.208  16.184  1.00 20.69 LIG 0.14  A 
ENDBRANCH 68 69
ENDBRANCH 43 68
ENDBRANCH 1 43
TORSDOF 26
ENDMDL
MODEL 22
USER: ADFR SOLUTION from run 173
USER: SCORE 21.699473 LL:  -6.271 LR: -16.797 RR:   0.000 FEB:  -9.042
USER: RMSD 10.410805
USER: SEED 172
USER: STATUS no improvement in best in 4 clusters for 5 generations
USER: GENES 28
USER: genes 0 Translation |==|  0.48172 0.60852 0.39376
USER: genes 1 Rotation |==|  0.38414 0.04450 0.33011 0.51537
USER: genes 2 Torsion [N]-CA--C-[O] |==|  0.55629
USER: genes 3 Torsion [C]-N--CA-[C] |==|  0.82778
USER: genes 4 Torsion [N]-CA--C-[N] |==|  0.96306
USER: genes 5 Torsion [C]-N--CA-[CB] |==|  0.85954
USER: genes 6 Torsion [N]-CA--CB-[CG] |==|  0.62664
USER: genes 7 Torsion [CA]-CB--CG-[ND2] |==|  0.16032
USER: genes 8 Torsion [N]-CA--C-[N] |==|  0.39944
USER: genes 9 Torsion [C]-N--CA-[CB] |==|  0.60816
USER: genes 10 Torsion [N]-CA--CB-[CG2] |==|  0.20131
USER: genes 11 Torsion [CA]-CB--OG1-[HG1] |==|  0.12387
USER: genes 12 Torsion [N]-CA--C-[N] |==|  0.42503
USER: genes 13 Torsion [N]-CA--CB-[CG] |==|  0.91062
USER: genes 14 Torsion [CA]-CB--CG-[CD] |==|  0.52267
USER: genes 15 Torsion [CB]-CG--CD-[OE1] |==|  0.80485
USER: genes 16 Torsion [N]-C--CA-[N] |==|  0.33737
USER: genes 17 Torsion [C]-CA--N-[C] |==|  0.57835
USER: genes 18 Torsion [N]-C--CA-[N] |==|  0.82014
USER: genes 19 Torsion [C]-CA--N-[C] |==|  0.19550
USER: genes 20 Torsion [N]-C--CA-[N] |==|  0.27755
USER: genes 21 Torsion [C]-CA--CB-[CG] |==|  0.75084
USER: genes 22 Torsion [CA]-CB--CG-[CD1] |==|  0.03148
USER: genes 23 Torsion [C]-CA--N-[H3] |==|  0.79584
USER: genes 24 Torsion [C]-CA--CB-[SG] |==|  0.38708
USER: genes 25 Torsion [CA]-CB--SG-[HG] |==|  0.95715
USER: genes 26 Torsion [C]-CA--CB-[CG] |==|  0.28038
USER: genes 27 Torsion [CA]-CB--CG-[ND1] |==|  0.71888
ROOT
ATOM      1  C   HIS P   3      16.775   3.785  14.654  1.00 29.14 LIG 0.24  C 
ATOM      2 O    HIS P   3      17.666   2.961  14.377  1.00 31.23 LIG-0.27  OA
ATOM      3  N   PRO P   4      17.056   4.907  15.340  1.00 24.67 LIG-0.34  N 
ATOM      4  CA  PRO P   4      18.372   5.183  15.870  1.00 22.95 LIG 0.18  C 
ATOM      5  CB  PRO P   4      18.258   6.562  16.504  1.00 20.99 LIG 0.04  C 
ATOM      6  CG  PRO P   4      16.928   7.134  16.067  1.00 22.70 LIG 0.02  C 
ATOM      7  CD  PRO P   4      16.083   5.959  15.726  1.00 21.81 LIG 0.13  C 
ENDROOT
BRANCH 4 8
ATOM      8  C   PRO P   4      18.948   4.182  16.862  1.00 19.64 LIG 0.24  C 
ATOM      9 O    PRO P   4      19.859   4.541  17.611  1.00 20.88 LIG-0.27  OA
ATOM     10  N   GLN P   5      18.402   2.956  16.928  1.00 22.98 LIG-0.35  N 
ATOM     11 H    GLN P   5      17.769   2.692  16.410  1.00 22.98 LIG 0.16  HD
BRANCH 10 12
ATOM     12  CA  GLN P   5      18.835   1.950  17.892  1.00 16.98 LIG 0.18  C 
BRANCH 12 13
ATOM     13  C   GLN P   5      20.281   1.523  17.746  1.00 21.89 LIG 0.24  C 
ATOM     14  N   ASN P   6      21.010   1.824  16.668  1.00 22.75 LIG-0.35  N 
ATOM     15 H    ASN P   6      20.748   2.261  15.975  1.00 22.75 LIG 0.16  HD
ATOM     16 O    GLN P   5      20.782   0.862  18.665  1.00 24.56 LIG-0.27  OA
BRANCH 14 17
ATOM     17  CA  ASN P   6      22.379   1.366  16.675  1.00 29.16 LIG 0.18  C 
BRANCH 17 18
ATOM     18  CB  ASN P   6      23.159   1.726  17.947  1.00 24.89 LIG 0.14  C 
BRANCH 18 19
ATOM     19  CG  ASN P   6      24.542   2.278  17.653  1.00 26.77 LIG 0.22  C 
ATOM     20 OD1  ASN P   6      25.606   1.779  18.063  1.00 24.78 LIG-0.27  OA
ATOM     21  ND2 ASN P   6      24.535   3.347  16.887  1.00 25.10 LIG-0.37  N 
ATOM     22 22HD ASN P   6      23.788   3.676  16.615  1.00 25.10 LIG 0.16  HD
ATOM     23 21HD ASN P   6      25.276   3.718  16.659  1.00 25.10 LIG 0.16  HD
ENDBRANCH 18 19
ENDBRANCH 17 18
BRANCH 17 24
ATOM     24  C   ASN P   6      22.447  -0.104  16.539  1.00 33.65 LIG 0.24  C 
ATOM     25 O    ASN P   6      21.560  -0.844  16.953  1.00 34.15 LIG-0.27  OA
ATOM     26  N   THR P   7      23.525  -0.330  15.795  1.00 46.42 LIG-0.34  N 
ATOM     27 H    THR P   7      23.984   0.332  15.494  1.00 46.42 LIG 0.16  HD
BRANCH 26 28
ATOM     28  CA  THR P   7      24.108  -1.593  15.369  1.00 55.98 LIG 0.21  C 
BRANCH 28 29
ATOM     29  CB  THR P   7      25.655  -1.305  15.489  1.00 59.10 LIG 0.15  C 
ATOM     30  CG2 THR P   7      26.147  -1.238  16.947  1.00 61.71 LIG 0.04  C 
BRANCH 29 31
ATOM     31 OG1  THR P   7      26.317  -2.318  14.726  1.00 60.27 LIG-0.39  OA
ATOM     32 HG1  THR P   7      25.923  -2.418  13.992  1.00 60.27 LIG 0.21  HD
ENDBRANCH 29 31
ENDBRANCH 28 29
BRANCH 28 33
ATOM     33  C   THR P   7      23.685  -2.942  15.964  1.00 57.95 LIG 0.29  C 
ATOM     34  N   NH2 P   8      23.848  -3.980  15.152  1.00 58.98 LIG-0.11  N 
ATOM     35 O    THR P   7      23.168  -3.077  17.077  1.00 60.38 LIG-0.27  OA
ENDBRANCH 28 33
ENDBRANCH 26 28
ENDBRANCH 17 24
ENDBRANCH 14 17
ENDBRANCH 12 13
BRANCH 12 36
ATOM     36  CB  GLN P   5      17.921   0.743  17.795  1.00 11.38 LIG 0.04  C 
BRANCH 36 37
ATOM     37  CG  GLN P   5      16.494   1.127  17.415  1.00 11.43 LIG 0.10  C 
BRANCH 37 38
ATOM     38  CD  GLN P   5      15.484  -0.009  17.490  1.00 11.64 LIG 0.21  C 
ATOM     39  NE2 GLN P   5      14.552  -0.057  18.420  1.00  7.77 LIG-0.37  N 
ATOM     40 21HE GLN P   5      14.497   0.570  19.006  1.00  7.77 LIG 0.16  HD
ATOM     41 22HE GLN P   5      13.999  -0.716  18.441  1.00  7.77 LIG 0.16  HD
ATOM     42 OE1  GLN P   5      15.541  -0.913  16.670  1.00 11.36 LIG-0.27  OA
ENDBRANCH 37 38
ENDBRANCH 36 37
ENDBRANCH 12 36
ENDBRANCH 10 12
ENDBRANCH 4 8
BRANCH 1 43
ATOM     43  CA  HIS P   3      15.363   3.585  14.108  1.00 30.34 LIG 0.18  C 
BRANCH 43 44
ATOM     44  N   HIS P   3      15.748   3.462  12.720  1.00 35.71 LIG-0.35  N 
ATOM     45  C   CYS P   2      15.000   3.780  11.685  0.17 38.31 LIG 0.24  C 
ATOM     46 O    CYS P   2      13.807   4.082  11.800  0.17 38.29 LIG-0.27  OA
ATOM     47 H    HIS P   3      16.544   3.148  12.625  1.00 35.71 LIG 0.16  HD
BRANCH 45 48
ATOM     48  CA  CYS P   2      15.759   3.641  10.366  0.17 40.64 LIG 0.18  C 
BRANCH 48 49
ATOM     49  N   CYS P   2      16.903   4.542  10.160  0.17 43.25 LIG-0.34  N 
ATOM     50  C   PHE P   1      18.063   4.461  10.820  0.36 44.98 LIG 0.25  C 
ATOM     51 O    PHE P   1      18.219   3.722  11.790  0.36 46.44 LIG-0.27  OA
ATOM     52 H    CYS P   2      16.754   5.141   9.561  0.17 43.25 LIG 0.16  HD
BRANCH 50 53
ATOM     53  CA  PHE P   1      19.251   5.376  10.534  0.36 46.68 LIG 0.28  C 
BRANCH 53 54
ATOM     54  CB  PHE P   1      20.480   4.451  10.644  0.36 47.92 LIG 0.08  C 
BRANCH 54 55
ATOM     55  CG  PHE P   1      21.245   4.202  11.942  0.36 47.93 LIG-0.06  A 
ATOM     56  CD1 PHE P   1      20.783   4.601  13.201  0.36 48.98 LIG 0.01  A 
ATOM     57  CE1 PHE P   1      21.542   4.322  14.342  0.36 50.12 LIG 0.00  A 
ATOM     58  CZ  PHE P   1      22.760   3.650  14.236  0.36 48.72 LIG 0.00  A 
ATOM     59  CE2 PHE P   1      23.217   3.253  12.981  0.36 48.48 LIG 0.00  A 
ATOM     60  CD2 PHE P   1      22.464   3.526  11.838  0.36 48.25 LIG 0.01  A 
ENDBRANCH 54 55
ENDBRANCH 53 54
BRANCH 53 61
ATOM     61  N   PHE P   1      19.100   6.333  11.616  0.36 46.83 LIG-0.07  N 
ATOM     62 H3   PHE P   1      18.410   6.870  11.445  0.36 46.83 LIG 0.28  HD
ATOM     63 H1   PHE P   1      18.954   5.899  12.379  0.36 46.83 LIG 0.28  HD
ATOM     64 H2   PHE P   1      19.842   6.819  11.689  0.36 46.83 LIG 0.28  HD
ENDBRANCH 53 61
ENDBRANCH 50 53
ENDBRANCH 48 49
BRANCH 48 65
ATOM     65  CB  CYS P   2      16.085   2.154  10.239  0.17 41.02 LIG 0.10  C 
BRANCH 65 66
ATOM     66 SG   CYS P   2      15.792   1.815   8.487  0.17 41.68 LIG-0.18  SA
ATOM     67 HG   CYS P   2      15.160   2.714   8.005  0.17 41.68 LIG 0.10  HD
ENDBRANCH 65 66
ENDBRANCH 48 65
ENDBRANCH 45 48
ENDBRANCH 43 44
BRANCH 43 68
ATOM     68  CB  HIS P   3      14.739   2.365  14.859  1.00 25.21 LIG 0.10  C 
BRANCH 68 69
ATOM     69  CG  HIS P   3      13.786   2.920  15.966  1.00 21.50 LIG 0.06  A 
ATOM     70 ND1  HIS P   3      14.158   2.973  17.245  1.00 15.93 LIG-0.24  NA
ATOM     71  CE1 HIS P   3      13.216   3.698  17.830  1.00 14.31 LIG 0.23  A 
ATOM     72 NE2  HIS P   3      12.306   4.082  16.948  1.00 14.39 LIG-0.25  NA
ATOM     73  CD2 HIS P   3      12.603   3.617  15.755  1.00 20.69 LIG 0.14  A 
ENDBRANCH 68 69
ENDBRANCH 43 68
ENDBRANCH 1 43
TORSDOF 26
ENDMDL
MODEL 23
USER: ADFR SOLUTION from run 23
USER: SCORE 20.649117 LL:  -5.604 LR: -16.770 RR:   0.000 FEB:  -9.014
USER: RMSD 9.082815
USER: SEED 22
USER: STATUS no improvement in best in 2 clusters for 5 generations
USER: GENES 28
USER: genes 0 Translation |==|  0.47478 0.71224 0.39175
USER: genes 1 Rotation |==|  0.02666 0.62613 0.58389 0.55484
USER: genes 2 Torsion [N]-CA--C-[O] |==|  0.33005
USER: genes 3 Torsion [C]-N--CA-[C] |==|  0.83748
USER: genes 4 Torsion [N]-CA--C-[N] |==|  0.39986
USER: genes 5 Torsion [C]-N--CA-[CB] |==|  0.48967
USER: genes 6 Torsion [N]-CA--CB-[CG] |==|  0.53499
USER: genes 7 Torsion [CA]-CB--CG-[ND2] |==|  0.19887
USER: genes 8 Torsion [N]-CA--C-[N] |==|  0.36125
USER: genes 9 Torsion [C]-N--CA-[CB] |==|  0.65556
USER: genes 10 Torsion [N]-CA--CB-[CG2] |==|  0.20865
USER: genes 11 Torsion [CA]-CB--OG1-[HG1] |==|  0.54133
USER: genes 12 Torsion [N]-CA--C-[N] |==|  0.36425
USER: genes 13 Torsion [N]-CA--CB-[CG] |==|  0.91493
USER: genes 14 Torsion [CA]-CB--CG-[CD] |==|  0.78089
USER: genes 15 Torsion [CB]-CG--CD-[OE1] |==|  0.63044
USER: genes 16 Torsion [N]-C--CA-[N] |==|  0.81868
USER: genes 17 Torsion [C]-CA--N-[C] |==|  0.83359
USER: genes 18 Torsion [N]-C--CA-[N] |==|  0.13209
USER: genes 19 Torsion [C]-CA--N-[C] |==|  0.14367
USER: genes 20 Torsion [N]-C--CA-[N] |==|  0.67924
USER: genes 21 Torsion [C]-CA--CB-[CG] |==|  0.54827
USER: genes 22 Torsion [CA]-CB--CG-[CD1] |==|  0.36602
USER: genes 23 Torsion [C]-CA--N-[H3] |==|  0.20925
USER: genes 24 Torsion [C]-CA--CB-[SG] |==|  0.45611
USER: genes 25 Torsion [CA]-CB--SG-[HG] |==|  0.94329
USER: genes 26 Torsion [C]-CA--CB-[CG] |==|  0.64557
USER: genes 27 Torsion [CA]-CB--CG-[ND1] |==|  0.39979
ROOT
ATOM      1  C   HIS P   3      16.624   5.652  14.608  1.00 29.14 LIG 0.24  C 
ATOM      2 O    HIS P   3      15.880   6.379  15.291  1.00 31.23 LIG-0.27  OA
ATOM      3  N   PRO P   4      16.193   4.473  14.126  1.00 24.67 LIG-0.34  N 
ATOM      4  CA  PRO P   4      14.886   3.941  14.436  1.00 22.95 LIG 0.18  C 
ATOM      5  CB  PRO P   4      14.792   2.646  13.644  1.00 20.99 LIG 0.04  C 
ATOM      6  CG  PRO P   4      15.967   2.631  12.692  1.00 22.70 LIG 0.02  C 
ATOM      7  CD  PRO P   4      16.984   3.526  13.304  1.00 21.81 LIG 0.13  C 
ENDROOT
BRANCH 4 8
ATOM      8  C   PRO P   4      14.563   3.696  15.904  1.00 19.64 LIG 0.24  C 
ATOM      9 O    PRO P   4      13.624   4.306  16.418  1.00 20.88 LIG-0.27  OA
ATOM     10  N   GLN P   5      15.279   2.778  16.575  1.00 22.98 LIG-0.35  N 
ATOM     11 H    GLN P   5      15.939   2.348  16.230  1.00 22.98 LIG 0.16  HD
BRANCH 10 12
ATOM     12  CA  GLN P   5      15.003   2.420  17.962  1.00 16.98 LIG 0.18  C 
BRANCH 12 13
ATOM     13  C   GLN P   5      15.078   3.580  18.935  1.00 21.89 LIG 0.24  C 
ATOM     14  N   ASN P   6      14.259   3.687  19.984  1.00 22.75 LIG-0.35  N 
ATOM     15 H    ASN P   6      13.628   3.144  20.202  1.00 22.75 LIG 0.16  HD
ATOM     16 O    GLN P   5      15.930   4.453  18.726  1.00 24.56 LIG-0.27  OA
BRANCH 14 17
ATOM     17  CA  ASN P   6      14.458   4.836  20.834  1.00 29.16 LIG 0.18  C 
BRANCH 17 18
ATOM     18  CB  ASN P   6      13.437   4.965  21.973  1.00 24.89 LIG 0.14  C 
BRANCH 18 19
ATOM     19  CG  ASN P   6      13.481   6.320  22.654  1.00 26.77 LIG 0.22  C 
ATOM     20 OD1  ASN P   6      13.940   6.527  23.792  1.00 24.78 LIG-0.27  OA
ATOM     21  ND2 ASN P   6      13.000   7.299  21.919  1.00 25.10 LIG-0.37  N 
ATOM     22 22HD ASN P   6      12.688   7.134  21.134  1.00 25.10 LIG 0.16  HD
ATOM     23 21HD ASN P   6      12.999   8.104  22.221  1.00 25.10 LIG 0.16  HD
ENDBRANCH 18 19
ENDBRANCH 17 18
BRANCH 17 24
ATOM     24  C   ASN P   6      15.794   4.805  21.465  1.00 33.65 LIG 0.24  C 
ATOM     25 O    ASN P   6      16.270   3.782  21.947  1.00 34.15 LIG-0.27  OA
ATOM     26  N   THR P   7      16.310   6.008  21.236  1.00 46.42 LIG-0.34  N 
ATOM     27 H    THR P   7      15.866   6.584  20.777  1.00 46.42 LIG 0.16  HD
BRANCH 26 28
ATOM     28  CA  THR P   7      17.588   6.564  21.656  1.00 55.98 LIG 0.21  C 
BRANCH 28 29
ATOM     29  CB  THR P   7      17.148   7.869  22.426  1.00 59.10 LIG 0.15  C 
ATOM     30  CG2 THR P   7      16.558   7.581  23.819  1.00 61.71 LIG 0.04  C 
BRANCH 29 31
ATOM     31 OG1  THR P   7      18.298   8.718  22.476  1.00 60.27 LIG-0.39  OA
ATOM     32 HG1  THR P   7      18.174   9.324  23.044  1.00 60.27 LIG 0.21  HD
ENDBRANCH 29 31
ENDBRANCH 28 29
BRANCH 28 33
ATOM     33  C   THR P   7      18.644   5.737  22.399  1.00 57.95 LIG 0.29  C 
ATOM     34  N   NH2 P   8      19.870   5.829  21.897  1.00 58.98 LIG-0.11  N 
ATOM     35 O    THR P   7      18.397   4.984  23.345  1.00 60.38 LIG-0.27  OA
ENDBRANCH 28 33
ENDBRANCH 26 28
ENDBRANCH 17 24
ENDBRANCH 14 17
ENDBRANCH 12 13
BRANCH 12 36
ATOM     36  CB  GLN P   5      15.951   1.317  18.390  1.00 11.38 LIG 0.04  C 
BRANCH 36 37
ATOM     37  CG  GLN P   5      16.346   0.410  17.227  1.00 11.43 LIG 0.10  C 
BRANCH 37 38
ATOM     38  CD  GLN P   5      15.303  -0.629  16.844  1.00 11.64 LIG 0.21  C 
ATOM     39  NE2 GLN P   5      14.029  -0.324  16.703  1.00  7.77 LIG-0.37  N 
ATOM     40 21HE GLN P   5      13.765   0.485  16.823  1.00  7.77 LIG 0.16  HD
ATOM     41 22HE GLN P   5      13.461  -0.935  16.492  1.00  7.77 LIG 0.16  HD
ATOM     42 OE1  GLN P   5      15.652  -1.787  16.669  1.00 11.36 LIG-0.27  OA
ENDBRANCH 37 38
ENDBRANCH 36 37
ENDBRANCH 12 36
ENDBRANCH 10 12
ENDBRANCH 4 8
BRANCH 1 43
ATOM     43  CA  HIS P   3      18.012   6.151  14.210  1.00 30.34 LIG 0.18  C 
BRANCH 43 44
ATOM     44  N   HIS P   3      18.751   5.097  14.869  1.00 35.71 LIG-0.35  N 
ATOM     45  C   CYS P   2      18.722   4.829  16.157  0.17 38.31 LIG 0.24  C 
ATOM     46 O    CYS P   2      18.160   5.567  16.973  0.17 38.29 LIG-0.27  OA
ATOM     47 H    HIS P   3      19.234   4.642  14.321  1.00 35.71 LIG 0.16  HD
BRANCH 45 48
ATOM     48  CA  CYS P   2      19.525   3.574  16.497  0.17 40.64 LIG 0.18  C 
BRANCH 48 49
ATOM     49  N   CYS P   2      20.875   3.473  15.922  0.17 43.25 LIG-0.34  N 
ATOM     50  C   PHE P   1      21.813   4.420  16.013  0.36 44.98 LIG 0.25  C 
ATOM     51 O    PHE P   1      21.573   5.545  16.447  0.36 46.44 LIG-0.27  OA
ATOM     52 H    CYS P   2      21.009   2.729  15.510  0.17 43.25 LIG 0.16  HD
BRANCH 50 53
ATOM     53  CA  PHE P   1      23.224   4.253  15.455  0.36 46.68 LIG 0.28  C 
BRANCH 53 54
ATOM     54  CB  PHE P   1      23.195   2.882  14.750  0.36 47.92 LIG 0.08  C 
BRANCH 54 55
ATOM     55  CG  PHE P   1      24.446   2.094  14.367  0.36 47.93 LIG-0.06  A 
ATOM     56  CD1 PHE P   1      24.621   0.735  14.650  0.36 48.98 LIG 0.01  A 
ATOM     57  CE1 PHE P   1      25.795   0.086  14.253  0.36 50.12 LIG 0.00  A 
ATOM     58  CZ  PHE P   1      26.796   0.784  13.576  0.36 48.72 LIG 0.00  A 
ATOM     59  CE2 PHE P   1      26.618   2.137  13.294  0.36 48.48 LIG 0.00  A 
ATOM     60  CD2 PHE P   1      25.449   2.791  13.687  0.36 48.25 LIG 0.01  A 
ENDBRANCH 54 55
ENDBRANCH 53 54
BRANCH 53 61
ATOM     61  N   PHE P   1      23.992   4.297  16.687  0.36 46.83 LIG-0.07  N 
ATOM     62 H3   PHE P   1      23.902   3.525  17.122  0.36 46.83 LIG 0.28  HD
ATOM     63 H1   PHE P   1      24.851   4.432  16.497  0.36 46.83 LIG 0.28  HD
ATOM     64 H2   PHE P   1      23.693   4.962  17.199  0.36 46.83 LIG 0.28  HD
ENDBRANCH 53 61
ENDBRANCH 50 53
ENDBRANCH 48 49
BRANCH 48 65
ATOM     65  CB  CYS P   2      19.469   3.455  18.019  0.17 41.02 LIG 0.10  C 
BRANCH 65 66
ATOM     66 SG   CYS P   2      19.997   1.752  18.322  0.17 41.68 LIG-0.18  SA
ATOM     67 HG   CYS P   2      19.851   1.104  17.322  0.17 41.68 LIG 0.10  HD
ENDBRANCH 65 66
ENDBRANCH 48 65
ENDBRANCH 45 48
ENDBRANCH 43 44
BRANCH 43 68
ATOM     68  CB  HIS P   3      18.039   6.271  12.653  1.00 25.21 LIG 0.10  C 
BRANCH 68 69
ATOM     69  CG  HIS P   3      19.285   5.483  12.133  1.00 21.50 LIG 0.06  A 
ATOM     70 ND1  HIS P   3      19.250   4.800  10.988  1.00 15.93 LIG-0.24  NA
ATOM     71  CE1 HIS P   3      20.515   4.475  10.765  1.00 14.31 LIG 0.23  A 
ATOM     72 NE2  HIS P   3      21.297   4.944  11.725  1.00 14.39 LIG-0.25  NA
ATOM     73  CD2 HIS P   3      20.580   5.582  12.623  1.00 20.69 LIG 0.14  A 
ENDBRANCH 68 69
ENDBRANCH 43 68
ENDBRANCH 1 43
TORSDOF 26
ENDMDL
MODEL 24
USER: ADFR SOLUTION from run 12
USER: SCORE 20.240309 LL:  -6.658 LR: -16.761 RR:   0.000 FEB:  -9.005
USER: RMSD 9.024742
USER: SEED 144891
USER: STATUS 1 or 2 clusters left
USER: GENES 28
USER: genes 0 Translation |==|  0.57072 0.67768 0.48858
USER: genes 1 Rotation |==|  0.32497 0.21059 0.22020 0.73942
USER: genes 2 Torsion [N]-CA--C-[O] |==|  0.02541
USER: genes 3 Torsion [C]-N--CA-[C] |==|  0.86454
USER: genes 4 Torsion [N]-CA--C-[N] |==|  0.27500
USER: genes 5 Torsion [C]-N--CA-[CB] |==|  0.83551
USER: genes 6 Torsion [N]-CA--CB-[CG] |==|  0.57527
USER: genes 7 Torsion [CA]-CB--CG-[ND2] |==|  0.32339
USER: genes 8 Torsion [N]-CA--C-[N] |==|  0.11596
USER: genes 9 Torsion [C]-N--CA-[CB] |==|  0.81141
USER: genes 10 Torsion [N]-CA--CB-[CG2] |==|  0.57074
USER: genes 11 Torsion [CA]-CB--OG1-[HG1] |==|  0.23998
USER: genes 12 Torsion [N]-CA--C-[N] |==|  0.43282
USER: genes 13 Torsion [N]-CA--CB-[CG] |==|  0.62610
USER: genes 14 Torsion [CA]-CB--CG-[CD] |==|  0.76397
USER: genes 15 Torsion [CB]-CG--CD-[OE1] |==|  0.29169
USER: genes 16 Torsion [N]-C--CA-[N] |==|  0.49846
USER: genes 17 Torsion [C]-CA--N-[C] |==|  0.75000
USER: genes 18 Torsion [N]-C--CA-[N] |==|  0.76814
USER: genes 19 Torsion [C]-CA--N-[C] |==|  0.57343
USER: genes 20 Torsion [N]-C--CA-[N] |==|  0.53775
USER: genes 21 Torsion [C]-CA--CB-[CG] |==|  0.30009
USER: genes 22 Torsion [CA]-CB--CG-[CD1] |==|  0.69785
USER: genes 23 Torsion [C]-CA--N-[H3] |==|  0.19027
USER: genes 24 Torsion [C]-CA--CB-[SG] |==|  0.18180
USER: genes 25 Torsion [CA]-CB--SG-[HG] |==|  0.07967
USER: genes 26 Torsion [C]-CA--CB-[CG] |==|  0.54610
USER: genes 27 Torsion [CA]-CB--CG-[ND1] |==|  0.95374
ROOT
ATOM      1  C   HIS P   3      18.711   5.030  16.787  1.00 29.14 LIG 0.24  C 
ATOM      2 O    HIS P   3      18.798   4.928  15.550  1.00 31.23 LIG-0.27  OA
ATOM      3  N   PRO P   4      19.780   5.358  17.534  1.00 24.67 LIG-0.34  N 
ATOM      4  CA  PRO P   4      21.099   5.525  16.968  1.00 22.95 LIG 0.18  C 
ATOM      5  CB  PRO P   4      21.976   5.951  18.137  1.00 20.99 LIG 0.04  C 
ATOM      6  CG  PRO P   4      21.046   6.271  19.286  1.00 22.70 LIG 0.02  C 
ATOM      7  CD  PRO P   4      19.799   5.511  19.010  1.00 21.81 LIG 0.13  C 
ENDROOT
BRANCH 4 8
ATOM      8  C   PRO P   4      21.707   4.328  16.250  1.00 19.64 LIG 0.24  C 
ATOM      9 O    PRO P   4      21.000   3.342  16.032  1.00 20.88 LIG-0.27  OA
ATOM     10  N   GLN P   5      22.979   4.410  15.826  1.00 22.98 LIG-0.35  N 
ATOM     11 H    GLN P   5      23.484   5.090  15.975  1.00 22.98 LIG 0.16  HD
BRANCH 10 12
ATOM     12  CA  GLN P   5      23.629   3.347  15.068  1.00 16.98 LIG 0.18  C 
BRANCH 12 13
ATOM     13  C   GLN P   5      23.469   1.963  15.665  1.00 21.89 LIG 0.24  C 
ATOM     14  N   ASN P   6      22.556   1.095  15.222  1.00 22.75 LIG-0.35  N 
ATOM     15 H    ASN P   6      21.986   1.224  14.591  1.00 22.75 LIG 0.16  HD
ATOM     16 O    GLN P   5      24.214   1.651  16.604  1.00 24.56 LIG-0.27  OA
BRANCH 14 17
ATOM     17  CA  ASN P   6      22.530  -0.192  15.876  1.00 29.16 LIG 0.18  C 
BRANCH 17 18
ATOM     18  CB  ASN P   6      23.849  -0.973  15.786  1.00 24.89 LIG 0.14  C 
BRANCH 18 19
ATOM     19  CG  ASN P   6      23.650  -2.476  15.861  1.00 26.77 LIG 0.22  C 
ATOM     20 OD1  ASN P   6      23.173  -3.080  16.839  1.00 24.78 LIG-0.27  OA
ATOM     21  ND2 ASN P   6      24.012  -3.114  14.769  1.00 25.10 LIG-0.37  N 
ATOM     22 22HD ASN P   6      24.340  -2.677  14.104  1.00 25.10 LIG 0.16  HD
ATOM     23 21HD ASN P   6      23.921  -3.967  14.719  1.00 25.10 LIG 0.16  HD
ENDBRANCH 18 19
ENDBRANCH 17 18
BRANCH 17 24
ATOM     24  C   ASN P   6      22.219  -0.052  17.313  1.00 33.65 LIG 0.24  C 
ATOM     25 O    ASN P   6      22.876  -0.609  18.186  1.00 34.15 LIG-0.27  OA
ATOM     26  N   THR P   7      21.252   0.860  17.367  1.00 46.42 LIG-0.34  N 
ATOM     27 H    THR P   7      20.977   1.235  16.644  1.00 46.42 LIG 0.16  HD
BRANCH 26 28
ATOM     28  CA  THR P   7      20.526   1.373  18.519  1.00 55.98 LIG 0.21  C 
BRANCH 28 29
ATOM     29  CB  THR P   7      19.687   0.116  18.972  1.00 59.10 LIG 0.15  C 
ATOM     30  CG2 THR P   7      18.403   0.488  19.737  1.00 61.71 LIG 0.04  C 
BRANCH 29 31
ATOM     31 OG1  THR P   7      19.427  -0.647  17.791  1.00 60.27 LIG-0.39  OA
ATOM     32 HG1  THR P   7      20.070  -1.168  17.647  1.00 60.27 LIG 0.21  HD
ENDBRANCH 29 31
ENDBRANCH 28 29
BRANCH 28 33
ATOM     33  C   THR P   7      21.220   2.100  19.677  1.00 57.95 LIG 0.29  C 
ATOM     34  N   NH2 P   8      20.434   2.921  20.364  1.00 58.98 LIG-0.11  N 
ATOM     35 O    THR P   7      22.424   2.007  19.933  1.00 60.38 LIG-0.27  OA
ENDBRANCH 28 33
ENDBRANCH 26 28
ENDBRANCH 17 24
ENDBRANCH 14 17
ENDBRANCH 12 13
BRANCH 12 36
ATOM     36  CB  GLN P   5      25.101   3.678  14.907  1.00 11.38 LIG 0.04  C 
BRANCH 36 37
ATOM     37  CG  GLN P   5      25.592   3.450  13.480  1.00 11.43 LIG 0.10  C 
BRANCH 37 38
ATOM     38  CD  GLN P   5      26.014   2.021  13.170  1.00 11.64 LIG 0.21  C 
ATOM     39  NE2 GLN P   5      27.154   1.519  13.598  1.00  7.77 LIG-0.37  N 
ATOM     40 21HE GLN P   5      27.684   2.001  14.075  1.00  7.77 LIG 0.16  HD
ATOM     41 22HE GLN P   5      27.369   0.710  13.401  1.00  7.77 LIG 0.16  HD
ATOM     42 OE1  GLN P   5      25.280   1.316  12.494  1.00 11.36 LIG-0.27  OA
ENDBRANCH 37 38
ENDBRANCH 36 37
ENDBRANCH 12 36
ENDBRANCH 10 12
ENDBRANCH 4 8
BRANCH 1 43
ATOM     43  CA  HIS P   3      17.349   4.897  17.463  1.00 30.34 LIG 0.18  C 
BRANCH 43 44
ATOM     44  N   HIS P   3      16.611   4.566  16.264  1.00 35.71 LIG-0.35  N 
ATOM     45  C   CYS P   2      16.033   5.429  15.457  0.17 38.31 LIG 0.24  C 
ATOM     46 O    CYS P   2      15.933   6.629  15.733  0.17 38.29 LIG-0.27  OA
ATOM     47 H    HIS P   3      16.581   3.718  16.119  1.00 35.71 LIG 0.16  HD
BRANCH 45 48
ATOM     48  CA  CYS P   2      15.445   4.749  14.220  0.17 40.64 LIG 0.18  C 
BRANCH 48 49
ATOM     49  N   CYS P   2      16.367   4.490  13.104  0.17 43.25 LIG-0.34  N 
ATOM     50  C   PHE P   1      16.001   4.391  11.822  0.36 44.98 LIG 0.25  C 
ATOM     51 O    PHE P   1      14.822   4.340  11.476  0.36 46.44 LIG-0.27  OA
ATOM     52 H    CYS P   2      17.185   4.405  13.357  0.17 43.25 LIG 0.16  HD
BRANCH 50 53
ATOM     53  CA  PHE P   1      16.996   4.182  10.684  0.36 46.68 LIG 0.28  C 
BRANCH 53 54
ATOM     54  CB  PHE P   1      18.111   5.212  10.959  0.36 47.92 LIG 0.08  C 
BRANCH 54 55
ATOM     55  CG  PHE P   1      19.507   4.843  11.455  0.36 47.93 LIG-0.06  A 
ATOM     56  CD1 PHE P   1      19.965   5.115  12.749  0.36 48.98 LIG 0.01  A 
ATOM     57  CE1 PHE P   1      21.256   4.732  13.127  0.36 50.12 LIG 0.00  A 
ATOM     58  CZ  PHE P   1      22.095   4.080  12.222  0.36 48.72 LIG 0.00  A 
ATOM     59  CE2 PHE P   1      21.635   3.809  10.935  0.36 48.48 LIG 0.00  A 
ATOM     60  CD2 PHE P   1      20.347   4.188  10.551  0.36 48.25 LIG 0.01  A 
ENDBRANCH 54 55
ENDBRANCH 53 54
BRANCH 53 61
ATOM     61  N   PHE P   1      16.146   4.482   9.545  0.36 46.83 LIG-0.07  N 
ATOM     62 H3   PHE P   1      15.943   5.349   9.545  0.36 46.83 LIG 0.28  HD
ATOM     63 H1   PHE P   1      16.576   4.278   8.792  0.36 46.83 LIG 0.28  HD
ATOM     64 H2   PHE P   1      15.398   4.003   9.598  0.36 46.83 LIG 0.28  HD
ENDBRANCH 53 61
ENDBRANCH 50 53
ENDBRANCH 48 49
BRANCH 48 65
ATOM     65  CB  CYS P   2      14.712   3.516  14.743  0.17 41.02 LIG 0.10  C 
BRANCH 65 66
ATOM     66 SG   CYS P   2      13.369   4.220  15.729  0.17 41.68 LIG-0.18  SA
ATOM     67 HG   CYS P   2      13.068   5.294  15.286  0.17 41.68 LIG 0.10  HD
ENDBRANCH 65 66
ENDBRANCH 48 65
ENDBRANCH 45 48
ENDBRANCH 43 44
BRANCH 43 68
ATOM     68  CB  HIS P   3      17.494   3.845  18.609  1.00 25.21 LIG 0.10  C 
BRANCH 68 69
ATOM     69  CG  HIS P   3      16.058   3.384  19.021  1.00 21.50 LIG 0.06  A 
ATOM     70 ND1  HIS P   3      14.975   4.085  18.681  1.00 15.93 LIG-0.24  NA
ATOM     71  CE1 HIS P   3      13.962   3.288  18.987  1.00 14.31 LIG 0.23  A 
ATOM     72 NE2  HIS P   3      14.401   2.143  19.487  1.00 14.39 LIG-0.25  NA
ATOM     73  CD2 HIS P   3      15.714   2.145  19.543  1.00 20.69 LIG 0.14  A 
ENDBRANCH 68 69
ENDBRANCH 43 68
ENDBRANCH 1 43
TORSDOF 26
ENDMDL
MODEL 25
USER: ADFR SOLUTION from run 126
USER: SCORE 19.352963 LL:  -5.477 LR: -16.749 RR:   0.000 FEB:  -8.994
USER: RMSD 8.651699
USER: SEED 125
USER: STATUS 1 or 2 clusters left
USER: GENES 28
USER: genes 0 Translation |==|  0.51471 0.66303 0.40085
USER: genes 1 Rotation |==|  0.75397 0.28522 0.20445 0.72808
USER: genes 2 Torsion [N]-CA--C-[O] |==|  0.06725
USER: genes 3 Torsion [C]-N--CA-[C] |==|  0.82750
USER: genes 4 Torsion [N]-CA--C-[N] |==|  0.97083
USER: genes 5 Torsion [C]-N--CA-[CB] |==|  0.41667
USER: genes 6 Torsion [N]-CA--CB-[CG] |==|  0.17639
USER: genes 7 Torsion [CA]-CB--CG-[ND2] |==|  0.37497
USER: genes 8 Torsion [N]-CA--C-[N] |==|  0.44379
USER: genes 9 Torsion [C]-N--CA-[CB] |==|  0.68531
USER: genes 10 Torsion [N]-CA--CB-[CG2] |==|  0.49670
USER: genes 11 Torsion [CA]-CB--OG1-[HG1] |==|  0.76192
USER: genes 12 Torsion [N]-CA--C-[N] |==|  0.37582
USER: genes 13 Torsion [N]-CA--CB-[CG] |==|  0.32034
USER: genes 14 Torsion [CA]-CB--CG-[CD] |==|  0.36869
USER: genes 15 Torsion [CB]-CG--CD-[OE1] |==|  0.42052
USER: genes 16 Torsion [N]-C--CA-[N] |==|  0.15812
USER: genes 17 Torsion [C]-CA--N-[C] |==|  0.58452
USER: genes 18 Torsion [N]-C--CA-[N] |==|  0.64691
USER: genes 19 Torsion [C]-CA--N-[C] |==|  0.66057
USER: genes 20 Torsion [N]-C--CA-[N] |==|  0.72941
USER: genes 21 Torsion [C]-CA--CB-[CG] |==|  0.73903
USER: genes 22 Torsion [CA]-CB--CG-[CD1] |==|  0.84224
USER: genes 23 Torsion [C]-CA--N-[H3] |==|  0.62342
USER: genes 24 Torsion [C]-CA--CB-[SG] |==|  0.48814
USER: genes 25 Torsion [CA]-CB--SG-[HG] |==|  0.76403
USER: genes 26 Torsion [C]-CA--CB-[CG] |==|  0.22933
USER: genes 27 Torsion [CA]-CB--CG-[ND1] |==|  0.26407
ROOT
ATOM      1  C   HIS P   3      17.493   4.766  14.813  1.00 29.14 LIG 0.24  C 
ATOM      2 O    HIS P   3      17.759   5.979  14.726  1.00 31.23 LIG-0.27  OA
ATOM      3  N   PRO P   4      17.391   4.162  16.010  1.00 24.67 LIG-0.34  N 
ATOM      4  CA  PRO P   4      17.664   4.849  17.251  1.00 22.95 LIG 0.18  C 
ATOM      5  CB  PRO P   4      17.367   3.828  18.339  1.00 20.99 LIG 0.04  C 
ATOM      6  CG  PRO P   4      16.669   2.666  17.667  1.00 22.70 LIG 0.02  C 
ATOM      7  CD  PRO P   4      17.079   2.730  16.239  1.00 21.81 LIG 0.13  C 
ENDROOT
BRANCH 4 8
ATOM      8  C   PRO P   4      19.059   5.434  17.432  1.00 19.64 LIG 0.24  C 
ATOM      9 O    PRO P   4      19.723   5.712  16.431  1.00 20.88 LIG-0.27  OA
ATOM     10  N   GLN P   5      19.495   5.683  18.678  1.00 22.98 LIG-0.35  N 
ATOM     11 H    GLN P   5      19.043   5.491  19.385  1.00 22.98 LIG 0.16  HD
BRANCH 10 12
ATOM     12  CA  GLN P   5      20.785   6.306  18.954  1.00 16.98 LIG 0.18  C 
BRANCH 12 13
ATOM     13  C   GLN P   5      21.981   5.509  18.475  1.00 21.89 LIG 0.24  C 
ATOM     14  N   ASN P   6      21.874   4.251  18.040  1.00 22.75 LIG-0.35  N 
ATOM     15 H    ASN P   6      21.156   3.780  17.998  1.00 22.75 LIG 0.16  HD
ATOM     16 O    GLN P   5      23.090   6.059  18.505  1.00 24.56 LIG-0.27  OA
BRANCH 14 17
ATOM     17  CA  ASN P   6      23.097   3.622  17.599  1.00 29.16 LIG 0.18  C 
BRANCH 17 18
ATOM     18  CB  ASN P   6      23.133   2.100  17.798  1.00 24.89 LIG 0.14  C 
BRANCH 18 19
ATOM     19  CG  ASN P   6      22.080   1.374  16.982  1.00 26.77 LIG 0.22  C 
ATOM     20 OD1  ASN P   6      20.895   1.739  16.868  1.00 24.78 LIG-0.27  OA
ATOM     21  ND2 ASN P   6      22.532   0.305  16.364  1.00 25.10 LIG-0.37  N 
ATOM     22 22HD ASN P   6      23.355   0.071  16.456  1.00 25.10 LIG 0.16  HD
ATOM     23 21HD ASN P   6      22.006  -0.159  15.867  1.00 25.10 LIG 0.16  HD
ENDBRANCH 18 19
ENDBRANCH 17 18
BRANCH 17 24
ATOM     24  C   ASN P   6      23.331   3.867  16.161  1.00 33.65 LIG 0.24  C 
ATOM     25 O    ASN P   6      22.458   4.304  15.418  1.00 34.15 LIG-0.27  OA
ATOM     26  N   THR P   7      24.631   3.654  15.983  1.00 46.42 LIG-0.34  N 
ATOM     27 H    THR P   7      25.127   3.450  16.656  1.00 46.42 LIG 0.16  HD
BRANCH 26 28
ATOM     28  CA  THR P   7      25.421   3.709  14.763  1.00 55.98 LIG 0.21  C 
BRANCH 28 29
ATOM     29  CB  THR P   7      25.847   2.202  14.572  1.00 59.10 LIG 0.15  C 
ATOM     30  CG2 THR P   7      26.690   1.967  13.304  1.00 61.71 LIG 0.04  C 
BRANCH 29 31
ATOM     31 OG1  THR P   7      26.527   1.817  15.769  1.00 60.27 LIG-0.39  OA
ATOM     32 HG1  THR P   7      27.338   2.030  15.711  1.00 60.27 LIG 0.21  HD
ENDBRANCH 29 31
ENDBRANCH 28 29
BRANCH 28 33
ATOM     33  C   THR P   7      24.911   4.372  13.478  1.00 57.95 LIG 0.29  C 
ATOM     34  N   NH2 P   8      25.796   5.152  12.869  1.00 58.98 LIG-0.11  N 
ATOM     35 O    THR P   7      23.756   4.266  13.053  1.00 60.38 LIG-0.27  OA
ENDBRANCH 28 33
ENDBRANCH 26 28
ENDBRANCH 17 24
ENDBRANCH 14 17
ENDBRANCH 12 13
BRANCH 12 36
ATOM     36  CB  GLN P   5      20.899   6.576  20.442  1.00 11.38 LIG 0.04  C 
BRANCH 36 37
ATOM     37  CG  GLN P   5      22.013   5.761  21.094  1.00 11.43 LIG 0.10  C 
BRANCH 37 38
ATOM     38  CD  GLN P   5      22.934   6.555  22.009  1.00 11.64 LIG 0.21  C 
ATOM     39  NE2 GLN P   5      23.173   7.837  21.823  1.00  7.77 LIG-0.37  N 
ATOM     40 21HE GLN P   5      22.798   8.253  21.171  1.00  7.77 LIG 0.16  HD
ATOM     41 22HE GLN P   5      23.704   8.257  22.354  1.00  7.77 LIG 0.16  HD
ATOM     42 OE1  GLN P   5      23.479   5.986  22.944  1.00 11.36 LIG-0.27  OA
ENDBRANCH 37 38
ENDBRANCH 36 37
ENDBRANCH 12 36
ENDBRANCH 10 12
ENDBRANCH 4 8
BRANCH 1 43
ATOM     43  CA  HIS P   3      17.162   3.972  13.552  1.00 30.34 LIG 0.18  C 
BRANCH 43 44
ATOM     44  N   HIS P   3      15.817   3.613  13.942  1.00 35.71 LIG-0.35  N 
ATOM     45  C   CYS P   2      15.184   2.514  13.591  0.17 38.31 LIG 0.24  C 
ATOM     46 O    CYS P   2      15.635   1.732  12.747  0.17 38.29 LIG-0.27  OA
ATOM     47 H    HIS P   3      15.450   4.206  14.446  1.00 35.71 LIG 0.16  HD
BRANCH 45 48
ATOM     48  CA  CYS P   2      13.824   2.393  14.279  0.17 40.64 LIG 0.18  C 
BRANCH 48 49
ATOM     49  N   CYS P   2      13.554   1.140  15.001  0.17 43.25 LIG-0.34  N 
ATOM     50  C   PHE P   1      12.526   0.324  14.749  0.36 44.98 LIG 0.25  C 
ATOM     51 O    PHE P   1      11.607   0.635  13.994  0.36 46.44 LIG-0.27  OA
ATOM     52 H    CYS P   2      14.133   0.977  15.616  0.17 43.25 LIG 0.16  HD
BRANCH 50 53
ATOM     53  CA  PHE P   1      12.314  -1.000  15.479  0.36 46.68 LIG 0.28  C 
BRANCH 53 54
ATOM     54  CB  PHE P   1      13.104  -0.840  16.794  0.36 47.92 LIG 0.08  C 
BRANCH 54 55
ATOM     55  CG  PHE P   1      14.546  -1.307  16.983  0.36 47.93 LIG-0.06  A 
ATOM     56  CD1 PHE P   1      14.966  -2.625  16.775  0.36 48.98 LIG 0.01  A 
ATOM     57  CE1 PHE P   1      16.310  -2.966  16.960  0.36 50.12 LIG 0.00  A 
ATOM     58  CZ  PHE P   1      17.238  -2.000  17.352  0.36 48.72 LIG 0.00  A 
ATOM     59  CE2 PHE P   1      16.817  -0.688  17.556  0.36 48.48 LIG 0.00  A 
ATOM     60  CD2 PHE P   1      15.477  -0.340  17.373  0.36 48.25 LIG 0.01  A 
ENDBRANCH 54 55
ENDBRANCH 53 54
BRANCH 53 61
ATOM     61  N   PHE P   1      12.897  -1.918  14.516  0.36 46.83 LIG-0.07  N 
ATOM     62 H3   PHE P   1      12.366  -2.626  14.420  0.36 46.83 LIG 0.28  HD
ATOM     63 H1   PHE P   1      12.987  -1.507  13.731  0.36 46.83 LIG 0.28  HD
ATOM     64 H2   PHE P   1      13.696  -2.184  14.805  0.36 46.83 LIG 0.28  HD
ENDBRANCH 53 61
ENDBRANCH 50 53
ENDBRANCH 48 49
BRANCH 48 65
ATOM     65  CB  CYS P   2      13.679   3.659  15.120  0.17 41.02 LIG 0.10  C 
BRANCH 65 66
ATOM     66 SG   CYS P   2      12.009   3.516  15.799  0.17 41.68 LIG-0.18  SA
ATOM     67 HG   CYS P   2      11.216   3.946  15.006  0.17 41.68 LIG 0.10  HD
ENDBRANCH 65 66
ENDBRANCH 48 65
ENDBRANCH 45 48
ENDBRANCH 43 44
BRANCH 43 68
ATOM     68  CB  HIS P   3      17.397   4.913  12.328  1.00 25.21 LIG 0.10  C 
BRANCH 68 69
ATOM     69  CG  HIS P   3      18.923   4.890  11.991  1.00 21.50 LIG 0.06  A 
ATOM     70 ND1  HIS P   3      19.419   4.072  11.061  1.00 15.93 LIG-0.24  NA
ATOM     71  CE1 HIS P   3      20.664   4.492  10.890  1.00 14.31 LIG 0.23  A 
ATOM     72 NE2  HIS P   3      20.922   5.528  11.674  1.00 14.39 LIG-0.25  NA
ATOM     73  CD2 HIS P   3      19.866   5.823  12.399  1.00 20.69 LIG 0.14  A 
ENDBRANCH 68 69
ENDBRANCH 43 68
ENDBRANCH 1 43
TORSDOF 26
ENDMDL
MODEL 26
USER: ADFR SOLUTION from run 23
USER: SCORE 21.709339 LL:  -6.441 LR: -16.723 RR:   0.000 FEB:  -8.967
USER: RMSD 8.307304
USER: SEED 22
USER: STATUS no improvement in best in 2 clusters for 5 generations
USER: GENES 28
USER: genes 0 Translation |==|  0.47533 0.71131 0.39101
USER: genes 1 Rotation |==|  0.03425 0.64666 0.58413 0.56698
USER: genes 2 Torsion [N]-CA--C-[O] |==|  0.33826
USER: genes 3 Torsion [C]-N--CA-[C] |==|  0.83643
USER: genes 4 Torsion [N]-CA--C-[N] |==|  0.39916
USER: genes 5 Torsion [C]-N--CA-[CB] |==|  0.48340
USER: genes 6 Torsion [N]-CA--CB-[CG] |==|  0.53176
USER: genes 7 Torsion [CA]-CB--CG-[ND2] |==|  0.20739
USER: genes 8 Torsion [N]-CA--C-[N] |==|  0.38139
USER: genes 9 Torsion [C]-N--CA-[CB] |==|  0.60676
USER: genes 10 Torsion [N]-CA--CB-[CG2] |==|  0.22165
USER: genes 11 Torsion [CA]-CB--OG1-[HG1] |==|  0.54510
USER: genes 12 Torsion [N]-CA--C-[N] |==|  0.41145
USER: genes 13 Torsion [N]-CA--CB-[CG] |==|  0.89873
USER: genes 14 Torsion [CA]-CB--CG-[CD] |==|  0.69387
USER: genes 15 Torsion [CB]-CG--CD-[OE1] |==|  0.55618
USER: genes 16 Torsion [N]-C--CA-[N] |==|  0.82778
USER: genes 17 Torsion [C]-CA--N-[C] |==|  0.72872
USER: genes 18 Torsion [N]-C--CA-[N] |==|  0.38743
USER: genes 19 Torsion [C]-CA--N-[C] |==|  0.82853
USER: genes 20 Torsion [N]-C--CA-[N] |==|  0.56613
USER: genes 21 Torsion [C]-CA--CB-[CG] |==|  0.89380
USER: genes 22 Torsion [CA]-CB--CG-[CD1] |==|  0.80005
USER: genes 23 Torsion [C]-CA--N-[H3] |==|  0.99416
USER: genes 24 Torsion [C]-CA--CB-[SG] |==|  0.56597
USER: genes 25 Torsion [CA]-CB--SG-[HG] |==|  0.94953
USER: genes 26 Torsion [C]-CA--CB-[CG] |==|  0.63207
USER: genes 27 Torsion [CA]-CB--CG-[ND1] |==|  0.39979
ROOT
ATOM      1  C   HIS P   3      16.636   5.636  14.592  1.00 29.14 LIG 0.24  C 
ATOM      2 O    HIS P   3      15.964   6.404  15.303  1.00 31.23 LIG-0.27  OA
ATOM      3  N   PRO P   4      16.096   4.520  14.070  1.00 24.67 LIG-0.34  N 
ATOM      4  CA  PRO P   4      14.745   4.101  14.367  1.00 22.95 LIG 0.18  C 
ATOM      5  CB  PRO P   4      14.530   2.850  13.529  1.00 20.99 LIG 0.04  C 
ATOM      6  CG  PRO P   4      15.698   2.760  12.572  1.00 22.70 LIG 0.02  C 
ATOM      7  CD  PRO P   4      16.795   3.533  13.210  1.00 21.81 LIG 0.13  C 
ENDROOT
BRANCH 4 8
ATOM      8  C   PRO P   4      14.403   3.835  15.826  1.00 19.64 LIG 0.24  C 
ATOM      9 O    PRO P   4      13.488   4.473  16.350  1.00 20.88 LIG-0.27  OA
ATOM     10  N   GLN P   5      15.073   2.870  16.478  1.00 22.98 LIG-0.35  N 
ATOM     11 H    GLN P   5      15.716   2.420  16.126  1.00 22.98 LIG 0.16  HD
BRANCH 10 12
ATOM     12  CA  GLN P   5      14.773   2.491  17.855  1.00 16.98 LIG 0.18  C 
BRANCH 12 13
ATOM     13  C   GLN P   5      14.902   3.620  18.857  1.00 21.89 LIG 0.24  C 
ATOM     14  N   ASN P   6      14.080   3.744  19.903  1.00 22.75 LIG-0.35  N 
ATOM     15 H    ASN P   6      13.420   3.230  20.103  1.00 22.75 LIG 0.16  HD
ATOM     16 O    GLN P   5      15.801   4.452  18.676  1.00 24.56 LIG-0.27  OA
BRANCH 14 17
ATOM     17  CA  ASN P   6      14.333   4.859  20.784  1.00 29.16 LIG 0.18  C 
BRANCH 17 18
ATOM     18  CB  ASN P   6      13.281   5.045  21.886  1.00 24.89 LIG 0.14  C 
BRANCH 18 19
ATOM     19  CG  ASN P   6      13.419   6.369  22.615  1.00 26.77 LIG 0.22  C 
ATOM     20 OD1  ASN P   6      13.897   6.503  23.756  1.00 24.78 LIG-0.27  OA
ATOM     21  ND2 ASN P   6      13.000   7.404  21.919  1.00 25.10 LIG-0.37  N 
ATOM     22 22HD ASN P   6      12.673   7.289  21.132  1.00 25.10 LIG 0.16  HD
ATOM     23 21HD ASN P   6      13.055   8.195  22.250  1.00 25.10 LIG 0.16  HD
ENDBRANCH 18 19
ENDBRANCH 17 18
BRANCH 17 24
ATOM     24  C   ASN P   6      15.637   4.714  21.464  1.00 33.65 LIG 0.24  C 
ATOM     25 O    ASN P   6      16.072   3.625  21.826  1.00 34.15 LIG-0.27  OA
ATOM     26  N   THR P   7      16.184   5.925  21.419  1.00 46.42 LIG-0.34  N 
ATOM     27 H    THR P   7      15.773   6.566  21.021  1.00 46.42 LIG 0.16  HD
BRANCH 26 28
ATOM     28  CA  THR P   7      17.450   6.390  21.966  1.00 55.98 LIG 0.21  C 
BRANCH 28 29
ATOM     29  CB  THR P   7      17.080   7.833  22.485  1.00 59.10 LIG 0.15  C 
ATOM     30  CG2 THR P   7      16.362   7.821  23.848  1.00 61.71 LIG 0.04  C 
BRANCH 29 31
ATOM     31 OG1  THR P   7      18.298   8.582  22.507  1.00 60.27 LIG-0.39  OA
ATOM     32 HG1  THR P   7      18.195   9.270  22.977  1.00 60.27 LIG 0.21  HD
ENDBRANCH 29 31
ENDBRANCH 28 29
BRANCH 28 33
ATOM     33  C   THR P   7      18.271   5.567  22.966  1.00 57.95 LIG 0.29  C 
ATOM     34  N   NH2 P   8      19.585   5.735  22.873  1.00 58.98 LIG-0.11  N 
ATOM     35 O    THR P   7      17.786   4.755  23.759  1.00 60.38 LIG-0.27  OA
ENDBRANCH 28 33
ENDBRANCH 26 28
ENDBRANCH 17 24
ENDBRANCH 14 17
ENDBRANCH 12 13
BRANCH 12 36
ATOM     36  CB  GLN P   5      15.663   1.331  18.257  1.00 11.38 LIG 0.04  C 
BRANCH 36 37
ATOM     37  CG  GLN P   5      15.901   0.358  17.105  1.00 11.43 LIG 0.10  C 
BRANCH 37 38
ATOM     38  CD  GLN P   5      15.228  -0.997  17.263  1.00 11.64 LIG 0.21  C 
ATOM     39  NE2 GLN P   5      14.216  -1.185  18.085  1.00  7.77 LIG-0.37  N 
ATOM     40 21HE GLN P   5      13.912  -0.529  18.549  1.00  7.77 LIG 0.16  HD
ATOM     41 22HE GLN P   5      13.860  -1.965  18.157  1.00  7.77 LIG 0.16  HD
ATOM     42 OE1  GLN P   5      15.642  -1.947  16.614  1.00 11.36 LIG-0.27  OA
ENDBRANCH 37 38
ENDBRANCH 36 37
ENDBRANCH 12 36
ENDBRANCH 10 12
ENDBRANCH 4 8
BRANCH 1 43
ATOM     43  CA  HIS P   3      18.064   6.017  14.206  1.00 30.34 LIG 0.18  C 
BRANCH 43 44
ATOM     44  N   HIS P   3      18.694   4.835  14.752  1.00 35.71 LIG-0.35  N 
ATOM     45  C   CYS P   2      19.275   4.751  15.929  0.17 38.31 LIG 0.24  C 
ATOM     46 O    CYS P   2      19.477   5.742  16.639  0.17 38.29 LIG-0.27  OA
ATOM     47 H    HIS P   3      18.655   4.163  14.216  1.00 35.71 LIG 0.16  HD
BRANCH 45 48
ATOM     48  CA  CYS P   2      19.729   3.325  16.242  0.17 40.64 LIG 0.18  C 
BRANCH 48 49
ATOM     49  N   CYS P   2      21.037   3.173  16.896  0.17 43.25 LIG-0.34  N 
ATOM     50  C   PHE P   1      22.203   3.558  16.366  0.36 44.98 LIG 0.25  C 
ATOM     51 O    PHE P   1      22.305   3.925  15.197  0.36 46.44 LIG-0.27  OA
ATOM     52 H    CYS P   2      20.984   2.805  17.672  0.17 43.25 LIG 0.16  HD
BRANCH 50 53
ATOM     53  CA  PHE P   1      23.534   3.440  17.103  0.36 46.68 LIG 0.28  C 
BRANCH 53 54
ATOM     54  CB  PHE P   1      23.186   3.759  18.571  0.36 47.92 LIG 0.08  C 
BRANCH 54 55
ATOM     55  CG  PHE P   1      22.181   4.827  18.995  0.36 47.93 LIG-0.06  A 
ATOM     56  CD1 PHE P   1      22.423   6.201  18.893  0.36 48.98 LIG 0.01  A 
ATOM     57  CE1 PHE P   1      21.442   7.114  19.294  0.36 50.12 LIG 0.00  A 
ATOM     58  CZ  PHE P   1      20.220   6.665  19.797  0.36 48.72 LIG 0.00  A 
ATOM     59  CE2 PHE P   1      19.981   5.296  19.896  0.36 48.48 LIG 0.00  A 
ATOM     60  CD2 PHE P   1      20.956   4.379  19.497  0.36 48.25 LIG 0.01  A 
ENDBRANCH 54 55
ENDBRANCH 53 54
BRANCH 53 61
ATOM     61  N   PHE P   1      24.298   4.465  16.412  0.36 46.83 LIG-0.07  N 
ATOM     62 H3   PHE P   1      23.799   4.825  15.768  0.36 46.83 LIG 0.28  HD
ATOM     63 H1   PHE P   1      24.536   5.098  16.991  0.36 46.83 LIG 0.28  HD
ATOM     64 H2   PHE P   1      25.027   4.101  16.054  0.36 46.83 LIG 0.28  HD
ENDBRANCH 53 61
ENDBRANCH 50 53
ENDBRANCH 48 49
BRANCH 48 65
ATOM     65  CB  CYS P   2      18.563   2.681  16.988  0.17 41.02 LIG 0.10  C 
BRANCH 65 66
ATOM     66 SG   CYS P   2      19.355   1.357  17.931  0.17 41.68 LIG-0.18  SA
ATOM     67 HG   CYS P   2      20.435   1.122  17.462  0.17 41.68 LIG 0.10  HD
ENDBRANCH 65 66
ENDBRANCH 48 65
ENDBRANCH 45 48
ENDBRANCH 43 44
BRANCH 43 68
ATOM     68  CB  HIS P   3      18.081   6.272  12.665  1.00 25.21 LIG 0.10  C 
BRANCH 68 69
ATOM     69  CG  HIS P   3      19.303   5.503  12.065  1.00 21.50 LIG 0.06  A 
ATOM     70 ND1  HIS P   3      19.243   4.924  10.866  1.00 15.93 LIG-0.24  NA
ATOM     71  CE1 HIS P   3      20.498   4.590  10.602  1.00 14.31 LIG 0.23  A 
ATOM     72 NE2  HIS P   3      21.298   4.955  11.592  1.00 14.39 LIG-0.25  NA
ATOM     73  CD2 HIS P   3      20.604   5.529  12.549  1.00 20.69 LIG 0.14  A 
ENDBRANCH 68 69
ENDBRANCH 43 68
ENDBRANCH 1 43
TORSDOF 26
ENDMDL
MODEL 27
USER: ADFR SOLUTION from run 160
USER: SCORE 20.014373 LL:  -6.695 LR: -16.697 RR:   0.000 FEB:  -8.941
USER: RMSD 9.958441
USER: SEED 159
USER: STATUS no improvement in best in 9 clusters for 5 generations
USER: GENES 28
USER: genes 0 Translation |==|  0.48466 0.60817 0.56526
USER: genes 1 Rotation |==|  0.84693 0.20238 0.36288 0.64920
USER: genes 2 Torsion [N]-CA--C-[O] |==|  0.83397
USER: genes 3 Torsion [C]-N--CA-[C] |==|  0.18955
USER: genes 4 Torsion [N]-CA--C-[N] |==|  0.98691
USER: genes 5 Torsion [C]-N--CA-[CB] |==|  0.17676
USER: genes 6 Torsion [N]-CA--CB-[CG] |==|  0.50517
USER: genes 7 Torsion [CA]-CB--CG-[ND2] |==|  0.10370
USER: genes 8 Torsion [N]-CA--C-[N] |==|  0.25555
USER: genes 9 Torsion [C]-N--CA-[CB] |==|  0.88322
USER: genes 10 Torsion [N]-CA--CB-[CG2] |==|  0.51406
USER: genes 11 Torsion [CA]-CB--OG1-[HG1] |==|  0.18246
USER: genes 12 Torsion [N]-CA--C-[N] |==|  0.71238
USER: genes 13 Torsion [N]-CA--CB-[CG] |==|  0.80649
USER: genes 14 Torsion [CA]-CB--CG-[CD] |==|  0.17004
USER: genes 15 Torsion [CB]-CG--CD-[OE1] |==|  0.18362
USER: genes 16 Torsion [N]-C--CA-[N] |==|  0.38051
USER: genes 17 Torsion [C]-CA--N-[C] |==|  0.65338
USER: genes 18 Torsion [N]-C--CA-[N] |==|  0.41230
USER: genes 19 Torsion [C]-CA--N-[C] |==|  0.55930
USER: genes 20 Torsion [N]-C--CA-[N] |==|  0.33371
USER: genes 21 Torsion [C]-CA--CB-[CG] |==|  0.13891
USER: genes 22 Torsion [CA]-CB--CG-[CD1] |==|  0.31038
USER: genes 23 Torsion [C]-CA--N-[H3] |==|  0.03126
USER: genes 24 Torsion [C]-CA--CB-[SG] |==|  0.87012
USER: genes 25 Torsion [CA]-CB--SG-[HG] |==|  0.77826
USER: genes 26 Torsion [C]-CA--CB-[CG] |==|  0.33293
USER: genes 27 Torsion [CA]-CB--CG-[ND1] |==|  0.97878
ROOT
ATOM      1  C   HIS P   3      16.839   3.779  18.512  1.00 29.14 LIG 0.24  C 
ATOM      2 O    HIS P   3      17.045   5.005  18.455  1.00 31.23 LIG-0.27  OA
ATOM      3  N   PRO P   4      15.883   3.272  19.311  1.00 24.67 LIG-0.34  N 
ATOM      4  CA  PRO P   4      15.102   4.095  20.205  1.00 22.95 LIG 0.18  C 
ATOM      5  CB  PRO P   4      14.113   3.140  20.855  1.00 20.99 LIG 0.04  C 
ATOM      6  CG  PRO P   4      14.200   1.837  20.092  1.00 22.70 LIG 0.02  C 
ATOM      7  CD  PRO P   4      15.546   1.835  19.462  1.00 21.81 LIG 0.13  C 
ENDROOT
BRANCH 4 8
ATOM      8  C   PRO P   4      15.859   4.886  21.263  1.00 19.64 LIG 0.24  C 
ATOM      9 O    PRO P   4      16.546   4.277  22.085  1.00 20.88 LIG-0.27  OA
ATOM     10  N   GLN P   5      15.798   6.228  21.228  1.00 22.98 LIG-0.35  N 
ATOM     11 H    GLN P   5      15.320   6.666  20.663  1.00 22.98 LIG 0.16  HD
BRANCH 10 12
ATOM     12  CA  GLN P   5      16.542   7.077  22.153  1.00 16.98 LIG 0.18  C 
BRANCH 12 13
ATOM     13  C   GLN P   5      18.044   7.049  21.959  1.00 21.89 LIG 0.24  C 
ATOM     14  N   ASN P   6      18.637   6.238  21.079  1.00 22.75 LIG-0.35  N 
ATOM     15 H    ASN P   6      18.251   5.668  20.564  1.00 22.75 LIG 0.16  HD
ATOM     16 O    GLN P   5      18.730   7.806  22.660  1.00 24.56 LIG-0.27  OA
BRANCH 14 17
ATOM     17  CA  ASN P   6      20.075   6.333  20.992  1.00 29.16 LIG 0.18  C 
BRANCH 17 18
ATOM     18  CB  ASN P   6      20.814   5.937  22.277  1.00 24.89 LIG 0.14  C 
BRANCH 18 19
ATOM     19  CG  ASN P   6      22.319   6.092  22.164  1.00 26.77 LIG 0.22  C 
ATOM     20 OD1  ASN P   6      23.151   5.307  22.654  1.00 24.78 LIG-0.27  OA
ATOM     21  ND2 ASN P   6      22.693   7.142  21.466  1.00 25.10 LIG-0.37  N 
ATOM     22 22HD ASN P   6      22.101   7.672  21.136  1.00 25.10 LIG 0.16  HD
ATOM     23 21HD ASN P   6      23.528   7.299  21.339  1.00 25.10 LIG 0.16  HD
ENDBRANCH 18 19
ENDBRANCH 17 18
BRANCH 17 24
ATOM     24  C   ASN P   6      20.600   5.466  19.917  1.00 33.65 LIG 0.24  C 
ATOM     25 O    ASN P   6      20.784   4.264  20.073  1.00 34.15 LIG-0.27  OA
ATOM     26  N   THR P   7      20.648   6.245  18.840  1.00 46.42 LIG-0.34  N 
ATOM     27 H    THR P   7      20.374   7.059  18.888  1.00 46.42 LIG 0.16  HD
BRANCH 26 28
ATOM     28  CA  THR P   7      21.120   5.943  17.498  1.00 55.98 LIG 0.21  C 
BRANCH 28 29
ATOM     29  CB  THR P   7      22.430   5.111  17.782  1.00 59.10 LIG 0.15  C 
ATOM     30  CG2 THR P   7      23.213   4.759  16.503  1.00 61.71 LIG 0.04  C 
BRANCH 29 31
ATOM     31 OG1  THR P   7      23.202   5.876  18.712  1.00 60.27 LIG-0.39  OA
ATOM     32 HG1  THR P   7      22.793   5.923  19.444  1.00 60.27 LIG 0.21  HD
ENDBRANCH 29 31
ENDBRANCH 28 29
BRANCH 28 33
ATOM     33  C   THR P   7      20.216   5.320  16.426  1.00 57.95 LIG 0.29  C 
ATOM     34  N   NH2 P   8      20.425   4.027  16.210  1.00 58.98 LIG-0.11  N 
ATOM     35 O    THR P   7      19.400   5.956  15.752  1.00 60.38 LIG-0.27  OA
ENDBRANCH 28 33
ENDBRANCH 26 28
ENDBRANCH 17 24
ENDBRANCH 14 17
ENDBRANCH 12 13
BRANCH 12 36
ATOM     36  CB  GLN P   5      16.192   6.688  23.577  1.00 11.38 LIG 0.04  C 
BRANCH 36 37
ATOM     37  CG  GLN P   5      14.761   7.070  23.945  1.00 11.43 LIG 0.10  C 
BRANCH 37 38
ATOM     38  CD  GLN P   5      13.683   6.405  23.101  1.00 11.64 LIG 0.21  C 
ATOM     39  NE2 GLN P   5      12.899   7.092  22.296  1.00  7.77 LIG-0.37  N 
ATOM     40 21HE GLN P   5      12.992   7.945  22.231  1.00  7.77 LIG 0.16  HD
ATOM     41 22HE GLN P   5      12.295   6.689  21.836  1.00  7.77 LIG 0.16  HD
ATOM     42 OE1  GLN P   5      13.531   5.194  23.176  1.00 11.36 LIG-0.27  OA
ENDBRANCH 37 38
ENDBRANCH 36 37
ENDBRANCH 12 36
ENDBRANCH 10 12
ENDBRANCH 4 8
BRANCH 1 43
ATOM     43  CA  HIS P   3      17.601   2.839  17.580  1.00 30.34 LIG 0.18  C 
BRANCH 43 44
ATOM     44  N   HIS P   3      17.575   3.710  16.426  1.00 35.71 LIG-0.35  N 
ATOM     45  C   CYS P   2      17.110   3.392  15.236  0.17 38.31 LIG 0.24  C 
ATOM     46 O    CYS P   2      16.779   2.239  14.942  0.17 38.29 LIG-0.27  OA
ATOM     47 H    HIS P   3      17.905   4.487  16.591  1.00 35.71 LIG 0.16  HD
BRANCH 45 48
ATOM     48  CA  CYS P   2      17.121   4.586  14.281  0.17 40.64 LIG 0.18  C 
BRANCH 48 49
ATOM     49  N   CYS P   2      17.331   4.293  12.855  0.17 43.25 LIG-0.34  N 
ATOM     50  C   PHE P   1      17.769   5.177  11.954  0.36 44.98 LIG 0.25  C 
ATOM     51 O    PHE P   1      17.878   6.376  12.206  0.36 46.44 LIG-0.27  OA
ATOM     52 H    CYS P   2      17.140   3.480  12.648  0.17 43.25 LIG 0.16  HD
BRANCH 50 53
ATOM     53  CA  PHE P   1      18.034   4.819  10.494  0.36 46.68 LIG 0.28  C 
BRANCH 53 54
ATOM     54  CB  PHE P   1      19.528   5.141  10.287  0.36 47.92 LIG 0.08  C 
BRANCH 54 55
ATOM     55  CG  PHE P   1      20.640   4.654  11.213  0.36 47.93 LIG-0.06  A 
ATOM     56  CD1 PHE P   1      21.605   3.715  10.836  0.36 48.98 LIG 0.01  A 
ATOM     57  CE1 PHE P   1      22.598   3.332  11.744  0.36 50.12 LIG 0.00  A 
ATOM     58  CZ  PHE P   1      22.634   3.880  13.026  0.36 48.72 LIG 0.00  A 
ATOM     59  CE2 PHE P   1      21.673   4.817  13.399  0.36 48.48 LIG 0.00  A 
ATOM     60  CD2 PHE P   1      20.679   5.204  12.498  0.36 48.25 LIG 0.01  A 
ENDBRANCH 54 55
ENDBRANCH 53 54
BRANCH 53 61
ATOM     61  N   PHE P   1      17.110   5.727   9.838  0.36 46.83 LIG-0.07  N 
ATOM     62 H3   PHE P   1      16.799   6.315  10.430  0.36 46.83 LIG 0.28  HD
ATOM     63 H1   PHE P   1      17.532   6.159   9.184  0.36 46.83 LIG 0.28  HD
ATOM     64 H2   PHE P   1      16.430   5.264   9.496  0.36 46.83 LIG 0.28  HD
ENDBRANCH 53 61
ENDBRANCH 50 53
ENDBRANCH 48 49
BRANCH 48 65
ATOM     65  CB  CYS P   2      15.847   5.369  14.592  0.17 41.02 LIG 0.10  C 
BRANCH 65 66
ATOM     66 SG   CYS P   2      14.576   4.083  14.655  0.17 41.68 LIG-0.18  SA
ATOM     67 HG   CYS P   2      14.248   3.790  13.538  0.17 41.68 LIG 0.10  HD
ENDBRANCH 65 66
ENDBRANCH 48 65
ENDBRANCH 45 48
ENDBRANCH 43 44
BRANCH 43 68
ATOM     68  CB  HIS P   3      18.959   2.494  18.269  1.00 25.21 LIG 0.10  C 
BRANCH 68 69
ATOM     69  CG  HIS P   3      19.011   0.945  18.479  1.00 21.50 LIG 0.06  A 
ATOM     70 ND1  HIS P   3      17.952   0.173  18.235  1.00 15.93 LIG-0.24  NA
ATOM     71  CE1 HIS P   3      18.429  -1.062  18.292  1.00 14.31 LIG 0.23  A 
ATOM     72 NE2  HIS P   3      19.728  -1.051  18.553  1.00 14.39 LIG-0.25  NA
ATOM     73  CD2 HIS P   3      20.153   0.185  18.690  1.00 20.69 LIG 0.14  A 
ENDBRANCH 68 69
ENDBRANCH 43 68
ENDBRANCH 1 43
TORSDOF 26
ENDMDL
MODEL 28
USER: ADFR SOLUTION from run 60
USER: SCORE 19.377277 LL:  -5.977 LR: -16.663 RR:   0.000 FEB:  -8.907
USER: RMSD 8.640049
USER: SEED 59
USER: STATUS no improvement in best in 9 clusters for 5 generations
USER: GENES 28
USER: genes 0 Translation |==|  0.45595 0.65135 0.41022
USER: genes 1 Rotation |==|  0.76854 0.32974 0.21827 0.76368
USER: genes 2 Torsion [N]-CA--C-[O] |==|  0.22354
USER: genes 3 Torsion [C]-N--CA-[C] |==|  0.69685
USER: genes 4 Torsion [N]-CA--C-[N] |==|  0.00104
USER: genes 5 Torsion [C]-N--CA-[CB] |==|  0.36668
USER: genes 6 Torsion [N]-CA--CB-[CG] |==|  0.57969
USER: genes 7 Torsion [CA]-CB--CG-[ND2] |==|  0.05569
USER: genes 8 Torsion [N]-CA--C-[N] |==|  0.90760
USER: genes 9 Torsion [C]-N--CA-[CB] |==|  0.72279
USER: genes 10 Torsion [N]-CA--CB-[CG2] |==|  0.50404
USER: genes 11 Torsion [CA]-CB--OG1-[HG1] |==|  0.59320
USER: genes 12 Torsion [N]-CA--C-[N] |==|  0.15873
USER: genes 13 Torsion [N]-CA--CB-[CG] |==|  0.94666
USER: genes 14 Torsion [CA]-CB--CG-[CD] |==|  0.73549
USER: genes 15 Torsion [CB]-CG--CD-[OE1] |==|  0.82432
USER: genes 16 Torsion [N]-C--CA-[N] |==|  0.18607
USER: genes 17 Torsion [C]-CA--N-[C] |==|  0.63580
USER: genes 18 Torsion [N]-C--CA-[N] |==|  0.51634
USER: genes 19 Torsion [C]-CA--N-[C] |==|  0.15860
USER: genes 20 Torsion [N]-C--CA-[N] |==|  0.72446
USER: genes 21 Torsion [C]-CA--CB-[CG] |==|  0.23711
USER: genes 22 Torsion [CA]-CB--CG-[CD1] |==|  0.93023
USER: genes 23 Torsion [C]-CA--N-[H3] |==|  0.68687
USER: genes 24 Torsion [C]-CA--CB-[SG] |==|  0.27869
USER: genes 25 Torsion [CA]-CB--SG-[HG] |==|  0.69388
USER: genes 26 Torsion [C]-CA--CB-[CG] |==|  0.42826
USER: genes 27 Torsion [CA]-CB--CG-[ND1] |==|  0.07226
ROOT
ATOM      1  C   HIS P   3      16.215   4.556  15.024  1.00 29.14 LIG 0.24  C 
ATOM      2 O    HIS P   3      16.197   5.800  14.971  1.00 31.23 LIG-0.27  OA
ATOM      3  N   PRO P   4      16.350   3.913  16.197  1.00 24.67 LIG-0.34  N 
ATOM      4  CA  PRO P   4      16.566   4.611  17.444  1.00 22.95 LIG 0.18  C 
ATOM      5  CB  PRO P   4      16.594   3.520  18.504  1.00 20.99 LIG 0.04  C 
ATOM      6  CG  PRO P   4      16.118   2.249  17.835  1.00 22.70 LIG 0.02  C 
ATOM      7  CD  PRO P   4      16.384   2.441  16.385  1.00 21.81 LIG 0.13  C 
ENDROOT
BRANCH 4 8
ATOM      8  C   PRO P   4      17.806   5.489  17.544  1.00 19.64 LIG 0.24  C 
ATOM      9 O    PRO P   4      17.779   6.617  17.050  1.00 20.88 LIG-0.27  OA
ATOM     10  N   GLN P   5      18.869   5.024  18.222  1.00 22.98 LIG-0.35  N 
ATOM     11 H    GLN P   5      18.903   4.238  18.569  1.00 22.98 LIG 0.16  HD
BRANCH 10 12
ATOM     12  CA  GLN P   5      20.077   5.815  18.435  1.00 16.98 LIG 0.18  C 
BRANCH 12 13
ATOM     13  C   GLN P   5      21.282   5.343  17.647  1.00 21.89 LIG 0.24  C 
ATOM     14  N   ASN P   6      21.231   4.294  16.822  1.00 22.75 LIG-0.35  N 
ATOM     15 H    ASN P   6      20.548   3.795  16.666  1.00 22.75 LIG 0.16  HD
ATOM     16 O    GLN P   5      22.345   5.960  17.796  1.00 24.56 LIG-0.27  OA
BRANCH 14 17
ATOM     17  CA  ASN P   6      22.453   3.971  16.125  1.00 29.16 LIG 0.18  C 
BRANCH 17 18
ATOM     18  CB  ASN P   6      22.837   2.485  16.179  1.00 24.89 LIG 0.14  C 
BRANCH 18 19
ATOM     19  CG  ASN P   6      24.335   2.260  16.092  1.00 26.77 LIG 0.22  C 
ATOM     20 OD1  ASN P   6      24.873   1.194  15.743  1.00 24.78 LIG-0.27  OA
ATOM     21  ND2 ASN P   6      25.049   3.320  16.403  1.00 25.10 LIG-0.37  N 
ATOM     22 22HD ASN P   6      24.658   4.048  16.641  1.00 25.10 LIG 0.16  HD
ATOM     23 21HD ASN P   6      25.908   3.286  16.367  1.00 25.10 LIG 0.16  HD
ENDBRANCH 18 19
ENDBRANCH 17 18
BRANCH 17 24
ATOM     24  C   ASN P   6      22.361   4.333  14.696  1.00 33.65 LIG 0.24  C 
ATOM     25 O    ASN P   6      23.348   4.610  14.023  1.00 34.15 LIG-0.27  OA
ATOM     26  N   THR P   7      21.086   4.136  14.373  1.00 46.42 LIG-0.34  N 
ATOM     27 H    THR P   7      20.538   3.829  14.961  1.00 46.42 LIG 0.16  HD
BRANCH 26 28
ATOM     28  CA  THR P   7      20.404   4.363  13.108  1.00 55.98 LIG 0.21  C 
BRANCH 28 29
ATOM     29  CB  THR P   7      19.693   5.749  13.355  1.00 59.10 LIG 0.15  C 
ATOM     30  CG2 THR P   7      18.851   6.221  12.155  1.00 61.71 LIG 0.04  C 
BRANCH 29 31
ATOM     31 OG1  THR P   7      18.922   5.603  14.550  1.00 60.27 LIG-0.39  OA
ATOM     32 HG1  THR P   7      18.223   6.066  14.491  1.00 60.27 LIG 0.21  HD
ENDBRANCH 29 31
ENDBRANCH 28 29
BRANCH 28 33
ATOM     33  C   THR P   7      21.121   4.271  11.755  1.00 57.95 LIG 0.29  C 
ATOM     34  N   NH2 P   8      21.710   3.105  11.520  1.00 58.98 LIG-0.11  N 
ATOM     35 O    THR P   7      21.220   5.208  10.957  1.00 60.38 LIG-0.27  OA
ENDBRANCH 28 33
ENDBRANCH 26 28
ENDBRANCH 17 24
ENDBRANCH 14 17
ENDBRANCH 12 13
BRANCH 12 36
ATOM     36  CB  GLN P   5      20.399   5.841  19.917  1.00 11.38 LIG 0.04  C 
BRANCH 36 37
ATOM     37  CG  GLN P   5      19.193   5.477  20.778  1.00 11.43 LIG 0.10  C 
BRANCH 37 38
ATOM     38  CD  GLN P   5      18.395   6.665  21.297  1.00 11.64 LIG 0.21  C 
ATOM     39  NE2 GLN P   5      17.143   6.875  20.946  1.00  7.77 LIG-0.37  N 
ATOM     40 21HE GLN P   5      16.749   6.329  20.412  1.00  7.77 LIG 0.16  HD
ATOM     41 22HE GLN P   5      16.720   7.560  21.251  1.00  7.77 LIG 0.16  HD
ATOM     42 OE1  GLN P   5      18.933   7.457  22.057  1.00 11.36 LIG-0.27  OA
ENDBRANCH 37 38
ENDBRANCH 36 37
ENDBRANCH 12 36
ENDBRANCH 10 12
ENDBRANCH 4 8
BRANCH 1 43
ATOM     43  CA  HIS P   3      15.965   3.741  13.757  1.00 30.34 LIG 0.18  C 
BRANCH 43 44
ATOM     44  N   HIS P   3      14.647   3.275  14.130  1.00 35.71 LIG-0.35  N 
ATOM     45  C   CYS P   2      14.231   2.028  14.072  0.17 38.31 LIG 0.24  C 
ATOM     46 O    CYS P   2      14.895   1.133  13.536  0.17 38.29 LIG-0.27  OA
ATOM     47 H    HIS P   3      14.138   3.911  14.403  1.00 35.71 LIG 0.16  HD
BRANCH 45 48
ATOM     48  CA  CYS P   2      12.827   1.866  14.655  0.17 40.64 LIG 0.18  C 
BRANCH 48 49
ATOM     49  N   CYS P   2      12.309   0.495  14.768  0.17 43.25 LIG-0.34  N 
ATOM     50  C   PHE P   1      12.908  -0.493  15.440  0.36 44.98 LIG 0.25  C 
ATOM     51 O    PHE P   1      14.047  -0.385  15.891  0.36 46.44 LIG-0.27  OA
ATOM     52 H    CYS P   2      11.565   0.382  14.350  0.17 43.25 LIG 0.16  HD
BRANCH 50 53
ATOM     53  CA  PHE P   1      12.307  -1.888  15.586  0.36 46.68 LIG 0.28  C 
BRANCH 53 54
ATOM     54  CB  PHE P   1      11.286  -1.985  14.435  0.36 47.92 LIG 0.08  C 
BRANCH 54 55
ATOM     55  CG  PHE P   1      11.644  -2.409  13.012  0.36 47.93 LIG-0.06  A 
ATOM     56  CD1 PHE P   1      12.922  -2.268  12.462  0.36 48.98 LIG 0.01  A 
ATOM     57  CE1 PHE P   1      13.168  -2.694  11.152  0.36 50.12 LIG 0.00  A 
ATOM     58  CZ  PHE P   1      12.147  -3.259  10.387  0.36 48.72 LIG 0.00  A 
ATOM     59  CE2 PHE P   1      10.875  -3.399  10.939  0.36 48.48 LIG 0.00  A 
ATOM     60  CD2 PHE P   1      10.623  -2.977  12.246  0.36 48.25 LIG 0.01  A 
ENDBRANCH 54 55
ENDBRANCH 53 54
BRANCH 53 61
ATOM     61  N   PHE P   1      11.732  -1.779  16.915  0.36 46.83 LIG-0.07  N 
ATOM     62 H3   PHE P   1      12.170  -2.316  17.474  0.36 46.83 LIG 0.28  HD
ATOM     63 H1   PHE P   1      11.797  -0.938  17.199  0.36 46.83 LIG 0.28  HD
ATOM     64 H2   PHE P   1      10.874  -2.017  16.887  0.36 46.83 LIG 0.28  HD
ENDBRANCH 53 61
ENDBRANCH 50 53
ENDBRANCH 48 49
BRANCH 48 65
ATOM     65  CB  CYS P   2      12.837   2.655  15.964  0.17 41.02 LIG 0.10  C 
BRANCH 65 66
ATOM     66 SG   CYS P   2      12.022   4.206  15.518  0.17 41.68 LIG-0.18  SA
ATOM     67 HG   CYS P   2      12.826   5.098  15.526  0.17 41.68 LIG 0.10  HD
ENDBRANCH 65 66
ENDBRANCH 48 65
ENDBRANCH 45 48
ENDBRANCH 43 44
BRANCH 43 68
ATOM     68  CB  HIS P   3      16.139   4.702  12.538  1.00 25.21 LIG 0.10  C 
BRANCH 68 69
ATOM     69  CG  HIS P   3      16.545   3.838  11.300  1.00 21.50 LIG 0.06  A 
ATOM     70 ND1  HIS P   3      16.212   2.551  11.208  1.00 15.93 LIG-0.24  NA
ATOM     71  CE1 HIS P   3      16.508   2.226   9.959  1.00 14.31 LIG 0.23  A 
ATOM     72 NE2  HIS P   3      16.995   3.270   9.306  1.00 14.39 LIG-0.25  NA
ATOM     73  CD2 HIS P   3      17.052   4.316  10.100  1.00 20.69 LIG 0.14  A 
ENDBRANCH 68 69
ENDBRANCH 43 68
ENDBRANCH 1 43
TORSDOF 26
ENDMDL
MODEL 29
USER: ADFR SOLUTION from run 143
USER: SCORE 20.762652 LL:  -6.566 LR: -16.658 RR:   0.000 FEB:  -8.903
USER: RMSD 10.030211
USER: SEED 142
USER: STATUS 1 or 2 clusters left
USER: GENES 28
USER: genes 0 Translation |==|  0.37436 0.51483 0.51419
USER: genes 1 Rotation |==|  0.17611 0.87136 0.58386 0.51240
USER: genes 2 Torsion [N]-CA--C-[O] |==|  0.70331
USER: genes 3 Torsion [C]-N--CA-[C] |==|  0.60397
USER: genes 4 Torsion [N]-CA--C-[N] |==|  0.71645
USER: genes 5 Torsion [C]-N--CA-[CB] |==|  0.20520
USER: genes 6 Torsion [N]-CA--CB-[CG] |==|  0.06404
USER: genes 7 Torsion [CA]-CB--CG-[ND2] |==|  0.69075
USER: genes 8 Torsion [N]-CA--C-[N] |==|  0.07054
USER: genes 9 Torsion [C]-N--CA-[CB] |==|  0.77170
USER: genes 10 Torsion [N]-CA--CB-[CG2] |==|  0.54218
USER: genes 11 Torsion [CA]-CB--OG1-[HG1] |==|  0.20849
USER: genes 12 Torsion [N]-CA--C-[N] |==|  0.36035
USER: genes 13 Torsion [N]-CA--CB-[CG] |==|  0.07391
USER: genes 14 Torsion [CA]-CB--CG-[CD] |==|  0.24654
USER: genes 15 Torsion [CB]-CG--CD-[OE1] |==|  0.18193
USER: genes 16 Torsion [N]-C--CA-[N] |==|  0.33335
USER: genes 17 Torsion [C]-CA--N-[C] |==|  0.75454
USER: genes 18 Torsion [N]-C--CA-[N] |==|  0.36835
USER: genes 19 Torsion [C]-CA--N-[C] |==|  0.24771
USER: genes 20 Torsion [N]-C--CA-[N] |==|  0.43922
USER: genes 21 Torsion [C]-CA--CB-[CG] |==|  0.14015
USER: genes 22 Torsion [CA]-CB--CG-[CD1] |==|  0.67983
USER: genes 23 Torsion [C]-CA--N-[H3] |==|  0.84212
USER: genes 24 Torsion [C]-CA--CB-[SG] |==|  0.42070
USER: genes 25 Torsion [CA]-CB--SG-[HG] |==|  0.37421
USER: genes 26 Torsion [C]-CA--CB-[CG] |==|  0.37334
USER: genes 27 Torsion [CA]-CB--CG-[ND1] |==|  0.00318
ROOT
ATOM      1  C   HIS P   3      14.440   2.099  17.363  1.00 29.14 LIG 0.24  C 
ATOM      2 O    HIS P   3      14.977   3.132  17.802  1.00 31.23 LIG-0.27  OA
ATOM      3  N   PRO P   4      13.102   1.961  17.354  1.00 24.67 LIG-0.34  N 
ATOM      4  CA  PRO P   4      12.217   2.952  17.922  1.00 22.95 LIG 0.18  C 
ATOM      5  CB  PRO P   4      10.815   2.434  17.638  1.00 20.99 LIG 0.04  C 
ATOM      6  CG  PRO P   4      10.964   1.282  16.669  1.00 22.70 LIG 0.02  C 
ATOM      7  CD  PRO P   4      12.351   0.782  16.857  1.00 21.81 LIG 0.13  C 
ENDROOT
BRANCH 4 8
ATOM      8  C   PRO P   4      12.383   3.266  19.403  1.00 19.64 LIG 0.24  C 
ATOM      9 O    PRO P   4      11.537   2.855  20.199  1.00 20.88 LIG-0.27  OA
ATOM     10  N   GLN P   5      13.481   3.933  19.799  1.00 22.98 LIG-0.35  N 
ATOM     11 H    GLN P   5      14.077   4.229  19.255  1.00 22.98 LIG 0.16  HD
BRANCH 10 12
ATOM     12  CA  GLN P   5      13.767   4.222  21.200  1.00 16.98 LIG 0.18  C 
BRANCH 12 13
ATOM     13  C   GLN P   5      14.398   5.577  21.445  1.00 21.89 LIG 0.24  C 
ATOM     14  N   ASN P   6      15.704   5.725  21.680  1.00 22.75 LIG-0.35  N 
ATOM     15 H    ASN P   6      16.293   5.100  21.724  1.00 22.75 LIG 0.16  HD
ATOM     16 O    GLN P   5      13.656   6.568  21.434  1.00 24.56 LIG-0.27  OA
BRANCH 14 17
ATOM     17  CA  ASN P   6      16.167   7.079  21.879  1.00 29.16 LIG 0.18  C 
BRANCH 17 18
ATOM     18  CB  ASN P   6      15.783   7.684  23.236  1.00 24.89 LIG 0.14  C 
BRANCH 18 19
ATOM     19  CG  ASN P   6      15.503   6.632  24.293  1.00 26.77 LIG 0.22  C 
ATOM     20 OD1  ASN P   6      16.366   5.897  24.807  1.00 24.78 LIG-0.27  OA
ATOM     21  ND2 ASN P   6      14.240   6.566  24.655  1.00 25.10 LIG-0.37  N 
ATOM     22 22HD ASN P   6      13.660   7.084  24.286  1.00 25.10 LIG 0.16  HD
ATOM     23 21HD ASN P   6      13.995   6.007  25.259  1.00 25.10 LIG 0.16  HD
ENDBRANCH 18 19
ENDBRANCH 17 18
BRANCH 17 24
ATOM     24  C   ASN P   6      17.639   7.156  21.781  1.00 33.65 LIG 0.24  C 
ATOM     25 O    ASN P   6      18.299   7.963  22.427  1.00 34.15 LIG-0.27  OA
ATOM     26  N   THR P   7      17.987   6.126  21.016  1.00 46.42 LIG-0.34  N 
ATOM     27 H    THR P   7      17.385   5.584  20.727  1.00 46.42 LIG 0.16  HD
BRANCH 26 28
ATOM     28  CA  THR P   7      19.304   5.723  20.548  1.00 55.98 LIG 0.21  C 
BRANCH 28 29
ATOM     29  CB  THR P   7      19.515   6.657  19.294  1.00 59.10 LIG 0.15  C 
ATOM     30  CG2 THR P   7      20.666   6.196  18.381  1.00 61.71 LIG 0.04  C 
BRANCH 29 31
ATOM     31 OG1  THR P   7      18.257   6.715  18.615  1.00 60.27 LIG-0.39  OA
ATOM     32 HG1  THR P   7      17.731   7.211  19.043  1.00 60.27 LIG 0.21  HD
ENDBRANCH 29 31
ENDBRANCH 28 29
BRANCH 28 33
ATOM     33  C   THR P   7      20.524   5.651  21.474  1.00 57.95 LIG 0.29  C 
ATOM     34  N   NH2 P   8      21.200   4.509  21.412  1.00 58.98 LIG-0.11  N 
ATOM     35 O    THR P   7      20.841   6.536  22.275  1.00 60.38 LIG-0.27  OA
ENDBRANCH 28 33
ENDBRANCH 26 28
ENDBRANCH 17 24
ENDBRANCH 14 17
ENDBRANCH 12 13
BRANCH 12 36
ATOM     36  CB  GLN P   5      14.649   3.125  21.764  1.00 11.38 LIG 0.04  C 
BRANCH 36 37
ATOM     37  CG  GLN P   5      15.494   2.450  20.686  1.00 11.43 LIG 0.10  C 
BRANCH 37 38
ATOM     38  CD  GLN P   5      16.842   3.105  20.427  1.00 11.64 LIG 0.21  C 
ATOM     39  NE2 GLN P   5      17.134   3.675  19.276  1.00  7.77 LIG-0.37  N 
ATOM     40 21HE GLN P   5      16.552   3.690  18.644  1.00  7.77 LIG 0.16  HD
ATOM     41 22HE GLN P   5      17.908   4.032  19.156  1.00  7.77 LIG 0.16  HD
ATOM     42 OE1  GLN P   5      17.688   3.097  21.309  1.00 11.36 LIG-0.27  OA
ENDBRANCH 37 38
ENDBRANCH 36 37
ENDBRANCH 12 36
ENDBRANCH 10 12
ENDBRANCH 4 8
BRANCH 1 43
ATOM     43  CA  HIS P   3      15.300   1.015  16.718  1.00 30.34 LIG 0.18  C 
BRANCH 43 44
ATOM     44  N   HIS P   3      15.927   1.875  15.739  1.00 35.71 LIG-0.35  N 
ATOM     45  C   CYS P   2      15.457   2.142  14.540  0.17 38.31 LIG 0.24  C 
ATOM     46 O    CYS P   2      14.484   1.547  14.064  0.17 38.29 LIG-0.27  OA
ATOM     47 H    HIS P   3      16.667   2.211  16.022  1.00 35.71 LIG 0.16  HD
BRANCH 45 48
ATOM     48  CA  CYS P   2      16.306   3.184  13.811  0.17 40.64 LIG 0.18  C 
BRANCH 48 49
ATOM     49  N   CYS P   2      16.680   2.882  12.422  0.17 43.25 LIG-0.34  N 
ATOM     50  C   PHE P   1      15.951   3.210  11.350  0.36 44.98 LIG 0.25  C 
ATOM     51 O    PHE P   1      14.807   3.650  11.441  0.36 46.44 LIG-0.27  OA
ATOM     52 H    CYS P   2      17.430   2.465  12.359  0.17 43.25 LIG 0.16  HD
BRANCH 50 53
ATOM     53  CA  PHE P   1      16.403   2.934   9.918  0.36 46.68 LIG 0.28  C 
BRANCH 53 54
ATOM     54  CB  PHE P   1      17.344   4.110   9.583  0.36 47.92 LIG 0.08  C 
BRANCH 54 55
ATOM     55  CG  PHE P   1      18.503   4.553  10.472  0.36 47.93 LIG-0.06  A 
ATOM     56  CD1 PHE P   1      18.557   5.799  11.107  0.36 48.98 LIG 0.01  A 
ATOM     57  CE1 PHE P   1      19.652   6.121  11.916  0.36 50.12 LIG 0.00  A 
ATOM     58  CZ  PHE P   1      20.693   5.210  12.096  0.36 48.72 LIG 0.00  A 
ATOM     59  CE2 PHE P   1      20.635   3.970  11.464  0.36 48.48 LIG 0.00  A 
ATOM     60  CD2 PHE P   1      19.545   3.640  10.656  0.36 48.25 LIG 0.01  A 
ENDBRANCH 54 55
ENDBRANCH 53 54
BRANCH 53 61
ATOM     61  N   PHE P   1      15.120   2.957   9.238  0.36 46.83 LIG-0.07  N 
ATOM     62 H3   PHE P   1      14.576   2.357   9.608  0.36 46.83 LIG 0.28  HD
ATOM     63 H1   PHE P   1      14.760   3.768   9.311  0.36 46.83 LIG 0.28  HD
ATOM     64 H2   PHE P   1      15.236   2.760   8.378  0.36 46.83 LIG 0.28  HD
ENDBRANCH 53 61
ENDBRANCH 50 53
ENDBRANCH 48 49
BRANCH 48 65
ATOM     65  CB  CYS P   2      15.574   4.511  14.003  0.17 41.02 LIG 0.10  C 
BRANCH 65 66
ATOM     66 SG   CYS P   2      16.907   5.731  13.943  0.17 41.68 LIG-0.18  SA
ATOM     67 HG   CYS P   2      16.579   6.649  13.242  0.17 41.68 LIG 0.10  HD
ENDBRANCH 65 66
ENDBRANCH 48 65
ENDBRANCH 45 48
ENDBRANCH 43 44
BRANCH 43 68
ATOM     68  CB  HIS P   3      16.158   0.361  17.848  1.00 25.21 LIG 0.10  C 
BRANCH 68 69
ATOM     69  CG  HIS P   3      16.086  -1.191  17.668  1.00 21.50 LIG 0.06  A 
ATOM     70 ND1  HIS P   3      15.400  -1.746  16.668  1.00 15.93 LIG-0.24  NA
ATOM     71  CE1 HIS P   3      15.756  -3.021  16.698  1.00 14.31 LIG 0.23  A 
ATOM     72 NE2  HIS P   3      16.629  -3.242  17.669  1.00 14.39 LIG-0.25  NA
ATOM     73  CD2 HIS P   3      16.872  -2.128  18.324  1.00 20.69 LIG 0.14  A 
ENDBRANCH 68 69
ENDBRANCH 43 68
ENDBRANCH 1 43
TORSDOF 26
ENDMDL
MODEL 30
USER: ADFR SOLUTION from run 62
USER: SCORE 20.194129 LL:  -5.181 LR: -16.662 RR:   0.000 FEB:  -8.906
USER: RMSD 9.652930
USER: SEED 61
USER: STATUS no improvement in best in 3 clusters for 5 generations
USER: GENES 28
USER: genes 0 Translation |==|  0.50328 0.61554 0.40550
USER: genes 1 Rotation |==|  0.44521 0.02355 0.36358 0.53716
USER: genes 2 Torsion [N]-CA--C-[O] |==|  0.96169
USER: genes 3 Torsion [C]-N--CA-[C] |==|  0.19037
USER: genes 4 Torsion [N]-CA--C-[N] |==|  0.99461
USER: genes 5 Torsion [C]-N--CA-[CB] |==|  0.91104
USER: genes 6 Torsion [N]-CA--CB-[CG] |==|  0.77684
USER: genes 7 Torsion [CA]-CB--CG-[ND2] |==|  0.30835
USER: genes 8 Torsion [N]-CA--C-[N] |==|  0.89661
USER: genes 9 Torsion [C]-N--CA-[CB] |==|  0.84985
USER: genes 10 Torsion [N]-CA--CB-[CG2] |==|  0.86534
USER: genes 11 Torsion [CA]-CB--OG1-[HG1] |==|  0.06146
USER: genes 12 Torsion [N]-CA--C-[N] |==|  0.39209
USER: genes 13 Torsion [N]-CA--CB-[CG] |==|  0.76129
USER: genes 14 Torsion [CA]-CB--CG-[CD] |==|  0.86725
USER: genes 15 Torsion [CB]-CG--CD-[OE1] |==|  0.06412
USER: genes 16 Torsion [N]-C--CA-[N] |==|  0.32916
USER: genes 17 Torsion [C]-CA--N-[C] |==|  0.65095
USER: genes 18 Torsion [N]-C--CA-[N] |==|  0.86750
USER: genes 19 Torsion [C]-CA--N-[C] |==|  0.83333
USER: genes 20 Torsion [N]-C--CA-[N] |==|  0.58955
USER: genes 21 Torsion [C]-CA--CB-[CG] |==|  0.58978
USER: genes 22 Torsion [CA]-CB--CG-[CD1] |==|  0.18018
USER: genes 23 Torsion [C]-CA--N-[H3] |==|  0.87874
USER: genes 24 Torsion [C]-CA--CB-[SG] |==|  0.41888
USER: genes 25 Torsion [CA]-CB--SG-[HG] |==|  0.89990
USER: genes 26 Torsion [C]-CA--CB-[CG] |==|  0.48010
USER: genes 27 Torsion [CA]-CB--CG-[ND1] |==|  0.37810
ROOT
ATOM      1  C   HIS P   3      17.244   3.912  14.918  1.00 29.14 LIG 0.24  C 
ATOM      2 O    HIS P   3      18.324   3.332  14.704  1.00 31.23 LIG-0.27  OA
ATOM      3  N   PRO P   4      17.212   5.144  15.455  1.00 24.67 LIG-0.34  N 
ATOM      4  CA  PRO P   4      18.405   5.830  15.894  1.00 22.95 LIG 0.18  C 
ATOM      5  CB  PRO P   4      17.923   7.194  16.365  1.00 20.99 LIG 0.04  C 
ATOM      6  CG  PRO P   4      16.484   7.325  15.919  1.00 22.70 LIG 0.02  C 
ATOM      7  CD  PRO P   4      15.991   5.933  15.754  1.00 21.81 LIG 0.13  C 
ENDROOT
BRANCH 4 8
ATOM      8  C   PRO P   4      19.241   5.155  16.972  1.00 19.64 LIG 0.24  C 
ATOM      9 O    PRO P   4      18.755   4.212  17.601  1.00 20.88 LIG-0.27  OA
ATOM     10  N   GLN P   5      20.504   5.572  17.162  1.00 22.98 LIG-0.35  N 
ATOM     11 H    GLN P   5      20.854   6.231  16.734  1.00 22.98 LIG 0.16  HD
BRANCH 10 12
ATOM     12  CA  GLN P   5      21.408   4.945  18.121  1.00 16.98 LIG 0.18  C 
BRANCH 12 13
ATOM     13  C   GLN P   5      21.837   3.540  17.751  1.00 21.89 LIG 0.24  C 
ATOM     14  N   ASN P   6      21.389   2.920  16.656  1.00 22.75 LIG-0.35  N 
ATOM     15 H    ASN P   6      20.831   3.232  16.081  1.00 22.75 LIG 0.16  HD
ATOM     16 O    GLN P   5      22.625   2.960  18.509  1.00 24.56 LIG-0.27  OA
BRANCH 14 17
ATOM     17  CA  ASN P   6      21.898   1.590  16.422  1.00 29.16 LIG 0.18  C 
BRANCH 17 18
ATOM     18  CB  ASN P   6      23.334   1.367  16.918  1.00 24.89 LIG 0.14  C 
BRANCH 18 19
ATOM     19  CG  ASN P   6      24.379   1.905  15.957  1.00 26.77 LIG 0.22  C 
ATOM     20 OD1  ASN P   6      24.612   1.438  14.828  1.00 24.78 LIG-0.27  OA
ATOM     21  ND2 ASN P   6      25.029   2.954  16.414  1.00 25.10 LIG-0.37  N 
ATOM     22 22HD ASN P   6      24.853   3.261  17.198  1.00 25.10 LIG 0.16  HD
ATOM     23 21HD ASN P   6      25.630   3.332  15.929  1.00 25.10 LIG 0.16  HD
ENDBRANCH 18 19
ENDBRANCH 17 18
BRANCH 17 24
ATOM     24  C   ASN P   6      21.058   0.575  17.090  1.00 33.65 LIG 0.24  C 
ATOM     25 O    ASN P   6      20.916  -0.559  16.642  1.00 34.15 LIG-0.27  OA
ATOM     26  N   THR P   7      20.691   1.134  18.239  1.00 46.42 LIG-0.34  N 
ATOM     27 H    THR P   7      20.977   1.919  18.443  1.00 46.42 LIG 0.16  HD
BRANCH 26 28
ATOM     28  CA  THR P   7      19.827   0.615  19.288  1.00 55.98 LIG 0.21  C 
BRANCH 28 29
ATOM     29  CB  THR P   7      18.517   0.244  18.490  1.00 59.10 LIG 0.15  C 
ATOM     30  CG2 THR P   7      18.036   1.371  17.557  1.00 61.71 LIG 0.04  C 
BRANCH 29 31
ATOM     31 OG1  THR P   7      18.798  -0.972  17.791  1.00 60.27 LIG-0.39  OA
ATOM     32 HG1  THR P   7      19.433  -1.372  18.169  1.00 60.27 LIG 0.21  HD
ENDBRANCH 29 31
ENDBRANCH 28 29
BRANCH 28 33
ATOM     33  C   THR P   7      20.280  -0.474  20.268  1.00 57.95 LIG 0.29  C 
ATOM     34  N   NH2 P   8      19.857  -0.304  21.516  1.00 58.98 LIG-0.11  N 
ATOM     35 O    THR P   7      21.032  -1.406  19.971  1.00 60.38 LIG-0.27  OA
ENDBRANCH 28 33
ENDBRANCH 26 28
ENDBRANCH 17 24
ENDBRANCH 14 17
ENDBRANCH 12 13
BRANCH 12 36
ATOM     36  CB  GLN P   5      20.759   4.948  19.492  1.00 11.38 LIG 0.04  C 
BRANCH 36 37
ATOM     37  CG  GLN P   5      21.014   6.250  20.249  1.00 11.43 LIG 0.10  C 
BRANCH 37 38
ATOM     38  CD  GLN P   5      22.462   6.715  20.251  1.00 11.64 LIG 0.21  C 
ATOM     39  NE2 GLN P   5      22.935   7.529  21.173  1.00  7.77 LIG-0.37  N 
ATOM     40 21HE GLN P   5      22.422   7.809  21.803  1.00  7.77 LIG 0.16  HD
ATOM     41 22HE GLN P   5      23.757   7.781  21.144  1.00  7.77 LIG 0.16  HD
ATOM     42 OE1  GLN P   5      23.213   6.332  19.366  1.00 11.36 LIG-0.27  OA
ENDBRANCH 37 38
ENDBRANCH 36 37
ENDBRANCH 12 36
ENDBRANCH 10 12
ENDBRANCH 4 8
BRANCH 1 43
ATOM     43  CA  HIS P   3      15.937   3.270  14.459  1.00 30.34 LIG 0.18  C 
BRANCH 43 44
ATOM     44  N   HIS P   3      16.303   3.150  13.065  1.00 35.71 LIG-0.35  N 
ATOM     45  C   CYS P   2      15.610   3.616  12.048  0.17 38.31 LIG 0.24  C 
ATOM     46 O    CYS P   2      14.473   4.082  12.180  0.17 38.29 LIG-0.27  OA
ATOM     47 H    HIS P   3      17.044   2.729  12.954  1.00 35.71 LIG 0.16  HD
BRANCH 45 48
ATOM     48  CA  CYS P   2      16.344   3.424  10.721  0.17 40.64 LIG 0.18  C 
BRANCH 48 49
ATOM     49  N   CYS P   2      17.758   3.825  10.680  0.17 43.25 LIG-0.34  N 
ATOM     50  C   PHE P   1      18.205   5.063  10.917  0.36 44.98 LIG 0.25  C 
ATOM     51 O    PHE P   1      17.449   6.026  11.027  0.36 46.44 LIG-0.27  OA
ATOM     52 H    CYS P   2      18.286   3.175  10.484  0.17 43.25 LIG 0.16  HD
BRANCH 50 53
ATOM     53  CA  PHE P   1      19.687   5.427  10.926  0.36 46.68 LIG 0.28  C 
BRANCH 53 54
ATOM     54  CB  PHE P   1      20.397   4.125  11.349  0.36 47.92 LIG 0.08  C 
BRANCH 54 55
ATOM     55  CG  PHE P   1      21.687   4.084  12.165  0.36 47.93 LIG-0.06  A 
ATOM     56  CD1 PHE P   1      21.783   4.541  13.484  0.36 48.98 LIG 0.01  A 
ATOM     57  CE1 PHE P   1      23.002   4.456  14.164  0.36 50.12 LIG 0.00  A 
ATOM     58  CZ  PHE P   1      24.127   3.920  13.536  0.36 48.72 LIG 0.00  A 
ATOM     59  CE2 PHE P   1      24.028   3.464  12.224  0.36 48.48 LIG 0.00  A 
ATOM     60  CD2 PHE P   1      22.814   3.544  11.539  0.36 48.25 LIG 0.01  A 
ENDBRANCH 54 55
ENDBRANCH 53 54
BRANCH 53 61
ATOM     61  N   PHE P   1      19.684   6.481  11.926  0.36 46.83 LIG-0.07  N 
ATOM     62 H3   PHE P   1      18.990   7.021  11.786  0.36 46.83 LIG 0.28  HD
ATOM     63 H1   PHE P   1      19.620   6.120  12.737  0.36 46.83 LIG 0.28  HD
ATOM     64 H2   PHE P   1      20.439   6.948  11.867  0.36 46.83 LIG 0.28  HD
ENDBRANCH 53 61
ENDBRANCH 50 53
ENDBRANCH 48 49
BRANCH 48 65
ATOM     65  CB  CYS P   2      16.078   1.976  10.315  0.17 41.02 LIG 0.10  C 
BRANCH 65 66
ATOM     66 SG   CYS P   2      16.142   2.034   8.508  0.17 41.68 LIG-0.18  SA
ATOM     67 HG   CYS P   2      15.673   3.071   8.124  0.17 41.68 LIG 0.10  HD
ENDBRANCH 65 66
ENDBRANCH 48 65
ENDBRANCH 45 48
ENDBRANCH 43 44
BRANCH 43 68
ATOM     68  CB  HIS P   3      15.715   1.987  15.323  1.00 25.21 LIG 0.10  C 
BRANCH 68 69
ATOM     69  CG  HIS P   3      14.295   1.425  14.991  1.00 21.50 LIG 0.06  A 
ATOM     70 ND1  HIS P   3      14.088   0.122  14.799  1.00 15.93 LIG-0.24  NA
ATOM     71  CE1 HIS P   3      12.769   0.001  14.780  1.00 14.31 LIG 0.23  A 
ATOM     72 NE2  HIS P   3      12.187   1.178  14.959  1.00 14.39 LIG-0.25  NA
ATOM     73  CD2 HIS P   3      13.096   2.118  15.090  1.00 20.69 LIG 0.14  A 
ENDBRANCH 68 69
ENDBRANCH 43 68
ENDBRANCH 1 43
TORSDOF 26
ENDMDL
MODEL 31
USER: ADFR SOLUTION from run 115
USER: SCORE 19.541069 LL:  -6.095 LR: -16.649 RR:   0.000 FEB:  -8.893
USER: RMSD 9.683198
USER: SEED 114
USER: STATUS 1 or 2 clusters left
USER: GENES 28
USER: genes 0 Translation |==|  0.47646 0.60145 0.42943
USER: genes 1 Rotation |==|  0.60974 0.97275 0.61512 0.53484
USER: genes 2 Torsion [N]-CA--C-[O] |==|  0.07985
USER: genes 3 Torsion [C]-N--CA-[C] |==|  0.73388
USER: genes 4 Torsion [N]-CA--C-[N] |==|  0.97343
USER: genes 5 Torsion [C]-N--CA-[CB] |==|  0.43647
USER: genes 6 Torsion [N]-CA--CB-[CG] |==|  0.44285
USER: genes 7 Torsion [CA]-CB--CG-[ND2] |==|  0.71256
USER: genes 8 Torsion [N]-CA--C-[N] |==|  0.85557
USER: genes 9 Torsion [C]-N--CA-[CB] |==|  0.67794
USER: genes 10 Torsion [N]-CA--CB-[CG2] |==|  0.70049
USER: genes 11 Torsion [CA]-CB--OG1-[HG1] |==|  0.81347
USER: genes 12 Torsion [N]-CA--C-[N] |==|  0.73002
USER: genes 13 Torsion [N]-CA--CB-[CG] |==|  0.22161
USER: genes 14 Torsion [CA]-CB--CG-[CD] |==|  0.42398
USER: genes 15 Torsion [CB]-CG--CD-[OE1] |==|  0.92264
USER: genes 16 Torsion [N]-C--CA-[N] |==|  0.25227
USER: genes 17 Torsion [C]-CA--N-[C] |==|  0.58371
USER: genes 18 Torsion [N]-C--CA-[N] |==|  0.84759
USER: genes 19 Torsion [C]-CA--N-[C] |==|  0.21035
USER: genes 20 Torsion [N]-C--CA-[N] |==|  0.11968
USER: genes 21 Torsion [C]-CA--CB-[CG] |==|  0.28067
USER: genes 22 Torsion [CA]-CB--CG-[CD1] |==|  0.47392
USER: genes 23 Torsion [C]-CA--N-[H3] |==|  0.55741
USER: genes 24 Torsion [C]-CA--CB-[SG] |==|  0.46613
USER: genes 25 Torsion [CA]-CB--SG-[HG] |==|  0.99659
USER: genes 26 Torsion [C]-CA--CB-[CG] |==|  0.43981
USER: genes 27 Torsion [CA]-CB--CG-[ND1] |==|  0.44479
ROOT
ATOM      1  C   HIS P   3      16.661   3.658  15.456  1.00 29.14 LIG 0.24  C 
ATOM      2 O    HIS P   3      17.546   2.787  15.539  1.00 31.23 LIG-0.27  OA
ATOM      3  N   PRO P   4      16.891   4.922  15.855  1.00 24.67 LIG-0.34  N 
ATOM      4  CA  PRO P   4      18.132   5.324  16.477  1.00 22.95 LIG 0.18  C 
ATOM      5  CB  PRO P   4      17.989   6.823  16.701  1.00 20.99 LIG 0.04  C 
ATOM      6  CG  PRO P   4      16.758   7.262  15.942  1.00 22.70 LIG 0.02  C 
ATOM      7  CD  PRO P   4      15.920   6.042  15.805  1.00 21.81 LIG 0.13  C 
ENDROOT
BRANCH 4 8
ATOM      8  C   PRO P   4      18.523   4.623  17.771  1.00 19.64 LIG 0.24  C 
ATOM      9 O    PRO P   4      18.141   3.466  17.961  1.00 20.88 LIG-0.27  OA
ATOM     10  N   GLN P   5      19.320   5.270  18.637  1.00 22.98 LIG-0.35  N 
ATOM     11 H    GLN P   5      19.590   6.078  18.519  1.00 22.98 LIG 0.16  HD
BRANCH 10 12
ATOM     12  CA  GLN P   5      19.808   4.660  19.869  1.00 16.98 LIG 0.18  C 
BRANCH 12 13
ATOM     13  C   GLN P   5      18.982   4.982  21.098  1.00 21.89 LIG 0.24  C 
ATOM     14  N   ASN P   6      18.015   5.903  21.088  1.00 22.75 LIG-0.35  N 
ATOM     15 H    ASN P   6      17.778   6.393  20.422  1.00 22.75 LIG 0.16  HD
ATOM     16 O    GLN P   5      19.236   4.365  22.141  1.00 24.56 LIG-0.27  OA
BRANCH 14 17
ATOM     17  CA  ASN P   6      17.300   6.091  22.328  1.00 29.16 LIG 0.18  C 
BRANCH 17 18
ATOM     18  CB  ASN P   6      16.622   7.462  22.464  1.00 24.89 LIG 0.14  C 
BRANCH 18 19
ATOM     19  CG  ASN P   6      15.504   7.466  23.491  1.00 26.77 LIG 0.22  C 
ATOM     20 OD1  ASN P   6      15.673   7.509  24.723  1.00 24.78 LIG-0.27  OA
ATOM     21  ND2 ASN P   6      14.299   7.442  22.963  1.00 25.10 LIG-0.37  N 
ATOM     22 22HD ASN P   6      14.205   7.413  22.109  1.00 25.10 LIG 0.16  HD
ATOM     23 21HD ASN P   6      13.607   7.457  23.472  1.00 25.10 LIG 0.16  HD
ENDBRANCH 18 19
ENDBRANCH 17 18
BRANCH 17 24
ATOM     24  C   ASN P   6      16.240   5.076  22.489  1.00 33.65 LIG 0.24  C 
ATOM     25 O    ASN P   6      16.063   4.471  23.542  1.00 34.15 LIG-0.27  OA
ATOM     26  N   THR P   7      15.538   5.130  21.361  1.00 46.42 LIG-0.34  N 
ATOM     27 H    THR P   7      15.746   5.704  20.755  1.00 46.42 LIG 0.16  HD
BRANCH 26 28
ATOM     28  CA  THR P   7      14.398   4.331  20.939  1.00 55.98 LIG 0.21  C 
BRANCH 28 29
ATOM     29  CB  THR P   7      14.969   3.567  19.683  1.00 59.10 LIG 0.15  C 
ATOM     30  CG2 THR P   7      14.397   4.082  18.349  1.00 61.71 LIG 0.04  C 
BRANCH 29 31
ATOM     31 OG1  THR P   7      16.393   3.676  19.754  1.00 60.27 LIG-0.39  OA
ATOM     32 HG1  THR P   7      16.619   4.477  19.640  1.00 60.27 LIG 0.21  HD
ENDBRANCH 29 31
ENDBRANCH 28 29
BRANCH 28 33
ATOM     33  C   THR P   7      13.618   3.431  21.905  1.00 57.95 LIG 0.29  C 
ATOM     34  N   NH2 P   8      13.979   2.153  21.883  1.00 58.98 LIG-0.11  N 
ATOM     35 O    THR P   7      12.680   3.816  22.610  1.00 60.38 LIG-0.27  OA
ENDBRANCH 28 33
ENDBRANCH 26 28
ENDBRANCH 17 24
ENDBRANCH 14 17
ENDBRANCH 12 13
BRANCH 12 36
ATOM     36  CB  GLN P   5      21.252   5.067  20.089  1.00 11.38 LIG 0.04  C 
BRANCH 36 37
ATOM     37  CG  GLN P   5      21.374   6.469  20.680  1.00 11.43 LIG 0.10  C 
BRANCH 37 38
ATOM     38  CD  GLN P   5      22.627   6.707  21.510  1.00 11.64 LIG 0.21  C 
ATOM     39  NE2 GLN P   5      23.173   7.900  21.628  1.00  7.77 LIG-0.37  N 
ATOM     40 21HE GLN P   5      22.818   8.576  21.234  1.00  7.77 LIG 0.16  HD
ATOM     41 22HE GLN P   5      23.885   8.002  22.100  1.00  7.77 LIG 0.16  HD
ATOM     42 OE1  GLN P   5      23.152   5.762  22.080  1.00 11.36 LIG-0.27  OA
ENDBRANCH 37 38
ENDBRANCH 36 37
ENDBRANCH 12 36
ENDBRANCH 10 12
ENDBRANCH 4 8
BRANCH 1 43
ATOM     43  CA  HIS P   3      15.330   3.325  14.786  1.00 30.34 LIG 0.18  C 
BRANCH 43 44
ATOM     44  N   HIS P   3      15.772   3.573  13.431  1.00 35.71 LIG-0.35  N 
ATOM     45  C   CYS P   2      15.013   3.997  12.443  0.17 38.31 LIG 0.24  C 
ATOM     46 O    CYS P   2      13.784   4.082  12.543  0.17 38.29 LIG-0.27  OA
ATOM     47 H    HIS P   3      16.610   3.411  13.323  1.00 35.71 LIG 0.16  HD
BRANCH 45 48
ATOM     48  CA  CYS P   2      15.824   4.271  11.177  0.17 40.64 LIG 0.18  C 
BRANCH 48 49
ATOM     49  N   CYS P   2      16.961   5.196  11.303  0.17 43.25 LIG-0.34  N 
ATOM     50  C   PHE P   1      18.134   4.887  11.865  0.36 44.98 LIG 0.25  C 
ATOM     51 O    PHE P   1      18.311   3.840  12.485  0.36 46.44 LIG-0.27  OA
ATOM     52 H    CYS P   2      16.798   5.974  10.974  0.17 43.25 LIG 0.16  HD
BRANCH 50 53
ATOM     53  CA  PHE P   1      19.312   5.855  11.922  0.36 46.68 LIG 0.28  C 
BRANCH 53 54
ATOM     54  CB  PHE P   1      20.233   5.270  13.012  0.36 47.92 LIG 0.08  C 
BRANCH 54 55
ATOM     55  CG  PHE P   1      21.492   4.458  12.716  0.36 47.93 LIG-0.06  A 
ATOM     56  CD1 PHE P   1      22.424   4.092  13.694  0.36 48.98 LIG 0.01  A 
ATOM     57  CE1 PHE P   1      23.546   3.335  13.339  0.36 50.12 LIG 0.00  A 
ATOM     58  CZ  PHE P   1      23.746   2.943  12.015  0.36 48.72 LIG 0.00  A 
ATOM     59  CE2 PHE P   1      22.815   3.307  11.044  0.36 48.48 LIG 0.00  A 
ATOM     60  CD2 PHE P   1      21.692   4.061  11.391  0.36 48.25 LIG 0.01  A 
ENDBRANCH 54 55
ENDBRANCH 53 54
BRANCH 53 61
ATOM     61  N   PHE P   1      18.619   7.077  12.291  0.36 46.83 LIG-0.07  N 
ATOM     62 H3   PHE P   1      19.120   7.781  12.074  0.36 46.83 LIG 0.28  HD
ATOM     63 H1   PHE P   1      17.843   7.121  11.856  0.36 46.83 LIG 0.28  HD
ATOM     64 H2   PHE P   1      18.468   7.080  13.168  0.36 46.83 LIG 0.28  HD
ENDBRANCH 53 61
ENDBRANCH 50 53
ENDBRANCH 48 49
BRANCH 48 65
ATOM     65  CB  CYS P   2      16.179   2.896  10.615  0.17 41.02 LIG 0.10  C 
BRANCH 65 66
ATOM     66 SG   CYS P   2      16.799   3.273   8.958  0.17 41.68 LIG-0.18  SA
ATOM     67 HG   CYS P   2      16.735   4.456   8.766  0.17 41.68 LIG 0.10  HD
ENDBRANCH 65 66
ENDBRANCH 48 65
ENDBRANCH 45 48
ENDBRANCH 43 44
BRANCH 43 68
ATOM     68  CB  HIS P   3      14.932   1.880  15.226  1.00 25.21 LIG 0.10  C 
BRANCH 68 69
ATOM     69  CG  HIS P   3      13.387   1.729  15.034  1.00 21.50 LIG 0.06  A 
ATOM     70 ND1  HIS P   3      12.809   0.531  14.947  1.00 15.93 LIG-0.24  NA
ATOM     71  CE1 HIS P   3      11.512   0.788  15.029  1.00 14.31 LIG 0.23  A 
ATOM     72 NE2  HIS P   3      11.300   2.088  15.168  1.00 14.39 LIG-0.25  NA
ATOM     73  CD2 HIS P   3      12.443   2.737  15.170  1.00 20.69 LIG 0.14  A 
ENDBRANCH 68 69
ENDBRANCH 43 68
ENDBRANCH 1 43
TORSDOF 26
ENDMDL
MODEL 32
USER: ADFR SOLUTION from run 59
USER: SCORE 22.417115 LL:  -6.974 LR: -16.640 RR:   0.000 FEB:  -8.884
USER: RMSD 10.453995
USER: SEED 58
USER: STATUS no improvement in best in 7 clusters for 5 generations
USER: GENES 28
USER: genes 0 Translation |==|  0.50689 0.65874 0.38533
USER: genes 1 Rotation |==|  0.46690 0.04330 0.32365 0.59607
USER: genes 2 Torsion [N]-CA--C-[O] |==|  0.15049
USER: genes 3 Torsion [C]-N--CA-[C] |==|  0.90961
USER: genes 4 Torsion [N]-CA--C-[N] |==|  0.31667
USER: genes 5 Torsion [C]-N--CA-[CB] |==|  0.15772
USER: genes 6 Torsion [N]-CA--CB-[CG] |==|  0.62848
USER: genes 7 Torsion [CA]-CB--CG-[ND2] |==|  0.14365
USER: genes 8 Torsion [N]-CA--C-[N] |==|  0.09811
USER: genes 9 Torsion [C]-N--CA-[CB] |==|  0.71118
USER: genes 10 Torsion [N]-CA--CB-[CG2] |==|  0.52594
USER: genes 11 Torsion [CA]-CB--OG1-[HG1] |==|  0.69266
USER: genes 12 Torsion [N]-CA--C-[N] |==|  0.31817
USER: genes 13 Torsion [N]-CA--CB-[CG] |==|  0.17245
USER: genes 14 Torsion [CA]-CB--CG-[CD] |==|  0.75767
USER: genes 15 Torsion [CB]-CG--CD-[OE1] |==|  0.03762
USER: genes 16 Torsion [N]-C--CA-[N] |==|  0.40046
USER: genes 17 Torsion [C]-CA--N-[C] |==|  0.61746
USER: genes 18 Torsion [N]-C--CA-[N] |==|  0.91236
USER: genes 19 Torsion [C]-CA--N-[C] |==|  0.85230
USER: genes 20 Torsion [N]-C--CA-[N] |==|  0.59264
USER: genes 21 Torsion [C]-CA--CB-[CG] |==|  0.61514
USER: genes 22 Torsion [CA]-CB--CG-[CD1] |==|  0.67329
USER: genes 23 Torsion [C]-CA--N-[H3] |==|  0.58298
USER: genes 24 Torsion [C]-CA--CB-[SG] |==|  0.38221
USER: genes 25 Torsion [CA]-CB--SG-[HG] |==|  0.86555
USER: genes 26 Torsion [C]-CA--CB-[CG] |==|  0.31105
USER: genes 27 Torsion [CA]-CB--CG-[ND1] |==|  0.67858
ROOT
ATOM      1  C   HIS P   3      17.323   4.689  14.464  1.00 29.14 LIG 0.24  C 
ATOM      2 O    HIS P   3      18.393   4.323  13.946  1.00 31.23 LIG-0.27  OA
ATOM      3  N   PRO P   4      17.269   5.778  15.252  1.00 24.67 LIG-0.34  N 
ATOM      4  CA  PRO P   4      18.447   6.533  15.613  1.00 22.95 LIG 0.18  C 
ATOM      5  CB  PRO P   4      17.927   7.697  16.444  1.00 20.99 LIG 0.04  C 
ATOM      6  CG  PRO P   4      16.422   7.702  16.294  1.00 22.70 LIG 0.02  C 
ATOM      7  CD  PRO P   4      16.056   6.310  15.921  1.00 21.81 LIG 0.13  C 
ENDROOT
BRANCH 4 8
ATOM      8  C   PRO P   4      19.548   5.791  16.359  1.00 19.64 LIG 0.24  C 
ATOM      9 O    PRO P   4      20.007   4.756  15.870  1.00 20.88 LIG-0.27  OA
ATOM     10  N   GLN P   5      20.023   6.322  17.497  1.00 22.98 LIG-0.35  N 
ATOM     11 H    GLN P   5      19.710   7.040  17.851  1.00 22.98 LIG 0.16  HD
BRANCH 10 12
ATOM     12  CA  GLN P   5      21.124   5.726  18.248  1.00 16.98 LIG 0.18  C 
BRANCH 12 13
ATOM     13  C   GLN P   5      21.187   4.214  18.174  1.00 21.89 LIG 0.24  C 
ATOM     14  N   ASN P   6      22.192   3.569  17.576  1.00 22.75 LIG-0.35  N 
ATOM     15 H    ASN P   6      22.869   3.924  17.181  1.00 22.75 LIG 0.16  HD
ATOM     16 O    GLN P   5      20.258   3.573  18.683  1.00 24.56 LIG-0.27  OA
BRANCH 14 17
ATOM     17  CA  ASN P   6      22.126   2.127  17.597  1.00 29.16 LIG 0.18  C 
BRANCH 17 18
ATOM     18  CB  ASN P   6      20.845   1.543  16.986  1.00 24.89 LIG 0.14  C 
BRANCH 18 19
ATOM     19  CG  ASN P   6      20.222   0.459  17.847  1.00 26.77 LIG 0.22  C 
ATOM     20 OD1  ASN P   6      19.920  -0.679  17.445  1.00 24.78 LIG-0.27  OA
ATOM     21  ND2 ASN P   6      20.039   0.817  19.099  1.00 25.10 LIG-0.37  N 
ATOM     22 22HD ASN P   6      20.255   1.608  19.357  1.00 25.10 LIG 0.16  HD
ATOM     23 21HD ASN P   6      19.704   0.259  19.661  1.00 25.10 LIG 0.16  HD
ENDBRANCH 18 19
ENDBRANCH 17 18
BRANCH 17 24
ATOM     24  C   ASN P   6      23.258   1.533  16.856  1.00 33.65 LIG 0.24  C 
ATOM     25 O    ASN P   6      23.121   0.570  16.109  1.00 34.15 LIG-0.27  OA
ATOM     26  N   THR P   7      24.284   2.346  17.087  1.00 46.42 LIG-0.34  N 
ATOM     27 H    THR P   7      24.172   3.053  17.563  1.00 46.42 LIG 0.16  HD
BRANCH 26 28
ATOM     28  CA  THR P   7      25.667   2.242  16.645  1.00 55.98 LIG 0.21  C 
BRANCH 28 29
ATOM     29  CB  THR P   7      26.402   1.759  17.954  1.00 59.10 LIG 0.15  C 
ATOM     30  CG2 THR P   7      27.937   1.783  17.831  1.00 61.71 LIG 0.04  C 
BRANCH 29 31
ATOM     31 OG1  THR P   7      25.918   2.582  19.019  1.00 60.27 LIG-0.39  OA
ATOM     32 HG1  THR P   7      26.533   3.092  19.280  1.00 60.27 LIG 0.21  HD
ENDBRANCH 29 31
ENDBRANCH 28 29
BRANCH 28 33
ATOM     33  C   THR P   7      26.075   1.466  15.387  1.00 57.95 LIG 0.29  C 
ATOM     34  N   NH2 P   8      26.578   2.216  14.414  1.00 58.98 LIG-0.11  N 
ATOM     35 O    THR P   7      25.901   0.253  15.232  1.00 60.38 LIG-0.27  OA
ENDBRANCH 28 33
ENDBRANCH 26 28
ENDBRANCH 17 24
ENDBRANCH 14 17
ENDBRANCH 12 13
BRANCH 12 36
ATOM     36  CB  GLN P   5      21.040   6.175  19.694  1.00 11.38 LIG 0.04  C 
BRANCH 36 37
ATOM     37  CG  GLN P   5      19.752   5.713  20.370  1.00 11.43 LIG 0.10  C 
BRANCH 37 38
ATOM     38  CD  GLN P   5      18.568   6.653  20.200  1.00 11.64 LIG 0.21  C 
ATOM     39  NE2 GLN P   5      17.470   6.533  20.918  1.00  7.77 LIG-0.37  N 
ATOM     40 21HE GLN P   5      17.409   5.912  21.510  1.00  7.77 LIG 0.16  HD
ATOM     41 22HE GLN P   5      16.814   7.075  20.794  1.00  7.77 LIG 0.16  HD
ATOM     42 OE1  GLN P   5      18.629   7.543  19.364  1.00 11.36 LIG-0.27  OA
ENDBRANCH 37 38
ENDBRANCH 36 37
ENDBRANCH 12 36
ENDBRANCH 10 12
ENDBRANCH 4 8
BRANCH 1 43
ATOM     43  CA  HIS P   3      16.025   3.965  14.112  1.00 30.34 LIG 0.18  C 
BRANCH 43 44
ATOM     44  N   HIS P   3      16.407   3.607  12.764  1.00 35.71 LIG-0.35  N 
ATOM     45  C   CYS P   2      15.632   3.678  11.703  0.17 38.31 LIG 0.24  C 
ATOM     46 O    CYS P   2      14.423   3.921  11.783  0.17 38.29 LIG-0.27  OA
ATOM     47 H    HIS P   3      17.220   3.330  12.715  1.00 35.71 LIG 0.16  HD
BRANCH 45 48
ATOM     48  CA  CYS P   2      16.389   3.340  10.419  0.17 40.64 LIG 0.18  C 
BRANCH 48 49
ATOM     49  N   CYS P   2      17.817   3.691  10.378  0.17 43.25 LIG-0.34  N 
ATOM     50  C   PHE P   1      18.309   4.906  10.640  0.36 44.98 LIG 0.25  C 
ATOM     51 O    PHE P   1      17.589   5.893  10.776  0.36 46.44 LIG-0.27  OA
ATOM     52 H    CYS P   2      18.319   3.026  10.164  0.17 43.25 LIG 0.16  HD
BRANCH 50 53
ATOM     53  CA  PHE P   1      19.803   5.216  10.647  0.36 46.68 LIG 0.28  C 
BRANCH 53 54
ATOM     54  CB  PHE P   1      20.470   3.873  11.008  0.36 47.92 LIG 0.08  C 
BRANCH 54 55
ATOM     55  CG  PHE P   1      21.648   3.739  11.970  0.36 47.93 LIG-0.06  A 
ATOM     56  CD1 PHE P   1      22.903   3.249  11.592  0.36 48.98 LIG 0.01  A 
ATOM     57  CE1 PHE P   1      23.933   3.170  12.536  0.36 50.12 LIG 0.00  A 
ATOM     58  CZ  PHE P   1      23.719   3.575  13.854  0.36 48.72 LIG 0.00  A 
ATOM     59  CE2 PHE P   1      22.469   4.063  14.227  0.36 48.48 LIG 0.00  A 
ATOM     60  CD2 PHE P   1      21.437   4.146  13.290  0.36 48.25 LIG 0.01  A 
ENDBRANCH 54 55
ENDBRANCH 53 54
BRANCH 53 61
ATOM     61  N   PHE P   1      19.848   6.227  11.689  0.36 46.83 LIG-0.07  N 
ATOM     62 H3   PHE P   1      20.516   6.793  11.527  0.36 46.83 LIG 0.28  HD
ATOM     63 H1   PHE P   1      19.078   6.674  11.702  0.36 46.83 LIG 0.28  HD
ATOM     64 H2   PHE P   1      19.976   5.835  12.478  0.36 46.83 LIG 0.28  HD
ENDBRANCH 53 61
ENDBRANCH 50 53
ENDBRANCH 48 49
BRANCH 48 65
ATOM     65  CB  CYS P   2      16.084   1.869  10.141  0.17 41.02 LIG 0.10  C 
BRANCH 65 66
ATOM     66 SG   CYS P   2      15.794   1.837   8.356  0.17 41.68 LIG-0.18  SA
ATOM     67 HG   CYS P   2      15.033   2.715   8.058  0.17 41.68 LIG 0.10  HD
ENDBRANCH 65 66
ENDBRANCH 48 65
ENDBRANCH 45 48
ENDBRANCH 43 44
BRANCH 43 68
ATOM     68  CB  HIS P   3      15.804   2.852  15.185  1.00 25.21 LIG 0.10  C 
BRANCH 68 69
ATOM     69  CG  HIS P   3      14.555   3.249  16.038  1.00 21.50 LIG 0.06  A 
ATOM     70 ND1  HIS P   3      14.658   3.523  17.339  1.00 15.93 LIG-0.24  NA
ATOM     71  CE1 HIS P   3      13.479   4.035  17.658  1.00 14.31 LIG 0.23  A 
ATOM     72 NE2  HIS P   3      12.686   4.082  16.599  1.00 14.39 LIG-0.25  NA
ATOM     73  CD2 HIS P   3      13.303   3.593  15.547  1.00 20.69 LIG 0.14  A 
ENDBRANCH 68 69
ENDBRANCH 43 68
ENDBRANCH 1 43
TORSDOF 26
ENDMDL
