MODEL 1
USER: ADFR SOLUTION from run 76
USER: SCORE 11.804942 LL:  -1.766 LR: -11.404 RR:   0.000 FEB:  -8.122
USER: RMSD 7.188248
USER: SEED 75
USER: STATUS no improvement in best in 9 clusters for 5 generations
USER: GENES 13
USER: genes 0 Translation |==|  0.56088 0.41062 0.51697
USER: genes 1 Rotation |==|  0.02240 0.61771 0.52096 0.58718
USER: genes 2 Torsion [C]-N--CA-[CB] |==|  0.48985
USER: genes 3 Torsion [N]-CA--C-[N] |==|  0.42097
USER: genes 4 Torsion [C]-N--CA-[C] |==|  0.32246
USER: genes 5 Torsion [N]-CA--C-[O] |==|  0.93890
USER: genes 6 Torsion [N]-CA--CB-[CG] |==|  0.33734
USER: genes 7 Torsion [CA]-CB--CG-[CD1] |==|  0.61427
USER: genes 8 Torsion [N]-C--CA-[N] |==|  0.61667
USER: genes 9 Torsion [C]-CA--CB-[CG] |==|  0.29338
USER: genes 10 Torsion [CA]-CB--CG-[CD1] |==|  0.55629
USER: genes 11 Torsion [C]-CA--N-[C] |==|  0.60638
USER: genes 12 Torsion [N]-C--CA-[N] |==|  0.79144
ROOT
ATOM      1  C   LEU C 675      27.128   1.966  21.018  1.00 14.56 LIG 0.24  C 
ATOM      2 O    LEU C 675      27.535   1.808  19.851  0.66 14.97 LIG-0.27  OA
ATOM      3  N   ALA C 676      26.153   2.831  21.300  0.83 13.84 LIG-0.35  N 
ATOM      4 H    ALA C 676      25.863   2.951  22.100  0.83 13.84 LIG 0.16  HD
ENDROOT
BRANCH 3 5
ATOM      5  CA  ALA C 676      25.464   3.672  20.310  1.00 13.04 LIG 0.17  C 
ATOM      6  CB  ALA C 676      24.355   4.466  20.966  0.89 13.68 LIG 0.04  C 
BRANCH 5 7
ATOM      7  C   ALA C 676      26.443   4.495  19.505  0.69 12.60 LIG 0.24  C 
ATOM      8 O    ALA C 676      27.575   4.804  19.933  0.52 12.22 LIG-0.27  OA
ATOM      9  N   LEU C 677      26.033   4.801  18.268  0.89 12.12 LIG-0.34  N 
ATOM     10 H    LEU C 677      25.258   4.589  17.962  0.89 12.12 LIG 0.16  HD
BRANCH 9 11
ATOM     11  CA  LEU C 677      26.860   5.524  17.320  0.93 11.78 LIG 0.18  C 
BRANCH 11 12
ATOM     12  C   LEU C 677      27.293   4.874  16.075  0.42 11.73 LIG 0.20  C 
ATOM     13 O    LEU C 677      27.334   3.604  15.958  0.84 11.50 LIG-0.65  OA
ATOM     14 OXT  LEU C 677      27.669   5.573  15.090  0.55 11.71 LIG-0.65  OA
ENDBRANCH 11 12
BRANCH 11 15
ATOM     15  CB  LEU C 677      27.614   6.624  18.014  1.00 11.60 LIG 0.04  C 
BRANCH 15 16
ATOM     16  CG  LEU C 677      29.108   6.749  18.035  0.82 11.89 LIG-0.02  C 
ATOM     17  CD2 LEU C 677      29.824   5.430  17.709  0.78 11.63 LIG 0.01  C 
ATOM     18  CD1 LEU C 677      29.570   7.179  19.455  1.00 11.42 LIG 0.01  C 
ENDBRANCH 15 16
ENDBRANCH 11 15
ENDBRANCH 9 11
ENDBRANCH 5 7
ENDBRANCH 3 5
BRANCH 1 19
ATOM     19  CA  LEU C 675      27.689   1.238  22.214  0.78 15.17 LIG 0.18  C 
BRANCH 19 20
ATOM     20  CB  LEU C 675      27.350   1.852  23.591  0.53 15.14 LIG 0.04  C 
BRANCH 20 21
ATOM     21  CG  LEU C 675      26.358   1.269  24.529  0.32 15.05 LIG-0.02  C 
ATOM     22  CD1 LEU C 675      25.822   2.249  25.575  0.18 15.17 LIG 0.01  C 
ATOM     23  CD2 LEU C 675      25.159   0.781  23.674  0.37 15.02 LIG 0.01  C 
ENDBRANCH 20 21
ENDBRANCH 19 20
BRANCH 19 24
ATOM     24  N   LEU C 675      29.130   1.112  22.201  0.88 15.36 LIG-0.35  N 
ATOM     25 H    LEU C 675      29.506   1.823  21.894  0.88 15.36 LIG 0.16  HD
ATOM     26  C   ALA C 674      29.859   0.074  22.592  0.61 16.05 LIG 0.26  C 
ATOM     27 O    ALA C 674      29.345  -0.991  22.950  0.70 15.91 LIG-0.27  OA
BRANCH 26 28
ATOM     28  CA  ALA C 674      31.349   0.326  22.513  0.67 16.10 LIG 0.40  C 
ATOM     29  CB  ALA C 674      31.825   1.484  23.326  0.67 16.22 LIG 0.06  C 
ATOM     30  N   ALA C 674      31.898   0.298  21.160  0.74 16.71 LIG 0.61  N 
ENDBRANCH 26 28
ENDBRANCH 19 24
ENDBRANCH 1 19
TORSDOF 11
ENDMDL
MODEL 2
USER: ADFR SOLUTION from run 200
USER: SCORE 12.871292 LL:  -2.022 LR: -11.217 RR:   0.000 FEB:  -7.935
USER: RMSD 3.561945
USER: SEED 199
USER: STATUS no improvement in best in 6 clusters for 5 generations
USER: GENES 13
USER: genes 0 Translation |==|  0.49908 0.52799 0.44705
USER: genes 1 Rotation |==|  0.55425 0.53146 0.45504 0.99401
USER: genes 2 Torsion [C]-N--CA-[CB] |==|  0.50570
USER: genes 3 Torsion [N]-CA--C-[N] |==|  0.42951
USER: genes 4 Torsion [C]-N--CA-[C] |==|  0.73623
USER: genes 5 Torsion [N]-CA--C-[O] |==|  0.61458
USER: genes 6 Torsion [N]-CA--CB-[CG] |==|  0.63364
USER: genes 7 Torsion [CA]-CB--CG-[CD1] |==|  0.07032
USER: genes 8 Torsion [N]-C--CA-[N] |==|  0.90231
USER: genes 9 Torsion [C]-CA--CB-[CG] |==|  0.25978
USER: genes 10 Torsion [CA]-CB--CG-[CD1] |==|  0.84685
USER: genes 11 Torsion [C]-CA--N-[C] |==|  0.81667
USER: genes 12 Torsion [N]-C--CA-[N] |==|  0.31068
ROOT
ATOM      1  C   LEU C 675      26.155   3.815  19.707  1.00 14.56 LIG 0.24  C 
ATOM      2 O    LEU C 675      26.926   3.775  20.685  0.66 14.97 LIG-0.27  OA
ATOM      3  N   ALA C 676      24.837   3.679  19.859  0.83 13.84 LIG-0.35  N 
ATOM      4 H    ALA C 676      24.294   3.704  19.194  0.83 13.84 LIG 0.16  HD
ENDROOT
BRANCH 3 5
ATOM      5  CA  ALA C 676      24.156   3.473  21.146  1.00 13.04 LIG 0.17  C 
ATOM      6  CB  ALA C 676      22.666   3.310  20.939  0.89 13.68 LIG 0.04  C 
BRANCH 5 7
ATOM      7  C   ALA C 676      24.810   2.371  21.948  0.69 12.60 LIG 0.24  C 
ATOM      8 O    ALA C 676      25.519   1.487  21.425  0.52 12.22 LIG-0.27  OA
ATOM      9  N   LEU C 677      24.634   2.464  23.272  0.89 12.12 LIG-0.34  N 
ATOM     10 H    LEU C 677      24.152   3.072  23.644  0.89 12.12 LIG 0.16  HD
BRANCH 9 11
ATOM     11  CA  LEU C 677      25.241   1.542  24.214  0.93 11.78 LIG 0.18  C 
BRANCH 11 12
ATOM     12  C   LEU C 677      24.488   0.374  24.693  0.42 11.73 LIG 0.20  C 
ATOM     13 O    LEU C 677      24.526   0.004  25.913  0.84 11.50 LIG-0.65  OA
ATOM     14 OXT  LEU C 677      23.802  -0.315  23.884  0.55 11.71 LIG-0.65  OA
ENDBRANCH 11 12
BRANCH 11 15
ATOM     15  CB  LEU C 677      26.334   2.227  24.987  1.00 11.60 LIG 0.04  C 
BRANCH 15 16
ATOM     16  CG  LEU C 677      27.707   1.665  25.197  0.82 11.89 LIG-0.02  C 
ATOM     17  CD2 LEU C 677      28.801   2.742  25.200  0.78 11.63 LIG 0.01  C 
ATOM     18  CD1 LEU C 677      28.044   0.677  24.046  1.00 11.42 LIG 0.01  C 
ENDBRANCH 15 16
ENDBRANCH 11 15
ENDBRANCH 9 11
ENDBRANCH 5 7
ENDBRANCH 3 5
BRANCH 1 19
ATOM     19  CA  LEU C 675      26.609   3.993  18.280  0.78 15.17 LIG 0.18  C 
BRANCH 19 20
ATOM     20  CB  LEU C 675      26.610   5.446  17.754  0.53 15.14 LIG 0.04  C 
BRANCH 20 21
ATOM     21  CG  LEU C 675      27.799   6.334  17.796  0.32 15.05 LIG-0.02  C 
ATOM     22  CD1 LEU C 675      28.415   6.505  19.185  0.18 15.17 LIG 0.01  C 
ATOM     23  CD2 LEU C 675      28.871   5.698  16.873  0.37 15.02 LIG 0.01  C 
ENDBRANCH 20 21
ENDBRANCH 19 20
BRANCH 19 24
ATOM     24  N   LEU C 675      25.830   3.244  17.318  0.88 15.36 LIG-0.35  N 
ATOM     25 H    LEU C 675      25.390   3.765  16.794  0.88 15.36 LIG 0.16  HD
ATOM     26  C   ALA C 674      25.745   1.925  17.192  0.61 16.05 LIG 0.26  C 
ATOM     27 O    ALA C 674      26.292   1.153  17.987  0.70 15.91 LIG-0.27  OA
BRANCH 26 28
ATOM     28  CA  ALA C 674      24.895   1.491  16.018  0.67 16.10 LIG 0.40  C 
ATOM     29  CB  ALA C 674      23.644   0.768  16.393  0.67 16.22 LIG 0.06  C 
ATOM     30  N   ALA C 674      25.638   0.848  14.937  0.74 16.71 LIG 0.61  N 
ENDBRANCH 26 28
ENDBRANCH 19 24
ENDBRANCH 1 19
TORSDOF 11
ENDMDL
MODEL 3
USER: ADFR SOLUTION from run 155
USER: SCORE 12.241794 LL:  -1.795 LR: -10.976 RR:   0.000 FEB:  -7.694
USER: RMSD 1.796365
USER: SEED 154
USER: STATUS no improvement in best in 3 clusters for 5 generations
USER: GENES 13
USER: genes 0 Translation |==|  0.48316 0.53590 0.46285
USER: genes 1 Rotation |==|  0.60039 0.50354 0.47361 0.98909
USER: genes 2 Torsion [C]-N--CA-[CB] |==|  0.52893
USER: genes 3 Torsion [N]-CA--C-[N] |==|  0.36285
USER: genes 4 Torsion [C]-N--CA-[C] |==|  0.75288
USER: genes 5 Torsion [N]-CA--C-[O] |==|  0.09790
USER: genes 6 Torsion [N]-CA--CB-[CG] |==|  0.60682
USER: genes 7 Torsion [CA]-CB--CG-[CD1] |==|  0.09777
USER: genes 8 Torsion [N]-C--CA-[N] |==|  0.46089
USER: genes 9 Torsion [C]-CA--CB-[CG] |==|  0.53634
USER: genes 10 Torsion [CA]-CB--CG-[CD1] |==|  0.91285
USER: genes 11 Torsion [C]-CA--N-[C] |==|  0.74502
USER: genes 12 Torsion [N]-C--CA-[N] |==|  0.16445
ROOT
ATOM      1  C   LEU C 675      25.904   3.939  20.003  1.00 14.56 LIG 0.24  C 
ATOM      2 O    LEU C 675      26.544   3.751  21.056  0.66 14.97 LIG-0.27  OA
ATOM      3  N   ALA C 676      24.588   3.731  19.947  0.83 13.84 LIG-0.35  N 
ATOM      4 H    ALA C 676      24.134   3.857  19.228  0.83 13.84 LIG 0.16  HD
ENDROOT
BRANCH 3 5
ATOM      5  CA  ALA C 676      23.761   3.272  21.072  1.00 13.04 LIG 0.17  C 
ATOM      6  CB  ALA C 676      22.373   2.900  20.596  0.89 13.68 LIG 0.04  C 
BRANCH 5 7
ATOM      7  C   ALA C 676      24.464   2.201  21.876  0.69 12.60 LIG 0.24  C 
ATOM      8 O    ALA C 676      25.052   1.238  21.343  0.52 12.22 LIG-0.27  OA
ATOM      9  N   LEU C 677      24.473   2.410  23.198  0.89 12.12 LIG-0.34  N 
ATOM     10 H    LEU C 677      24.076   3.073  23.575  0.89 12.12 LIG 0.16  HD
BRANCH 9 11
ATOM     11  CA  LEU C 677      25.159   1.532  24.128  0.93 11.78 LIG 0.18  C 
BRANCH 11 12
ATOM     12  C   LEU C 677      24.458   0.374  24.701  0.42 11.73 LIG 0.20  C 
ATOM     13 O    LEU C 677      23.604  -0.295  24.029  0.84 11.50 LIG-0.65  OA
ATOM     14 OXT  LEU C 677      24.669   0.033  25.901  0.55 11.71 LIG-0.65  OA
ENDBRANCH 11 12
BRANCH 11 15
ATOM     15  CB  LEU C 677      26.291   2.260  24.798  1.00 11.60 LIG 0.04  C 
BRANCH 15 16
ATOM     16  CG  LEU C 677      27.622   1.650  25.118  0.82 11.89 LIG-0.02  C 
ATOM     17  CD2 LEU C 677      28.752   2.687  25.200  0.78 11.63 LIG 0.01  C 
ATOM     18  CD1 LEU C 677      28.011   0.642  24.001  1.00 11.42 LIG 0.01  C 
ENDBRANCH 15 16
ENDBRANCH 11 15
ENDBRANCH 9 11
ENDBRANCH 5 7
ENDBRANCH 3 5
BRANCH 1 19
ATOM     19  CA  LEU C 675      26.527   4.389  18.705  0.78 15.17 LIG 0.18  C 
BRANCH 19 20
ATOM     20  CB  LEU C 675      26.634   3.309  17.605  0.53 15.14 LIG 0.04  C 
BRANCH 20 21
ATOM     21  CG  LEU C 675      27.456   3.465  16.378  0.32 15.05 LIG-0.02  C 
ATOM     22  CD1 LEU C 675      27.577   4.904  15.875  0.18 15.17 LIG 0.01  C 
ATOM     23  CD2 LEU C 675      28.881   2.957  16.720  0.37 15.02 LIG 0.01  C 
ENDBRANCH 20 21
ENDBRANCH 19 20
BRANCH 19 24
ATOM     24  N   LEU C 675      27.867   4.916  18.850  0.88 15.36 LIG-0.35  N 
ATOM     25 H    LEU C 675      28.458   4.293  18.796  0.88 15.36 LIG 0.16  HD
ATOM     26  C   ALA C 674      28.227   6.178  19.043  0.61 16.05 LIG 0.26  C 
ATOM     27 O    ALA C 674      27.398   7.079  19.215  0.70 15.91 LIG-0.27  OA
BRANCH 26 28
ATOM     28  CA  ALA C 674      29.727   6.375  19.065  0.67 16.10 LIG 0.40  C 
ATOM     29  CB  ALA C 674      30.169   7.707  19.575  0.67 16.22 LIG 0.06  C 
ATOM     30  N   ALA C 674      30.411   5.962  17.842  0.74 16.71 LIG 0.61  N 
ENDBRANCH 26 28
ENDBRANCH 19 24
ENDBRANCH 1 19
TORSDOF 11
ENDMDL
MODEL 4
USER: ADFR SOLUTION from run 48
USER: SCORE 11.464158 LL:  -1.579 LR: -10.530 RR:   0.000 FEB:  -7.249
USER: RMSD 7.377688
USER: SEED 47
USER: STATUS no improvement in best in 7 clusters for 5 generations
USER: GENES 13
USER: genes 0 Translation |==|  0.51189 0.40715 0.55695
USER: genes 1 Rotation |==|  0.22507 0.27990 0.31969 0.80570
USER: genes 2 Torsion [C]-N--CA-[CB] |==|  0.81067
USER: genes 3 Torsion [N]-CA--C-[N] |==|  0.40887
USER: genes 4 Torsion [C]-N--CA-[C] |==|  0.31270
USER: genes 5 Torsion [N]-CA--C-[O] |==|  0.40805
USER: genes 6 Torsion [N]-CA--CB-[CG] |==|  0.41926
USER: genes 7 Torsion [CA]-CB--CG-[CD1] |==|  0.55085
USER: genes 8 Torsion [N]-C--CA-[N] |==|  0.21235
USER: genes 9 Torsion [C]-CA--CB-[CG] |==|  0.04947
USER: genes 10 Torsion [CA]-CB--CG-[CD1] |==|  0.32145
USER: genes 11 Torsion [C]-CA--N-[C] |==|  0.56111
USER: genes 12 Torsion [N]-C--CA-[N] |==|  0.50005
ROOT
ATOM      1  C   LEU C 675      26.356   1.912  21.768  1.00 14.56 LIG 0.24  C 
ATOM      2 O    LEU C 675      26.712   3.006  22.245  0.66 14.97 LIG-0.27  OA
ATOM      3  N   ALA C 676      25.572   1.848  20.692  0.83 13.84 LIG-0.35  N 
ATOM      4 H    ALA C 676      25.319   1.100  20.352  0.83 13.84 LIG 0.16  HD
ENDROOT
BRANCH 3 5
ATOM      5  CA  ALA C 676      25.051   3.013  19.962  1.00 13.04 LIG 0.17  C 
ATOM      6  CB  ALA C 676      24.046   3.765  20.808  0.89 13.68 LIG 0.04  C 
BRANCH 5 7
ATOM      7  C   ALA C 676      26.169   3.861  19.401  0.69 12.60 LIG 0.24  C 
ATOM      8 O    ALA C 676      27.294   3.932  19.938  0.52 12.22 LIG-0.27  OA
ATOM      9  N   LEU C 677      25.885   4.466  18.241  0.89 12.12 LIG-0.34  N 
ATOM     10 H    LEU C 677      25.116   4.419  17.859  0.89 12.12 LIG 0.16  HD
BRANCH 9 11
ATOM     11  CA  LEU C 677      26.852   5.264  17.511  0.93 11.78 LIG 0.18  C 
BRANCH 11 12
ATOM     12  C   LEU C 677      27.359   4.801  16.211  0.42 11.73 LIG 0.20  C 
ATOM     13 O    LEU C 677      27.668   5.618  15.281  0.84 11.50 LIG-0.65  OA
ATOM     14 OXT  LEU C 677      27.471   3.564  15.976  0.55 11.71 LIG-0.65  OA
ENDBRANCH 11 12
BRANCH 11 15
ATOM     15  CB  LEU C 677      27.612   6.157  18.453  1.00 11.60 LIG 0.04  C 
BRANCH 15 16
ATOM     16  CG  LEU C 677      29.017   6.628  18.231  0.82 11.89 LIG-0.02  C 
ATOM     17  CD2 LEU C 677      29.943   5.521  17.707  0.78 11.63 LIG 0.01  C 
ATOM     18  CD1 LEU C 677      29.615   7.124  19.576  1.00 11.42 LIG 0.01  C 
ENDBRANCH 15 16
ENDBRANCH 11 15
ENDBRANCH 9 11
ENDBRANCH 5 7
ENDBRANCH 3 5
BRANCH 1 19
ATOM     19  CA  LEU C 675      26.740   0.573  22.348  0.78 15.17 LIG 0.18  C 
BRANCH 19 20
ATOM     20  CB  LEU C 675      27.255   0.598  23.805  0.53 15.14 LIG 0.04  C 
BRANCH 20 21
ATOM     21  CG  LEU C 675      27.032   1.734  24.736  0.32 15.05 LIG-0.02  C 
ATOM     22  CD1 LEU C 675      26.169   1.395  25.953  0.18 15.17 LIG 0.01  C 
ATOM     23  CD2 LEU C 675      28.426   2.179  25.248  0.37 15.02 LIG 0.01  C 
ENDBRANCH 20 21
ENDBRANCH 19 20
BRANCH 19 24
ATOM     24  N   LEU C 675      27.764  -0.120  21.597  0.88 15.36 LIG-0.35  N 
ATOM     25 H    LEU C 675      28.225   0.425  21.116  0.88 15.36 LIG 0.16  HD
ATOM     26  C   ALA C 674      28.028  -1.420  21.590  0.61 16.05 LIG 0.26  C 
ATOM     27 O    ALA C 674      27.325  -2.236  22.199  0.70 15.91 LIG-0.27  OA
BRANCH 26 28
ATOM     28  CA  ALA C 674      29.229  -1.783  20.746  0.67 16.10 LIG 0.40  C 
ATOM     29  CB  ALA C 674      29.256  -1.141  19.398  0.67 16.22 LIG 0.06  C 
ATOM     30  N   ALA C 674      29.544  -3.209  20.720  0.74 16.71 LIG 0.61  N 
ENDBRANCH 26 28
ENDBRANCH 19 24
ENDBRANCH 1 19
TORSDOF 11
ENDMDL
MODEL 5
USER: ADFR SOLUTION from run 190
USER: SCORE 11.591405 LL:  -2.461 LR: -10.321 RR:   0.000 FEB:  -7.040
USER: RMSD 7.307169
USER: SEED 189
USER: STATUS no improvement in best in 6 clusters for 5 generations
USER: GENES 13
USER: genes 0 Translation |==|  0.52598 0.39108 0.51154
USER: genes 1 Rotation |==|  0.76500 0.13262 0.40662 0.68996
USER: genes 2 Torsion [C]-N--CA-[CB] |==|  0.20940
USER: genes 3 Torsion [N]-CA--C-[N] |==|  0.04759
USER: genes 4 Torsion [C]-N--CA-[C] |==|  0.61930
USER: genes 5 Torsion [N]-CA--C-[O] |==|  0.51869
USER: genes 6 Torsion [N]-CA--CB-[CG] |==|  0.07546
USER: genes 7 Torsion [CA]-CB--CG-[CD1] |==|  0.38909
USER: genes 8 Torsion [N]-C--CA-[N] |==|  0.85665
USER: genes 9 Torsion [C]-CA--CB-[CG] |==|  0.43847
USER: genes 10 Torsion [CA]-CB--CG-[CD1] |==|  0.38477
USER: genes 11 Torsion [C]-CA--N-[C] |==|  0.58333
USER: genes 12 Torsion [N]-C--CA-[N] |==|  0.91089
ROOT
ATOM      1  C   LEU C 675      26.578   1.659  20.916  1.00 14.56 LIG 0.24  C 
ATOM      2 O    LEU C 675      25.505   1.069  20.683  0.66 14.97 LIG-0.27  OA
ATOM      3  N   ALA C 676      26.964   2.707  20.189  0.83 13.84 LIG-0.35  N 
ATOM      4 H    ALA C 676      27.702   3.123  20.339  0.83 13.84 LIG 0.16  HD
ENDROOT
BRANCH 3 5
ATOM      5  CA  ALA C 676      26.205   3.277  19.067  1.00 13.04 LIG 0.17  C 
ATOM      6  CB  ALA C 676      25.025   4.078  19.575  0.89 13.68 LIG 0.04  C 
BRANCH 5 7
ATOM      7  C   ALA C 676      27.108   4.018  18.107  0.69 12.60 LIG 0.24  C 
ATOM      8 O    ALA C 676      26.683   4.884  17.315  0.52 12.22 LIG-0.27  OA
ATOM      9  N   LEU C 677      28.410   3.729  18.229  0.89 12.12 LIG-0.34  N 
ATOM     10 H    LEU C 677      28.714   3.138  18.775  0.89 12.12 LIG 0.16  HD
BRANCH 9 11
ATOM     11  CA  LEU C 677      29.439   4.388  17.446  0.93 11.78 LIG 0.18  C 
BRANCH 11 12
ATOM     12  C   LEU C 677      30.535   3.603  16.860  0.42 11.73 LIG 0.20  C 
ATOM     13 O    LEU C 677      31.523   4.160  16.275  0.84 11.50 LIG-0.65  OA
ATOM     14 OXT  LEU C 677      30.504   2.339  16.899  0.55 11.71 LIG-0.65  OA
ENDBRANCH 11 12
BRANCH 11 15
ATOM     15  CB  LEU C 677      29.538   5.839  17.827  1.00 11.60 LIG 0.04  C 
BRANCH 15 16
ATOM     16  CG  LEU C 677      29.173   6.393  19.171  0.82 11.89 LIG-0.02  C 
ATOM     17  CD2 LEU C 677      27.791   7.061  19.187  0.78 11.63 LIG 0.01  C 
ATOM     18  CD1 LEU C 677      30.208   7.476  19.582  1.00 11.42 LIG 0.01  C 
ENDBRANCH 15 16
ENDBRANCH 11 15
ENDBRANCH 9 11
ENDBRANCH 5 7
ENDBRANCH 3 5
BRANCH 1 19
ATOM     19  CA  LEU C 675      27.546   1.252  22.000  0.78 15.17 LIG 0.18  C 
BRANCH 19 20
ATOM     20  CB  LEU C 675      27.658   2.225  23.195  0.53 15.14 LIG 0.04  C 
BRANCH 20 21
ATOM     21  CG  LEU C 675      28.151   1.824  24.538  0.32 15.05 LIG-0.02  C 
ATOM     22  CD1 LEU C 675      29.084   2.840  25.200  0.18 15.17 LIG 0.01  C 
ATOM     23  CD2 LEU C 675      26.905   1.656  25.446  0.37 15.02 LIG 0.01  C 
ENDBRANCH 20 21
ENDBRANCH 19 20
BRANCH 19 24
ATOM     24  N   LEU C 675      28.903   1.067  21.535  0.88 15.36 LIG-0.35  N 
ATOM     25 H    LEU C 675      29.079   1.577  20.865  0.88 15.36 LIG 0.16  HD
ATOM     26  C   ALA C 674      29.823   0.242  22.019  0.61 16.05 LIG 0.26  C 
ATOM     27 O    ALA C 674      29.571  -0.566  22.921  0.70 15.91 LIG-0.27  OA
BRANCH 26 28
ATOM     28  CA  ALA C 674      31.165   0.374  21.334  0.67 16.10 LIG 0.40  C 
ATOM     29  CB  ALA C 674      32.179   1.156  22.103  0.67 16.22 LIG 0.06  C 
ATOM     30  N   ALA C 674      31.092   0.741  19.922  0.74 16.71 LIG 0.61  N 
ENDBRANCH 26 28
ENDBRANCH 19 24
ENDBRANCH 1 19
TORSDOF 11
ENDMDL
MODEL 6
USER: ADFR SOLUTION from run 30
USER: SCORE 10.881276 LL:  -1.991 LR:  -9.948 RR:   0.000 FEB:  -6.667
USER: RMSD 2.922033
USER: SEED 29
USER: STATUS no improvement in best in 14 clusters for 5 generations
USER: GENES 13
USER: genes 0 Translation |==|  0.50325 0.50739 0.46614
USER: genes 1 Rotation |==|  0.84293 0.54222 0.27267 0.78096
USER: genes 2 Torsion [C]-N--CA-[CB] |==|  0.77733
USER: genes 3 Torsion [N]-CA--C-[N] |==|  0.22567
USER: genes 4 Torsion [C]-N--CA-[C] |==|  0.82443
USER: genes 5 Torsion [N]-CA--C-[O] |==|  0.11104
USER: genes 6 Torsion [N]-CA--CB-[CG] |==|  0.69559
USER: genes 7 Torsion [CA]-CB--CG-[CD1] |==|  0.09024
USER: genes 8 Torsion [N]-C--CA-[N] |==|  0.57846
USER: genes 9 Torsion [C]-CA--CB-[CG] |==|  0.47405
USER: genes 10 Torsion [CA]-CB--CG-[CD1] |==|  0.94898
USER: genes 11 Torsion [C]-CA--N-[C] |==|  0.18074
USER: genes 12 Torsion [N]-C--CA-[N] |==|  0.49641
ROOT
ATOM      1  C   LEU C 675      26.220   3.490  20.065  1.00 14.56 LIG 0.24  C 
ATOM      2 O    LEU C 675      26.219   2.258  19.881  0.66 14.97 LIG-0.27  OA
ATOM      3  N   ALA C 676      25.243   4.089  20.746  0.83 13.84 LIG-0.35  N 
ATOM      4 H    ALA C 676      25.231   4.938  20.880  0.83 13.84 LIG 0.16  HD
ENDROOT
BRANCH 3 5
ATOM      5  CA  ALA C 676      24.089   3.400  21.341  1.00 13.04 LIG 0.17  C 
ATOM      6  CB  ALA C 676      23.038   3.116  20.290  0.89 13.68 LIG 0.04  C 
BRANCH 5 7
ATOM      7  C   ALA C 676      24.519   2.197  22.149  0.69 12.60 LIG 0.24  C 
ATOM      8 O    ALA C 676      24.543   1.042  21.676  0.52 12.22 LIG-0.27  OA
ATOM      9  N   LEU C 677      24.948   2.478  23.386  0.89 12.12 LIG-0.34  N 
ATOM     10 H    LEU C 677      24.942   3.271  23.720  0.89 12.12 LIG 0.16  HD
BRANCH 9 11
ATOM     11  CA  LEU C 677      25.469   1.467  24.288  0.93 11.78 LIG 0.18  C 
BRANCH 11 12
ATOM     12  C   LEU C 677      24.601   0.374  24.749  0.42 11.73 LIG 0.20  C 
ATOM     13 O    LEU C 677      23.772  -0.201  23.968  0.84 11.50 LIG-0.65  OA
ATOM     14 OXT  LEU C 677      24.639  -0.002  25.956  0.55 11.71 LIG-0.65  OA
ENDBRANCH 11 12
BRANCH 11 15
ATOM     15  CB  LEU C 677      26.643   2.005  25.057  1.00 11.60 LIG 0.04  C 
BRANCH 15 16
ATOM     16  CG  LEU C 677      28.063   1.572  24.853  0.82 11.89 LIG-0.02  C 
ATOM     17  CD2 LEU C 677      29.080   2.670  25.200  0.78 11.63 LIG 0.01  C 
ATOM     18  CD1 LEU C 677      28.283   1.204  23.360  1.00 11.42 LIG 0.01  C 
ENDBRANCH 15 16
ENDBRANCH 11 15
ENDBRANCH 9 11
ENDBRANCH 5 7
ENDBRANCH 3 5
BRANCH 1 19
ATOM     19  CA  LEU C 675      27.282   4.422  19.536  0.78 15.17 LIG 0.18  C 
BRANCH 19 20
ATOM     20  CB  LEU C 675      26.808   5.854  19.200  0.53 15.14 LIG 0.04  C 
BRANCH 20 21
ATOM     21  CG  LEU C 675      27.732   6.967  18.861  0.32 15.05 LIG-0.02  C 
ATOM     22  CD1 LEU C 675      29.184   6.737  19.285  0.18 15.17 LIG 0.01  C 
ATOM     23  CD2 LEU C 675      27.704   7.124  17.319  0.37 15.02 LIG 0.01  C 
ENDBRANCH 20 21
ENDBRANCH 19 20
BRANCH 19 24
ATOM     24  N   LEU C 675      27.932   3.948  18.333  0.88 15.36 LIG-0.35  N 
ATOM     25 H    LEU C 675      28.764   3.782  18.469  0.88 15.36 LIG 0.16  HD
ATOM     26  C   ALA C 674      27.390   3.763  17.136  0.61 16.05 LIG 0.26  C 
ATOM     27 O    ALA C 674      26.220   4.079  16.888  0.70 15.91 LIG-0.27  OA
BRANCH 26 28
ATOM     28  CA  ALA C 674      28.352   3.174  16.128  0.67 16.10 LIG 0.40  C 
ATOM     29  CB  ALA C 674      29.687   3.843  16.082  0.67 16.22 LIG 0.06  C 
ATOM     30  N   ALA C 674      27.775   2.932  14.808  0.74 16.71 LIG 0.61  N 
ENDBRANCH 26 28
ENDBRANCH 19 24
ENDBRANCH 1 19
TORSDOF 11
ENDMDL
MODEL 7
USER: ADFR SOLUTION from run 159
USER: SCORE 10.310552 LL:  -1.812 LR:  -9.887 RR:   0.000 FEB:  -6.605
USER: RMSD 7.593160
USER: SEED 158
USER: STATUS no improvement in best in 11 clusters for 5 generations
USER: GENES 13
USER: genes 0 Translation |==|  0.63068 0.31953 0.62199
USER: genes 1 Rotation |==|  0.63285 0.25548 0.29843 0.86323
USER: genes 2 Torsion [C]-N--CA-[CB] |==|  0.13246
USER: genes 3 Torsion [N]-CA--C-[N] |==|  0.06738
USER: genes 4 Torsion [C]-N--CA-[C] |==|  0.59490
USER: genes 5 Torsion [N]-CA--C-[O] |==|  0.37263
USER: genes 6 Torsion [N]-CA--CB-[CG] |==|  0.40464
USER: genes 7 Torsion [CA]-CB--CG-[CD1] |==|  0.24164
USER: genes 8 Torsion [N]-C--CA-[N] |==|  0.75726
USER: genes 9 Torsion [C]-CA--CB-[CG] |==|  0.30806
USER: genes 10 Torsion [CA]-CB--CG-[CD1] |==|  0.82428
USER: genes 11 Torsion [C]-CA--N-[C] |==|  0.88333
USER: genes 12 Torsion [N]-C--CA-[N] |==|  0.27206
ROOT
ATOM      1  C   LEU C 675      28.227   0.532  22.987  1.00 14.56 LIG 0.24  C 
ATOM      2 O    LEU C 675      27.490   0.181  23.929  0.66 14.97 LIG-0.27  OA
ATOM      3  N   ALA C 676      27.823   1.431  22.090  0.83 13.84 LIG-0.35  N 
ATOM      4 H    ALA C 676      28.320   1.681  21.435  0.83 13.84 LIG 0.16  HD
ENDROOT
BRANCH 3 5
ATOM      5  CA  ALA C 676      26.512   2.095  22.098  1.00 13.04 LIG 0.17  C 
ATOM      6  CB  ALA C 676      26.190   2.622  23.481  0.89 13.68 LIG 0.04  C 
BRANCH 5 7
ATOM      7  C   ALA C 676      26.403   3.117  20.989  0.69 12.60 LIG 0.24  C 
ATOM      8 O    ALA C 676      25.669   4.124  21.072  0.52 12.22 LIG-0.27  OA
ATOM      9  N   LEU C 677      27.213   2.900  19.947  0.89 12.12 LIG-0.34  N 
ATOM     10 H    LEU C 677      27.727   2.212  19.882  0.89 12.12 LIG 0.16  HD
BRANCH 9 11
ATOM     11  CA  LEU C 677      27.305   3.806  18.818  0.93 11.78 LIG 0.18  C 
BRANCH 11 12
ATOM     12  C   LEU C 677      27.546   3.280  17.466  0.42 11.73 LIG 0.20  C 
ATOM     13 O    LEU C 677      26.872   3.679  16.459  0.84 11.50 LIG-0.65  OA
ATOM     14 OXT  LEU C 677      28.419   2.384  17.280  0.55 11.71 LIG-0.65  OA
ENDBRANCH 11 12
BRANCH 11 15
ATOM     15  CB  LEU C 677      27.703   5.181  19.280  1.00 11.60 LIG 0.04  C 
BRANCH 15 16
ATOM     16  CG  LEU C 677      28.568   6.123  18.499  0.82 11.89 LIG-0.02  C 
ATOM     17  CD2 LEU C 677      29.323   7.120  19.389  0.78 11.63 LIG 0.01  C 
ATOM     18  CD1 LEU C 677      27.681   6.957  17.532  1.00 11.42 LIG 0.01  C 
ENDBRANCH 15 16
ENDBRANCH 11 15
ENDBRANCH 9 11
ENDBRANCH 5 7
ENDBRANCH 3 5
BRANCH 1 19
ATOM     19  CA  LEU C 675      29.610  -0.021  22.747  0.78 15.17 LIG 0.18  C 
BRANCH 19 20
ATOM     20  CB  LEU C 675      30.632   0.971  22.148  0.53 15.14 LIG 0.04  C 
BRANCH 20 21
ATOM     21  CG  LEU C 675      31.798   1.504  22.899  0.32 15.05 LIG-0.02  C 
ATOM     22  CD1 LEU C 675      31.432   2.350  24.119  0.18 15.17 LIG 0.01  C 
ATOM     23  CD2 LEU C 675      32.614   0.281  23.393  0.37 15.02 LIG 0.01  C 
ENDBRANCH 20 21
ENDBRANCH 19 20
BRANCH 19 24
ATOM     24  N   LEU C 675      29.638  -1.169  21.867  0.88 15.36 LIG-0.35  N 
ATOM     25 H    LEU C 675      30.291  -1.123  21.309  0.88 15.36 LIG 0.16  HD
ATOM     26  C   ALA C 674      28.804  -2.202  21.851  0.61 16.05 LIG 0.26  C 
ATOM     27 O    ALA C 674      27.804  -2.249  22.577  0.70 15.91 LIG-0.27  OA
BRANCH 26 28
ATOM     28  CA  ALA C 674      29.186  -3.264  20.844  0.67 16.10 LIG 0.40  C 
ATOM     29  CB  ALA C 674      28.083  -3.670  19.923  0.67 16.22 LIG 0.06  C 
ATOM     30  N   ALA C 674      29.924  -4.393  21.405  0.74 16.71 LIG 0.61  N 
ENDBRANCH 26 28
ENDBRANCH 19 24
ENDBRANCH 1 19
TORSDOF 11
ENDMDL
MODEL 8
USER: ADFR SOLUTION from run 176
USER: SCORE 10.764950 LL:  -1.693 LR:  -9.840 RR:   0.000 FEB:  -6.559
USER: RMSD 7.534808
USER: SEED 175
USER: STATUS no improvement in best in 6 clusters for 5 generations
USER: GENES 13
USER: genes 0 Translation |==|  0.54993 0.35856 0.50214
USER: genes 1 Rotation |==|  0.82667 0.15724 0.46503 0.65677
USER: genes 2 Torsion [C]-N--CA-[CB] |==|  0.13672
USER: genes 3 Torsion [N]-CA--C-[N] |==|  0.13317
USER: genes 4 Torsion [C]-N--CA-[C] |==|  0.21298
USER: genes 5 Torsion [N]-CA--C-[O] |==|  0.84667
USER: genes 6 Torsion [N]-CA--CB-[CG] |==|  0.67829
USER: genes 7 Torsion [CA]-CB--CG-[CD1] |==|  0.15497
USER: genes 8 Torsion [N]-C--CA-[N] |==|  0.82244
USER: genes 9 Torsion [C]-CA--CB-[CG] |==|  0.42305
USER: genes 10 Torsion [CA]-CB--CG-[CD1] |==|  0.31398
USER: genes 11 Torsion [C]-CA--N-[C] |==|  0.63951
USER: genes 12 Torsion [N]-C--CA-[N] |==|  0.82701
ROOT
ATOM      1  C   LEU C 675      26.955   1.146  20.740  1.00 14.56 LIG 0.24  C 
ATOM      2 O    LEU C 675      26.184   0.281  20.282  0.66 14.97 LIG-0.27  OA
ATOM      3  N   ALA C 676      27.170   2.293  20.095  0.83 13.84 LIG-0.35  N 
ATOM      4 H    ALA C 676      27.699   2.898  20.399  0.83 13.84 LIG 0.16  HD
ENDROOT
BRANCH 3 5
ATOM      5  CA  ALA C 676      26.548   2.668  18.817  1.00 13.04 LIG 0.17  C 
ATOM      6  CB  ALA C 676      25.052   2.447  18.868  0.89 13.68 LIG 0.04  C 
BRANCH 5 7
ATOM      7  C   ALA C 676      26.971   4.052  18.381  0.69 12.60 LIG 0.24  C 
ATOM      8 O    ALA C 676      26.151   4.936  18.058  0.52 12.22 LIG-0.27  OA
ATOM      9  N   LEU C 677      28.289   4.280  18.444  0.89 12.12 LIG-0.34  N 
ATOM     10 H    LEU C 677      28.862   3.680  18.670  0.89 12.12 LIG 0.16  HD
BRANCH 9 11
ATOM     11  CA  LEU C 677      28.881   5.568  18.134  0.93 11.78 LIG 0.18  C 
BRANCH 11 12
ATOM     12  C   LEU C 677      28.800   6.669  19.106  0.42 11.73 LIG 0.20  C 
ATOM     13 O    LEU C 677      27.684   7.071  19.575  0.84 11.50 LIG-0.65  OA
ATOM     14 OXT  LEU C 677      29.851   7.267  19.477  0.55 11.71 LIG-0.65  OA
ENDBRANCH 11 12
BRANCH 11 15
ATOM     15  CB  LEU C 677      28.990   5.752  16.646  1.00 11.60 LIG 0.04  C 
BRANCH 15 16
ATOM     16  CG  LEU C 677      30.282   5.880  15.897  0.82 11.89 LIG-0.02  C 
ATOM     17  CD2 LEU C 677      30.089   5.933  14.375  0.78 11.63 LIG 0.01  C 
ATOM     18  CD1 LEU C 677      31.179   4.648  16.200  1.00 11.42 LIG 0.01  C 
ENDBRANCH 15 16
ENDBRANCH 11 15
ENDBRANCH 9 11
ENDBRANCH 5 7
ENDBRANCH 3 5
BRANCH 1 19
ATOM     19  CA  LEU C 675      27.731   0.991  22.025  0.78 15.17 LIG 0.18  C 
BRANCH 19 20
ATOM     20  CB  LEU C 675      27.491   2.086  23.088  0.53 15.14 LIG 0.04  C 
BRANCH 20 21
ATOM     21  CG  LEU C 675      27.639   1.861  24.548  0.32 15.05 LIG-0.02  C 
ATOM     22  CD1 LEU C 675      28.797   2.624  25.193  0.18 15.17 LIG 0.01  C 
ATOM     23  CD2 LEU C 675      26.322   2.338  25.215  0.37 15.02 LIG 0.01  C 
ENDBRANCH 20 21
ENDBRANCH 19 20
BRANCH 19 24
ATOM     24  N   LEU C 675      29.165   0.950  21.843  0.88 15.36 LIG-0.35  N 
ATOM     25 H    LEU C 675      29.440   1.603  21.356  0.88 15.36 LIG 0.16  HD
ATOM     26  C   ALA C 674      30.021   0.057  22.326  0.61 16.05 LIG 0.26  C 
ATOM     27 O    ALA C 674      29.644  -0.942  22.950  0.70 15.91 LIG-0.27  OA
BRANCH 26 28
ATOM     28  CA  ALA C 674      31.463   0.374  22.001  0.67 16.10 LIG 0.40  C 
ATOM     29  CB  ALA C 674      32.024   1.541  22.744  0.67 16.22 LIG 0.06  C 
ATOM     30  N   ALA C 674      31.774   0.387  20.573  0.74 16.71 LIG 0.61  N 
ENDBRANCH 26 28
ENDBRANCH 19 24
ENDBRANCH 1 19
TORSDOF 11
ENDMDL
MODEL 9
USER: ADFR SOLUTION from run 39
USER: SCORE 11.073645 LL:  -1.720 LR:  -9.841 RR:   0.000 FEB:  -6.560
USER: RMSD 7.832435
USER: SEED 38
USER: STATUS no improvement in best in 9 clusters for 5 generations
USER: GENES 13
USER: genes 0 Translation |==|  0.45932 0.41418 0.59743
USER: genes 1 Rotation |==|  0.21991 0.28650 0.28204 0.78010
USER: genes 2 Torsion [C]-N--CA-[CB] |==|  0.83606
USER: genes 3 Torsion [N]-CA--C-[N] |==|  0.42776
USER: genes 4 Torsion [C]-N--CA-[C] |==|  0.29184
USER: genes 5 Torsion [N]-CA--C-[O] |==|  0.36201
USER: genes 6 Torsion [N]-CA--CB-[CG] |==|  0.45374
USER: genes 7 Torsion [CA]-CB--CG-[CD1] |==|  0.15637
USER: genes 8 Torsion [N]-C--CA-[N] |==|  0.84452
USER: genes 9 Torsion [C]-CA--CB-[CG] |==|  0.19467
USER: genes 10 Torsion [CA]-CB--CG-[CD1] |==|  0.03651
USER: genes 11 Torsion [C]-CA--N-[C] |==|  0.68589
USER: genes 12 Torsion [N]-C--CA-[N] |==|  0.25883
ROOT
ATOM      1  C   LEU C 675      25.528   2.022  22.527  1.00 14.56 LIG 0.24  C 
ATOM      2 O    LEU C 675      25.994   3.051  23.055  0.66 14.97 LIG-0.27  OA
ATOM      3  N   ALA C 676      24.860   2.078  21.375  0.83 13.84 LIG-0.35  N 
ATOM      4 H    ALA C 676      24.533   1.377  21.000  0.83 13.84 LIG 0.16  HD
ENDROOT
BRANCH 3 5
ATOM      5  CA  ALA C 676      24.600   3.307  20.612  1.00 13.04 LIG 0.17  C 
ATOM      6  CB  ALA C 676      23.823   4.300  21.450  0.89 13.68 LIG 0.04  C 
BRANCH 5 7
ATOM      7  C   ALA C 676      25.868   3.854  19.995  0.69 12.60 LIG 0.24  C 
ATOM      8 O    ALA C 676      27.003   3.578  20.433  0.52 12.22 LIG-0.27  OA
ATOM      9  N   LEU C 677      25.680   4.593  18.894  0.89 12.12 LIG-0.34  N 
ATOM     10 H    LEU C 677      24.902   4.784  18.580  0.89 12.12 LIG 0.16  HD
BRANCH 9 11
ATOM     11  CA  LEU C 677      26.776   5.144  18.120  0.93 11.78 LIG 0.18  C 
BRANCH 11 12
ATOM     12  C   LEU C 677      27.143   4.543  16.829  0.42 11.73 LIG 0.20  C 
ATOM     13 O    LEU C 677      27.294   5.249  15.778  0.84 11.50 LIG-0.65  OA
ATOM     14 OXT  LEU C 677      27.287   3.291  16.730  0.55 11.71 LIG-0.65  OA
ENDBRANCH 11 12
BRANCH 11 15
ATOM     15  CB  LEU C 677      27.728   5.888  19.015  1.00 11.60 LIG 0.04  C 
BRANCH 15 16
ATOM     16  CG  LEU C 677      29.126   6.274  18.636  0.82 11.89 LIG-0.02  C 
ATOM     17  CD2 LEU C 677      29.824   7.122  19.708  0.78 11.63 LIG 0.01  C 
ATOM     18  CD1 LEU C 677      29.094   7.121  17.334  1.00 11.42 LIG 0.01  C 
ENDBRANCH 15 16
ENDBRANCH 11 15
ENDBRANCH 9 11
ENDBRANCH 5 7
ENDBRANCH 3 5
BRANCH 1 19
ATOM     19  CA  LEU C 675      25.642   0.641  23.124  0.78 15.17 LIG 0.18  C 
BRANCH 19 20
ATOM     20  CB  LEU C 675      26.484  -0.370  22.315  0.53 15.14 LIG 0.04  C 
BRANCH 20 21
ATOM     21  CG  LEU C 675      27.960  -0.283  22.174  0.32 15.05 LIG-0.02  C 
ATOM     22  CD1 LEU C 675      28.633   0.694  23.140  0.18 15.17 LIG 0.01  C 
ATOM     23  CD2 LEU C 675      28.526  -1.699  22.455  0.37 15.02 LIG 0.01  C 
ENDBRANCH 20 21
ENDBRANCH 19 20
BRANCH 19 24
ATOM     24  N   LEU C 675      24.369  -0.012  23.336  0.88 15.36 LIG-0.35  N 
ATOM     25 H    LEU C 675      23.979  -0.192  22.591  0.88 15.36 LIG 0.16  HD
ATOM     26  C   ALA C 674      23.801  -0.329  24.493  0.61 16.05 LIG 0.26  C 
ATOM     27 O    ALA C 674      24.294  -0.001  25.578  0.70 15.91 LIG-0.27  OA
BRANCH 26 28
ATOM     28  CA  ALA C 674      22.499  -1.083  24.333  0.67 16.10 LIG 0.40  C 
ATOM     29  CB  ALA C 674      21.381  -0.576  25.183  0.67 16.22 LIG 0.06  C 
ATOM     30  N   ALA C 674      22.634  -2.537  24.353  0.74 16.71 LIG 0.61  N 
ENDBRANCH 26 28
ENDBRANCH 19 24
ENDBRANCH 1 19
TORSDOF 11
ENDMDL
MODEL 10
USER: ADFR SOLUTION from run 174
USER: SCORE 10.717369 LL:  -1.956 LR:  -9.828 RR:   0.000 FEB:  -6.547
USER: RMSD 7.309319
USER: SEED 173
USER: STATUS no improvement in best in 8 clusters for 5 generations
USER: GENES 13
USER: genes 0 Translation |==|  0.55784 0.40446 0.56306
USER: genes 1 Rotation |==|  0.29714 0.20690 0.35361 0.81860
USER: genes 2 Torsion [C]-N--CA-[CB] |==|  0.82347
USER: genes 3 Torsion [N]-CA--C-[N] |==|  0.28288
USER: genes 4 Torsion [C]-N--CA-[C] |==|  0.70089
USER: genes 5 Torsion [N]-CA--C-[O] |==|  0.26148
USER: genes 6 Torsion [N]-CA--CB-[CG] |==|  0.19878
USER: genes 7 Torsion [CA]-CB--CG-[CD1] |==|  0.70979
USER: genes 8 Torsion [N]-C--CA-[N] |==|  0.28740
USER: genes 9 Torsion [C]-CA--CB-[CG] |==|  0.84696
USER: genes 10 Torsion [CA]-CB--CG-[CD1] |==|  0.92003
USER: genes 11 Torsion [C]-CA--N-[C] |==|  0.53694
USER: genes 12 Torsion [N]-C--CA-[N] |==|  0.74236
ROOT
ATOM      1  C   LEU C 675      27.080   1.869  21.882  1.00 14.56 LIG 0.24  C 
ATOM      2 O    LEU C 675      26.901   2.979  22.421  0.66 14.97 LIG-0.27  OA
ATOM      3  N   ALA C 676      26.579   1.596  20.678  0.83 13.84 LIG-0.35  N 
ATOM      4 H    ALA C 676      26.695   0.836  20.294  0.83 13.84 LIG 0.16  HD
ENDROOT
BRANCH 3 5
ATOM      5  CA  ALA C 676      25.786   2.530  19.866  1.00 13.04 LIG 0.17  C 
ATOM      6  CB  ALA C 676      24.487   2.872  20.564  0.89 13.68 LIG 0.04  C 
BRANCH 5 7
ATOM      7  C   ALA C 676      26.607   3.723  19.434  0.69 12.60 LIG 0.24  C 
ATOM      8 O    ALA C 676      26.920   4.644  20.217  0.52 12.22 LIG-0.27  OA
ATOM      9  N   LEU C 677      27.039   3.677  18.168  0.89 12.12 LIG-0.34  N 
ATOM     10 H    LEU C 677      26.834   3.045  17.621  0.89 12.12 LIG 0.16  HD
BRANCH 9 11
ATOM     11  CA  LEU C 677      27.899   4.693  17.591  0.93 11.78 LIG 0.18  C 
BRANCH 11 12
ATOM     12  C   LEU C 677      27.360   5.643  16.606  0.42 11.73 LIG 0.20  C 
ATOM     13 O    LEU C 677      26.919   6.789  16.950  0.84 11.50 LIG-0.65  OA
ATOM     14 OXT  LEU C 677      27.296   5.323  15.384  0.55 11.71 LIG-0.65  OA
ENDBRANCH 11 12
BRANCH 11 15
ATOM     15  CB  LEU C 677      29.338   4.264  17.662  1.00 11.60 LIG 0.04  C 
BRANCH 15 16
ATOM     16  CG  LEU C 677      29.944   3.178  16.826  0.82 11.89 LIG-0.02  C 
ATOM     17  CD2 LEU C 677      29.062   2.776  15.636  0.78 11.63 LIG 0.01  C 
ATOM     18  CD1 LEU C 677      30.144   1.906  17.695  1.00 11.42 LIG 0.01  C 
ENDBRANCH 15 16
ENDBRANCH 11 15
ENDBRANCH 9 11
ENDBRANCH 5 7
ENDBRANCH 3 5
BRANCH 1 19
ATOM     19  CA  LEU C 675      27.841   0.734  22.521  0.78 15.17 LIG 0.18  C 
BRANCH 19 20
ATOM     20  CB  LEU C 675      27.518   0.465  24.008  0.53 15.14 LIG 0.04  C 
BRANCH 20 21
ATOM     21  CG  LEU C 675      27.611   1.500  25.069  0.32 15.05 LIG-0.02  C 
ATOM     22  CD1 LEU C 675      28.648   2.592  24.801  0.18 15.17 LIG 0.01  C 
ATOM     23  CD2 LEU C 675      26.219   2.176  25.165  0.37 15.02 LIG 0.01  C 
ENDBRANCH 20 21
ENDBRANCH 19 20
BRANCH 19 24
ATOM     24  N   LEU C 675      29.279   0.889  22.469  0.88 15.36 LIG-0.35  N 
ATOM     25 H    LEU C 675      29.501   1.689  22.246  0.88 15.36 LIG 0.16  HD
ATOM     26  C   ALA C 674      30.205  -0.029  22.717  0.61 16.05 LIG 0.26  C 
ATOM     27 O    ALA C 674      29.915  -1.208  22.950  0.70 15.91 LIG-0.27  OA
BRANCH 26 28
ATOM     28  CA  ALA C 674      31.616   0.511  22.646  0.67 16.10 LIG 0.40  C 
ATOM     29  CB  ALA C 674      31.793   1.863  23.254  0.67 16.22 LIG 0.06  C 
ATOM     30  N   ALA C 674      32.254   0.370  21.340  0.74 16.71 LIG 0.61  N 
ENDBRANCH 26 28
ENDBRANCH 19 24
ENDBRANCH 1 19
TORSDOF 11
ENDMDL
MODEL 11
USER: ADFR SOLUTION from run 50
USER: SCORE 11.573721 LL:  -2.088 LR:  -9.830 RR:   0.000 FEB:  -6.549
USER: RMSD 6.980230
USER: SEED 49
USER: STATUS no improvement in best in 22 clusters for 5 generations
USER: GENES 13
USER: genes 0 Translation |==|  0.59870 0.35387 0.59576
USER: genes 1 Rotation |==|  0.72467 0.22754 0.35104 0.82109
USER: genes 2 Torsion [C]-N--CA-[CB] |==|  0.13973
USER: genes 3 Torsion [N]-CA--C-[N] |==|  0.08242
USER: genes 4 Torsion [C]-N--CA-[C] |==|  0.68131
USER: genes 5 Torsion [N]-CA--C-[O] |==|  0.91336
USER: genes 6 Torsion [N]-CA--CB-[CG] |==|  0.34311
USER: genes 7 Torsion [CA]-CB--CG-[CD1] |==|  0.19747
USER: genes 8 Torsion [N]-C--CA-[N] |==|  0.88333
USER: genes 9 Torsion [C]-CA--CB-[CG] |==|  0.57218
USER: genes 10 Torsion [CA]-CB--CG-[CD1] |==|  0.52252
USER: genes 11 Torsion [C]-CA--N-[C] |==|  0.78994
USER: genes 12 Torsion [N]-C--CA-[N] |==|  0.36207
ROOT
ATOM      1  C   LEU C 675      27.723   1.072  22.496  1.00 14.56 LIG 0.24  C 
ATOM      2 O    LEU C 675      26.829   0.400  23.043  0.66 14.97 LIG-0.27  OA
ATOM      3  N   ALA C 676      27.429   2.036  21.623  0.83 13.84 LIG-0.35  N 
ATOM      4 H    ALA C 676      28.035   2.507  21.238  0.83 13.84 LIG 0.16  HD
ENDROOT
BRANCH 3 5
ATOM      5  CA  ALA C 676      26.068   2.412  21.214  1.00 13.04 LIG 0.17  C 
ATOM      6  CB  ALA C 676      25.190   2.636  22.426  0.89 13.68 LIG 0.04  C 
BRANCH 5 7
ATOM      7  C   ALA C 676      26.084   3.553  20.223  0.69 12.60 LIG 0.24  C 
ATOM      8 O    ALA C 676      25.188   4.422  20.182  0.52 12.22 LIG-0.27  OA
ATOM      9  N   LEU C 677      27.173   3.605  19.446  0.89 12.12 LIG-0.34  N 
ATOM     10 H    LEU C 677      27.798   3.015  19.469  0.89 12.12 LIG 0.16  HD
BRANCH 9 11
ATOM     11  CA  LEU C 677      27.404   4.665  18.483  0.93 11.78 LIG 0.18  C 
BRANCH 11 12
ATOM     12  C   LEU C 677      27.434   4.362  17.045  0.42 11.73 LIG 0.20  C 
ATOM     13 O    LEU C 677      27.840   3.236  16.603  0.84 11.50 LIG-0.65  OA
ATOM     14 OXT  LEU C 677      27.080   5.238  16.204  0.55 11.71 LIG-0.65  OA
ENDBRANCH 11 12
BRANCH 11 15
ATOM     15  CB  LEU C 677      28.139   5.808  19.129  1.00 11.60 LIG 0.04  C 
BRANCH 15 16
ATOM     16  CG  LEU C 677      29.444   6.362  18.644  0.82 11.89 LIG-0.02  C 
ATOM     17  CD2 LEU C 677      30.079   7.350  19.632  0.78 11.63 LIG 0.01  C 
ATOM     18  CD1 LEU C 677      29.216   7.131  17.313  1.00 11.42 LIG 0.01  C 
ENDBRANCH 15 16
ENDBRANCH 11 15
ENDBRANCH 9 11
ENDBRANCH 5 7
ENDBRANCH 3 5
BRANCH 1 19
ATOM     19  CA  LEU C 675      29.199   0.865  22.731  0.78 15.17 LIG 0.18  C 
BRANCH 19 20
ATOM     20  CB  LEU C 675      29.868   1.865  23.700  0.53 15.14 LIG 0.04  C 
BRANCH 20 21
ATOM     21  CG  LEU C 675      31.312   2.210  23.657  0.32 15.05 LIG-0.02  C 
ATOM     22  CD1 LEU C 675      31.794   3.070  24.828  0.18 15.17 LIG 0.01  C 
ATOM     23  CD2 LEU C 675      32.098   0.874  23.691  0.37 15.02 LIG 0.01  C 
ENDBRANCH 20 21
ENDBRANCH 19 20
BRANCH 19 24
ATOM     24  N   LEU C 675      29.998   0.915  21.526  0.88 15.36 LIG-0.35  N 
ATOM     25 H    LEU C 675      30.428   1.657  21.464  0.88 15.36 LIG 0.16  HD
ATOM     26  C   ALA C 674      30.110  -0.016  20.587  0.61 16.05 LIG 0.26  C 
ATOM     27 O    ALA C 674      29.435  -1.052  20.605  0.70 15.91 LIG-0.27  OA
BRANCH 26 28
ATOM     28  CA  ALA C 674      31.103   0.343  19.504  0.67 16.10 LIG 0.40  C 
ATOM     29  CB  ALA C 674      30.497   0.962  18.288  0.67 16.22 LIG 0.06  C 
ATOM     30  N   ALA C 674      32.077  -0.703  19.203  0.74 16.71 LIG 0.61  N 
ENDBRANCH 26 28
ENDBRANCH 19 24
ENDBRANCH 1 19
TORSDOF 11
ENDMDL
MODEL 12
USER: ADFR SOLUTION from run 54
USER: SCORE 11.091143 LL:  -1.897 LR:  -9.820 RR:   0.000 FEB:  -6.538
USER: RMSD 4.305226
USER: SEED 53
USER: STATUS no improvement in best in 3 clusters for 5 generations
USER: GENES 13
USER: genes 0 Translation |==|  0.49971 0.52519 0.44771
USER: genes 1 Rotation |==|  0.55173 0.52701 0.42603 0.99104
USER: genes 2 Torsion [C]-N--CA-[CB] |==|  0.47222
USER: genes 3 Torsion [N]-CA--C-[N] |==|  0.46555
USER: genes 4 Torsion [C]-N--CA-[C] |==|  0.28220
USER: genes 5 Torsion [N]-CA--C-[O] |==|  0.95284
USER: genes 6 Torsion [N]-CA--CB-[CG] |==|  0.66144
USER: genes 7 Torsion [CA]-CB--CG-[CD1] |==|  0.94219
USER: genes 8 Torsion [N]-C--CA-[N] |==|  0.89900
USER: genes 9 Torsion [C]-CA--CB-[CG] |==|  0.24951
USER: genes 10 Torsion [CA]-CB--CG-[CD1] |==|  0.79523
USER: genes 11 Torsion [C]-CA--N-[C] |==|  0.81124
USER: genes 12 Torsion [N]-C--CA-[N] |==|  0.29505
ROOT
ATOM      1  C   LEU C 675      26.164   3.771  19.720  1.00 14.56 LIG 0.24  C 
ATOM      2 O    LEU C 675      26.924   3.658  20.701  0.66 14.97 LIG-0.27  OA
ATOM      3  N   ALA C 676      24.840   3.792  19.868  0.83 13.84 LIG-0.35  N 
ATOM      4 H    ALA C 676      24.304   3.869  19.200  0.83 13.84 LIG 0.16  HD
ENDROOT
BRANCH 3 5
ATOM      5  CA  ALA C 676      24.137   3.691  21.155  1.00 13.04 LIG 0.17  C 
ATOM      6  CB  ALA C 676      22.664   3.993  20.982  0.89 13.68 LIG 0.04  C 
BRANCH 5 7
ATOM      7  C   ALA C 676      24.438   2.382  21.849  0.69 12.60 LIG 0.24  C 
ATOM      8 O    ALA C 676      25.065   1.455  21.295  0.52 12.22 LIG-0.27  OA
ATOM      9  N   LEU C 677      24.050   2.325  23.129  0.89 12.12 LIG-0.34  N 
ATOM     10 H    LEU C 677      23.622   2.959  23.522  0.89 12.12 LIG 0.16  HD
BRANCH 9 11
ATOM     11  CA  LEU C 677      24.314   1.181  23.982  0.93 11.78 LIG 0.18  C 
BRANCH 11 12
ATOM     12  C   LEU C 677      25.411   1.228  24.960  0.42 11.73 LIG 0.20  C 
ATOM     13 O    LEU C 677      26.341   2.098  24.885  0.84 11.50 LIG-0.65  OA
ATOM     14 OXT  LEU C 677      25.469   0.374  25.891  0.55 11.71 LIG-0.65  OA
ENDBRANCH 11 12
BRANCH 11 15
ATOM     15  CB  LEU C 677      23.792  -0.078  23.347  1.00 11.60 LIG 0.04  C 
BRANCH 15 16
ATOM     16  CG  LEU C 677      22.785  -0.993  23.976  0.82 11.89 LIG-0.02  C 
ATOM     17  CD2 LEU C 677      21.356  -0.751  23.467  0.78 11.63 LIG 0.01  C 
ATOM     18  CD1 LEU C 677      22.766  -0.763  25.512  1.00 11.42 LIG 0.01  C 
ENDBRANCH 15 16
ENDBRANCH 11 15
ENDBRANCH 9 11
ENDBRANCH 5 7
ENDBRANCH 3 5
BRANCH 1 19
ATOM     19  CA  LEU C 675      26.640   3.869  18.291  0.78 15.17 LIG 0.18  C 
BRANCH 19 20
ATOM     20  CB  LEU C 675      26.784   5.302  17.731  0.53 15.14 LIG 0.04  C 
BRANCH 20 21
ATOM     21  CG  LEU C 675      28.032   6.101  17.830  0.32 15.05 LIG-0.02  C 
ATOM     22  CD1 LEU C 675      28.327   6.646  19.229  0.18 15.17 LIG 0.01  C 
ATOM     23  CD2 LEU C 675      29.201   5.166  17.425  0.37 15.02 LIG 0.01  C 
ENDBRANCH 20 21
ENDBRANCH 19 20
BRANCH 19 24
ATOM     24  N   LEU C 675      25.795   3.176  17.343  0.88 15.36 LIG-0.35  N 
ATOM     25 H    LEU C 675      25.390   3.726  16.821  0.88 15.36 LIG 0.16  HD
ATOM     26  C   ALA C 674      25.611   1.867  17.224  0.61 16.05 LIG 0.26  C 
ATOM     27 O    ALA C 674      26.108   1.059  18.017  0.70 15.91 LIG-0.27  OA
BRANCH 26 28
ATOM     28  CA  ALA C 674      24.717   1.492  16.063  0.67 16.10 LIG 0.40  C 
ATOM     29  CB  ALA C 674      23.480   0.749  16.447  0.67 16.22 LIG 0.06  C 
ATOM     30  N   ALA C 674      25.418   0.908  14.922  0.74 16.71 LIG 0.61  N 
ENDBRANCH 26 28
ENDBRANCH 19 24
ENDBRANCH 1 19
TORSDOF 11
ENDMDL
MODEL 13
USER: ADFR SOLUTION from run 41
USER: SCORE 11.508297 LL:  -1.978 LR:  -9.729 RR:   0.000 FEB:  -6.448
USER: RMSD 4.452519
USER: SEED 40
USER: STATUS no improvement in best in 6 clusters for 5 generations
USER: GENES 13
USER: genes 0 Translation |==|  0.38930 0.43559 0.56684
USER: genes 1 Rotation |==|  0.67009 0.76435 0.16207 0.69233
USER: genes 2 Torsion [C]-N--CA-[CB] |==|  0.87660
USER: genes 3 Torsion [N]-CA--C-[N] |==|  0.87778
USER: genes 4 Torsion [C]-N--CA-[C] |==|  0.23097
USER: genes 5 Torsion [N]-CA--C-[O] |==|  0.55932
USER: genes 6 Torsion [N]-CA--CB-[CG] |==|  0.44284
USER: genes 7 Torsion [CA]-CB--CG-[CD1] |==|  0.22573
USER: genes 8 Torsion [N]-C--CA-[N] |==|  0.37370
USER: genes 9 Torsion [C]-CA--CB-[CG] |==|  0.77200
USER: genes 10 Torsion [CA]-CB--CG-[CD1] |==|  0.20001
USER: genes 11 Torsion [C]-CA--N-[C] |==|  0.82297
USER: genes 12 Torsion [N]-C--CA-[N] |==|  0.85763
ROOT
ATOM      1  C   LEU C 675      24.425   2.360  21.953  1.00 14.56 LIG 0.24  C 
ATOM      2 O    LEU C 675      24.349   1.203  21.495  0.66 14.97 LIG-0.27  OA
ATOM      3  N   ALA C 676      24.721   2.578  23.235  0.83 13.84 LIG-0.35  N 
ATOM      4 H    ALA C 676      24.777   3.369  23.564  0.83 13.84 LIG 0.16  HD
ENDROOT
BRANCH 3 5
ATOM      5  CA  ALA C 676      24.984   1.526  24.227  1.00 13.04 LIG 0.17  C 
ATOM      6  CB  ALA C 676      23.966   0.412  24.105  0.89 13.68 LIG 0.04  C 
BRANCH 5 7
ATOM      7  C   ALA C 676      26.426   1.075  24.187  0.69 12.60 LIG 0.24  C 
ATOM      8 O    ALA C 676      27.082   0.825  25.220  0.52 12.22 LIG-0.27  OA
ATOM      9  N   LEU C 677      26.920   0.889  22.957  0.89 12.12 LIG-0.34  N 
ATOM     10 H    LEU C 677      26.475   1.053  22.239  0.89 12.12 LIG 0.16  HD
BRANCH 9 11
ATOM     11  CA  LEU C 677      28.260   0.390  22.714  0.93 11.78 LIG 0.18  C 
BRANCH 11 12
ATOM     12  C   LEU C 677      28.526  -1.056  22.742  0.42 11.73 LIG 0.20  C 
ATOM     13 O    LEU C 677      29.698  -1.520  22.934  0.84 11.50 LIG-0.65  OA
ATOM     14 OXT  LEU C 677      27.586  -1.878  22.543  0.55 11.71 LIG-0.65  OA
ENDBRANCH 11 12
BRANCH 11 15
ATOM     15  CB  LEU C 677      29.279   1.450  23.029  1.00 11.60 LIG 0.04  C 
BRANCH 15 16
ATOM     16  CG  LEU C 677      30.725   1.180  23.320  0.82 11.89 LIG-0.02  C 
ATOM     17  CD2 LEU C 677      31.408   2.328  24.076  0.78 11.63 LIG 0.01  C 
ATOM     18  CD1 LEU C 677      31.495   0.993  21.983  1.00 11.42 LIG 0.01  C 
ENDBRANCH 15 16
ENDBRANCH 11 15
ENDBRANCH 9 11
ENDBRANCH 5 7
ENDBRANCH 3 5
BRANCH 1 19
ATOM     19  CA  LEU C 675      24.177   3.607  21.142  0.78 15.17 LIG 0.18  C 
BRANCH 19 20
ATOM     20  CB  LEU C 675      22.696   3.920  20.833  0.53 15.14 LIG 0.04  C 
BRANCH 20 21
ATOM     21  CG  LEU C 675      21.938   3.292  19.721  0.32 15.05 LIG-0.02  C 
ATOM     22  CD1 LEU C 675      21.588   1.820  19.946  0.18 15.17 LIG 0.01  C 
ATOM     23  CD2 LEU C 675      20.612   4.081  19.575  0.37 15.02 LIG 0.01  C 
ENDBRANCH 20 21
ENDBRANCH 19 20
BRANCH 19 24
ATOM     24  N   LEU C 675      24.841   3.613  19.857  0.88 15.36 LIG-0.35  N 
ATOM     25 H    LEU C 675      24.275   3.625  19.210  0.88 15.36 LIG 0.16  HD
ATOM     26  C   ALA C 674      26.146   3.600  19.616  0.61 16.05 LIG 0.26  C 
ATOM     27 O    ALA C 674      26.980   3.490  20.522  0.70 15.91 LIG-0.27  OA
BRANCH 26 28
ATOM     28  CA  ALA C 674      26.484   3.696  18.145  0.67 16.10 LIG 0.40  C 
ATOM     29  CB  ALA C 674      26.478   5.084  17.596  0.67 16.22 LIG 0.06  C 
ATOM     30  N   ALA C 674      25.786   2.731  17.299  0.74 16.71 LIG 0.61  N 
ENDBRANCH 26 28
ENDBRANCH 19 24
ENDBRANCH 1 19
TORSDOF 11
ENDMDL
MODEL 14
USER: ADFR SOLUTION from run 150
USER: SCORE 10.194834 LL:  -1.848 LR:  -9.716 RR:   0.000 FEB:  -6.435
USER: RMSD 7.232522
USER: SEED 149
USER: STATUS no improvement in best in 11 clusters for 5 generations
USER: GENES 13
USER: genes 0 Translation |==|  0.37849 0.38665 0.57371
USER: genes 1 Rotation |==|  0.66179 0.08708 0.31890 0.64325
USER: genes 2 Torsion [C]-N--CA-[CB] |==|  0.16410
USER: genes 3 Torsion [N]-CA--C-[N] |==|  0.45111
USER: genes 4 Torsion [C]-N--CA-[C] |==|  0.28839
USER: genes 5 Torsion [N]-CA--C-[O] |==|  0.84337
USER: genes 6 Torsion [N]-CA--CB-[CG] |==|  0.47408
USER: genes 7 Torsion [CA]-CB--CG-[CD1] |==|  0.52951
USER: genes 8 Torsion [N]-C--CA-[N] |==|  0.04445
USER: genes 9 Torsion [C]-CA--CB-[CG] |==|  0.18679
USER: genes 10 Torsion [CA]-CB--CG-[CD1] |==|  0.10974
USER: genes 11 Torsion [C]-CA--N-[C] |==|  0.18405
USER: genes 12 Torsion [N]-C--CA-[N] |==|  0.16289
ROOT
ATOM      1  C   LEU C 675      24.255   1.589  22.082  1.00 14.56 LIG 0.24  C 
ATOM      2 O    LEU C 675      23.033   1.720  21.877  0.66 14.97 LIG-0.27  OA
ATOM      3  N   ALA C 676      25.147   2.373  21.476  0.83 13.84 LIG-0.35  N 
ATOM      4 H    ALA C 676      25.993   2.293  21.609  0.83 13.84 LIG 0.16  HD
ENDROOT
BRANCH 3 5
ATOM      5  CA  ALA C 676      24.816   3.448  20.530  1.00 13.04 LIG 0.17  C 
ATOM      6  CB  ALA C 676      23.918   4.476  21.184  0.89 13.68 LIG 0.04  C 
BRANCH 5 7
ATOM      7  C   ALA C 676      26.057   4.012  19.877  0.69 12.60 LIG 0.24  C 
ATOM      8 O    ALA C 676      27.207   3.781  20.305  0.52 12.22 LIG-0.27  OA
ATOM      9  N   LEU C 677      25.831   4.714  18.760  0.89 12.12 LIG-0.34  N 
ATOM     10 H    LEU C 677      25.044   4.875  18.454  0.89 12.12 LIG 0.16  HD
BRANCH 9 11
ATOM     11  CA  LEU C 677      26.899   5.275  17.953  0.93 11.78 LIG 0.18  C 
BRANCH 11 12
ATOM     12  C   LEU C 677      27.282   4.633  16.688  0.42 11.73 LIG 0.20  C 
ATOM     13 O    LEU C 677      27.638   3.409  16.636  0.84 11.50 LIG-0.65  OA
ATOM     14 OXT  LEU C 677      27.296   5.301  15.614  0.55 11.71 LIG-0.65  OA
ENDBRANCH 11 12
BRANCH 11 15
ATOM     15  CB  LEU C 677      27.826   6.095  18.807  1.00 11.60 LIG 0.04  C 
BRANCH 15 16
ATOM     16  CG  LEU C 677      29.139   6.652  18.345  0.82 11.89 LIG-0.02  C 
ATOM     17  CD2 LEU C 677      30.032   5.599  17.673  0.78 11.63 LIG 0.01  C 
ATOM     18  CD1 LEU C 677      29.925   7.204  19.566  1.00 11.42 LIG 0.01  C 
ENDBRANCH 15 16
ENDBRANCH 11 15
ENDBRANCH 9 11
ENDBRANCH 5 7
ENDBRANCH 3 5
BRANCH 1 19
ATOM     19  CA  LEU C 675      24.850   0.544  22.994  0.78 15.17 LIG 0.18  C 
BRANCH 19 20
ATOM     20  CB  LEU C 675      24.123   0.340  24.341  0.53 15.14 LIG 0.04  C 
BRANCH 20 21
ATOM     21  CG  LEU C 675      22.755  -0.228  24.459  0.32 15.05 LIG-0.02  C 
ATOM     22  CD1 LEU C 675      22.465  -1.386  23.502  0.18 15.17 LIG 0.01  C 
ATOM     23  CD2 LEU C 675      22.608  -0.758  25.909  0.37 15.02 LIG 0.01  C 
ENDBRANCH 20 21
ENDBRANCH 19 20
BRANCH 19 24
ATOM     24  N   LEU C 675      26.232   0.791  23.344  0.88 15.36 LIG-0.35  N 
ATOM     25 H    LEU C 675      26.753   0.190  23.015  0.88 15.36 LIG 0.16  HD
ATOM     26  C   ALA C 674      26.720   1.787  24.073  0.61 16.05 LIG 0.26  C 
ATOM     27 O    ALA C 674      25.988   2.611  24.633  0.70 15.91 LIG-0.27  OA
BRANCH 26 28
ATOM     28  CA  ALA C 674      28.230   1.775  24.167  0.67 16.10 LIG 0.40  C 
ATOM     29  CB  ALA C 674      28.794   2.693  25.201  0.67 16.22 LIG 0.06  C 
ATOM     30  N   ALA C 674      28.918   1.851  22.881  0.74 16.71 LIG 0.61  N 
ENDBRANCH 26 28
ENDBRANCH 19 24
ENDBRANCH 1 19
TORSDOF 11
ENDMDL
MODEL 15
USER: ADFR SOLUTION from run 110
USER: SCORE 9.987583 LL:  -2.024 LR:  -9.715 RR:   0.000 FEB:  -6.434
USER: RMSD 6.613813
USER: SEED 109
USER: STATUS no improvement in best in 11 clusters for 5 generations
USER: GENES 13
USER: genes 0 Translation |==|  0.57014 0.39380 0.71520
USER: genes 1 Rotation |==|  0.51997 0.28214 0.45514 0.94735
USER: genes 2 Torsion [C]-N--CA-[CB] |==|  0.39910
USER: genes 3 Torsion [N]-CA--C-[N] |==|  0.74718
USER: genes 4 Torsion [C]-N--CA-[C] |==|  0.67003
USER: genes 5 Torsion [N]-CA--C-[O] |==|  0.54571
USER: genes 6 Torsion [N]-CA--CB-[CG] |==|  0.67176
USER: genes 7 Torsion [CA]-CB--CG-[CD1] |==|  0.38247
USER: genes 8 Torsion [N]-C--CA-[N] |==|  0.00000
USER: genes 9 Torsion [C]-CA--CB-[CG] |==|  0.44925
USER: genes 10 Torsion [CA]-CB--CG-[CD1] |==|  0.12906
USER: genes 11 Torsion [C]-CA--N-[C] |==|  0.71967
USER: genes 12 Torsion [N]-C--CA-[N] |==|  0.42522
ROOT
ATOM      1  C   LEU C 675      27.274   1.701  24.735  1.00 14.56 LIG 0.24  C 
ATOM      2 O    LEU C 675      26.870   1.889  25.899  0.66 14.97 LIG-0.27  OA
ATOM      3  N   ALA C 676      26.422   1.607  23.714  0.83 13.84 LIG-0.35  N 
ATOM      4 H    ALA C 676      26.686   1.478  22.907  0.83 13.84 LIG 0.16  HD
ENDROOT
BRANCH 3 5
ATOM      5  CA  ALA C 676      24.960   1.710  23.828  1.00 13.04 LIG 0.17  C 
ATOM      6  CB  ALA C 676      24.381   2.423  22.624  0.89 13.68 LIG 0.04  C 
BRANCH 5 7
ATOM      7  C   ALA C 676      24.332   0.369  24.132  0.69 12.60 LIG 0.24  C 
ATOM      8 O    ALA C 676      24.101  -0.017  25.296  0.52 12.22 LIG-0.27  OA
ATOM      9  N   LEU C 677      23.973  -0.338  23.053  0.89 12.12 LIG-0.34  N 
ATOM     10 H    LEU C 677      24.123  -0.079  22.247  0.89 12.12 LIG 0.16  HD
BRANCH 9 11
ATOM     11  CA  LEU C 677      23.292  -1.616  23.140  0.93 11.78 LIG 0.18  C 
BRANCH 11 12
ATOM     12  C   LEU C 677      23.921  -2.825  22.588  0.42 11.73 LIG 0.20  C 
ATOM     13 O    LEU C 677      23.252  -3.888  22.364  0.84 11.50 LIG-0.65  OA
ATOM     14 OXT  LEU C 677      25.163  -2.844  22.351  0.55 11.71 LIG-0.65  OA
ENDBRANCH 11 12
BRANCH 11 15
ATOM     15  CB  LEU C 677      21.809  -1.413  23.274  1.00 11.60 LIG 0.04  C 
BRANCH 15 16
ATOM     16  CG  LEU C 677      20.993  -1.854  24.451  0.82 11.89 LIG-0.02  C 
ATOM     17  CD2 LEU C 677      20.180  -3.126  24.173  0.78 11.63 LIG 0.01  C 
ATOM     18  CD1 LEU C 677      19.978  -0.738  24.824  1.00 11.42 LIG 0.01  C 
ENDBRANCH 15 16
ENDBRANCH 11 15
ENDBRANCH 9 11
ENDBRANCH 5 7
ENDBRANCH 3 5
BRANCH 1 19
ATOM     19  CA  LEU C 675      28.726   1.540  24.361  0.78 15.17 LIG 0.18  C 
BRANCH 19 20
ATOM     20  CB  LEU C 675      29.647   2.726  24.723  0.53 15.14 LIG 0.04  C 
BRANCH 20 21
ATOM     21  CG  LEU C 675      31.126   2.624  24.806  0.32 15.05 LIG-0.02  C 
ATOM     22  CD1 LEU C 675      31.778   1.895  23.630  0.18 15.17 LIG 0.01  C 
ATOM     23  CD2 LEU C 675      31.679   4.072  24.836  0.37 15.02 LIG 0.01  C 
ENDBRANCH 20 21
ENDBRANCH 19 20
BRANCH 19 24
ATOM     24  N   LEU C 675      28.946   1.309  22.949  0.88 15.36 LIG-0.35  N 
ATOM     25 H    LEU C 675      28.900   2.041  22.500  0.88 15.36 LIG 0.16  HD
ATOM     26  C   ALA C 674      29.191   0.154  22.343  0.61 16.05 LIG 0.26  C 
ATOM     27 O    ALA C 674      29.172  -0.923  22.950  0.70 15.91 LIG-0.27  OA
BRANCH 26 28
ATOM     28  CA  ALA C 674      29.452   0.300  20.860  0.67 16.10 LIG 0.40  C 
ATOM     29  CB  ALA C 674      28.238   0.602  20.045  0.67 16.22 LIG 0.06  C 
ATOM     30  N   ALA C 674      30.295  -0.745  20.287  0.74 16.71 LIG 0.61  N 
ENDBRANCH 26 28
ENDBRANCH 19 24
ENDBRANCH 1 19
TORSDOF 11
ENDMDL
MODEL 16
USER: ADFR SOLUTION from run 127
USER: SCORE 11.033423 LL:  -2.297 LR:  -9.646 RR:   0.000 FEB:  -6.365
USER: RMSD 5.029849
USER: SEED 126
USER: STATUS no improvement in best in 9 clusters for 5 generations
USER: GENES 13
USER: genes 0 Translation |==|  0.55376 0.49876 0.34174
USER: genes 1 Rotation |==|  0.65675 0.92222 0.31878 0.61966
USER: genes 2 Torsion [C]-N--CA-[CB] |==|  0.17778
USER: genes 3 Torsion [N]-CA--C-[N] |==|  0.06690
USER: genes 4 Torsion [C]-N--CA-[C] |==|  0.83485
USER: genes 5 Torsion [N]-CA--C-[O] |==|  0.83392
USER: genes 6 Torsion [N]-CA--CB-[CG] |==|  0.50295
USER: genes 7 Torsion [CA]-CB--CG-[CD1] |==|  0.34233
USER: genes 8 Torsion [N]-C--CA-[N] |==|  0.82909
USER: genes 9 Torsion [C]-CA--CB-[CG] |==|  0.06896
USER: genes 10 Torsion [CA]-CB--CG-[CD1] |==|  0.19911
USER: genes 11 Torsion [C]-CA--N-[C] |==|  0.18729
USER: genes 12 Torsion [N]-C--CA-[N] |==|  0.76022
ROOT
ATOM      1  C   LEU C 675      27.016   3.354  17.733  1.00 14.56 LIG 0.24  C 
ATOM      2 O    LEU C 675      26.989   2.951  16.554  0.66 14.97 LIG-0.27  OA
ATOM      3  N   ALA C 676      27.661   2.676  18.682  0.83 13.84 LIG-0.35  N 
ATOM      4 H    ALA C 676      27.687   2.942  19.499  0.83 13.84 LIG 0.16  HD
ENDROOT
BRANCH 3 5
ATOM      5  CA  ALA C 676      28.392   1.419  18.467  1.00 13.04 LIG 0.17  C 
ATOM      6  CB  ALA C 676      29.567   1.639  17.538  0.89 13.68 LIG 0.04  C 
BRANCH 5 7
ATOM      7  C   ALA C 676      28.737   0.749  19.778  0.69 12.60 LIG 0.24  C 
ATOM      8 O    ALA C 676      29.730   0.004  19.912  0.52 12.22 LIG-0.27  OA
ATOM      9  N   LEU C 677      27.940   1.080  20.801  0.89 12.12 LIG-0.34  N 
ATOM     10 H    LEU C 677      27.257   1.596  20.721  0.89 12.12 LIG 0.16  HD
BRANCH 9 11
ATOM     11  CA  LEU C 677      28.153   0.596  22.153  0.93 11.78 LIG 0.18  C 
BRANCH 11 12
ATOM     12  C   LEU C 677      28.147  -0.848  22.428  0.42 11.73 LIG 0.20  C 
ATOM     13 O    LEU C 677      27.128  -1.576  22.183  0.84 11.50 LIG-0.65  OA
ATOM     14 OXT  LEU C 677      29.159  -1.400  22.950  0.55 11.71 LIG-0.65  OA
ENDBRANCH 11 12
BRANCH 11 15
ATOM     15  CB  LEU C 677      27.783   1.655  23.153  1.00 11.60 LIG 0.04  C 
BRANCH 15 16
ATOM     16  CG  LEU C 677      27.901   1.500  24.639  0.82 11.89 LIG-0.02  C 
ATOM     17  CD2 LEU C 677      26.549   1.595  25.360  0.78 11.63 LIG 0.01  C 
ATOM     18  CD1 LEU C 677      28.800   2.632  25.208  1.00 11.42 LIG 0.01  C 
ENDBRANCH 15 16
ENDBRANCH 11 15
ENDBRANCH 9 11
ENDBRANCH 5 7
ENDBRANCH 3 5
BRANCH 1 19
ATOM     19  CA  LEU C 675      26.323   4.606  18.212  0.78 15.17 LIG 0.18  C 
BRANCH 19 20
ATOM     20  CB  LEU C 675      27.240   5.679  18.840  0.53 15.14 LIG 0.04  C 
BRANCH 20 21
ATOM     21  CG  LEU C 675      28.687   5.808  18.530  0.32 15.05 LIG-0.02  C 
ATOM     22  CD1 LEU C 675      28.989   6.348  17.131  0.18 15.17 LIG 0.01  C 
ATOM     23  CD2 LEU C 675      29.284   6.797  19.563  0.37 15.02 LIG 0.01  C 
ENDBRANCH 20 21
ENDBRANCH 19 20
BRANCH 19 24
ATOM     24  N   LEU C 675      25.293   4.364  19.200  0.88 15.36 LIG-0.35  N 
ATOM     25 H    LEU C 675      24.511   4.543  18.890  0.88 15.36 LIG 0.16  HD
ATOM     26  C   ALA C 674      25.446   3.925  20.443  0.61 16.05 LIG 0.26  C 
ATOM     27 O    ALA C 674      26.563   3.749  20.944  0.70 15.91 LIG-0.27  OA
BRANCH 26 28
ATOM     28  CA  ALA C 674      24.136   3.710  21.167  0.67 16.10 LIG 0.40  C 
ATOM     29  CB  ALA C 674      23.113   2.953  20.385  0.67 16.22 LIG 0.06  C 
ATOM     30  N   ALA C 674      23.604   4.901  21.825  0.74 16.71 LIG 0.61  N 
ENDBRANCH 26 28
ENDBRANCH 19 24
ENDBRANCH 1 19
TORSDOF 11
ENDMDL
MODEL 17
USER: ADFR SOLUTION from run 182
USER: SCORE 11.358993 LL:  -2.460 LR:  -9.620 RR:   0.000 FEB:  -6.339
USER: RMSD 7.002241
USER: SEED 181
USER: STATUS no improvement in best in 9 clusters for 5 generations
USER: GENES 13
USER: genes 0 Translation |==|  0.57764 0.34271 0.50023
USER: genes 1 Rotation |==|  0.60632 0.04617 0.49435 0.68083
USER: genes 2 Torsion [C]-N--CA-[CB] |==|  0.81034
USER: genes 3 Torsion [N]-CA--C-[N] |==|  0.10698
USER: genes 4 Torsion [C]-N--CA-[C] |==|  0.74535
USER: genes 5 Torsion [N]-CA--C-[O] |==|  0.17453
USER: genes 6 Torsion [N]-CA--CB-[CG] |==|  0.86934
USER: genes 7 Torsion [CA]-CB--CG-[CD1] |==|  0.56264
USER: genes 8 Torsion [N]-C--CA-[N] |==|  0.99913
USER: genes 9 Torsion [C]-CA--CB-[CG] |==|  0.45981
USER: genes 10 Torsion [CA]-CB--CG-[CD1] |==|  0.28091
USER: genes 11 Torsion [C]-CA--N-[C] |==|  0.68889
USER: genes 12 Torsion [N]-C--CA-[N] |==|  0.74934
ROOT
ATOM      1  C   LEU C 675      27.392   0.897  20.704  1.00 14.56 LIG 0.24  C 
ATOM      2 O    LEU C 675      26.189   0.794  20.396  0.66 14.97 LIG-0.27  OA
ATOM      3  N   ALA C 676      28.331   1.078  19.776  0.83 13.84 LIG-0.35  N 
ATOM      4 H    ALA C 676      29.164   1.150  19.974  0.83 13.84 LIG 0.16  HD
ENDROOT
BRANCH 3 5
ATOM      5  CA  ALA C 676      28.077   1.177  18.331  1.00 13.04 LIG 0.17  C 
ATOM      6  CB  ALA C 676      27.611  -0.154  17.780  0.89 13.68 LIG 0.04  C 
BRANCH 5 7
ATOM      7  C   ALA C 676      27.178   2.348  18.006  0.69 12.60 LIG 0.24  C 
ATOM      8 O    ALA C 676      26.248   2.273  17.177  0.52 12.22 LIG-0.27  OA
ATOM      9  N   LEU C 677      27.408   3.448  18.734  0.89 12.12 LIG-0.34  N 
ATOM     10 H    LEU C 677      28.043   3.508  19.312  0.89 12.12 LIG 0.16  HD
BRANCH 9 11
ATOM     11  CA  LEU C 677      26.604   4.650  18.619  0.93 11.78 LIG 0.18  C 
BRANCH 11 12
ATOM     12  C   LEU C 677      26.998   5.713  17.682  0.42 11.73 LIG 0.20  C 
ATOM     13 O    LEU C 677      27.048   5.515  16.423  0.84 11.50 LIG-0.65  OA
ATOM     14 OXT  LEU C 677      27.330   6.853  18.118  0.55 11.71 LIG-0.65  OA
ENDBRANCH 11 12
BRANCH 11 15
ATOM     15  CB  LEU C 677      25.811   4.874  19.876  1.00 11.60 LIG 0.04  C 
BRANCH 15 16
ATOM     16  CG  LEU C 677      25.015   3.816  20.579  0.82 11.89 LIG-0.02  C 
ATOM     17  CD2 LEU C 677      24.299   2.863  19.610  0.78 11.63 LIG 0.01  C 
ATOM     18  CD1 LEU C 677      23.918   4.488  21.450  1.00 11.42 LIG 0.01  C 
ENDBRANCH 15 16
ENDBRANCH 11 15
ENDBRANCH 9 11
ENDBRANCH 5 7
ENDBRANCH 3 5
BRANCH 1 19
ATOM     19  CA  LEU C 675      27.912   0.806  22.118  0.78 15.17 LIG 0.18  C 
BRANCH 19 20
ATOM     20  CB  LEU C 675      27.347   1.852  23.106  0.53 15.14 LIG 0.04  C 
BRANCH 20 21
ATOM     21  CG  LEU C 675      27.484   1.746  24.581  0.32 15.05 LIG-0.02  C 
ATOM     22  CD1 LEU C 675      28.585   2.624  25.179  0.18 15.17 LIG 0.01  C 
ATOM     23  CD2 LEU C 675      26.132   2.192  25.194  0.37 15.02 LIG 0.01  C 
ENDBRANCH 20 21
ENDBRANCH 19 20
BRANCH 19 24
ATOM     24  N   LEU C 675      29.350   0.926  22.222  0.88 15.36 LIG-0.35  N 
ATOM     25 H    LEU C 675      29.616   1.718  22.018  0.88 15.36 LIG 0.16  HD
ATOM     26  C   ALA C 674      30.219  -0.012  22.578  0.61 16.05 LIG 0.26  C 
ATOM     27 O    ALA C 674      29.875  -1.181  22.787  0.70 15.91 LIG-0.27  OA
BRANCH 26 28
ATOM     28  CA  ALA C 674      31.643   0.492  22.658  0.67 16.10 LIG 0.40  C 
ATOM     29  CB  ALA C 674      31.794   1.820  23.324  0.67 16.22 LIG 0.06  C 
ATOM     30  N   ALA C 674      32.399   0.374  21.413  0.74 16.71 LIG 0.61  N 
ENDBRANCH 26 28
ENDBRANCH 19 24
ENDBRANCH 1 19
TORSDOF 11
ENDMDL
MODEL 18
USER: ADFR SOLUTION from run 9
USER: SCORE 11.031998 LL:  -2.308 LR:  -9.553 RR:   0.000 FEB:  -6.271
USER: RMSD 5.424545
USER: SEED 182383
USER: STATUS no improvement in best in 4 clusters for 5 generations
USER: GENES 13
USER: genes 0 Translation |==|  0.70408 0.30265 0.59588
USER: genes 1 Rotation |==|  0.53603 0.58571 0.25174 0.92394
USER: genes 2 Torsion [C]-N--CA-[CB] |==|  0.26532
USER: genes 3 Torsion [N]-CA--C-[N] |==|  0.02712
USER: genes 4 Torsion [C]-N--CA-[C] |==|  0.76985
USER: genes 5 Torsion [N]-CA--C-[O] |==|  0.64253
USER: genes 6 Torsion [N]-CA--CB-[CG] |==|  0.07215
USER: genes 7 Torsion [CA]-CB--CG-[CD1] |==|  0.48353
USER: genes 8 Torsion [N]-C--CA-[N] |==|  0.43793
USER: genes 9 Torsion [C]-CA--CB-[CG] |==|  0.96992
USER: genes 10 Torsion [CA]-CB--CG-[CD1] |==|  0.44226
USER: genes 11 Torsion [C]-CA--N-[C] |==|  0.62010
USER: genes 12 Torsion [N]-C--CA-[N] |==|  0.82715
ROOT
ATOM      1  C   LEU C 675      29.383   0.266  22.498  1.00 14.56 LIG 0.24  C 
ATOM      2 O    LEU C 675      30.155  -0.390  23.224  0.66 14.97 LIG-0.27  OA
ATOM      3  N   ALA C 676      28.511   1.129  23.017  0.83 13.84 LIG-0.35  N 
ATOM      4 H    ALA C 676      27.973   1.588  22.529  0.83 13.84 LIG 0.16  HD
ENDROOT
BRANCH 3 5
ATOM      5  CA  ALA C 676      28.356   1.406  24.453  1.00 13.04 LIG 0.17  C 
ATOM      6  CB  ALA C 676      29.162   2.624  24.850  0.89 13.68 LIG 0.04  C 
BRANCH 5 7
ATOM      7  C   ALA C 676      26.898   1.453  24.853  0.69 12.60 LIG 0.24  C 
ATOM      8 O    ALA C 676      26.516   1.909  25.950  0.52 12.22 LIG-0.27  OA
ATOM      9  N   LEU C 677      26.046   1.039  23.907  0.89 12.12 LIG-0.34  N 
ATOM     10 H    LEU C 677      26.298   0.727  23.146  0.89 12.12 LIG 0.16  HD
BRANCH 9 11
ATOM     11  CA  LEU C 677      24.605   1.075  24.076  0.93 11.78 LIG 0.18  C 
BRANCH 11 12
ATOM     12  C   LEU C 677      23.919  -0.010  24.792  0.42 11.73 LIG 0.20  C 
ATOM     13 O    LEU C 677      22.915  -0.617  24.290  0.84 11.50 LIG-0.65  OA
ATOM     14 OXT  LEU C 677      24.299  -0.348  25.950  0.55 11.71 LIG-0.65  OA
ENDBRANCH 11 12
BRANCH 11 15
ATOM     15  CB  LEU C 677      23.973   1.924  23.008  1.00 11.60 LIG 0.04  C 
BRANCH 15 16
ATOM     16  CG  LEU C 677      24.570   2.173  21.656  0.82 11.89 LIG-0.02  C 
ATOM     17  CD2 LEU C 677      25.863   2.998  21.715  0.78 11.63 LIG 0.01  C 
ATOM     18  CD1 LEU C 677      23.560   2.970  20.784  1.00 11.42 LIG 0.01  C 
ENDBRANCH 15 16
ENDBRANCH 11 15
ENDBRANCH 9 11
ENDBRANCH 5 7
ENDBRANCH 3 5
BRANCH 1 19
ATOM     19  CA  LEU C 675      29.332   0.145  20.995  0.78 15.17 LIG 0.18  C 
BRANCH 19 20
ATOM     20  CB  LEU C 675      28.209  -0.756  20.434  0.53 15.14 LIG 0.04  C 
BRANCH 20 21
ATOM     21  CG  LEU C 675      27.376  -1.651  21.276  0.32 15.05 LIG-0.02  C 
ATOM     22  CD1 LEU C 675      26.044  -2.058  20.644  0.18 15.17 LIG 0.01  C 
ATOM     23  CD2 LEU C 675      28.202  -2.941  21.521  0.37 15.02 LIG 0.01  C 
ENDBRANCH 20 21
ENDBRANCH 19 20
BRANCH 19 24
ATOM     24  N   LEU C 675      30.553  -0.361  20.405  0.88 15.36 LIG-0.35  N 
ATOM     25 H    LEU C 675      30.869  -1.023  20.855  0.88 15.36 LIG 0.16  HD
ATOM     26  C   ALA C 674      31.173   0.078  19.317  0.61 16.05 LIG 0.26  C 
ATOM     27 O    ALA C 674      30.792   1.082  18.705  0.70 15.91 LIG-0.27  OA
BRANCH 26 28
ATOM     28  CA  ALA C 674      32.385  -0.747  18.946  0.67 16.10 LIG 0.40  C 
ATOM     29  CB  ALA C 674      32.070  -2.102  18.405  0.67 16.22 LIG 0.06  C 
ATOM     30  N   ALA C 674      33.446  -0.751  19.950  0.74 16.71 LIG 0.61  N 
ENDBRANCH 26 28
ENDBRANCH 19 24
ENDBRANCH 1 19
TORSDOF 11
ENDMDL
MODEL 19
USER: ADFR SOLUTION from run 96
USER: SCORE 10.169825 LL:  -2.399 LR:  -9.548 RR:   0.000 FEB:  -6.266
USER: RMSD 4.845419
USER: SEED 95
USER: STATUS no improvement in best in 10 clusters for 5 generations
USER: GENES 13
USER: genes 0 Translation |==|  0.42906 0.44565 0.55710
USER: genes 1 Rotation |==|  0.64882 0.80360 0.28002 0.79544
USER: genes 2 Torsion [C]-N--CA-[CB] |==|  0.38960
USER: genes 3 Torsion [N]-CA--C-[N] |==|  0.13242
USER: genes 4 Torsion [C]-N--CA-[C] |==|  0.72480
USER: genes 5 Torsion [N]-CA--C-[O] |==|  0.97772
USER: genes 6 Torsion [N]-CA--CB-[CG] |==|  0.56602
USER: genes 7 Torsion [CA]-CB--CG-[CD1] |==|  0.20589
USER: genes 8 Torsion [N]-C--CA-[N] |==|  0.43542
USER: genes 9 Torsion [C]-CA--CB-[CG] |==|  0.89000
USER: genes 10 Torsion [CA]-CB--CG-[CD1] |==|  0.53660
USER: genes 11 Torsion [C]-CA--N-[C] |==|  0.82778
USER: genes 12 Torsion [N]-C--CA-[N] |==|  0.41730
ROOT
ATOM      1  C   LEU C 675      25.052   2.518  21.771  1.00 14.56 LIG 0.24  C 
ATOM      2 O    LEU C 675      25.719   1.635  21.197  0.66 14.97 LIG-0.27  OA
ATOM      3  N   ALA C 676      24.920   2.533  23.097  0.83 13.84 LIG-0.35  N 
ATOM      4 H    ALA C 676      24.463   3.135  23.506  0.83 13.84 LIG 0.16  HD
ENDROOT
BRANCH 3 5
ATOM      5  CA  ALA C 676      25.520   1.552  24.012  1.00 13.04 LIG 0.17  C 
ATOM      6  CB  ALA C 676      26.036   2.234  25.260  0.89 13.68 LIG 0.04  C 
BRANCH 5 7
ATOM      7  C   ALA C 676      24.587   0.389  24.266  0.69 12.60 LIG 0.24  C 
ATOM      8 O    ALA C 676      24.294  -0.001  25.415  0.52 12.22 LIG-0.27  OA
ATOM      9  N   LEU C 677      24.039  -0.139  23.164  0.89 12.12 LIG-0.34  N 
ATOM     10 H    LEU C 677      24.230   0.126  22.368  0.89 12.12 LIG 0.16  HD
BRANCH 9 11
ATOM     11  CA  LEU C 677      23.066  -1.214  23.206  0.93 11.78 LIG 0.18  C 
BRANCH 11 12
ATOM     12  C   LEU C 677      23.489  -2.602  22.969  0.42 11.73 LIG 0.20  C 
ATOM     13 O    LEU C 677      24.669  -2.887  22.577  0.84 11.50 LIG-0.65  OA
ATOM     14 OXT  LEU C 677      22.668  -3.551  23.123  0.55 11.71 LIG-0.65  OA
ENDBRANCH 11 12
BRANCH 11 15
ATOM     15  CB  LEU C 677      21.687  -0.684  22.925  1.00 11.60 LIG 0.04  C 
BRANCH 15 16
ATOM     16  CG  LEU C 677      20.416  -1.344  23.366  0.82 11.89 LIG-0.02  C 
ATOM     17  CD2 LEU C 677      19.171  -0.770  22.674  0.78 11.63 LIG 0.01  C 
ATOM     18  CD1 LEU C 677      20.226  -1.133  24.893  1.00 11.42 LIG 0.01  C 
ENDBRANCH 15 16
ENDBRANCH 11 15
ENDBRANCH 9 11
ENDBRANCH 5 7
ENDBRANCH 3 5
BRANCH 1 19
ATOM     19  CA  LEU C 675      24.320   3.624  21.052  0.78 15.17 LIG 0.18  C 
BRANCH 19 20
ATOM     20  CB  LEU C 675      22.812   3.385  20.816  0.53 15.14 LIG 0.04  C 
BRANCH 20 21
ATOM     21  CG  LEU C 675      22.238   2.070  20.434  0.32 15.05 LIG-0.02  C 
ATOM     22  CD1 LEU C 675      20.788   2.128  19.948  0.18 15.17 LIG 0.01  C 
ATOM     23  CD2 LEU C 675      23.108   1.517  19.275  0.37 15.02 LIG 0.01  C 
ENDBRANCH 20 21
ENDBRANCH 19 20
BRANCH 19 24
ATOM     24  N   LEU C 675      24.861   3.934  19.746  0.88 15.36 LIG-0.35  N 
ATOM     25 H    LEU C 675      24.285   3.790  19.124  0.88 15.36 LIG 0.16  HD
ATOM     26  C   ALA C 674      26.076   4.384  19.456  0.61 16.05 LIG 0.26  C 
ATOM     27 O    ALA C 674      26.952   4.511  20.319  0.70 15.91 LIG-0.27  OA
BRANCH 26 28
ATOM     28  CA  ALA C 674      26.270   4.677  17.985  0.67 16.10 LIG 0.40  C 
ATOM     29  CB  ALA C 674      26.454   3.466  17.131  0.67 16.22 LIG 0.06  C 
ATOM     30  N   ALA C 674      27.226   5.743  17.700  0.74 16.71 LIG 0.61  N 
ENDBRANCH 26 28
ENDBRANCH 19 24
ENDBRANCH 1 19
TORSDOF 11
ENDMDL
MODEL 20
USER: ADFR SOLUTION from run 57
USER: SCORE 11.733783 LL:  -2.550 LR:  -9.530 RR:   0.000 FEB:  -6.249
USER: RMSD 6.450301
USER: SEED 56
USER: STATUS no improvement in best in 7 clusters for 5 generations
USER: GENES 13
USER: genes 0 Translation |==|  0.64645 0.36404 0.64708
USER: genes 1 Rotation |==|  0.14282 0.51775 0.75616 0.73768
USER: genes 2 Torsion [C]-N--CA-[CB] |==|  0.86741
USER: genes 3 Torsion [N]-CA--C-[N] |==|  0.86164
USER: genes 4 Torsion [C]-N--CA-[C] |==|  0.74673
USER: genes 5 Torsion [N]-CA--C-[O] |==|  0.40283
USER: genes 6 Torsion [N]-CA--CB-[CG] |==|  0.02251
USER: genes 7 Torsion [CA]-CB--CG-[CD1] |==|  0.17182
USER: genes 8 Torsion [N]-C--CA-[N] |==|  0.31778
USER: genes 9 Torsion [C]-CA--CB-[CG] |==|  0.44381
USER: genes 10 Torsion [CA]-CB--CG-[CD1] |==|  0.90554
USER: genes 11 Torsion [C]-CA--N-[C] |==|  0.76904
USER: genes 12 Torsion [N]-C--CA-[N] |==|  0.36433
ROOT
ATOM      1  C   LEU C 675      28.476   1.233  23.458  1.00 14.56 LIG 0.24  C 
ATOM      2 O    LEU C 675      27.878   2.077  22.762  0.66 14.97 LIG-0.27  OA
ATOM      3  N   ALA C 676      28.030   0.892  24.667  0.83 13.84 LIG-0.35  N 
ATOM      4 H    ALA C 676      28.431   0.312  25.158  0.83 13.84 LIG 0.16  HD
ENDROOT
BRANCH 3 5
ATOM      5  CA  ALA C 676      26.827   1.446  25.306  1.00 13.04 LIG 0.17  C 
ATOM      6  CB  ALA C 676      26.815   2.956  25.200  0.89 13.68 LIG 0.04  C 
BRANCH 5 7
ATOM      7  C   ALA C 676      25.573   0.765  24.808  0.69 12.60 LIG 0.24  C 
ATOM      8 O    ALA C 676      24.669   0.374  25.575  0.52 12.22 LIG-0.27  OA
ATOM      9  N   LEU C 677      25.471   0.686  23.475  0.89 12.12 LIG-0.34  N 
ATOM     10 H    LEU C 677      26.085   0.957  22.937  0.89 12.12 LIG 0.16  HD
BRANCH 9 11
ATOM     11  CA  LEU C 677      24.309   0.132  22.806  0.93 11.78 LIG 0.18  C 
BRANCH 11 12
ATOM     12  C   LEU C 677      24.264  -1.299  22.470  0.42 11.73 LIG 0.20  C 
ATOM     13 O    LEU C 677      23.177  -1.965  22.512  0.84 11.50 LIG-0.65  OA
ATOM     14 OXT  LEU C 677      25.325  -1.912  22.159  0.55 11.71 LIG-0.65  OA
ENDBRANCH 11 12
BRANCH 11 15
ATOM     15  CB  LEU C 677      23.575   1.207  22.054  1.00 11.60 LIG 0.04  C 
BRANCH 15 16
ATOM     16  CG  LEU C 677      24.078   2.605  21.861  0.82 11.89 LIG-0.02  C 
ATOM     17  CD2 LEU C 677      23.102   3.489  21.071  0.78 11.63 LIG 0.01  C 
ATOM     18  CD1 LEU C 677      25.410   2.570  21.062  1.00 11.42 LIG 0.01  C 
ENDBRANCH 15 16
ENDBRANCH 11 15
ENDBRANCH 9 11
ENDBRANCH 5 7
ENDBRANCH 3 5
BRANCH 1 19
ATOM     19  CA  LEU C 675      29.746   0.537  23.035  0.78 15.17 LIG 0.18  C 
BRANCH 19 20
ATOM     20  CB  LEU C 675      30.919   1.464  22.648  0.53 15.14 LIG 0.04  C 
BRANCH 20 21
ATOM     21  CG  LEU C 675      32.339   1.028  22.628  0.32 15.05 LIG-0.02  C 
ATOM     22  CD1 LEU C 675      32.702  -0.001  23.700  0.18 15.17 LIG 0.01  C 
ATOM     23  CD2 LEU C 675      32.594   0.383  21.241  0.37 15.02 LIG 0.01  C 
ENDBRANCH 20 21
ENDBRANCH 19 20
BRANCH 19 24
ATOM     24  N   LEU C 675      29.579  -0.353  21.906  0.88 15.36 LIG-0.35  N 
ATOM     25 H    LEU C 675      29.799   0.030  21.168  0.88 15.36 LIG 0.16  HD
ATOM     26  C   ALA C 674      29.150  -1.609  21.918  0.61 16.05 LIG 0.26  C 
ATOM     27 O    ALA C 674      28.742  -2.154  22.950  0.70 15.91 LIG-0.27  OA
BRANCH 26 28
ATOM     28  CA  ALA C 674      29.181  -2.264  20.555  0.67 16.10 LIG 0.40  C 
ATOM     29  CB  ALA C 674      27.889  -2.206  19.810  0.67 16.22 LIG 0.06  C 
ATOM     30  N   ALA C 674      29.811  -3.582  20.530  0.74 16.71 LIG 0.61  N 
ENDBRANCH 26 28
ENDBRANCH 19 24
ENDBRANCH 1 19
TORSDOF 11
ENDMDL
MODEL 21
USER: ADFR SOLUTION from run 30
USER: SCORE 10.885416 LL:  -2.006 LR:  -9.417 RR:   0.000 FEB:  -6.136
USER: RMSD 7.439266
USER: SEED 29
USER: STATUS no improvement in best in 14 clusters for 5 generations
USER: GENES 13
USER: genes 0 Translation |==|  0.57034 0.33996 0.50986
USER: genes 1 Rotation |==|  0.53933 0.04166 0.53075 0.69347
USER: genes 2 Torsion [C]-N--CA-[CB] |==|  0.82222
USER: genes 3 Torsion [N]-CA--C-[N] |==|  0.15017
USER: genes 4 Torsion [C]-N--CA-[C] |==|  0.74310
USER: genes 5 Torsion [N]-CA--C-[O] |==|  0.39483
USER: genes 6 Torsion [N]-CA--CB-[CG] |==|  0.38503
USER: genes 7 Torsion [CA]-CB--CG-[CD1] |==|  0.81338
USER: genes 8 Torsion [N]-C--CA-[N] |==|  0.02424
USER: genes 9 Torsion [C]-CA--CB-[CG] |==|  0.42442
USER: genes 10 Torsion [CA]-CB--CG-[CD1] |==|  0.87774
USER: genes 11 Torsion [C]-CA--N-[C] |==|  0.72796
USER: genes 12 Torsion [N]-C--CA-[N] |==|  0.73601
ROOT
ATOM      1  C   LEU C 675      27.277   0.853  20.885  1.00 14.56 LIG 0.24  C 
ATOM      2 O    LEU C 675      26.066   0.915  20.595  0.66 14.97 LIG-0.27  OA
ATOM      3  N   ALA C 676      28.201   0.626  19.951  0.83 13.84 LIG-0.35  N 
ATOM      4 H    ALA C 676      29.039   0.580  20.137  0.83 13.84 LIG 0.16  HD
ENDROOT
BRANCH 3 5
ATOM      5  CA  ALA C 676      27.921   0.428  18.522  1.00 13.04 LIG 0.17  C 
ATOM      6  CB  ALA C 676      27.100  -0.826  18.309  0.89 13.68 LIG 0.04  C 
BRANCH 5 7
ATOM      7  C   ALA C 676      27.346   1.676  17.893  0.69 12.60 LIG 0.24  C 
ATOM      8 O    ALA C 676      26.237   1.692  17.319  0.52 12.22 LIG-0.27  OA
ATOM      9  N   LEU C 677      28.082   2.781  18.068  0.89 12.12 LIG-0.34  N 
ATOM     10 H    LEU C 677      28.844   2.782  18.467  0.89 12.12 LIG 0.16  HD
BRANCH 9 11
ATOM     11  CA  LEU C 677      27.663   4.089  17.601  0.93 11.78 LIG 0.18  C 
BRANCH 11 12
ATOM     12  C   LEU C 677      28.077   4.565  16.273  0.42 11.73 LIG 0.20  C 
ATOM     13 O    LEU C 677      27.295   5.243  15.528  0.84 11.50 LIG-0.65  OA
ATOM     14 OXT  LEU C 677      29.225   4.279  15.825  0.55 11.71 LIG-0.65  OA
ENDBRANCH 11 12
BRANCH 11 15
ATOM     15  CB  LEU C 677      27.343   4.984  18.765  1.00 11.60 LIG 0.04  C 
BRANCH 15 16
ATOM     16  CG  LEU C 677      27.725   6.431  18.856  0.82 11.89 LIG-0.02  C 
ATOM     17  CD2 LEU C 677      27.294   7.242  17.626  0.78 11.63 LIG 0.01  C 
ATOM     18  CD1 LEU C 677      29.270   6.551  18.962  1.00 11.42 LIG 0.01  C 
ENDBRANCH 15 16
ENDBRANCH 11 15
ENDBRANCH 9 11
ENDBRANCH 5 7
ENDBRANCH 3 5
BRANCH 1 19
ATOM     19  CA  LEU C 675      27.818   1.001  22.285  0.78 15.17 LIG 0.18  C 
BRANCH 19 20
ATOM     20  CB  LEU C 675      27.320   2.236  23.068  0.53 15.14 LIG 0.04  C 
BRANCH 20 21
ATOM     21  CG  LEU C 675      27.229   2.288  24.550  0.32 15.05 LIG-0.02  C 
ATOM     22  CD1 LEU C 675      26.632   1.035  25.193  0.18 15.17 LIG 0.01  C 
ATOM     23  CD2 LEU C 675      28.674   2.457  25.086  0.37 15.02 LIG 0.01  C 
ENDBRANCH 20 21
ENDBRANCH 19 20
BRANCH 19 24
ATOM     24  N   LEU C 675      29.262   1.069  22.351  0.88 15.36 LIG-0.35  N 
ATOM     25 H    LEU C 675      29.548   1.862  22.185  0.88 15.36 LIG 0.16  HD
ATOM     26  C   ALA C 674      30.110   0.085  22.624  0.61 16.05 LIG 0.26  C 
ATOM     27 O    ALA C 674      29.734  -1.083  22.776  0.70 15.91 LIG-0.27  OA
BRANCH 26 28
ATOM     28  CA  ALA C 674      31.552   0.538  22.688  0.67 16.10 LIG 0.40  C 
ATOM     29  CB  ALA C 674      31.754   1.873  23.326  0.67 16.22 LIG 0.06  C 
ATOM     30  N   ALA C 674      32.297   0.368  21.444  0.74 16.71 LIG 0.61  N 
ENDBRANCH 26 28
ENDBRANCH 19 24
ENDBRANCH 1 19
TORSDOF 11
ENDMDL
