MODEL 1
USER: ADFR SOLUTION from run 1
USER: SCORE 14.660170 LL:  -2.316 LR: -12.471 RR:   0.000 FEB:  -9.488
USER: RMSD 1.020498
USER: SEED 844481
USER: STATUS no improvement in best in 4 clusters for 5 generations
USER: GENES 12
USER: genes 0 Translation |==|  0.54190 0.47973 0.42263
USER: genes 1 Rotation |==|  0.46796 0.54097 0.49264 0.99723
USER: genes 2 Torsion [N]-CA--C-[O] |==|  0.92776
USER: genes 3 Torsion [C]-N--CA-[C] |==|  0.82200
USER: genes 4 Torsion [N]-CA--C-[O] |==|  0.89135
USER: genes 5 Torsion [N]-CA--CB-[CG2] |==|  0.39019
USER: genes 6 Torsion [CA]-CB--CG1-[CD1] |==|  0.49861
USER: genes 7 Torsion [N]-C--CA-[N] |==|  0.42547
USER: genes 8 Torsion [C]-CA--CB-[CG1] |==|  0.58207
USER: genes 9 Torsion [C]-CA--N-[C] |==|  0.68443
USER: genes 10 Torsion [N]-C--CA-[N] |==|  0.42820
USER: genes 11 Torsion [C]-CA--N-[H2] |==|  0.34741
ROOT
ATOM      1  C   VAL C   2      81.637  62.308  14.804  1.00  9.13 LIG 0.24  C 
ATOM      2 O    VAL C   2      81.507  62.222  16.023  1.00  8.39 LIG-0.27  OA
ATOM      3  N   PRO C   3      80.900  63.147  14.076  1.00  8.40 LIG-0.34  N 
ATOM      4  CA  PRO C   3      79.853  63.954  14.717  1.00  9.15 LIG 0.18  C 
ATOM      5  CB  PRO C   3      79.281  64.778  13.560  1.00 10.26 LIG 0.04  C 
ATOM      6  CG  PRO C   3      80.355  64.779  12.530  1.00 11.14 LIG 0.02  C 
ATOM      7  CD  PRO C   3      81.003  63.433  12.635  1.00 11.16 LIG 0.13  C 
ENDROOT
BRANCH 4 8
ATOM      8  C   PRO C   3      78.763  63.106  15.388  1.00  9.70 LIG 0.24  C 
ATOM      9 O    PRO C   3      78.533  61.968  14.986  1.00  8.21 LIG-0.27  OA
ATOM     10  N   ILE C   4      78.104  63.665  16.398  1.00 10.20 LIG-0.35  N 
ATOM     11 H    ILE C   4      78.236  64.472  16.666  1.00 10.20 LIG 0.16  HD
BRANCH 10 12
ATOM     12  CA  ILE C   4      77.078  62.942  17.152  1.00 11.44 LIG 0.17  C 
BRANCH 12 13
ATOM     13  C   ILE C   4      75.890  62.589  16.258  1.00 10.89 LIG 0.22  C 
ATOM     14 O    ILE C   4      75.489  63.386  15.419  1.00  9.55 LIG-0.29  OA
ENDBRANCH 12 13
BRANCH 12 15
ATOM     15  CB  ILE C   4      76.617  63.777  18.374  1.00 10.54 LIG 0.01  C 
ATOM     16  CG2 ILE C   4      75.097  63.659  18.583  1.00 11.57 LIG 0.01  C 
BRANCH 15 17
ATOM     17  CG1 ILE C   4      77.377  63.328  19.627  1.00  9.08 LIG 0.00  C 
ATOM     18  CD1 ILE C   4      77.007  64.097  20.893  1.00  9.00 LIG 0.01  C 
ENDBRANCH 15 17
ENDBRANCH 12 15
ENDBRANCH 10 12
ENDBRANCH 4 8
BRANCH 1 19
ATOM     19  CA  VAL C   2      82.663  61.437  14.085  1.00  9.18 LIG 0.18  C 
BRANCH 19 20
ATOM     20  CB  VAL C   2      81.957  60.171  13.535  1.00  9.29 LIG 0.01  C 
ATOM     21  CG1 VAL C   2      82.924  58.996  13.479  1.00 10.46 LIG 0.01  C 
ATOM     22  CG2 VAL C   2      80.715  59.820  14.364  1.00 10.38 LIG 0.01  C 
ENDBRANCH 19 20
BRANCH 19 23
ATOM     23  N   VAL C   2      83.756  61.093  14.994  1.00 10.44 LIG-0.35  N 
ATOM     24 H    VAL C   2      83.519  60.584  15.647  1.00 10.44 LIG 0.16  HD
ATOM     25  C   ALA C   1      84.996  61.530  14.820  1.00  9.27 LIG 0.25  C 
ATOM     26 O    ALA C   1      85.342  62.222  13.863  1.00  8.72 LIG-0.27  OA
BRANCH 25 27
ATOM     27  CA  ALA C   1      86.008  61.098  15.872  1.00  8.36 LIG 0.27  C 
ATOM     28  CB  ALA C   1      85.954  62.014  17.084  1.00 10.14 LIG 0.05  C 
BRANCH 27 29
ATOM     29  N   ALA C   1      87.371  61.097  15.273  1.00  5.51 LIG-0.07  N 
ATOM     30 H1   ALA C   1      87.332  61.418  14.444  1.00  5.51 LIG 0.28  HD
ATOM     31 H2   ALA C   1      87.911  61.607  15.763  1.00  5.51 LIG 0.28  HD
ATOM     32 H3   ALA C   1      87.687  60.265  15.254  1.00  5.51 LIG 0.28  HD
ENDBRANCH 27 29
ENDBRANCH 25 27
ENDBRANCH 19 23
ENDBRANCH 1 19
TORSDOF 10
ENDMDL
MODEL 2
USER: ADFR SOLUTION from run 1
USER: SCORE 14.053753 LL:  -2.080 LR: -12.176 RR:   0.000 FEB:  -9.193
USER: RMSD 4.900041
USER: SEED 844481
USER: STATUS no improvement in best in 4 clusters for 5 generations
USER: GENES 12
USER: genes 0 Translation |==|  0.65229 0.42103 0.41642
USER: genes 1 Rotation |==|  0.09082 0.57911 0.48828 0.77599
USER: genes 2 Torsion [N]-CA--C-[O] |==|  0.91459
USER: genes 3 Torsion [C]-N--CA-[C] |==|  0.80993
USER: genes 4 Torsion [N]-CA--C-[O] |==|  0.22867
USER: genes 5 Torsion [N]-CA--CB-[CG2] |==|  0.44185
USER: genes 6 Torsion [CA]-CB--CG1-[CD1] |==|  0.48706
USER: genes 7 Torsion [N]-C--CA-[N] |==|  0.32982
USER: genes 8 Torsion [C]-CA--CB-[CG1] |==|  0.68617
USER: genes 9 Torsion [C]-CA--N-[C] |==|  0.68346
USER: genes 10 Torsion [N]-C--CA-[N] |==|  0.16963
USER: genes 11 Torsion [C]-CA--N-[H2] |==|  0.31666
ROOT
ATOM      1  C   VAL C   2      83.955  61.472  14.707  1.00  9.13 LIG 0.24  C 
ATOM      2 O    VAL C   2      83.955  62.686  14.523  1.00  8.39 LIG-0.27  OA
ATOM      3  N   PRO C   3      82.977  60.691  14.248  1.00  8.40 LIG-0.34  N 
ATOM      4  CA  PRO C   3      81.824  61.283  13.555  1.00  9.15 LIG 0.18  C 
ATOM      5  CB  PRO C   3      80.973  60.068  13.177  1.00 10.26 LIG 0.04  C 
ATOM      6  CG  PRO C   3      81.923  58.923  13.192  1.00 11.14 LIG 0.02  C 
ATOM      7  CD  PRO C   3      82.884  59.222  14.301  1.00 11.16 LIG 0.13  C 
ENDROOT
BRANCH 4 8
ATOM      8  C   PRO C   3      81.034  62.266  14.431  1.00  9.70 LIG 0.24  C 
ATOM      9 O    PRO C   3      80.982  62.102  15.648  1.00  8.21 LIG-0.27  OA
ATOM     10  N   ILE C   4      80.428  63.272  13.808  1.00 10.20 LIG-0.35  N 
ATOM     11 H    ILE C   4      80.433  63.377  12.955  1.00 10.20 LIG 0.16  HD
BRANCH 10 12
ATOM     12  CA  ILE C   4      79.687  64.303  14.536  1.00 11.44 LIG 0.17  C 
BRANCH 12 13
ATOM     13  C   ILE C   4      78.420  63.725  15.165  1.00 10.89 LIG 0.22  C 
ATOM     14 O    ILE C   4      78.477  63.135  16.238  1.00  9.55 LIG-0.29  OA
ENDBRANCH 12 13
BRANCH 12 15
ATOM     15  CB  ILE C   4      79.342  65.486  13.596  1.00 10.54 LIG 0.01  C 
ATOM     16  CG2 ILE C   4      78.163  66.308  14.148  1.00 11.57 LIG 0.01  C 
BRANCH 15 17
ATOM     17  CG1 ILE C   4      80.579  66.370  13.398  1.00  9.08 LIG 0.00  C 
ATOM     18  CD1 ILE C   4      80.382  67.506  12.397  1.00  9.00 LIG 0.01  C 
ENDBRANCH 15 17
ENDBRANCH 12 15
ENDBRANCH 10 12
ENDBRANCH 4 8
BRANCH 1 19
ATOM     19  CA  VAL C   2      85.096  60.819  15.483  1.00  9.18 LIG 0.18  C 
BRANCH 19 20
ATOM     20  CB  VAL C   2      85.126  61.396  16.921  1.00  9.29 LIG 0.01  C 
ATOM     21  CG1 VAL C   2      86.385  62.222  17.145  1.00 10.46 LIG 0.01  C 
ATOM     22  CG2 VAL C   2      83.867  62.222  17.218  1.00 10.38 LIG 0.01  C 
ENDBRANCH 19 20
BRANCH 19 23
ATOM     23  N   VAL C   2      86.365  61.037  14.789  1.00 10.44 LIG-0.35  N 
ATOM     24 H    VAL C   2      86.612  61.861  14.764  1.00 10.44 LIG 0.16  HD
ATOM     25  C   ALA C   1      87.065  60.047  14.250  1.00  9.27 LIG 0.25  C 
ATOM     26 O    ALA C   1      86.732  58.865  14.324  1.00  8.72 LIG-0.27  OA
BRANCH 25 27
ATOM     27  CA  ALA C   1      88.351  60.450  13.543  1.00  8.36 LIG 0.27  C 
ATOM     28  CB  ALA C   1      89.016  59.244  12.899  1.00 10.14 LIG 0.05  C 
BRANCH 27 29
ATOM     29  N   ALA C   1      89.269  61.097  14.521  1.00  5.51 LIG-0.07  N 
ATOM     30 H1   ALA C   1      88.851  61.198  15.300  1.00  5.51 LIG 0.28  HD
ATOM     31 H2   ALA C   1      89.989  60.586  14.635  1.00  5.51 LIG 0.28  HD
ATOM     32 H3   ALA C   1      89.518  61.894  14.212  1.00  5.51 LIG 0.28  HD
ENDBRANCH 27 29
ENDBRANCH 25 27
ENDBRANCH 19 23
ENDBRANCH 1 19
TORSDOF 10
ENDMDL
MODEL 3
USER: ADFR SOLUTION from run 49
USER: SCORE 14.022033 LL:  -2.456 LR: -11.701 RR:   0.000 FEB:  -8.718
USER: RMSD 2.193762
USER: SEED 48
USER: STATUS no improvement in best in 6 clusters for 5 generations
USER: GENES 12
USER: genes 0 Translation |==|  0.54762 0.48947 0.42209
USER: genes 1 Rotation |==|  0.43966 0.56518 0.48658 0.99186
USER: genes 2 Torsion [N]-CA--C-[O] |==|  0.04545
USER: genes 3 Torsion [C]-N--CA-[C] |==|  0.14971
USER: genes 4 Torsion [N]-CA--C-[O] |==|  0.36399
USER: genes 5 Torsion [N]-CA--CB-[CG2] |==|  0.58022
USER: genes 6 Torsion [CA]-CB--CG1-[CD1] |==|  0.32526
USER: genes 7 Torsion [N]-C--CA-[N] |==|  0.44402
USER: genes 8 Torsion [C]-CA--CB-[CG1] |==|  0.57396
USER: genes 9 Torsion [C]-CA--N-[C] |==|  0.70000
USER: genes 10 Torsion [N]-C--CA-[N] |==|  0.43762
USER: genes 11 Torsion [C]-CA--N-[H2] |==|  0.66537
ROOT
ATOM      1  C   VAL C   2      81.757  62.447  14.796  1.00  9.13 LIG 0.24  C 
ATOM      2 O    VAL C   2      81.747  62.503  16.023  1.00  8.39 LIG-0.27  OA
ATOM      3  N   PRO C   3      80.964  63.217  14.051  1.00  8.40 LIG-0.34  N 
ATOM      4  CA  PRO C   3      79.999  64.120  14.692  1.00  9.15 LIG 0.18  C 
ATOM      5  CB  PRO C   3      79.328  64.823  13.509  1.00 10.26 LIG 0.04  C 
ATOM      6  CG  PRO C   3      80.295  64.679  12.387  1.00 11.14 LIG 0.02  C 
ATOM      7  CD  PRO C   3      80.929  63.336  12.583  1.00 11.16 LIG 0.13  C 
ENDROOT
BRANCH 4 8
ATOM      8  C   PRO C   3      78.968  63.383  15.559  1.00  9.70 LIG 0.24  C 
ATOM      9 O    PRO C   3      79.172  62.221  15.905  1.00  8.21 LIG-0.27  OA
ATOM     10  N   ILE C   4      77.874  64.059  15.896  1.00 10.20 LIG-0.35  N 
ATOM     11 H    ILE C   4      77.708  64.860  15.632  1.00 10.20 LIG 0.16  HD
BRANCH 10 12
ATOM     12  CA  ILE C   4      76.841  63.485  16.760  1.00 11.44 LIG 0.17  C 
BRANCH 12 13
ATOM     13  C   ILE C   4      77.444  62.977  18.069  1.00 10.89 LIG 0.22  C 
ATOM     14 O    ILE C   4      76.939  63.284  19.143  1.00  9.55 LIG-0.29  OA
ENDBRANCH 12 13
BRANCH 12 15
ATOM     15  CB  ILE C   4      76.091  62.346  16.023  1.00 10.54 LIG 0.01  C 
ATOM     16  CG2 ILE C   4      74.644  62.217  16.531  1.00 11.57 LIG 0.01  C 
BRANCH 15 17
ATOM     17  CG1 ILE C   4      76.118  62.600  14.511  1.00  9.08 LIG 0.00  C 
ATOM     18  CD1 ILE C   4      76.856  61.530  13.711  1.00  9.00 LIG 0.01  C 
ENDBRANCH 15 17
ENDBRANCH 12 15
ENDBRANCH 10 12
ENDBRANCH 4 8
BRANCH 1 19
ATOM     19  CA  VAL C   2      82.692  61.473  14.086  1.00  9.18 LIG 0.18  C 
BRANCH 19 20
ATOM     20  CB  VAL C   2      81.878  60.244  13.607  1.00  9.29 LIG 0.01  C 
ATOM     21  CG1 VAL C   2      82.768  59.013  13.504  1.00 10.46 LIG 0.01  C 
ATOM     22  CG2 VAL C   2      80.677  59.978  14.524  1.00 10.38 LIG 0.01  C 
ENDBRANCH 19 20
BRANCH 19 23
ATOM     23  N   VAL C   2      83.782  61.081  14.979  1.00 10.44 LIG-0.35  N 
ATOM     24 H    VAL C   2      83.540  60.555  15.615  1.00 10.44 LIG 0.16  HD
ATOM     25  C   ALA C   1      85.029  61.504  14.816  1.00  9.27 LIG 0.25  C 
ATOM     26 O    ALA C   1      85.383  62.222  13.881  1.00  8.72 LIG-0.27  OA
BRANCH 25 27
ATOM     27  CA  ALA C   1      86.037  61.022  15.849  1.00  8.36 LIG 0.27  C 
ATOM     28  CB  ALA C   1      85.944  61.845  17.123  1.00 10.14 LIG 0.05  C 
BRANCH 27 29
ATOM     29  N   ALA C   1      87.408  61.097  15.273  1.00  5.51 LIG-0.07  N 
ATOM     30 H1   ALA C   1      87.907  61.648  15.763  1.00  5.51 LIG 0.28  HD
ATOM     31 H2   ALA C   1      87.775  60.286  15.273  1.00  5.51 LIG 0.28  HD
ATOM     32 H3   ALA C   1      87.363  61.402  14.438  1.00  5.51 LIG 0.28  HD
ENDBRANCH 27 29
ENDBRANCH 25 27
ENDBRANCH 19 23
ENDBRANCH 1 19
TORSDOF 10
ENDMDL
MODEL 4
USER: ADFR SOLUTION from run 157
USER: SCORE 13.069059 LL:  -1.999 LR: -11.498 RR:   0.000 FEB:  -8.515
USER: RMSD 4.209818
USER: SEED 156
USER: STATUS no improvement in best in 7 clusters for 5 generations
USER: GENES 12
USER: genes 0 Translation |==|  0.63841 0.43124 0.43595
USER: genes 1 Rotation |==|  0.10027 0.49605 0.52643 0.79917
USER: genes 2 Torsion [N]-CA--C-[O] |==|  0.04871
USER: genes 3 Torsion [C]-N--CA-[C] |==|  0.47643
USER: genes 4 Torsion [N]-CA--C-[O] |==|  0.37861
USER: genes 5 Torsion [N]-CA--CB-[CG2] |==|  0.18212
USER: genes 6 Torsion [CA]-CB--CG1-[CD1] |==|  0.18734
USER: genes 7 Torsion [N]-C--CA-[N] |==|  0.24573
USER: genes 8 Torsion [C]-CA--CB-[CG1] |==|  0.81442
USER: genes 9 Torsion [C]-CA--N-[C] |==|  0.69161
USER: genes 10 Torsion [N]-C--CA-[N] |==|  0.21865
USER: genes 11 Torsion [C]-CA--N-[H2] |==|  0.98217
ROOT
ATOM      1  C   VAL C   2      83.664  61.617  15.014  1.00  9.13 LIG 0.24  C 
ATOM      2 O    VAL C   2      83.248  62.771  14.951  1.00  8.39 LIG-0.27  OA
ATOM      3  N   PRO C   3      83.047  60.613  14.392  1.00  8.40 LIG-0.34  N 
ATOM      4  CA  PRO C   3      81.798  60.856  13.657  1.00  9.15 LIG 0.18  C 
ATOM      5  CB  PRO C   3      81.447  59.480  13.085  1.00 10.26 LIG 0.04  C 
ATOM      6  CG  PRO C   3      82.735  58.736  13.076  1.00 11.14 LIG 0.02  C 
ATOM      7  CD  PRO C   3      83.471  59.206  14.293  1.00 11.16 LIG 0.13  C 
ENDROOT
BRANCH 4 8
ATOM      8  C   PRO C   3      80.668  61.393  14.549  1.00  9.70 LIG 0.24  C 
ATOM      9 O    PRO C   3      80.928  61.877  15.648  1.00  8.21 LIG-0.27  OA
ATOM     10  N   ILE C   4      79.431  61.300  14.071  1.00 10.20 LIG-0.35  N 
ATOM     11 H    ILE C   4      79.237  60.935  13.317  1.00 10.20 LIG 0.16  HD
BRANCH 10 12
ATOM     12  CA  ILE C   4      78.275  61.821  14.802  1.00 11.44 LIG 0.17  C 
BRANCH 12 13
ATOM     13  C   ILE C   4      77.015  61.771  13.939  1.00 10.89 LIG 0.22  C 
ATOM     14 O    ILE C   4      75.955  61.380  14.414  1.00  9.55 LIG-0.29  OA
ENDBRANCH 12 13
BRANCH 12 15
ATOM     15  CB  ILE C   4      78.550  63.267  15.288  1.00 10.54 LIG 0.01  C 
ATOM     16  CG2 ILE C   4      78.694  64.234  14.099  1.00 11.57 LIG 0.01  C 
BRANCH 15 17
ATOM     17  CG1 ILE C   4      77.427  63.722  16.228  1.00  9.08 LIG 0.00  C 
ATOM     18  CD1 ILE C   4      77.381  62.972  17.557  1.00  9.00 LIG 0.01  C 
ENDBRANCH 15 17
ENDBRANCH 12 15
ENDBRANCH 10 12
ENDBRANCH 4 8
BRANCH 1 19
ATOM     19  CA  VAL C   2      84.917  61.303  15.825  1.00  9.18 LIG 0.18  C 
BRANCH 19 20
ATOM     20  CB  VAL C   2      85.012  62.289  17.017  1.00  9.29 LIG 0.01  C 
ATOM     21  CG1 VAL C   2      85.257  63.709  16.525  1.00 10.46 LIG 0.01  C 
ATOM     22  CG2 VAL C   2      83.757  62.222  17.898  1.00 10.38 LIG 0.01  C 
ENDBRANCH 19 20
BRANCH 19 23
ATOM     23  N   VAL C   2      86.101  61.378  14.969  1.00 10.44 LIG-0.35  N 
ATOM     24 H    VAL C   2      86.293  62.175  14.708  1.00 10.44 LIG 0.16  HD
ATOM     25  C   ALA C   1      86.810  60.309  14.631  1.00  9.27 LIG 0.25  C 
ATOM     26 O    ALA C   1      86.560  59.175  15.039  1.00  8.72 LIG-0.27  OA
BRANCH 25 27
ATOM     27  CA  ALA C   1      87.997  60.559  13.714  1.00  8.36 LIG 0.27  C 
ATOM     28  CB  ALA C   1      88.404  59.284  12.993  1.00 10.14 LIG 0.05  C 
BRANCH 27 29
ATOM     29  N   ALA C   1      89.133  61.097  14.513  1.00  5.51 LIG-0.07  N 
ATOM     30 H1   ALA C   1      89.420  61.857  14.149  1.00  5.51 LIG 0.28  HD
ATOM     31 H2   ALA C   1      88.862  61.252  15.347  1.00  5.51 LIG 0.28  HD
ATOM     32 H3   ALA C   1      89.797  60.504  14.523  1.00  5.51 LIG 0.28  HD
ENDBRANCH 27 29
ENDBRANCH 25 27
ENDBRANCH 19 23
ENDBRANCH 1 19
TORSDOF 10
ENDMDL
MODEL 5
USER: ADFR SOLUTION from run 10
USER: SCORE 13.713118 LL:  -2.695 LR: -11.147 RR:   0.000 FEB:  -8.164
USER: RMSD 1.891414
USER: SEED 821884
USER: STATUS no improvement in best in 5 clusters for 5 generations
USER: GENES 12
USER: genes 0 Translation |==|  0.46735 0.52403 0.43153
USER: genes 1 Rotation |==|  0.48579 0.47607 0.39939 0.98898
USER: genes 2 Torsion [N]-CA--C-[O] |==|  0.90445
USER: genes 3 Torsion [C]-N--CA-[C] |==|  0.57709
USER: genes 4 Torsion [N]-CA--C-[O] |==|  0.78686
USER: genes 5 Torsion [N]-CA--CB-[CG2] |==|  0.70267
USER: genes 6 Torsion [CA]-CB--CG1-[CD1] |==|  0.39712
USER: genes 7 Torsion [N]-C--CA-[N] |==|  0.32269
USER: genes 8 Torsion [C]-CA--CB-[CG1] |==|  0.15550
USER: genes 9 Torsion [C]-CA--N-[C] |==|  0.74803
USER: genes 10 Torsion [N]-C--CA-[N] |==|  0.49107
USER: genes 11 Torsion [C]-CA--N-[H2] |==|  0.90304
ROOT
ATOM      1  C   VAL C   2      80.071  62.939  14.945  1.00  9.13 LIG 0.24  C 
ATOM      2 O    VAL C   2      79.585  62.926  16.073  1.00  8.39 LIG-0.27  OA
ATOM      3  N   PRO C   3      79.905  63.973  14.120  1.00  8.40 LIG-0.34  N 
ATOM      4  CA  PRO C   3      79.068  65.111  14.523  1.00  9.15 LIG 0.18  C 
ATOM      5  CB  PRO C   3      79.164  66.064  13.329  1.00 10.26 LIG 0.04  C 
ATOM      6  CG  PRO C   3      80.414  65.666  12.627  1.00 11.14 LIG 0.02  C 
ATOM      7  CD  PRO C   3      80.499  64.179  12.788  1.00 11.16 LIG 0.13  C 
ENDROOT
BRANCH 4 8
ATOM      8  C   PRO C   3      77.610  64.717  14.805  1.00  9.70 LIG 0.24  C 
ATOM      9 O    PRO C   3      77.075  63.826  14.150  1.00  8.21 LIG-0.27  OA
ATOM     10  N   ILE C   4      76.985  65.384  15.771  1.00 10.20 LIG-0.35  N 
ATOM     11 H    ILE C   4      77.341  66.030  16.213  1.00 10.20 LIG 0.16  HD
BRANCH 10 12
ATOM     12  CA  ILE C   4      75.612  65.069  16.170  1.00 11.44 LIG 0.17  C 
BRANCH 12 13
ATOM     13  C   ILE C   4      74.911  66.302  16.737  1.00 10.89 LIG 0.22  C 
ATOM     14 O    ILE C   4      75.160  66.686  17.874  1.00  9.55 LIG-0.29  OA
ENDBRANCH 12 13
BRANCH 12 15
ATOM     15  CB  ILE C   4      75.601  63.909  17.198  1.00 10.54 LIG 0.01  C 
ATOM     16  CG2 ILE C   4      75.088  62.606  16.558  1.00 11.57 LIG 0.01  C 
BRANCH 15 17
ATOM     17  CG1 ILE C   4      77.007  63.715  17.778  1.00  9.08 LIG 0.00  C 
ATOM     18  CD1 ILE C   4      77.027  63.347  19.259  1.00  9.00 LIG 0.01  C 
ENDBRANCH 15 17
ENDBRANCH 12 15
ENDBRANCH 10 12
ENDBRANCH 4 8
BRANCH 1 19
ATOM     19  CA  VAL C   2      80.889  61.748  14.454  1.00  9.18 LIG 0.18  C 
BRANCH 19 20
ATOM     20  CB  VAL C   2      80.008  60.474  14.499  1.00  9.29 LIG 0.01  C 
ATOM     21  CG1 VAL C   2      78.734  60.670  13.689  1.00 10.46 LIG 0.01  C 
ATOM     22  CG2 VAL C   2      80.783  59.242  14.014  1.00 10.38 LIG 0.01  C 
ENDBRANCH 19 20
BRANCH 19 23
ATOM     23  N   VAL C   2      82.095  61.597  15.268  1.00 10.44 LIG-0.35  N 
ATOM     24 H    VAL C   2      81.989  61.098  15.960  1.00 10.44 LIG 0.16  HD
ATOM     25  C   ALA C   1      83.245  62.182  14.959  1.00  9.27 LIG 0.25  C 
ATOM     26 O    ALA C   1      83.408  62.862  13.946  1.00  8.72 LIG-0.27  OA
BRANCH 25 27
ATOM     27  CA  ALA C   1      84.396  61.942  15.926  1.00  8.36 LIG 0.27  C 
ATOM     28  CB  ALA C   1      84.058  62.468  17.312  1.00 10.14 LIG 0.05  C 
BRANCH 27 29
ATOM     29  N   ALA C   1      85.626  62.597  15.401  1.00  5.51 LIG-0.07  N 
ATOM     30 H1   ALA C   1      86.345  62.185  15.727  1.00  5.51 LIG 0.28  HD
ATOM     31 H2   ALA C   1      85.633  62.546  14.512  1.00  5.51 LIG 0.28  HD
ATOM     32 H3   ALA C   1      85.636  63.452  15.648  1.00  5.51 LIG 0.28  HD
ENDBRANCH 27 29
ENDBRANCH 25 27
ENDBRANCH 19 23
ENDBRANCH 1 19
TORSDOF 10
ENDMDL
MODEL 6
USER: ADFR SOLUTION from run 173
USER: SCORE 13.145348 LL:  -2.269 LR: -11.046 RR:   0.000 FEB:  -8.063
USER: RMSD 4.483205
USER: SEED 172
USER: STATUS no improvement in best in 5 clusters for 5 generations
USER: GENES 12
USER: genes 0 Translation |==|  0.62842 0.43755 0.38720
USER: genes 1 Rotation |==|  0.06505 0.62565 0.44630 0.70530
USER: genes 2 Torsion [N]-CA--C-[O] |==|  0.96113
USER: genes 3 Torsion [C]-N--CA-[C] |==|  0.18071
USER: genes 4 Torsion [N]-CA--C-[O] |==|  0.37468
USER: genes 5 Torsion [N]-CA--CB-[CG2] |==|  0.55864
USER: genes 6 Torsion [CA]-CB--CG1-[CD1] |==|  0.34604
USER: genes 7 Torsion [N]-C--CA-[N] |==|  0.36841
USER: genes 8 Torsion [C]-CA--CB-[CG1] |==|  0.47859
USER: genes 9 Torsion [C]-CA--N-[C] |==|  0.68424
USER: genes 10 Torsion [N]-C--CA-[N] |==|  0.14158
USER: genes 11 Torsion [C]-CA--N-[H2] |==|  0.38618
ROOT
ATOM      1  C   VAL C   2      83.454  61.707  14.246  1.00  9.13 LIG 0.24  C 
ATOM      2 O    VAL C   2      83.723  62.774  13.700  1.00  8.39 LIG-0.27  OA
ATOM      3  N   PRO C   3      82.302  61.074  14.025  1.00  8.40 LIG-0.34  N 
ATOM      4  CA  PRO C   3      81.283  61.680  13.156  1.00  9.15 LIG 0.18  C 
ATOM      5  CB  PRO C   3      80.159  60.641  13.148  1.00 10.26 LIG 0.04  C 
ATOM      6  CG  PRO C   3      80.821  59.366  13.536  1.00 11.14 LIG 0.02  C 
ATOM      7  CD  PRO C   3      81.878  59.755  14.523  1.00 11.16 LIG 0.13  C 
ENDROOT
BRANCH 4 8
ATOM      8  C   PRO C   3      80.783  63.038  13.670  1.00  9.70 LIG 0.24  C 
ATOM      9 O    PRO C   3      81.032  63.391  14.821  1.00  8.21 LIG-0.27  OA
ATOM     10  N   ILE C   4      80.083  63.781  12.819  1.00 10.20 LIG-0.35  N 
ATOM     11 H    ILE C   4      79.876  63.529  12.023  1.00 10.20 LIG 0.16  HD
BRANCH 10 12
ATOM     12  CA  ILE C   4      79.594  65.115  13.171  1.00 11.44 LIG 0.17  C 
BRANCH 12 13
ATOM     13  C   ILE C   4      80.757  66.080  13.401  1.00 10.89 LIG 0.22  C 
ATOM     14 O    ILE C   4      80.730  67.205  12.917  1.00  9.55 LIG-0.29  OA
ENDBRANCH 12 13
BRANCH 12 15
ATOM     15  CB  ILE C   4      78.684  65.044  14.424  1.00 10.54 LIG 0.01  C 
ATOM     16  CG2 ILE C   4      77.762  66.273  14.510  1.00 11.57 LIG 0.01  C 
BRANCH 15 17
ATOM     17  CG1 ILE C   4      77.866  63.748  14.399  1.00  9.08 LIG 0.00  C 
ATOM     18  CD1 ILE C   4      78.024  62.883  15.647  1.00  9.00 LIG 0.01  C 
ENDBRANCH 15 17
ENDBRANCH 12 15
ENDBRANCH 10 12
ENDBRANCH 4 8
BRANCH 1 19
ATOM     19  CA  VAL C   2      84.451  61.074  15.213  1.00  9.18 LIG 0.18  C 
BRANCH 19 20
ATOM     20  CB  VAL C   2      84.421  61.850  16.554  1.00  9.29 LIG 0.01  C 
ATOM     21  CG1 VAL C   2      85.259  61.139  17.608  1.00 10.46 LIG 0.01  C 
ATOM     22  CG2 VAL C   2      84.884  63.301  16.371  1.00 10.38 LIG 0.01  C 
ENDBRANCH 19 20
BRANCH 19 23
ATOM     23  N   VAL C   2      85.790  61.071  14.623  1.00 10.44 LIG-0.35  N 
ATOM     24 H    VAL C   2      86.124  61.856  14.512  1.00 10.44 LIG 0.16  HD
ATOM     25  C   ALA C   1      86.424  59.954  14.290  1.00  9.27 LIG 0.25  C 
ATOM     26 O    ALA C   1      85.963  58.831  14.488  1.00  8.72 LIG-0.27  OA
BRANCH 25 27
ATOM     27  CA  ALA C   1      87.800  60.130  13.665  1.00  8.36 LIG 0.27  C 
ATOM     28  CB  ALA C   1      88.488  58.787  13.482  1.00 10.14 LIG 0.05  C 
BRANCH 27 29
ATOM     29  N   ALA C   1      88.620  61.029  14.523  1.00  5.51 LIG-0.07  N 
ATOM     30 H1   ALA C   1      88.268  61.063  15.340  1.00  5.51 LIG 0.28  HD
ATOM     31 H2   ALA C   1      89.452  60.716  14.571  1.00  5.51 LIG 0.28  HD
ATOM     32 H3   ALA C   1      88.632  61.847  14.171  1.00  5.51 LIG 0.28  HD
ENDBRANCH 27 29
ENDBRANCH 25 27
ENDBRANCH 19 23
ENDBRANCH 1 19
TORSDOF 10
ENDMDL
MODEL 7
USER: ADFR SOLUTION from run 195
USER: SCORE 12.686657 LL:  -2.491 LR: -10.688 RR:   0.000 FEB:  -7.705
USER: RMSD 4.926118
USER: SEED 194
USER: STATUS no improvement in best in 4 clusters for 5 generations
USER: GENES 12
USER: genes 0 Translation |==|  0.64860 0.39029 0.33027
USER: genes 1 Rotation |==|  0.86113 0.44609 0.33197 0.79740
USER: genes 2 Torsion [N]-CA--C-[O] |==|  0.45606
USER: genes 3 Torsion [C]-N--CA-[C] |==|  0.55189
USER: genes 4 Torsion [N]-CA--C-[O] |==|  0.17052
USER: genes 5 Torsion [N]-CA--CB-[CG2] |==|  0.27831
USER: genes 6 Torsion [CA]-CB--CG1-[CD1] |==|  0.14198
USER: genes 7 Torsion [N]-C--CA-[N] |==|  0.17503
USER: genes 8 Torsion [C]-CA--CB-[CG1] |==|  0.44407
USER: genes 9 Torsion [C]-CA--N-[C] |==|  0.61891
USER: genes 10 Torsion [N]-C--CA-[N] |==|  0.71517
USER: genes 11 Torsion [C]-CA--N-[H2] |==|  0.79419
ROOT
ATOM      1  C   VAL C   2      83.878  61.034  13.350  1.00  9.13 LIG 0.24  C 
ATOM      2 O    VAL C   2      82.865  60.366  13.158  1.00  8.39 LIG-0.27  OA
ATOM      3  N   PRO C   3      84.065  61.719  14.478  1.00  8.40 LIG-0.34  N 
ATOM      4  CA  PRO C   3      83.017  61.743  15.508  1.00  9.15 LIG 0.18  C 
ATOM      5  CB  PRO C   3      83.632  62.597  16.620  1.00 10.26 LIG 0.04  C 
ATOM      6  CG  PRO C   3      85.099  62.528  16.382  1.00 11.14 LIG 0.02  C 
ATOM      7  CD  PRO C   3      85.255  62.480  14.893  1.00 11.16 LIG 0.13  C 
ENDROOT
BRANCH 4 8
ATOM      8  C   PRO C   3      81.695  62.345  15.010  1.00  9.70 LIG 0.24  C 
ATOM      9 O    PRO C   3      80.660  62.171  15.648  1.00  8.21 LIG-0.27  OA
ATOM     10  N   ILE C   4      81.742  63.041  13.878  1.00 10.20 LIG-0.35  N 
ATOM     11 H    ILE C   4      82.455  63.141  13.408  1.00 10.20 LIG 0.16  HD
BRANCH 10 12
ATOM     12  CA  ILE C   4      80.561  63.707  13.326  1.00 11.44 LIG 0.17  C 
BRANCH 12 13
ATOM     13  C   ILE C   4      80.757  64.028  11.845  1.00 10.89 LIG 0.22  C 
ATOM     14 O    ILE C   4      80.939  63.126  11.036  1.00  9.55 LIG-0.29  OA
ENDBRANCH 12 13
BRANCH 12 15
ATOM     15  CB  ILE C   4      80.241  64.993  14.129  1.00 10.54 LIG 0.01  C 
ATOM     16  CG2 ILE C   4      80.754  66.246  13.397  1.00 11.57 LIG 0.01  C 
BRANCH 15 17
ATOM     17  CG1 ILE C   4      78.731  65.088  14.379  1.00  9.08 LIG 0.00  C 
ATOM     18  CD1 ILE C   4      78.116  63.825  14.978  1.00  9.00 LIG 0.01  C 
ENDBRANCH 15 17
ENDBRANCH 12 15
ENDBRANCH 10 12
ENDBRANCH 4 8
BRANCH 1 19
ATOM     19  CA  VAL C   2      84.962  61.097  12.278  1.00  9.18 LIG 0.18  C 
BRANCH 19 20
ATOM     20  CB  VAL C   2      84.468  60.353  11.011  1.00  9.29 LIG 0.01  C 
ATOM     21  CG1 VAL C   2      85.257  60.793   9.785  1.00 10.46 LIG 0.01  C 
ATOM     22  CG2 VAL C   2      84.540  58.831  11.193  1.00 10.38 LIG 0.01  C 
ENDBRANCH 19 20
BRANCH 19 23
ATOM     23  N   VAL C   2      86.207  60.523  12.788  1.00 10.44 LIG-0.35  N 
ATOM     24 H    VAL C   2      86.098  59.797  13.237  1.00 10.44 LIG 0.16  HD
ATOM     25  C   ALA C   1      87.392  61.079  12.575  1.00  9.27 LIG 0.25  C 
ATOM     26 O    ALA C   1      87.551  62.094  11.898  1.00  8.72 LIG-0.27  OA
BRANCH 25 27
ATOM     27  CA  ALA C   1      88.584  60.366  13.197  1.00  8.36 LIG 0.27  C 
ATOM     28  CB  ALA C   1      88.242  58.922  13.525  1.00 10.14 LIG 0.05  C 
BRANCH 27 29
ATOM     29  N   ALA C   1      89.011  61.097  14.423  1.00  5.51 LIG-0.07  N 
ATOM     30 H1   ALA C   1      89.562  60.584  14.898  1.00  5.51 LIG 0.28  HD
ATOM     31 H2   ALA C   1      89.429  61.847  14.191  1.00  5.51 LIG 0.28  HD
ATOM     32 H3   ALA C   1      88.295  61.297  14.914  1.00  5.51 LIG 0.28  HD
ENDBRANCH 27 29
ENDBRANCH 25 27
ENDBRANCH 19 23
ENDBRANCH 1 19
TORSDOF 10
ENDMDL
MODEL 8
USER: ADFR SOLUTION from run 173
USER: SCORE 13.264658 LL:  -2.759 LR: -10.611 RR:   0.000 FEB:  -7.628
USER: RMSD 2.451487
USER: SEED 172
USER: STATUS no improvement in best in 5 clusters for 5 generations
USER: GENES 12
USER: genes 0 Translation |==|  0.51841 0.52203 0.41676
USER: genes 1 Rotation |==|  0.51630 0.48309 0.49593 0.99943
USER: genes 2 Torsion [N]-CA--C-[O] |==|  0.31147
USER: genes 3 Torsion [C]-N--CA-[C] |==|  0.14381
USER: genes 4 Torsion [N]-CA--C-[O] |==|  0.63192
USER: genes 5 Torsion [N]-CA--CB-[CG2] |==|  0.57421
USER: genes 6 Torsion [CA]-CB--CG1-[CD1] |==|  0.55082
USER: genes 7 Torsion [N]-C--CA-[N] |==|  0.41919
USER: genes 8 Torsion [C]-CA--CB-[CG1] |==|  0.36174
USER: genes 9 Torsion [C]-CA--N-[C] |==|  0.61531
USER: genes 10 Torsion [N]-C--CA-[N] |==|  0.50569
USER: genes 11 Torsion [C]-CA--N-[H2] |==|  0.41099
ROOT
ATOM      1  C   VAL C   2      81.144  62.911  14.712  1.00  9.13 LIG 0.24  C 
ATOM      2 O    VAL C   2      80.741  62.597  15.829  1.00  8.39 LIG-0.27  OA
ATOM      3  N   PRO C   3      80.565  63.880  14.003  1.00  8.40 LIG-0.34  N 
ATOM      4  CA  PRO C   3      79.371  64.562  14.523  1.00  9.15 LIG 0.18  C 
ATOM      5  CB  PRO C   3      79.052  65.596  13.440  1.00 10.26 LIG 0.04  C 
ATOM      6  CG  PRO C   3      80.333  65.782  12.706  1.00 11.14 LIG 0.02  C 
ATOM      7  CD  PRO C   3      80.986  64.433  12.705  1.00 11.16 LIG 0.13  C 
ENDROOT
BRANCH 4 8
ATOM      8  C   PRO C   3      78.187  63.612  14.753  1.00  9.70 LIG 0.24  C 
ATOM      9 O    PRO C   3      77.798  63.377  15.895  1.00  8.21 LIG-0.27  OA
ATOM     10  N   ILE C   4      77.629  63.076  13.672  1.00 10.20 LIG-0.35  N 
ATOM     11 H    ILE C   4      77.914  63.210  12.871  1.00 10.20 LIG 0.16  HD
BRANCH 10 12
ATOM     12  CA  ILE C   4      76.462  62.196  13.755  1.00 11.44 LIG 0.17  C 
BRANCH 12 13
ATOM     13  C   ILE C   4      75.346  62.845  14.573  1.00 10.89 LIG 0.22  C 
ATOM     14 O    ILE C   4      74.773  62.209  15.449  1.00  9.55 LIG-0.29  OA
ENDBRANCH 12 13
BRANCH 12 15
ATOM     15  CB  ILE C   4      76.860  60.826  14.359  1.00 10.54 LIG 0.01  C 
ATOM     16  CG2 ILE C   4      75.916  59.711  13.874  1.00 11.57 LIG 0.01  C 
BRANCH 15 17
ATOM     17  CG1 ILE C   4      78.315  60.503  14.000  1.00  9.08 LIG 0.00  C 
ATOM     18  CD1 ILE C   4      78.684  59.029  14.147  1.00  9.00 LIG 0.01  C 
ENDBRANCH 15 17
ENDBRANCH 12 15
ENDBRANCH 10 12
ENDBRANCH 4 8
BRANCH 1 19
ATOM     19  CA  VAL C   2      82.336  62.182  14.099  1.00  9.18 LIG 0.18  C 
BRANCH 19 20
ATOM     20  CB  VAL C   2      81.821  61.014  13.220  1.00  9.29 LIG 0.01  C 
ATOM     21  CG1 VAL C   2      82.471  61.046  11.844  1.00 10.46 LIG 0.01  C 
ATOM     22  CG2 VAL C   2      82.047  59.659  13.903  1.00 10.38 LIG 0.01  C 
ENDBRANCH 19 20
BRANCH 19 23
ATOM     23  N   VAL C   2      83.231  61.707  15.155  1.00 10.44 LIG-0.35  N 
ATOM     24 H    VAL C   2      82.822  61.374  15.835  1.00 10.44 LIG 0.16  HD
ATOM     25  C   ALA C   1      84.552  61.786  15.063  1.00  9.27 LIG 0.25  C 
ATOM     26 O    ALA C   1      85.136  62.222  14.072  1.00  8.72 LIG-0.27  OA
BRANCH 25 27
ATOM     27  CA  ALA C   1      85.335  61.268  16.261  1.00  8.36 LIG 0.27  C 
ATOM     28  CB  ALA C   1      84.896  61.966  17.538  1.00 10.14 LIG 0.05  C 
BRANCH 27 29
ATOM     29  N   ALA C   1      86.791  61.472  16.024  1.00  5.51 LIG-0.07  N 
ATOM     30 H1   ALA C   1      86.909  62.170  15.484  1.00  5.51 LIG 0.28  HD
ATOM     31 H2   ALA C   1      87.200  61.624  16.799  1.00  5.51 LIG 0.28  HD
ATOM     32 H3   ALA C   1      87.135  60.743  15.645  1.00  5.51 LIG 0.28  HD
ENDBRANCH 27 29
ENDBRANCH 25 27
ENDBRANCH 19 23
ENDBRANCH 1 19
TORSDOF 10
ENDMDL
MODEL 9
USER: ADFR SOLUTION from run 157
USER: SCORE 13.171474 LL:  -2.719 LR: -10.559 RR:   0.000 FEB:  -7.576
USER: RMSD 2.243082
USER: SEED 156
USER: STATUS no improvement in best in 7 clusters for 5 generations
USER: GENES 12
USER: genes 0 Translation |==|  0.53705 0.49654 0.42446
USER: genes 1 Rotation |==|  0.51847 0.51659 0.49109 0.99930
USER: genes 2 Torsion [N]-CA--C-[O] |==|  0.40654
USER: genes 3 Torsion [C]-N--CA-[C] |==|  0.53359
USER: genes 4 Torsion [N]-CA--C-[O] |==|  0.26265
USER: genes 5 Torsion [N]-CA--CB-[CG2] |==|  0.35691
USER: genes 6 Torsion [CA]-CB--CG1-[CD1] |==|  0.40900
USER: genes 7 Torsion [N]-C--CA-[N] |==|  0.41222
USER: genes 8 Torsion [C]-CA--CB-[CG1] |==|  0.88421
USER: genes 9 Torsion [C]-CA--N-[C] |==|  0.64440
USER: genes 10 Torsion [N]-C--CA-[N] |==|  0.45205
USER: genes 11 Torsion [C]-CA--N-[H2] |==|  0.00569
ROOT
ATOM      1  C   VAL C   2      81.535  62.548  14.833  1.00  9.13 LIG 0.24  C 
ATOM      2 O    VAL C   2      81.281  62.226  15.991  1.00  8.39 LIG-0.27  OA
ATOM      3  N   PRO C   3      80.881  63.532  14.217  1.00  8.40 LIG-0.34  N 
ATOM      4  CA  PRO C   3      79.779  64.225  14.899  1.00  9.15 LIG 0.18  C 
ATOM      5  CB  PRO C   3      79.334  65.276  13.879  1.00 10.26 LIG 0.04  C 
ATOM      6  CG  PRO C   3      80.507  65.452  12.981  1.00 11.14 LIG 0.02  C 
ATOM      7  CD  PRO C   3      81.133  64.095  12.880  1.00 11.16 LIG 0.13  C 
ENDROOT
BRANCH 4 8
ATOM      8  C   PRO C   3      78.621  63.290  15.277  1.00  9.70 LIG 0.24  C 
ATOM      9 O    PRO C   3      77.975  63.492  16.303  1.00  8.21 LIG-0.27  OA
ATOM     10  N   ILE C   4      78.374  62.278  14.452  1.00 10.20 LIG-0.35  N 
ATOM     11 H    ILE C   4      78.841  62.109  13.749  1.00 10.20 LIG 0.16  HD
BRANCH 10 12
ATOM     12  CA  ILE C   4      77.266  61.346  14.674  1.00 11.44 LIG 0.17  C 
BRANCH 12 13
ATOM     13  C   ILE C   4      77.388  60.125  13.763  1.00 10.89 LIG 0.22  C 
ATOM     14 O    ILE C   4      77.932  59.104  14.168  1.00  9.55 LIG-0.29  OA
ENDBRANCH 12 13
BRANCH 12 15
ATOM     15  CB  ILE C   4      75.908  62.061  14.456  1.00 10.54 LIG 0.01  C 
ATOM     16  CG2 ILE C   4      75.016  61.269  13.483  1.00 11.57 LIG 0.01  C 
BRANCH 15 17
ATOM     17  CG1 ILE C   4      75.204  62.260  15.804  1.00  9.08 LIG 0.00  C 
ATOM     18  CD1 ILE C   4      74.359  63.528  15.886  1.00  9.00 LIG 0.01  C 
ENDBRANCH 15 17
ENDBRANCH 12 15
ENDBRANCH 10 12
ENDBRANCH 4 8
BRANCH 1 19
ATOM     19  CA  VAL C   2      82.623  61.809  14.059  1.00  9.18 LIG 0.18  C 
BRANCH 19 20
ATOM     20  CB  VAL C   2      81.986  60.620  13.297  1.00  9.29 LIG 0.01  C 
ATOM     21  CG1 VAL C   2      80.961  59.907  14.168  1.00 10.46 LIG 0.01  C 
ATOM     22  CG2 VAL C   2      81.359  61.077  11.973  1.00 10.38 LIG 0.01  C 
ENDBRANCH 19 20
BRANCH 19 23
ATOM     23  N   VAL C   2      83.674  61.361  14.974  1.00 10.44 LIG-0.35  N 
ATOM     24 H    VAL C   2      83.382  60.916  15.649  1.00 10.44 LIG 0.16  HD
ATOM     25  C   ALA C   1      84.959  61.623  14.772  1.00  9.27 LIG 0.25  C 
ATOM     26 O    ALA C   1      85.379  62.223  13.783  1.00  8.72 LIG-0.27  OA
BRANCH 25 27
ATOM     27  CA  ALA C   1      85.919  61.105  15.833  1.00  8.36 LIG 0.27  C 
ATOM     28  CB  ALA C   1      85.846  61.955  17.091  1.00 10.14 LIG 0.05  C 
BRANCH 27 29
ATOM     29  N   ALA C   1      87.303  61.097  15.283  1.00  5.51 LIG-0.07  N 
ATOM     30 H1   ALA C   1      87.613  60.262  15.269  1.00  5.51 LIG 0.28  HD
ATOM     31 H2   ALA C   1      87.296  61.424  14.455  1.00  5.51 LIG 0.28  HD
ATOM     32 H3   ALA C   1      87.829  61.600  15.795  1.00  5.51 LIG 0.28  HD
ENDBRANCH 27 29
ENDBRANCH 25 27
ENDBRANCH 19 23
ENDBRANCH 1 19
TORSDOF 10
ENDMDL
MODEL 10
USER: ADFR SOLUTION from run 133
USER: SCORE 12.999045 LL:  -2.672 LR: -10.514 RR:   0.000 FEB:  -7.531
USER: RMSD 5.246605
USER: SEED 132
USER: STATUS no improvement in best in 4 clusters for 5 generations
USER: GENES 12
USER: genes 0 Translation |==|  0.65675 0.40081 0.36141
USER: genes 1 Rotation |==|  0.04466 0.49454 0.47065 0.70440
USER: genes 2 Torsion [N]-CA--C-[O] |==|  0.76228
USER: genes 3 Torsion [C]-N--CA-[C] |==|  0.60228
USER: genes 4 Torsion [N]-CA--C-[O] |==|  0.02927
USER: genes 5 Torsion [N]-CA--CB-[CG2] |==|  0.32862
USER: genes 6 Torsion [CA]-CB--CG1-[CD1] |==|  0.19120
USER: genes 7 Torsion [N]-C--CA-[N] |==|  0.28904
USER: genes 8 Torsion [C]-CA--CB-[CG1] |==|  0.12012
USER: genes 9 Torsion [C]-CA--N-[C] |==|  0.73060
USER: genes 10 Torsion [N]-C--CA-[N] |==|  0.16849
USER: genes 11 Torsion [C]-CA--N-[H2] |==|  0.38288
ROOT
ATOM      1  C   VAL C   2      84.049  61.184  13.840  1.00  9.13 LIG 0.24  C 
ATOM      2 O    VAL C   2      83.827  62.221  13.222  1.00  8.39 LIG-0.27  OA
ATOM      3  N   PRO C   3      83.401  60.051  13.568  1.00  8.40 LIG-0.34  N 
ATOM      4  CA  PRO C   3      82.343  60.033  12.548  1.00  9.15 LIG 0.18  C 
ATOM      5  CB  PRO C   3      81.891  58.571  12.530  1.00 10.26 LIG 0.04  C 
ATOM      6  CG  PRO C   3      83.036  57.814  13.104  1.00 11.14 LIG 0.02  C 
ATOM      7  CD  PRO C   3      83.621  58.715  14.148  1.00 11.16 LIG 0.13  C 
ENDROOT
BRANCH 4 8
ATOM      8  C   PRO C   3      81.174  60.974  12.876  1.00  9.70 LIG 0.24  C 
ATOM      9 O    PRO C   3      80.256  60.588  13.596  1.00  8.21 LIG-0.27  OA
ATOM     10  N   ILE C   4      81.217  62.192  12.345  1.00 10.20 LIG-0.35  N 
ATOM     11 H    ILE C   4      81.839  62.460  11.815  1.00 10.20 LIG 0.16  HD
BRANCH 10 12
ATOM     12  CA  ILE C   4      80.190  63.197  12.623  1.00 11.44 LIG 0.17  C 
BRANCH 12 13
ATOM     13  C   ILE C   4      79.900  64.039  11.381  1.00 10.89 LIG 0.22  C 
ATOM     14 O    ILE C   4      80.351  63.709  10.291  1.00  9.55 LIG-0.29  OA
ENDBRANCH 12 13
BRANCH 12 15
ATOM     15  CB  ILE C   4      80.621  64.097  13.809  1.00 10.54 LIG 0.01  C 
ATOM     16  CG2 ILE C   4      80.755  65.566  13.369  1.00 11.57 LIG 0.01  C 
BRANCH 15 17
ATOM     17  CG1 ILE C   4      79.615  63.961  14.957  1.00  9.08 LIG 0.00  C 
ATOM     18  CD1 ILE C   4      79.631  62.598  15.645  1.00  9.00 LIG 0.01  C 
ENDBRANCH 15 17
ENDBRANCH 12 15
ENDBRANCH 10 12
ENDBRANCH 4 8
BRANCH 1 19
ATOM     19  CA  VAL C   2      85.088  61.170  14.957  1.00  9.18 LIG 0.18  C 
BRANCH 19 20
ATOM     20  CB  VAL C   2      84.864  62.399  15.874  1.00  9.29 LIG 0.01  C 
ATOM     21  CG1 VAL C   2      83.381  62.597  16.160  1.00 10.46 LIG 0.01  C 
ATOM     22  CG2 VAL C   2      85.662  62.276  17.179  1.00 10.38 LIG 0.01  C 
ENDBRANCH 19 20
BRANCH 19 23
ATOM     23  N   VAL C   2      86.436  61.161  14.389  1.00 10.44 LIG-0.35  N 
ATOM     24 H    VAL C   2      86.727  61.940  14.168  1.00 10.44 LIG 0.16  HD
ATOM     25  C   ALA C   1      87.140  60.048  14.231  1.00  9.27 LIG 0.25  C 
ATOM     26 O    ALA C   1      86.740  58.940  14.587  1.00  8.72 LIG-0.27  OA
BRANCH 25 27
ATOM     27  CA  ALA C   1      88.515  60.212  13.602  1.00  8.36 LIG 0.27  C 
ATOM     28  CB  ALA C   1      89.188  58.863  13.409  1.00 10.14 LIG 0.05  C 
BRANCH 27 29
ATOM     29  N   ALA C   1      89.349  61.097  14.463  1.00  5.51 LIG-0.07  N 
ATOM     30 H1   ALA C   1      88.990  61.144  15.276  1.00  5.51 LIG 0.28  HD
ATOM     31 H2   ALA C   1      90.172  60.765  14.520  1.00  5.51 LIG 0.28  HD
ATOM     32 H3   ALA C   1      89.382  61.912  14.106  1.00  5.51 LIG 0.28  HD
ENDBRANCH 27 29
ENDBRANCH 25 27
ENDBRANCH 19 23
ENDBRANCH 1 19
TORSDOF 10
ENDMDL
MODEL 11
USER: ADFR SOLUTION from run 171
USER: SCORE 13.093273 LL:  -2.772 LR: -10.476 RR:   0.000 FEB:  -7.493
USER: RMSD 7.402620
USER: SEED 170
USER: STATUS no improvement in best in 5 clusters for 5 generations
USER: GENES 12
USER: genes 0 Translation |==|  0.48124 0.47573 0.43199
USER: genes 1 Rotation |==|  0.60884 0.54850 0.97796 0.58577
USER: genes 2 Torsion [N]-CA--C-[O] |==|  0.89075
USER: genes 3 Torsion [C]-N--CA-[C] |==|  0.61295
USER: genes 4 Torsion [N]-CA--C-[O] |==|  0.13216
USER: genes 5 Torsion [N]-CA--CB-[CG2] |==|  0.82291
USER: genes 6 Torsion [CA]-CB--CG1-[CD1] |==|  0.67913
USER: genes 7 Torsion [N]-C--CA-[N] |==|  0.30686
USER: genes 8 Torsion [C]-CA--CB-[CG1] |==|  0.13246
USER: genes 9 Torsion [C]-CA--N-[C] |==|  0.76650
USER: genes 10 Torsion [N]-C--CA-[N] |==|  0.51178
USER: genes 11 Torsion [C]-CA--N-[H2] |==|  0.66548
ROOT
ATOM      1  C   VAL C   2      80.363  62.251  14.952  1.00  9.13 LIG 0.24  C 
ATOM      2 O    VAL C   2      81.226  62.488  15.793  1.00  8.39 LIG-0.27  OA
ATOM      3  N   PRO C   3      80.319  61.091  14.297  1.00  8.40 LIG-0.34  N 
ATOM      4  CA  PRO C   3      81.358  60.076  14.523  1.00  9.15 LIG 0.18  C 
ATOM      5  CB  PRO C   3      80.927  58.919  13.619  1.00 10.26 LIG 0.04  C 
ATOM      6  CG  PRO C   3      79.473  59.137  13.393  1.00 11.14 LIG 0.02  C 
ATOM      7  CD  PRO C   3      79.301  60.624  13.340  1.00 11.16 LIG 0.13  C 
ENDROOT
BRANCH 4 8
ATOM      8  C   PRO C   3      82.768  60.568  14.165  1.00  9.70 LIG 0.24  C 
ATOM      9 O    PRO C   3      82.942  61.270  13.172  1.00  8.21 LIG-0.27  OA
ATOM     10  N   ILE C   4      83.756  60.193  14.971  1.00 10.20 LIG-0.35  N 
ATOM     11 H    ILE C   4      83.649  59.676  15.650  1.00 10.20 LIG 0.16  HD
BRANCH 10 12
ATOM     12  CA  ILE C   4      85.136  60.636  14.767  1.00 11.44 LIG 0.17  C 
BRANCH 12 13
ATOM     13  C   ILE C   4      86.120  59.495  15.021  1.00 10.89 LIG 0.22  C 
ATOM     14 O    ILE C   4      85.929  58.392  14.524  1.00  9.55 LIG-0.29  OA
ENDBRANCH 12 13
BRANCH 12 15
ATOM     15  CB  ILE C   4      85.454  61.849  15.678  1.00 10.54 LIG 0.01  C 
ATOM     16  CG2 ILE C   4      84.583  63.063  15.309  1.00 11.57 LIG 0.01  C 
BRANCH 15 17
ATOM     17  CG1 ILE C   4      85.255  61.462  17.148  1.00  9.08 LIG 0.00  C 
ATOM     18  CD1 ILE C   4      84.132  62.222  17.849  1.00  9.00 LIG 0.01  C 
ENDBRANCH 15 17
ENDBRANCH 12 15
ENDBRANCH 10 12
ENDBRANCH 4 8
BRANCH 1 19
ATOM     19  CA  VAL C   2      79.305  63.303  14.630  1.00  9.18 LIG 0.18  C 
BRANCH 19 20
ATOM     20  CB  VAL C   2      80.007  64.638  14.277  1.00  9.29 LIG 0.01  C 
ATOM     21  CG1 VAL C   2      81.132  64.409  13.278  1.00 10.46 LIG 0.01  C 
ATOM     22  CG2 VAL C   2      79.005  65.672  13.747  1.00 10.38 LIG 0.01  C 
ENDBRANCH 19 20
BRANCH 19 23
ATOM     23  N   VAL C   2      78.391  63.458  15.762  1.00 10.44 LIG-0.35  N 
ATOM     24 H    VAL C   2      78.594  64.107  16.288  1.00 10.44 LIG 0.16  HD
ATOM     25  C   ALA C   1      77.346  62.663  15.953  1.00  9.27 LIG 0.25  C 
ATOM     26 O    ALA C   1      77.031  61.761  15.177  1.00  8.72 LIG-0.27  OA
BRANCH 25 27
ATOM     27  CA  ALA C   1      76.511  62.946  17.193  1.00  8.36 LIG 0.27  C 
ATOM     28  CB  ALA C   1      77.382  62.972  18.438  1.00 10.14 LIG 0.05  C 
BRANCH 27 29
ATOM     29  N   ALA C   1      75.446  61.912  17.317  1.00  5.51 LIG-0.07  N 
ATOM     30 H1   ALA C   1      75.547  61.472  18.085  1.00  5.51 LIG 0.28  HD
ATOM     31 H2   ALA C   1      74.648  62.305  17.303  1.00  5.51 LIG 0.28  HD
ATOM     32 H3   ALA C   1      75.507  61.340  16.638  1.00  5.51 LIG 0.28  HD
ENDBRANCH 27 29
ENDBRANCH 25 27
ENDBRANCH 19 23
ENDBRANCH 1 19
TORSDOF 10
ENDMDL
