MODEL 1
USER: ADFR SOLUTION from run 98
USER: SCORE 19.513235 LL:  -5.564 LR: -16.274 RR:   0.000 FEB:  -8.518
USER: RMSD 12.670488
USER: SEED 97
USER: STATUS no improvement in best in 13 clusters for 5 generations
USER: GENES 28
USER: genes 0 Translation |==|  0.81492 0.41874 0.64896
USER: genes 1 Rotation |==|  0.69402 0.41458 0.94761 0.56859
USER: genes 2 Torsion [C]-N--CA-[C] |==|  0.55151
USER: genes 3 Torsion [N]-CA--C-[N] |==|  0.42242
USER: genes 4 Torsion [C]-N--CA-[C] |==|  0.13825
USER: genes 5 Torsion [N]-CA--C-[N] |==|  0.62501
USER: genes 6 Torsion [C]-N--CA-[C] |==|  0.50079
USER: genes 7 Torsion [N]-CA--CB-[OG] |==|  0.62403
USER: genes 8 Torsion [CA]-CB--OG-[HG] |==|  0.87034
USER: genes 9 Torsion [N]-CA--C-[N] |==|  0.44660
USER: genes 10 Torsion [C]-N--CA-[C] |==|  0.74457
USER: genes 11 Torsion [N]-CA--C-[O] |==|  0.25926
USER: genes 12 Torsion [N]-CA--CB-[CG] |==|  0.77105
USER: genes 13 Torsion [CA]-CB--CG-[CD2] |==|  0.28071
USER: genes 14 Torsion [N]-CA--CB-[CG] |==|  0.78366
USER: genes 15 Torsion [CA]-CB--CG-[CD2] |==|  0.32928
USER: genes 16 Torsion [N]-CA--CB-[CG2] |==|  0.28052
USER: genes 17 Torsion [CA]-CB--CG1-[CD1] |==|  0.01236
USER: genes 18 Torsion [O]-C--CA-[CB] |==|  0.99671
USER: genes 19 Torsion [N]-C--CA-[N] |==|  0.49499
USER: genes 20 Torsion [C]-CA--CB-[CG] |==|  0.43325
USER: genes 21 Torsion [CA]-CB--CG-[CD] |==|  0.96711
USER: genes 22 Torsion [CB]-CG--CD-[NE] |==|  0.26129
USER: genes 23 Torsion [CG]-CD--NE-[CZ] |==|  0.27812
USER: genes 24 Torsion [C]-CA--N-[C] |==|  0.17679
USER: genes 25 Torsion [N]-C--CA-[N] |==|  0.96062
USER: genes 26 Torsion [C]-CA--CB-[CG] |==|  0.79785
USER: genes 27 Torsion [CA]-CB--CG-[ND2] |==|  0.48945
ROOT
ATOM      1  C   PRO C  36      57.473  53.616  15.830  1.00 34.41 LIG 0.24  C 
ATOM      2 O    PRO C  36      58.395  53.819  16.625  1.00 29.89 LIG-0.27  OA
ATOM      3  N   ILE C  37      56.476  54.475  15.629  1.00 30.61 LIG-0.35  N 
ATOM      4 H    ILE C  37      55.850  54.343  15.054  1.00 30.61 LIG 0.16  HD
ENDROOT
BRANCH 3 5
ATOM      5  CA  ILE C  37      56.346  55.725  16.365  1.00 31.48 LIG 0.18  C 
BRANCH 5 6
ATOM      6  C   ILE C  37      54.898  56.146  16.187  1.00 31.96 LIG 0.24  C 
ATOM      7 O    ILE C  37      54.267  55.818  15.181  1.00 31.93 LIG-0.27  OA
ATOM      8  N   LEU C  38      54.377  56.880  17.162  1.00 30.89 LIG-0.35  N 
ATOM      9 H    LEU C  38      54.815  57.151  17.851  1.00 30.89 LIG 0.16  HD
BRANCH 8 10
ATOM     10  CA  LEU C  38      52.981  57.290  17.129  1.00 34.88 LIG 0.18  C 
BRANCH 10 11
ATOM     11  C   LEU C  38      51.942  56.208  16.859  1.00 39.33 LIG 0.24  C 
ATOM     12 O    LEU C  38      51.992  55.119  17.429  1.00 37.11 LIG-0.27  OA
ATOM     13  N   SER C  39      50.998  56.532  15.980  1.00 40.29 LIG-0.34  N 
ATOM     14 H    SER C  39      50.943  57.304  15.604  1.00 40.29 LIG 0.16  HD
BRANCH 13 15
ATOM     15  CA  SER C  39      49.959  55.596  15.568  1.00 42.99 LIG 0.20  C 
BRANCH 15 16
ATOM     16  CB  SER C  39      49.087  55.181  16.759  1.00 41.70 LIG 0.20  C 
BRANCH 16 17
ATOM     17 OG   SER C  39      48.849  53.783  16.772  1.00 43.46 LIG-0.40  OA
ATOM     18 HG   SER C  39      48.625  53.529  16.003  1.00 43.46 LIG 0.21  HD
ENDBRANCH 16 17
ENDBRANCH 15 16
BRANCH 15 19
ATOM     19  C   SER C  39      49.116  56.374  14.562  1.00 43.99 LIG 0.24  C 
ATOM     20  N   LEU C  40      48.347  55.670  13.739  1.00 44.48 LIG-0.34  N 
ATOM     21 H    LEU C  40      48.297  54.811  13.739  1.00 44.48 LIG 0.16  HD
ATOM     22 O    SER C  39      49.169  57.604  14.537  1.00 44.86 LIG-0.27  OA
BRANCH 20 23
ATOM     23  CA  LEU C  40      47.507  56.328  12.746  1.00 50.99 LIG 0.18  C 
BRANCH 23 24
ATOM     24  C   LEU C  40      46.110  56.590  13.309  1.00 53.79 LIG 0.20  C 
ATOM     25 O    LEU C  40      45.890  57.701  13.840  1.00 58.34 LIG-0.65  OA
ATOM     26 OXT  LEU C  40      45.257  55.683  13.224  1.00 54.01 LIG-0.65  OA
ENDBRANCH 23 24
BRANCH 23 27
ATOM     27  CB  LEU C  40      47.412  55.456  11.490  1.00 48.71 LIG 0.04  C 
BRANCH 27 28
ATOM     28  CG  LEU C  40      48.542  55.525  10.461  1.00 48.98 LIG-0.02  C 
ATOM     29  CD2 LEU C  40      49.450  54.325  10.643  1.00 51.62 LIG 0.01  C 
ATOM     30  CD1 LEU C  40      49.331  56.814  10.636  1.00 51.55 LIG 0.01  C 
ENDBRANCH 27 28
ENDBRANCH 23 27
ENDBRANCH 20 23
ENDBRANCH 15 19
ENDBRANCH 13 15
ENDBRANCH 10 11
BRANCH 10 31
ATOM     31  CB  LEU C  38      52.812  58.410  16.107  1.00 30.69 LIG 0.04  C 
BRANCH 31 32
ATOM     32  CG  LEU C  38      53.268  59.798  16.563  1.00 36.50 LIG-0.02  C 
ATOM     33  CD2 LEU C  38      54.397  60.297  15.664  1.00 35.12 LIG 0.01  C 
ATOM     34  CD1 LEU C  38      53.725  59.727  18.015  1.00 37.99 LIG 0.01  C 
ENDBRANCH 31 32
ENDBRANCH 10 31
ENDBRANCH 8 10
ENDBRANCH 5 6
BRANCH 5 35
ATOM     35  CB  ILE C  37      57.261  56.808  15.775  1.00 37.32 LIG 0.01  C 
ATOM     36  CG2 ILE C  37      56.449  57.751  14.900  1.00 35.15 LIG 0.01  C 
BRANCH 35 37
ATOM     37  CG1 ILE C  37      57.958  57.559  16.909  1.00 33.54 LIG 0.00  C 
ATOM     38  CD1 ILE C  37      57.668  56.997  18.282  1.00 46.98 LIG 0.01  C 
ENDBRANCH 35 37
ENDBRANCH 5 35
ENDBRANCH 3 5
BRANCH 1 39
ATOM     39  CA  PRO C  36      57.421  52.343  14.988  1.00 32.35 LIG 0.18  C 
ATOM     40  CB  PRO C  36      58.622  51.431  15.241  1.00 32.18 LIG 0.04  C 
ATOM     41  CG  PRO C  36      59.585  51.830  14.164  1.00 32.63 LIG 0.02  C 
ATOM     42  CD  PRO C  36      58.694  51.992  12.954  1.00 32.64 LIG 0.13  C 
ATOM     43  N   PRO C  36      57.474  52.572  13.542  1.00 32.06 LIG-0.34  N 
ATOM     44  C   ARG C  35      56.463  53.196  12.928  1.00 32.74 LIG 0.24  C 
ATOM     45 O    ARG C  35      55.471  53.583  13.543  1.00 32.93 LIG-0.27  OA
BRANCH 44 46
ATOM     46  CA  ARG C  35      56.578  53.405  11.425  1.00 37.56 LIG 0.18  C 
BRANCH 46 47
ATOM     47  CB  ARG C  35      57.799  54.268  11.108  1.00 40.42 LIG 0.04  C 
BRANCH 47 48
ATOM     48  CG  ARG C  35      58.332  54.072   9.714  1.00 36.41 LIG 0.02  C 
BRANCH 48 49
ATOM     49  CD  ARG C  35      57.713  52.856   9.047  1.00 39.80 LIG 0.14  C 
BRANCH 49 50
ATOM     50  NE  ARG C  35      56.553  53.236   8.246  1.00 32.60 LIG-0.23  N 
ATOM     51 HE   ARG C  35      55.810  53.368   8.657  1.00 32.60 LIG 0.18  HD
ATOM     52  CZ  ARG C  35      56.567  53.393   6.927  1.00 32.33 LIG 0.67  C 
ATOM     53  NH2 ARG C  35      57.688  53.204   6.245  1.00 28.83 LIG-0.23  N 
ATOM     54  NH1 ARG C  35      55.456  53.740   6.293  1.00 30.81 LIG-0.23  N 
ATOM     55 2HH2 ARG C  35      57.693  53.306   5.392  1.00 28.83 LIG 0.17  HD
ATOM     56 1HH2 ARG C  35      58.409  52.980   6.656  1.00 28.83 LIG 0.17  HD
ATOM     57 1HH1 ARG C  35      54.729  53.864   6.735  1.00 30.81 LIG 0.17  HD
ATOM     58 2HH1 ARG C  35      55.461  53.843   5.439  1.00 30.81 LIG 0.17  HD
ENDBRANCH 49 50
ENDBRANCH 48 49
ENDBRANCH 47 48
ENDBRANCH 46 47
BRANCH 46 59
ATOM     59  N   ARG C  35      55.362  54.056  10.963  1.00 36.73 LIG-0.35  N 
ATOM     60  C   ASN C  34      55.048  55.277  11.383  1.00 40.82 LIG 0.26  C 
ATOM     61 O    ASN C  34      55.748  55.906  12.175  1.00 33.40 LIG-0.27  OA
ATOM     62 H    ARG C  35      54.888  53.593  10.414  1.00 36.73 LIG 0.16  HD
BRANCH 60 63
ATOM     63  CA  ASN C  34      53.761  55.878  10.831  1.00 41.08 LIG 0.41  C 
ATOM     64  N   ASN C  34      53.294  55.086   9.659  1.00 44.32 LIG 0.61  N 
BRANCH 63 65
ATOM     65  CB  ASN C  34      52.700  55.880  11.937  1.00 43.19 LIG 0.15  C 
BRANCH 65 66
ATOM     66  CG  ASN C  34      52.157  54.491  12.242  1.00 48.82 LIG 0.22  C 
ATOM     67  ND2 ASN C  34      51.288  54.393  13.244  1.00 46.77 LIG-0.37  N 
ATOM     68 21HD ASN C  34      50.952  53.629  13.449  1.00 46.77 LIG 0.16  HD
ATOM     69 22HD ASN C  34      51.063  55.095  13.687  1.00 46.77 LIG 0.16  HD
ATOM     70 OD1  ASN C  34      52.514  53.519  11.576  1.00 54.33 LIG-0.27  OA
ENDBRANCH 65 66
ENDBRANCH 63 65
ENDBRANCH 60 63
ENDBRANCH 46 59
ENDBRANCH 44 46
ENDBRANCH 1 39
TORSDOF 26
ENDMDL
MODEL 2
USER: ADFR SOLUTION from run 98
USER: SCORE 19.350957 LL:  -5.864 LR: -15.639 RR:   0.000 FEB:  -7.883
USER: RMSD 12.778019
USER: SEED 97
USER: STATUS no improvement in best in 13 clusters for 5 generations
USER: GENES 28
USER: genes 0 Translation |==|  0.82104 0.40964 0.63973
USER: genes 1 Rotation |==|  0.70396 0.41272 0.94380 0.56186
USER: genes 2 Torsion [C]-N--CA-[C] |==|  0.55239
USER: genes 3 Torsion [N]-CA--C-[N] |==|  0.44510
USER: genes 4 Torsion [C]-N--CA-[C] |==|  0.92210
USER: genes 5 Torsion [N]-CA--C-[N] |==|  0.28349
USER: genes 6 Torsion [C]-N--CA-[C] |==|  0.76217
USER: genes 7 Torsion [N]-CA--CB-[OG] |==|  0.46865
USER: genes 8 Torsion [CA]-CB--OG-[HG] |==|  0.79702
USER: genes 9 Torsion [N]-CA--C-[N] |==|  0.41207
USER: genes 10 Torsion [C]-N--CA-[C] |==|  0.73352
USER: genes 11 Torsion [N]-CA--C-[O] |==|  0.50483
USER: genes 12 Torsion [N]-CA--CB-[CG] |==|  0.72063
USER: genes 13 Torsion [CA]-CB--CG-[CD2] |==|  0.21074
USER: genes 14 Torsion [N]-CA--CB-[CG] |==|  0.68465
USER: genes 15 Torsion [CA]-CB--CG-[CD2] |==|  0.84955
USER: genes 16 Torsion [N]-CA--CB-[CG2] |==|  0.23011
USER: genes 17 Torsion [CA]-CB--CG1-[CD1] |==|  0.06913
USER: genes 18 Torsion [O]-C--CA-[CB] |==|  0.00355
USER: genes 19 Torsion [N]-C--CA-[N] |==|  0.50122
USER: genes 20 Torsion [C]-CA--CB-[CG] |==|  0.48043
USER: genes 21 Torsion [CA]-CB--CG-[CD] |==|  0.91688
USER: genes 22 Torsion [CB]-CG--CD-[NE] |==|  0.28328
USER: genes 23 Torsion [CG]-CD--NE-[CZ] |==|  0.33397
USER: genes 24 Torsion [C]-CA--N-[C] |==|  0.18889
USER: genes 25 Torsion [N]-C--CA-[N] |==|  0.90846
USER: genes 26 Torsion [C]-CA--CB-[CG] |==|  0.78093
USER: genes 27 Torsion [CA]-CB--CG-[ND2] |==|  0.21833
ROOT
ATOM      1  C   PRO C  36      57.666  53.453  15.657  1.00 34.41 LIG 0.24  C 
ATOM      2 O    PRO C  36      58.611  53.660  16.424  1.00 29.89 LIG-0.27  OA
ATOM      3  N   ILE C  37      56.641  54.289  15.514  1.00 30.61 LIG-0.35  N 
ATOM      4 H    ILE C  37      55.998  54.156  14.958  1.00 30.61 LIG 0.16  HD
ENDROOT
BRANCH 3 5
ATOM      5  CA  ILE C  37      56.506  55.517  16.285  1.00 31.48 LIG 0.18  C 
BRANCH 5 6
ATOM      6  C   ILE C  37      55.041  55.899  16.177  1.00 31.96 LIG 0.24  C 
ATOM      7 O    ILE C  37      54.340  55.454  15.266  1.00 31.93 LIG-0.27  OA
ATOM      8  N   LEU C  38      54.581  56.733  17.101  1.00 30.89 LIG-0.35  N 
ATOM      9 H    LEU C  38      55.066  57.084  17.719  1.00 30.89 LIG 0.16  HD
BRANCH 8 10
ATOM     10  CA  LEU C  38      53.180  57.121  17.133  1.00 34.88 LIG 0.18  C 
BRANCH 10 11
ATOM     11  C   LEU C  38      52.423  57.117  15.810  1.00 39.33 LIG 0.24  C 
ATOM     12 O    LEU C  38      52.559  58.028  14.995  1.00 37.11 LIG-0.27  OA
ATOM     13  N   SER C  39      51.626  56.071  15.612  1.00 40.29 LIG-0.34  N 
ATOM     14 H    SER C  39      51.555  55.417  16.167  1.00 40.29 LIG 0.16  HD
BRANCH 13 15
ATOM     15  CA  SER C  39      50.793  55.936  14.424  1.00 42.99 LIG 0.20  C 
BRANCH 15 16
ATOM     16  CB  SER C  39      50.454  54.466  14.153  1.00 41.70 LIG 0.20  C 
BRANCH 16 17
ATOM     17 OG   SER C  39      49.444  54.334  13.165  1.00 43.46 LIG-0.40  OA
ATOM     18 HG   SER C  39      48.703  54.560  13.490  1.00 43.46 LIG 0.21  HD
ENDBRANCH 16 17
ENDBRANCH 15 16
BRANCH 15 19
ATOM     19  C   SER C  39      49.517  56.702  14.760  1.00 43.99 LIG 0.24  C 
ATOM     20  N   LEU C  40      48.883  57.298  13.755  1.00 44.48 LIG-0.34  N 
ATOM     21 H    LEU C  40      49.146  57.277  12.936  1.00 44.48 LIG 0.16  HD
ATOM     22 O    SER C  39      49.118  56.753  15.924  1.00 44.86 LIG-0.27  OA
BRANCH 20 23
ATOM     23  CA  LEU C  40      47.656  58.052  13.981  1.00 50.99 LIG 0.18  C 
BRANCH 23 24
ATOM     24  C   LEU C  40      46.430  57.182  13.704  1.00 53.79 LIG 0.20  C 
ATOM     25 O    LEU C  40      45.300  57.704  13.824  1.00 58.34 LIG-0.65  OA
ATOM     26 OXT  LEU C  40      46.610  55.989  13.381  1.00 54.01 LIG-0.65  OA
ENDBRANCH 23 24
BRANCH 23 27
ATOM     27  CB  LEU C  40      47.637  59.289  13.079  1.00 48.71 LIG 0.04  C 
BRANCH 27 28
ATOM     28  CG  LEU C  40      48.011  60.644  13.682  1.00 48.98 LIG-0.02  C 
ATOM     29  CD2 LEU C  40      49.516  60.708  13.857  1.00 51.62 LIG 0.01  C 
ATOM     30  CD1 LEU C  40      47.316  60.830  15.022  1.00 51.55 LIG 0.01  C 
ENDBRANCH 27 28
ENDBRANCH 23 27
ENDBRANCH 20 23
ENDBRANCH 15 19
ENDBRANCH 13 15
ENDBRANCH 10 11
BRANCH 10 31
ATOM     31  CB  LEU C  38      53.057  58.501  17.773  1.00 30.69 LIG 0.04  C 
BRANCH 31 32
ATOM     32  CG  LEU C  38      52.335  58.545  19.121  1.00 36.50 LIG-0.02  C 
ATOM     33  CD2 LEU C  38      50.960  57.893  18.997  1.00 35.12 LIG 0.01  C 
ATOM     34  CD1 LEU C  38      52.207  59.993  19.578  1.00 37.99 LIG 0.01  C 
ENDBRANCH 31 32
ENDBRANCH 10 31
ENDBRANCH 8 10
ENDBRANCH 5 6
BRANCH 5 35
ATOM     35  CB  ILE C  37      57.364  56.640  15.687  1.00 37.32 LIG 0.01  C 
ATOM     36  CG2 ILE C  37      56.622  57.303  14.537  1.00 35.15 LIG 0.01  C 
BRANCH 35 37
ATOM     37  CG1 ILE C  37      57.718  57.649  16.780  1.00 33.54 LIG 0.00  C 
ATOM     38  CD1 ILE C  37      57.699  57.069  18.175  1.00 46.98 LIG 0.01  C 
ENDBRANCH 35 37
ENDBRANCH 5 35
ENDBRANCH 3 5
BRANCH 1 39
ATOM     39  CA  PRO C  36      57.616  52.199  14.785  1.00 32.35 LIG 0.18  C 
ATOM     40  CB  PRO C  36      58.819  51.284  15.015  1.00 32.18 LIG 0.04  C 
ATOM     41  CG  PRO C  36      59.781  51.710  13.948  1.00 32.63 LIG 0.02  C 
ATOM     42  CD  PRO C  36      58.889  51.899  12.743  1.00 32.64 LIG 0.13  C 
ATOM     43  N   PRO C  36      57.668  52.463  13.345  1.00 32.06 LIG-0.34  N 
ATOM     44  C   ARG C  35      56.655  53.100  12.746  1.00 32.74 LIG 0.24  C 
ATOM     45 O    ARG C  35      55.664  53.470  13.371  1.00 32.93 LIG-0.27  OA
BRANCH 44 46
ATOM     46  CA  ARG C  35      56.770  53.344  11.248  1.00 37.56 LIG 0.18  C 
BRANCH 46 47
ATOM     47  CB  ARG C  35      58.020  54.170  10.946  1.00 40.42 LIG 0.04  C 
BRANCH 47 48
ATOM     48  CG  ARG C  35      58.305  54.319   9.475  1.00 36.41 LIG 0.02  C 
BRANCH 48 49
ATOM     49  CD  ARG C  35      57.810  53.118   8.688  1.00 39.80 LIG 0.14  C 
BRANCH 49 50
ATOM     50  NE  ARG C  35      56.554  53.422   8.010  1.00 32.60 LIG-0.23  N 
ATOM     51 HE   ARG C  35      55.883  53.652   8.496  1.00 32.60 LIG 0.18  HD
ATOM     52  CZ  ARG C  35      56.375  53.367   6.695  1.00 32.33 LIG 0.67  C 
ATOM     53  NH2 ARG C  35      57.377  53.019   5.900  1.00 28.83 LIG-0.23  N 
ATOM     54  NH1 ARG C  35      55.190  53.662   6.178  1.00 30.81 LIG-0.23  N 
ATOM     55 2HH2 ARG C  35      57.258  52.985   5.049  1.00 28.83 LIG 0.17  HD
ATOM     56 1HH2 ARG C  35      58.145  52.829   6.235  1.00 28.83 LIG 0.17  HD
ATOM     57 1HH1 ARG C  35      54.540  53.889   6.694  1.00 30.81 LIG 0.17  HD
ATOM     58 2HH1 ARG C  35      55.071  53.628   5.327  1.00 30.81 LIG 0.17  HD
ENDBRANCH 49 50
ENDBRANCH 48 49
ENDBRANCH 47 48
ENDBRANCH 46 47
BRANCH 46 59
ATOM     59  N   ARG C  35      55.576  54.052  10.811  1.00 36.73 LIG-0.35  N 
ATOM     60  C   ASN C  34      55.353  55.303  11.199  1.00 40.82 LIG 0.26  C 
ATOM     61 O    ASN C  34      56.123  55.916  11.937  1.00 33.40 LIG-0.27  OA
ATOM     62 H    ARG C  35      55.052  53.599  10.300  1.00 36.73 LIG 0.16  HD
BRANCH 60 63
ATOM     63  CA  ASN C  34      54.082  55.962  10.677  1.00 41.08 LIG 0.41  C 
ATOM     64  N   ASN C  34      53.771  55.453   9.311  1.00 44.32 LIG 0.61  N 
BRANCH 63 65
ATOM     65  CB  ASN C  34      52.932  55.654  11.642  1.00 43.19 LIG 0.15  C 
BRANCH 65 66
ATOM     66  CG  ASN C  34      52.359  54.255  11.455  1.00 48.82 LIG 0.22  C 
ATOM     67  ND2 ASN C  34      53.050  53.250  11.986  1.00 46.77 LIG-0.37  N 
ATOM     68 21HD ASN C  34      52.763  52.443  11.909  1.00 46.77 LIG 0.16  HD
ATOM     69 22HD ASN C  34      53.785  53.407  12.405  1.00 46.77 LIG 0.16  HD
ATOM     70 OD1  ASN C  34      51.304  54.086  10.846  1.00 54.33 LIG-0.27  OA
ENDBRANCH 65 66
ENDBRANCH 63 65
ENDBRANCH 60 63
ENDBRANCH 46 59
ENDBRANCH 44 46
ENDBRANCH 1 39
TORSDOF 26
ENDMDL
MODEL 3
USER: ADFR SOLUTION from run 156
USER: SCORE 19.260372 LL:  -5.543 LR: -15.546 RR:   0.000 FEB:  -7.790
USER: RMSD 13.990674
USER: SEED 155
USER: STATUS no improvement in best in 6 clusters for 5 generations
USER: GENES 28
USER: genes 0 Translation |==|  0.80200 0.40984 0.65820
USER: genes 1 Rotation |==|  0.52775 0.35889 0.97823 0.52470
USER: genes 2 Torsion [C]-N--CA-[C] |==|  0.57222
USER: genes 3 Torsion [N]-CA--C-[N] |==|  0.06037
USER: genes 4 Torsion [C]-N--CA-[C] |==|  0.78456
USER: genes 5 Torsion [N]-CA--C-[N] |==|  0.37243
USER: genes 6 Torsion [C]-N--CA-[C] |==|  0.17334
USER: genes 7 Torsion [N]-CA--CB-[OG] |==|  0.51328
USER: genes 8 Torsion [CA]-CB--OG-[HG] |==|  0.61897
USER: genes 9 Torsion [N]-CA--C-[N] |==|  0.61370
USER: genes 10 Torsion [C]-N--CA-[C] |==|  0.18681
USER: genes 11 Torsion [N]-CA--C-[O] |==|  0.58069
USER: genes 12 Torsion [N]-CA--CB-[CG] |==|  0.71151
USER: genes 13 Torsion [CA]-CB--CG-[CD2] |==|  0.42640
USER: genes 14 Torsion [N]-CA--CB-[CG] |==|  0.58908
USER: genes 15 Torsion [CA]-CB--CG-[CD2] |==|  0.08218
USER: genes 16 Torsion [N]-CA--CB-[CG2] |==|  0.73369
USER: genes 17 Torsion [CA]-CB--CG1-[CD1] |==|  0.64288
USER: genes 18 Torsion [O]-C--CA-[CB] |==|  0.91369
USER: genes 19 Torsion [N]-C--CA-[N] |==|  0.16981
USER: genes 20 Torsion [C]-CA--CB-[CG] |==|  0.34132
USER: genes 21 Torsion [CA]-CB--CG-[CD] |==|  0.28503
USER: genes 22 Torsion [CB]-CG--CD-[NE] |==|  0.11281
USER: genes 23 Torsion [CG]-CD--NE-[CZ] |==|  0.66317
USER: genes 24 Torsion [C]-CA--N-[C] |==|  0.62363
USER: genes 25 Torsion [N]-C--CA-[N] |==|  0.56430
USER: genes 26 Torsion [C]-CA--CB-[CG] |==|  0.50579
USER: genes 27 Torsion [CA]-CB--CG-[ND2] |==|  0.58570
ROOT
ATOM      1  C   PRO C  36      57.066  53.456  16.003  1.00 34.41 LIG 0.24  C 
ATOM      2 O    PRO C  36      57.230  53.476  17.227  1.00 29.89 LIG-0.27  OA
ATOM      3  N   ILE C  37      56.423  54.410  15.335  1.00 30.61 LIG-0.35  N 
ATOM      4 H    ILE C  37      56.334  54.408  14.480  1.00 30.61 LIG 0.16  HD
ENDROOT
BRANCH 3 5
ATOM      5  CA  ILE C  37      55.803  55.555  15.987  1.00 31.48 LIG 0.18  C 
BRANCH 5 6
ATOM      6  C   ILE C  37      54.689  55.994  15.054  1.00 31.96 LIG 0.24  C 
ATOM      7 O    ILE C  37      54.234  57.137  15.110  1.00 31.93 LIG-0.27  OA
ATOM      8  N   LEU C  38      54.244  55.080  14.201  1.00 30.89 LIG-0.35  N 
ATOM      9 H    LEU C  38      54.523  54.266  14.175  1.00 30.89 LIG 0.16  HD
BRANCH 8 10
ATOM     10  CA  LEU C  38      53.222  55.403  13.218  1.00 34.88 LIG 0.18  C 
BRANCH 10 11
ATOM     11  C   LEU C  38      51.781  55.484  13.710  1.00 39.33 LIG 0.24  C 
ATOM     12 O    LEU C  38      51.310  54.620  14.449  1.00 37.11 LIG-0.27  OA
ATOM     13  N   SER C  39      51.093  56.541  13.287  1.00 40.29 LIG-0.34  N 
ATOM     14 H    SER C  39      51.430  57.162  12.797  1.00 40.29 LIG 0.16  HD
BRANCH 13 15
ATOM     15  CA  SER C  39      49.689  56.744  13.621  1.00 42.99 LIG 0.20  C 
BRANCH 15 16
ATOM     16  CB  SER C  39      48.841  55.540  13.194  1.00 41.70 LIG 0.20  C 
BRANCH 16 17
ATOM     17 OG   SER C  39      47.459  55.769  13.413  1.00 43.46 LIG-0.40  OA
ATOM     18 HG   SER C  39      47.109  55.079  13.742  1.00 43.46 LIG 0.21  HD
ENDBRANCH 16 17
ENDBRANCH 15 16
BRANCH 15 19
ATOM     19  C   SER C  39      49.669  56.873  15.141  1.00 43.99 LIG 0.24  C 
ATOM     20  N   LEU C  40      48.679  56.268  15.790  1.00 44.48 LIG-0.34  N 
ATOM     21 H    LEU C  40      48.056  55.813  15.407  1.00 44.48 LIG 0.16  HD
ATOM     22 O    SER C  39      50.545  57.520  15.715  1.00 44.86 LIG-0.27  OA
BRANCH 20 23
ATOM     23  CA  LEU C  40      48.579  56.335  17.242  1.00 50.99 LIG 0.18  C 
BRANCH 23 24
ATOM     24  C   LEU C  40      48.267  57.761  17.695  1.00 53.79 LIG 0.20  C 
ATOM     25 O    LEU C  40      48.675  58.123  18.821  1.00 58.34 LIG-0.65  OA
ATOM     26 OXT  LEU C  40      47.611  58.497  16.928  1.00 54.01 LIG-0.65  OA
ENDBRANCH 23 24
BRANCH 23 27
ATOM     27  CB  LEU C  40      49.892  55.859  17.872  1.00 48.71 LIG 0.04  C 
BRANCH 27 28
ATOM     28  CG  LEU C  40      49.944  54.462  18.493  1.00 48.98 LIG-0.02  C 
ATOM     29  CD2 LEU C  40      51.371  53.954  18.448  1.00 51.62 LIG 0.01  C 
ATOM     30  CD1 LEU C  40      49.023  53.517  17.734  1.00 51.55 LIG 0.01  C 
ENDBRANCH 27 28
ENDBRANCH 23 27
ENDBRANCH 20 23
ENDBRANCH 15 19
ENDBRANCH 13 15
ENDBRANCH 10 11
BRANCH 10 31
ATOM     31  CB  LEU C  38      53.300  54.404  12.067  1.00 30.69 LIG 0.04  C 
BRANCH 31 32
ATOM     32  CG  LEU C  38      52.916  54.949  10.689  1.00 36.50 LIG-0.02  C 
ATOM     33  CD2 LEU C  38      53.239  56.440  10.610  1.00 35.12 LIG 0.01  C 
ATOM     34  CD1 LEU C  38      51.433  54.703  10.445  1.00 37.99 LIG 0.01  C 
ENDBRANCH 31 32
ENDBRANCH 10 31
ENDBRANCH 8 10
ENDBRANCH 5 6
BRANCH 5 35
ATOM     35  CB  ILE C  37      56.806  56.706  16.149  1.00 37.32 LIG 0.01  C 
ATOM     36  CG2 ILE C  37      57.426  56.661  17.537  1.00 35.15 LIG 0.01  C 
BRANCH 35 37
ATOM     37  CG1 ILE C  37      57.872  56.609  15.057  1.00 33.54 LIG 0.00  C 
ATOM     38  CD1 ILE C  37      59.289  56.656  15.582  1.00 46.98 LIG 0.01  C 
ENDBRANCH 35 37
ENDBRANCH 5 35
ENDBRANCH 3 5
BRANCH 1 39
ATOM     39  CA  PRO C  36      57.620  52.317  15.149  1.00 32.35 LIG 0.18  C 
ATOM     40  CB  PRO C  36      58.908  51.730  15.730  1.00 32.18 LIG 0.04  C 
ATOM     41  CG  PRO C  36      59.982  52.486  15.009  1.00 32.63 LIG 0.02  C 
ATOM     42  CD  PRO C  36      59.463  52.544  13.591  1.00 32.64 LIG 0.13  C 
ATOM     43  N   PRO C  36      58.015  52.714  13.796  1.00 32.06 LIG-0.34  N 
ATOM     44  C   ARG C  35      57.086  53.115  12.921  1.00 32.74 LIG 0.24  C 
ATOM     45 O    ARG C  35      55.893  53.156  13.216  1.00 32.93 LIG-0.27  OA
BRANCH 44 46
ATOM     46  CA  ARG C  35      57.559  53.515  11.531  1.00 37.56 LIG 0.18  C 
BRANCH 46 47
ATOM     47  CB  ARG C  35      56.373  53.985  10.689  1.00 40.42 LIG 0.04  C 
BRANCH 47 48
ATOM     48  CG  ARG C  35      56.533  55.382  10.147  1.00 36.41 LIG 0.02  C 
BRANCH 48 49
ATOM     49  CD  ARG C  35      56.918  55.369   8.678  1.00 39.80 LIG 0.14  C 
BRANCH 49 50
ATOM     50  NE  ARG C  35      56.178  54.340   7.955  1.00 32.60 LIG-0.23  N 
ATOM     51 HE   ARG C  35      55.320  54.385   7.963  1.00 32.60 LIG 0.18  HD
ATOM     52  CZ  ARG C  35      56.739  53.339   7.285  1.00 32.33 LIG 0.67  C 
ATOM     53  NH2 ARG C  35      58.058  53.225   7.238  1.00 28.83 LIG-0.23  N 
ATOM     54  NH1 ARG C  35      55.974  52.454   6.660  1.00 30.81 LIG-0.23  N 
ATOM     55 2HH2 ARG C  35      58.418  52.576   6.804  1.00 28.83 LIG 0.17  HD
ATOM     56 1HH2 ARG C  35      58.554  53.799   7.642  1.00 28.83 LIG 0.17  HD
ATOM     57 1HH1 ARG C  35      55.118  52.530   6.689  1.00 30.81 LIG 0.17  HD
ATOM     58 2HH1 ARG C  35      56.334  51.805   6.225  1.00 30.81 LIG 0.17  HD
ENDBRANCH 49 50
ENDBRANCH 48 49
ENDBRANCH 47 48
ENDBRANCH 46 47
BRANCH 46 59
ATOM     59  N   ARG C  35      58.190  52.357  10.916  1.00 36.73 LIG-0.35  N 
ATOM     60  C   ASN C  34      59.341  52.482  10.264  1.00 40.82 LIG 0.26  C 
ATOM     61 O    ASN C  34      59.920  53.561  10.140  1.00 33.40 LIG-0.27  OA
ATOM     62 H    ARG C  35      57.762  51.617  11.012  1.00 36.73 LIG 0.16  HD
BRANCH 60 63
ATOM     63  CA  ASN C  34      59.928  51.209   9.667  1.00 41.08 LIG 0.41  C 
ATOM     64  N   ASN C  34      61.399  51.366   9.483  1.00 44.32 LIG 0.61  N 
BRANCH 63 65
ATOM     65  CB  ASN C  34      59.626  50.035  10.605  1.00 43.19 LIG 0.15  C 
BRANCH 65 66
ATOM     66  CG  ASN C  34      60.218  48.719  10.119  1.00 48.82 LIG 0.22  C 
ATOM     67  ND2 ASN C  34      59.553  47.611  10.433  1.00 46.77 LIG-0.37  N 
ATOM     68 21HD ASN C  34      59.848  46.845  10.176  1.00 46.77 LIG 0.16  HD
ATOM     69 22HD ASN C  34      58.829  47.660  10.895  1.00 46.77 LIG 0.16  HD
ATOM     70 OD1  ASN C  34      61.258  48.705   9.462  1.00 54.33 LIG-0.27  OA
ENDBRANCH 65 66
ENDBRANCH 63 65
ENDBRANCH 60 63
ENDBRANCH 46 59
ENDBRANCH 44 46
ENDBRANCH 1 39
TORSDOF 26
ENDMDL
MODEL 4
USER: ADFR SOLUTION from run 30
USER: SCORE 17.718593 LL:  -5.172 LR: -15.430 RR:   0.000 FEB:  -7.674
USER: RMSD 13.141150
USER: SEED 29
USER: STATUS no improvement in best in 6 clusters for 5 generations
USER: GENES 28
USER: genes 0 Translation |==|  0.66143 0.57648 0.68424
USER: genes 1 Rotation |==|  0.44671 0.56479 0.15777 0.85474
USER: genes 2 Torsion [C]-N--CA-[C] |==|  0.44787
USER: genes 3 Torsion [N]-CA--C-[N] |==|  0.90531
USER: genes 4 Torsion [C]-N--CA-[C] |==|  0.15000
USER: genes 5 Torsion [N]-CA--C-[N] |==|  0.56481
USER: genes 6 Torsion [C]-N--CA-[C] |==|  0.58183
USER: genes 7 Torsion [N]-CA--CB-[OG] |==|  0.84652
USER: genes 8 Torsion [CA]-CB--OG-[HG] |==|  0.86165
USER: genes 9 Torsion [N]-CA--C-[N] |==|  0.06317
USER: genes 10 Torsion [C]-N--CA-[C] |==|  0.18138
USER: genes 11 Torsion [N]-CA--C-[O] |==|  0.58836
USER: genes 12 Torsion [N]-CA--CB-[CG] |==|  0.53290
USER: genes 13 Torsion [CA]-CB--CG-[CD2] |==|  0.50940
USER: genes 14 Torsion [N]-CA--CB-[CG] |==|  0.88451
USER: genes 15 Torsion [CA]-CB--CG-[CD2] |==|  0.62216
USER: genes 16 Torsion [N]-CA--CB-[CG2] |==|  0.23586
USER: genes 17 Torsion [CA]-CB--CG1-[CD1] |==|  0.22496
USER: genes 18 Torsion [O]-C--CA-[CB] |==|  0.71186
USER: genes 19 Torsion [N]-C--CA-[N] |==|  0.48172
USER: genes 20 Torsion [C]-CA--CB-[CG] |==|  0.52703
USER: genes 21 Torsion [CA]-CB--CG-[CD] |==|  0.77223
USER: genes 22 Torsion [CB]-CG--CD-[NE] |==|  0.63903
USER: genes 23 Torsion [CG]-CD--NE-[CZ] |==|  0.71179
USER: genes 24 Torsion [C]-CA--N-[C] |==|  0.62715
USER: genes 25 Torsion [N]-C--CA-[N] |==|  0.48211
USER: genes 26 Torsion [C]-CA--CB-[CG] |==|  0.48020
USER: genes 27 Torsion [CA]-CB--CG-[ND2] |==|  0.27702
ROOT
ATOM      1  C   PRO C  36      52.638  56.456  16.491  1.00 34.41 LIG 0.24  C 
ATOM      2 O    PRO C  36      52.323  56.398  17.684  1.00 29.89 LIG-0.27  OA
ATOM      3  N   ILE C  37      51.945  55.864  15.522  1.00 30.61 LIG-0.35  N 
ATOM      4 H    ILE C  37      52.151  55.929  14.689  1.00 30.61 LIG 0.16  HD
ENDROOT
BRANCH 3 5
ATOM      5  CA  ILE C  37      50.767  55.046  15.774  1.00 31.48 LIG 0.18  C 
BRANCH 5 6
ATOM      6  C   ILE C  37      50.037  54.974  14.445  1.00 31.96 LIG 0.24  C 
ATOM      7 O    ILE C  37      49.429  53.954  14.116  1.00 31.93 LIG-0.27  OA
ATOM      8  N   LEU C  38      50.106  56.055  13.678  1.00 30.89 LIG-0.35  N 
ATOM      9 H    LEU C  38      50.559  56.759  13.875  1.00 30.89 LIG 0.16  HD
BRANCH 8 10
ATOM     10  CA  LEU C  38      49.396  56.123  12.410  1.00 34.88 LIG 0.18  C 
BRANCH 10 11
ATOM     11  C   LEU C  38      47.899  55.840  12.432  1.00 39.33 LIG 0.24  C 
ATOM     12 O    LEU C  38      47.237  55.986  13.460  1.00 37.11 LIG-0.27  OA
ATOM     13  N   SER C  39      47.378  55.436  11.277  1.00 40.29 LIG-0.34  N 
ATOM     14 H    SER C  39      47.832  55.365  10.551  1.00 40.29 LIG 0.16  HD
BRANCH 13 15
ATOM     15  CA  SER C  39      45.973  55.073  11.137  1.00 42.99 LIG 0.20  C 
BRANCH 15 16
ATOM     16  CB  SER C  39      45.129  56.285  10.723  1.00 41.70 LIG 0.20  C 
BRANCH 16 17
ATOM     17 OG   SER C  39      45.291  57.368  11.623  1.00 43.46 LIG-0.40  OA
ATOM     18 HG   SER C  39      45.188  57.096  12.412  1.00 43.46 LIG 0.21  HD
ENDBRANCH 16 17
ENDBRANCH 15 16
BRANCH 15 19
ATOM     19  C   SER C  39      45.953  54.031  10.024  1.00 43.99 LIG 0.24  C 
ATOM     20  N   LEU C  40      47.082  53.369   9.790  1.00 44.48 LIG-0.34  N 
ATOM     21 H    LEU C  40      47.815  53.494  10.224  1.00 44.48 LIG 0.16  HD
ATOM     22 O    SER C  39      44.920  53.834   9.384  1.00 44.86 LIG-0.27  OA
BRANCH 20 23
ATOM     23  CA  LEU C  40      47.158  52.354   8.747  1.00 50.99 LIG 0.18  C 
BRANCH 23 24
ATOM     24  C   LEU C  40      46.966  52.984   7.368  1.00 53.79 LIG 0.20  C 
ATOM     25 O    LEU C  40      46.414  52.297   6.480  1.00 58.34 LIG-0.65  OA
ATOM     26 OXT  LEU C  40      47.376  54.149   7.185  1.00 54.01 LIG-0.65  OA
ENDBRANCH 23 24
BRANCH 23 27
ATOM     27  CB  LEU C  40      46.089  51.284   8.990  1.00 48.71 LIG 0.04  C 
BRANCH 27 28
ATOM     28  CG  LEU C  40      46.155  49.985   8.186  1.00 48.98 LIG-0.02  C 
ATOM     29  CD2 LEU C  40      44.956  49.125   8.536  1.00 51.62 LIG 0.01  C 
ATOM     30  CD1 LEU C  40      47.445  49.241   8.497  1.00 51.55 LIG 0.01  C 
ENDBRANCH 27 28
ENDBRANCH 23 27
ENDBRANCH 20 23
ENDBRANCH 15 19
ENDBRANCH 13 15
ENDBRANCH 10 11
BRANCH 10 31
ATOM     31  CB  LEU C  38      50.066  55.185  11.410  1.00 30.69 LIG 0.04  C 
BRANCH 31 32
ATOM     32  CG  LEU C  38      51.596  55.187  11.423  1.00 36.50 LIG-0.02  C 
ATOM     33  CD2 LEU C  38      52.129  55.211   9.992  1.00 35.12 LIG 0.01  C 
ATOM     34  CD1 LEU C  38      52.096  53.953  12.164  1.00 37.99 LIG 0.01  C 
ENDBRANCH 31 32
ENDBRANCH 10 31
ENDBRANCH 8 10
ENDBRANCH 5 6
BRANCH 5 35
ATOM     35  CB  ILE C  37      49.852  55.706  16.816  1.00 37.32 LIG 0.01  C 
ATOM     36  CG2 ILE C  37      48.929  56.706  16.136  1.00 35.15 LIG 0.01  C 
BRANCH 35 37
ATOM     37  CG1 ILE C  37      49.060  54.627  17.555  1.00 33.54 LIG 0.00  C 
ATOM     38  CD1 ILE C  37      49.835  53.952  18.662  1.00 46.98 LIG 0.01  C 
ENDBRANCH 35 37
ENDBRANCH 5 35
ENDBRANCH 3 5
BRANCH 1 39
ATOM     39  CA  PRO C  36      53.864  57.244  16.034  1.00 32.35 LIG 0.18  C 
ATOM     40  CB  PRO C  36      53.488  58.580  15.391  1.00 32.18 LIG 0.04  C 
ATOM     41  CG  PRO C  36      53.437  58.252  13.930  1.00 32.63 LIG 0.02  C 
ATOM     42  CD  PRO C  36      54.641  57.359  13.740  1.00 32.64 LIG 0.13  C 
ATOM     43  N   PRO C  36      54.653  56.582  14.992  1.00 32.06 LIG-0.34  N 
ATOM     44  C   ARG C  35      55.303  55.447  15.268  1.00 32.74 LIG 0.24  C 
ATOM     45 O    ARG C  35      55.267  54.935  16.385  1.00 32.93 LIG-0.27  OA
BRANCH 44 46
ATOM     46  CA  ARG C  35      56.105  54.808  14.143  1.00 37.56 LIG 0.18  C 
BRANCH 46 47
ATOM     47  CB  ARG C  35      55.166  54.330  13.036  1.00 40.42 LIG 0.04  C 
BRANCH 47 48
ATOM     48  CG  ARG C  35      55.843  53.482  11.992  1.00 36.41 LIG 0.02  C 
BRANCH 48 49
ATOM     49  CD  ARG C  35      56.558  54.335  10.959  1.00 39.80 LIG 0.14  C 
BRANCH 49 50
ATOM     50  NE  ARG C  35      56.196  53.925   9.606  1.00 32.60 LIG-0.23  N 
ATOM     51 HE   ARG C  35      55.426  54.164   9.308  1.00 32.60 LIG 0.18  HD
ATOM     52  CZ  ARG C  35      56.975  53.210   8.802  1.00 32.33 LIG 0.67  C 
ATOM     53  NH2 ARG C  35      58.173  52.818   9.210  1.00 28.83 LIG-0.23  N 
ATOM     54  NH1 ARG C  35      56.550  52.888   7.587  1.00 30.81 LIG-0.23  N 
ATOM     55 2HH2 ARG C  35      58.675  52.355   8.687  1.00 28.83 LIG 0.17  HD
ATOM     56 1HH2 ARG C  35      58.450  53.028   9.997  1.00 28.83 LIG 0.17  HD
ATOM     57 1HH1 ARG C  35      55.773  53.144   7.322  1.00 30.81 LIG 0.17  HD
ATOM     58 2HH1 ARG C  35      57.052  52.425   7.064  1.00 30.81 LIG 0.17  HD
ENDBRANCH 49 50
ENDBRANCH 48 49
ENDBRANCH 47 48
ENDBRANCH 46 47
BRANCH 46 59
ATOM     59  N   ARG C  35      56.848  53.686  14.696  1.00 36.73 LIG-0.35  N 
ATOM     60  C   ASN C  34      58.132  53.514  14.398  1.00 40.82 LIG 0.26  C 
ATOM     61 O    ASN C  34      58.747  54.271  13.648  1.00 33.40 LIG-0.27  OA
ATOM     62 H    ARG C  35      56.394  53.169  15.212  1.00 36.73 LIG 0.16  HD
BRANCH 60 63
ATOM     63  CA  ASN C  34      58.825  52.317  15.037  1.00 41.08 LIG 0.41  C 
ATOM     64  N   ASN C  34      60.202  52.174  14.485  1.00 44.32 LIG 0.61  N 
BRANCH 63 65
ATOM     65  CB  ASN C  34      58.872  52.523  16.555  1.00 43.19 LIG 0.15  C 
BRANCH 65 66
ATOM     66  CG  ASN C  34      59.392  51.303  17.304  1.00 48.82 LIG 0.22  C 
ATOM     67  ND2 ASN C  34      60.667  51.331  17.683  1.00 46.77 LIG-0.37  N 
ATOM     68 21HD ASN C  34      61.002  50.666  18.112  1.00 46.77 LIG 0.16  HD
ATOM     69 22HD ASN C  34      61.156  52.014  17.497  1.00 46.77 LIG 0.16  HD
ATOM     70 OD1  ASN C  34      58.650  50.351  17.542  1.00 54.33 LIG-0.27  OA
ENDBRANCH 65 66
ENDBRANCH 63 65
ENDBRANCH 60 63
ENDBRANCH 46 59
ENDBRANCH 44 46
ENDBRANCH 1 39
TORSDOF 26
ENDMDL
MODEL 5
USER: ADFR SOLUTION from run 98
USER: SCORE 19.598847 LL:  -6.258 LR: -15.409 RR:   0.000 FEB:  -7.654
USER: RMSD 12.919936
USER: SEED 97
USER: STATUS no improvement in best in 13 clusters for 5 generations
USER: GENES 28
USER: genes 0 Translation |==|  0.81137 0.41122 0.63520
USER: genes 1 Rotation |==|  0.65674 0.39350 0.96006 0.54935
USER: genes 2 Torsion [C]-N--CA-[C] |==|  0.57353
USER: genes 3 Torsion [N]-CA--C-[N] |==|  0.42120
USER: genes 4 Torsion [C]-N--CA-[C] |==|  0.56668
USER: genes 5 Torsion [N]-CA--C-[N] |==|  0.77002
USER: genes 6 Torsion [C]-N--CA-[C] |==|  0.17759
USER: genes 7 Torsion [N]-CA--CB-[OG] |==|  0.89399
USER: genes 8 Torsion [CA]-CB--OG-[HG] |==|  0.01668
USER: genes 9 Torsion [N]-CA--C-[N] |==|  0.09010
USER: genes 10 Torsion [C]-N--CA-[C] |==|  0.67311
USER: genes 11 Torsion [N]-CA--C-[O] |==|  0.42668
USER: genes 12 Torsion [N]-CA--CB-[CG] |==|  0.75818
USER: genes 13 Torsion [CA]-CB--CG-[CD2] |==|  0.34597
USER: genes 14 Torsion [N]-CA--CB-[CG] |==|  0.52198
USER: genes 15 Torsion [CA]-CB--CG-[CD2] |==|  0.59942
USER: genes 16 Torsion [N]-CA--CB-[CG2] |==|  0.28737
USER: genes 17 Torsion [CA]-CB--CG1-[CD1] |==|  0.04980
USER: genes 18 Torsion [O]-C--CA-[CB] |==|  0.97209
USER: genes 19 Torsion [N]-C--CA-[N] |==|  0.51129
USER: genes 20 Torsion [C]-CA--CB-[CG] |==|  0.45426
USER: genes 21 Torsion [CA]-CB--CG-[CD] |==|  0.92673
USER: genes 22 Torsion [CB]-CG--CD-[NE] |==|  0.25412
USER: genes 23 Torsion [CG]-CD--NE-[CZ] |==|  0.34251
USER: genes 24 Torsion [C]-CA--N-[C] |==|  0.17870
USER: genes 25 Torsion [N]-C--CA-[N] |==|  0.93706
USER: genes 26 Torsion [C]-CA--CB-[CG] |==|  0.78546
USER: genes 27 Torsion [CA]-CB--CG-[ND2] |==|  0.18924
ROOT
ATOM      1  C   PRO C  36      57.361  53.481  15.572  1.00 34.41 LIG 0.24  C 
ATOM      2 O    PRO C  36      58.124  53.632  16.531  1.00 29.89 LIG-0.27  OA
ATOM      3  N   ILE C  37      56.395  54.342  15.262  1.00 30.61 LIG-0.35  N 
ATOM      4 H    ILE C  37      55.883  54.249  14.577  1.00 30.61 LIG 0.16  HD
ENDROOT
BRANCH 3 5
ATOM      5  CA  ILE C  37      56.107  55.530  16.054  1.00 31.48 LIG 0.18  C 
BRANCH 5 6
ATOM      6  C   ILE C  37      54.640  55.830  15.807  1.00 31.96 LIG 0.24  C 
ATOM      7 O    ILE C  37      54.104  55.516  14.743  1.00 31.93 LIG-0.27  OA
ATOM      8  N   LEU C  38      53.994  56.449  16.787  1.00 30.89 LIG-0.35  N 
ATOM      9 H    LEU C  38      54.362  56.711  17.519  1.00 30.89 LIG 0.16  HD
BRANCH 8 10
ATOM     10  CA  LEU C  38      52.571  56.734  16.687  1.00 34.88 LIG 0.18  C 
BRANCH 10 11
ATOM     11  C   LEU C  38      52.029  57.885  17.527  1.00 39.33 LIG 0.24  C 
ATOM     12 O    LEU C  38      51.866  59.005  17.045  1.00 37.11 LIG-0.27  OA
ATOM     13  N   SER C  39      51.750  57.585  18.792  1.00 40.29 LIG-0.34  N 
ATOM     14 H    SER C  39      51.832  56.795  19.123  1.00 40.29 LIG 0.16  HD
BRANCH 13 15
ATOM     15  CA  SER C  39      51.273  58.580  19.745  1.00 42.99 LIG 0.20  C 
BRANCH 15 16
ATOM     16  CB  SER C  39      52.224  59.781  19.809  1.00 41.70 LIG 0.20  C 
BRANCH 16 17
ATOM     17 OG   SER C  39      53.581  59.381  19.715  1.00 43.46 LIG-0.40  OA
ATOM     18 HG   SER C  39      53.620  58.557  19.558  1.00 43.46 LIG 0.21  HD
ENDBRANCH 16 17
ENDBRANCH 15 16
BRANCH 15 19
ATOM     19  C   SER C  39      49.922  59.024  19.195  1.00 43.99 LIG 0.24  C 
ATOM     20  N   LEU C  40      49.203  58.117  18.541  1.00 44.48 LIG-0.34  N 
ATOM     21 H    LEU C  40      49.453  57.304  18.411  1.00 44.48 LIG 0.16  HD
ATOM     22 O    SER C  39      49.540  60.183  19.362  1.00 44.86 LIG-0.27  OA
BRANCH 20 23
ATOM     23  CA  LEU C  40      47.899  58.451  17.981  1.00 50.99 LIG 0.18  C 
BRANCH 23 24
ATOM     24  C   LEU C  40      46.802  57.610  18.632  1.00 53.79 LIG 0.20  C 
ATOM     25 O    LEU C  40      45.642  58.079  18.662  1.00 58.34 LIG-0.65  OA
ATOM     26 OXT  LEU C  40      47.111  56.500  19.113  1.00 54.01 LIG-0.65  OA
ENDBRANCH 23 24
BRANCH 23 27
ATOM     27  CB  LEU C  40      47.913  58.217  16.467  1.00 48.71 LIG 0.04  C 
BRANCH 27 28
ATOM     28  CG  LEU C  40      48.390  59.347  15.554  1.00 48.98 LIG-0.02  C 
ATOM     29  CD2 LEU C  40      49.519  58.834  14.681  1.00 51.62 LIG 0.01  C 
ATOM     30  CD1 LEU C  40      48.863  60.530  16.387  1.00 51.55 LIG 0.01  C 
ENDBRANCH 27 28
ENDBRANCH 23 27
ENDBRANCH 20 23
ENDBRANCH 15 19
ENDBRANCH 13 15
ENDBRANCH 10 11
BRANCH 10 31
ATOM     31  CB  LEU C  38      51.783  55.467  17.009  1.00 30.69 LIG 0.04  C 
BRANCH 31 32
ATOM     32  CG  LEU C  38      50.274  55.546  16.766  1.00 36.50 LIG-0.02  C 
ATOM     33  CD2 LEU C  38      49.532  54.742  17.832  1.00 35.12 LIG 0.01  C 
ATOM     34  CD1 LEU C  38      49.960  55.015  15.373  1.00 37.99 LIG 0.01  C 
ENDBRANCH 31 32
ENDBRANCH 10 31
ENDBRANCH 8 10
ENDBRANCH 5 6
BRANCH 5 35
ATOM     35  CB  ILE C  37      56.951  56.722  15.583  1.00 37.32 LIG 0.01  C 
ATOM     36  CG2 ILE C  37      56.094  57.671  14.760  1.00 35.15 LIG 0.01  C 
BRANCH 35 37
ATOM     37  CG1 ILE C  37      57.559  57.427  16.797  1.00 33.54 LIG 0.00  C 
ATOM     38  CD1 ILE C  37      57.560  56.587  18.053  1.00 46.98 LIG 0.01  C 
ENDBRANCH 35 37
ENDBRANCH 5 35
ENDBRANCH 3 5
BRANCH 1 39
ATOM     39  CA  PRO C  36      57.489  52.276  14.642  1.00 32.35 LIG 0.18  C 
ATOM     40  CB  PRO C  36      58.770  51.479  14.896  1.00 32.18 LIG 0.04  C 
ATOM     41  CG  PRO C  36      59.734  52.058  13.906  1.00 32.63 LIG 0.02  C 
ATOM     42  CD  PRO C  36      58.889  52.216  12.663  1.00 32.64 LIG 0.13  C 
ATOM     43  N   PRO C  36      57.586  52.618  13.220  1.00 32.06 LIG-0.34  N 
ATOM     44  C   ARG C  35      56.543  53.177  12.596  1.00 32.74 LIG 0.24  C 
ATOM     45 O    ARG C  35      55.487  53.409  13.181  1.00 32.93 LIG-0.27  OA
BRANCH 44 46
ATOM     46  CA  ARG C  35      56.707  53.509  11.120  1.00 37.56 LIG 0.18  C 
BRANCH 46 47
ATOM     47  CB  ARG C  35      57.930  54.403  10.917  1.00 40.42 LIG 0.04  C 
BRANCH 47 48
ATOM     48  CG  ARG C  35      58.403  54.464   9.488  1.00 36.41 LIG 0.02  C 
BRANCH 48 49
ATOM     49  CD  ARG C  35      58.022  53.210   8.721  1.00 39.80 LIG 0.14  C 
BRANCH 49 50
ATOM     50  NE  ARG C  35      56.729  53.374   8.064  1.00 32.60 LIG-0.23  N 
ATOM     51 HE   ARG C  35      56.054  53.578   8.556  1.00 32.60 LIG 0.18  HD
ATOM     52  CZ  ARG C  35      56.523  53.229   6.760  1.00 32.33 LIG 0.67  C 
ATOM     53  NH2 ARG C  35      57.530  52.916   5.957  1.00 28.83 LIG-0.23  N 
ATOM     54  NH1 ARG C  35      55.306  53.399   6.262  1.00 30.81 LIG-0.23  N 
ATOM     55 2HH2 ARG C  35      57.393  52.823   5.113  1.00 28.83 LIG 0.17  HD
ATOM     56 1HH2 ARG C  35      58.319  52.807   6.279  1.00 28.83 LIG 0.17  HD
ATOM     57 1HH1 ARG C  35      54.653  53.604   6.784  1.00 30.81 LIG 0.17  HD
ATOM     58 2HH1 ARG C  35      55.169  53.307   5.419  1.00 30.81 LIG 0.17  HD
ENDBRANCH 49 50
ENDBRANCH 48 49
ENDBRANCH 47 48
ENDBRANCH 46 47
BRANCH 46 59
ATOM     59  N   ARG C  35      55.502  54.189  10.671  1.00 36.73 LIG-0.35  N 
ATOM     60  C   ASN C  34      55.170  55.375  11.170  1.00 40.82 LIG 0.26  C 
ATOM     61 O    ASN C  34      55.845  55.948  12.025  1.00 33.40 LIG-0.27  OA
ATOM     62 H    ARG C  35      55.045  53.765  10.078  1.00 36.73 LIG 0.16  HD
BRANCH 60 63
ATOM     63  CA  ASN C  34      53.897  56.011  10.626  1.00 41.08 LIG 0.41  C 
ATOM     64  N   ASN C  34      53.580  55.445   9.285  1.00 44.32 LIG 0.61  N 
BRANCH 63 65
ATOM     65  CB  ASN C  34      52.750  55.745  11.608  1.00 43.19 LIG 0.15  C 
BRANCH 65 66
ATOM     66  CG  ASN C  34      52.204  54.326  11.511  1.00 48.82 LIG 0.22  C 
ATOM     67  ND2 ASN C  34      53.008  53.346  11.912  1.00 46.77 LIG-0.37  N 
ATOM     68 21HD ASN C  34      52.740  52.529  11.879  1.00 46.77 LIG 0.16  HD
ATOM     69 22HD ASN C  34      53.797  53.528  12.203  1.00 46.77 LIG 0.16  HD
ATOM     70 OD1  ASN C  34      51.068  54.121  11.086  1.00 54.33 LIG-0.27  OA
ENDBRANCH 65 66
ENDBRANCH 63 65
ENDBRANCH 60 63
ENDBRANCH 46 59
ENDBRANCH 44 46
ENDBRANCH 1 39
TORSDOF 26
ENDMDL
MODEL 6
USER: ADFR SOLUTION from run 172
USER: SCORE 20.440048 LL:  -5.309 LR: -15.395 RR:   0.000 FEB:  -7.639
USER: RMSD 13.585746
USER: SEED 171
USER: STATUS no improvement in best in 1 clusters for 5 generations
USER: GENES 28
USER: genes 0 Translation |==|  0.83291 0.55488 0.46595
USER: genes 1 Rotation |==|  0.51468 0.10777 0.20939 0.60717
USER: genes 2 Torsion [C]-N--CA-[C] |==|  0.83722
USER: genes 3 Torsion [N]-CA--C-[N] |==|  0.41110
USER: genes 4 Torsion [C]-N--CA-[C] |==|  0.79531
USER: genes 5 Torsion [N]-CA--C-[N] |==|  0.45355
USER: genes 6 Torsion [C]-N--CA-[C] |==|  0.56773
USER: genes 7 Torsion [N]-CA--CB-[OG] |==|  0.50972
USER: genes 8 Torsion [CA]-CB--OG-[HG] |==|  0.98355
USER: genes 9 Torsion [N]-CA--C-[N] |==|  0.46893
USER: genes 10 Torsion [C]-N--CA-[C] |==|  0.70578
USER: genes 11 Torsion [N]-CA--C-[O] |==|  0.60035
USER: genes 12 Torsion [N]-CA--CB-[CG] |==|  0.78588
USER: genes 13 Torsion [CA]-CB--CG-[CD2] |==|  0.24986
USER: genes 14 Torsion [N]-CA--CB-[CG] |==|  0.71358
USER: genes 15 Torsion [CA]-CB--CG-[CD2] |==|  0.65768
USER: genes 16 Torsion [N]-CA--CB-[CG2] |==|  0.73334
USER: genes 17 Torsion [CA]-CB--CG1-[CD1] |==|  0.62917
USER: genes 18 Torsion [O]-C--CA-[CB] |==|  0.70490
USER: genes 19 Torsion [N]-C--CA-[N] |==|  0.37873
USER: genes 20 Torsion [C]-CA--CB-[CG] |==|  0.19344
USER: genes 21 Torsion [CA]-CB--CG-[CD] |==|  0.21128
USER: genes 22 Torsion [CB]-CG--CD-[NE] |==|  0.64104
USER: genes 23 Torsion [CG]-CD--NE-[CZ] |==|  0.51910
USER: genes 24 Torsion [C]-CA--N-[C] |==|  0.83497
USER: genes 25 Torsion [N]-C--CA-[N] |==|  0.51400
USER: genes 26 Torsion [C]-CA--CB-[CG] |==|  0.45362
USER: genes 27 Torsion [CA]-CB--CG-[ND2] |==|  0.68982
ROOT
ATOM      1  C   PRO C  36      58.040  56.067  12.399  1.00 34.41 LIG 0.24  C 
ATOM      2 O    PRO C  36      57.518  56.763  11.523  1.00 29.89 LIG-0.27  OA
ATOM      3  N   ILE C  37      57.834  54.757  12.512  1.00 30.61 LIG-0.35  N 
ATOM      4 H    ILE C  37      58.221  54.270  13.106  1.00 30.61 LIG 0.16  HD
ENDROOT
BRANCH 3 5
ATOM      5  CA  ILE C  37      56.932  54.017  11.641  1.00 31.48 LIG 0.18  C 
BRANCH 5 6
ATOM      6  C   ILE C  37      55.575  54.673  11.818  1.00 31.96 LIG 0.24  C 
ATOM      7 O    ILE C  37      55.250  55.164  12.901  1.00 31.93 LIG-0.27  OA
ATOM      8  N   LEU C  38      54.779  54.673  10.756  1.00 30.89 LIG-0.35  N 
ATOM      9 H    LEU C  38      54.974  54.300  10.006  1.00 30.89 LIG 0.16  HD
BRANCH 8 10
ATOM     10  CA  LEU C  38      53.480  55.326  10.790  1.00 34.88 LIG 0.18  C 
BRANCH 10 11
ATOM     11  C   LEU C  38      52.372  54.636  11.577  1.00 39.33 LIG 0.24  C 
ATOM     12 O    LEU C  38      52.462  53.452  11.901  1.00 37.11 LIG-0.27  OA
ATOM     13  N   SER C  39      51.326  55.400  11.880  1.00 40.29 LIG-0.34  N 
ATOM     14 H    SER C  39      51.276  56.235  11.683  1.00 40.29 LIG 0.16  HD
BRANCH 13 15
ATOM     15  CA  SER C  39      50.158  54.884  12.582  1.00 42.99 LIG 0.20  C 
BRANCH 15 16
ATOM     16  CB  SER C  39      50.361  54.934  14.101  1.00 41.70 LIG 0.20  C 
BRANCH 16 17
ATOM     17 OG   SER C  39      49.265  54.362  14.796  1.00 43.46 LIG-0.40  OA
ATOM     18 HG   SER C  39      48.657  54.167  14.249  1.00 43.46 LIG 0.21  HD
ENDBRANCH 16 17
ENDBRANCH 15 16
BRANCH 15 19
ATOM     19  C   SER C  39      49.024  55.824  12.186  1.00 43.99 LIG 0.24  C 
ATOM     20  N   LEU C  40      47.787  55.454  12.504  1.00 44.48 LIG-0.34  N 
ATOM     21 H    LEU C  40      47.591  54.724  12.915  1.00 44.48 LIG 0.16  HD
ATOM     22 O    SER C  39      49.274  56.874  11.593  1.00 44.86 LIG-0.27  OA
BRANCH 20 23
ATOM     23  CA  LEU C  40      46.642  56.289  12.166  1.00 50.99 LIG 0.18  C 
BRANCH 23 24
ATOM     24  C   LEU C  40      46.094  56.984  13.412  1.00 53.79 LIG 0.20  C 
ATOM     25 O    LEU C  40      44.857  57.141  13.502  1.00 58.34 LIG-0.65  OA
ATOM     26 OXT  LEU C  40      46.905  57.372  14.279  1.00 54.01 LIG-0.65  OA
ENDBRANCH 23 24
BRANCH 23 27
ATOM     27  CB  LEU C  40      45.550  55.430  11.520  1.00 48.71 LIG 0.04  C 
BRANCH 27 28
ATOM     28  CG  LEU C  40      45.716  55.006  10.060  1.00 48.98 LIG-0.02  C 
ATOM     29  CD2 LEU C  40      46.455  53.683  10.010  1.00 51.62 LIG 0.01  C 
ATOM     30  CD1 LEU C  40      46.486  56.069   9.291  1.00 51.55 LIG 0.01  C 
ENDBRANCH 27 28
ENDBRANCH 23 27
ENDBRANCH 20 23
ENDBRANCH 15 19
ENDBRANCH 13 15
ENDBRANCH 10 11
BRANCH 10 31
ATOM     31  CB  LEU C  38      53.002  55.565   9.361  1.00 30.69 LIG 0.04  C 
BRANCH 31 32
ATOM     32  CG  LEU C  38      53.136  57.001   8.849  1.00 36.50 LIG-0.02  C 
ATOM     33  CD2 LEU C  38      51.774  57.520   8.393  1.00 35.12 LIG 0.01  C 
ATOM     34  CD1 LEU C  38      54.138  57.036   7.702  1.00 37.99 LIG 0.01  C 
ENDBRANCH 31 32
ENDBRANCH 10 31
ENDBRANCH 8 10
ENDBRANCH 5 6
BRANCH 5 35
ATOM     35  CB  ILE C  37      56.839  52.546  12.068  1.00 37.32 LIG 0.01  C 
ATOM     36  CG2 ILE C  37      57.801  51.705  11.242  1.00 35.15 LIG 0.01  C 
BRANCH 35 37
ATOM     37  CG1 ILE C  37      57.136  52.429  13.563  1.00 33.54 LIG 0.00  C 
ATOM     38  CD1 ILE C  37      58.104  51.320  13.908  1.00 46.98 LIG 0.01  C 
ENDBRANCH 35 37
ENDBRANCH 5 35
ENDBRANCH 3 5
BRANCH 1 39
ATOM     39  CA  PRO C  36      58.995  56.672  13.426  1.00 32.35 LIG 0.18  C 
ATOM     40  CB  PRO C  36      60.452  56.294  13.157  1.00 32.18 LIG 0.04  C 
ATOM     41  CG  PRO C  36      60.655  55.085  14.019  1.00 32.63 LIG 0.02  C 
ATOM     42  CD  PRO C  36      59.942  55.458  15.298  1.00 32.64 LIG 0.13  C 
ATOM     43  N   PRO C  36      58.778  56.209  14.798  1.00 32.06 LIG-0.34  N 
ATOM     44  C   ARG C  35      57.649  56.530  15.440  1.00 32.74 LIG 0.24  C 
ATOM     45 O    ARG C  35      56.777  57.218  14.912  1.00 32.93 LIG-0.27  OA
BRANCH 44 46
ATOM     46  CA  ARG C  35      57.482  56.019  16.864  1.00 37.56 LIG 0.18  C 
BRANCH 46 47
ATOM     47  CB  ARG C  35      56.529  54.824  16.883  1.00 40.42 LIG 0.04  C 
BRANCH 47 48
ATOM     48  CG  ARG C  35      57.099  53.585  16.244  1.00 36.41 LIG 0.02  C 
BRANCH 48 49
ATOM     49  CD  ARG C  35      58.111  52.906  17.151  1.00 39.80 LIG 0.14  C 
BRANCH 49 50
ATOM     50  NE  ARG C  35      59.355  52.641  16.436  1.00 32.60 LIG-0.23  N 
ATOM     51 HE   ARG C  35      59.435  52.959  15.641  1.00 32.60 LIG 0.18  HD
ATOM     52  CZ  ARG C  35      60.372  51.942  16.928  1.00 32.33 LIG 0.67  C 
ATOM     53  NH2 ARG C  35      60.301  51.431  18.149  1.00 28.83 LIG-0.23  N 
ATOM     54  NH1 ARG C  35      61.461  51.757  16.194  1.00 30.81 LIG-0.23  N 
ATOM     55 2HH2 ARG C  35      60.961  50.980  18.464  1.00 28.83 LIG 0.17  HD
ATOM     56 1HH2 ARG C  35      59.596  51.552  18.625  1.00 28.83 LIG 0.17  HD
ATOM     57 1HH1 ARG C  35      61.507  52.090  15.402  1.00 30.81 LIG 0.17  HD
ATOM     58 2HH1 ARG C  35      62.121  51.306  16.509  1.00 30.81 LIG 0.17  HD
ENDBRANCH 49 50
ENDBRANCH 48 49
ENDBRANCH 47 48
ENDBRANCH 46 47
BRANCH 46 59
ATOM     59  N   ARG C  35      56.954  57.103  17.677  1.00 36.73 LIG-0.35  N 
ATOM     60  C   ASN C  34      57.623  58.244  17.799  1.00 40.82 LIG 0.26  C 
ATOM     61 O    ASN C  34      58.707  58.440  17.250  1.00 33.40 LIG-0.27  OA
ATOM     62 H    ARG C  35      56.198  56.939  18.054  1.00 36.73 LIG 0.16  HD
BRANCH 60 63
ATOM     63  CA  ASN C  34      56.980  59.323  18.661  1.00 41.08 LIG 0.41  C 
ATOM     64  N   ASN C  34      57.789  60.573  18.597  1.00 44.32 LIG 0.61  N 
BRANCH 63 65
ATOM     65  CB  ASN C  34      55.555  59.578  18.157  1.00 43.19 LIG 0.15  C 
BRANCH 65 66
ATOM     66  CG  ASN C  34      54.692  60.322  19.167  1.00 48.82 LIG 0.22  C 
ATOM     67  ND2 ASN C  34      53.690  59.641  19.717  1.00 46.77 LIG-0.37  N 
ATOM     68 21HD ASN C  34      53.180  60.020  20.295  1.00 46.77 LIG 0.16  HD
ATOM     69 22HD ASN C  34      53.553  58.822  19.492  1.00 46.77 LIG 0.16  HD
ATOM     70 OD1  ASN C  34      54.932  61.495  19.452  1.00 54.33 LIG-0.27  OA
ENDBRANCH 65 66
ENDBRANCH 63 65
ENDBRANCH 60 63
ENDBRANCH 46 59
ENDBRANCH 44 46
ENDBRANCH 1 39
TORSDOF 26
ENDMDL
MODEL 7
USER: ADFR SOLUTION from run 50
USER: SCORE 20.041328 LL:  -5.595 LR: -15.318 RR:   0.000 FEB:  -7.562
USER: RMSD 14.107406
USER: SEED 49
USER: STATUS no improvement in best in 6 clusters for 5 generations
USER: GENES 28
USER: genes 0 Translation |==|  0.82253 0.39298 0.67018
USER: genes 1 Rotation |==|  0.56330 0.37609 0.97912 0.53286
USER: genes 2 Torsion [C]-N--CA-[C] |==|  0.60327
USER: genes 3 Torsion [N]-CA--C-[N] |==|  0.42026
USER: genes 4 Torsion [C]-N--CA-[C] |==|  0.74591
USER: genes 5 Torsion [N]-CA--C-[N] |==|  0.27222
USER: genes 6 Torsion [C]-N--CA-[C] |==|  0.70138
USER: genes 7 Torsion [N]-CA--CB-[OG] |==|  0.47430
USER: genes 8 Torsion [CA]-CB--OG-[HG] |==|  0.92571
USER: genes 9 Torsion [N]-CA--C-[N] |==|  0.01566
USER: genes 10 Torsion [C]-N--CA-[C] |==|  0.65783
USER: genes 11 Torsion [N]-CA--C-[O] |==|  0.56099
USER: genes 12 Torsion [N]-CA--CB-[CG] |==|  0.92857
USER: genes 13 Torsion [CA]-CB--CG-[CD2] |==|  0.58728
USER: genes 14 Torsion [N]-CA--CB-[CG] |==|  0.60266
USER: genes 15 Torsion [CA]-CB--CG-[CD2] |==|  0.36731
USER: genes 16 Torsion [N]-CA--CB-[CG2] |==|  0.23472
USER: genes 17 Torsion [CA]-CB--CG1-[CD1] |==|  0.17670
USER: genes 18 Torsion [O]-C--CA-[CB] |==|  0.92928
USER: genes 19 Torsion [N]-C--CA-[N] |==|  0.15919
USER: genes 20 Torsion [C]-CA--CB-[CG] |==|  0.30058
USER: genes 21 Torsion [CA]-CB--CG-[CD] |==|  0.28143
USER: genes 22 Torsion [CB]-CG--CD-[NE] |==|  0.13485
USER: genes 23 Torsion [CG]-CD--NE-[CZ] |==|  0.68430
USER: genes 24 Torsion [C]-CA--N-[C] |==|  0.60565
USER: genes 25 Torsion [N]-C--CA-[N] |==|  0.57911
USER: genes 26 Torsion [C]-CA--CB-[CG] |==|  0.47882
USER: genes 27 Torsion [CA]-CB--CG-[ND2] |==|  0.60180
ROOT
ATOM      1  C   PRO C  36      57.713  53.153  16.228  1.00 34.41 LIG 0.24  C 
ATOM      2 O    PRO C  36      58.055  53.250  17.410  1.00 29.89 LIG-0.27  OA
ATOM      3  N   ILE C  37      56.961  54.057  15.606  1.00 30.61 LIG-0.35  N 
ATOM      4 H    ILE C  37      56.747  54.001  14.775  1.00 30.61 LIG 0.16  HD
ENDROOT
BRANCH 3 5
ATOM      5  CA  ILE C  37      56.424  55.236  16.273  1.00 31.48 LIG 0.18  C 
BRANCH 5 6
ATOM      6  C   ILE C  37      55.043  55.439  15.677  1.00 31.96 LIG 0.24  C 
ATOM      7 O    ILE C  37      54.796  55.081  14.524  1.00 31.93 LIG-0.27  OA
ATOM      8  N   LEU C  38      54.145  56.022  16.461  1.00 30.89 LIG-0.35  N 
ATOM      9 H    LEU C  38      54.312  56.314  17.253  1.00 30.89 LIG 0.16  HD
BRANCH 8 10
ATOM     10  CA  LEU C  38      52.772  56.214  16.020  1.00 34.88 LIG 0.18  C 
BRANCH 10 11
ATOM     11  C   LEU C  38      52.440  57.528  15.323  1.00 39.33 LIG 0.24  C 
ATOM     12 O    LEU C  38      52.206  58.550  15.966  1.00 37.11 LIG-0.27  OA
ATOM     13  N   SER C  39      52.427  57.481  13.994  1.00 40.29 LIG-0.34  N 
ATOM     14 H    SER C  39      52.622  56.775  13.542  1.00 40.29 LIG 0.16  HD
BRANCH 13 15
ATOM     15  CA  SER C  39      52.078  58.634  13.173  1.00 42.99 LIG 0.20  C 
BRANCH 15 16
ATOM     16  CB  SER C  39      53.070  58.810  12.018  1.00 41.70 LIG 0.20  C 
BRANCH 16 17
ATOM     17 OG   SER C  39      52.630  59.791  11.094  1.00 43.46 LIG-0.40  OA
ATOM     18 HG   SER C  39      51.792  59.842  11.116  1.00 43.46 LIG 0.21  HD
ENDBRANCH 16 17
ENDBRANCH 15 16
BRANCH 15 19
ATOM     19  C   SER C  39      50.696  58.307  12.617  1.00 43.99 LIG 0.24  C 
ATOM     20  N   LEU C  40      50.109  57.199  13.059  1.00 44.48 LIG-0.34  N 
ATOM     21 H    LEU C  40      50.458  56.662  13.633  1.00 44.48 LIG 0.16  HD
ATOM     22 O    SER C  39      50.172  59.055  11.791  1.00 44.86 LIG-0.27  OA
BRANCH 20 23
ATOM     23  CA  LEU C  40      48.787  56.807  12.584  1.00 50.99 LIG 0.18  C 
BRANCH 23 24
ATOM     24  C   LEU C  40      47.818  56.650  13.755  1.00 53.79 LIG 0.20  C 
ATOM     25 O    LEU C  40      46.804  55.937  13.587  1.00 58.34 LIG-0.65  OA
ATOM     26 OXT  LEU C  40      48.075  57.246  14.822  1.00 54.01 LIG-0.65  OA
ENDBRANCH 23 24
BRANCH 23 27
ATOM     27  CB  LEU C  40      48.889  55.492  11.805  1.00 48.71 LIG 0.04  C 
BRANCH 27 28
ATOM     28  CG  LEU C  40      50.218  55.134  11.138  1.00 48.98 LIG-0.02  C 
ATOM     29  CD2 LEU C  40      49.941  54.330   9.884  1.00 51.62 LIG 0.01  C 
ATOM     30  CD1 LEU C  40      51.086  54.333  12.097  1.00 51.55 LIG 0.01  C 
ENDBRANCH 27 28
ENDBRANCH 23 27
ENDBRANCH 20 23
ENDBRANCH 15 19
ENDBRANCH 13 15
ENDBRANCH 10 11
BRANCH 10 31
ATOM     31  CB  LEU C  38      51.834  56.029  17.209  1.00 30.69 LIG 0.04  C 
BRANCH 31 32
ATOM     32  CG  LEU C  38      50.503  55.339  16.901  1.00 36.50 LIG-0.02  C 
ATOM     33  CD2 LEU C  38      50.238  54.238  17.926  1.00 35.12 LIG 0.01  C 
ATOM     34  CD1 LEU C  38      50.547  54.764  15.491  1.00 37.99 LIG 0.01  C 
ENDBRANCH 31 32
ENDBRANCH 10 31
ENDBRANCH 8 10
ENDBRANCH 5 6
BRANCH 5 35
ATOM     35  CB  ILE C  37      57.285  56.473  15.980  1.00 37.32 LIG 0.01  C 
ATOM     36  CG2 ILE C  37      56.862  57.098  14.660  1.00 35.15 LIG 0.01  C 
BRANCH 35 37
ATOM     37  CG1 ILE C  37      57.158  57.467  17.135  1.00 33.54 LIG 0.00  C 
ATOM     38  CD1 ILE C  37      57.686  56.944  18.451  1.00 46.98 LIG 0.01  C 
ENDBRANCH 35 37
ENDBRANCH 5 35
ENDBRANCH 3 5
BRANCH 1 39
ATOM     39  CA  PRO C  36      58.154  51.967  15.372  1.00 32.35 LIG 0.18  C 
ATOM     40  CB  PRO C  36      59.457  51.342  15.874  1.00 32.18 LIG 0.04  C 
ATOM     41  CG  PRO C  36      60.504  52.030  15.054  1.00 32.63 LIG 0.02  C 
ATOM     42  CD  PRO C  36      59.884  52.071  13.676  1.00 32.64 LIG 0.13  C 
ATOM     43  N   PRO C  36      58.463  52.308  13.981  1.00 32.06 LIG-0.34  N 
ATOM     44  C   ARG C  35      57.488  52.725  13.165  1.00 32.74 LIG 0.24  C 
ATOM     45 O    ARG C  35      56.324  52.825  13.545  1.00 32.93 LIG-0.27  OA
BRANCH 44 46
ATOM     46  CA  ARG C  35      57.873  53.064  11.732  1.00 37.56 LIG 0.18  C 
BRANCH 46 47
ATOM     47  CB  ARG C  35      56.631  53.471  10.938  1.00 40.42 LIG 0.04  C 
BRANCH 47 48
ATOM     48  CG  ARG C  35      56.572  54.942  10.621  1.00 36.41 LIG 0.02  C 
BRANCH 48 49
ATOM     49  CD  ARG C  35      56.990  55.219   9.188  1.00 39.80 LIG 0.14  C 
BRANCH 49 50
ATOM     50  NE  ARG C  35      56.300  54.327   8.262  1.00 32.60 LIG-0.23  N 
ATOM     51 HE   ARG C  35      55.449  54.415   8.181  1.00 32.60 LIG 0.18  HD
ATOM     52  CZ  ARG C  35      56.896  53.388   7.535  1.00 32.33 LIG 0.67  C 
ATOM     53  NH2 ARG C  35      58.207  53.212   7.619  1.00 28.83 LIG-0.23  N 
ATOM     54  NH1 ARG C  35      56.175  52.628   6.722  1.00 30.81 LIG-0.23  N 
ATOM     55 2HH2 ARG C  35      58.589  52.603   7.147  1.00 28.83 LIG 0.17  HD
ATOM     56 1HH2 ARG C  35      58.674  53.706   8.145  1.00 28.83 LIG 0.17  HD
ATOM     57 1HH1 ARG C  35      55.325  52.743   6.666  1.00 30.81 LIG 0.17  HD
ATOM     58 2HH1 ARG C  35      56.558  52.019   6.250  1.00 30.81 LIG 0.17  HD
ENDBRANCH 49 50
ENDBRANCH 48 49
ENDBRANCH 47 48
ENDBRANCH 46 47
BRANCH 46 59
ATOM     59  N   ARG C  35      58.492  51.889  11.137  1.00 36.73 LIG-0.35  N 
ATOM     60  C   ASN C  34      59.525  52.016  10.311  1.00 40.82 LIG 0.26  C 
ATOM     61 O    ASN C  34      59.999  53.108  10.003  1.00 33.40 LIG-0.27  OA
ATOM     62 H    ARG C  35      58.139  51.139  11.365  1.00 36.73 LIG 0.16  HD
BRANCH 60 63
ATOM     63  CA  ASN C  34      60.112  50.726   9.751  1.00 41.08 LIG 0.41  C 
ATOM     64  N   ASN C  34      61.560  50.914   9.454  1.00 44.32 LIG 0.61  N 
BRANCH 63 65
ATOM     65  CB  ASN C  34      59.915  49.604  10.777  1.00 43.19 LIG 0.15  C 
BRANCH 65 66
ATOM     66  CG  ASN C  34      60.301  48.233  10.239  1.00 48.82 LIG 0.22  C 
ATOM     67  ND2 ASN C  34      59.555  47.204  10.631  1.00 46.77 LIG-0.37  N 
ATOM     68 21HD ASN C  34      59.733  46.411  10.349  1.00 46.77 LIG 0.16  HD
ATOM     69 22HD ASN C  34      58.894  47.331  11.167  1.00 46.77 LIG 0.16  HD
ATOM     70 OD1  ASN C  34      61.257  48.106   9.475  1.00 54.33 LIG-0.27  OA
ENDBRANCH 65 66
ENDBRANCH 63 65
ENDBRANCH 60 63
ENDBRANCH 46 59
ENDBRANCH 44 46
ENDBRANCH 1 39
TORSDOF 26
ENDMDL
MODEL 8
USER: ADFR SOLUTION from run 154
USER: SCORE 19.958602 LL:  -5.545 LR: -15.281 RR:   0.000 FEB:  -7.525
USER: RMSD 13.297500
USER: SEED 153
USER: STATUS no improvement in best in 6 clusters for 5 generations
USER: GENES 28
USER: genes 0 Translation |==|  0.64352 0.51659 0.55027
USER: genes 1 Rotation |==|  0.40314 0.02318 0.55758 0.59972
USER: genes 2 Torsion [C]-N--CA-[C] |==|  0.82792
USER: genes 3 Torsion [N]-CA--C-[N] |==|  0.88570
USER: genes 4 Torsion [C]-N--CA-[C] |==|  0.73494
USER: genes 5 Torsion [N]-CA--C-[N] |==|  0.14578
USER: genes 6 Torsion [C]-N--CA-[C] |==|  0.84042
USER: genes 7 Torsion [N]-CA--CB-[OG] |==|  0.94149
USER: genes 8 Torsion [CA]-CB--OG-[HG] |==|  0.16335
USER: genes 9 Torsion [N]-CA--C-[N] |==|  0.88648
USER: genes 10 Torsion [C]-N--CA-[C] |==|  0.65809
USER: genes 11 Torsion [N]-CA--C-[O] |==|  0.00942
USER: genes 12 Torsion [N]-CA--CB-[CG] |==|  0.81058
USER: genes 13 Torsion [CA]-CB--CG-[CD2] |==|  0.23305
USER: genes 14 Torsion [N]-CA--CB-[CG] |==|  0.83984
USER: genes 15 Torsion [CA]-CB--CG-[CD2] |==|  0.62472
USER: genes 16 Torsion [N]-CA--CB-[CG2] |==|  0.07686
USER: genes 17 Torsion [CA]-CB--CG1-[CD1] |==|  0.19334
USER: genes 18 Torsion [O]-C--CA-[CB] |==|  0.12177
USER: genes 19 Torsion [N]-C--CA-[N] |==|  0.49937
USER: genes 20 Torsion [C]-CA--CB-[CG] |==|  0.42233
USER: genes 21 Torsion [CA]-CB--CG-[CD] |==|  0.80799
USER: genes 22 Torsion [CB]-CG--CD-[NE] |==|  0.72134
USER: genes 23 Torsion [CG]-CD--NE-[CZ] |==|  0.73508
USER: genes 24 Torsion [C]-CA--N-[C] |==|  0.68731
USER: genes 25 Torsion [N]-C--CA-[N] |==|  0.86062
USER: genes 26 Torsion [C]-CA--CB-[CG] |==|  0.56610
USER: genes 27 Torsion [CA]-CB--CG-[ND2] |==|  0.72191
ROOT
ATOM      1  C   PRO C  36      52.074  55.378  13.980  1.00 34.41 LIG 0.24  C 
ATOM      2 O    PRO C  36      51.413  54.612  13.271  1.00 29.89 LIG-0.27  OA
ATOM      3  N   ILE C  37      51.924  55.468  15.298  1.00 30.61 LIG-0.35  N 
ATOM      4 H    ILE C  37      52.405  55.981  15.793  1.00 30.61 LIG 0.16  HD
ENDROOT
BRANCH 3 5
ATOM      5  CA  ILE C  37      50.928  54.704  16.038  1.00 31.48 LIG 0.18  C 
BRANCH 5 6
ATOM      6  C   ILE C  37      49.587  55.160  15.492  1.00 31.96 LIG 0.24  C 
ATOM      7 O    ILE C  37      48.688  54.347  15.272  1.00 31.93 LIG-0.27  OA
ATOM      8  N   LEU C  38      49.458  56.461  15.264  1.00 30.89 LIG-0.35  N 
ATOM      9 H    LEU C  38      50.088  57.036  15.373  1.00 30.89 LIG 0.16  HD
BRANCH 8 10
ATOM     10  CA  LEU C  38      48.198  57.021  14.798  1.00 34.88 LIG 0.18  C 
BRANCH 10 11
ATOM     11  C   LEU C  38      48.037  57.221  13.295  1.00 39.33 LIG 0.24  C 
ATOM     12 O    LEU C  38      47.699  58.309  12.829  1.00 37.11 LIG-0.27  OA
ATOM     13  N   SER C  39      48.288  56.150  12.547  1.00 40.29 LIG-0.34  N 
ATOM     14 H    SER C  39      48.555  55.398  12.869  1.00 40.29 LIG 0.16  HD
BRANCH 13 15
ATOM     15  CA  SER C  39      48.131  56.154  11.098  1.00 42.99 LIG 0.20  C 
BRANCH 15 16
ATOM     16  CB  SER C  39      48.385  54.760  10.512  1.00 41.70 LIG 0.20  C 
BRANCH 16 17
ATOM     17 OG   SER C  39      49.151  53.954  11.392  1.00 43.46 LIG-0.40  OA
ATOM     18 HG   SER C  39      48.749  53.878  12.125  1.00 43.46 LIG 0.21  HD
ENDBRANCH 16 17
ENDBRANCH 15 16
BRANCH 15 19
ATOM     19  C   SER C  39      46.675  56.549  10.869  1.00 43.99 LIG 0.24  C 
ATOM     20  N   LEU C  40      45.766  56.019  11.681  1.00 44.48 LIG-0.34  N 
ATOM     21 H    LEU C  40      45.948  55.472  12.321  1.00 44.48 LIG 0.16  HD
ATOM     22 O    SER C  39      46.384  57.326   9.960  1.00 44.86 LIG-0.27  OA
BRANCH 20 23
ATOM     23  CA  LEU C  40      44.351  56.339  11.538  1.00 50.99 LIG 0.18  C 
BRANCH 23 24
ATOM     24  C   LEU C  40      43.794  56.914  12.840  1.00 53.79 LIG 0.20  C 
ATOM     25 O    LEU C  40      44.588  57.093  13.790  1.00 58.34 LIG-0.65  OA
ATOM     26 OXT  LEU C  40      42.574  57.171  12.901  1.00 54.01 LIG-0.65  OA
ENDBRANCH 23 24
BRANCH 23 27
ATOM     27  CB  LEU C  40      43.574  55.079  11.145  1.00 48.71 LIG 0.04  C 
BRANCH 27 28
ATOM     28  CG  LEU C  40      43.806  54.476   9.760  1.00 48.98 LIG-0.02  C 
ATOM     29  CD2 LEU C  40      45.028  53.580   9.808  1.00 51.62 LIG 0.01  C 
ATOM     30  CD1 LEU C  40      44.003  55.581   8.733  1.00 51.55 LIG 0.01  C 
ENDBRANCH 27 28
ENDBRANCH 23 27
ENDBRANCH 20 23
ENDBRANCH 15 19
ENDBRANCH 13 15
ENDBRANCH 10 11
BRANCH 10 31
ATOM     31  CB  LEU C  38      47.948  58.348  15.507  1.00 30.69 LIG 0.04  C 
BRANCH 31 32
ATOM     32  CG  LEU C  38      47.909  58.286  17.035  1.00 36.50 LIG-0.02  C 
ATOM     33  CD2 LEU C  38      46.724  59.095  17.560  1.00 35.12 LIG 0.01  C 
ATOM     34  CD1 LEU C  38      49.220  58.822  17.596  1.00 37.99 LIG 0.01  C 
ENDBRANCH 31 32
ENDBRANCH 10 31
ENDBRANCH 8 10
ENDBRANCH 5 6
BRANCH 5 35
ATOM     35  CB  ILE C  37      50.995  55.021  17.538  1.00 37.32 LIG 0.01  C 
ATOM     36  CG2 ILE C  37      51.527  56.431  17.747  1.00 35.15 LIG 0.01  C 
BRANCH 35 37
ATOM     37  CG1 ILE C  37      49.607  54.850  18.157  1.00 33.54 LIG 0.00  C 
ATOM     38  CD1 ILE C  37      49.142  53.413  18.225  1.00 46.98 LIG 0.01  C 
ENDBRANCH 35 37
ENDBRANCH 5 35
ENDBRANCH 3 5
BRANCH 1 39
ATOM     39  CA  PRO C  36      53.148  56.282  13.378  1.00 32.35 LIG 0.18  C 
ATOM     40  CB  PRO C  36      52.683  56.956  12.086  1.00 32.18 LIG 0.04  C 
ATOM     41  CG  PRO C  36      53.188  56.033  11.020  1.00 32.63 LIG 0.02  C 
ATOM     42  CD  PRO C  36      54.569  55.668  11.512  1.00 32.64 LIG 0.13  C 
ATOM     43  N   PRO C  36      54.368  55.582  12.969  1.00 32.06 LIG-0.34  N 
ATOM     44  C   ARG C  35      55.152  55.015  13.891  1.00 32.74 LIG 0.24  C 
ATOM     45 O    ARG C  35      54.886  55.068  15.090  1.00 32.93 LIG-0.27  OA
BRANCH 44 46
ATOM     46  CA  ARG C  35      56.405  54.302  13.402  1.00 37.56 LIG 0.18  C 
BRANCH 46 47
ATOM     47  CB  ARG C  35      56.025  53.173  12.444  1.00 40.42 LIG 0.04  C 
BRANCH 47 48
ATOM     48  CG  ARG C  35      57.092  52.857  11.429  1.00 36.41 LIG 0.02  C 
BRANCH 48 49
ATOM     49  CD  ARG C  35      57.250  53.982  10.420  1.00 39.80 LIG 0.14  C 
BRANCH 49 50
ATOM     50  NE  ARG C  35      56.560  53.665   9.174  1.00 32.60 LIG-0.23  N 
ATOM     51 HE   ARG C  35      55.721  53.843   9.126  1.00 32.60 LIG 0.18  HD
ATOM     52  CZ  ARG C  35      57.140  53.121   8.110  1.00 32.33 LIG 0.67  C 
ATOM     53  NH2 ARG C  35      58.432  52.829   8.131  1.00 28.83 LIG-0.23  N 
ATOM     54  NH1 ARG C  35      56.421  52.871   7.024  1.00 30.81 LIG-0.23  N 
ATOM     55 2HH2 ARG C  35      58.804  52.477   7.440  1.00 28.83 LIG 0.17  HD
ATOM     56 1HH2 ARG C  35      58.899  52.992   8.834  1.00 28.83 LIG 0.17  HD
ATOM     57 1HH1 ARG C  35      55.582  53.062   7.010  1.00 30.81 LIG 0.17  HD
ATOM     58 2HH1 ARG C  35      56.793  52.519   6.333  1.00 30.81 LIG 0.17  HD
ENDBRANCH 49 50
ENDBRANCH 48 49
ENDBRANCH 47 48
ENDBRANCH 46 47
BRANCH 46 59
ATOM     59  N   ARG C  35      57.106  53.769  14.561  1.00 36.73 LIG-0.35  N 
ATOM     60  C   ASN C  34      58.288  54.259  14.919  1.00 40.82 LIG 0.26  C 
ATOM     61 O    ASN C  34      58.846  55.164  14.301  1.00 33.40 LIG-0.27  OA
ATOM     62 H    ARG C  35      56.696  53.134  14.972  1.00 36.73 LIG 0.16  HD
BRANCH 60 63
ATOM     63  CA  ASN C  34      58.935  53.644  16.154  1.00 41.08 LIG 0.41  C 
ATOM     64  N   ASN C  34      57.957  53.617  17.279  1.00 44.32 LIG 0.61  N 
BRANCH 63 65
ATOM     65  CB  ASN C  34      59.403  52.224  15.814  1.00 43.19 LIG 0.15  C 
BRANCH 65 66
ATOM     66  CG  ASN C  34      59.524  51.330  17.040  1.00 48.82 LIG 0.22  C 
ATOM     67  ND2 ASN C  34      60.745  51.154  17.537  1.00 46.77 LIG-0.37  N 
ATOM     68 21HD ASN C  34      60.861  50.661  18.231  1.00 46.77 LIG 0.16  HD
ATOM     69 22HD ASN C  34      61.420  51.534  17.162  1.00 46.77 LIG 0.16  HD
ATOM     70 OD1  ASN C  34      58.525  50.809  17.537  1.00 54.33 LIG-0.27  OA
ENDBRANCH 65 66
ENDBRANCH 63 65
ENDBRANCH 60 63
ENDBRANCH 46 59
ENDBRANCH 44 46
ENDBRANCH 1 39
TORSDOF 26
ENDMDL
MODEL 9
USER: ADFR SOLUTION from run 143
USER: SCORE 20.191239 LL:  -5.760 LR: -15.264 RR:   0.000 FEB:  -7.508
USER: RMSD 13.249771
USER: SEED 142
USER: STATUS searching
USER: GENES 28
USER: genes 0 Translation |==|  0.66207 0.48532 0.47004
USER: genes 1 Rotation |==|  0.58309 0.96363 0.34972 0.57458
USER: genes 2 Torsion [C]-N--CA-[C] |==|  0.77486
USER: genes 3 Torsion [N]-CA--C-[N] |==|  0.16821
USER: genes 4 Torsion [C]-N--CA-[C] |==|  0.15163
USER: genes 5 Torsion [N]-CA--C-[N] |==|  0.05769
USER: genes 6 Torsion [C]-N--CA-[C] |==|  0.16667
USER: genes 7 Torsion [N]-CA--CB-[OG] |==|  0.91171
USER: genes 8 Torsion [CA]-CB--OG-[HG] |==|  0.65800
USER: genes 9 Torsion [N]-CA--C-[N] |==|  0.10446
USER: genes 10 Torsion [C]-N--CA-[C] |==|  0.55633
USER: genes 11 Torsion [N]-CA--C-[O] |==|  0.92198
USER: genes 12 Torsion [N]-CA--CB-[CG] |==|  0.23931
USER: genes 13 Torsion [CA]-CB--CG-[CD2] |==|  0.62777
USER: genes 14 Torsion [N]-CA--CB-[CG] |==|  0.61220
USER: genes 15 Torsion [CA]-CB--CG-[CD2] |==|  0.40032
USER: genes 16 Torsion [N]-CA--CB-[CG2] |==|  0.55362
USER: genes 17 Torsion [CA]-CB--CG1-[CD1] |==|  0.62767
USER: genes 18 Torsion [O]-C--CA-[CB] |==|  0.23593
USER: genes 19 Torsion [N]-C--CA-[N] |==|  0.47651
USER: genes 20 Torsion [C]-CA--CB-[CG] |==|  0.41089
USER: genes 21 Torsion [CA]-CB--CG-[CD] |==|  0.81417
USER: genes 22 Torsion [CB]-CG--CD-[NE] |==|  0.80541
USER: genes 23 Torsion [CG]-CD--NE-[CZ] |==|  0.63879
USER: genes 24 Torsion [C]-CA--N-[C] |==|  0.79492
USER: genes 25 Torsion [N]-C--CA-[N] |==|  0.76241
USER: genes 26 Torsion [C]-CA--CB-[CG] |==|  0.55127
USER: genes 27 Torsion [CA]-CB--CG-[ND2] |==|  0.72463
ROOT
ATOM      1  C   PRO C  36      52.658  54.815  12.475  1.00 34.41 LIG 0.24  C 
ATOM      2 O    PRO C  36      52.562  53.667  12.032  1.00 29.89 LIG-0.27  OA
ATOM      3  N   ILE C  37      51.770  55.358  13.303  1.00 30.61 LIG-0.35  N 
ATOM      4 H    ILE C  37      51.854  56.148  13.632  1.00 30.61 LIG 0.16  HD
ENDROOT
BRANCH 3 5
ATOM      5  CA  ILE C  37      50.562  54.667  13.735  1.00 31.48 LIG 0.18  C 
BRANCH 5 6
ATOM      6  C   ILE C  37      49.571  54.843  12.599  1.00 31.96 LIG 0.24  C 
ATOM      7 O    ILE C  37      48.496  55.414  12.786  1.00 31.93 LIG-0.27  OA
ATOM      8  N   LEU C  38      49.930  54.343  11.424  1.00 30.89 LIG-0.35  N 
ATOM      9 H    LEU C  38      50.659  53.906  11.286  1.00 30.89 LIG 0.16  HD
BRANCH 8 10
ATOM     10  CA  LEU C  38      49.088  54.504  10.249  1.00 34.88 LIG 0.18  C 
BRANCH 10 11
ATOM     11  C   LEU C  38      48.681  55.924   9.872  1.00 39.33 LIG 0.24  C 
ATOM     12 O    LEU C  38      47.699  56.139   9.162  1.00 37.11 LIG-0.27  OA
ATOM     13  N   SER C  39      49.453  56.888  10.364  1.00 40.29 LIG-0.34  N 
ATOM     14 H    SER C  39      50.121  56.742  10.887  1.00 40.29 LIG 0.16  HD
BRANCH 13 15
ATOM     15  CA  SER C  39      49.236  58.297  10.059  1.00 42.99 LIG 0.20  C 
BRANCH 15 16
ATOM     16  CB  SER C  39      49.299  58.550   8.548  1.00 41.70 LIG 0.20  C 
BRANCH 16 17
ATOM     17 OG   SER C  39      50.199  57.663   7.906  1.00 43.46 LIG-0.40  OA
ATOM     18 HG   SER C  39      50.781  58.105   7.490  1.00 43.46 LIG 0.21  HD
ENDBRANCH 16 17
ENDBRANCH 15 16
BRANCH 15 19
ATOM     19  C   SER C  39      47.829  58.590  10.570  1.00 43.99 LIG 0.24  C 
ATOM     20  N   LEU C  40      47.458  57.999  11.701  1.00 44.48 LIG-0.34  N 
ATOM     21 H    LEU C  40      47.958  57.468  12.157  1.00 44.48 LIG 0.16  HD
ATOM     22 O    SER C  39      47.089  59.344   9.937  1.00 44.86 LIG-0.27  OA
BRANCH 20 23
ATOM     23  CA  LEU C  40      46.132  58.221  12.266  1.00 50.99 LIG 0.18  C 
BRANCH 23 24
ATOM     24  C   LEU C  40      46.114  57.869  13.753  1.00 53.79 LIG 0.20  C 
ATOM     25 O    LEU C  40      46.917  57.003  14.162  1.00 58.34 LIG-0.65  OA
ATOM     26 OXT  LEU C  40      45.293  58.454  14.490  1.00 54.01 LIG-0.65  OA
ENDBRANCH 23 24
BRANCH 23 27
ATOM     27  CB  LEU C  40      45.102  57.373  11.512  1.00 48.71 LIG 0.04  C 
BRANCH 27 28
ATOM     28  CG  LEU C  40      44.873  55.928  11.959  1.00 48.98 LIG-0.02  C 
ATOM     29  CD2 LEU C  40      44.853  55.030  10.738  1.00 51.62 LIG 0.01  C 
ATOM     30  CD1 LEU C  40      43.558  55.817  12.716  1.00 51.55 LIG 0.01  C 
ENDBRANCH 27 28
ENDBRANCH 23 27
ENDBRANCH 20 23
ENDBRANCH 15 19
ENDBRANCH 13 15
ENDBRANCH 10 11
BRANCH 10 31
ATOM     31  CB  LEU C  38      47.833  53.652  10.412  1.00 30.69 LIG 0.04  C 
BRANCH 31 32
ATOM     32  CG  LEU C  38      47.359  52.923   9.153  1.00 36.50 LIG-0.02  C 
ATOM     33  CD2 LEU C  38      46.786  51.557   9.527  1.00 35.12 LIG 0.01  C 
ATOM     34  CD1 LEU C  38      48.528  52.771   8.188  1.00 37.99 LIG 0.01  C 
ENDBRANCH 31 32
ENDBRANCH 10 31
ENDBRANCH 8 10
ENDBRANCH 5 6
BRANCH 5 35
ATOM     35  CB  ILE C  37      49.989  55.306  15.008  1.00 37.32 LIG 0.01  C 
ATOM     36  CG2 ILE C  37      49.052  54.329  15.702  1.00 35.15 LIG 0.01  C 
BRANCH 35 37
ATOM     37  CG1 ILE C  37      51.135  55.730  15.927  1.00 33.54 LIG 0.00  C 
ATOM     38  CD1 ILE C  37      50.935  55.337  17.372  1.00 46.98 LIG 0.01  C 
ENDBRANCH 35 37
ENDBRANCH 5 35
ENDBRANCH 3 5
BRANCH 1 39
ATOM     39  CA  PRO C  36      53.843  55.707  12.109  1.00 32.35 LIG 0.18  C 
ATOM     40  CB  PRO C  36      53.628  56.443  10.785  1.00 32.18 LIG 0.04  C 
ATOM     41  CG  PRO C  36      54.288  55.545   9.784  1.00 32.63 LIG 0.02  C 
ATOM     42  CD  PRO C  36      55.552  55.118  10.492  1.00 32.64 LIG 0.13  C 
ATOM     43  N   PRO C  36      55.098  54.983  11.887  1.00 32.06 LIG-0.34  N 
ATOM     44  C   ARG C  35      55.695  54.356  12.907  1.00 32.74 LIG 0.24  C 
ATOM     45 O    ARG C  35      55.225  54.373  14.042  1.00 32.93 LIG-0.27  OA
BRANCH 44 46
ATOM     46  CA  ARG C  35      56.995  53.622  12.612  1.00 37.56 LIG 0.18  C 
BRANCH 46 47
ATOM     47  CB  ARG C  35      56.724  52.416  11.713  1.00 40.42 LIG 0.04  C 
BRANCH 47 48
ATOM     48  CG  ARG C  35      57.858  52.094  10.776  1.00 36.41 LIG 0.02  C 
BRANCH 48 49
ATOM     49  CD  ARG C  35      58.048  53.186   9.737  1.00 39.80 LIG 0.14  C 
BRANCH 49 50
ATOM     50  NE  ARG C  35      56.942  53.197   8.785  1.00 32.60 LIG-0.23  N 
ATOM     51 HE   ARG C  35      56.143  53.200   9.101  1.00 32.60 LIG 0.18  HD
ATOM     52  CZ  ARG C  35      57.085  53.205   7.464  1.00 32.33 LIG 0.67  C 
ATOM     53  NH2 ARG C  35      58.296  53.204   6.925  1.00 28.83 LIG-0.23  N 
ATOM     54  NH1 ARG C  35      56.012  53.214   6.685  1.00 30.81 LIG-0.23  N 
ATOM     55 2HH2 ARG C  35      58.385  53.209   6.070  1.00 28.83 LIG 0.17  HD
ATOM     56 1HH2 ARG C  35      58.992  53.199   7.430  1.00 28.83 LIG 0.17  HD
ATOM     57 1HH1 ARG C  35      55.227  53.216   7.035  1.00 30.81 LIG 0.17  HD
ATOM     58 2HH1 ARG C  35      56.101  53.219   5.830  1.00 30.81 LIG 0.17  HD
ENDBRANCH 49 50
ENDBRANCH 48 49
ENDBRANCH 47 48
ENDBRANCH 46 47
BRANCH 46 59
ATOM     59  N   ARG C  35      57.571  53.192  13.878  1.00 36.73 LIG-0.35  N 
ATOM     60  C   ASN C  34      58.144  54.072  14.692  1.00 40.82 LIG 0.26  C 
ATOM     61 O    ASN C  34      58.225  55.270  14.424  1.00 33.40 LIG-0.27  OA
ATOM     62 H    ARG C  35      57.505  52.350  14.038  1.00 36.73 LIG 0.16  HD
BRANCH 60 63
ATOM     63  CA  ASN C  34      58.705  53.525  15.999  1.00 41.08 LIG 0.41  C 
ATOM     64  N   ASN C  34      57.628  53.469  17.029  1.00 44.32 LIG 0.61  N 
BRANCH 63 65
ATOM     65  CB  ASN C  34      59.282  52.128  15.747  1.00 43.19 LIG 0.15  C 
BRANCH 65 66
ATOM     66  CG  ASN C  34      59.457  51.318  17.024  1.00 48.82 LIG 0.22  C 
ATOM     67  ND2 ASN C  34      60.679  51.282  17.548  1.00 46.77 LIG-0.37  N 
ATOM     68 21HD ASN C  34      60.824  50.840  18.271  1.00 46.77 LIG 0.16  HD
ATOM     69 22HD ASN C  34      61.324  51.699  17.162  1.00 46.77 LIG 0.16  HD
ATOM     70 OD1  ASN C  34      58.499  50.739  17.534  1.00 54.33 LIG-0.27  OA
ENDBRANCH 65 66
ENDBRANCH 63 65
ENDBRANCH 60 63
ENDBRANCH 46 59
ENDBRANCH 44 46
ENDBRANCH 1 39
TORSDOF 26
ENDMDL
MODEL 10
USER: ADFR SOLUTION from run 78
USER: SCORE 18.452710 LL:  -5.280 LR: -15.238 RR:   0.000 FEB:  -7.482
USER: RMSD 13.405231
USER: SEED 77
USER: STATUS searching
USER: GENES 28
USER: genes 0 Translation |==|  0.66654 0.46407 0.46844
USER: genes 1 Rotation |==|  0.60996 0.95502 0.33893 0.57015
USER: genes 2 Torsion [C]-N--CA-[C] |==|  0.77329
USER: genes 3 Torsion [N]-CA--C-[N] |==|  0.16111
USER: genes 4 Torsion [C]-N--CA-[C] |==|  0.13435
USER: genes 5 Torsion [N]-CA--C-[N] |==|  0.57799
USER: genes 6 Torsion [C]-N--CA-[C] |==|  0.71479
USER: genes 7 Torsion [N]-CA--CB-[OG] |==|  0.06296
USER: genes 8 Torsion [CA]-CB--OG-[HG] |==|  0.72162
USER: genes 9 Torsion [N]-CA--C-[N] |==|  0.01522
USER: genes 10 Torsion [C]-N--CA-[C] |==|  0.67669
USER: genes 11 Torsion [N]-CA--C-[O] |==|  0.38066
USER: genes 12 Torsion [N]-CA--CB-[CG] |==|  0.87685
USER: genes 13 Torsion [CA]-CB--CG-[CD2] |==|  0.21790
USER: genes 14 Torsion [N]-CA--CB-[CG] |==|  0.68511
USER: genes 15 Torsion [CA]-CB--CG-[CD2] |==|  0.80139
USER: genes 16 Torsion [N]-CA--CB-[CG2] |==|  0.54871
USER: genes 17 Torsion [CA]-CB--CG1-[CD1] |==|  0.42683
USER: genes 18 Torsion [O]-C--CA-[CB] |==|  0.08395
USER: genes 19 Torsion [N]-C--CA-[N] |==|  0.87252
USER: genes 20 Torsion [C]-CA--CB-[CG] |==|  0.37163
USER: genes 21 Torsion [CA]-CB--CG-[CD] |==|  0.99382
USER: genes 22 Torsion [CB]-CG--CD-[NE] |==|  0.69190
USER: genes 23 Torsion [CG]-CD--NE-[CZ] |==|  0.79042
USER: genes 24 Torsion [C]-CA--N-[C] |==|  0.57426
USER: genes 25 Torsion [N]-C--CA-[N] |==|  0.11309
USER: genes 26 Torsion [C]-CA--CB-[CG] |==|  0.81713
USER: genes 27 Torsion [CA]-CB--CG-[ND2] |==|  0.48917
ROOT
ATOM      1  C   PRO C  36      52.799  54.432  12.445  1.00 34.41 LIG 0.24  C 
ATOM      2 O    PRO C  36      52.574  53.290  12.036  1.00 29.89 LIG-0.27  OA
ATOM      3  N   ILE C  37      51.970  55.102  13.242  1.00 30.61 LIG-0.35  N 
ATOM      4 H    ILE C  37      52.142  55.887  13.548  1.00 30.61 LIG 0.16  HD
ENDROOT
BRANCH 3 5
ATOM      5  CA  ILE C  37      50.685  54.570  13.676  1.00 31.48 LIG 0.18  C 
BRANCH 5 6
ATOM      6  C   ILE C  37      49.732  54.837  12.526  1.00 31.96 LIG 0.24  C 
ATOM      7 O    ILE C  37      48.707  55.498  12.699  1.00 31.93 LIG-0.27  OA
ATOM      8  N   LEU C  38      50.066  54.314  11.353  1.00 30.89 LIG-0.35  N 
ATOM      9 H    LEU C  38      50.756  53.817  11.224  1.00 30.89 LIG 0.16  HD
BRANCH 8 10
ATOM     10  CA  LEU C  38      49.260  54.554  10.166  1.00 34.88 LIG 0.18  C 
BRANCH 10 11
ATOM     11  C   LEU C  38      48.861  55.995   9.872  1.00 39.33 LIG 0.24  C 
ATOM     12 O    LEU C  38      49.561  56.938  10.240  1.00 37.11 LIG-0.27  OA
ATOM     13  N   SER C  39      47.724  56.146   9.200  1.00 40.29 LIG-0.34  N 
ATOM     14 H    SER C  39      47.250  55.488   8.915  1.00 40.29 LIG 0.16  HD
BRANCH 13 15
ATOM     15  CA  SER C  39      47.171  57.457   8.883  1.00 42.99 LIG 0.20  C 
BRANCH 15 16
ATOM     16  CB  SER C  39      46.603  57.486   7.459  1.00 41.70 LIG 0.20  C 
BRANCH 16 17
ATOM     17 OG   SER C  39      46.278  56.186   6.998  1.00 43.46 LIG-0.40  OA
ATOM     18 HG   SER C  39      46.890  55.904   6.496  1.00 43.46 LIG 0.21  HD
ENDBRANCH 16 17
ENDBRANCH 15 16
BRANCH 15 19
ATOM     19  C   SER C  39      46.041  57.653   9.889  1.00 43.99 LIG 0.24  C 
ATOM     20  N   LEU C  40      45.897  56.725  10.830  1.00 44.48 LIG-0.34  N 
ATOM     21 H    LEU C  40      46.397  56.028  10.903  1.00 44.48 LIG 0.16  HD
ATOM     22 O    SER C  39      45.307  58.638   9.807  1.00 44.86 LIG-0.27  OA
BRANCH 20 23
ATOM     23  CA  LEU C  40      44.845  56.828  11.834  1.00 50.99 LIG 0.18  C 
BRANCH 23 24
ATOM     24  C   LEU C  40      45.447  56.972  13.232  1.00 53.79 LIG 0.20  C 
ATOM     25 O    LEU C  40      44.936  57.809  14.008  1.00 58.34 LIG-0.65  OA
ATOM     26 OXT  LEU C  40      46.426  56.258  13.532  1.00 54.01 LIG-0.65  OA
ENDBRANCH 23 24
BRANCH 23 27
ATOM     27  CB  LEU C  40      43.949  55.588  11.773  1.00 48.71 LIG 0.04  C 
BRANCH 27 28
ATOM     28  CG  LEU C  40      43.500  55.073  10.405  1.00 48.98 LIG-0.02  C 
ATOM     29  CD2 LEU C  40      44.639  54.299   9.770  1.00 51.62 LIG 0.01  C 
ATOM     30  CD1 LEU C  40      43.093  56.238   9.514  1.00 51.55 LIG 0.01  C 
ENDBRANCH 27 28
ENDBRANCH 23 27
ENDBRANCH 20 23
ENDBRANCH 15 19
ENDBRANCH 13 15
ENDBRANCH 10 11
BRANCH 10 31
ATOM     31  CB  LEU C  38      48.002  53.692  10.232  1.00 30.69 LIG 0.04  C 
BRANCH 31 32
ATOM     32  CG  LEU C  38      47.900  52.587   9.179  1.00 36.50 LIG-0.02  C 
ATOM     33  CD2 LEU C  38      47.633  53.199   7.805  1.00 35.12 LIG 0.01  C 
ATOM     34  CD1 LEU C  38      46.786  51.622   9.566  1.00 37.99 LIG 0.01  C 
ENDBRANCH 31 32
ENDBRANCH 10 31
ENDBRANCH 8 10
ENDBRANCH 5 6
BRANCH 5 35
ATOM     35  CB  ILE C  37      50.182  55.303  14.928  1.00 37.32 LIG 0.01  C 
ATOM     36  CG2 ILE C  37      49.098  54.482  15.609  1.00 35.15 LIG 0.01  C 
BRANCH 35 37
ATOM     37  CG1 ILE C  37      51.357  55.569  15.870  1.00 33.54 LIG 0.00  C 
ATOM     38  CD1 ILE C  37      51.157  56.766  16.771  1.00 46.98 LIG 0.01  C 
ENDBRANCH 35 37
ENDBRANCH 5 35
ENDBRANCH 3 5
BRANCH 1 39
ATOM     39  CA  PRO C  36      54.085  55.168  12.070  1.00 32.35 LIG 0.18  C 
ATOM     40  CB  PRO C  36      54.613  54.749  10.697  1.00 32.18 LIG 0.04  C 
ATOM     41  CG  PRO C  36      55.598  53.668  11.025  1.00 32.63 LIG 0.02  C 
ATOM     42  CD  PRO C  36      56.308  54.214  12.242  1.00 32.64 LIG 0.13  C 
ATOM     43  N   PRO C  36      55.217  54.896  12.960  1.00 32.06 LIG-0.34  N 
ATOM     44  C   ARG C  35      55.178  55.307  14.232  1.00 32.74 LIG 0.24  C 
ATOM     45 O    ARG C  35      54.214  55.920  14.686  1.00 32.93 LIG-0.27  OA
BRANCH 44 46
ATOM     46  CA  ARG C  35      56.385  54.994  15.106  1.00 37.56 LIG 0.18  C 
BRANCH 46 47
ATOM     47  CB  ARG C  35      57.547  55.920  14.744  1.00 40.42 LIG 0.04  C 
BRANCH 47 48
ATOM     48  CG  ARG C  35      58.230  56.527  15.941  1.00 36.41 LIG 0.02  C 
BRANCH 48 49
ATOM     49  CD  ARG C  35      57.557  56.111  17.237  1.00 39.80 LIG 0.14  C 
BRANCH 49 50
ATOM     50  NE  ARG C  35      56.879  57.244  17.859  1.00 32.60 LIG-0.23  N 
ATOM     51 HE   ARG C  35      56.022  57.278  17.802  1.00 32.60 LIG 0.18  HD
ATOM     52  CZ  ARG C  35      57.495  58.227  18.508  1.00 32.33 LIG 0.67  C 
ATOM     53  NH2 ARG C  35      58.815  58.221  18.627  1.00 28.83 LIG-0.23  N 
ATOM     54  NH1 ARG C  35      56.785  59.213  19.037  1.00 30.81 LIG-0.23  N 
ATOM     55 2HH2 ARG C  35      59.210  58.859  19.048  1.00 28.83 LIG 0.17  HD
ATOM     56 1HH2 ARG C  35      59.275  57.581  18.285  1.00 28.83 LIG 0.17  HD
ATOM     57 1HH1 ARG C  35      55.928  59.216  18.960  1.00 30.81 LIG 0.17  HD
ATOM     58 2HH1 ARG C  35      57.180  59.851  19.458  1.00 30.81 LIG 0.17  HD
ENDBRANCH 49 50
ENDBRANCH 48 49
ENDBRANCH 47 48
ENDBRANCH 46 47
BRANCH 46 59
ATOM     59  N   ARG C  35      56.756  53.605  14.887  1.00 36.73 LIG-0.35  N 
ATOM     60  C   ASN C  34      57.381  52.916  15.835  1.00 40.82 LIG 0.26  C 
ATOM     61 O    ASN C  34      57.682  53.406  16.923  1.00 33.40 LIG-0.27  OA
ATOM     62 H    ARG C  35      56.539  53.288  14.117  1.00 36.73 LIG 0.16  HD
BRANCH 60 63
ATOM     63  CA  ASN C  34      57.716  51.464  15.515  1.00 41.08 LIG 0.41  C 
ATOM     64  N   ASN C  34      58.190  51.352  14.107  1.00 44.32 LIG 0.61  N 
BRANCH 63 65
ATOM     65  CB  ASN C  34      58.795  50.977  16.488  1.00 43.19 LIG 0.15  C 
BRANCH 65 66
ATOM     66  CG  ASN C  34      60.127  51.692  16.303  1.00 48.82 LIG 0.22  C 
ATOM     67  ND2 ASN C  34      61.096  51.385  17.161  1.00 46.77 LIG-0.37  N 
ATOM     68 21HD ASN C  34      61.866  51.761  17.093  1.00 46.77 LIG 0.16  HD
ATOM     69 22HD ASN C  34      60.951  50.811  17.785  1.00 46.77 LIG 0.16  HD
ATOM     70 OD1  ASN C  34      60.280  52.506  15.393  1.00 54.33 LIG-0.27  OA
ENDBRANCH 65 66
ENDBRANCH 63 65
ENDBRANCH 60 63
ENDBRANCH 46 59
ENDBRANCH 44 46
ENDBRANCH 1 39
TORSDOF 26
ENDMDL
MODEL 11
USER: ADFR SOLUTION from run 175
USER: SCORE 18.941861 LL:  -5.629 LR: -15.116 RR:   0.000 FEB:  -7.360
USER: RMSD 12.252869
USER: SEED 174
USER: STATUS no improvement in best in 11 clusters for 5 generations
USER: GENES 28
USER: genes 0 Translation |==|  0.53544 0.55463 0.60434
USER: genes 1 Rotation |==|  0.52062 0.38648 0.01471 0.53436
USER: genes 2 Torsion [C]-N--CA-[C] |==|  0.57458
USER: genes 3 Torsion [N]-CA--C-[N] |==|  0.69484
USER: genes 4 Torsion [C]-N--CA-[C] |==|  0.18853
USER: genes 5 Torsion [N]-CA--C-[N] |==|  0.68092
USER: genes 6 Torsion [C]-N--CA-[C] |==|  0.74444
USER: genes 7 Torsion [N]-CA--CB-[OG] |==|  0.94652
USER: genes 8 Torsion [CA]-CB--OG-[HG] |==|  0.27266
USER: genes 9 Torsion [N]-CA--C-[N] |==|  0.01504
USER: genes 10 Torsion [C]-N--CA-[C] |==|  0.65558
USER: genes 11 Torsion [N]-CA--C-[O] |==|  0.33501
USER: genes 12 Torsion [N]-CA--CB-[CG] |==|  0.64569
USER: genes 13 Torsion [CA]-CB--CG-[CD2] |==|  0.43930
USER: genes 14 Torsion [N]-CA--CB-[CG] |==|  0.71570
USER: genes 15 Torsion [CA]-CB--CG-[CD2] |==|  0.52686
USER: genes 16 Torsion [N]-CA--CB-[CG2] |==|  0.73331
USER: genes 17 Torsion [CA]-CB--CG1-[CD1] |==|  0.65055
USER: genes 18 Torsion [O]-C--CA-[CB] |==|  0.10560
USER: genes 19 Torsion [N]-C--CA-[N] |==|  0.45177
USER: genes 20 Torsion [C]-CA--CB-[CG] |==|  0.31276
USER: genes 21 Torsion [CA]-CB--CG-[CD] |==|  0.12795
USER: genes 22 Torsion [CB]-CG--CD-[NE] |==|  0.52552
USER: genes 23 Torsion [CG]-CD--NE-[CZ] |==|  0.53589
USER: genes 24 Torsion [C]-CA--N-[C] |==|  0.60662
USER: genes 25 Torsion [N]-C--CA-[N] |==|  0.22141
USER: genes 26 Torsion [C]-CA--CB-[CG] |==|  0.61624
USER: genes 27 Torsion [CA]-CB--CG-[ND2] |==|  0.80992
ROOT
ATOM      1  C   PRO C  36      48.670  56.062  14.993  1.00 34.41 LIG 0.24  C 
ATOM      2 O    PRO C  36      48.473  57.120  15.599  1.00 29.89 LIG-0.27  OA
ATOM      3  N   ILE C  37      48.155  55.798  13.796  1.00 30.61 LIG-0.35  N 
ATOM      4 H    ILE C  37      48.315  55.072  13.363  1.00 30.61 LIG 0.16  HD
ENDROOT
BRANCH 3 5
ATOM      5  CA  ILE C  37      47.265  56.714  13.094  1.00 31.48 LIG 0.18  C 
BRANCH 5 6
ATOM      6  C   ILE C  37      46.414  55.836  12.195  1.00 31.96 LIG 0.24  C 
ATOM      7 O    ILE C  37      45.567  55.079  12.673  1.00 31.93 LIG-0.27  OA
ATOM      8  N   LEU C  38      46.646  55.931  10.892  1.00 30.89 LIG-0.35  N 
ATOM      9 H    LEU C  38      47.260  56.423  10.545  1.00 30.89 LIG 0.16  HD
BRANCH 8 10
ATOM     10  CA  LEU C  38      45.851  55.182   9.930  1.00 34.88 LIG 0.18  C 
BRANCH 10 11
ATOM     11  C   LEU C  38      44.387  55.579   9.776  1.00 39.33 LIG 0.24  C 
ATOM     12 O    LEU C  38      44.069  56.682   9.332  1.00 37.11 LIG-0.27  OA
ATOM     13  N   SER C  39      43.505  54.657  10.149  1.00 40.29 LIG-0.34  N 
ATOM     14 H    SER C  39      43.725  53.874  10.429  1.00 40.29 LIG 0.16  HD
BRANCH 13 15
ATOM     15  CA  SER C  39      42.066  54.892  10.115  1.00 42.99 LIG 0.20  C 
BRANCH 15 16
ATOM     16  CB  SER C  39      41.301  53.590   9.856  1.00 41.70 LIG 0.20  C 
BRANCH 16 17
ATOM     17 OG   SER C  39      42.136  52.594   9.289  1.00 43.46 LIG-0.40  OA
ATOM     18 HG   SER C  39      42.402  52.073   9.893  1.00 43.46 LIG 0.21  HD
ENDBRANCH 16 17
ENDBRANCH 15 16
BRANCH 15 19
ATOM     19  C   SER C  39      41.730  55.417  11.508  1.00 43.99 LIG 0.24  C 
ATOM     20  N   LEU C  40      42.745  55.640  12.336  1.00 44.48 LIG-0.34  N 
ATOM     21 H    LEU C  40      43.571  55.506  12.136  1.00 44.48 LIG 0.16  HD
ATOM     22 O    SER C  39      40.556  55.613  11.824  1.00 44.86 LIG-0.27  OA
BRANCH 20 23
ATOM     23  CA  LEU C  40      42.518  56.141  13.686  1.00 50.99 LIG 0.18  C 
BRANCH 23 24
ATOM     24  C   LEU C  40      43.305  57.431  13.920  1.00 53.79 LIG 0.20  C 
ATOM     25 O    LEU C  40      42.665  58.463  14.221  1.00 58.34 LIG-0.65  OA
ATOM     26 OXT  LEU C  40      44.547  57.400  13.792  1.00 54.01 LIG-0.65  OA
ENDBRANCH 23 24
BRANCH 23 27
ATOM     27  CB  LEU C  40      42.934  55.079  14.708  1.00 48.71 LIG 0.04  C 
BRANCH 27 28
ATOM     28  CG  LEU C  40      41.934  54.671  15.790  1.00 48.98 LIG-0.02  C 
ATOM     29  CD2 LEU C  40      42.307  53.299  16.317  1.00 51.62 LIG 0.01  C 
ATOM     30  CD1 LEU C  40      40.523  54.651  15.220  1.00 51.55 LIG 0.01  C 
ENDBRANCH 27 28
ENDBRANCH 23 27
ENDBRANCH 20 23
ENDBRANCH 15 19
ENDBRANCH 13 15
ENDBRANCH 10 11
BRANCH 10 31
ATOM     31  CB  LEU C  38      45.932  53.695  10.263  1.00 30.69 LIG 0.04  C 
BRANCH 31 32
ATOM     32  CG  LEU C  38      46.870  52.869   9.380  1.00 36.50 LIG-0.02  C 
ATOM     33  CD2 LEU C  38      46.674  51.381   9.662  1.00 35.12 LIG 0.01  C 
ATOM     34  CD1 LEU C  38      48.311  53.285   9.648  1.00 37.99 LIG 0.01  C 
ENDBRANCH 31 32
ENDBRANCH 10 31
ENDBRANCH 8 10
ENDBRANCH 5 6
BRANCH 5 35
ATOM     35  CB  ILE C  37      48.062  57.699  12.228  1.00 37.32 LIG 0.01  C 
ATOM     36  CG2 ILE C  37      48.273  59.001  12.985  1.00 35.15 LIG 0.01  C 
BRANCH 35 37
ATOM     37  CG1 ILE C  37      49.394  57.063  11.827  1.00 33.54 LIG 0.00  C 
ATOM     38  CD1 ILE C  37      50.601  57.902  12.179  1.00 46.98 LIG 0.01  C 
ENDBRANCH 35 37
ENDBRANCH 5 35
ENDBRANCH 3 5
BRANCH 1 39
ATOM     39  CA  PRO C  36      49.553  54.965  15.584  1.00 32.35 LIG 0.18  C 
ATOM     40  CB  PRO C  36      49.375  54.828  17.097  1.00 32.18 LIG 0.04  C 
ATOM     41  CG  PRO C  36      50.471  55.690  17.648  1.00 32.63 LIG 0.02  C 
ATOM     42  CD  PRO C  36      51.641  55.366  16.749  1.00 32.64 LIG 0.13  C 
ATOM     43  N   PRO C  36      50.991  55.203  15.437  1.00 32.06 LIG-0.34  N 
ATOM     44  C   ARG C  35      51.546  55.200  14.221  1.00 32.74 LIG 0.24  C 
ATOM     45 O    ARG C  35      50.883  54.994  13.207  1.00 32.93 LIG-0.27  OA
BRANCH 44 46
ATOM     46  CA  ARG C  35      53.045  55.454  14.135  1.00 37.56 LIG 0.18  C 
BRANCH 46 47
ATOM     47  CB  ARG C  35      53.335  56.943  14.322  1.00 40.42 LIG 0.04  C 
BRANCH 47 48
ATOM     48  CG  ARG C  35      54.071  57.259  15.597  1.00 36.41 LIG 0.02  C 
BRANCH 48 49
ATOM     49  CD  ARG C  35      55.238  56.311  15.817  1.00 39.80 LIG 0.14  C 
BRANCH 49 50
ATOM     50  NE  ARG C  35      55.806  56.485  17.150  1.00 32.60 LIG-0.23  N 
ATOM     51 HE   ARG C  35      55.355  56.945  17.720  1.00 32.60 LIG 0.18  HD
ATOM     52  CZ  ARG C  35      56.971  55.983  17.543  1.00 32.33 LIG 0.67  C 
ATOM     53  NH2 ARG C  35      57.705  55.265  16.705  1.00 28.83 LIG-0.23  N 
ATOM     54  NH1 ARG C  35      57.399  56.201  18.779  1.00 30.81 LIG-0.23  N 
ATOM     55 2HH2 ARG C  35      58.458  54.941  16.963  1.00 28.83 LIG 0.17  HD
ATOM     56 1HH2 ARG C  35      57.427  55.123  15.904  1.00 28.83 LIG 0.17  HD
ATOM     57 1HH1 ARG C  35      56.922  56.666  19.323  1.00 30.81 LIG 0.17  HD
ATOM     58 2HH1 ARG C  35      58.153  55.877  19.037  1.00 30.81 LIG 0.17  HD
ENDBRANCH 49 50
ENDBRANCH 48 49
ENDBRANCH 47 48
ENDBRANCH 46 47
BRANCH 46 59
ATOM     59  N   ARG C  35      53.507  55.007  12.829  1.00 36.73 LIG-0.35  N 
ATOM     60  C   ASN C  34      54.682  54.401  12.700  1.00 40.82 LIG 0.26  C 
ATOM     61 O    ASN C  34      55.431  54.195  13.653  1.00 33.40 LIG-0.27  OA
ATOM     62 H    ARG C  35      52.967  55.168  12.179  1.00 36.73 LIG 0.16  HD
BRANCH 60 63
ATOM     63  CA  ASN C  34      55.069  53.959  11.294  1.00 41.08 LIG 0.41  C 
ATOM     64  N   ASN C  34      55.588  55.123  10.522  1.00 44.32 LIG 0.61  N 
BRANCH 63 65
ATOM     65  CB  ASN C  34      56.134  52.862  11.394  1.00 43.19 LIG 0.15  C 
BRANCH 65 66
ATOM     66  CG  ASN C  34      57.251  53.023  10.372  1.00 48.82 LIG 0.22  C 
ATOM     67  ND2 ASN C  34      56.929  52.829   9.096  1.00 46.77 LIG-0.37  N 
ATOM     68 21HD ASN C  34      57.526  52.914   8.484  1.00 46.77 LIG 0.16  HD
ATOM     69 22HD ASN C  34      56.123  52.618   8.884  1.00 46.77 LIG 0.16  HD
ATOM     70 OD1  ASN C  34      58.389  53.326  10.730  1.00 54.33 LIG-0.27  OA
ENDBRANCH 65 66
ENDBRANCH 63 65
ENDBRANCH 60 63
ENDBRANCH 46 59
ENDBRANCH 44 46
ENDBRANCH 1 39
TORSDOF 26
ENDMDL
MODEL 12
USER: ADFR SOLUTION from run 98
USER: SCORE 19.327573 LL:  -5.557 LR: -15.114 RR:   0.000 FEB:  -7.358
USER: RMSD 13.177148
USER: SEED 97
USER: STATUS no improvement in best in 13 clusters for 5 generations
USER: GENES 28
USER: genes 0 Translation |==|  0.80731 0.41971 0.63946
USER: genes 1 Rotation |==|  0.63598 0.39647 0.96746 0.54769
USER: genes 2 Torsion [C]-N--CA-[C] |==|  0.59896
USER: genes 3 Torsion [N]-CA--C-[N] |==|  0.40686
USER: genes 4 Torsion [C]-N--CA-[C] |==|  0.58085
USER: genes 5 Torsion [N]-CA--C-[N] |==|  0.44112
USER: genes 6 Torsion [C]-N--CA-[C] |==|  0.65157
USER: genes 7 Torsion [N]-CA--CB-[OG] |==|  0.42470
USER: genes 8 Torsion [CA]-CB--OG-[HG] |==|  0.79164
USER: genes 9 Torsion [N]-CA--C-[N] |==|  0.45519
USER: genes 10 Torsion [C]-N--CA-[C] |==|  0.79473
USER: genes 11 Torsion [N]-CA--C-[O] |==|  0.44634
USER: genes 12 Torsion [N]-CA--CB-[CG] |==|  0.75021
USER: genes 13 Torsion [CA]-CB--CG-[CD2] |==|  0.20367
USER: genes 14 Torsion [N]-CA--CB-[CG] |==|  0.54313
USER: genes 15 Torsion [CA]-CB--CG-[CD2] |==|  0.56090
USER: genes 16 Torsion [N]-CA--CB-[CG2] |==|  0.37515
USER: genes 17 Torsion [CA]-CB--CG1-[CD1] |==|  0.90730
USER: genes 18 Torsion [O]-C--CA-[CB] |==|  0.96021
USER: genes 19 Torsion [N]-C--CA-[N] |==|  0.51848
USER: genes 20 Torsion [C]-CA--CB-[CG] |==|  0.46798
USER: genes 21 Torsion [CA]-CB--CG-[CD] |==|  0.91561
USER: genes 22 Torsion [CB]-CG--CD-[NE] |==|  0.26331
USER: genes 23 Torsion [CG]-CD--NE-[CZ] |==|  0.34511
USER: genes 24 Torsion [C]-CA--N-[C] |==|  0.17275
USER: genes 25 Torsion [N]-C--CA-[N] |==|  0.94127
USER: genes 26 Torsion [C]-CA--CB-[CG] |==|  0.78850
USER: genes 27 Torsion [CA]-CB--CG-[ND2] |==|  0.18555
ROOT
ATOM      1  C   PRO C  36      57.233  53.634  15.652  1.00 34.41 LIG 0.24  C 
ATOM      2 O    PRO C  36      57.912  53.804  16.669  1.00 29.89 LIG-0.27  OA
ATOM      3  N   ILE C  37      56.303  54.491  15.241  1.00 30.61 LIG-0.35  N 
ATOM      4 H    ILE C  37      55.851  54.384  14.516  1.00 30.61 LIG 0.16  HD
ENDROOT
BRANCH 3 5
ATOM      5  CA  ILE C  37      55.955  55.698  15.977  1.00 31.48 LIG 0.18  C 
BRANCH 5 6
ATOM      6  C   ILE C  37      54.459  55.869  15.783  1.00 31.96 LIG 0.24  C 
ATOM      7 O    ILE C  37      53.919  55.537  14.727  1.00 31.93 LIG-0.27  OA
ATOM      8  N   LEU C  38      53.792  56.397  16.802  1.00 30.89 LIG-0.35  N 
ATOM      9 H    LEU C  38      54.158  56.671  17.530  1.00 30.89 LIG 0.16  HD
BRANCH 8 10
ATOM     10  CA  LEU C  38      52.346  56.552  16.754  1.00 34.88 LIG 0.18  C 
BRANCH 10 11
ATOM     11  C   LEU C  38      51.740  57.700  17.552  1.00 39.33 LIG 0.24  C 
ATOM     12 O    LEU C  38      52.349  58.217  18.489  1.00 37.11 LIG-0.27  OA
ATOM     13  N   SER C  39      50.530  58.090  17.162  1.00 40.29 LIG-0.34  N 
ATOM     14 H    SER C  39      50.117  57.752  16.487  1.00 40.29 LIG 0.16  HD
BRANCH 13 15
ATOM     15  CA  SER C  39      49.786  59.139  17.849  1.00 42.99 LIG 0.20  C 
BRANCH 15 16
ATOM     16  CB  SER C  39      49.558  60.345  16.930  1.00 41.70 LIG 0.20  C 
BRANCH 16 17
ATOM     17 OG   SER C  39      48.390  61.064  17.290  1.00 43.46 LIG-0.40  OA
ATOM     18 HG   SER C  39      47.710  60.637  17.043  1.00 43.46 LIG 0.21  HD
ENDBRANCH 16 17
ENDBRANCH 15 16
BRANCH 15 19
ATOM     19  C   SER C  39      48.447  58.497  18.195  1.00 43.99 LIG 0.24  C 
ATOM     20  N   LEU C  40      47.697  59.108  19.107  1.00 44.48 LIG-0.34  N 
ATOM     21 H    LEU C  40      47.920  59.836  19.508  1.00 44.48 LIG 0.16  HD
ATOM     22 O    SER C  39      48.102  57.454  17.640  1.00 44.86 LIG-0.27  OA
BRANCH 20 23
ATOM     23  CA  LEU C  40      46.401  58.568  19.500  1.00 50.99 LIG 0.18  C 
BRANCH 23 24
ATOM     24  C   LEU C  40      45.364  58.800  18.402  1.00 53.79 LIG 0.20  C 
ATOM     25 O    LEU C  40      44.330  58.096  18.412  1.00 58.34 LIG-0.65  OA
ATOM     26 OXT  LEU C  40      45.598  59.673  17.540  1.00 54.01 LIG-0.65  OA
ENDBRANCH 23 24
BRANCH 23 27
ATOM     27  CB  LEU C  40      45.942  59.228  20.805  1.00 48.71 LIG 0.04  C 
BRANCH 27 28
ATOM     28  CG  LEU C  40      46.338  58.582  22.133  1.00 48.98 LIG-0.02  C 
ATOM     29  CD2 LEU C  40      47.813  58.829  22.383  1.00 51.62 LIG 0.01  C 
ATOM     30  CD1 LEU C  40      46.053  57.088  22.095  1.00 51.55 LIG 0.01  C 
ENDBRANCH 27 28
ENDBRANCH 23 27
ENDBRANCH 20 23
ENDBRANCH 15 19
ENDBRANCH 13 15
ENDBRANCH 10 11
BRANCH 10 31
ATOM     31  CB  LEU C  38      51.687  55.244  17.183  1.00 30.69 LIG 0.04  C 
BRANCH 31 32
ATOM     32  CG  LEU C  38      50.202  55.107  16.842  1.00 36.50 LIG-0.02  C 
ATOM     33  CD2 LEU C  38      49.552  54.070  17.756  1.00 35.12 LIG 0.01  C 
ATOM     34  CD1 LEU C  38      50.055  54.705  15.380  1.00 37.99 LIG 0.01  C 
ENDBRANCH 31 32
ENDBRANCH 10 31
ENDBRANCH 8 10
ENDBRANCH 5 6
BRANCH 5 35
ATOM     35  CB  ILE C  37      56.680  56.922  15.400  1.00 37.32 LIG 0.01  C 
ATOM     36  CG2 ILE C  37      55.709  58.086  15.270  1.00 35.15 LIG 0.01  C 
BRANCH 35 37
ATOM     37  CG1 ILE C  37      57.866  57.282  16.296  1.00 33.54 LIG 0.00  C 
ATOM     38  CD1 ILE C  37      57.628  57.003  17.762  1.00 46.98 LIG 0.01  C 
ENDBRANCH 35 37
ENDBRANCH 5 35
ENDBRANCH 3 5
BRANCH 1 39
ATOM     39  CA  PRO C  36      57.433  52.407  14.764  1.00 32.35 LIG 0.18  C 
ATOM     40  CB  PRO C  36      58.737  51.670  15.077  1.00 32.18 LIG 0.04  C 
ATOM     41  CG  PRO C  36      59.704  52.256  14.094  1.00 32.63 LIG 0.02  C 
ATOM     42  CD  PRO C  36      58.888  52.342  12.825  1.00 32.64 LIG 0.13  C 
ATOM     43  N   PRO C  36      57.556  52.709  13.336  1.00 32.06 LIG-0.34  N 
ATOM     44  C   ARG C  35      56.509  53.205  12.667  1.00 32.74 LIG 0.24  C 
ATOM     45 O    ARG C  35      55.429  53.413  13.216  1.00 32.93 LIG-0.27  OA
BRANCH 44 46
ATOM     46  CA  ARG C  35      56.700  53.498  11.186  1.00 37.56 LIG 0.18  C 
BRANCH 46 47
ATOM     47  CB  ARG C  35      57.930  54.381  10.980  1.00 40.42 LIG 0.04  C 
BRANCH 47 48
ATOM     48  CG  ARG C  35      58.357  54.498   9.541  1.00 36.41 LIG 0.02  C 
BRANCH 48 49
ATOM     49  CD  ARG C  35      58.018  53.242   8.756  1.00 39.80 LIG 0.14  C 
BRANCH 49 50
ATOM     50  NE  ARG C  35      56.734  53.384   8.077  1.00 32.60 LIG-0.23  N 
ATOM     51 HE   ARG C  35      56.048  53.582   8.555  1.00 32.60 LIG 0.18  HD
ATOM     52  CZ  ARG C  35      56.553  53.229   6.770  1.00 32.33 LIG 0.67  C 
ATOM     53  NH2 ARG C  35      57.577  52.926   5.986  1.00 28.83 LIG-0.23  N 
ATOM     54  NH1 ARG C  35      55.342  53.380   6.250  1.00 30.81 LIG-0.23  N 
ATOM     55 2HH2 ARG C  35      57.456  52.826   5.141  1.00 28.83 LIG 0.17  HD
ATOM     56 1HH2 ARG C  35      58.362  52.829   6.323  1.00 28.83 LIG 0.17  HD
ATOM     57 1HH1 ARG C  35      54.677  53.578   6.759  1.00 30.81 LIG 0.17  HD
ATOM     58 2HH1 ARG C  35      55.221  53.280   5.405  1.00 30.81 LIG 0.17  HD
ENDBRANCH 49 50
ENDBRANCH 48 49
ENDBRANCH 47 48
ENDBRANCH 46 47
BRANCH 46 59
ATOM     59  N   ARG C  35      55.505  54.171  10.699  1.00 36.73 LIG-0.35  N 
ATOM     60  C   ASN C  34      55.148  55.352  11.191  1.00 40.82 LIG 0.26  C 
ATOM     61 O    ASN C  34      55.787  55.926  12.072  1.00 33.40 LIG-0.27  OA
ATOM     62 H    ARG C  35      55.073  53.747  10.088  1.00 36.73 LIG 0.16  HD
BRANCH 60 63
ATOM     63  CA  ASN C  34      53.889  55.981  10.607  1.00 41.08 LIG 0.41  C 
ATOM     64  N   ASN C  34      53.602  55.393   9.268  1.00 44.32 LIG 0.61  N 
BRANCH 63 65
ATOM     65  CB  ASN C  34      52.719  55.734  11.565  1.00 43.19 LIG 0.15  C 
BRANCH 65 66
ATOM     66  CG  ASN C  34      52.189  54.308  11.499  1.00 48.82 LIG 0.22  C 
ATOM     67  ND2 ASN C  34      53.002  53.346  11.927  1.00 46.77 LIG-0.37  N 
ATOM     68 21HD ASN C  34      52.743  52.526  11.912  1.00 46.77 LIG 0.16  HD
ATOM     69 22HD ASN C  34      53.786  53.544  12.218  1.00 46.77 LIG 0.16  HD
ATOM     70 OD1  ASN C  34      51.057  54.079  11.073  1.00 54.33 LIG-0.27  OA
ENDBRANCH 65 66
ENDBRANCH 63 65
ENDBRANCH 60 63
ENDBRANCH 46 59
ENDBRANCH 44 46
ENDBRANCH 1 39
TORSDOF 26
ENDMDL
MODEL 13
USER: ADFR SOLUTION from run 187
USER: SCORE 18.854187 LL:  -4.879 LR: -15.069 RR:   0.000 FEB:  -7.314
USER: RMSD 13.240310
USER: SEED 186
USER: STATUS no improvement in best in 43 clusters for 5 generations
USER: GENES 28
USER: genes 0 Translation |==|  0.56625 0.50380 0.45373
USER: genes 1 Rotation |==|  0.50809 0.78250 0.91124 0.53177
USER: genes 2 Torsion [C]-N--CA-[C] |==|  0.58189
USER: genes 3 Torsion [N]-CA--C-[N] |==|  0.34588
USER: genes 4 Torsion [C]-N--CA-[C] |==|  0.85064
USER: genes 5 Torsion [N]-CA--C-[N] |==|  0.33889
USER: genes 6 Torsion [C]-N--CA-[C] |==|  0.65465
USER: genes 7 Torsion [N]-CA--CB-[OG] |==|  0.94207
USER: genes 8 Torsion [CA]-CB--OG-[HG] |==|  0.29689
USER: genes 9 Torsion [N]-CA--C-[N] |==|  0.04371
USER: genes 10 Torsion [C]-N--CA-[C] |==|  0.75132
USER: genes 11 Torsion [N]-CA--C-[O] |==|  0.12476
USER: genes 12 Torsion [N]-CA--CB-[CG] |==|  0.69458
USER: genes 13 Torsion [CA]-CB--CG-[CD2] |==|  0.77828
USER: genes 14 Torsion [N]-CA--CB-[CG] |==|  0.46445
USER: genes 15 Torsion [CA]-CB--CG-[CD2] |==|  0.68951
USER: genes 16 Torsion [N]-CA--CB-[CG2] |==|  0.44504
USER: genes 17 Torsion [CA]-CB--CG1-[CD1] |==|  0.29210
USER: genes 18 Torsion [O]-C--CA-[CB] |==|  0.18809
USER: genes 19 Torsion [N]-C--CA-[N] |==|  0.51453
USER: genes 20 Torsion [C]-CA--CB-[CG] |==|  0.35382
USER: genes 21 Torsion [CA]-CB--CG-[CD] |==|  0.00587
USER: genes 22 Torsion [CB]-CG--CD-[NE] |==|  0.53036
USER: genes 23 Torsion [CG]-CD--NE-[CZ] |==|  0.65036
USER: genes 24 Torsion [C]-CA--N-[C] |==|  0.57124
USER: genes 25 Torsion [N]-C--CA-[N] |==|  0.83799
USER: genes 26 Torsion [C]-CA--CB-[CG] |==|  0.49742
USER: genes 27 Torsion [CA]-CB--CG-[ND2] |==|  0.21816
ROOT
ATOM      1  C   PRO C  36      49.640  55.147  12.169  1.00 34.41 LIG 0.24  C 
ATOM      2 O    PRO C  36      49.797  56.341  11.895  1.00 29.89 LIG-0.27  OA
ATOM      3  N   ILE C  37      48.958  54.303  11.400  1.00 30.61 LIG-0.35  N 
ATOM      4 H    ILE C  37      48.874  53.466  11.579  1.00 30.61 LIG 0.16  HD
ENDROOT
BRANCH 3 5
ATOM      5  CA  ILE C  37      48.285  54.712  10.175  1.00 31.48 LIG 0.18  C 
BRANCH 5 6
ATOM      6  C   ILE C  37      47.105  53.768  10.032  1.00 31.96 LIG 0.24  C 
ATOM      7 O    ILE C  37      47.274  52.548  10.013  1.00 31.93 LIG-0.27  OA
ATOM      8  N   LEU C  38      45.910  54.335   9.920  1.00 30.89 LIG-0.35  N 
ATOM      9 H    LEU C  38      45.779  55.184   9.890  1.00 30.89 LIG 0.16  HD
BRANCH 8 10
ATOM     10  CA  LEU C  38      44.701  53.529   9.837  1.00 34.88 LIG 0.18  C 
BRANCH 10 11
ATOM     11  C   LEU C  38      44.652  52.452   8.760  1.00 39.33 LIG 0.24  C 
ATOM     12 O    LEU C  38      44.794  52.732   7.570  1.00 37.11 LIG-0.27  OA
ATOM     13  N   SER C  39      44.452  51.214   9.202  1.00 40.29 LIG-0.34  N 
ATOM     14 H    SER C  39      44.385  51.012  10.035  1.00 40.29 LIG 0.16  HD
BRANCH 13 15
ATOM     15  CA  SER C  39      44.326  50.073   8.302  1.00 42.99 LIG 0.20  C 
BRANCH 15 16
ATOM     16  CB  SER C  39      45.452  49.059   8.537  1.00 41.70 LIG 0.20  C 
BRANCH 16 17
ATOM     17 OG   SER C  39      46.564  49.652   9.187  1.00 43.46 LIG-0.40  OA
ATOM     18 HG   SER C  39      46.595  49.391   9.985  1.00 43.46 LIG 0.21  HD
ENDBRANCH 16 17
ENDBRANCH 15 16
BRANCH 15 19
ATOM     19  C   SER C  39      42.985  49.443   8.664  1.00 43.99 LIG 0.24  C 
ATOM     20  N   LEU C  40      42.144  50.175   9.388  1.00 44.48 LIG-0.34  N 
ATOM     21 H    LEU C  40      42.310  50.974   9.662  1.00 44.48 LIG 0.16  HD
ATOM     22 O    SER C  39      42.720  48.301   8.289  1.00 44.86 LIG-0.27  OA
BRANCH 20 23
ATOM     23  CA  LEU C  40      40.840  49.656   9.780  1.00 50.99 LIG 0.18  C 
BRANCH 23 24
ATOM     24  C   LEU C  40      39.788  49.984   8.721  1.00 53.79 LIG 0.20  C 
ATOM     25 O    LEU C  40      40.087  49.800   7.520  1.00 58.34 LIG-0.65  OA
ATOM     26 OXT  LEU C  40      38.684  50.429   9.098  1.00 54.01 LIG-0.65  OA
ENDBRANCH 23 24
BRANCH 23 27
ATOM     27  CB  LEU C  40      40.430  50.254  11.130  1.00 48.71 LIG 0.04  C 
BRANCH 27 28
ATOM     28  CG  LEU C  40      40.404  49.345  12.359  1.00 48.98 LIG-0.02  C 
ATOM     29  CD2 LEU C  40      39.123  48.534  12.347  1.00 51.62 LIG 0.01  C 
ATOM     30  CD1 LEU C  40      40.490  50.177  13.629  1.00 51.55 LIG 0.01  C 
ENDBRANCH 27 28
ENDBRANCH 23 27
ENDBRANCH 20 23
ENDBRANCH 15 19
ENDBRANCH 13 15
ENDBRANCH 10 11
BRANCH 10 31
ATOM     31  CB  LEU C  38      43.496  54.451   9.676  1.00 30.69 LIG 0.04  C 
BRANCH 31 32
ATOM     32  CG  LEU C  38      42.188  53.768   9.271  1.00 36.50 LIG-0.02  C 
ATOM     33  CD2 LEU C  38      41.802  54.182   7.852  1.00 35.12 LIG 0.01  C 
ATOM     34  CD1 LEU C  38      41.094  54.146  10.261  1.00 37.99 LIG 0.01  C 
ENDBRANCH 31 32
ENDBRANCH 10 31
ENDBRANCH 8 10
ENDBRANCH 5 6
BRANCH 5 35
ATOM     35  CB  ILE C  37      49.209  54.551   8.960  1.00 37.32 LIG 0.01  C 
ATOM     36  CG2 ILE C  37      48.383  54.504   7.684  1.00 35.15 LIG 0.01  C 
BRANCH 35 37
ATOM     37  CG1 ILE C  37      50.217  55.700   8.931  1.00 33.54 LIG 0.00  C 
ATOM     38  CD1 ILE C  37      51.611  55.300   9.356  1.00 46.98 LIG 0.01  C 
ENDBRANCH 35 37
ENDBRANCH 5 35
ENDBRANCH 3 5
BRANCH 1 39
ATOM     39  CA  PRO C  36      50.247  54.539  13.433  1.00 32.35 LIG 0.18  C 
ATOM     40  CB  PRO C  36      49.599  55.082  14.707  1.00 32.18 LIG 0.04  C 
ATOM     41  CG  PRO C  36      50.502  56.214  15.093  1.00 32.63 LIG 0.02  C 
ATOM     42  CD  PRO C  36      51.881  55.651  14.838  1.00 32.64 LIG 0.13  C 
ATOM     43  N   PRO C  36      51.668  54.842  13.625  1.00 32.06 LIG-0.34  N 
ATOM     44  C   ARG C  35      52.576  54.352  12.775  1.00 32.74 LIG 0.24  C 
ATOM     45 O    ARG C  35      52.255  53.638  11.826  1.00 32.93 LIG-0.27  OA
BRANCH 44 46
ATOM     46  CA  ARG C  35      54.035  54.702  13.029  1.00 37.56 LIG 0.18  C 
BRANCH 46 47
ATOM     47  CB  ARG C  35      54.200  56.219  13.127  1.00 40.42 LIG 0.04  C 
BRANCH 47 48
ATOM     48  CG  ARG C  35      54.910  56.670  14.376  1.00 36.41 LIG 0.02  C 
BRANCH 48 49
ATOM     49  CD  ARG C  35      55.344  55.489  15.227  1.00 39.80 LIG 0.14  C 
BRANCH 49 50
ATOM     50  NE  ARG C  35      55.796  55.933  16.542  1.00 32.60 LIG-0.23  N 
ATOM     51 HE   ARG C  35      55.261  56.421  17.004  1.00 32.60 LIG 0.18  HD
ATOM     52  CZ  ARG C  35      56.976  55.634  17.073  1.00 32.33 LIG 0.67  C 
ATOM     53  NH2 ARG C  35      57.837  54.882  16.404  1.00 28.83 LIG-0.23  N 
ATOM     54  NH1 ARG C  35      57.290  56.089  18.279  1.00 30.81 LIG-0.23  N 
ATOM     55 2HH2 ARG C  35      58.600  54.690  16.751  1.00 28.83 LIG 0.17  HD
ATOM     56 1HH2 ARG C  35      57.633  54.585  15.623  1.00 28.83 LIG 0.17  HD
ATOM     57 1HH1 ARG C  35      56.730  56.576  18.713  1.00 30.81 LIG 0.17  HD
ATOM     58 2HH1 ARG C  35      58.053  55.897  18.626  1.00 30.81 LIG 0.17  HD
ENDBRANCH 49 50
ENDBRANCH 48 49
ENDBRANCH 47 48
ENDBRANCH 46 47
BRANCH 46 59
ATOM     59  N   ARG C  35      54.827  54.176  11.927  1.00 36.73 LIG-0.35  N 
ATOM     60  C   ASN C  34      56.110  53.879  12.100  1.00 40.82 LIG 0.26  C 
ATOM     61 O    ASN C  34      56.689  54.036  13.174  1.00 33.40 LIG-0.27  OA
ATOM     62 H    ARG C  35      54.399  54.081  11.186  1.00 36.73 LIG 0.16  HD
BRANCH 60 63
ATOM     63  CA  ASN C  34      56.849  53.322  10.889  1.00 41.08 LIG 0.41  C 
ATOM     64  N   ASN C  34      56.179  52.079  10.414  1.00 44.32 LIG 0.61  N 
BRANCH 63 65
ATOM     65  CB  ASN C  34      56.863  54.383   9.784  1.00 43.19 LIG 0.15  C 
BRANCH 65 66
ATOM     66  CG  ASN C  34      57.602  53.928   8.533  1.00 48.82 LIG 0.22  C 
ATOM     67  ND2 ASN C  34      56.948  53.108   7.715  1.00 46.77 LIG-0.37  N 
ATOM     68 21HD ASN C  34      57.325  52.829   6.995  1.00 46.77 LIG 0.16  HD
ATOM     69 22HD ASN C  34      56.149  52.857   7.908  1.00 46.77 LIG 0.16  HD
ATOM     70 OD1  ASN C  34      58.747  54.318   8.305  1.00 54.33 LIG-0.27  OA
ENDBRANCH 65 66
ENDBRANCH 63 65
ENDBRANCH 60 63
ENDBRANCH 46 59
ENDBRANCH 44 46
ENDBRANCH 1 39
TORSDOF 26
ENDMDL
MODEL 14
USER: ADFR SOLUTION from run 60
USER: SCORE 20.229467 LL:  -5.789 LR: -15.051 RR:   0.000 FEB:  -7.295
USER: RMSD 12.866173
USER: SEED 59
USER: STATUS no improvement in best in 4 clusters for 5 generations
USER: GENES 28
USER: genes 0 Translation |==|  0.63765 0.51616 0.53869
USER: genes 1 Rotation |==|  0.40986 0.02055 0.56497 0.58821
USER: genes 2 Torsion [C]-N--CA-[C] |==|  0.77927
USER: genes 3 Torsion [N]-CA--C-[N] |==|  0.94560
USER: genes 4 Torsion [C]-N--CA-[C] |==|  0.82274
USER: genes 5 Torsion [N]-CA--C-[N] |==|  0.92409
USER: genes 6 Torsion [C]-N--CA-[C] |==|  0.52271
USER: genes 7 Torsion [N]-CA--CB-[OG] |==|  0.73781
USER: genes 8 Torsion [CA]-CB--OG-[HG] |==|  0.10214
USER: genes 9 Torsion [N]-CA--C-[N] |==|  0.48735
USER: genes 10 Torsion [C]-N--CA-[C] |==|  0.71678
USER: genes 11 Torsion [N]-CA--C-[O] |==|  0.99528
USER: genes 12 Torsion [N]-CA--CB-[CG] |==|  0.01164
USER: genes 13 Torsion [CA]-CB--CG-[CD2] |==|  0.53842
USER: genes 14 Torsion [N]-CA--CB-[CG] |==|  0.82552
USER: genes 15 Torsion [CA]-CB--CG-[CD2] |==|  0.25761
USER: genes 16 Torsion [N]-CA--CB-[CG2] |==|  0.21138
USER: genes 17 Torsion [CA]-CB--CG1-[CD1] |==|  0.72052
USER: genes 18 Torsion [O]-C--CA-[CB] |==|  0.12179
USER: genes 19 Torsion [N]-C--CA-[N] |==|  0.48863
USER: genes 20 Torsion [C]-CA--CB-[CG] |==|  0.41629
USER: genes 21 Torsion [CA]-CB--CG-[CD] |==|  0.82491
USER: genes 22 Torsion [CB]-CG--CD-[NE] |==|  0.71389
USER: genes 23 Torsion [CG]-CD--NE-[CZ] |==|  0.74194
USER: genes 24 Torsion [C]-CA--N-[C] |==|  0.55841
USER: genes 25 Torsion [N]-C--CA-[N] |==|  0.98880
USER: genes 26 Torsion [C]-CA--CB-[CG] |==|  0.58894
USER: genes 27 Torsion [CA]-CB--CG-[ND2] |==|  0.69663
ROOT
ATOM      1  C   PRO C  36      51.889  55.370  13.762  1.00 34.41 LIG 0.24  C 
ATOM      2 O    PRO C  36      51.285  54.558  13.055  1.00 29.89 LIG-0.27  OA
ATOM      3  N   ILE C  37      51.686  55.493  15.071  1.00 30.61 LIG-0.35  N 
ATOM      4 H    ILE C  37      52.128  56.040  15.567  1.00 30.61 LIG 0.16  HD
ENDROOT
BRANCH 3 5
ATOM      5  CA  ILE C  37      50.693  54.713  15.797  1.00 31.48 LIG 0.18  C 
BRANCH 5 6
ATOM      6  C   ILE C  37      49.366  55.397  15.521  1.00 31.96 LIG 0.24  C 
ATOM      7 O    ILE C  37      48.303  54.794  15.678  1.00 31.93 LIG-0.27  OA
ATOM      8  N   LEU C  38      49.430  56.654  15.099  1.00 30.89 LIG-0.35  N 
ATOM      9 H    LEU C  38      50.164  57.076  14.946  1.00 30.89 LIG 0.16  HD
BRANCH 8 10
ATOM     10  CA  LEU C  38      48.222  57.428  14.860  1.00 34.88 LIG 0.18  C 
BRANCH 10 11
ATOM     11  C   LEU C  38      47.290  56.945  13.755  1.00 39.33 LIG 0.24  C 
ATOM     12 O    LEU C  38      46.084  57.186  13.787  1.00 37.11 LIG-0.27  OA
ATOM     13  N   SER C  39      47.874  56.262  12.775  1.00 40.29 LIG-0.34  N 
ATOM     14 H    SER C  39      48.722  56.120  12.734  1.00 40.29 LIG 0.16  HD
BRANCH 13 15
ATOM     15  CA  SER C  39      47.122  55.683  11.668  1.00 42.99 LIG 0.20  C 
BRANCH 15 16
ATOM     16  CB  SER C  39      46.577  56.776  10.741  1.00 41.70 LIG 0.20  C 
BRANCH 16 17
ATOM     17 OG   SER C  39      45.249  57.139  11.082  1.00 43.46 LIG-0.40  OA
ATOM     18 HG   SER C  39      45.159  57.121  11.918  1.00 43.46 LIG 0.21  HD
ENDBRANCH 16 17
ENDBRANCH 15 16
BRANCH 15 19
ATOM     19  C   SER C  39      48.138  54.832  10.915  1.00 43.99 LIG 0.24  C 
ATOM     20  N   LEU C  40      47.689  54.107   9.896  1.00 44.48 LIG-0.34  N 
ATOM     21 H    LEU C  40      46.867  54.089   9.639  1.00 44.48 LIG 0.16  HD
ATOM     22 O    SER C  39      49.320  54.834  11.261  1.00 44.86 LIG-0.27  OA
BRANCH 20 23
ATOM     23  CA  LEU C  40      48.588  53.263   9.117  1.00 50.99 LIG 0.18  C 
BRANCH 23 24
ATOM     24  C   LEU C  40      48.942  53.934   7.790  1.00 53.79 LIG 0.20  C 
ATOM     25 O    LEU C  40      48.421  55.042   7.535  1.00 58.34 LIG-0.65  OA
ATOM     26 OXT  LEU C  40      49.725  53.343   7.018  1.00 54.01 LIG-0.65  OA
ENDBRANCH 23 24
BRANCH 23 27
ATOM     27  CB  LEU C  40      47.928  51.905   8.861  1.00 48.71 LIG 0.04  C 
BRANCH 27 28
ATOM     28  CG  LEU C  40      46.490  51.686   9.333  1.00 48.98 LIG-0.02  C 
ATOM     29  CD2 LEU C  40      46.174  50.204   9.287  1.00 51.62 LIG 0.01  C 
ATOM     30  CD1 LEU C  40      45.524  52.459   8.448  1.00 51.55 LIG 0.01  C 
ENDBRANCH 27 28
ENDBRANCH 23 27
ENDBRANCH 20 23
ENDBRANCH 15 19
ENDBRANCH 13 15
ENDBRANCH 10 11
BRANCH 10 31
ATOM     31  CB  LEU C  38      48.605  58.881  14.590  1.00 30.69 LIG 0.04  C 
BRANCH 31 32
ATOM     32  CG  LEU C  38      49.299  59.609  15.743  1.00 36.50 LIG-0.02  C 
ATOM     33  CD2 LEU C  38      50.814  59.485  15.601  1.00 35.12 LIG 0.01  C 
ATOM     34  CD1 LEU C  38      48.831  59.017  17.067  1.00 37.99 LIG 0.01  C 
ENDBRANCH 31 32
ENDBRANCH 10 31
ENDBRANCH 8 10
ENDBRANCH 5 6
BRANCH 5 35
ATOM     35  CB  ILE C  37      50.968  54.741  17.307  1.00 37.32 LIG 0.01  C 
ATOM     36  CG2 ILE C  37      50.539  56.080  17.888  1.00 35.15 LIG 0.01  C 
BRANCH 35 37
ATOM     37  CG1 ILE C  37      50.236  53.580  17.980  1.00 33.54 LIG 0.00  C 
ATOM     38  CD1 ILE C  37      48.947  53.983  18.659  1.00 46.98 LIG 0.01  C 
ENDBRANCH 35 37
ENDBRANCH 5 35
ENDBRANCH 3 5
BRANCH 1 39
ATOM     39  CA  PRO C  36      52.950  56.298  13.173  1.00 32.35 LIG 0.18  C 
ATOM     40  CB  PRO C  36      52.508  56.914  11.844  1.00 32.18 LIG 0.04  C 
ATOM     41  CG  PRO C  36      53.087  55.980  10.826  1.00 32.63 LIG 0.02  C 
ATOM     42  CD  PRO C  36      54.462  55.685  11.380  1.00 32.64 LIG 0.13  C 
ATOM     43  N   PRO C  36      54.210  55.634  12.830  1.00 32.06 LIG-0.34  N 
ATOM     44  C   ARG C  35      54.980  55.126  13.798  1.00 32.74 LIG 0.24  C 
ATOM     45 O    ARG C  35      54.667  55.205  14.984  1.00 32.93 LIG-0.27  OA
BRANCH 44 46
ATOM     46  CA  ARG C  35      56.277  54.449  13.377  1.00 37.56 LIG 0.18  C 
BRANCH 46 47
ATOM     47  CB  ARG C  35      55.972  53.221  12.520  1.00 40.42 LIG 0.04  C 
BRANCH 47 48
ATOM     48  CG  ARG C  35      57.041  52.913  11.504  1.00 36.41 LIG 0.02  C 
BRANCH 48 49
ATOM     49  CD  ARG C  35      57.187  54.036  10.492  1.00 39.80 LIG 0.14  C 
BRANCH 49 50
ATOM     50  NE  ARG C  35      56.553  53.682   9.226  1.00 32.60 LIG-0.23  N 
ATOM     51 HE   ARG C  35      55.716  53.855   9.136  1.00 32.60 LIG 0.18  HD
ATOM     52  CZ  ARG C  35      57.180  53.111   8.203  1.00 32.33 LIG 0.67  C 
ATOM     53  NH2 ARG C  35      58.471  52.826   8.288  1.00 28.83 LIG-0.23  N 
ATOM     54  NH1 ARG C  35      56.510  52.829   7.094  1.00 30.81 LIG-0.23  N 
ATOM     55 2HH2 ARG C  35      58.874  52.457   7.625  1.00 28.83 LIG 0.17  HD
ATOM     56 1HH2 ARG C  35      58.906  53.010   9.007  1.00 28.83 LIG 0.17  HD
ATOM     57 1HH1 ARG C  35      55.672  53.016   7.039  1.00 30.81 LIG 0.17  HD
ATOM     58 2HH1 ARG C  35      56.913  52.460   6.430  1.00 30.81 LIG 0.17  HD
ENDBRANCH 49 50
ENDBRANCH 48 49
ENDBRANCH 47 48
ENDBRANCH 46 47
BRANCH 46 59
ATOM     59  N   ARG C  35      56.997  54.061  14.581  1.00 36.73 LIG-0.35  N 
ATOM     60  C   ASN C  34      58.306  53.837  14.541  1.00 40.82 LIG 0.26  C 
ATOM     61 O    ASN C  34      58.966  53.936  13.507  1.00 33.40 LIG-0.27  OA
ATOM     62 H    ARG C  35      56.512  53.994  15.288  1.00 36.73 LIG 0.16  HD
BRANCH 60 63
ATOM     63  CA  ASN C  34      58.972  53.449  15.856  1.00 41.08 LIG 0.41  C 
ATOM     64  N   ASN C  34      57.975  53.499  16.963  1.00 44.32 LIG 0.61  N 
BRANCH 63 65
ATOM     65  CB  ASN C  34      59.554  52.038  15.720  1.00 43.19 LIG 0.15  C 
BRANCH 65 66
ATOM     66  CG  ASN C  34      59.531  51.258  17.028  1.00 48.82 LIG 0.22  C 
ATOM     67  ND2 ASN C  34      60.704  51.041  17.616  1.00 46.77 LIG-0.37  N 
ATOM     68 21HD ASN C  34      60.739  50.609  18.359  1.00 46.77 LIG 0.16  HD
ATOM     69 22HD ASN C  34      61.428  51.332  17.254  1.00 46.77 LIG 0.16  HD
ATOM     70 OD1  ASN C  34      58.468  50.862  17.503  1.00 54.33 LIG-0.27  OA
ENDBRANCH 65 66
ENDBRANCH 63 65
ENDBRANCH 60 63
ENDBRANCH 46 59
ENDBRANCH 44 46
ENDBRANCH 1 39
TORSDOF 26
ENDMDL
MODEL 15
USER: ADFR SOLUTION from run 177
USER: SCORE 19.849758 LL:  -5.882 LR: -14.992 RR:   0.000 FEB:  -7.236
USER: RMSD 11.769896
USER: SEED 176
USER: STATUS no improvement in best in 3 clusters for 5 generations
USER: GENES 28
USER: genes 0 Translation |==|  0.60640 0.51275 0.54910
USER: genes 1 Rotation |==|  0.33251 0.07103 0.60678 0.66289
USER: genes 2 Torsion [C]-N--CA-[C] |==|  0.71376
USER: genes 3 Torsion [N]-CA--C-[N] |==|  0.92486
USER: genes 4 Torsion [C]-N--CA-[C] |==|  0.70239
USER: genes 5 Torsion [N]-CA--C-[N] |==|  0.89811
USER: genes 6 Torsion [C]-N--CA-[C] |==|  0.76123
USER: genes 7 Torsion [N]-CA--CB-[OG] |==|  0.11220
USER: genes 8 Torsion [CA]-CB--OG-[HG] |==|  0.24753
USER: genes 9 Torsion [N]-CA--C-[N] |==|  0.95557
USER: genes 10 Torsion [C]-N--CA-[C] |==|  0.68602
USER: genes 11 Torsion [N]-CA--C-[O] |==|  0.06712
USER: genes 12 Torsion [N]-CA--CB-[CG] |==|  0.67004
USER: genes 13 Torsion [CA]-CB--CG-[CD2] |==|  0.55045
USER: genes 14 Torsion [N]-CA--CB-[CG] |==|  0.91397
USER: genes 15 Torsion [CA]-CB--CG-[CD2] |==|  0.71943
USER: genes 16 Torsion [N]-CA--CB-[CG2] |==|  0.31399
USER: genes 17 Torsion [CA]-CB--CG1-[CD1] |==|  0.85318
USER: genes 18 Torsion [O]-C--CA-[CB] |==|  0.00384
USER: genes 19 Torsion [N]-C--CA-[N] |==|  0.11549
USER: genes 20 Torsion [C]-CA--CB-[CG] |==|  0.28733
USER: genes 21 Torsion [CA]-CB--CG-[CD] |==|  0.48724
USER: genes 22 Torsion [CB]-CG--CD-[NE] |==|  0.19578
USER: genes 23 Torsion [CG]-CD--NE-[CZ] |==|  0.54837
USER: genes 24 Torsion [C]-CA--N-[C] |==|  0.62759
USER: genes 25 Torsion [N]-C--CA-[N] |==|  0.69383
USER: genes 26 Torsion [C]-CA--CB-[CG] |==|  0.78136
USER: genes 27 Torsion [CA]-CB--CG-[ND2] |==|  0.81367
ROOT
ATOM      1  C   PRO C  36      50.905  55.308  13.958  1.00 34.41 LIG 0.24  C 
ATOM      2 O    PRO C  36      49.884  54.686  13.650  1.00 29.89 LIG-0.27  OA
ATOM      3  N   ILE C  37      51.198  55.663  15.206  1.00 30.61 LIG-0.35  N 
ATOM      4 H    ILE C  37      51.924  56.072  15.421  1.00 30.61 LIG 0.16  HD
ENDROOT
BRANCH 3 5
ATOM      5  CA  ILE C  37      50.318  55.394  16.335  1.00 31.48 LIG 0.18  C 
BRANCH 5 6
ATOM      6  C   ILE C  37      49.646  56.719  16.644  1.00 31.96 LIG 0.24  C 
ATOM      7 O    ILE C  37      48.531  56.752  17.166  1.00 31.93 LIG-0.27  OA
ATOM      8  N   LEU C  38      50.323  57.812  16.313  1.00 30.89 LIG-0.35  N 
ATOM      9 H    LEU C  38      51.084  57.807  15.912  1.00 30.89 LIG 0.16  HD
BRANCH 8 10
ATOM     10  CA  LEU C  38      49.805  59.137  16.616  1.00 34.88 LIG 0.18  C 
BRANCH 10 11
ATOM     11  C   LEU C  38      49.277  59.964  15.450  1.00 39.33 LIG 0.24  C 
ATOM     12 O    LEU C  38      48.297  60.697  15.579  1.00 37.11 LIG-0.27  OA
ATOM     13  N   SER C  39      49.947  59.833  14.308  1.00 40.29 LIG-0.34  N 
ATOM     14 H    SER C  39      50.651  59.346  14.224  1.00 40.29 LIG 0.16  HD
BRANCH 13 15
ATOM     15  CA  SER C  39      49.545  60.511  13.082  1.00 42.99 LIG 0.20  C 
BRANCH 15 16
ATOM     16  CB  SER C  39      50.736  60.688  12.134  1.00 41.70 LIG 0.20  C 
BRANCH 16 17
ATOM     17 OG   SER C  39      51.566  59.538  12.115  1.00 43.46 LIG-0.40  OA
ATOM     18 HG   SER C  39      51.294  59.005  11.525  1.00 43.46 LIG 0.21  HD
ENDBRANCH 16 17
ENDBRANCH 15 16
BRANCH 15 19
ATOM     19  C   SER C  39      48.517  59.581  12.447  1.00 43.99 LIG 0.24  C 
ATOM     20  N   LEU C  40      48.469  58.330  12.895  1.00 44.48 LIG-0.34  N 
ATOM     21 H    LEU C  40      48.978  58.018  13.515  1.00 44.48 LIG 0.16  HD
ATOM     22 O    SER C  39      47.777  59.998  11.555  1.00 44.86 LIG-0.27  OA
BRANCH 20 23
ATOM     23  CA  LEU C  40      47.518  57.370  12.348  1.00 50.99 LIG 0.18  C 
BRANCH 23 24
ATOM     24  C   LEU C  40      46.479  56.982  13.399  1.00 53.79 LIG 0.20  C 
ATOM     25 O    LEU C  40      46.258  57.785  14.332  1.00 58.34 LIG-0.65  OA
ATOM     26 OXT  LEU C  40      45.904  55.879  13.285  1.00 54.01 LIG-0.65  OA
ENDBRANCH 23 24
BRANCH 23 27
ATOM     27  CB  LEU C  40      48.264  56.125  11.860  1.00 48.71 LIG 0.04  C 
BRANCH 27 28
ATOM     28  CG  LEU C  40      48.182  55.752  10.379  1.00 48.98 LIG-0.02  C 
ATOM     29  CD2 LEU C  40      48.590  54.302  10.211  1.00 51.62 LIG 0.01  C 
ATOM     30  CD1 LEU C  40      49.092  56.655   9.560  1.00 51.55 LIG 0.01  C 
ENDBRANCH 27 28
ENDBRANCH 23 27
ENDBRANCH 20 23
ENDBRANCH 15 19
ENDBRANCH 13 15
ENDBRANCH 10 11
BRANCH 10 31
ATOM     31  CB  LEU C  38      50.878  59.938  17.349  1.00 30.69 LIG 0.04  C 
BRANCH 31 32
ATOM     32  CG  LEU C  38      51.831  59.122  18.225  1.00 36.50 LIG-0.02  C 
ATOM     33  CD2 LEU C  38      51.416  59.235  19.691  1.00 35.12 LIG 0.01  C 
ATOM     34  CD1 LEU C  38      53.255  59.625  18.026  1.00 37.99 LIG 0.01  C 
ENDBRANCH 31 32
ENDBRANCH 10 31
ENDBRANCH 8 10
ENDBRANCH 5 6
BRANCH 5 35
ATOM     35  CB  ILE C  37      51.122  54.938  17.561  1.00 37.32 LIG 0.01  C 
ATOM     36  CG2 ILE C  37      51.034  55.989  18.657  1.00 35.15 LIG 0.01  C 
BRANCH 35 37
ATOM     37  CG1 ILE C  37      50.595  53.585  18.041  1.00 33.54 LIG 0.00  C 
ATOM     38  CD1 ILE C  37      49.103  53.561  18.279  1.00 46.98 LIG 0.01  C 
ENDBRANCH 35 37
ENDBRANCH 5 35
ENDBRANCH 3 5
BRANCH 1 39
ATOM     39  CA  PRO C  36      51.935  55.708  12.903  1.00 32.35 LIG 0.18  C 
ATOM     40  CB  PRO C  36      51.520  55.279  11.495  1.00 32.18 LIG 0.04  C 
ATOM     41  CG  PRO C  36      52.200  53.954  11.327  1.00 32.63 LIG 0.02  C 
ATOM     42  CD  PRO C  36      53.562  54.193  11.935  1.00 32.64 LIG 0.13  C 
ATOM     43  N   PRO C  36      53.246  55.077  13.071  1.00 32.06 LIG-0.34  N 
ATOM     44  C   ARG C  35      54.000  55.378  14.134  1.00 32.74 LIG 0.24  C 
ATOM     45 O    ARG C  35      53.628  56.183  14.984  1.00 32.93 LIG-0.27  OA
BRANCH 44 46
ATOM     46  CA  ARG C  35      55.352  54.688  14.251  1.00 37.56 LIG 0.18  C 
BRANCH 46 47
ATOM     47  CB  ARG C  35      56.242  55.445  15.237  1.00 40.42 LIG 0.04  C 
BRANCH 47 48
ATOM     48  CG  ARG C  35      56.357  54.777  16.582  1.00 36.41 LIG 0.02  C 
BRANCH 48 49
ATOM     49  CD  ARG C  35      57.337  55.507  17.484  1.00 39.80 LIG 0.14  C 
BRANCH 49 50
ATOM     50  NE  ARG C  35      56.795  56.794  17.909  1.00 32.60 LIG-0.23  N 
ATOM     51 HE   ARG C  35      55.948  56.918  17.826  1.00 32.60 LIG 0.18  HD
ATOM     52  CZ  ARG C  35      57.519  57.787  18.413  1.00 32.33 LIG 0.67  C 
ATOM     53  NH2 ARG C  35      58.828  57.647  18.564  1.00 28.83 LIG-0.23  N 
ATOM     54  NH1 ARG C  35      56.928  58.920  18.768  1.00 30.81 LIG-0.23  N 
ATOM     55 2HH2 ARG C  35      59.294  58.292  18.891  1.00 28.83 LIG 0.17  HD
ATOM     56 1HH2 ARG C  35      59.212  56.912  18.335  1.00 28.83 LIG 0.17  HD
ATOM     57 1HH1 ARG C  35      56.078  59.010  18.672  1.00 30.81 LIG 0.17  HD
ATOM     58 2HH1 ARG C  35      57.394  59.564  19.095  1.00 30.81 LIG 0.17  HD
ENDBRANCH 49 50
ENDBRANCH 48 49
ENDBRANCH 47 48
ENDBRANCH 46 47
BRANCH 46 59
ATOM     59  N   ARG C  35      55.965  54.663  12.932  1.00 36.73 LIG-0.35  N 
ATOM     60  C   ASN C  34      56.527  53.551  12.470  1.00 40.82 LIG 0.26  C 
ATOM     61 O    ASN C  34      56.567  52.508  13.120  1.00 33.40 LIG-0.27  OA
ATOM     62 H    ARG C  35      55.928  55.407  12.500  1.00 36.73 LIG 0.16  HD
BRANCH 60 63
ATOM     63  CA  ASN C  34      57.130  53.623  11.072  1.00 41.08 LIG 0.41  C 
ATOM     64  N   ASN C  34      56.311  52.814  10.125  1.00 44.32 LIG 0.61  N 
BRANCH 63 65
ATOM     65  CB  ASN C  34      57.178  55.088  10.626  1.00 43.19 LIG 0.15  C 
BRANCH 65 66
ATOM     66  CG  ASN C  34      55.829  55.606  10.144  1.00 48.82 LIG 0.22  C 
ATOM     67  ND2 ASN C  34      55.351  55.079   9.021  1.00 46.77 LIG-0.37  N 
ATOM     68 21HD ASN C  34      54.591  55.338   8.713  1.00 46.77 LIG 0.16  HD
ATOM     69 22HD ASN C  34      55.803  54.479   8.601  1.00 46.77 LIG 0.16  HD
ATOM     70 OD1  ASN C  34      55.225  56.467  10.783  1.00 54.33 LIG-0.27  OA
ENDBRANCH 65 66
ENDBRANCH 63 65
ENDBRANCH 60 63
ENDBRANCH 46 59
ENDBRANCH 44 46
ENDBRANCH 1 39
TORSDOF 26
ENDMDL
MODEL 16
USER: ADFR SOLUTION from run 120
USER: SCORE 20.760957 LL:  -6.307 LR: -14.995 RR:   0.000 FEB:  -7.239
USER: RMSD 12.891660
USER: SEED 119
USER: STATUS searching
USER: GENES 28
USER: genes 0 Translation |==|  0.65374 0.55186 0.56880
USER: genes 1 Rotation |==|  0.37672 0.02220 0.55791 0.55621
USER: genes 2 Torsion [C]-N--CA-[C] |==|  0.68407
USER: genes 3 Torsion [N]-CA--C-[N] |==|  0.93497
USER: genes 4 Torsion [C]-N--CA-[C] |==|  0.77588
USER: genes 5 Torsion [N]-CA--C-[N] |==|  0.88682
USER: genes 6 Torsion [C]-N--CA-[C] |==|  0.76177
USER: genes 7 Torsion [N]-CA--CB-[OG] |==|  0.06758
USER: genes 8 Torsion [CA]-CB--OG-[HG] |==|  0.24402
USER: genes 9 Torsion [N]-CA--C-[N] |==|  0.96232
USER: genes 10 Torsion [C]-N--CA-[C] |==|  0.76545
USER: genes 11 Torsion [N]-CA--C-[O] |==|  0.51781
USER: genes 12 Torsion [N]-CA--CB-[CG] |==|  0.72686
USER: genes 13 Torsion [CA]-CB--CG-[CD2] |==|  0.10172
USER: genes 14 Torsion [N]-CA--CB-[CG] |==|  0.81356
USER: genes 15 Torsion [CA]-CB--CG-[CD2] |==|  0.24002
USER: genes 16 Torsion [N]-CA--CB-[CG2] |==|  0.25371
USER: genes 17 Torsion [CA]-CB--CG1-[CD1] |==|  0.73668
USER: genes 18 Torsion [O]-C--CA-[CB] |==|  0.17119
USER: genes 19 Torsion [N]-C--CA-[N] |==|  0.46383
USER: genes 20 Torsion [C]-CA--CB-[CG] |==|  0.43791
USER: genes 21 Torsion [CA]-CB--CG-[CD] |==|  0.81555
USER: genes 22 Torsion [CB]-CG--CD-[NE] |==|  0.70049
USER: genes 23 Torsion [CG]-CD--NE-[CZ] |==|  0.71160
USER: genes 24 Torsion [C]-CA--N-[C] |==|  0.76778
USER: genes 25 Torsion [N]-C--CA-[N] |==|  0.79528
USER: genes 26 Torsion [C]-CA--CB-[CG] |==|  0.56432
USER: genes 27 Torsion [CA]-CB--CG-[ND2] |==|  0.75061
ROOT
ATOM      1  C   PRO C  36      52.396  56.013  14.327  1.00 34.41 LIG 0.24  C 
ATOM      2 O    PRO C  36      51.807  55.256  13.549  1.00 29.89 LIG-0.27  OA
ATOM      3  N   ILE C  37      52.025  56.196  15.591  1.00 30.61 LIG-0.35  N 
ATOM      4 H    ILE C  37      52.453  56.702  16.140  1.00 30.61 LIG 0.16  HD
ENDROOT
BRANCH 3 5
ATOM      5  CA  ILE C  37      50.854  55.556  16.175  1.00 31.48 LIG 0.18  C 
BRANCH 5 6
ATOM      6  C   ILE C  37      49.888  56.687  16.478  1.00 31.96 LIG 0.24  C 
ATOM      7 O    ILE C  37      48.677  56.475  16.562  1.00 31.93 LIG-0.27  OA
ATOM      8  N   LEU C  38      50.424  57.892  16.631  1.00 30.89 LIG-0.35  N 
ATOM      9 H    LEU C  38      51.261  58.064  16.536  1.00 30.89 LIG 0.16  HD
BRANCH 8 10
ATOM     10  CA  LEU C  38      49.603  59.040  16.983  1.00 34.88 LIG 0.18  C 
BRANCH 10 11
ATOM     11  C   LEU C  38      48.831  59.718  15.856  1.00 39.33 LIG 0.24  C 
ATOM     12 O    LEU C  38      47.677  60.113  16.021  1.00 37.11 LIG-0.27  OA
ATOM     13  N   SER C  39      49.492  59.846  14.709  1.00 40.29 LIG-0.34  N 
ATOM     14 H    SER C  39      50.309  59.600  14.602  1.00 40.29 LIG 0.16  HD
BRANCH 13 15
ATOM     15  CA  SER C  39      48.884  60.423  13.517  1.00 42.99 LIG 0.20  C 
BRANCH 15 16
ATOM     16  CB  SER C  39      49.951  60.990  12.573  1.00 41.70 LIG 0.20  C 
BRANCH 16 17
ATOM     17 OG   SER C  39      51.209  60.366  12.769  1.00 43.46 LIG-0.40  OA
ATOM     18 HG   SER C  39      51.258  59.678  12.288  1.00 43.46 LIG 0.21  HD
ENDBRANCH 16 17
ENDBRANCH 15 16
BRANCH 15 19
ATOM     19  C   SER C  39      48.173  59.254  12.843  1.00 43.99 LIG 0.24  C 
ATOM     20  N   LEU C  40      48.474  58.032  13.268  1.00 44.48 LIG-0.34  N 
ATOM     21 H    LEU C  40      49.040  57.863  13.894  1.00 44.48 LIG 0.16  HD
ATOM     22 O    SER C  39      47.360  59.465  11.942  1.00 44.86 LIG-0.27  OA
BRANCH 20 23
ATOM     23  CA  LEU C  40      47.844  56.855  12.684  1.00 50.99 LIG 0.18  C 
BRANCH 23 24
ATOM     24  C   LEU C  40      46.495  56.580  13.348  1.00 53.79 LIG 0.20  C 
ATOM     25 O    LEU C  40      45.890  55.530  13.037  1.00 58.34 LIG-0.65  OA
ATOM     26 OXT  LEU C  40      46.053  57.417  14.162  1.00 54.01 LIG-0.65  OA
ENDBRANCH 23 24
BRANCH 23 27
ATOM     27  CB  LEU C  40      48.766  55.642  12.844  1.00 48.71 LIG 0.04  C 
BRANCH 27 28
ATOM     28  CG  LEU C  40      49.643  55.226  11.663  1.00 48.98 LIG-0.02  C 
ATOM     29  CD2 LEU C  40      50.123  56.469  10.940  1.00 51.62 LIG 0.01  C 
ATOM     30  CD1 LEU C  40      48.856  54.335  10.714  1.00 51.55 LIG 0.01  C 
ENDBRANCH 27 28
ENDBRANCH 23 27
ENDBRANCH 20 23
ENDBRANCH 15 19
ENDBRANCH 13 15
ENDBRANCH 10 11
BRANCH 10 31
ATOM     31  CB  LEU C  38      50.472  60.079  17.687  1.00 30.69 LIG 0.04  C 
BRANCH 31 32
ATOM     32  CG  LEU C  38      51.006  59.673  19.062  1.00 36.50 LIG-0.02  C 
ATOM     33  CD2 LEU C  38      52.313  58.899  18.905  1.00 35.12 LIG 0.01  C 
ATOM     34  CD1 LEU C  38      49.961  58.829  19.780  1.00 37.99 LIG 0.01  C 
ENDBRANCH 31 32
ENDBRANCH 10 31
ENDBRANCH 8 10
ENDBRANCH 5 6
BRANCH 5 35
ATOM     35  CB  ILE C  37      51.214  54.839  17.484  1.00 37.32 LIG 0.01  C 
ATOM     36  CG2 ILE C  37      51.018  55.780  18.662  1.00 35.15 LIG 0.01  C 
BRANCH 35 37
ATOM     37  CG1 ILE C  37      50.360  53.579  17.627  1.00 33.54 LIG 0.00  C 
ATOM     38  CD1 ILE C  37      49.108  53.781  18.449  1.00 46.98 LIG 0.01  C 
ENDBRANCH 35 37
ENDBRANCH 5 35
ENDBRANCH 3 5
BRANCH 1 39
ATOM     39  CA  PRO C  36      53.631  56.796  13.886  1.00 32.35 LIG 0.18  C 
ATOM     40  CB  PRO C  36      53.327  57.762  12.740  1.00 32.18 LIG 0.04  C 
ATOM     41  CG  PRO C  36      53.678  56.966  11.520  1.00 32.63 LIG 0.02  C 
ATOM     42  CD  PRO C  36      54.958  56.271  11.925  1.00 32.64 LIG 0.13  C 
ATOM     43  N   PRO C  36      54.710  55.966  13.345  1.00 32.06 LIG-0.34  N 
ATOM     44  C   ARG C  35      55.357  55.109  14.144  1.00 32.74 LIG 0.24  C 
ATOM     45 O    ARG C  35      55.077  54.998  15.335  1.00 32.93 LIG-0.27  OA
BRANCH 44 46
ATOM     46  CA  ARG C  35      56.468  54.276  13.522  1.00 37.56 LIG 0.18  C 
BRANCH 46 47
ATOM     47  CB  ARG C  35      55.872  53.204  12.610  1.00 40.42 LIG 0.04  C 
BRANCH 47 48
ATOM     48  CG  ARG C  35      56.832  52.695  11.567  1.00 36.41 LIG 0.02  C 
BRANCH 48 49
ATOM     49  CD  ARG C  35      57.185  53.776  10.560  1.00 39.80 LIG 0.14  C 
BRANCH 49 50
ATOM     50  NE  ARG C  35      56.553  53.513   9.271  1.00 32.60 LIG-0.23  N 
ATOM     51 HE   ARG C  35      55.713  53.679   9.196  1.00 32.60 LIG 0.18  HD
ATOM     52  CZ  ARG C  35      57.187  53.034   8.206  1.00 32.33 LIG 0.67  C 
ATOM     53  NH2 ARG C  35      58.483  52.763   8.267  1.00 28.83 LIG-0.23  N 
ATOM     54  NH1 ARG C  35      56.519  52.829   7.079  1.00 30.81 LIG-0.23  N 
ATOM     55 2HH2 ARG C  35      58.890  52.454   7.576  1.00 28.83 LIG 0.17  HD
ATOM     56 1HH2 ARG C  35      58.916  52.898   8.997  1.00 28.83 LIG 0.17  HD
ATOM     57 1HH1 ARG C  35      55.678  53.006   7.039  1.00 30.81 LIG 0.17  HD
ATOM     58 2HH1 ARG C  35      56.926  52.520   6.388  1.00 30.81 LIG 0.17  HD
ENDBRANCH 49 50
ENDBRANCH 48 49
ENDBRANCH 47 48
ENDBRANCH 46 47
BRANCH 46 59
ATOM     59  N   ARG C  35      57.230  53.660  14.598  1.00 36.73 LIG-0.35  N 
ATOM     60  C   ASN C  34      58.198  54.332  15.210  1.00 40.82 LIG 0.26  C 
ATOM     61 O    ASN C  34      58.504  55.483  14.903  1.00 33.40 LIG-0.27  OA
ATOM     62 H    ARG C  35      57.000  52.853  14.789  1.00 36.73 LIG 0.16  HD
BRANCH 60 63
ATOM     63  CA  ASN C  34      58.928  53.604  16.333  1.00 41.08 LIG 0.41  C 
ATOM     64  N   ASN C  34      58.053  53.522  17.537  1.00 44.32 LIG 0.61  N 
BRANCH 63 65
ATOM     65  CB  ASN C  34      59.311  52.202  15.849  1.00 43.19 LIG 0.15  C 
BRANCH 65 66
ATOM     66  CG  ASN C  34      59.521  51.217  16.991  1.00 48.82 LIG 0.22  C 
ATOM     67  ND2 ASN C  34      60.751  51.130  17.490  1.00 46.77 LIG-0.37  N 
ATOM     68 21HD ASN C  34      60.915  50.590  18.138  1.00 46.77 LIG 0.16  HD
ATOM     69 22HD ASN C  34      61.383  51.614  17.162  1.00 46.77 LIG 0.16  HD
ATOM     70 OD1  ASN C  34      58.582  50.547  17.422  1.00 54.33 LIG-0.27  OA
ENDBRANCH 65 66
ENDBRANCH 63 65
ENDBRANCH 60 63
ENDBRANCH 46 59
ENDBRANCH 44 46
ENDBRANCH 1 39
TORSDOF 26
ENDMDL
MODEL 17
USER: ADFR SOLUTION from run 187
USER: SCORE 18.682776 LL:  -5.127 LR: -14.985 RR:   0.000 FEB:  -7.229
USER: RMSD 12.583082
USER: SEED 186
USER: STATUS no improvement in best in 43 clusters for 5 generations
USER: GENES 28
USER: genes 0 Translation |==|  0.53730 0.55674 0.60132
USER: genes 1 Rotation |==|  0.51662 0.37441 0.01736 0.53170
USER: genes 2 Torsion [C]-N--CA-[C] |==|  0.61794
USER: genes 3 Torsion [N]-CA--C-[N] |==|  0.76757
USER: genes 4 Torsion [C]-N--CA-[C] |==|  0.53582
USER: genes 5 Torsion [N]-CA--C-[N] |==|  0.36816
USER: genes 6 Torsion [C]-N--CA-[C] |==|  0.65727
USER: genes 7 Torsion [N]-CA--CB-[OG] |==|  0.64681
USER: genes 8 Torsion [CA]-CB--OG-[HG] |==|  0.41848
USER: genes 9 Torsion [N]-CA--C-[N] |==|  0.01141
USER: genes 10 Torsion [C]-N--CA-[C] |==|  0.70612
USER: genes 11 Torsion [N]-CA--C-[O] |==|  0.19383
USER: genes 12 Torsion [N]-CA--CB-[CG] |==|  0.78270
USER: genes 13 Torsion [CA]-CB--CG-[CD2] |==|  0.93378
USER: genes 14 Torsion [N]-CA--CB-[CG] |==|  0.50403
USER: genes 15 Torsion [CA]-CB--CG-[CD2] |==|  0.67547
USER: genes 16 Torsion [N]-CA--CB-[CG2] |==|  0.70616
USER: genes 17 Torsion [CA]-CB--CG1-[CD1] |==|  0.33144
USER: genes 18 Torsion [O]-C--CA-[CB] |==|  0.11103
USER: genes 19 Torsion [N]-C--CA-[N] |==|  0.45803
USER: genes 20 Torsion [C]-CA--CB-[CG] |==|  0.31108
USER: genes 21 Torsion [CA]-CB--CG-[CD] |==|  0.12940
USER: genes 22 Torsion [CB]-CG--CD-[NE] |==|  0.51111
USER: genes 23 Torsion [CG]-CD--NE-[CZ] |==|  0.56578
USER: genes 24 Torsion [C]-CA--N-[C] |==|  0.61060
USER: genes 25 Torsion [N]-C--CA-[N] |==|  0.22210
USER: genes 26 Torsion [C]-CA--CB-[CG] |==|  0.60259
USER: genes 27 Torsion [CA]-CB--CG-[ND2] |==|  0.83857
ROOT
ATOM      1  C   PRO C  36      48.728  56.100  14.937  1.00 34.41 LIG 0.24  C 
ATOM      2 O    PRO C  36      48.554  57.190  15.490  1.00 29.89 LIG-0.27  OA
ATOM      3  N   ILE C  37      48.198  55.785  13.758  1.00 30.61 LIG-0.35  N 
ATOM      4 H    ILE C  37      48.343  55.035  13.362  1.00 30.61 LIG 0.16  HD
ENDROOT
BRANCH 3 5
ATOM      5  CA  ILE C  37      47.315  56.678  13.020  1.00 31.48 LIG 0.18  C 
BRANCH 5 6
ATOM      6  C   ILE C  37      46.202  55.793  12.489  1.00 31.96 LIG 0.24  C 
ATOM      7 O    ILE C  37      45.137  55.687  13.101  1.00 31.93 LIG-0.27  OA
ATOM      8  N   LEU C  38      46.452  55.151  11.356  1.00 30.89 LIG-0.35  N 
ATOM      9 H    LEU C  38      47.204  55.182  10.938  1.00 30.89 LIG 0.16  HD
BRANCH 8 10
ATOM     10  CA  LEU C  38      45.439  54.322  10.721  1.00 34.88 LIG 0.18  C 
BRANCH 10 11
ATOM     11  C   LEU C  38      45.896  53.392   9.603  1.00 39.33 LIG 0.24  C 
ATOM     12 O    LEU C  38      46.626  53.795   8.697  1.00 37.11 LIG-0.27  OA
ATOM     13  N   SER C  39      45.456  52.140   9.687  1.00 40.29 LIG-0.34  N 
ATOM     14 H    SER C  39      44.973  51.850  10.337  1.00 40.29 LIG 0.16  HD
BRANCH 13 15
ATOM     15  CA  SER C  39      45.756  51.136   8.675  1.00 42.99 LIG 0.20  C 
BRANCH 15 16
ATOM     16  CB  SER C  39      46.554  49.972   9.272  1.00 41.70 LIG 0.20  C 
BRANCH 16 17
ATOM     17 OG   SER C  39      47.740  49.716   8.537  1.00 43.46 LIG-0.40  OA
ATOM     18 HG   SER C  39      48.325  49.400   9.050  1.00 43.46 LIG 0.21  HD
ENDBRANCH 16 17
ENDBRANCH 15 16
BRANCH 15 19
ATOM     19  C   SER C  39      44.392  50.637   8.210  1.00 43.99 LIG 0.24  C 
ATOM     20  N   LEU C  40      43.320  51.237   8.718  1.00 44.48 LIG-0.34  N 
ATOM     21 H    LEU C  40      43.350  51.882   9.287  1.00 44.48 LIG 0.16  HD
ATOM     22 O    SER C  39      44.317  49.714   7.400  1.00 44.86 LIG-0.27  OA
BRANCH 20 23
ATOM     23  CA  LEU C  40      41.975  50.828   8.332  1.00 50.99 LIG 0.18  C 
BRANCH 23 24
ATOM     24  C   LEU C  40      41.347  51.857   7.393  1.00 53.79 LIG 0.20  C 
ATOM     25 O    LEU C  40      41.812  51.957   6.236  1.00 58.34 LIG-0.65  OA
ATOM     26 OXT  LEU C  40      40.408  52.558   7.823  1.00 54.01 LIG-0.65  OA
ENDBRANCH 23 24
BRANCH 23 27
ATOM     27  CB  LEU C  40      41.107  50.660   9.583  1.00 48.71 LIG 0.04  C 
BRANCH 27 28
ATOM     28  CG  LEU C  40      41.264  49.390  10.420  1.00 48.98 LIG-0.02  C 
ATOM     29  CD2 LEU C  40      41.827  48.287   9.545  1.00 51.62 LIG 0.01  C 
ATOM     30  CD1 LEU C  40      39.919  48.972  10.996  1.00 51.55 LIG 0.01  C 
ENDBRANCH 27 28
ENDBRANCH 23 27
ENDBRANCH 20 23
ENDBRANCH 15 19
ENDBRANCH 13 15
ENDBRANCH 10 11
BRANCH 10 31
ATOM     31  CB  LEU C  38      44.317  55.216  10.199  1.00 30.69 LIG 0.04  C 
BRANCH 31 32
ATOM     32  CG  LEU C  38      43.149  54.489   9.530  1.00 36.50 LIG-0.02  C 
ATOM     33  CD2 LEU C  38      43.055  54.896   8.060  1.00 35.12 LIG 0.01  C 
ATOM     34  CD1 LEU C  38      41.858  54.825  10.266  1.00 37.99 LIG 0.01  C 
ENDBRANCH 31 32
ENDBRANCH 10 31
ENDBRANCH 8 10
ENDBRANCH 5 6
BRANCH 5 35
ATOM     35  CB  ILE C  37      48.051  57.325  11.838  1.00 37.32 LIG 0.01  C 
ATOM     36  CG2 ILE C  37      48.357  58.781  12.153  1.00 35.15 LIG 0.01  C 
BRANCH 35 37
ATOM     37  CG1 ILE C  37      49.327  56.538  11.540  1.00 33.54 LIG 0.00  C 
ATOM     38  CD1 ILE C  37      49.368  55.947  10.149  1.00 46.98 LIG 0.01  C 
ENDBRANCH 35 37
ENDBRANCH 5 35
ENDBRANCH 3 5
BRANCH 1 39
ATOM     39  CA  PRO C  36      49.601  55.020  15.574  1.00 32.35 LIG 0.18  C 
ATOM     40  CB  PRO C  36      49.400  54.930  17.087  1.00 32.18 LIG 0.04  C 
ATOM     41  CG  PRO C  36      50.489  55.806  17.628  1.00 32.63 LIG 0.02  C 
ATOM     42  CD  PRO C  36      51.672  55.454  16.757  1.00 32.64 LIG 0.13  C 
ATOM     43  N   PRO C  36      51.041  55.252  15.441  1.00 32.06 LIG-0.34  N 
ATOM     44  C   ARG C  35      51.615  55.211  14.234  1.00 32.74 LIG 0.24  C 
ATOM     45 O    ARG C  35      50.966  54.975  13.216  1.00 32.93 LIG-0.27  OA
BRANCH 44 46
ATOM     46  CA  ARG C  35      53.115  55.461  14.162  1.00 37.56 LIG 0.18  C 
BRANCH 46 47
ATOM     47  CB  ARG C  35      53.409  56.947  14.365  1.00 40.42 LIG 0.04  C 
BRANCH 47 48
ATOM     48  CG  ARG C  35      54.122  57.251  15.655  1.00 36.41 LIG 0.02  C 
BRANCH 48 49
ATOM     49  CD  ARG C  35      55.287  56.304  15.884  1.00 39.80 LIG 0.14  C 
BRANCH 49 50
ATOM     50  NE  ARG C  35      55.910  56.549  17.181  1.00 32.60 LIG-0.23  N 
ATOM     51 HE   ARG C  35      55.433  56.924  17.790  1.00 32.60 LIG 0.18  HD
ATOM     52  CZ  ARG C  35      57.164  56.233  17.487  1.00 32.33 LIG 0.67  C 
ATOM     53  NH2 ARG C  35      57.943  55.651  16.586  1.00 28.83 LIG-0.23  N 
ATOM     54  NH1 ARG C  35      57.635  56.500  18.697  1.00 30.81 LIG-0.23  N 
ATOM     55 2HH2 ARG C  35      58.754  55.448  16.787  1.00 28.83 LIG 0.17  HD
ATOM     56 1HH2 ARG C  35      57.637  55.477  15.802  1.00 28.83 LIG 0.17  HD
ATOM     57 1HH1 ARG C  35      57.129  56.877  19.282  1.00 30.81 LIG 0.17  HD
ATOM     58 2HH1 ARG C  35      58.446  56.297  18.898  1.00 30.81 LIG 0.17  HD
ENDBRANCH 49 50
ENDBRANCH 48 49
ENDBRANCH 47 48
ENDBRANCH 46 47
BRANCH 46 59
ATOM     59  N   ARG C  35      53.586  55.023  12.857  1.00 36.73 LIG-0.35  N 
ATOM     60  C   ASN C  34      54.747  54.389  12.736  1.00 40.82 LIG 0.26  C 
ATOM     61 O    ASN C  34      55.475  54.148  13.698  1.00 33.40 LIG-0.27  OA
ATOM     62 H    ARG C  35      53.061  55.209  12.201  1.00 36.73 LIG 0.16  HD
BRANCH 60 63
ATOM     63  CA  ASN C  34      55.146  53.960  11.329  1.00 41.08 LIG 0.41  C 
ATOM     64  N   ASN C  34      55.713  55.121  10.587  1.00 44.32 LIG 0.61  N 
BRANCH 63 65
ATOM     65  CB  ASN C  34      56.176  52.829  11.428  1.00 43.19 LIG 0.15  C 
BRANCH 65 66
ATOM     66  CG  ASN C  34      57.250  52.909  10.352  1.00 48.82 LIG 0.22  C 
ATOM     67  ND2 ASN C  34      56.834  52.886   9.088  1.00 46.77 LIG-0.37  N 
ATOM     68 21HD ASN C  34      57.405  52.933   8.447  1.00 46.77 LIG 0.16  HD
ATOM     69 22HD ASN C  34      55.995  52.824   8.913  1.00 46.77 LIG 0.16  HD
ATOM     70 OD1  ASN C  34      58.438  52.996  10.658  1.00 54.33 LIG-0.27  OA
ENDBRANCH 65 66
ENDBRANCH 63 65
ENDBRANCH 60 63
ENDBRANCH 46 59
ENDBRANCH 44 46
ENDBRANCH 1 39
TORSDOF 26
ENDMDL
MODEL 18
USER: ADFR SOLUTION from run 167
USER: SCORE 18.893761 LL:  -5.132 LR: -14.980 RR:   0.000 FEB:  -7.225
USER: RMSD 8.827987
USER: SEED 166
USER: STATUS no improvement in best in 9 clusters for 5 generations
USER: GENES 28
USER: genes 0 Translation |==|  0.61844 0.53453 0.53293
USER: genes 1 Rotation |==|  0.10272 0.26536 0.60431 0.66195
USER: genes 2 Torsion [C]-N--CA-[C] |==|  0.66849
USER: genes 3 Torsion [N]-CA--C-[N] |==|  0.61513
USER: genes 4 Torsion [C]-N--CA-[C] |==|  0.76453
USER: genes 5 Torsion [N]-CA--C-[N] |==|  0.87227
USER: genes 6 Torsion [C]-N--CA-[C] |==|  0.70227
USER: genes 7 Torsion [N]-CA--CB-[OG] |==|  0.27806
USER: genes 8 Torsion [CA]-CB--OG-[HG] |==|  0.27310
USER: genes 9 Torsion [N]-CA--C-[N] |==|  0.39206
USER: genes 10 Torsion [C]-N--CA-[C] |==|  0.17023
USER: genes 11 Torsion [N]-CA--C-[O] |==|  0.53523
USER: genes 12 Torsion [N]-CA--CB-[CG] |==|  0.60606
USER: genes 13 Torsion [CA]-CB--CG-[CD2] |==|  0.53627
USER: genes 14 Torsion [N]-CA--CB-[CG] |==|  0.11765
USER: genes 15 Torsion [CA]-CB--CG-[CD2] |==|  0.72527
USER: genes 16 Torsion [N]-CA--CB-[CG2] |==|  0.58709
USER: genes 17 Torsion [CA]-CB--CG1-[CD1] |==|  0.56434
USER: genes 18 Torsion [O]-C--CA-[CB] |==|  0.41304
USER: genes 19 Torsion [N]-C--CA-[N] |==|  0.46591
USER: genes 20 Torsion [C]-CA--CB-[CG] |==|  0.37467
USER: genes 21 Torsion [CA]-CB--CG-[CD] |==|  0.00475
USER: genes 22 Torsion [CB]-CG--CD-[NE] |==|  0.70563
USER: genes 23 Torsion [CG]-CD--NE-[CZ] |==|  0.81510
USER: genes 24 Torsion [C]-CA--N-[C] |==|  0.65434
USER: genes 25 Torsion [N]-C--CA-[N] |==|  0.47736
USER: genes 26 Torsion [C]-CA--CB-[CG] |==|  0.71949
USER: genes 27 Torsion [CA]-CB--CG-[ND2] |==|  0.64961
ROOT
ATOM      1  C   PRO C  36      51.284  55.700  13.654  1.00 34.41 LIG 0.24  C 
ATOM      2 O    PRO C  36      50.213  56.271  13.426  1.00 29.89 LIG-0.27  OA
ATOM      3  N   ILE C  37      52.068  56.001  14.686  1.00 30.61 LIG-0.35  N 
ATOM      4 H    ILE C  37      52.800  55.583  14.859  1.00 30.61 LIG 0.16  HD
ENDROOT
BRANCH 3 5
ATOM      5  CA  ILE C  37      51.766  57.070  15.628  1.00 31.48 LIG 0.18  C 
BRANCH 5 6
ATOM      6  C   ILE C  37      52.928  58.041  15.519  1.00 31.96 LIG 0.24  C 
ATOM      7 O    ILE C  37      53.413  58.320  14.422  1.00 31.93 LIG-0.27  OA
ATOM      8  N   LEU C  38      53.379  58.547  16.660  1.00 30.89 LIG-0.35  N 
ATOM      9 H    LEU C  38      53.078  58.332  17.437  1.00 30.89 LIG 0.16  HD
BRANCH 8 10
ATOM     10  CA  LEU C  38      54.448  59.533  16.674  1.00 34.88 LIG 0.18  C 
BRANCH 10 11
ATOM     11  C   LEU C  38      55.880  59.011  16.636  1.00 39.33 LIG 0.24  C 
ATOM     12 O    LEU C  38      56.719  59.503  15.883  1.00 37.11 LIG-0.27  OA
ATOM     13  N   SER C  39      56.142  58.005  17.466  1.00 40.29 LIG-0.34  N 
ATOM     14 H    SER C  39      55.565  57.680  18.016  1.00 40.29 LIG 0.16  HD
BRANCH 13 15
ATOM     15  CA  SER C  39      57.445  57.353  17.519  1.00 42.99 LIG 0.20  C 
BRANCH 15 16
ATOM     16  CB  SER C  39      57.904  57.157  18.969  1.00 41.70 LIG 0.20  C 
BRANCH 16 17
ATOM     17 OG   SER C  39      57.675  55.831  19.416  1.00 43.46 LIG-0.40  OA
ATOM     18 HG   SER C  39      58.385  55.387  19.353  1.00 43.46 LIG 0.21  HD
ENDBRANCH 16 17
ENDBRANCH 15 16
BRANCH 15 19
ATOM     19  C   SER C  39      57.223  55.995  16.863  1.00 43.99 LIG 0.24  C 
ATOM     20  N   LEU C  40      58.192  55.532  16.079  1.00 44.48 LIG-0.34  N 
ATOM     21 H    LEU C  40      58.928  55.950  15.922  1.00 44.48 LIG 0.16  HD
ATOM     22 O    SER C  39      56.178  55.376  17.067  1.00 44.86 LIG-0.27  OA
BRANCH 20 23
ATOM     23  CA  LEU C  40      58.069  54.243  15.410  1.00 50.99 LIG 0.18  C 
BRANCH 23 24
ATOM     24  C   LEU C  40      56.873  54.241  14.459  1.00 53.79 LIG 0.20  C 
ATOM     25 O    LEU C  40      56.490  53.143  13.997  1.00 58.34 LIG-0.65  OA
ATOM     26 OXT  LEU C  40      56.337  55.334  14.177  1.00 54.01 LIG-0.65  OA
ENDBRANCH 23 24
BRANCH 23 27
ATOM     27  CB  LEU C  40      57.911  53.133  16.455  1.00 48.71 LIG 0.04  C 
BRANCH 27 28
ATOM     28  CG  LEU C  40      58.603  51.792  16.211  1.00 48.98 LIG-0.02  C 
ATOM     29  CD2 LEU C  40      58.055  50.767  17.184  1.00 51.62 LIG 0.01  C 
ATOM     30  CD1 LEU C  40      60.107  51.937  16.391  1.00 51.55 LIG 0.01  C 
ENDBRANCH 27 28
ENDBRANCH 23 27
ENDBRANCH 20 23
ENDBRANCH 15 19
ENDBRANCH 13 15
ENDBRANCH 10 11
BRANCH 10 31
ATOM     31  CB  LEU C  38      54.280  60.437  17.891  1.00 30.69 LIG 0.04  C 
BRANCH 31 32
ATOM     32  CG  LEU C  38      53.900  59.730  19.194  1.00 36.50 LIG-0.02  C 
ATOM     33  CD2 LEU C  38      52.396  59.848  19.432  1.00 35.12 LIG 0.01  C 
ATOM     34  CD1 LEU C  38      54.679  60.348  20.349  1.00 37.99 LIG 0.01  C 
ENDBRANCH 31 32
ENDBRANCH 10 31
ENDBRANCH 8 10
ENDBRANCH 5 6
BRANCH 5 35
ATOM     35  CB  ILE C  37      51.691  56.533  17.064  1.00 37.32 LIG 0.01  C 
ATOM     36  CG2 ILE C  37      50.690  57.346  17.870  1.00 35.15 LIG 0.01  C 
BRANCH 35 37
ATOM     37  CG1 ILE C  37      51.315  55.052  17.035  1.00 33.54 LIG 0.00  C 
ATOM     38  CD1 ILE C  37      50.683  54.558  18.317  1.00 46.98 LIG 0.01  C 
ENDBRANCH 35 37
ENDBRANCH 5 35
ENDBRANCH 3 5
BRANCH 1 39
ATOM     39  CA  PRO C  36      51.785  54.570  12.757  1.00 32.35 LIG 0.18  C 
ATOM     40  CB  PRO C  36      53.312  54.520  12.687  1.00 32.18 LIG 0.04  C 
ATOM     41  CG  PRO C  36      53.624  55.323  11.461  1.00 32.63 LIG 0.02  C 
ATOM     42  CD  PRO C  36      52.565  54.872  10.481  1.00 32.64 LIG 0.13  C 
ATOM     43  N   PRO C  36      51.390  54.695  11.352  1.00 32.06 LIG-0.34  N 
ATOM     44  C   ARG C  35      50.101  54.594  11.010  1.00 32.74 LIG 0.24  C 
ATOM     45 O    ARG C  35      49.224  54.389  11.846  1.00 32.93 LIG-0.27  OA
BRANCH 44 46
ATOM     46  CA  ARG C  35      49.755  54.732   9.534  1.00 37.56 LIG 0.18  C 
BRANCH 46 47
ATOM     47  CB  ARG C  35      49.927  56.185   9.090  1.00 40.42 LIG 0.04  C 
BRANCH 47 48
ATOM     48  CG  ARG C  35      50.650  56.334   7.778  1.00 36.41 LIG 0.02  C 
BRANCH 48 49
ATOM     49  CD  ARG C  35      51.005  54.984   7.181  1.00 39.80 LIG 0.14  C 
BRANCH 49 50
ATOM     50  NE  ARG C  35      52.433  54.713   7.318  1.00 32.60 LIG-0.23  N 
ATOM     51 HE   ARG C  35      52.670  54.069   7.835  1.00 32.60 LIG 0.18  HD
ATOM     52  CZ  ARG C  35      53.391  55.394   6.699  1.00 32.33 LIG 0.67  C 
ATOM     53  NH2 ARG C  35      53.080  56.396   5.889  1.00 28.83 LIG-0.23  N 
ATOM     54  NH1 ARG C  35      54.662  55.068   6.892  1.00 30.81 LIG-0.23  N 
ATOM     55 2HH2 ARG C  35      53.702  56.834   5.489  1.00 28.83 LIG 0.17  HD
ATOM     56 1HH2 ARG C  35      52.256  56.607   5.762  1.00 28.83 LIG 0.17  HD
ATOM     57 1HH1 ARG C  35      54.863  54.417   7.417  1.00 30.81 LIG 0.17  HD
ATOM     58 2HH1 ARG C  35      55.284  55.507   6.493  1.00 30.81 LIG 0.17  HD
ENDBRANCH 49 50
ENDBRANCH 48 49
ENDBRANCH 47 48
ENDBRANCH 46 47
BRANCH 46 59
ATOM     59  N   ARG C  35      48.377  54.304   9.349  1.00 36.73 LIG-0.35  N 
ATOM     60  C   ASN C  34      48.079  53.347   8.477  1.00 40.82 LIG 0.26  C 
ATOM     61 O    ASN C  34      48.931  52.787   7.788  1.00 33.40 LIG-0.27  OA
ATOM     62 H    ARG C  35      47.801  54.715   9.838  1.00 36.73 LIG 0.16  HD
BRANCH 60 63
ATOM     63  CA  ASN C  34      46.609  52.961   8.366  1.00 41.08 LIG 0.41  C 
ATOM     64  N   ASN C  34      46.415  52.027   7.221  1.00 44.32 LIG 0.61  N 
BRANCH 63 65
ATOM     65  CB  ASN C  34      46.168  52.302   9.678  1.00 43.19 LIG 0.15  C 
BRANCH 65 66
ATOM     66  CG  ASN C  34      46.112  50.783   9.590  1.00 48.82 LIG 0.22  C 
ATOM     67  ND2 ASN C  34      44.967  50.204   9.940  1.00 46.77 LIG-0.37  N 
ATOM     68 21HD ASN C  34      44.888  49.349   9.903  1.00 46.77 LIG 0.16  HD
ATOM     69 22HD ASN C  34      44.306  50.685  10.206  1.00 46.77 LIG 0.16  HD
ATOM     70 OD1  ASN C  34      47.089  50.142   9.204  1.00 54.33 LIG-0.27  OA
ENDBRANCH 65 66
ENDBRANCH 63 65
ENDBRANCH 60 63
ENDBRANCH 46 59
ENDBRANCH 44 46
ENDBRANCH 1 39
TORSDOF 26
ENDMDL
MODEL 19
USER: ADFR SOLUTION from run 16
USER: SCORE 20.455299 LL:  -6.547 LR: -14.957 RR:   0.000 FEB:  -7.201
USER: RMSD 12.485333
USER: SEED 371560
USER: STATUS no improvement in best in 4 clusters for 5 generations
USER: GENES 28
USER: genes 0 Translation |==|  0.68149 0.58944 0.54134
USER: genes 1 Rotation |==|  0.13656 0.25819 0.44223 0.73686
USER: genes 2 Torsion [C]-N--CA-[C] |==|  0.16104
USER: genes 3 Torsion [N]-CA--C-[N] |==|  0.17778
USER: genes 4 Torsion [C]-N--CA-[C] |==|  0.15878
USER: genes 5 Torsion [N]-CA--C-[N] |==|  0.13562
USER: genes 6 Torsion [C]-N--CA-[C] |==|  0.63618
USER: genes 7 Torsion [N]-CA--CB-[OG] |==|  0.83136
USER: genes 8 Torsion [CA]-CB--OG-[HG] |==|  0.22956
USER: genes 9 Torsion [N]-CA--C-[N] |==|  0.41486
USER: genes 10 Torsion [C]-N--CA-[C] |==|  0.60129
USER: genes 11 Torsion [N]-CA--C-[O] |==|  0.91187
USER: genes 12 Torsion [N]-CA--CB-[CG] |==|  0.43286
USER: genes 13 Torsion [CA]-CB--CG-[CD2] |==|  0.54383
USER: genes 14 Torsion [N]-CA--CB-[CG] |==|  0.79804
USER: genes 15 Torsion [CA]-CB--CG-[CD2] |==|  0.17415
USER: genes 16 Torsion [N]-CA--CB-[CG2] |==|  0.53012
USER: genes 17 Torsion [CA]-CB--CG1-[CD1] |==|  0.35200
USER: genes 18 Torsion [O]-C--CA-[CB] |==|  0.84094
USER: genes 19 Torsion [N]-C--CA-[N] |==|  0.25422
USER: genes 20 Torsion [C]-CA--CB-[CG] |==|  0.12290
USER: genes 21 Torsion [CA]-CB--CG-[CD] |==|  0.55622
USER: genes 22 Torsion [CB]-CG--CD-[NE] |==|  0.35645
USER: genes 23 Torsion [CG]-CD--NE-[CZ] |==|  0.58500
USER: genes 24 Torsion [C]-CA--N-[C] |==|  0.68150
USER: genes 25 Torsion [N]-C--CA-[N] |==|  0.45118
USER: genes 26 Torsion [C]-CA--CB-[CG] |==|  0.87057
USER: genes 27 Torsion [CA]-CB--CG-[ND2] |==|  0.75402
ROOT
ATOM      1  C   PRO C  36      53.270  56.689  13.812  1.00 34.41 LIG 0.24  C 
ATOM      2 O    PRO C  36      52.413  57.567  13.676  1.00 29.89 LIG-0.27  OA
ATOM      3  N   ILE C  37      53.613  56.176  14.991  1.00 30.61 LIG-0.35  N 
ATOM      4 H    ILE C  37      54.190  55.545  15.080  1.00 30.61 LIG 0.16  HD
ENDROOT
BRANCH 3 5
ATOM      5  CA  ILE C  37      53.043  56.634  16.251  1.00 31.48 LIG 0.18  C 
BRANCH 5 6
ATOM      6  C   ILE C  37      51.545  56.433  16.110  1.00 31.96 LIG 0.24  C 
ATOM      7 O    ILE C  37      50.776  57.396  16.132  1.00 31.93 LIG-0.27  OA
ATOM      8  N   LEU C  38      51.131  55.179  15.976  1.00 30.89 LIG-0.35  N 
ATOM      9 H    LEU C  38      51.650  54.494  16.000  1.00 30.89 LIG 0.16  HD
BRANCH 8 10
ATOM     10  CA  LEU C  38      49.724  54.870  15.773  1.00 34.88 LIG 0.18  C 
BRANCH 10 11
ATOM     11  C   LEU C  38      49.035  55.510  14.574  1.00 39.33 LIG 0.24  C 
ATOM     12 O    LEU C  38      47.954  56.086  14.692  1.00 37.11 LIG-0.27  OA
ATOM     13  N   SER C  39      49.683  55.400  13.418  1.00 40.29 LIG-0.34  N 
ATOM     14 H    SER C  39      50.453  55.026  13.339  1.00 40.29 LIG 0.16  HD
BRANCH 13 15
ATOM     15  CA  SER C  39      49.140  55.909  12.165  1.00 42.99 LIG 0.20  C 
BRANCH 15 16
ATOM     16  CB  SER C  39      49.942  57.117  11.667  1.00 41.70 LIG 0.20  C 
BRANCH 16 17
ATOM     17 OG   SER C  39      49.910  58.187  12.596  1.00 43.46 LIG-0.40  OA
ATOM     18 HG   SER C  39      50.490  58.059  13.191  1.00 43.46 LIG 0.21  HD
ENDBRANCH 16 17
ENDBRANCH 15 16
BRANCH 15 19
ATOM     19  C   SER C  39      49.289  54.753  11.182  1.00 43.99 LIG 0.24  C 
ATOM     20  N   LEU C  40      48.385  54.658  10.212  1.00 44.48 LIG-0.34  N 
ATOM     21 H    LEU C  40      47.728  55.203  10.108  1.00 44.48 LIG 0.16  HD
ATOM     22 O    SER C  39      50.218  53.954  11.308  1.00 44.86 LIG-0.27  OA
BRANCH 20 23
ATOM     23  CA  LEU C  40      48.449  53.585   9.226  1.00 50.99 LIG 0.18  C 
BRANCH 23 24
ATOM     24  C   LEU C  40      48.014  54.091   7.851  1.00 53.79 LIG 0.20  C 
ATOM     25 O    LEU C  40      47.152  54.996   7.804  1.00 58.34 LIG-0.65  OA
ATOM     26 OXT  LEU C  40      48.528  53.573   6.838  1.00 54.01 LIG-0.65  OA
ENDBRANCH 23 24
BRANCH 23 27
ATOM     27  CB  LEU C  40      47.553  52.424   9.668  1.00 48.71 LIG 0.04  C 
BRANCH 27 28
ATOM     28  CG  LEU C  40      47.014  51.467   8.604  1.00 48.98 LIG-0.02  C 
ATOM     29  CD2 LEU C  40      45.871  50.664   9.194  1.00 51.62 LIG 0.01  C 
ATOM     30  CD1 LEU C  40      48.120  50.538   8.127  1.00 51.55 LIG 0.01  C 
ENDBRANCH 27 28
ENDBRANCH 23 27
ENDBRANCH 20 23
ENDBRANCH 15 19
ENDBRANCH 13 15
ENDBRANCH 10 11
BRANCH 10 31
ATOM     31  CB  LEU C  38      48.947  55.218  17.040  1.00 30.69 LIG 0.04  C 
BRANCH 31 32
ATOM     32  CG  LEU C  38      49.159  54.277  18.227  1.00 36.50 LIG-0.02  C 
ATOM     33  CD2 LEU C  38      50.620  54.316  18.669  1.00 35.12 LIG 0.01  C 
ATOM     34  CD1 LEU C  38      48.753  52.863  17.828  1.00 37.99 LIG 0.01  C 
ENDBRANCH 31 32
ENDBRANCH 10 31
ENDBRANCH 8 10
ENDBRANCH 5 6
BRANCH 5 35
ATOM     35  CB  ILE C  37      53.332  58.125  16.475  1.00 37.32 LIG 0.01  C 
ATOM     36  CG2 ILE C  37      52.968  58.514  17.900  1.00 35.15 LIG 0.01  C 
BRANCH 35 37
ATOM     37  CG1 ILE C  37      54.804  58.410  16.176  1.00 33.54 LIG 0.00  C 
ATOM     38  CD1 ILE C  37      55.019  59.529  15.184  1.00 46.98 LIG 0.01  C 
ENDBRANCH 35 37
ENDBRANCH 5 35
ENDBRANCH 3 5
BRANCH 1 39
ATOM     39  CA  PRO C  36      54.001  56.103  12.605  1.00 32.35 LIG 0.18  C 
ATOM     40  CB  PRO C  36      53.038  55.503  11.579  1.00 32.18 LIG 0.04  C 
ATOM     41  CG  PRO C  36      52.989  54.056  11.963  1.00 32.63 LIG 0.02  C 
ATOM     42  CD  PRO C  36      54.432  53.739  12.280  1.00 32.64 LIG 0.13  C 
ATOM     43  N   PRO C  36      54.890  54.983  12.923  1.00 32.06 LIG-0.34  N 
ATOM     44  C   ARG C  35      55.980  55.189  13.670  1.00 32.74 LIG 0.24  C 
ATOM     45 O    ARG C  35      56.271  56.303  14.099  1.00 32.93 LIG-0.27  OA
BRANCH 44 46
ATOM     46  CA  ARG C  35      56.864  53.985  13.965  1.00 37.56 LIG 0.18  C 
BRANCH 46 47
ATOM     47  CB  ARG C  35      57.512  54.136  15.341  1.00 40.42 LIG 0.04  C 
BRANCH 47 48
ATOM     48  CG  ARG C  35      56.561  54.612  16.408  1.00 36.41 LIG 0.02  C 
BRANCH 48 49
ATOM     49  CD  ARG C  35      57.304  55.211  17.589  1.00 39.80 LIG 0.14  C 
BRANCH 49 50
ATOM     50  NE  ARG C  35      56.784  56.536  17.914  1.00 32.60 LIG-0.23  N 
ATOM     51 HE   ARG C  35      55.953  56.688  17.756  1.00 32.60 LIG 0.18  HD
ATOM     52  CZ  ARG C  35      57.505  57.521  18.437  1.00 32.33 LIG 0.67  C 
ATOM     53  NH2 ARG C  35      58.790  57.337  18.703  1.00 28.83 LIG-0.23  N 
ATOM     54  NH1 ARG C  35      56.935  58.690  18.695  1.00 30.81 LIG-0.23  N 
ATOM     55 2HH2 ARG C  35      59.255  57.977  19.042  1.00 28.83 LIG 0.17  HD
ATOM     56 1HH2 ARG C  35      59.160  56.579  18.537  1.00 28.83 LIG 0.17  HD
ATOM     57 1HH1 ARG C  35      56.101  58.808  18.524  1.00 30.81 LIG 0.17  HD
ATOM     58 2HH1 ARG C  35      57.399  59.330  19.034  1.00 30.81 LIG 0.17  HD
ENDBRANCH 49 50
ENDBRANCH 48 49
ENDBRANCH 47 48
ENDBRANCH 46 47
BRANCH 46 59
ATOM     59  N   ARG C  35      57.883  53.905  12.930  1.00 36.73 LIG-0.35  N 
ATOM     60  C   ASN C  34      57.911  52.879  12.088  1.00 40.82 LIG 0.26  C 
ATOM     61 O    ASN C  34      57.100  51.955  12.139  1.00 33.40 LIG-0.27  OA
ATOM     62 H    ARG C  35      58.441  54.560  12.920  1.00 36.73 LIG 0.16  HD
BRANCH 60 63
ATOM     63  CA  ASN C  34      59.010  52.893  11.031  1.00 41.08 LIG 0.41  C 
ATOM     64  N   ASN C  34      59.181  51.528  10.459  1.00 44.32 LIG 0.61  N 
BRANCH 63 65
ATOM     65  CB  ASN C  34      58.630  53.894   9.934  1.00 43.19 LIG 0.15  C 
BRANCH 65 66
ATOM     66  CG  ASN C  34      57.187  53.746   9.469  1.00 48.82 LIG 0.22  C 
ATOM     67  ND2 ASN C  34      56.962  52.888   8.478  1.00 46.77 LIG-0.37  N 
ATOM     68 21HD ASN C  34      56.162  52.769   8.186  1.00 46.77 LIG 0.16  HD
ATOM     69 22HD ASN C  34      57.617  52.454   8.129  1.00 46.77 LIG 0.16  HD
ATOM     70 OD1  ASN C  34      56.288  54.393  10.004  1.00 54.33 LIG-0.27  OA
ENDBRANCH 65 66
ENDBRANCH 63 65
ENDBRANCH 60 63
ENDBRANCH 46 59
ENDBRANCH 44 46
ENDBRANCH 1 39
TORSDOF 26
ENDMDL
MODEL 20
USER: ADFR SOLUTION from run 98
USER: SCORE 19.276483 LL:  -6.565 LR: -14.887 RR:   0.000 FEB:  -7.131
USER: RMSD 12.613033
USER: SEED 97
USER: STATUS no improvement in best in 13 clusters for 5 generations
USER: GENES 28
USER: genes 0 Translation |==|  0.81706 0.40582 0.63448
USER: genes 1 Rotation |==|  0.63687 0.36957 0.95519 0.58398
USER: genes 2 Torsion [C]-N--CA-[C] |==|  0.58891
USER: genes 3 Torsion [N]-CA--C-[N] |==|  0.42155
USER: genes 4 Torsion [C]-N--CA-[C] |==|  0.13091
USER: genes 5 Torsion [N]-CA--C-[N] |==|  0.25458
USER: genes 6 Torsion [C]-N--CA-[C] |==|  0.81937
USER: genes 7 Torsion [N]-CA--CB-[OG] |==|  0.95165
USER: genes 8 Torsion [CA]-CB--OG-[HG] |==|  0.26548
USER: genes 9 Torsion [N]-CA--C-[N] |==|  0.90818
USER: genes 10 Torsion [C]-N--CA-[C] |==|  0.84409
USER: genes 11 Torsion [N]-CA--C-[O] |==|  0.39385
USER: genes 12 Torsion [N]-CA--CB-[CG] |==|  0.73366
USER: genes 13 Torsion [CA]-CB--CG-[CD2] |==|  0.36242
USER: genes 14 Torsion [N]-CA--CB-[CG] |==|  0.63743
USER: genes 15 Torsion [CA]-CB--CG-[CD2] |==|  0.03370
USER: genes 16 Torsion [N]-CA--CB-[CG2] |==|  0.76398
USER: genes 17 Torsion [CA]-CB--CG1-[CD1] |==|  0.68536
USER: genes 18 Torsion [O]-C--CA-[CB] |==|  0.94214
USER: genes 19 Torsion [N]-C--CA-[N] |==|  0.48856
USER: genes 20 Torsion [C]-CA--CB-[CG] |==|  0.40488
USER: genes 21 Torsion [CA]-CB--CG-[CD] |==|  0.97333
USER: genes 22 Torsion [CB]-CG--CD-[NE] |==|  0.24143
USER: genes 23 Torsion [CG]-CD--NE-[CZ] |==|  0.31023
USER: genes 24 Torsion [C]-CA--N-[C] |==|  0.18949
USER: genes 25 Torsion [N]-C--CA-[N] |==|  0.97560
USER: genes 26 Torsion [C]-CA--CB-[CG] |==|  0.78538
USER: genes 27 Torsion [CA]-CB--CG-[ND2] |==|  0.52549
ROOT
ATOM      1  C   PRO C  36      57.540  53.384  15.558  1.00 34.41 LIG 0.24  C 
ATOM      2 O    PRO C  36      58.268  53.362  16.555  1.00 29.89 LIG-0.27  OA
ATOM      3  N   ILE C  37      56.756  54.412  15.246  1.00 30.61 LIG-0.35  N 
ATOM      4 H    ILE C  37      56.271  54.436  14.536  1.00 30.61 LIG 0.16  HD
ENDROOT
BRANCH 3 5
ATOM      5  CA  ILE C  37      56.641  55.603  16.078  1.00 31.48 LIG 0.18  C 
BRANCH 5 6
ATOM      6  C   ILE C  37      55.215  56.087  15.888  1.00 31.96 LIG 0.24  C 
ATOM      7 O    ILE C  37      54.611  55.870  14.836  1.00 31.93 LIG-0.27  OA
ATOM      8  N   LEU C  38      54.680  56.753  16.904  1.00 30.89 LIG-0.35  N 
ATOM      9 H    LEU C  38      55.101  56.948  17.629  1.00 30.89 LIG 0.16  HD
BRANCH 8 10
ATOM     10  CA  LEU C  38      53.301  57.212  16.859  1.00 34.88 LIG 0.18  C 
BRANCH 10 11
ATOM     11  C   LEU C  38      52.246  56.212  16.400  1.00 39.33 LIG 0.24  C 
ATOM     12 O    LEU C  38      51.965  56.083  15.209  1.00 37.11 LIG-0.27  OA
ATOM     13  N   SER C  39      51.672  55.505  17.369  1.00 40.29 LIG-0.34  N 
ATOM     14 H    SER C  39      51.890  55.570  18.198  1.00 40.29 LIG 0.16  HD
BRANCH 13 15
ATOM     15  CA  SER C  39      50.607  54.543  17.109  1.00 42.99 LIG 0.20  C 
BRANCH 15 16
ATOM     16  CB  SER C  39      50.192  53.820  18.396  1.00 41.70 LIG 0.20  C 
BRANCH 16 17
ATOM     17 OG   SER C  39      51.172  53.954  19.412  1.00 43.46 LIG-0.40  OA
ATOM     18 HG   SER C  39      50.968  54.595  19.915  1.00 43.46 LIG 0.21  HD
ENDBRANCH 16 17
ENDBRANCH 15 16
BRANCH 15 19
ATOM     19  C   SER C  39      49.444  55.385  16.596  1.00 43.99 LIG 0.24  C 
ATOM     20  N   LEU C  40      49.316  56.613  17.090  1.00 44.48 LIG-0.34  N 
ATOM     21 H    LEU C  40      49.845  56.955  17.676  1.00 44.48 LIG 0.16  HD
ATOM     22 O    SER C  39      48.669  54.920  15.760  1.00 44.86 LIG-0.27  OA
BRANCH 20 23
ATOM     23  CA  LEU C  40      48.235  57.490  16.658  1.00 50.99 LIG 0.18  C 
BRANCH 23 24
ATOM     24  C   LEU C  40      48.258  57.665  15.140  1.00 53.79 LIG 0.20  C 
ATOM     25 O    LEU C  40      47.164  57.712  14.537  1.00 58.34 LIG-0.65  OA
ATOM     26 OXT  LEU C  40      49.366  57.745  14.569  1.00 54.01 LIG-0.65  OA
ENDBRANCH 23 24
BRANCH 23 27
ATOM     27  CB  LEU C  40      48.368  58.851  17.347  1.00 48.71 LIG 0.04  C 
BRANCH 27 28
ATOM     28  CG  LEU C  40      47.562  59.111  18.620  1.00 48.98 LIG-0.02  C 
ATOM     29  CD2 LEU C  40      48.486  59.667  19.686  1.00 51.62 LIG 0.01  C 
ATOM     30  CD1 LEU C  40      46.915  57.822  19.103  1.00 51.55 LIG 0.01  C 
ENDBRANCH 27 28
ENDBRANCH 23 27
ENDBRANCH 20 23
ENDBRANCH 15 19
ENDBRANCH 13 15
ENDBRANCH 10 11
BRANCH 10 31
ATOM     31  CB  LEU C  38      53.218  58.461  15.986  1.00 30.69 LIG 0.04  C 
BRANCH 31 32
ATOM     32  CG  LEU C  38      52.472  59.649  16.598  1.00 36.50 LIG-0.02  C 
ATOM     33  CD2 LEU C  38      52.232  59.403  18.086  1.00 35.12 LIG 0.01  C 
ATOM     34  CD1 LEU C  38      51.151  59.847  15.864  1.00 37.99 LIG 0.01  C 
ENDBRANCH 31 32
ENDBRANCH 10 31
ENDBRANCH 8 10
ENDBRANCH 5 6
BRANCH 5 35
ATOM     35  CB  ILE C  37      57.610  56.697  15.609  1.00 37.32 LIG 0.01  C 
ATOM     36  CG2 ILE C  37      58.980  56.477  16.234  1.00 35.15 LIG 0.01  C 
BRANCH 35 37
ATOM     37  CG1 ILE C  37      57.686  56.691  14.082  1.00 33.54 LIG 0.00  C 
ATOM     38  CD1 ILE C  37      59.033  56.273  13.539  1.00 46.98 LIG 0.01  C 
ENDBRANCH 35 37
ENDBRANCH 5 35
ENDBRANCH 3 5
BRANCH 1 39
ATOM     39  CA  PRO C  36      57.503  52.210  14.581  1.00 32.35 LIG 0.18  C 
ATOM     40  CB  PRO C  36      58.752  51.332  14.680  1.00 32.18 LIG 0.04  C 
ATOM     41  CG  PRO C  36      59.646  51.892  13.616  1.00 32.63 LIG 0.02  C 
ATOM     42  CD  PRO C  36      58.695  52.146  12.471  1.00 32.64 LIG 0.13  C 
ATOM     43  N   PRO C  36      57.480  52.601  13.169  1.00 32.06 LIG-0.34  N 
ATOM     44  C   ARG C  35      56.416  53.241  12.672  1.00 32.74 LIG 0.24  C 
ATOM     45 O    ARG C  35      55.439  53.510  13.367  1.00 32.93 LIG-0.27  OA
BRANCH 44 46
ATOM     46  CA  ARG C  35      56.454  53.620  11.198  1.00 37.56 LIG 0.18  C 
BRANCH 46 47
ATOM     47  CB  ARG C  35      57.586  54.614  10.941  1.00 40.42 LIG 0.04  C 
BRANCH 47 48
ATOM     48  CG  ARG C  35      58.241  54.449   9.595  1.00 36.41 LIG 0.02  C 
BRANCH 48 49
ATOM     49  CD  ARG C  35      57.775  53.180   8.901  1.00 39.80 LIG 0.14  C 
BRANCH 49 50
ATOM     50  NE  ARG C  35      56.553  53.422   8.140  1.00 32.60 LIG-0.23  N 
ATOM     51 HE   ARG C  35      55.835  53.589   8.581  1.00 32.60 LIG 0.18  HD
ATOM     52  CZ  ARG C  35      56.476  53.402   6.814  1.00 32.33 LIG 0.67  C 
ATOM     53  NH2 ARG C  35      57.555  53.152   6.087  1.00 28.83 LIG-0.23  N 
ATOM     54  NH1 ARG C  35      55.314  53.635   6.219  1.00 30.81 LIG-0.23  N 
ATOM     55 2HH2 ARG C  35      57.501  53.140   5.229  1.00 28.83 LIG 0.17  HD
ATOM     56 1HH2 ARG C  35      58.308  53.003   6.473  1.00 28.83 LIG 0.17  HD
ATOM     57 1HH1 ARG C  35      54.614  53.798   6.691  1.00 30.81 LIG 0.17  HD
ATOM     58 2HH1 ARG C  35      55.260  53.623   5.361  1.00 30.81 LIG 0.17  HD
ENDBRANCH 49 50
ENDBRANCH 48 49
ENDBRANCH 47 48
ENDBRANCH 46 47
BRANCH 46 59
ATOM     59  N   ARG C  35      55.171  54.211  10.849  1.00 36.73 LIG-0.35  N 
ATOM     60  C   ASN C  34      54.815  55.392  11.343  1.00 40.82 LIG 0.26  C 
ATOM     61 O    ASN C  34      55.531  56.033  12.112  1.00 33.40 LIG-0.27  OA
ATOM     62 H    ARG C  35      54.688  53.741  10.315  1.00 36.73 LIG 0.16  HD
BRANCH 60 63
ATOM     63  CA  ASN C  34      53.459  55.932  10.907  1.00 41.08 LIG 0.41  C 
ATOM     64  N   ASN C  34      52.897  55.079   9.822  1.00 44.32 LIG 0.61  N 
BRANCH 63 65
ATOM     65  CB  ASN C  34      52.519  55.951  12.118  1.00 43.19 LIG 0.15  C 
BRANCH 65 66
ATOM     66  CG  ASN C  34      51.971  54.573  12.465  1.00 48.82 LIG 0.22  C 
ATOM     67  ND2 ASN C  34      51.006  54.524  13.379  1.00 46.77 LIG-0.37  N 
ATOM     68 21HD ASN C  34      50.664  53.768  13.603  1.00 46.77 LIG 0.16  HD
ATOM     69 22HD ASN C  34      50.726  55.250  13.746  1.00 46.77 LIG 0.16  HD
ATOM     70 OD1  ASN C  34      52.410  53.566  11.909  1.00 54.33 LIG-0.27  OA
ENDBRANCH 65 66
ENDBRANCH 63 65
ENDBRANCH 60 63
ENDBRANCH 46 59
ENDBRANCH 44 46
ENDBRANCH 1 39
TORSDOF 26
ENDMDL
MODEL 21
USER: ADFR SOLUTION from run 78
USER: SCORE 19.114092 LL:  -5.587 LR: -14.888 RR:   0.000 FEB:  -7.132
USER: RMSD 12.944800
USER: SEED 77
USER: STATUS searching
USER: GENES 28
USER: genes 0 Translation |==|  0.66808 0.46442 0.46388
USER: genes 1 Rotation |==|  0.60299 0.95260 0.33381 0.58326
USER: genes 2 Torsion [C]-N--CA-[C] |==|  0.76558
USER: genes 3 Torsion [N]-CA--C-[N] |==|  0.16032
USER: genes 4 Torsion [C]-N--CA-[C] |==|  0.13235
USER: genes 5 Torsion [N]-CA--C-[N] |==|  0.57494
USER: genes 6 Torsion [C]-N--CA-[C] |==|  0.72755
USER: genes 7 Torsion [N]-CA--CB-[OG] |==|  0.06148
USER: genes 8 Torsion [CA]-CB--OG-[HG] |==|  0.72168
USER: genes 9 Torsion [N]-CA--C-[N] |==|  0.00900
USER: genes 10 Torsion [C]-N--CA-[C] |==|  0.67085
USER: genes 11 Torsion [N]-CA--C-[O] |==|  0.34093
USER: genes 12 Torsion [N]-CA--CB-[CG] |==|  0.87450
USER: genes 13 Torsion [CA]-CB--CG-[CD2] |==|  0.22253
USER: genes 14 Torsion [N]-CA--CB-[CG] |==|  0.68462
USER: genes 15 Torsion [CA]-CB--CG-[CD2] |==|  0.80402
USER: genes 16 Torsion [N]-CA--CB-[CG2] |==|  0.54735
USER: genes 17 Torsion [CA]-CB--CG1-[CD1] |==|  0.62846
USER: genes 18 Torsion [O]-C--CA-[CB] |==|  0.05816
USER: genes 19 Torsion [N]-C--CA-[N] |==|  0.44200
USER: genes 20 Torsion [C]-CA--CB-[CG] |==|  0.44191
USER: genes 21 Torsion [CA]-CB--CG-[CD] |==|  0.67027
USER: genes 22 Torsion [CB]-CG--CD-[NE] |==|  0.49277
USER: genes 23 Torsion [CG]-CD--NE-[CZ] |==|  0.33801
USER: genes 24 Torsion [C]-CA--N-[C] |==|  0.71756
USER: genes 25 Torsion [N]-C--CA-[N] |==|  0.93660
USER: genes 26 Torsion [C]-CA--CB-[CG] |==|  0.97304
USER: genes 27 Torsion [CA]-CB--CG-[ND2] |==|  0.77211
ROOT
ATOM      1  C   PRO C  36      52.848  54.439  12.360  1.00 34.41 LIG 0.24  C 
ATOM      2 O    PRO C  36      52.679  53.274  11.987  1.00 29.89 LIG-0.27  OA
ATOM      3  N   ILE C  37      51.967  55.105  13.101  1.00 30.61 LIG-0.35  N 
ATOM      4 H    ILE C  37      52.099  55.906  13.384  1.00 30.61 LIG 0.16  HD
ENDROOT
BRANCH 3 5
ATOM      5  CA  ILE C  37      50.687  54.541  13.510  1.00 31.48 LIG 0.18  C 
BRANCH 5 6
ATOM      6  C   ILE C  37      49.748  54.793  12.345  1.00 31.96 LIG 0.24  C 
ATOM      7 O    ILE C  37      48.702  55.424  12.504  1.00 31.93 LIG-0.27  OA
ATOM      8  N   LEU C  38      50.117  54.288  11.174  1.00 30.89 LIG-0.35  N 
ATOM      9 H    LEU C  38      50.823  53.811  11.054  1.00 30.89 LIG 0.16  HD
BRANCH 8 10
ATOM     10  CA  LEU C  38      49.327  54.517   9.974  1.00 34.88 LIG 0.18  C 
BRANCH 10 11
ATOM     11  C   LEU C  38      48.880  55.947   9.694  1.00 39.33 LIG 0.24  C 
ATOM     12 O    LEU C  38      49.526  56.910  10.108  1.00 37.11 LIG-0.27  OA
ATOM     13  N   SER C  39      47.763  56.067   8.982  1.00 40.29 LIG-0.34  N 
ATOM     14 H    SER C  39      47.328  55.395   8.665  1.00 40.29 LIG 0.16  HD
BRANCH 13 15
ATOM     15  CA  SER C  39      47.169  57.361   8.670  1.00 42.99 LIG 0.20  C 
BRANCH 15 16
ATOM     16  CB  SER C  39      46.554  57.360   7.265  1.00 41.70 LIG 0.20  C 
BRANCH 16 17
ATOM     17 OG   SER C  39      46.256  56.046   6.824  1.00 43.46 LIG-0.40  OA
ATOM     18 HG   SER C  39      46.860  55.781   6.304  1.00 43.46 LIG 0.21  HD
ENDBRANCH 16 17
ENDBRANCH 15 16
BRANCH 15 19
ATOM     19  C   SER C  39      46.069  57.541   9.711  1.00 43.99 LIG 0.24  C 
ATOM     20  N   LEU C  40      45.949  56.596  10.639  1.00 44.48 LIG-0.34  N 
ATOM     21 H    LEU C  40      46.449  55.897  10.685  1.00 44.48 LIG 0.16  HD
ATOM     22 O    SER C  39      45.336  58.529   9.667  1.00 44.86 LIG-0.27  OA
BRANCH 20 23
ATOM     23  CA  LEU C  40      44.927  56.685  11.674  1.00 50.99 LIG 0.18  C 
BRANCH 23 24
ATOM     24  C   LEU C  40      45.568  56.750  13.060  1.00 53.79 LIG 0.20  C 
ATOM     25 O    LEU C  40      45.297  57.731  13.787  1.00 58.34 LIG-0.65  OA
ATOM     26 OXT  LEU C  40      46.339  55.829  13.401  1.00 54.01 LIG-0.65  OA
ENDBRANCH 23 24
BRANCH 23 27
ATOM     27  CB  LEU C  40      43.994  55.473  11.583  1.00 48.71 LIG 0.04  C 
BRANCH 27 28
ATOM     28  CG  LEU C  40      43.480  55.044  10.208  1.00 48.98 LIG-0.02  C 
ATOM     29  CD2 LEU C  40      44.557  54.240   9.507  1.00 51.62 LIG 0.01  C 
ATOM     30  CD1 LEU C  40      43.112  56.267   9.381  1.00 51.55 LIG 0.01  C 
ENDBRANCH 27 28
ENDBRANCH 23 27
ENDBRANCH 20 23
ENDBRANCH 15 19
ENDBRANCH 13 15
ENDBRANCH 10 11
BRANCH 10 31
ATOM     31  CB  LEU C  38      48.101  53.608  10.002  1.00 30.69 LIG 0.04  C 
BRANCH 31 32
ATOM     32  CG  LEU C  38      48.059  52.519   8.927  1.00 36.50 LIG-0.02  C 
ATOM     33  CD2 LEU C  38      47.818  53.149   7.557  1.00 35.12 LIG 0.01  C 
ATOM     34  CD1 LEU C  38      46.960  51.520   9.264  1.00 37.99 LIG 0.01  C 
ENDBRANCH 31 32
ENDBRANCH 10 31
ENDBRANCH 8 10
ENDBRANCH 5 6
BRANCH 5 35
ATOM     35  CB  ILE C  37      50.145  55.255  14.757  1.00 37.32 LIG 0.01  C 
ATOM     36  CG2 ILE C  37      49.061  54.410  15.407  1.00 35.15 LIG 0.01  C 
BRANCH 35 37
ATOM     37  CG1 ILE C  37      51.295  55.532  15.726  1.00 33.54 LIG 0.00  C 
ATOM     38  CD1 ILE C  37      50.984  55.169  17.160  1.00 46.98 LIG 0.01  C 
ENDBRANCH 35 37
ENDBRANCH 5 35
ENDBRANCH 3 5
BRANCH 1 39
ATOM     39  CA  PRO C  36      54.118  55.208  12.002  1.00 32.35 LIG 0.18  C 
ATOM     40  CB  PRO C  36      54.835  54.612  10.789  1.00 32.18 LIG 0.04  C 
ATOM     41  CG  PRO C  36      55.841  53.690  11.407  1.00 32.63 LIG 0.02  C 
ATOM     42  CD  PRO C  36      56.362  54.490  12.578  1.00 32.64 LIG 0.13  C 
ATOM     43  N   PRO C  36      55.150  55.186  13.043  1.00 32.06 LIG-0.34  N 
ATOM     44  C   ARG C  35      54.930  55.799  14.211  1.00 32.74 LIG 0.24  C 
ATOM     45 O    ARG C  35      53.881  56.395  14.443  1.00 32.93 LIG-0.27  OA
BRANCH 44 46
ATOM     46  CA  ARG C  35      56.040  55.741  15.251  1.00 37.56 LIG 0.18  C 
BRANCH 46 47
ATOM     47  CB  ARG C  35      56.008  54.396  15.977  1.00 40.42 LIG 0.04  C 
BRANCH 47 48
ATOM     48  CG  ARG C  35      57.311  54.037  16.641  1.00 36.41 LIG 0.02  C 
BRANCH 48 49
ATOM     49  CD  ARG C  35      57.892  52.754  16.071  1.00 39.80 LIG 0.14  C 
BRANCH 49 50
ATOM     50  NE  ARG C  35      59.183  52.452  16.680  1.00 32.60 LIG-0.23  N 
ATOM     51 HE   ARG C  35      59.806  53.039  16.609  1.00 32.60 LIG 0.18  HD
ATOM     52  CZ  ARG C  35      59.462  51.331  17.338  1.00 32.33 LIG 0.67  C 
ATOM     53  NH2 ARG C  35      58.536  50.394  17.479  1.00 28.83 LIG-0.23  N 
ATOM     54  NH1 ARG C  35      60.670  51.154  17.854  1.00 30.81 LIG-0.23  N 
ATOM     55 2HH2 ARG C  35      58.719  49.670  17.905  1.00 28.83 LIG 0.17  HD
ATOM     56 1HH2 ARG C  35      57.752  50.510  17.145  1.00 28.83 LIG 0.17  HD
ATOM     57 1HH1 ARG C  35      61.270  51.763  17.764  1.00 30.81 LIG 0.17  HD
ATOM     58 2HH1 ARG C  35      60.853  50.430  18.281  1.00 30.81 LIG 0.17  HD
ENDBRANCH 49 50
ENDBRANCH 48 49
ENDBRANCH 47 48
ENDBRANCH 46 47
BRANCH 46 59
ATOM     59  N   ARG C  35      55.837  56.831  16.193  1.00 36.73 LIG-0.35  N 
ATOM     60  C   ASN C  34      56.564  57.940  16.109  1.00 40.82 LIG 0.26  C 
ATOM     61 O    ASN C  34      57.436  58.100  15.256  1.00 33.40 LIG-0.27  OA
ATOM     62 H    ARG C  35      55.227  56.692  16.783  1.00 36.73 LIG 0.16  HD
BRANCH 60 63
ATOM     63  CA  ASN C  34      56.267  59.029  17.134  1.00 41.08 LIG 0.41  C 
ATOM     64  N   ASN C  34      54.884  58.863  17.663  1.00 44.32 LIG 0.61  N 
BRANCH 63 65
ATOM     65  CB  ASN C  34      57.293  58.936  18.269  1.00 43.19 LIG 0.15  C 
BRANCH 65 66
ATOM     66  CG  ASN C  34      58.149  57.679  18.194  1.00 48.82 LIG 0.22  C 
ATOM     67  ND2 ASN C  34      57.621  56.563  18.690  1.00 46.77 LIG-0.37  N 
ATOM     68 21HD ASN C  34      58.067  55.829  18.665  1.00 46.77 LIG 0.16  HD
ATOM     69 22HD ASN C  34      56.834  56.578  19.037  1.00 46.77 LIG 0.16  HD
ATOM     70 OD1  ASN C  34      59.270  57.714  17.687  1.00 54.33 LIG-0.27  OA
ENDBRANCH 65 66
ENDBRANCH 63 65
ENDBRANCH 60 63
ENDBRANCH 46 59
ENDBRANCH 44 46
ENDBRANCH 1 39
TORSDOF 26
ENDMDL
MODEL 22
USER: ADFR SOLUTION from run 177
USER: SCORE 19.216061 LL:  -6.242 LR: -14.879 RR:   0.000 FEB:  -7.123
USER: RMSD 12.142285
USER: SEED 176
USER: STATUS no improvement in best in 3 clusters for 5 generations
USER: GENES 28
USER: genes 0 Translation |==|  0.58904 0.51157 0.56776
USER: genes 1 Rotation |==|  0.37266 0.06333 0.66045 0.63175
USER: genes 2 Torsion [C]-N--CA-[C] |==|  0.63488
USER: genes 3 Torsion [N]-CA--C-[N] |==|  0.51435
USER: genes 4 Torsion [C]-N--CA-[C] |==|  0.19709
USER: genes 5 Torsion [N]-CA--C-[N] |==|  0.72219
USER: genes 6 Torsion [C]-N--CA-[C] |==|  0.73451
USER: genes 7 Torsion [N]-CA--CB-[OG] |==|  0.96585
USER: genes 8 Torsion [CA]-CB--OG-[HG] |==|  0.27635
USER: genes 9 Torsion [N]-CA--C-[N] |==|  0.97670
USER: genes 10 Torsion [C]-N--CA-[C] |==|  0.76813
USER: genes 11 Torsion [N]-CA--C-[O] |==|  0.15846
USER: genes 12 Torsion [N]-CA--CB-[CG] |==|  0.76249
USER: genes 13 Torsion [CA]-CB--CG-[CD2] |==|  0.69824
USER: genes 14 Torsion [N]-CA--CB-[CG] |==|  0.82392
USER: genes 15 Torsion [CA]-CB--CG-[CD2] |==|  0.71596
USER: genes 16 Torsion [N]-CA--CB-[CG2] |==|  0.22758
USER: genes 17 Torsion [CA]-CB--CG1-[CD1] |==|  0.19546
USER: genes 18 Torsion [O]-C--CA-[CB] |==|  0.03257
USER: genes 19 Torsion [N]-C--CA-[N] |==|  0.16169
USER: genes 20 Torsion [C]-CA--CB-[CG] |==|  0.35594
USER: genes 21 Torsion [CA]-CB--CG-[CD] |==|  0.44746
USER: genes 22 Torsion [CB]-CG--CD-[NE] |==|  0.11321
USER: genes 23 Torsion [CG]-CD--NE-[CZ] |==|  0.55976
USER: genes 24 Torsion [C]-CA--N-[C] |==|  0.63829
USER: genes 25 Torsion [N]-C--CA-[N] |==|  0.35336
USER: genes 26 Torsion [C]-CA--CB-[CG] |==|  0.72800
USER: genes 27 Torsion [CA]-CB--CG-[ND2] |==|  0.56999
ROOT
ATOM      1  C   PRO C  36      50.358  55.287  14.307  1.00 34.41 LIG 0.24  C 
ATOM      2 O    PRO C  36      49.527  54.394  14.118  1.00 29.89 LIG-0.27  OA
ATOM      3  N   ILE C  37      50.518  55.902  15.476  1.00 30.61 LIG-0.35  N 
ATOM      4 H    ILE C  37      51.117  56.505  15.613  1.00 30.61 LIG 0.16  HD
ENDROOT
BRANCH 3 5
ATOM      5  CA  ILE C  37      49.695  55.616  16.643  1.00 31.48 LIG 0.18  C 
BRANCH 5 6
ATOM      6  C   ILE C  37      49.253  56.972  17.164  1.00 31.96 LIG 0.24  C 
ATOM      7 O    ILE C  37      49.534  58.003  16.552  1.00 31.93 LIG-0.27  OA
ATOM      8  N   LEU C  38      48.569  56.969  18.301  1.00 30.89 LIG-0.35  N 
ATOM      9 H    LEU C  38      48.399  56.263  18.762  1.00 30.89 LIG 0.16  HD
BRANCH 8 10
ATOM     10  CA  LEU C  38      48.042  58.203  18.864  1.00 34.88 LIG 0.18  C 
BRANCH 10 11
ATOM     11  C   LEU C  38      46.871  58.857  18.140  1.00 39.33 LIG 0.24  C 
ATOM     12 O    LEU C  38      45.719  58.451  18.293  1.00 37.11 LIG-0.27  OA
ATOM     13  N   SER C  39      47.187  59.879  17.350  1.00 40.29 LIG-0.34  N 
ATOM     14 H    SER C  39      47.987  60.185  17.267  1.00 40.29 LIG 0.16  HD
BRANCH 13 15
ATOM     15  CA  SER C  39      46.196  60.582  16.545  1.00 42.99 LIG 0.20  C 
BRANCH 15 16
ATOM     16  CB  SER C  39      46.541  62.071  16.424  1.00 41.70 LIG 0.20  C 
BRANCH 16 17
ATOM     17 OG   SER C  39      47.559  62.450  17.336  1.00 43.46 LIG-0.40  OA
ATOM     18 HG   SER C  39      48.297  62.478  16.936  1.00 43.46 LIG 0.21  HD
ENDBRANCH 16 17
ENDBRANCH 15 16
BRANCH 15 19
ATOM     19  C   SER C  39      46.277  59.923  15.172  1.00 43.99 LIG 0.24  C 
ATOM     20  N   LEU C  40      47.267  59.060  14.969  1.00 44.48 LIG-0.34  N 
ATOM     21 H    LEU C  40      47.858  58.854  15.559  1.00 44.48 LIG 0.16  HD
ATOM     22 O    SER C  39      45.447  60.202  14.306  1.00 44.86 LIG-0.27  OA
BRANCH 20 23
ATOM     23  CA  LEU C  40      47.422  58.381  13.688  1.00 50.99 LIG 0.18  C 
BRANCH 23 24
ATOM     24  C   LEU C  40      46.520  57.150  13.618  1.00 53.79 LIG 0.20  C 
ATOM     25 O    LEU C  40      45.292  57.311  13.787  1.00 58.34 LIG-0.65  OA
ATOM     26 OXT  LEU C  40      47.049  56.039  13.405  1.00 54.01 LIG-0.65  OA
ENDBRANCH 23 24
BRANCH 23 27
ATOM     27  CB  LEU C  40      48.886  57.973  13.495  1.00 48.71 LIG 0.04  C 
BRANCH 27 28
ATOM     28  CG  LEU C  40      49.861  58.992  12.904  1.00 48.98 LIG-0.02  C 
ATOM     29  CD2 LEU C  40      50.226  58.569  11.495  1.00 51.62 LIG 0.01  C 
ATOM     30  CD1 LEU C  40      51.111  59.084  13.768  1.00 51.55 LIG 0.01  C 
ENDBRANCH 27 28
ENDBRANCH 23 27
ENDBRANCH 20 23
ENDBRANCH 15 19
ENDBRANCH 13 15
ENDBRANCH 10 11
BRANCH 10 31
ATOM     31  CB  LEU C  38      49.175  59.217  18.996  1.00 30.69 LIG 0.04  C 
BRANCH 31 32
ATOM     32  CG  LEU C  38      50.303  58.829  19.955  1.00 36.50 LIG-0.02  C 
ATOM     33  CD2 LEU C  38      50.148  59.583  21.274  1.00 35.12 LIG 0.01  C 
ATOM     34  CD1 LEU C  38      51.645  59.143  19.307  1.00 37.99 LIG 0.01  C 
ENDBRANCH 31 32
ENDBRANCH 10 31
ENDBRANCH 8 10
ENDBRANCH 5 6
BRANCH 5 35
ATOM     35  CB  ILE C  37      50.510  54.901  17.729  1.00 37.32 LIG 0.01  C 
ATOM     36  CG2 ILE C  37      51.303  55.918  18.536  1.00 35.15 LIG 0.01  C 
BRANCH 35 37
ATOM     37  CG1 ILE C  37      49.569  54.091  18.622  1.00 33.54 LIG 0.00  C 
ATOM     38  CD1 ILE C  37      48.974  52.880  17.940  1.00 46.98 LIG 0.01  C 
ENDBRANCH 35 37
ENDBRANCH 5 35
ENDBRANCH 3 5
BRANCH 1 39
ATOM     39  CA  PRO C  36      51.294  55.747  13.191  1.00 32.35 LIG 0.18  C 
ATOM     40  CB  PRO C  36      50.879  55.198  11.824  1.00 32.18 LIG 0.04  C 
ATOM     41  CG  PRO C  36      51.704  53.954  11.692  1.00 32.63 LIG 0.02  C 
ATOM     42  CD  PRO C  36      53.051  54.381  12.228  1.00 32.64 LIG 0.13  C 
ATOM     43  N   PRO C  36      52.676  55.282  13.332  1.00 32.06 LIG-0.34  N 
ATOM     44  C   ARG C  35      53.428  55.724  14.346  1.00 32.74 LIG 0.24  C 
ATOM     45 O    ARG C  35      52.995  56.526  15.171  1.00 32.93 LIG-0.27  OA
BRANCH 44 46
ATOM     46  CA  ARG C  35      54.855  55.204  14.438  1.00 37.56 LIG 0.18  C 
BRANCH 46 47
ATOM     47  CB  ARG C  35      55.567  55.835  15.634  1.00 40.42 LIG 0.04  C 
BRANCH 47 48
ATOM     48  CG  ARG C  35      56.216  54.831  16.550  1.00 36.41 LIG 0.02  C 
BRANCH 48 49
ATOM     49  CD  ARG C  35      57.269  55.480  17.431  1.00 39.80 LIG 0.14  C 
BRANCH 49 50
ATOM     50  NE  ARG C  35      56.815  56.781  17.912  1.00 32.60 LIG-0.23  N 
ATOM     51 HE   ARG C  35      55.969  56.932  17.918  1.00 32.60 LIG 0.18  HD
ATOM     52  CZ  ARG C  35      57.619  57.748  18.342  1.00 32.33 LIG 0.67  C 
ATOM     53  NH2 ARG C  35      58.932  57.566  18.355  1.00 28.83 LIG-0.23  N 
ATOM     54  NH1 ARG C  35      57.104  58.896  18.759  1.00 30.81 LIG-0.23  N 
ATOM     55 2HH2 ARG C  35      59.449  58.193  18.634  1.00 28.83 LIG 0.17  HD
ATOM     56 1HH2 ARG C  35      59.266  56.821  18.086  1.00 28.83 LIG 0.17  HD
ATOM     57 1HH1 ARG C  35      56.253  59.014  18.751  1.00 30.81 LIG 0.17  HD
ATOM     58 2HH1 ARG C  35      57.622  59.524  19.037  1.00 30.81 LIG 0.17  HD
ENDBRANCH 49 50
ENDBRANCH 48 49
ENDBRANCH 47 48
ENDBRANCH 46 47
BRANCH 46 59
ATOM     59  N   ARG C  35      55.543  55.544  13.201  1.00 36.73 LIG-0.35  N 
ATOM     60  C   ASN C  34      56.222  54.620  12.531  1.00 40.82 LIG 0.26  C 
ATOM     61 O    ASN C  34      56.313  53.454  12.913  1.00 33.40 LIG-0.27  OA
ATOM     62 H    ARG C  35      55.468  56.366  12.959  1.00 36.73 LIG 0.16  HD
BRANCH 60 63
ATOM     63  CA  ASN C  34      56.897  55.071  11.241  1.00 41.08 LIG 0.41  C 
ATOM     64  N   ASN C  34      58.339  54.699  11.266  1.00 44.32 LIG 0.61  N 
BRANCH 63 65
ATOM     65  CB  ASN C  34      56.190  54.410  10.053  1.00 43.19 LIG 0.15  C 
BRANCH 65 66
ATOM     66  CG  ASN C  34      56.911  53.166   9.551  1.00 48.82 LIG 0.22  C 
ATOM     67  ND2 ASN C  34      56.710  52.829   8.280  1.00 46.77 LIG-0.37  N 
ATOM     68 21HD ASN C  34      57.100  52.137   7.952  1.00 46.77 LIG 0.16  HD
ATOM     69 22HD ASN C  34      56.190  53.304   7.787  1.00 46.77 LIG 0.16  HD
ATOM     70 OD1  ASN C  34      57.644  52.522  10.300  1.00 54.33 LIG-0.27  OA
ENDBRANCH 65 66
ENDBRANCH 63 65
ENDBRANCH 60 63
ENDBRANCH 46 59
ENDBRANCH 44 46
ENDBRANCH 1 39
TORSDOF 26
ENDMDL
MODEL 23
USER: ADFR SOLUTION from run 188
USER: SCORE 20.220134 LL:  -5.894 LR: -14.875 RR:   0.000 FEB:  -7.119
USER: RMSD 12.592931
USER: SEED 187
USER: STATUS no improvement in best in 1 clusters for 5 generations
USER: GENES 28
USER: genes 0 Translation |==|  0.69451 0.56499 0.53061
USER: genes 1 Rotation |==|  0.60813 0.51734 0.36945 0.97007
USER: genes 2 Torsion [C]-N--CA-[C] |==|  0.14797
USER: genes 3 Torsion [N]-CA--C-[N] |==|  0.10813
USER: genes 4 Torsion [C]-N--CA-[C] |==|  0.69345
USER: genes 5 Torsion [N]-CA--C-[N] |==|  0.45243
USER: genes 6 Torsion [C]-N--CA-[C] |==|  0.73047
USER: genes 7 Torsion [N]-CA--CB-[OG] |==|  0.35374
USER: genes 8 Torsion [CA]-CB--OG-[HG] |==|  0.66890
USER: genes 9 Torsion [N]-CA--C-[N] |==|  0.93889
USER: genes 10 Torsion [C]-N--CA-[C] |==|  0.56554
USER: genes 11 Torsion [N]-CA--C-[O] |==|  0.98299
USER: genes 12 Torsion [N]-CA--CB-[CG] |==|  0.63808
USER: genes 13 Torsion [CA]-CB--CG-[CD2] |==|  0.27271
USER: genes 14 Torsion [N]-CA--CB-[CG] |==|  0.80276
USER: genes 15 Torsion [CA]-CB--CG-[CD2] |==|  0.68854
USER: genes 16 Torsion [N]-CA--CB-[CG2] |==|  0.60753
USER: genes 17 Torsion [CA]-CB--CG1-[CD1] |==|  0.79236
USER: genes 18 Torsion [O]-C--CA-[CB] |==|  0.58002
USER: genes 19 Torsion [N]-C--CA-[N] |==|  0.32117
USER: genes 20 Torsion [C]-CA--CB-[CG] |==|  0.83990
USER: genes 21 Torsion [CA]-CB--CG-[CD] |==|  0.36817
USER: genes 22 Torsion [CB]-CG--CD-[NE] |==|  0.20699
USER: genes 23 Torsion [CG]-CD--NE-[CZ] |==|  0.44064
USER: genes 24 Torsion [C]-CA--N-[C] |==|  0.72484
USER: genes 25 Torsion [N]-C--CA-[N] |==|  0.40441
USER: genes 26 Torsion [C]-CA--CB-[CG] |==|  0.00869
USER: genes 27 Torsion [CA]-CB--CG-[ND2] |==|  0.25700
ROOT
ATOM      1  C   PRO C  36      53.680  56.249  13.611  1.00 34.41 LIG 0.24  C 
ATOM      2 O    PRO C  36      53.284  55.281  14.267  1.00 29.89 LIG-0.27  OA
ATOM      3  N   ILE C  37      54.075  56.163  12.344  1.00 30.61 LIG-0.35  N 
ATOM      4 H    ILE C  37      54.324  56.843  11.880  1.00 30.61 LIG 0.16  HD
ENDROOT
BRANCH 3 5
ATOM      5  CA  ILE C  37      54.126  54.904  11.612  1.00 31.48 LIG 0.18  C 
BRANCH 5 6
ATOM      6  C   ILE C  37      52.743  54.296  11.764  1.00 31.96 LIG 0.24  C 
ATOM      7 O    ILE C  37      52.603  53.082  11.920  1.00 31.93 LIG-0.27  OA
ATOM      8  N   LEU C  38      51.721  55.141  11.710  1.00 30.89 LIG-0.35  N 
ATOM      9 H    LEU C  38      51.799  55.985  11.562  1.00 30.89 LIG 0.16  HD
BRANCH 8 10
ATOM     10  CA  LEU C  38      50.355  54.682  11.903  1.00 34.88 LIG 0.18  C 
BRANCH 10 11
ATOM     11  C   LEU C  38      49.436  54.692  10.687  1.00 39.33 LIG 0.24  C 
ATOM     12 O    LEU C  38      49.715  55.344   9.682  1.00 37.11 LIG-0.27  OA
ATOM     13  N   SER C  39      48.335  53.954  10.798  1.00 40.29 LIG-0.34  N 
ATOM     14 H    SER C  39      48.154  53.472  11.487  1.00 40.29 LIG 0.16  HD
BRANCH 13 15
ATOM     15  CA  SER C  39      47.325  53.893   9.749  1.00 42.99 LIG 0.20  C 
BRANCH 15 16
ATOM     16  CB  SER C  39      46.706  52.493   9.659  1.00 41.70 LIG 0.20  C 
BRANCH 16 17
ATOM     17 OG   SER C  39      45.290  52.541   9.722  1.00 43.46 LIG-0.40  OA
ATOM     18 HG   SER C  39      45.025  52.108  10.391  1.00 43.46 LIG 0.21  HD
ENDBRANCH 16 17
ENDBRANCH 15 16
BRANCH 15 19
ATOM     19  C   SER C  39      46.261  54.897  10.181  1.00 43.99 LIG 0.24  C 
ATOM     20  N   LEU C  40      46.210  55.213  11.471  1.00 44.48 LIG-0.34  N 
ATOM     21 H    LEU C  40      46.736  54.888  12.070  1.00 44.48 LIG 0.16  HD
ATOM     22 O    SER C  39      45.492  55.376   9.347  1.00 44.86 LIG-0.27  OA
BRANCH 20 23
ATOM     23  CA  LEU C  40      45.227  56.164  11.975  1.00 50.99 LIG 0.18  C 
BRANCH 23 24
ATOM     24  C   LEU C  40      45.707  56.792  13.283  1.00 53.79 LIG 0.20  C 
ATOM     25 O    LEU C  40      46.760  56.353  13.795  1.00 58.34 LIG-0.65  OA
ATOM     26 OXT  LEU C  40      45.023  57.708  13.787  1.00 54.01 LIG-0.65  OA
ENDBRANCH 23 24
BRANCH 23 27
ATOM     27  CB  LEU C  40      43.887  55.454  12.193  1.00 48.71 LIG 0.04  C 
BRANCH 27 28
ATOM     28  CG  LEU C  40      42.620  56.083  11.613  1.00 48.98 LIG-0.02  C 
ATOM     29  CD2 LEU C  40      42.289  55.406  10.298  1.00 51.62 LIG 0.01  C 
ATOM     30  CD1 LEU C  40      42.826  57.576  11.400  1.00 51.55 LIG 0.01  C 
ENDBRANCH 27 28
ENDBRANCH 23 27
ENDBRANCH 20 23
ENDBRANCH 15 19
ENDBRANCH 13 15
ENDBRANCH 10 11
BRANCH 10 31
ATOM     31  CB  LEU C  38      49.708  55.492  13.023  1.00 30.69 LIG 0.04  C 
BRANCH 31 32
ATOM     32  CG  LEU C  38      50.225  55.202  14.434  1.00 36.50 LIG-0.02  C 
ATOM     33  CD2 LEU C  38      49.132  54.528  15.261  1.00 35.12 LIG 0.01  C 
ATOM     34  CD1 LEU C  38      50.671  56.505  15.086  1.00 37.99 LIG 0.01  C 
ENDBRANCH 31 32
ENDBRANCH 10 31
ENDBRANCH 8 10
ENDBRANCH 5 6
BRANCH 5 35
ATOM     35  CB  ILE C  37      55.164  53.953  12.225  1.00 37.32 LIG 0.01  C 
ATOM     36  CG2 ILE C  37      55.894  53.203  11.122  1.00 35.15 LIG 0.01  C 
BRANCH 35 37
ATOM     37  CG1 ILE C  37      56.134  54.751  13.096  1.00 33.54 LIG 0.00  C 
ATOM     38  CD1 ILE C  37      57.136  55.562  12.306  1.00 46.98 LIG 0.01  C 
ENDBRANCH 35 37
ENDBRANCH 5 35
ENDBRANCH 3 5
BRANCH 1 39
ATOM     39  CA  PRO C  36      53.728  57.650  14.219  1.00 32.35 LIG 0.18  C 
ATOM     40  CB  PRO C  36      53.550  58.745  13.166  1.00 32.18 LIG 0.04  C 
ATOM     41  CG  PRO C  36      54.960  59.102  12.804  1.00 32.63 LIG 0.02  C 
ATOM     42  CD  PRO C  36      55.662  59.111  14.143  1.00 32.64 LIG 0.13  C 
ATOM     43  N   PRO C  36      55.007  57.993  14.845  1.00 32.06 LIG-0.34  N 
ATOM     44  C   ARG C  35      55.407  57.343  15.943  1.00 32.74 LIG 0.24  C 
ATOM     45 O    ARG C  35      54.726  56.459  16.457  1.00 32.93 LIG-0.27  OA
BRANCH 44 46
ATOM     46  CA  ARG C  35      56.746  57.746  16.546  1.00 37.56 LIG 0.18  C 
BRANCH 46 47
ATOM     47  CB  ARG C  35      57.663  56.527  16.645  1.00 40.42 LIG 0.04  C 
BRANCH 47 48
ATOM     48  CG  ARG C  35      57.084  55.398  17.456  1.00 36.41 LIG 0.02  C 
BRANCH 48 49
ATOM     49  CD  ARG C  35      57.224  54.067  16.738  1.00 39.80 LIG 0.14  C 
BRANCH 49 50
ATOM     50  NE  ARG C  35      58.603  53.592  16.787  1.00 32.60 LIG-0.23  N 
ATOM     51 HE   ARG C  35      59.221  54.172  16.932  1.00 32.60 LIG 0.18  HD
ATOM     52  CZ  ARG C  35      58.969  52.325  16.624  1.00 32.33 LIG 0.67  C 
ATOM     53  NH2 ARG C  35      58.057  51.391  16.401  1.00 28.83 LIG-0.23  N 
ATOM     54  NH1 ARG C  35      60.253  51.997  16.687  1.00 30.81 LIG-0.23  N 
ATOM     55 2HH2 ARG C  35      58.297  50.572  16.296  1.00 28.83 LIG 0.17  HD
ATOM     56 1HH2 ARG C  35      57.224  51.603  16.361  1.00 28.83 LIG 0.17  HD
ATOM     57 1HH1 ARG C  35      60.845  52.604  16.833  1.00 30.81 LIG 0.17  HD
ATOM     58 2HH1 ARG C  35      60.493  51.179  16.582  1.00 30.81 LIG 0.17  HD
ENDBRANCH 49 50
ENDBRANCH 48 49
ENDBRANCH 47 48
ENDBRANCH 46 47
BRANCH 46 59
ATOM     59  N   ARG C  35      56.499  58.303  17.867  1.00 36.73 LIG-0.35  N 
ATOM     60  C   ASN C  34      56.456  59.619  18.047  1.00 40.82 LIG 0.26  C 
ATOM     61 O    ASN C  34      56.627  60.421  17.130  1.00 33.40 LIG-0.27  OA
ATOM     62 H    ARG C  35      56.388  57.722  18.491  1.00 36.73 LIG 0.16  HD
BRANCH 60 63
ATOM     63  CA  ASN C  34      56.178  60.104  19.465  1.00 41.08 LIG 0.41  C 
ATOM     64  N   ASN C  34      56.927  61.366  19.725  1.00 44.32 LIG 0.61  N 
BRANCH 63 65
ATOM     65  CB  ASN C  34      54.671  60.329  19.626  1.00 43.19 LIG 0.15  C 
BRANCH 65 66
ATOM     66  CG  ASN C  34      53.877  59.943  18.386  1.00 48.82 LIG 0.22  C 
ATOM     67  ND2 ASN C  34      53.400  58.702  18.341  1.00 46.77 LIG-0.37  N 
ATOM     68 21HD ASN C  34      52.942  58.441  17.662  1.00 46.77 LIG 0.16  HD
ATOM     69 22HD ASN C  34      53.551  58.160  18.992  1.00 46.77 LIG 0.16  HD
ATOM     70 OD1  ASN C  34      53.691  60.758  17.482  1.00 54.33 LIG-0.27  OA
ENDBRANCH 65 66
ENDBRANCH 63 65
ENDBRANCH 60 63
ENDBRANCH 46 59
ENDBRANCH 44 46
ENDBRANCH 1 39
TORSDOF 26
ENDMDL
MODEL 24
USER: ADFR SOLUTION from run 154
USER: SCORE 20.334006 LL:  -6.274 LR: -14.866 RR:   0.000 FEB:  -7.110
USER: RMSD 12.322949
USER: SEED 153
USER: STATUS no improvement in best in 6 clusters for 5 generations
USER: GENES 28
USER: genes 0 Translation |==|  0.62459 0.51047 0.54277
USER: genes 1 Rotation |==|  0.42185 0.03452 0.60980 0.62317
USER: genes 2 Torsion [C]-N--CA-[C] |==|  0.76779
USER: genes 3 Torsion [N]-CA--C-[N] |==|  0.87031
USER: genes 4 Torsion [C]-N--CA-[C] |==|  0.69858
USER: genes 5 Torsion [N]-CA--C-[N] |==|  0.90718
USER: genes 6 Torsion [C]-N--CA-[C] |==|  0.82223
USER: genes 7 Torsion [N]-CA--CB-[OG] |==|  0.06845
USER: genes 8 Torsion [CA]-CB--OG-[HG] |==|  0.12781
USER: genes 9 Torsion [N]-CA--C-[N] |==|  0.92222
USER: genes 10 Torsion [C]-N--CA-[C] |==|  0.76527
USER: genes 11 Torsion [N]-CA--C-[O] |==|  0.91869
USER: genes 12 Torsion [N]-CA--CB-[CG] |==|  0.62992
USER: genes 13 Torsion [CA]-CB--CG-[CD2] |==|  0.11433
USER: genes 14 Torsion [N]-CA--CB-[CG] |==|  0.82893
USER: genes 15 Torsion [CA]-CB--CG-[CD2] |==|  0.79873
USER: genes 16 Torsion [N]-CA--CB-[CG2] |==|  0.12387
USER: genes 17 Torsion [CA]-CB--CG1-[CD1] |==|  0.11815
USER: genes 18 Torsion [O]-C--CA-[CB] |==|  0.11426
USER: genes 19 Torsion [N]-C--CA-[N] |==|  0.49697
USER: genes 20 Torsion [C]-CA--CB-[CG] |==|  0.48901
USER: genes 21 Torsion [CA]-CB--CG-[CD] |==|  0.83880
USER: genes 22 Torsion [CB]-CG--CD-[NE] |==|  0.76926
USER: genes 23 Torsion [CG]-CD--NE-[CZ] |==|  0.65225
USER: genes 24 Torsion [C]-CA--N-[C] |==|  0.75070
USER: genes 25 Torsion [N]-C--CA-[N] |==|  0.53702
USER: genes 26 Torsion [C]-CA--CB-[CG] |==|  0.78257
USER: genes 27 Torsion [CA]-CB--CG-[ND2] |==|  0.72814
ROOT
ATOM      1  C   PRO C  36      51.477  55.268  13.839  1.00 34.41 LIG 0.24  C 
ATOM      2 O    PRO C  36      50.809  54.339  13.376  1.00 29.89 LIG-0.27  OA
ATOM      3  N   ILE C  37      51.503  55.577  15.132  1.00 30.61 LIG-0.35  N 
ATOM      4 H    ILE C  37      51.991  56.207  15.457  1.00 30.61 LIG 0.16  HD
ENDROOT
BRANCH 3 5
ATOM      5  CA  ILE C  37      50.705  54.879  16.131  1.00 31.48 LIG 0.18  C 
BRANCH 5 6
ATOM      6  C   ILE C  37      49.338  55.538  16.084  1.00 31.96 LIG 0.24  C 
ATOM      7 O    ILE C  37      48.312  54.856  16.043  1.00 31.93 LIG-0.27  OA
ATOM      8  N   LEU C  38      49.326  56.865  16.079  1.00 30.89 LIG-0.35  N 
ATOM      9 H    LEU C  38      50.033  57.355  16.066  1.00 30.89 LIG 0.16  HD
BRANCH 8 10
ATOM     10  CA  LEU C  38      48.073  57.605  16.096  1.00 34.88 LIG 0.18  C 
BRANCH 10 11
ATOM     11  C   LEU C  38      47.671  58.326  14.815  1.00 39.33 LIG 0.24  C 
ATOM     12 O    LEU C  38      46.489  58.444  14.494  1.00 37.11 LIG-0.27  OA
ATOM     13  N   SER C  39      48.678  58.806  14.091  1.00 40.29 LIG-0.34  N 
ATOM     14 H    SER C  39      49.502  58.752  14.330  1.00 40.29 LIG 0.16  HD
BRANCH 13 15
ATOM     15  CA  SER C  39      48.472  59.476  12.813  1.00 42.99 LIG 0.20  C 
BRANCH 15 16
ATOM     16  CB  SER C  39      49.801  59.973  12.231  1.00 41.70 LIG 0.20  C 
BRANCH 16 17
ATOM     17 OG   SER C  39      50.900  59.223  12.721  1.00 43.46 LIG-0.40  OA
ATOM     18 HG   SER C  39      50.720  58.404  12.683  1.00 43.46 LIG 0.21  HD
ENDBRANCH 16 17
ENDBRANCH 15 16
BRANCH 15 19
ATOM     19  C   SER C  39      47.885  58.401  11.904  1.00 43.99 LIG 0.24  C 
ATOM     20  N   LEU C  40      48.209  57.139  12.167  1.00 44.48 LIG-0.34  N 
ATOM     21 H    LEU C  40      48.725  56.896  12.811  1.00 44.48 LIG 0.16  HD
ATOM     22 O    SER C  39      47.146  58.719  10.972  1.00 44.86 LIG-0.27  OA
BRANCH 20 23
ATOM     23  CA  LEU C  40      47.694  56.045  11.353  1.00 50.99 LIG 0.18  C 
BRANCH 23 24
ATOM     24  C   LEU C  40      46.307  55.620  11.836  1.00 53.79 LIG 0.20  C 
ATOM     25 O    LEU C  40      46.035  55.771  13.047  1.00 58.34 LIG-0.65  OA
ATOM     26 OXT  LEU C  40      45.513  55.132  11.005  1.00 54.01 LIG-0.65  OA
ENDBRANCH 23 24
BRANCH 23 27
ATOM     27  CB  LEU C  40      48.659  54.857  11.415  1.00 48.71 LIG 0.04  C 
BRANCH 27 28
ATOM     28  CG  LEU C  40      49.051  54.161  10.111  1.00 48.98 LIG-0.02  C 
ATOM     29  CD2 LEU C  40      49.284  55.209   9.041  1.00 51.62 LIG 0.01  C 
ATOM     30  CD1 LEU C  40      47.952  53.201   9.679  1.00 51.55 LIG 0.01  C 
ENDBRANCH 27 28
ENDBRANCH 23 27
ENDBRANCH 20 23
ENDBRANCH 15 19
ENDBRANCH 13 15
ENDBRANCH 10 11
BRANCH 10 31
ATOM     31  CB  LEU C  38      48.101  58.609  17.245  1.00 30.69 LIG 0.04  C 
BRANCH 31 32
ATOM     32  CG  LEU C  38      48.233  58.008  18.647  1.00 36.50 LIG-0.02  C 
ATOM     33  CD2 LEU C  38      46.924  57.333  19.049  1.00 35.12 LIG 0.01  C 
ATOM     34  CD1 LEU C  38      48.599  59.109  19.634  1.00 37.99 LIG 0.01  C 
ENDBRANCH 31 32
ENDBRANCH 10 31
ENDBRANCH 8 10
ENDBRANCH 5 6
BRANCH 5 35
ATOM     35  CB  ILE C  37      51.302  55.058  17.534  1.00 37.32 LIG 0.01  C 
ATOM     36  CG2 ILE C  37      51.695  56.511  17.749  1.00 35.15 LIG 0.01  C 
BRANCH 35 37
ATOM     37  CG1 ILE C  37      50.289  54.593  18.582  1.00 33.54 LIG 0.00  C 
ATOM     38  CD1 ILE C  37      49.582  53.308  18.217  1.00 46.98 LIG 0.01  C 
ENDBRANCH 35 37
ENDBRANCH 5 35
ENDBRANCH 3 5
BRANCH 1 39
ATOM     39  CA  PRO C  36      52.357  56.135  12.940  1.00 32.35 LIG 0.18  C 
ATOM     40  CB  PRO C  36      51.673  56.475  11.614  1.00 32.18 LIG 0.04  C 
ATOM     41  CG  PRO C  36      52.175  55.408  10.689  1.00 32.63 LIG 0.02  C 
ATOM     42  CD  PRO C  36      53.636  55.299  11.057  1.00 32.64 LIG 0.13  C 
ATOM     43  N   PRO C  36      53.605  55.495  12.517  1.00 32.06 LIG-0.34  N 
ATOM     44  C   ARG C  35      54.550  55.215  13.421  1.00 32.74 LIG 0.24  C 
ATOM     45 O    ARG C  35      54.408  55.488  14.611  1.00 32.93 LIG-0.27  OA
BRANCH 44 46
ATOM     46  CA  ARG C  35      55.824  54.550  12.920  1.00 37.56 LIG 0.18  C 
BRANCH 46 47
ATOM     47  CB  ARG C  35      55.493  53.205  12.274  1.00 40.42 LIG 0.04  C 
BRANCH 47 48
ATOM     48  CG  ARG C  35      56.686  52.518  11.664  1.00 36.41 LIG 0.02  C 
BRANCH 48 49
ATOM     49  CD  ARG C  35      57.349  53.386  10.609  1.00 39.80 LIG 0.14  C 
BRANCH 49 50
ATOM     50  NE  ARG C  35      56.666  53.257   9.325  1.00 32.60 LIG-0.23  N 
ATOM     51 HE   ARG C  35      55.821  53.411   9.305  1.00 32.60 LIG 0.18  HD
ATOM     52  CZ  ARG C  35      57.261  52.919   8.186  1.00 32.33 LIG 0.67  C 
ATOM     53  NH2 ARG C  35      58.563  52.674   8.161  1.00 28.83 LIG-0.23  N 
ATOM     54  NH1 ARG C  35      56.548  52.829   7.072  1.00 30.81 LIG-0.23  N 
ATOM     55 2HH2 ARG C  35      58.945  52.455   7.423  1.00 28.83 LIG 0.17  HD
ATOM     56 1HH2 ARG C  35      59.026  52.733   8.884  1.00 28.83 LIG 0.17  HD
ATOM     57 1HH1 ARG C  35      55.703  52.990   7.088  1.00 30.81 LIG 0.17  HD
ATOM     58 2HH1 ARG C  35      56.930  52.611   6.333  1.00 30.81 LIG 0.17  HD
ENDBRANCH 49 50
ENDBRANCH 48 49
ENDBRANCH 47 48
ENDBRANCH 46 47
BRANCH 46 59
ATOM     59  N   ARG C  35      56.715  54.363  14.054  1.00 36.73 LIG-0.35  N 
ATOM     60  C   ASN C  34      57.587  55.307  14.391  1.00 40.82 LIG 0.26  C 
ATOM     61 O    ASN C  34      57.692  56.365  13.772  1.00 33.40 LIG-0.27  OA
ATOM     62 H    ARG C  35      56.625  53.613  14.467  1.00 36.73 LIG 0.16  HD
BRANCH 60 63
ATOM     63  CA  ASN C  34      58.467  55.022  15.602  1.00 41.08 LIG 0.41  C 
ATOM     64  N   ASN C  34      59.145  56.274  16.042  1.00 44.32 LIG 0.61  N 
BRANCH 63 65
ATOM     65  CB  ASN C  34      57.594  54.458  16.728  1.00 43.19 LIG 0.15  C 
BRANCH 65 66
ATOM     66  CG  ASN C  34      56.801  55.533  17.460  1.00 48.82 LIG 0.22  C 
ATOM     67  ND2 ASN C  34      57.313  55.981  18.603  1.00 46.77 LIG-0.37  N 
ATOM     68 21HD ASN C  34      56.903  56.591  19.048  1.00 46.77 LIG 0.16  HD
ATOM     69 22HD ASN C  34      58.055  55.660  18.897  1.00 46.77 LIG 0.16  HD
ATOM     70 OD1  ASN C  34      55.744  55.958  16.995  1.00 54.33 LIG-0.27  OA
ENDBRANCH 65 66
ENDBRANCH 63 65
ENDBRANCH 60 63
ENDBRANCH 46 59
ENDBRANCH 44 46
ENDBRANCH 1 39
TORSDOF 26
ENDMDL
MODEL 25
USER: ADFR SOLUTION from run 154
USER: SCORE 19.737611 LL:  -5.948 LR: -14.867 RR:   0.000 FEB:  -7.111
USER: RMSD 12.951773
USER: SEED 153
USER: STATUS no improvement in best in 6 clusters for 5 generations
USER: GENES 28
USER: genes 0 Translation |==|  0.64934 0.53004 0.57448
USER: genes 1 Rotation |==|  0.41284 0.01475 0.58121 0.51856
USER: genes 2 Torsion [C]-N--CA-[C] |==|  0.84994
USER: genes 3 Torsion [N]-CA--C-[N] |==|  0.92611
USER: genes 4 Torsion [C]-N--CA-[C] |==|  0.66195
USER: genes 5 Torsion [N]-CA--C-[N] |==|  0.15125
USER: genes 6 Torsion [C]-N--CA-[C] |==|  0.73388
USER: genes 7 Torsion [N]-CA--CB-[OG] |==|  0.06988
USER: genes 8 Torsion [CA]-CB--OG-[HG] |==|  0.87725
USER: genes 9 Torsion [N]-CA--C-[N] |==|  0.08058
USER: genes 10 Torsion [C]-N--CA-[C] |==|  0.63511
USER: genes 11 Torsion [N]-CA--C-[O] |==|  0.92132
USER: genes 12 Torsion [N]-CA--CB-[CG] |==|  0.66344
USER: genes 13 Torsion [CA]-CB--CG-[CD2] |==|  0.03907
USER: genes 14 Torsion [N]-CA--CB-[CG] |==|  0.60899
USER: genes 15 Torsion [CA]-CB--CG-[CD2] |==|  0.98314
USER: genes 16 Torsion [N]-CA--CB-[CG2] |==|  0.30589
USER: genes 17 Torsion [CA]-CB--CG1-[CD1] |==|  0.81638
USER: genes 18 Torsion [O]-C--CA-[CB] |==|  0.20330
USER: genes 19 Torsion [N]-C--CA-[N] |==|  0.47283
USER: genes 20 Torsion [C]-CA--CB-[CG] |==|  0.44535
USER: genes 21 Torsion [CA]-CB--CG-[CD] |==|  0.78873
USER: genes 22 Torsion [CB]-CG--CD-[NE] |==|  0.71510
USER: genes 23 Torsion [CG]-CD--NE-[CZ] |==|  0.73975
USER: genes 24 Torsion [C]-CA--N-[C] |==|  0.76366
USER: genes 25 Torsion [N]-C--CA-[N] |==|  0.80522
USER: genes 26 Torsion [C]-CA--CB-[CG] |==|  0.56982
USER: genes 27 Torsion [CA]-CB--CG-[ND2] |==|  0.72307
ROOT
ATOM      1  C   PRO C  36      52.257  55.620  14.433  1.00 34.41 LIG 0.24  C 
ATOM      2 O    PRO C  36      51.897  54.699  13.694  1.00 29.89 LIG-0.27  OA
ATOM      3  N   ILE C  37      51.717  55.855  15.626  1.00 30.61 LIG-0.35  N 
ATOM      4 H    ILE C  37      51.988  56.480  16.151  1.00 30.61 LIG 0.16  HD
ENDROOT
BRANCH 3 5
ATOM      5  CA  ILE C  37      50.609  55.077  16.163  1.00 31.48 LIG 0.18  C 
BRANCH 5 6
ATOM      6  C   ILE C  37      49.527  55.134  15.100  1.00 31.96 LIG 0.24  C 
ATOM      7 O    ILE C  37      48.699  54.228  14.995  1.00 31.93 LIG-0.27  OA
ATOM      8  N   LEU C  38      49.541  56.197  14.305  1.00 30.89 LIG-0.35  N 
ATOM      9 H    LEU C  38      50.135  56.818  14.338  1.00 30.89 LIG 0.16  HD
BRANCH 8 10
ATOM     10  CA  LEU C  38      48.517  56.389  13.289  1.00 34.88 LIG 0.18  C 
BRANCH 10 11
ATOM     11  C   LEU C  38      48.982  56.513  11.843  1.00 39.33 LIG 0.24  C 
ATOM     12 O    LEU C  38      48.665  57.480  11.151  1.00 37.11 LIG-0.27  OA
ATOM     13  N   SER C  39      49.744  55.515  11.402  1.00 40.29 LIG-0.34  N 
ATOM     14 H    SER C  39      49.993  54.855  11.894  1.00 40.29 LIG 0.16  HD
BRANCH 13 15
ATOM     15  CA  SER C  39      50.230  55.450  10.030  1.00 42.99 LIG 0.20  C 
BRANCH 15 16
ATOM     16  CB  SER C  39      51.623  54.812   9.968  1.00 41.70 LIG 0.20  C 
BRANCH 16 17
ATOM     17 OG   SER C  39      51.855  53.954  11.073  1.00 43.46 LIG-0.40  OA
ATOM     18 HG   SER C  39      51.590  54.326  11.778  1.00 43.46 LIG 0.21  HD
ENDBRANCH 16 17
ENDBRANCH 15 16
BRANCH 15 19
ATOM     19  C   SER C  39      49.225  54.560   9.306  1.00 43.99 LIG 0.24  C 
ATOM     20  N   LEU C  40      47.977  54.555   9.763  1.00 44.48 LIG-0.34  N 
ATOM     21 H    LEU C  40      47.706  55.020  10.435  1.00 44.48 LIG 0.16  HD
ATOM     22 O    SER C  39      49.586  53.881   8.344  1.00 44.86 LIG-0.27  OA
BRANCH 20 23
ATOM     23  CA  LEU C  40      46.949  53.736   9.134  1.00 50.99 LIG 0.18  C 
BRANCH 23 24
ATOM     24  C   LEU C  40      45.690  54.561   8.867  1.00 53.79 LIG 0.20  C 
ATOM     25 O    LEU C  40      45.452  55.530   9.621  1.00 58.34 LIG-0.65  OA
ATOM     26 OXT  LEU C  40      44.952  54.226   7.917  1.00 54.01 LIG-0.65  OA
ENDBRANCH 23 24
BRANCH 23 27
ATOM     27  CB  LEU C  40      46.615  52.544  10.037  1.00 48.71 LIG 0.04  C 
BRANCH 27 28
ATOM     28  CG  LEU C  40      46.802  51.130   9.486  1.00 48.98 LIG-0.02  C 
ATOM     29  CD2 LEU C  40      47.629  51.199   8.217  1.00 51.62 LIG 0.01  C 
ATOM     30  CD1 LEU C  40      45.449  50.496   9.200  1.00 51.55 LIG 0.01  C 
ENDBRANCH 27 28
ENDBRANCH 23 27
ENDBRANCH 20 23
ENDBRANCH 15 19
ENDBRANCH 13 15
ENDBRANCH 10 11
BRANCH 10 31
ATOM     31  CB  LEU C  38      47.678  57.612  13.650  1.00 30.69 LIG 0.04  C 
BRANCH 31 32
ATOM     32  CG  LEU C  38      46.177  57.488  13.383  1.00 36.50 LIG-0.02  C 
ATOM     33  CD2 LEU C  38      45.883  56.176  12.659  1.00 35.12 LIG 0.01  C 
ATOM     34  CD1 LEU C  38      45.712  58.679  12.554  1.00 37.99 LIG 0.01  C 
ENDBRANCH 31 32
ENDBRANCH 10 31
ENDBRANCH 8 10
ENDBRANCH 5 6
BRANCH 5 35
ATOM     35  CB  ILE C  37      50.075  55.701  17.459  1.00 37.32 LIG 0.01  C 
ATOM     36  CG2 ILE C  37      48.694  56.293  17.219  1.00 35.15 LIG 0.01  C 
BRANCH 35 37
ATOM     37  CG1 ILE C  37      50.044  54.642  18.561  1.00 33.54 LIG 0.00  C 
ATOM     38  CD1 ILE C  37      49.056  53.526  18.307  1.00 46.98 LIG 0.01  C 
ENDBRANCH 35 37
ENDBRANCH 5 35
ENDBRANCH 3 5
BRANCH 1 39
ATOM     39  CA  PRO C  36      53.388  56.564  14.028  1.00 32.35 LIG 0.18  C 
ATOM     40  CB  PRO C  36      52.961  57.543  12.933  1.00 32.18 LIG 0.04  C 
ATOM     41  CG  PRO C  36      53.392  56.855  11.674  1.00 32.63 LIG 0.02  C 
ATOM     42  CD  PRO C  36      54.748  56.297  12.039  1.00 32.64 LIG 0.13  C 
ATOM     43  N   PRO C  36      54.552  55.895  13.442  1.00 32.06 LIG-0.34  N 
ATOM     44  C   ARG C  35      55.302  55.082  14.194  1.00 32.74 LIG 0.24  C 
ATOM     45 O    ARG C  35      55.049  54.879  15.379  1.00 32.93 LIG-0.27  OA
BRANCH 44 46
ATOM     46  CA  ARG C  35      56.498  54.417  13.527  1.00 37.56 LIG 0.18  C 
BRANCH 46 47
ATOM     47  CB  ARG C  35      56.021  53.385  12.506  1.00 40.42 LIG 0.04  C 
BRANCH 47 48
ATOM     48  CG  ARG C  35      57.065  53.020  11.483  1.00 36.41 LIG 0.02  C 
BRANCH 48 49
ATOM     49  CD  ARG C  35      57.226  54.110  10.438  1.00 39.80 LIG 0.14  C 
BRANCH 49 50
ATOM     50  NE  ARG C  35      56.554  53.744   9.196  1.00 32.60 LIG-0.23  N 
ATOM     51 HE   ARG C  35      55.719  53.932   9.122  1.00 32.60 LIG 0.18  HD
ATOM     52  CZ  ARG C  35      57.144  53.139   8.170  1.00 32.33 LIG 0.67  C 
ATOM     53  NH2 ARG C  35      58.431  52.829   8.230  1.00 28.83 LIG-0.23  N 
ATOM     54  NH1 ARG C  35      56.442  52.849   7.084  1.00 30.81 LIG-0.23  N 
ATOM     55 2HH2 ARG C  35      58.810  52.438   7.565  1.00 28.83 LIG 0.17  HD
ATOM     56 1HH2 ARG C  35      58.887  53.019   8.934  1.00 28.83 LIG 0.17  HD
ATOM     57 1HH1 ARG C  35      55.607  53.051   7.045  1.00 30.81 LIG 0.17  HD
ATOM     58 2HH1 ARG C  35      56.821  52.458   6.418  1.00 30.81 LIG 0.17  HD
ENDBRANCH 49 50
ENDBRANCH 48 49
ENDBRANCH 47 48
ENDBRANCH 46 47
BRANCH 46 59
ATOM     59  N   ARG C  35      57.296  53.776  14.561  1.00 36.73 LIG-0.35  N 
ATOM     60  C   ASN C  34      58.207  54.468  15.237  1.00 40.82 LIG 0.26  C 
ATOM     61 O    ASN C  34      58.427  55.660  15.025  1.00 33.40 LIG-0.27  OA
ATOM     62 H    ARG C  35      57.126  52.942  14.686  1.00 36.73 LIG 0.16  HD
BRANCH 60 63
ATOM     63  CA  ASN C  34      58.981  53.711  16.309  1.00 41.08 LIG 0.41  C 
ATOM     64  N   ASN C  34      58.083  53.392  17.454  1.00 44.32 LIG 0.61  N 
BRANCH 63 65
ATOM     65  CB  ASN C  34      59.549  52.426  15.696  1.00 43.19 LIG 0.15  C 
BRANCH 65 66
ATOM     66  CG  ASN C  34      59.793  51.333  16.729  1.00 48.82 LIG 0.22  C 
ATOM     67  ND2 ASN C  34      61.044  51.183  17.157  1.00 46.77 LIG-0.37  N 
ATOM     68 21HD ASN C  34      61.228  50.582  17.744  1.00 46.77 LIG 0.16  HD
ATOM     69 22HD ASN C  34      61.668  51.687  16.847  1.00 46.77 LIG 0.16  HD
ATOM     70 OD1  ASN C  34      58.864  50.639  17.139  1.00 54.33 LIG-0.27  OA
ENDBRANCH 65 66
ENDBRANCH 63 65
ENDBRANCH 60 63
ENDBRANCH 46 59
ENDBRANCH 44 46
ENDBRANCH 1 39
TORSDOF 26
ENDMDL
MODEL 26
USER: ADFR SOLUTION from run 12
USER: SCORE 20.067484 LL:  -6.962 LR: -14.814 RR:   0.000 FEB:  -7.058
USER: RMSD 12.610664
USER: SEED 292053
USER: STATUS no improvement in best in 6 clusters for 5 generations
USER: GENES 28
USER: genes 0 Translation |==|  0.83526 0.29957 0.54182
USER: genes 1 Rotation |==|  0.44904 0.10287 0.77469 0.61930
USER: genes 2 Torsion [C]-N--CA-[C] |==|  0.58049
USER: genes 3 Torsion [N]-CA--C-[N] |==|  0.08507
USER: genes 4 Torsion [C]-N--CA-[C] |==|  0.75722
USER: genes 5 Torsion [N]-CA--C-[N] |==|  0.58562
USER: genes 6 Torsion [C]-N--CA-[C] |==|  0.84145
USER: genes 7 Torsion [N]-CA--CB-[OG] |==|  0.71060
USER: genes 8 Torsion [CA]-CB--OG-[HG] |==|  0.14090
USER: genes 9 Torsion [N]-CA--C-[N] |==|  0.41667
USER: genes 10 Torsion [C]-N--CA-[C] |==|  0.62520
USER: genes 11 Torsion [N]-CA--C-[O] |==|  0.86486
USER: genes 12 Torsion [N]-CA--CB-[CG] |==|  0.18373
USER: genes 13 Torsion [CA]-CB--CG-[CD2] |==|  0.68632
USER: genes 14 Torsion [N]-CA--CB-[CG] |==|  0.75072
USER: genes 15 Torsion [CA]-CB--CG-[CD2] |==|  0.18875
USER: genes 16 Torsion [N]-CA--CB-[CG2] |==|  0.74101
USER: genes 17 Torsion [CA]-CB--CG1-[CD1] |==|  0.68442
USER: genes 18 Torsion [O]-C--CA-[CB] |==|  0.70560
USER: genes 19 Torsion [N]-C--CA-[N] |==|  0.30445
USER: genes 20 Torsion [C]-CA--CB-[CG] |==|  0.86154
USER: genes 21 Torsion [CA]-CB--CG-[CD] |==|  0.67978
USER: genes 22 Torsion [CB]-CG--CD-[NE] |==|  0.63499
USER: genes 23 Torsion [CG]-CD--NE-[CZ] |==|  0.59116
USER: genes 24 Torsion [C]-CA--N-[C] |==|  0.77440
USER: genes 25 Torsion [N]-C--CA-[N] |==|  0.78841
USER: genes 26 Torsion [C]-CA--CB-[CG] |==|  0.55298
USER: genes 27 Torsion [CA]-CB--CG-[ND2] |==|  0.27637
ROOT
ATOM      1  C   PRO C  36      58.114  51.471  13.821  1.00 34.41 LIG 0.24  C 
ATOM      2 O    PRO C  36      57.678  50.370  14.170  1.00 29.89 LIG-0.27  OA
ATOM      3  N   ILE C  37      58.178  52.523  14.633  1.00 30.61 LIG-0.35  N 
ATOM      4 H    ILE C  37      58.508  53.282  14.396  1.00 30.61 LIG 0.16  HD
ENDROOT
BRANCH 3 5
ATOM      5  CA  ILE C  37      57.696  52.496  16.007  1.00 31.48 LIG 0.18  C 
BRANCH 5 6
ATOM      6  C   ILE C  37      57.272  53.922  16.311  1.00 31.96 LIG 0.24  C 
ATOM      7 O    ILE C  37      57.343  54.368  17.457  1.00 31.93 LIG-0.27  OA
ATOM      8  N   LEU C  38      56.823  54.632  15.284  1.00 30.89 LIG-0.35  N 
ATOM      9 H    LEU C  38      56.729  54.324  14.486  1.00 30.89 LIG 0.16  HD
BRANCH 8 10
ATOM     10  CA  LEU C  38      56.445  56.028  15.444  1.00 34.88 LIG 0.18  C 
BRANCH 10 11
ATOM     11  C   LEU C  38      55.012  56.319  15.874  1.00 39.33 LIG 0.24  C 
ATOM     12 O    LEU C  38      54.391  55.538  16.594  1.00 37.11 LIG-0.27  OA
ATOM     13  N   SER C  39      54.502  57.461  15.422  1.00 40.29 LIG-0.34  N 
ATOM     14 H    SER C  39      54.945  58.024  14.946  1.00 40.29 LIG 0.16  HD
BRANCH 13 15
ATOM     15  CA  SER C  39      53.129  57.867  15.696  1.00 42.99 LIG 0.20  C 
BRANCH 15 16
ATOM     16  CB  SER C  39      52.780  59.164  14.957  1.00 41.70 LIG 0.20  C 
BRANCH 16 17
ATOM     17 OG   SER C  39      52.764  60.278  15.833  1.00 43.46 LIG-0.40  OA
ATOM     18 HG   SER C  39      53.477  60.296  16.278  1.00 43.46 LIG 0.21  HD
ENDBRANCH 16 17
ENDBRANCH 15 16
BRANCH 15 19
ATOM     19  C   SER C  39      52.275  56.724  15.157  1.00 43.99 LIG 0.24  C 
ATOM     20  N   LEU C  40      51.113  56.495  15.761  1.00 44.48 LIG-0.34  N 
ATOM     21 H    LEU C  40      50.818  56.948  16.431  1.00 44.48 LIG 0.16  HD
ATOM     22 O    SER C  39      52.672  56.056  14.202  1.00 44.86 LIG-0.27  OA
BRANCH 20 23
ATOM     23  CA  LEU C  40      50.230  55.424  15.314  1.00 50.99 LIG 0.18  C 
BRANCH 23 24
ATOM     24  C   LEU C  40      48.785  55.915  15.236  1.00 53.79 LIG 0.20  C 
ATOM     25 O    LEU C  40      48.321  56.534  16.218  1.00 58.34 LIG-0.65  OA
ATOM     26 OXT  LEU C  40      48.130  55.667  14.202  1.00 54.01 LIG-0.65  OA
ENDBRANCH 23 24
BRANCH 23 27
ATOM     27  CB  LEU C  40      50.332  54.237  16.276  1.00 48.71 LIG 0.04  C 
BRANCH 27 28
ATOM     28  CG  LEU C  40      49.831  54.409  17.711  1.00 48.98 LIG-0.02  C 
ATOM     29  CD2 LEU C  40      51.012  54.340  18.658  1.00 51.62 LIG 0.01  C 
ATOM     30  CD1 LEU C  40      48.821  53.322  18.047  1.00 51.55 LIG 0.01  C 
ENDBRANCH 27 28
ENDBRANCH 23 27
ENDBRANCH 20 23
ENDBRANCH 15 19
ENDBRANCH 13 15
ENDBRANCH 10 11
BRANCH 10 31
ATOM     31  CB  LEU C  38      56.738  56.777  14.147  1.00 30.69 LIG 0.04  C 
BRANCH 31 32
ATOM     32  CG  LEU C  38      58.136  57.388  14.036  1.00 36.50 LIG-0.02  C 
ATOM     33  CD2 LEU C  38      59.183  56.280  13.938  1.00 35.12 LIG 0.01  C 
ATOM     34  CD1 LEU C  38      58.398  58.273  15.248  1.00 37.99 LIG 0.01  C 
ENDBRANCH 31 32
ENDBRANCH 10 31
ENDBRANCH 8 10
ENDBRANCH 5 6
BRANCH 5 35
ATOM     35  CB  ILE C  37      58.815  52.086  16.974  1.00 37.32 LIG 0.01  C 
ATOM     36  CG2 ILE C  37      58.774  50.584  17.207  1.00 35.15 LIG 0.01  C 
BRANCH 35 37
ATOM     37  CG1 ILE C  37      60.165  52.528  16.409  1.00 33.54 LIG 0.00  C 
ATOM     38  CD1 ILE C  37      61.071  51.380  16.026  1.00 46.98 LIG 0.01  C 
ENDBRANCH 35 37
ENDBRANCH 5 35
ENDBRANCH 3 5
BRANCH 1 39
ATOM     39  CA  PRO C  36      58.638  51.702  12.405  1.00 32.35 LIG 0.18  C 
ATOM     40  CB  PRO C  36      60.165  51.795  12.360  1.00 32.18 LIG 0.04  C 
ATOM     41  CG  PRO C  36      60.420  53.269  12.449  1.00 32.63 LIG 0.02  C 
ATOM     42  CD  PRO C  36      59.358  53.852  11.545  1.00 32.64 LIG 0.13  C 
ATOM     43  N   PRO C  36      58.210  52.967  11.801  1.00 32.06 LIG-0.34  N 
ATOM     44  C   ARG C  35      56.918  53.164  11.514  1.00 32.74 LIG 0.24  C 
ATOM     45 O    ARG C  35      56.067  52.305  11.735  1.00 32.93 LIG-0.27  OA
BRANCH 44 46
ATOM     46  CA  ARG C  35      56.536  54.498  10.888  1.00 37.56 LIG 0.18  C 
BRANCH 46 47
ATOM     47  CB  ARG C  35      55.367  55.119  11.653  1.00 40.42 LIG 0.04  C 
BRANCH 47 48
ATOM     48  CG  ARG C  35      54.216  54.173  11.869  1.00 36.41 LIG 0.02  C 
BRANCH 48 49
ATOM     49  CD  ARG C  35      52.969  54.638  11.137  1.00 39.80 LIG 0.14  C 
BRANCH 49 50
ATOM     50  NE  ARG C  35      51.807  54.614  12.021  1.00 32.60 LIG-0.23  N 
ATOM     51 HE   ARG C  35      51.935  54.784  12.854  1.00 32.60 LIG 0.18  HD
ATOM     52  CZ  ARG C  35      50.566  54.350  11.627  1.00 32.33 LIG 0.67  C 
ATOM     53  NH2 ARG C  35      50.314  54.085  10.354  1.00 28.83 LIG-0.23  N 
ATOM     54  NH1 ARG C  35      49.579  54.353  12.513  1.00 30.81 LIG-0.23  N 
ATOM     55 2HH2 ARG C  35      49.509  53.914  10.102  1.00 28.83 LIG 0.17  HD
ATOM     56 1HH2 ARG C  35      50.953  54.084   9.779  1.00 28.83 LIG 0.17  HD
ATOM     57 1HH1 ARG C  35      49.744  54.527  13.339  1.00 30.81 LIG 0.17  HD
ATOM     58 2HH1 ARG C  35      48.775  54.183  12.261  1.00 30.81 LIG 0.17  HD
ENDBRANCH 49 50
ENDBRANCH 48 49
ENDBRANCH 47 48
ENDBRANCH 46 47
BRANCH 46 59
ATOM     59  N   ARG C  35      56.165  54.259   9.501  1.00 36.73 LIG-0.35  N 
ATOM     60  C   ASN C  34      57.099  54.138   8.564  1.00 40.82 LIG 0.26  C 
ATOM     61 O    ASN C  34      58.302  54.227   8.809  1.00 33.40 LIG-0.27  OA
ATOM     62 H    ARG C  35      55.319  54.206   9.356  1.00 36.73 LIG 0.16  HD
BRANCH 60 63
ATOM     63  CA  ASN C  34      56.610  53.876   7.145  1.00 41.08 LIG 0.41  C 
ATOM     64  N   ASN C  34      56.186  52.454   7.009  1.00 44.32 LIG 0.61  N 
BRANCH 63 65
ATOM     65  CB  ASN C  34      55.441  54.818   6.841  1.00 43.19 LIG 0.15  C 
BRANCH 65 66
ATOM     66  CG  ASN C  34      54.591  54.350   5.667  1.00 48.82 LIG 0.22  C 
ATOM     67  ND2 ASN C  34      53.460  53.715   5.962  1.00 46.77 LIG-0.37  N 
ATOM     68 21HD ASN C  34      52.946  53.437   5.332  1.00 46.77 LIG 0.16  HD
ATOM     69 22HD ASN C  34      53.243  53.582   6.784  1.00 46.77 LIG 0.16  HD
ATOM     70 OD1  ASN C  34      54.948  54.566   4.510  1.00 54.33 LIG-0.27  OA
ENDBRANCH 65 66
ENDBRANCH 63 65
ENDBRANCH 60 63
ENDBRANCH 46 59
ENDBRANCH 44 46
ENDBRANCH 1 39
TORSDOF 26
ENDMDL
MODEL 27
USER: ADFR SOLUTION from run 98
USER: SCORE 19.852311 LL:  -6.447 LR: -14.796 RR:   0.000 FEB:  -7.040
USER: RMSD 12.443482
USER: SEED 97
USER: STATUS no improvement in best in 13 clusters for 5 generations
USER: GENES 28
USER: genes 0 Translation |==|  0.81090 0.40507 0.63008
USER: genes 1 Rotation |==|  0.63188 0.38030 0.96573 0.53704
USER: genes 2 Torsion [C]-N--CA-[C] |==|  0.57383
USER: genes 3 Torsion [N]-CA--C-[N] |==|  0.41329
USER: genes 4 Torsion [C]-N--CA-[C] |==|  0.77769
USER: genes 5 Torsion [N]-CA--C-[N] |==|  0.22458
USER: genes 6 Torsion [C]-N--CA-[C] |==|  0.71529
USER: genes 7 Torsion [N]-CA--CB-[OG] |==|  0.42734
USER: genes 8 Torsion [CA]-CB--OG-[HG] |==|  0.98347
USER: genes 9 Torsion [N]-CA--C-[N] |==|  0.03690
USER: genes 10 Torsion [C]-N--CA-[C] |==|  0.62990
USER: genes 11 Torsion [N]-CA--C-[O] |==|  0.37123
USER: genes 12 Torsion [N]-CA--CB-[CG] |==|  0.69280
USER: genes 13 Torsion [CA]-CB--CG-[CD2] |==|  0.22613
USER: genes 14 Torsion [N]-CA--CB-[CG] |==|  0.66662
USER: genes 15 Torsion [CA]-CB--CG-[CD2] |==|  0.31025
USER: genes 16 Torsion [N]-CA--CB-[CG2] |==|  0.27759
USER: genes 17 Torsion [CA]-CB--CG1-[CD1] |==|  0.07385
USER: genes 18 Torsion [O]-C--CA-[CB] |==|  0.95058
USER: genes 19 Torsion [N]-C--CA-[N] |==|  0.52100
USER: genes 20 Torsion [C]-CA--CB-[CG] |==|  0.44843
USER: genes 21 Torsion [CA]-CB--CG-[CD] |==|  0.92840
USER: genes 22 Torsion [CB]-CG--CD-[NE] |==|  0.24863
USER: genes 23 Torsion [CG]-CD--NE-[CZ] |==|  0.34963
USER: genes 24 Torsion [C]-CA--N-[C] |==|  0.17927
USER: genes 25 Torsion [N]-C--CA-[N] |==|  0.94304
USER: genes 26 Torsion [C]-CA--CB-[CG] |==|  0.78553
USER: genes 27 Torsion [CA]-CB--CG-[ND2] |==|  0.18714
ROOT
ATOM      1  C   PRO C  36      57.346  53.370  15.476  1.00 34.41 LIG 0.24  C 
ATOM      2 O    PRO C  36      57.993  53.478  16.522  1.00 29.89 LIG-0.27  OA
ATOM      3  N   ILE C  37      56.411  54.238  15.100  1.00 30.61 LIG-0.35  N 
ATOM      4 H    ILE C  37      55.982  54.176  14.357  1.00 30.61 LIG 0.16  HD
ENDROOT
BRANCH 3 5
ATOM      5  CA  ILE C  37      56.020  55.384  15.911  1.00 31.48 LIG 0.18  C 
BRANCH 5 6
ATOM      6  C   ILE C  37      54.586  55.684  15.514  1.00 31.96 LIG 0.24  C 
ATOM      7 O    ILE C  37      54.191  55.467  14.367  1.00 31.93 LIG-0.27  OA
ATOM      8  N   LEU C  38      53.809  56.194  16.462  1.00 30.89 LIG-0.35  N 
ATOM      9 H    LEU C  38      54.079  56.389  17.255  1.00 30.89 LIG 0.16  HD
BRANCH 8 10
ATOM     10  CA  LEU C  38      52.401  56.465  16.215  1.00 34.88 LIG 0.18  C 
BRANCH 10 11
ATOM     11  C   LEU C  38      52.059  57.749  15.467  1.00 39.33 LIG 0.24  C 
ATOM     12 O    LEU C  38      51.695  58.759  16.068  1.00 37.11 LIG-0.27  OA
ATOM     13  N   SER C  39      52.185  57.689  14.145  1.00 40.29 LIG-0.34  N 
ATOM     14 H    SER C  39      52.470  56.994  13.726  1.00 40.29 LIG 0.16  HD
BRANCH 13 15
ATOM     15  CA  SER C  39      51.848  58.810  13.276  1.00 42.99 LIG 0.20  C 
BRANCH 15 16
ATOM     16  CB  SER C  39      52.878  58.963  12.150  1.00 41.70 LIG 0.20  C 
BRANCH 16 17
ATOM     17 OG   SER C  39      52.316  59.590  11.008  1.00 43.46 LIG-0.40  OA
ATOM     18 HG   SER C  39      51.490  59.694  11.123  1.00 43.46 LIG 0.21  HD
ENDBRANCH 16 17
ENDBRANCH 15 16
BRANCH 15 19
ATOM     19  C   SER C  39      50.491  58.444  12.684  1.00 43.99 LIG 0.24  C 
ATOM     20  N   LEU C  40      49.833  57.436  13.247  1.00 44.48 LIG-0.34  N 
ATOM     21 H    LEU C  40      50.125  56.983  13.918  1.00 44.48 LIG 0.16  HD
ATOM     22 O    SER C  39      50.050  59.073  11.721  1.00 44.86 LIG-0.27  OA
BRANCH 20 23
ATOM     23  CA  LEU C  40      48.529  57.016  12.749  1.00 50.99 LIG 0.18  C 
BRANCH 23 24
ATOM     24  C   LEU C  40      47.545  56.831  13.904  1.00 53.79 LIG 0.20  C 
ATOM     25 O    LEU C  40      46.402  57.325  13.787  1.00 58.34 LIG-0.65  OA
ATOM     26 OXT  LEU C  40      47.928  56.204  14.914  1.00 54.01 LIG-0.65  OA
ENDBRANCH 23 24
BRANCH 23 27
ATOM     27  CB  LEU C  40      48.673  55.708  11.965  1.00 48.71 LIG 0.04  C 
BRANCH 27 28
ATOM     28  CG  LEU C  40      48.470  55.735  10.449  1.00 48.98 LIG-0.02  C 
ATOM     29  CD2 LEU C  40      49.747  56.213   9.788  1.00 51.62 LIG 0.01  C 
ATOM     30  CD1 LEU C  40      47.313  56.656  10.091  1.00 51.55 LIG 0.01  C 
ENDBRANCH 27 28
ENDBRANCH 23 27
ENDBRANCH 20 23
ENDBRANCH 15 19
ENDBRANCH 13 15
ENDBRANCH 10 11
BRANCH 10 31
ATOM     31  CB  LEU C  38      51.647  56.444  17.541  1.00 30.69 LIG 0.04  C 
BRANCH 31 32
ATOM     32  CG  LEU C  38      50.529  55.405  17.652  1.00 36.50 LIG-0.02  C 
ATOM     33  CD2 LEU C  38      50.916  54.329  18.664  1.00 35.12 LIG 0.01  C 
ATOM     34  CD1 LEU C  38      50.275  54.791  16.281  1.00 37.99 LIG 0.01  C 
ENDBRANCH 31 32
ENDBRANCH 10 31
ENDBRANCH 8 10
ENDBRANCH 5 6
BRANCH 5 35
ATOM     35  CB  ILE C  37      56.895  56.605  15.596  1.00 37.32 LIG 0.01  C 
ATOM     36  CG2 ILE C  37      56.155  57.545  14.658  1.00 35.15 LIG 0.01  C 
BRANCH 35 37
ATOM     37  CG1 ILE C  37      57.281  57.305  16.900  1.00 33.54 LIG 0.00  C 
ATOM     38  CD1 ILE C  37      57.303  56.388  18.101  1.00 46.98 LIG 0.01  C 
ENDBRANCH 35 37
ENDBRANCH 5 35
ENDBRANCH 3 5
BRANCH 1 39
ATOM     39  CA  PRO C  36      57.594  52.214  14.509  1.00 32.35 LIG 0.18  C 
ATOM     40  CB  PRO C  36      58.942  51.533  14.752  1.00 32.18 LIG 0.04  C 
ATOM     41  CG  PRO C  36      59.856  52.231  13.792  1.00 32.63 LIG 0.02  C 
ATOM     42  CD  PRO C  36      59.010  52.351  12.545  1.00 32.64 LIG 0.13  C 
ATOM     43  N   PRO C  36      57.671  52.611  13.101  1.00 32.06 LIG-0.34  N 
ATOM     44  C   ARG C  35      56.586  53.089  12.483  1.00 32.74 LIG 0.24  C 
ATOM     45 O    ARG C  35      55.508  53.202  13.062  1.00 32.93 LIG-0.27  OA
BRANCH 44 46
ATOM     46  CA  ARG C  35      56.729  53.484  11.020  1.00 37.56 LIG 0.18  C 
BRANCH 46 47
ATOM     47  CB  ARG C  35      57.920  54.428  10.847  1.00 40.42 LIG 0.04  C 
BRANCH 47 48
ATOM     48  CG  ARG C  35      58.414  54.523   9.427  1.00 36.41 LIG 0.02  C 
BRANCH 48 49
ATOM     49  CD  ARG C  35      58.083  53.268   8.638  1.00 39.80 LIG 0.14  C 
BRANCH 49 50
ATOM     50  NE  ARG C  35      56.776  53.384   7.999  1.00 32.60 LIG-0.23  N 
ATOM     51 HE   ARG C  35      56.104  53.580   8.498  1.00 32.60 LIG 0.18  HD
ATOM     52  CZ  ARG C  35      56.553  53.210   6.701  1.00 32.33 LIG 0.67  C 
ATOM     53  NH2 ARG C  35      57.555  52.910   5.888  1.00 28.83 LIG-0.23  N 
ATOM     54  NH1 ARG C  35      55.324  53.338   6.220  1.00 30.81 LIG-0.23  N 
ATOM     55 2HH2 ARG C  35      57.408  52.798   5.048  1.00 28.83 LIG 0.17  HD
ATOM     56 1HH2 ARG C  35      58.353  52.828   6.199  1.00 28.83 LIG 0.17  HD
ATOM     57 1HH1 ARG C  35      54.674  53.534   6.749  1.00 30.81 LIG 0.17  HD
ATOM     58 2HH1 ARG C  35      55.177  53.225   5.381  1.00 30.81 LIG 0.17  HD
ENDBRANCH 49 50
ENDBRANCH 48 49
ENDBRANCH 47 48
ENDBRANCH 46 47
BRANCH 46 59
ATOM     59  N   ARG C  35      55.499  54.139  10.603  1.00 36.73 LIG-0.35  N 
ATOM     60  C   ASN C  34      55.131  55.294  11.146  1.00 40.82 LIG 0.26  C 
ATOM     61 O    ASN C  34      55.791  55.858  12.017  1.00 33.40 LIG-0.27  OA
ATOM     62 H    ARG C  35      55.053  53.721   9.997  1.00 36.73 LIG 0.16  HD
BRANCH 60 63
ATOM     63  CA  ASN C  34      53.833  55.906  10.633  1.00 41.08 LIG 0.41  C 
ATOM     64  N   ASN C  34      53.498  55.339   9.296  1.00 44.32 LIG 0.61  N 
BRANCH 63 65
ATOM     65  CB  ASN C  34      52.714  55.611  11.638  1.00 43.19 LIG 0.15  C 
BRANCH 65 66
ATOM     66  CG  ASN C  34      52.196  54.182  11.547  1.00 48.82 LIG 0.22  C 
ATOM     67  ND2 ASN C  34      53.034  53.216  11.912  1.00 46.77 LIG-0.37  N 
ATOM     68 21HD ASN C  34      52.783  52.394  11.881  1.00 46.77 LIG 0.16  HD
ATOM     69 22HD ASN C  34      53.828  53.414  12.178  1.00 46.77 LIG 0.16  HD
ATOM     70 OD1  ASN C  34      51.050  53.955  11.159  1.00 54.33 LIG-0.27  OA
ENDBRANCH 65 66
ENDBRANCH 63 65
ENDBRANCH 60 63
ENDBRANCH 46 59
ENDBRANCH 44 46
ENDBRANCH 1 39
TORSDOF 26
ENDMDL
MODEL 28
USER: ADFR SOLUTION from run 168
USER: SCORE 19.372785 LL:  -6.165 LR: -14.778 RR:   0.000 FEB:  -7.022
USER: RMSD 12.419124
USER: SEED 167
USER: STATUS no improvement in best in 1 clusters for 5 generations
USER: GENES 28
USER: genes 0 Translation |==|  0.81096 0.50027 0.65950
USER: genes 1 Rotation |==|  0.97365 0.56367 0.64644 0.51253
USER: genes 2 Torsion [C]-N--CA-[C] |==|  0.23206
USER: genes 3 Torsion [N]-CA--C-[N] |==|  0.98143
USER: genes 4 Torsion [C]-N--CA-[C] |==|  0.77490
USER: genes 5 Torsion [N]-CA--C-[N] |==|  0.45750
USER: genes 6 Torsion [C]-N--CA-[C] |==|  0.77285
USER: genes 7 Torsion [N]-CA--CB-[OG] |==|  0.94922
USER: genes 8 Torsion [CA]-CB--OG-[HG] |==|  0.49966
USER: genes 9 Torsion [N]-CA--C-[N] |==|  0.96567
USER: genes 10 Torsion [C]-N--CA-[C] |==|  0.20974
USER: genes 11 Torsion [N]-CA--C-[O] |==|  0.41256
USER: genes 12 Torsion [N]-CA--CB-[CG] |==|  0.76604
USER: genes 13 Torsion [CA]-CB--CG-[CD2] |==|  0.55072
USER: genes 14 Torsion [N]-CA--CB-[CG] |==|  0.65964
USER: genes 15 Torsion [CA]-CB--CG-[CD2] |==|  0.09206
USER: genes 16 Torsion [N]-CA--CB-[CG2] |==|  0.30583
USER: genes 17 Torsion [CA]-CB--CG1-[CD1] |==|  0.75090
USER: genes 18 Torsion [O]-C--CA-[CB] |==|  0.27655
USER: genes 19 Torsion [N]-C--CA-[N] |==|  0.46651
USER: genes 20 Torsion [C]-CA--CB-[CG] |==|  0.37765
USER: genes 21 Torsion [CA]-CB--CG-[CD] |==|  0.38607
USER: genes 22 Torsion [CB]-CG--CD-[NE] |==|  0.76968
USER: genes 23 Torsion [CG]-CD--NE-[CZ] |==|  0.59939
USER: genes 24 Torsion [C]-CA--N-[C] |==|  0.18586
USER: genes 25 Torsion [N]-C--CA-[N] |==|  0.75942
USER: genes 26 Torsion [C]-CA--CB-[CG] |==|  0.27500
USER: genes 27 Torsion [CA]-CB--CG-[ND2] |==|  0.36941
ROOT
ATOM      1  C   PRO C  36      57.348  55.084  16.028  1.00 34.41 LIG 0.24  C 
ATOM      2 O    PRO C  36      57.768  55.780  15.099  1.00 29.89 LIG-0.27  OA
ATOM      3  N   ILE C  37      57.117  55.556  17.250  1.00 30.61 LIG-0.35  N 
ATOM      4 H    ILE C  37      56.798  55.075  17.888  1.00 30.61 LIG 0.16  HD
ENDROOT
BRANCH 3 5
ATOM      5  CA  ILE C  37      57.382  56.936  17.631  1.00 31.48 LIG 0.18  C 
BRANCH 5 6
ATOM      6  C   ILE C  37      56.158  57.717  17.185  1.00 31.96 LIG 0.24  C 
ATOM      7 O    ILE C  37      56.024  58.903  17.488  1.00 31.93 LIG-0.27  OA
ATOM      8  N   LEU C  38      55.261  57.045  16.475  1.00 30.89 LIG-0.35  N 
ATOM      9 H    LEU C  38      55.319  56.207  16.289  1.00 30.89 LIG 0.16  HD
BRANCH 8 10
ATOM     10  CA  LEU C  38      54.078  57.704  15.943  1.00 34.88 LIG 0.18  C 
BRANCH 10 11
ATOM     11  C   LEU C  38      52.905  57.908  16.894  1.00 39.33 LIG 0.24  C 
ATOM     12 O    LEU C  38      52.838  57.302  17.963  1.00 37.11 LIG-0.27  OA
ATOM     13  N   SER C  39      51.984  58.776  16.486  1.00 40.29 LIG-0.34  N 
ATOM     14 H    SER C  39      52.045  59.225  15.754  1.00 40.29 LIG 0.16  HD
BRANCH 13 15
ATOM     15  CA  SER C  39      50.773  59.050  17.250  1.00 42.99 LIG 0.20  C 
BRANCH 15 16
ATOM     16  CB  SER C  39      50.154  60.392  16.841  1.00 41.70 LIG 0.20  C 
BRANCH 16 17
ATOM     17 OG   SER C  39      51.087  61.212  16.157  1.00 43.46 LIG-0.40  OA
ATOM     18 HG   SER C  39      50.720  61.937  15.945  1.00 43.46 LIG 0.21  HD
ENDBRANCH 16 17
ENDBRANCH 15 16
BRANCH 15 19
ATOM     19  C   SER C  39      49.823  57.914  16.886  1.00 43.99 LIG 0.24  C 
ATOM     20  N   LEU C  40      50.156  57.150  15.851  1.00 44.48 LIG-0.34  N 
ATOM     21 H    LEU C  40      50.868  57.257  15.380  1.00 44.48 LIG 0.16  HD
ATOM     22 O    SER C  39      48.794  57.738  17.541  1.00 44.86 LIG-0.27  OA
BRANCH 20 23
ATOM     23  CA  LEU C  40      49.309  56.041  15.431  1.00 50.99 LIG 0.18  C 
BRANCH 23 24
ATOM     24  C   LEU C  40      48.075  56.555  14.690  1.00 53.79 LIG 0.20  C 
ATOM     25 O    LEU C  40      47.590  55.837  13.788  1.00 58.34 LIG-0.65  OA
ATOM     26 OXT  LEU C  40      47.613  57.670  15.010  1.00 54.01 LIG-0.65  OA
ENDBRANCH 23 24
BRANCH 23 27
ATOM     27  CB  LEU C  40      48.884  55.223  16.655  1.00 48.71 LIG 0.04  C 
BRANCH 27 28
ATOM     28  CG  LEU C  40      49.831  54.143  17.180  1.00 48.98 LIG-0.02  C 
ATOM     29  CD2 LEU C  40      49.051  53.190  18.065  1.00 51.62 LIG 0.01  C 
ATOM     30  CD1 LEU C  40      50.968  54.780  17.966  1.00 51.55 LIG 0.01  C 
ENDBRANCH 27 28
ENDBRANCH 23 27
ENDBRANCH 20 23
ENDBRANCH 15 19
ENDBRANCH 13 15
ENDBRANCH 10 11
BRANCH 10 31
ATOM     31  CB  LEU C  38      53.594  56.944  14.710  1.00 30.69 LIG 0.04  C 
BRANCH 31 32
ATOM     32  CG  LEU C  38      53.501  57.764  13.421  1.00 36.50 LIG-0.02  C 
ATOM     33  CD2 LEU C  38      54.598  58.825  13.399  1.00 35.12 LIG 0.01  C 
ATOM     34  CD1 LEU C  38      52.123  58.409  13.332  1.00 37.99 LIG 0.01  C 
ENDBRANCH 31 32
ENDBRANCH 10 31
ENDBRANCH 8 10
ENDBRANCH 5 6
BRANCH 5 35
ATOM     35  CB  ILE C  37      58.618  57.481  16.902  1.00 37.32 LIG 0.01  C 
ATOM     36  CG2 ILE C  37      58.199  58.523  15.877  1.00 35.15 LIG 0.01  C 
BRANCH 35 37
ATOM     37  CG1 ILE C  37      59.597  58.062  17.923  1.00 33.54 LIG 0.00  C 
ATOM     38  CD1 ILE C  37      59.370  59.527  18.219  1.00 46.98 LIG 0.01  C 
ENDBRANCH 35 37
ENDBRANCH 5 35
ENDBRANCH 3 5
BRANCH 1 39
ATOM     39  CA  PRO C  36      57.041  53.601  15.828  1.00 32.35 LIG 0.18  C 
ATOM     40  CB  PRO C  36      58.171  52.701  16.331  1.00 32.18 LIG 0.04  C 
ATOM     41  CG  PRO C  36      58.990  52.462  15.099  1.00 32.63 LIG 0.02  C 
ATOM     42  CD  PRO C  36      57.942  52.244  14.032  1.00 32.64 LIG 0.13  C 
ATOM     43  N   PRO C  36      56.892  53.198  14.428  1.00 32.06 LIG-0.34  N 
ATOM     44  C   ARG C  35      55.864  53.660  13.707  1.00 32.74 LIG 0.24  C 
ATOM     45 O    ARG C  35      55.023  54.416  14.188  1.00 32.93 LIG-0.27  OA
BRANCH 44 46
ATOM     46  CA  ARG C  35      55.765  53.205  12.257  1.00 37.56 LIG 0.18  C 
BRANCH 46 47
ATOM     47  CB  ARG C  35      56.863  53.866  11.425  1.00 40.42 LIG 0.04  C 
BRANCH 47 48
ATOM     48  CG  ARG C  35      57.555  52.921  10.478  1.00 36.41 LIG 0.02  C 
BRANCH 48 49
ATOM     49  CD  ARG C  35      57.811  53.572   9.130  1.00 39.80 LIG 0.14  C 
BRANCH 49 50
ATOM     50  NE  ARG C  35      56.625  53.498   8.282  1.00 32.60 LIG-0.23  N 
ATOM     51 HE   ARG C  35      55.858  53.573   8.662  1.00 32.60 LIG 0.18  HD
ATOM     52  CZ  ARG C  35      56.650  53.323   6.966  1.00 32.33 LIG 0.67  C 
ATOM     53  NH2 ARG C  35      57.807  53.204   6.331  1.00 28.83 LIG-0.23  N 
ATOM     54  NH1 ARG C  35      55.513  53.268   6.287  1.00 30.81 LIG-0.23  N 
ATOM     55 2HH2 ARG C  35      57.820  53.091   5.479  1.00 28.83 LIG 0.17  HD
ATOM     56 1HH2 ARG C  35      58.545  53.241   6.771  1.00 28.83 LIG 0.17  HD
ATOM     57 1HH1 ARG C  35      54.762  53.346   6.699  1.00 30.81 LIG 0.17  HD
ATOM     58 2HH1 ARG C  35      55.525  53.155   5.434  1.00 30.81 LIG 0.17  HD
ENDBRANCH 49 50
ENDBRANCH 48 49
ENDBRANCH 47 48
ENDBRANCH 46 47
BRANCH 46 59
ATOM     59  N   ARG C  35      54.452  53.578  11.753  1.00 36.73 LIG-0.35  N 
ATOM     60  C   ASN C  34      54.126  54.857  11.601  1.00 40.82 LIG 0.26  C 
ATOM     61 O    ASN C  34      54.895  55.776  11.879  1.00 33.40 LIG-0.27  OA
ATOM     62 H    ARG C  35      53.932  52.917  11.572  1.00 36.73 LIG 0.16  HD
BRANCH 60 63
ATOM     63  CA  ASN C  34      52.733  55.144  11.054  1.00 41.08 LIG 0.41  C 
ATOM     64  N   ASN C  34      52.760  55.132   9.564  1.00 44.32 LIG 0.61  N 
BRANCH 63 65
ATOM     65  CB  ASN C  34      51.763  54.082  11.584  1.00 43.19 LIG 0.15  C 
BRANCH 65 66
ATOM     66  CG  ASN C  34      50.954  54.561  12.782  1.00 48.82 LIG 0.22  C 
ATOM     67  ND2 ASN C  34      49.644  54.329  12.752  1.00 46.77 LIG-0.37  N 
ATOM     68 21HD ASN C  34      49.149  54.578  13.409  1.00 46.77 LIG 0.16  HD
ATOM     69 22HD ASN C  34      49.294  53.931  12.075  1.00 46.77 LIG 0.16  HD
ATOM     70 OD1  ASN C  34      51.506  55.127  13.724  1.00 54.33 LIG-0.27  OA
ENDBRANCH 65 66
ENDBRANCH 63 65
ENDBRANCH 60 63
ENDBRANCH 46 59
ENDBRANCH 44 46
ENDBRANCH 1 39
TORSDOF 26
ENDMDL
MODEL 29
USER: ADFR SOLUTION from run 93
USER: SCORE 21.037000 LL:  -6.911 LR: -14.769 RR:   0.000 FEB:  -7.014
USER: RMSD 12.753886
USER: SEED 92
USER: STATUS no improvement in best in 2 clusters for 5 generations
USER: GENES 28
USER: genes 0 Translation |==|  0.67781 0.56840 0.66414
USER: genes 1 Rotation |==|  0.62006 0.97729 0.56813 0.55598
USER: genes 2 Torsion [C]-N--CA-[C] |==|  0.69053
USER: genes 3 Torsion [N]-CA--C-[N] |==|  0.95065
USER: genes 4 Torsion [C]-N--CA-[C] |==|  0.79910
USER: genes 5 Torsion [N]-CA--C-[N] |==|  0.92644
USER: genes 6 Torsion [C]-N--CA-[C] |==|  0.77841
USER: genes 7 Torsion [N]-CA--CB-[OG] |==|  0.01146
USER: genes 8 Torsion [CA]-CB--OG-[HG] |==|  0.34918
USER: genes 9 Torsion [N]-CA--C-[N] |==|  0.95712
USER: genes 10 Torsion [C]-N--CA-[C] |==|  0.72787
USER: genes 11 Torsion [N]-CA--C-[O] |==|  0.05423
USER: genes 12 Torsion [N]-CA--CB-[CG] |==|  0.97551
USER: genes 13 Torsion [CA]-CB--CG-[CD2] |==|  0.80132
USER: genes 14 Torsion [N]-CA--CB-[CG] |==|  0.93444
USER: genes 15 Torsion [CA]-CB--CG-[CD2] |==|  0.59864
USER: genes 16 Torsion [N]-CA--CB-[CG2] |==|  0.11065
USER: genes 17 Torsion [CA]-CB--CG1-[CD1] |==|  0.50059
USER: genes 18 Torsion [O]-C--CA-[CB] |==|  0.25217
USER: genes 19 Torsion [N]-C--CA-[N] |==|  0.23763
USER: genes 20 Torsion [C]-CA--CB-[CG] |==|  0.26171
USER: genes 21 Torsion [CA]-CB--CG-[CD] |==|  0.92961
USER: genes 22 Torsion [CB]-CG--CD-[NE] |==|  0.41024
USER: genes 23 Torsion [CG]-CD--NE-[CZ] |==|  0.17002
USER: genes 24 Torsion [C]-CA--N-[C] |==|  0.72222
USER: genes 25 Torsion [N]-C--CA-[N] |==|  0.41370
USER: genes 26 Torsion [C]-CA--CB-[CG] |==|  0.05283
USER: genes 27 Torsion [CA]-CB--CG-[ND2] |==|  0.21807
ROOT
ATOM      1  C   PRO C  36      53.154  56.310  16.115  1.00 34.41 LIG 0.24  C 
ATOM      2 O    PRO C  36      53.141  55.937  14.938  1.00 29.89 LIG-0.27  OA
ATOM      3  N   ILE C  37      52.164  56.070  16.970  1.00 30.61 LIG-0.35  N 
ATOM      4 H    ILE C  37      52.187  56.306  17.796  1.00 30.61 LIG 0.16  HD
ENDROOT
BRANCH 3 5
ATOM      5  CA  ILE C  37      50.938  55.380  16.591  1.00 31.48 LIG 0.18  C 
BRANCH 5 6
ATOM      6  C   ILE C  37      49.847  56.434  16.661  1.00 31.96 LIG 0.24  C 
ATOM      7 O    ILE C  37      48.770  56.264  16.088  1.00 31.93 LIG-0.27  OA
ATOM      8  N   LEU C  38      50.132  57.528  17.356  1.00 30.89 LIG-0.35  N 
ATOM      9 H    LEU C  38      50.893  57.681  17.728  1.00 30.89 LIG 0.16  HD
BRANCH 8 10
ATOM     10  CA  LEU C  38      49.143  58.579  17.542  1.00 34.88 LIG 0.18  C 
BRANCH 10 11
ATOM     11  C   LEU C  38      48.808  59.445  16.334  1.00 39.33 LIG 0.24  C 
ATOM     12 O    LEU C  38      47.715  59.999  16.230  1.00 37.11 LIG-0.27  OA
ATOM     13  N   SER C  39      49.772  59.551  15.424  1.00 40.29 LIG-0.34  N 
ATOM     14 H    SER C  39      50.549  59.191  15.510  1.00 40.29 LIG 0.16  HD
BRANCH 13 15
ATOM     15  CA  SER C  39      49.599  60.298  14.184  1.00 42.99 LIG 0.20  C 
BRANCH 15 16
ATOM     16  CB  SER C  39      50.953  60.632  13.548  1.00 41.70 LIG 0.20  C 
BRANCH 16 17
ATOM     17 OG   SER C  39      52.028  60.054  14.269  1.00 43.46 LIG-0.40  OA
ATOM     18 HG   SER C  39      52.501  59.594  13.749  1.00 43.46 LIG 0.21  HD
ENDBRANCH 16 17
ENDBRANCH 15 16
BRANCH 15 19
ATOM     19  C   SER C  39      48.823  59.354  13.271  1.00 43.99 LIG 0.24  C 
ATOM     20  N   LEU C  40      48.772  58.073  13.622  1.00 44.48 LIG-0.34  N 
ATOM     21 H    LEU C  40      49.148  57.748  14.325  1.00 44.48 LIG 0.16  HD
ATOM     22 O    SER C  39      48.277  59.789  12.257  1.00 44.86 LIG-0.27  OA
BRANCH 20 23
ATOM     23  CA  LEU C  40      48.053  57.098  12.812  1.00 50.99 LIG 0.18  C 
BRANCH 23 24
ATOM     24  C   LEU C  40      46.659  56.845  13.384  1.00 53.79 LIG 0.20  C 
ATOM     25 O    LEU C  40      46.179  57.699  14.162  1.00 58.34 LIG-0.65  OA
ATOM     26 OXT  LEU C  40      46.066  55.795  13.060  1.00 54.01 LIG-0.65  OA
ENDBRANCH 23 24
BRANCH 23 27
ATOM     27  CB  LEU C  40      48.845  55.788  12.756  1.00 48.71 LIG 0.04  C 
BRANCH 27 28
ATOM     28  CG  LEU C  40      50.263  55.762  13.327  1.00 48.98 LIG-0.02  C 
ATOM     29  CD2 LEU C  40      51.181  56.544  12.408  1.00 51.62 LIG 0.01  C 
ATOM     30  CD1 LEU C  40      50.748  54.326  13.460  1.00 51.55 LIG 0.01  C 
ENDBRANCH 27 28
ENDBRANCH 23 27
ENDBRANCH 20 23
ENDBRANCH 15 19
ENDBRANCH 13 15
ENDBRANCH 10 11
BRANCH 10 31
ATOM     31  CB  LEU C  38      49.581  59.479  18.695  1.00 30.69 LIG 0.04  C 
BRANCH 31 32
ATOM     32  CG  LEU C  38      50.531  58.841  19.710  1.00 36.50 LIG-0.02  C 
ATOM     33  CD2 LEU C  38      50.225  59.364  21.111  1.00 35.12 LIG 0.01  C 
ATOM     34  CD1 LEU C  38      51.970  59.154  19.319  1.00 37.99 LIG 0.01  C 
ENDBRANCH 31 32
ENDBRANCH 10 31
ENDBRANCH 8 10
ENDBRANCH 5 6
BRANCH 5 35
ATOM     35  CB  ILE C  37      50.613  54.253  17.580  1.00 37.32 LIG 0.01  C 
ATOM     36  CG2 ILE C  37      50.916  54.706  19.000  1.00 35.15 LIG 0.01  C 
BRANCH 35 37
ATOM     37  CG1 ILE C  37      49.147  53.846  17.425  1.00 33.54 LIG 0.00  C 
ATOM     38  CD1 ILE C  37      48.719  52.740  18.362  1.00 46.98 LIG 0.01  C 
ENDBRANCH 35 37
ENDBRANCH 5 35
ENDBRANCH 3 5
BRANCH 1 39
ATOM     39  CA  PRO C  36      54.345  57.076  16.689  1.00 32.35 LIG 0.18  C 
ATOM     40  CB  PRO C  36      54.185  58.591  16.543  1.00 32.18 LIG 0.04  C 
ATOM     41  CG  PRO C  36      54.904  58.887  15.262  1.00 32.63 LIG 0.02  C 
ATOM     42  CD  PRO C  36      56.138  58.020  15.357  1.00 32.64 LIG 0.13  C 
ATOM     43  N   PRO C  36      55.617  56.808  16.014  1.00 32.06 LIG-0.34  N 
ATOM     44  C   ARG C  35      56.171  55.594  16.094  1.00 32.74 LIG 0.24  C 
ATOM     45 O    ARG C  35      55.646  54.683  16.730  1.00 32.93 LIG-0.27  OA
BRANCH 44 46
ATOM     46  CA  ARG C  35      57.494  55.379  15.371  1.00 37.56 LIG 0.18  C 
BRANCH 46 47
ATOM     47  CB  ARG C  35      57.656  53.904  15.004  1.00 40.42 LIG 0.04  C 
BRANCH 47 48
ATOM     48  CG  ARG C  35      57.188  53.573  13.611  1.00 36.41 LIG 0.02  C 
BRANCH 48 49
ATOM     49  CD  ARG C  35      56.140  54.559  13.127  1.00 39.80 LIG 0.14  C 
BRANCH 49 50
ATOM     50  NE  ARG C  35      56.235  54.753  11.683  1.00 32.60 LIG-0.23  N 
ATOM     51 HE   ARG C  35      56.410  55.544  11.397  1.00 32.60 LIG 0.18  HD
ATOM     52  CZ  ARG C  35      56.071  53.791  10.782  1.00 32.33 LIG 0.67  C 
ATOM     53  NH2 ARG C  35      55.803  52.553  11.170  1.00 28.83 LIG-0.23  N 
ATOM     54  NH1 ARG C  35      56.178  54.073   9.490  1.00 30.81 LIG-0.23  N 
ATOM     55 2HH2 ARG C  35      55.698  51.932  10.584  1.00 28.83 LIG 0.17  HD
ATOM     56 1HH2 ARG C  35      55.735  52.369  12.007  1.00 28.83 LIG 0.17  HD
ATOM     57 1HH1 ARG C  35      56.354  54.876   9.239  1.00 30.81 LIG 0.17  HD
ATOM     58 2HH1 ARG C  35      56.073  53.452   8.904  1.00 30.81 LIG 0.17  HD
ENDBRANCH 49 50
ENDBRANCH 48 49
ENDBRANCH 47 48
ENDBRANCH 46 47
BRANCH 46 59
ATOM     59  N   ARG C  35      58.568  55.802  16.255  1.00 36.73 LIG-0.35  N 
ATOM     60  C   ASN C  34      59.139  56.993  16.103  1.00 40.82 LIG 0.26  C 
ATOM     61 O    ASN C  34      58.803  57.781  15.220  1.00 33.40 LIG-0.27  OA
ATOM     62 H    ARG C  35      58.788  55.231  16.860  1.00 36.73 LIG 0.16  HD
BRANCH 60 63
ATOM     63  CA  ASN C  34      60.246  57.349  17.087  1.00 41.08 LIG 0.41  C 
ATOM     64  N   ASN C  34      61.244  58.238  16.427  1.00 44.32 LIG 0.61  N 
BRANCH 63 65
ATOM     65  CB  ASN C  34      59.625  58.046  18.302  1.00 43.19 LIG 0.15  C 
BRANCH 65 66
ATOM     66  CG  ASN C  34      58.130  57.789  18.434  1.00 48.82 LIG 0.22  C 
ATOM     67  ND2 ASN C  34      57.766  56.614  18.941  1.00 46.77 LIG-0.37  N 
ATOM     68 21HD ASN C  34      56.932  56.428  19.037  1.00 46.77 LIG 0.16  HD
ATOM     69 22HD ASN C  34      58.364  56.042  19.171  1.00 46.77 LIG 0.16  HD
ATOM     70 OD1  ASN C  34      57.315  58.644  18.088  1.00 54.33 LIG-0.27  OA
ENDBRANCH 65 66
ENDBRANCH 63 65
ENDBRANCH 60 63
ENDBRANCH 46 59
ENDBRANCH 44 46
ENDBRANCH 1 39
TORSDOF 26
ENDMDL
MODEL 30
USER: ADFR SOLUTION from run 166
USER: SCORE 20.779182 LL:  -6.709 LR: -14.772 RR:   0.000 FEB:  -7.016
USER: RMSD 12.416793
USER: SEED 165
USER: STATUS no improvement in best in 2 clusters for 5 generations
USER: GENES 28
USER: genes 0 Translation |==|  0.80394 0.50886 0.72803
USER: genes 1 Rotation |==|  0.44998 0.38305 0.93722 0.70654
USER: genes 2 Torsion [C]-N--CA-[C] |==|  0.68826
USER: genes 3 Torsion [N]-CA--C-[N] |==|  0.07716
USER: genes 4 Torsion [C]-N--CA-[C] |==|  0.69579
USER: genes 5 Torsion [N]-CA--C-[N] |==|  0.92879
USER: genes 6 Torsion [C]-N--CA-[C] |==|  0.18592
USER: genes 7 Torsion [N]-CA--CB-[OG] |==|  0.84673
USER: genes 8 Torsion [CA]-CB--OG-[HG] |==|  0.95630
USER: genes 9 Torsion [N]-CA--C-[N] |==|  0.07916
USER: genes 10 Torsion [C]-N--CA-[C] |==|  0.13094
USER: genes 11 Torsion [N]-CA--C-[O] |==|  0.11342
USER: genes 12 Torsion [N]-CA--CB-[CG] |==|  0.74952
USER: genes 13 Torsion [CA]-CB--CG-[CD2] |==|  0.24780
USER: genes 14 Torsion [N]-CA--CB-[CG] |==|  0.33052
USER: genes 15 Torsion [CA]-CB--CG-[CD2] |==|  0.69270
USER: genes 16 Torsion [N]-CA--CB-[CG2] |==|  0.61147
USER: genes 17 Torsion [CA]-CB--CG1-[CD1] |==|  0.36000
USER: genes 18 Torsion [O]-C--CA-[CB] |==|  0.83090
USER: genes 19 Torsion [N]-C--CA-[N] |==|  0.45492
USER: genes 20 Torsion [C]-CA--CB-[CG] |==|  0.39313
USER: genes 21 Torsion [CA]-CB--CG-[CD] |==|  0.94835
USER: genes 22 Torsion [CB]-CG--CD-[NE] |==|  0.33056
USER: genes 23 Torsion [CG]-CD--NE-[CZ] |==|  0.30475
USER: genes 24 Torsion [C]-CA--N-[C] |==|  0.61113
USER: genes 25 Torsion [N]-C--CA-[N] |==|  0.51698
USER: genes 26 Torsion [C]-CA--CB-[CG] |==|  0.75910
USER: genes 27 Torsion [CA]-CB--CG-[ND2] |==|  0.62733
ROOT
ATOM      1  C   PRO C  36      57.127  55.239  17.313  1.00 34.41 LIG 0.24  C 
ATOM      2 O    PRO C  36      57.215  55.286  18.543  1.00 29.89 LIG-0.27  OA
ATOM      3  N   ILE C  37      57.397  56.271  16.518  1.00 30.61 LIG-0.35  N 
ATOM      4 H    ILE C  37      57.362  56.227  15.660  1.00 30.61 LIG 0.16  HD
ENDROOT
BRANCH 3 5
ATOM      5  CA  ILE C  37      57.781  57.582  17.024  1.00 31.48 LIG 0.18  C 
BRANCH 5 6
ATOM      6  C   ILE C  37      56.621  58.499  16.678  1.00 31.96 LIG 0.24  C 
ATOM      7 O    ILE C  37      56.803  59.706  16.506  1.00 31.93 LIG-0.27  OA
ATOM      8  N   LEU C  38      55.428  57.928  16.587  1.00 30.89 LIG-0.35  N 
ATOM      9 H    LEU C  38      55.277  57.095  16.743  1.00 30.89 LIG 0.16  HD
BRANCH 8 10
ATOM     10  CA  LEU C  38      54.253  58.696  16.203  1.00 34.88 LIG 0.18  C 
BRANCH 10 11
ATOM     11  C   LEU C  38      53.211  58.964  17.282  1.00 39.33 LIG 0.24  C 
ATOM     12 O    LEU C  38      52.461  59.938  17.216  1.00 37.11 LIG-0.27  OA
ATOM     13  N   SER C  39      53.177  58.079  18.274  1.00 40.29 LIG-0.34  N 
ATOM     14 H    SER C  39      53.678  57.381  18.305  1.00 40.29 LIG 0.16  HD
BRANCH 13 15
ATOM     15  CA  SER C  39      52.276  58.215  19.412  1.00 42.99 LIG 0.20  C 
BRANCH 15 16
ATOM     16  CB  SER C  39      52.390  59.607  20.043  1.00 41.70 LIG 0.20  C 
BRANCH 16 17
ATOM     17 OG   SER C  39      53.727  59.910  20.406  1.00 43.46 LIG-0.40  OA
ATOM     18 HG   SER C  39      54.183  59.204  20.413  1.00 43.46 LIG 0.21  HD
ENDBRANCH 16 17
ENDBRANCH 15 16
BRANCH 15 19
ATOM     19  C   SER C  39      50.881  58.031  18.823  1.00 43.99 LIG 0.24  C 
ATOM     20  N   LEU C  40      50.773  57.271  17.739  1.00 44.48 LIG-0.34  N 
ATOM     21 H    LEU C  40      51.437  56.881  17.353  1.00 44.48 LIG 0.16  HD
ATOM     22 O    SER C  39      49.913  58.580  19.351  1.00 44.86 LIG-0.27  OA
BRANCH 20 23
ATOM     23  CA  LEU C  40      49.480  57.038  17.108  1.00 50.99 LIG 0.18  C 
BRANCH 23 24
ATOM     24  C   LEU C  40      48.717  58.352  16.942  1.00 53.79 LIG 0.20  C 
ATOM     25 O    LEU C  40      49.360  59.363  16.580  1.00 58.34 LIG-0.65  OA
ATOM     26 OXT  LEU C  40      47.492  58.361  17.183  1.00 54.01 LIG-0.65  OA
ENDBRANCH 23 24
BRANCH 23 27
ATOM     27  CB  LEU C  40      48.662  56.058  17.954  1.00 48.71 LIG 0.04  C 
BRANCH 27 28
ATOM     28  CG  LEU C  40      48.786  54.561  17.670  1.00 48.98 LIG-0.02  C 
ATOM     29  CD2 LEU C  40      49.918  53.991  18.503  1.00 51.62 LIG 0.01  C 
ATOM     30  CD1 LEU C  40      49.053  54.329  16.189  1.00 51.55 LIG 0.01  C 
ENDBRANCH 27 28
ENDBRANCH 23 27
ENDBRANCH 20 23
ENDBRANCH 15 19
ENDBRANCH 13 15
ENDBRANCH 10 11
BRANCH 10 31
ATOM     31  CB  LEU C  38      53.578  58.017  15.014  1.00 30.69 LIG 0.04  C 
BRANCH 31 32
ATOM     32  CG  LEU C  38      52.142  57.546  15.249  1.00 36.50 LIG-0.02  C 
ATOM     33  CD2 LEU C  38      52.091  56.020  15.274  1.00 35.12 LIG 0.01  C 
ATOM     34  CD1 LEU C  38      51.244  58.098  14.148  1.00 37.99 LIG 0.01  C 
ENDBRANCH 31 32
ENDBRANCH 10 31
ENDBRANCH 8 10
ENDBRANCH 5 6
BRANCH 5 35
ATOM     35  CB  ILE C  37      59.050  58.091  16.327  1.00 37.32 LIG 0.01  C 
ATOM     36  CG2 ILE C  37      59.957  58.776  17.337  1.00 35.15 LIG 0.01  C 
BRANCH 35 37
ATOM     37  CG1 ILE C  37      59.759  56.921  15.642  1.00 33.54 LIG 0.00  C 
ATOM     38  CD1 ILE C  37      60.111  57.184  14.196  1.00 46.98 LIG 0.01  C 
ENDBRANCH 35 37
ENDBRANCH 5 35
ENDBRANCH 3 5
BRANCH 1 39
ATOM     39  CA  PRO C  36      56.709  53.954  16.599  1.00 32.35 LIG 0.18  C 
ATOM     40  CB  PRO C  36      57.679  52.801  16.864  1.00 32.18 LIG 0.04  C 
ATOM     41  CG  PRO C  36      58.618  52.871  15.699  1.00 32.63 LIG 0.02  C 
ATOM     42  CD  PRO C  36      57.696  53.150  14.535  1.00 32.64 LIG 0.13  C 
ATOM     43  N   PRO C  36      56.699  54.052  15.137  1.00 32.06 LIG-0.34  N 
ATOM     44  C   ARG C  35      55.816  54.852  14.529  1.00 32.74 LIG 0.24  C 
ATOM     45 O    ARG C  35      54.997  55.513  15.163  1.00 32.93 LIG-0.27  OA
BRANCH 44 46
ATOM     46  CA  ARG C  35      55.856  54.910  13.008  1.00 37.56 LIG 0.18  C 
BRANCH 46 47
ATOM     47  CB  ARG C  35      57.050  55.745  12.547  1.00 40.42 LIG 0.04  C 
BRANCH 47 48
ATOM     48  CG  ARG C  35      57.732  55.199  11.321  1.00 36.41 LIG 0.02  C 
BRANCH 48 49
ATOM     49  CD  ARG C  35      57.382  53.738  11.093  1.00 39.80 LIG 0.14  C 
BRANCH 49 50
ATOM     50  NE  ARG C  35      56.711  53.559   9.809  1.00 32.60 LIG-0.23  N 
ATOM     51 HE   ARG C  35      55.911  53.865   9.730  1.00 32.60 LIG 0.18  HD
ATOM     52  CZ  ARG C  35      57.250  52.956   8.756  1.00 32.33 LIG 0.67  C 
ATOM     53  NH2 ARG C  35      58.480  52.469   8.824  1.00 28.83 LIG-0.23  N 
ATOM     54  NH1 ARG C  35      56.553  52.844   7.633  1.00 30.81 LIG-0.23  N 
ATOM     55 2HH2 ARG C  35      58.826  52.079   8.140  1.00 28.83 LIG 0.17  HD
ATOM     56 1HH2 ARG C  35      58.932  52.542   9.551  1.00 28.83 LIG 0.17  HD
ATOM     57 1HH1 ARG C  35      55.755  53.161   7.588  1.00 30.81 LIG 0.17  HD
ATOM     58 2HH1 ARG C  35      56.899  52.454   6.949  1.00 30.81 LIG 0.17  HD
ENDBRANCH 49 50
ENDBRANCH 48 49
ENDBRANCH 47 48
ENDBRANCH 46 47
BRANCH 46 59
ATOM     59  N   ARG C  35      54.611  55.503  12.544  1.00 36.73 LIG-0.35  N 
ATOM     60  C   ASN C  34      53.998  55.028  11.465  1.00 40.82 LIG 0.26  C 
ATOM     61 O    ASN C  34      54.442  54.087  10.809  1.00 33.40 LIG-0.27  OA
ATOM     62 H    ARG C  35      54.325  56.163  13.017  1.00 36.73 LIG 0.16  HD
BRANCH 60 63
ATOM     63  CA  ASN C  34      52.694  55.709  11.067  1.00 41.08 LIG 0.41  C 
ATOM     64  N   ASN C  34      52.061  54.971   9.938  1.00 44.32 LIG 0.61  N 
BRANCH 63 65
ATOM     65  CB  ASN C  34      51.759  55.740  12.282  1.00 43.19 LIG 0.15  C 
BRANCH 65 66
ATOM     66  CG  ASN C  34      50.921  54.475  12.418  1.00 48.82 LIG 0.22  C 
ATOM     67  ND2 ASN C  34      49.626  54.639  12.673  1.00 46.77 LIG-0.37  N 
ATOM     68 21HD ASN C  34      49.114  53.954  12.754  1.00 46.77 LIG 0.16  HD
ATOM     69 22HD ASN C  34      49.302  55.431  12.758  1.00 46.77 LIG 0.16  HD
ATOM     70 OD1  ASN C  34      51.436  53.365  12.287  1.00 54.33 LIG-0.27  OA
ENDBRANCH 65 66
ENDBRANCH 63 65
ENDBRANCH 60 63
ENDBRANCH 46 59
ENDBRANCH 44 46
ENDBRANCH 1 39
TORSDOF 26
ENDMDL
MODEL 31
USER: ADFR SOLUTION from run 40
USER: SCORE 19.493700 LL:  -5.374 LR: -14.742 RR:   0.000 FEB:  -6.986
USER: RMSD 13.105704
USER: SEED 39
USER: STATUS no improvement in best in 12 clusters for 5 generations
USER: GENES 28
USER: genes 0 Translation |==|  0.61548 0.50686 0.54231
USER: genes 1 Rotation |==|  0.41333 0.04467 0.61478 0.64828
USER: genes 2 Torsion [C]-N--CA-[C] |==|  0.76895
USER: genes 3 Torsion [N]-CA--C-[N] |==|  0.93892
USER: genes 4 Torsion [C]-N--CA-[C] |==|  0.71499
USER: genes 5 Torsion [N]-CA--C-[N] |==|  0.98534
USER: genes 6 Torsion [C]-N--CA-[C] |==|  0.84428
USER: genes 7 Torsion [N]-CA--CB-[OG] |==|  0.11189
USER: genes 8 Torsion [CA]-CB--OG-[HG] |==|  0.09439
USER: genes 9 Torsion [N]-CA--C-[N] |==|  0.34598
USER: genes 10 Torsion [C]-N--CA-[C] |==|  0.50577
USER: genes 11 Torsion [N]-CA--C-[O] |==|  0.38303
USER: genes 12 Torsion [N]-CA--CB-[CG] |==|  0.54750
USER: genes 13 Torsion [CA]-CB--CG-[CD2] |==|  0.74182
USER: genes 14 Torsion [N]-CA--CB-[CG] |==|  0.99035
USER: genes 15 Torsion [CA]-CB--CG-[CD2] |==|  0.68248
USER: genes 16 Torsion [N]-CA--CB-[CG2] |==|  0.14844
USER: genes 17 Torsion [CA]-CB--CG1-[CD1] |==|  0.10530
USER: genes 18 Torsion [O]-C--CA-[CB] |==|  0.07658
USER: genes 19 Torsion [N]-C--CA-[N] |==|  0.51610
USER: genes 20 Torsion [C]-CA--CB-[CG] |==|  0.46773
USER: genes 21 Torsion [CA]-CB--CG-[CD] |==|  0.84405
USER: genes 22 Torsion [CB]-CG--CD-[NE] |==|  0.75974
USER: genes 23 Torsion [CG]-CD--NE-[CZ] |==|  0.68082
USER: genes 24 Torsion [C]-CA--N-[C] |==|  0.61936
USER: genes 25 Torsion [N]-C--CA-[N] |==|  0.40409
USER: genes 26 Torsion [C]-CA--CB-[CG] |==|  0.24340
USER: genes 27 Torsion [CA]-CB--CG-[ND2] |==|  0.25784
ROOT
ATOM      1  C   PRO C  36      51.191  55.202  13.830  1.00 34.41 LIG 0.24  C 
ATOM      2 O    PRO C  36      50.430  54.305  13.456  1.00 29.89 LIG-0.27  OA
ATOM      3  N   ILE C  37      51.362  55.533  15.108  1.00 30.61 LIG-0.35  N 
ATOM      4 H    ILE C  37      51.913  56.140  15.368  1.00 30.61 LIG 0.16  HD
ENDROOT
BRANCH 3 5
ATOM      5  CA  ILE C  37      50.630  54.898  16.196  1.00 31.48 LIG 0.18  C 
BRANCH 5 6
ATOM      6  C   ILE C  37      49.299  55.624  16.262  1.00 31.96 LIG 0.24  C 
ATOM      7 O    ILE C  37      48.315  55.089  16.774  1.00 31.93 LIG-0.27  OA
ATOM      8  N   LEU C  38      49.268  56.841  15.733  1.00 30.89 LIG-0.35  N 
ATOM      9 H    LEU C  38      49.934  57.213  15.336  1.00 30.89 LIG 0.16  HD
BRANCH 8 10
ATOM     10  CA  LEU C  38      48.063  57.655  15.791  1.00 34.88 LIG 0.18  C 
BRANCH 10 11
ATOM     11  C   LEU C  38      47.223  57.751  14.523  1.00 39.33 LIG 0.24  C 
ATOM     12 O    LEU C  38      46.144  58.342  14.516  1.00 37.11 LIG-0.27  OA
ATOM     13  N   SER C  39      47.742  57.162  13.450  1.00 40.29 LIG-0.34  N 
ATOM     14 H    SER C  39      48.511  56.776  13.445  1.00 40.29 LIG 0.16  HD
BRANCH 13 15
ATOM     15  CA  SER C  39      47.046  57.114  12.170  1.00 42.99 LIG 0.20  C 
BRANCH 15 16
ATOM     16  CB  SER C  39      47.811  56.255  11.157  1.00 41.70 LIG 0.20  C 
BRANCH 16 17
ATOM     17 OG   SER C  39      48.351  55.090  11.760  1.00 43.46 LIG-0.40  OA
ATOM     18 HG   SER C  39      47.832  54.821  12.364  1.00 43.46 LIG 0.21  HD
ENDBRANCH 16 17
ENDBRANCH 15 16
BRANCH 15 19
ATOM     19  C   SER C  39      45.704  56.462  12.485  1.00 43.99 LIG 0.24  C 
ATOM     20  N   LEU C  40      44.607  57.131  12.144  1.00 44.48 LIG-0.34  N 
ATOM     21 H    LEU C  40      44.609  57.901  11.760  1.00 44.48 LIG 0.16  HD
ATOM     22 O    SER C  39      45.669  55.362  13.037  1.00 44.86 LIG-0.27  OA
BRANCH 20 23
ATOM     23  CA  LEU C  40      43.281  56.585  12.405  1.00 50.99 LIG 0.18  C 
BRANCH 23 24
ATOM     24  C   LEU C  40      42.197  57.522  11.872  1.00 53.79 LIG 0.20  C 
ATOM     25 O    LEU C  40      41.220  57.014  11.280  1.00 58.34 LIG-0.65  OA
ATOM     26 OXT  LEU C  40      42.340  58.751  12.041  1.00 54.01 LIG-0.65  OA
ENDBRANCH 23 24
BRANCH 23 27
ATOM     27  CB  LEU C  40      43.098  56.373  13.911  1.00 48.71 LIG 0.04  C 
BRANCH 27 28
ATOM     28  CG  LEU C  40      41.970  55.459  14.392  1.00 48.98 LIG-0.02  C 
ATOM     29  CD2 LEU C  40      40.737  56.297  14.668  1.00 51.62 LIG 0.01  C 
ATOM     30  CD1 LEU C  40      42.396  54.718  15.651  1.00 51.55 LIG 0.01  C 
ENDBRANCH 27 28
ENDBRANCH 23 27
ENDBRANCH 20 23
ENDBRANCH 15 19
ENDBRANCH 13 15
ENDBRANCH 10 11
BRANCH 10 31
ATOM     31  CB  LEU C  38      48.432  59.062  16.253  1.00 30.69 LIG 0.04  C 
BRANCH 31 32
ATOM     32  CG  LEU C  38      49.903  59.275  16.619  1.00 36.50 LIG-0.02  C 
ATOM     33  CD2 LEU C  38      50.030  59.574  18.111  1.00 35.12 LIG 0.01  C 
ATOM     34  CD1 LEU C  38      50.468  60.420  15.788  1.00 37.99 LIG 0.01  C 
ENDBRANCH 31 32
ENDBRANCH 10 31
ENDBRANCH 8 10
ENDBRANCH 5 6
BRANCH 5 35
ATOM     35  CB  ILE C  37      51.367  55.076  17.531  1.00 37.32 LIG 0.01  C 
ATOM     36  CG2 ILE C  37      51.658  56.550  17.770  1.00 35.15 LIG 0.01  C 
BRANCH 35 37
ATOM     37  CG1 ILE C  37      50.526  54.482  18.661  1.00 33.54 LIG 0.00  C 
ATOM     38  CD1 ILE C  37      49.804  53.210  18.280  1.00 46.98 LIG 0.01  C 
ENDBRANCH 35 37
ENDBRANCH 5 35
ENDBRANCH 3 5
BRANCH 1 39
ATOM     39  CA  PRO C  36      52.022  56.003  12.829  1.00 32.35 LIG 0.18  C 
ATOM     40  CB  PRO C  36      51.360  56.074  11.452  1.00 32.18 LIG 0.04  C 
ATOM     41  CG  PRO C  36      51.989  54.932  10.713  1.00 32.63 LIG 0.02  C 
ATOM     42  CD  PRO C  36      53.440  55.018  11.128  1.00 32.64 LIG 0.13  C 
ATOM     43  N   PRO C  36      53.337  55.427  12.539  1.00 32.06 LIG-0.34  N 
ATOM     44  C   ARG C  35      54.269  55.377  13.497  1.00 32.74 LIG 0.24  C 
ATOM     45 O    ARG C  35      54.060  55.811  14.627  1.00 32.93 LIG-0.27  OA
BRANCH 44 46
ATOM     46  CA  ARG C  35      55.615  54.767  13.133  1.00 37.56 LIG 0.18  C 
BRANCH 46 47
ATOM     47  CB  ARG C  35      55.414  53.375  12.533  1.00 40.42 LIG 0.04  C 
BRANCH 47 48
ATOM     48  CG  ARG C  35      56.653  52.809  11.891  1.00 36.41 LIG 0.02  C 
BRANCH 48 49
ATOM     49  CD  ARG C  35      57.201  53.738  10.821  1.00 39.80 LIG 0.14  C 
BRANCH 49 50
ATOM     50  NE  ARG C  35      56.558  53.486   9.535  1.00 32.60 LIG-0.23  N 
ATOM     51 HE   ARG C  35      55.717  53.651   9.470  1.00 32.60 LIG 0.18  HD
ATOM     52  CZ  ARG C  35      57.183  53.022   8.459  1.00 32.33 LIG 0.67  C 
ATOM     53  NH2 ARG C  35      58.480  52.755   8.505  1.00 28.83 LIG-0.23  N 
ATOM     54  NH1 ARG C  35      56.504  52.827   7.336  1.00 30.81 LIG-0.23  N 
ATOM     55 2HH2 ARG C  35      58.881  52.454   7.807  1.00 28.83 LIG 0.17  HD
ATOM     56 1HH2 ARG C  35      58.920  52.882   9.233  1.00 28.83 LIG 0.17  HD
ATOM     57 1HH1 ARG C  35      55.663  53.002   7.306  1.00 30.81 LIG 0.17  HD
ATOM     58 2HH1 ARG C  35      56.906  52.526   6.638  1.00 30.81 LIG 0.17  HD
ENDBRANCH 49 50
ENDBRANCH 48 49
ENDBRANCH 47 48
ENDBRANCH 46 47
BRANCH 46 59
ATOM     59  N   ARG C  35      56.419  54.686  14.342  1.00 36.73 LIG-0.35  N 
ATOM     60  C   ASN C  34      57.704  55.023  14.322  1.00 40.82 LIG 0.26  C 
ATOM     61 O    ASN C  34      58.275  55.405  13.302  1.00 33.40 LIG-0.27  OA
ATOM     62 H    ARG C  35      55.998  54.411  15.040  1.00 36.73 LIG 0.16  HD
BRANCH 60 63
ATOM     63  CA  ASN C  34      58.457  54.917  15.643  1.00 41.08 LIG 0.41  C 
ATOM     64  N   ASN C  34      59.865  54.498  15.392  1.00 44.32 LIG 0.61  N 
BRANCH 63 65
ATOM     65  CB  ASN C  34      58.418  56.277  16.348  1.00 43.19 LIG 0.15  C 
BRANCH 65 66
ATOM     66  CG  ASN C  34      57.185  56.457  17.223  1.00 48.82 LIG 0.22  C 
ATOM     67  ND2 ASN C  34      57.306  56.120  18.505  1.00 46.77 LIG-0.37  N 
ATOM     68 21HD ASN C  34      56.637  56.209  19.037  1.00 46.77 LIG 0.16  HD
ATOM     69 22HD ASN C  34      58.053  55.814  18.800  1.00 46.77 LIG 0.16  HD
ATOM     70 OD1  ASN C  34      56.139  56.900  16.750  1.00 54.33 LIG-0.27  OA
ENDBRANCH 65 66
ENDBRANCH 63 65
ENDBRANCH 60 63
ENDBRANCH 46 59
ENDBRANCH 44 46
ENDBRANCH 1 39
TORSDOF 26
ENDMDL
MODEL 32
USER: ADFR SOLUTION from run 147
USER: SCORE 20.502533 LL:  -7.021 LR: -14.706 RR:   0.000 FEB:  -6.950
USER: RMSD 13.553839
USER: SEED 146
USER: STATUS no improvement in best in 5 clusters for 5 generations
USER: GENES 28
USER: genes 0 Translation |==|  0.83126 0.32534 0.51581
USER: genes 1 Rotation |==|  0.43791 0.16798 0.86838 0.51428
USER: genes 2 Torsion [C]-N--CA-[C] |==|  0.62844
USER: genes 3 Torsion [N]-CA--C-[N] |==|  0.17589
USER: genes 4 Torsion [C]-N--CA-[C] |==|  0.66602
USER: genes 5 Torsion [N]-CA--C-[N] |==|  0.21904
USER: genes 6 Torsion [C]-N--CA-[C] |==|  0.76834
USER: genes 7 Torsion [N]-CA--CB-[OG] |==|  0.49431
USER: genes 8 Torsion [CA]-CB--OG-[HG] |==|  0.08154
USER: genes 9 Torsion [N]-CA--C-[N] |==|  0.47222
USER: genes 10 Torsion [C]-N--CA-[C] |==|  0.60126
USER: genes 11 Torsion [N]-CA--C-[O] |==|  0.79653
USER: genes 12 Torsion [N]-CA--CB-[CG] |==|  0.02074
USER: genes 13 Torsion [CA]-CB--CG-[CD2] |==|  0.71068
USER: genes 14 Torsion [N]-CA--CB-[CG] |==|  0.58455
USER: genes 15 Torsion [CA]-CB--CG-[CD2] |==|  0.08099
USER: genes 16 Torsion [N]-CA--CB-[CG2] |==|  0.52559
USER: genes 17 Torsion [CA]-CB--CG1-[CD1] |==|  0.80565
USER: genes 18 Torsion [O]-C--CA-[CB] |==|  0.77440
USER: genes 19 Torsion [N]-C--CA-[N] |==|  0.39377
USER: genes 20 Torsion [C]-CA--CB-[CG] |==|  0.23755
USER: genes 21 Torsion [CA]-CB--CG-[CD] |==|  0.69529
USER: genes 22 Torsion [CB]-CG--CD-[NE] |==|  0.43279
USER: genes 23 Torsion [CG]-CD--NE-[CZ] |==|  0.41533
USER: genes 24 Torsion [C]-CA--N-[C] |==|  0.64852
USER: genes 25 Torsion [N]-C--CA-[N] |==|  0.92630
USER: genes 26 Torsion [C]-CA--CB-[CG] |==|  0.90336
USER: genes 27 Torsion [CA]-CB--CG-[ND2] |==|  0.80028
ROOT
ATOM      1  C   PRO C  36      57.988  51.935  13.333  1.00 34.41 LIG 0.24  C 
ATOM      2 O    PRO C  36      57.674  51.022  14.103  1.00 29.89 LIG-0.27  OA
ATOM      3  N   ILE C  37      57.606  53.198  13.501  1.00 30.61 LIG-0.35  N 
ATOM      4 H    ILE C  37      57.849  53.837  12.979  1.00 30.61 LIG 0.16  HD
ENDROOT
BRANCH 3 5
ATOM      5  CA  ILE C  37      56.735  53.627  14.588  1.00 31.48 LIG 0.18  C 
BRANCH 5 6
ATOM      6  C   ILE C  37      55.695  54.522  13.939  1.00 31.96 LIG 0.24  C 
ATOM      7 O    ILE C  37      55.608  55.712  14.248  1.00 31.93 LIG-0.27  OA
ATOM      8  N   LEU C  38      54.900  53.947  13.046  1.00 30.89 LIG-0.35  N 
ATOM      9 H    LEU C  38      54.921  53.110  12.848  1.00 30.89 LIG 0.16  HD
BRANCH 8 10
ATOM     10  CA  LEU C  38      53.907  54.719  12.316  1.00 34.88 LIG 0.18  C 
BRANCH 10 11
ATOM     11  C   LEU C  38      52.447  54.308  12.476  1.00 39.33 LIG 0.24  C 
ATOM     12 O    LEU C  38      51.874  53.643  11.614  1.00 37.11 LIG-0.27  OA
ATOM     13  N   SER C  39      51.860  54.715  13.598  1.00 40.29 LIG-0.34  N 
ATOM     14 H    SER C  39      52.269  55.153  14.216  1.00 40.29 LIG 0.16  HD
BRANCH 13 15
ATOM     15  CA  SER C  39      50.455  54.454  13.885  1.00 42.99 LIG 0.20  C 
BRANCH 15 16
ATOM     16  CB  SER C  39      50.176  54.536  15.390  1.00 41.70 LIG 0.20  C 
BRANCH 16 17
ATOM     17 OG   SER C  39      48.803  54.329  15.680  1.00 43.46 LIG-0.40  OA
ATOM     18 HG   SER C  39      48.465  53.827  15.097  1.00 43.46 LIG 0.21  HD
ENDBRANCH 16 17
ENDBRANCH 15 16
BRANCH 15 19
ATOM     19  C   SER C  39      49.701  55.565  13.162  1.00 43.99 LIG 0.24  C 
ATOM     20  N   LEU C  40      48.379  55.454  13.086  1.00 44.48 LIG-0.34  N 
ATOM     21 H    LEU C  40      47.929  54.799  13.417  1.00 44.48 LIG 0.16  HD
ATOM     22 O    SER C  39      50.319  56.513  12.675  1.00 44.86 LIG-0.27  OA
BRANCH 20 23
ATOM     23  CA  LEU C  40      47.575  56.468  12.415  1.00 50.99 LIG 0.18  C 
BRANCH 23 24
ATOM     24  C   LEU C  40      46.247  56.672  13.143  1.00 53.79 LIG 0.20  C 
ATOM     25 O    LEU C  40      45.376  55.781  13.035  1.00 58.34 LIG-0.65  OA
ATOM     26 OXT  LEU C  40      46.086  57.720  13.802  1.00 54.01 LIG-0.65  OA
ENDBRANCH 23 24
BRANCH 23 27
ATOM     27  CB  LEU C  40      47.322  56.049  10.964  1.00 48.71 LIG 0.04  C 
BRANCH 27 28
ATOM     28  CG  LEU C  40      47.754  54.652  10.517  1.00 48.98 LIG-0.02  C 
ATOM     29  CD2 LEU C  40      49.018  54.767   9.688  1.00 51.62 LIG 0.01  C 
ATOM     30  CD1 LEU C  40      46.648  53.996   9.704  1.00 51.55 LIG 0.01  C 
ENDBRANCH 27 28
ENDBRANCH 23 27
ENDBRANCH 20 23
ENDBRANCH 15 19
ENDBRANCH 13 15
ENDBRANCH 10 11
BRANCH 10 31
ATOM     31  CB  LEU C  38      54.264  54.720  10.832  1.00 30.69 LIG 0.04  C 
BRANCH 31 32
ATOM     32  CG  LEU C  38      53.845  55.967  10.051  1.00 36.50 LIG-0.02  C 
ATOM     33  CD2 LEU C  38      53.824  57.181  10.978  1.00 35.12 LIG 0.01  C 
ATOM     34  CD1 LEU C  38      52.471  55.736   9.433  1.00 37.99 LIG 0.01  C 
ENDBRANCH 31 32
ENDBRANCH 10 31
ENDBRANCH 8 10
ENDBRANCH 5 6
BRANCH 5 35
ATOM     35  CB  ILE C  37      57.517  54.437  15.631  1.00 37.32 LIG 0.01  C 
ATOM     36  CG2 ILE C  37      56.649  54.676  16.857  1.00 35.15 LIG 0.01  C 
BRANCH 35 37
ATOM     37  CG1 ILE C  37      58.804  53.695  15.993  1.00 33.54 LIG 0.00  C 
ATOM     38  CD1 ILE C  37      58.575  52.430  16.789  1.00 46.98 LIG 0.01  C 
ENDBRANCH 35 37
ENDBRANCH 5 35
ENDBRANCH 3 5
BRANCH 1 39
ATOM     39  CA  PRO C  36      58.873  51.674  12.116  1.00 32.35 LIG 0.18  C 
ATOM     40  CB  PRO C  36      60.358  51.625  12.479  1.00 32.18 LIG 0.04  C 
ATOM     41  CG  PRO C  36      60.817  53.029  12.225  1.00 32.63 LIG 0.02  C 
ATOM     42  CD  PRO C  36      60.118  53.387  10.934  1.00 32.64 LIG 0.13  C 
ATOM     43  N   PRO C  36      58.814  52.719  11.091  1.00 32.06 LIG-0.34  N 
ATOM     44  C   ARG C  35      57.681  52.920  10.409  1.00 32.74 LIG 0.24  C 
ATOM     45 O    ARG C  35      56.675  52.243  10.610  1.00 32.93 LIG-0.27  OA
BRANCH 44 46
ATOM     46  CA  ARG C  35      57.683  54.021   9.357  1.00 37.56 LIG 0.18  C 
BRANCH 46 47
ATOM     47  CB  ARG C  35      57.079  55.300   9.937  1.00 40.42 LIG 0.04  C 
BRANCH 47 48
ATOM     48  CG  ARG C  35      58.072  56.154  10.680  1.00 36.41 LIG 0.02  C 
BRANCH 48 49
ATOM     49  CD  ARG C  35      57.809  56.140  12.176  1.00 39.80 LIG 0.14  C 
BRANCH 49 50
ATOM     50  NE  ARG C  35      59.023  56.457  12.921  1.00 32.60 LIG-0.23  N 
ATOM     51 HE   ARG C  35      59.776  56.230  12.574  1.00 32.60 LIG 0.18  HD
ATOM     52  CZ  ARG C  35      59.045  57.073  14.098  1.00 32.33 LIG 0.67  C 
ATOM     53  NH2 ARG C  35      57.913  57.447  14.676  1.00 28.83 LIG-0.23  N 
ATOM     54  NH1 ARG C  35      60.205  57.314  14.694  1.00 30.81 LIG-0.23  N 
ATOM     55 2HH2 ARG C  35      57.931  57.845  15.438  1.00 28.83 LIG 0.17  HD
ATOM     56 1HH2 ARG C  35      57.161  57.292  14.290  1.00 28.83 LIG 0.17  HD
ATOM     57 1HH1 ARG C  35      60.940  57.072  14.318  1.00 30.81 LIG 0.17  HD
ATOM     58 2HH1 ARG C  35      60.223  57.712  15.456  1.00 30.81 LIG 0.17  HD
ENDBRANCH 49 50
ENDBRANCH 48 49
ENDBRANCH 47 48
ENDBRANCH 46 47
BRANCH 46 59
ATOM     59  N   ARG C  35      56.903  53.562   8.218  1.00 36.73 LIG-0.35  N 
ATOM     60  C   ASN C  34      57.421  53.579   6.995  1.00 40.82 LIG 0.26  C 
ATOM     61 O    ASN C  34      58.559  53.981   6.761  1.00 33.40 LIG-0.27  OA
ATOM     62 H    ARG C  35      56.109  53.291   8.408  1.00 36.73 LIG 0.16  HD
BRANCH 60 63
ATOM     63  CA  ASN C  34      56.529  53.066   5.871  1.00 41.08 LIG 0.41  C 
ATOM     64  N   ASN C  34      55.543  52.088   6.412  1.00 44.32 LIG 0.61  N 
BRANCH 63 65
ATOM     65  CB  ASN C  34      55.810  54.255   5.225  1.00 43.19 LIG 0.15  C 
BRANCH 65 66
ATOM     66  CG  ASN C  34      55.454  55.347   6.225  1.00 48.82 LIG 0.22  C 
ATOM     67  ND2 ASN C  34      54.471  55.080   7.081  1.00 46.77 LIG-0.37  N 
ATOM     68 21HD ASN C  34      54.239  55.665   7.666  1.00 46.77 LIG 0.16  HD
ATOM     69 22HD ASN C  34      54.067  54.322   7.047  1.00 46.77 LIG 0.16  HD
ATOM     70 OD1  ASN C  34      56.064  56.416   6.229  1.00 54.33 LIG-0.27  OA
ENDBRANCH 65 66
ENDBRANCH 63 65
ENDBRANCH 60 63
ENDBRANCH 46 59
ENDBRANCH 44 46
ENDBRANCH 1 39
TORSDOF 26
ENDMDL
MODEL 33
USER: ADFR SOLUTION from run 184
USER: SCORE 19.619194 LL:  -6.601 LR: -14.670 RR:   0.000 FEB:  -6.914
USER: RMSD 13.517756
USER: SEED 183
USER: STATUS no improvement in best in 2 clusters for 5 generations
USER: GENES 28
USER: genes 0 Translation |==|  0.75598 0.62459 0.69949
USER: genes 1 Rotation |==|  0.89083 0.79297 0.41695 0.56724
USER: genes 2 Torsion [C]-N--CA-[C] |==|  0.15448
USER: genes 3 Torsion [N]-CA--C-[N] |==|  0.14381
USER: genes 4 Torsion [C]-N--CA-[C] |==|  0.19444
USER: genes 5 Torsion [N]-CA--C-[N] |==|  0.50526
USER: genes 6 Torsion [C]-N--CA-[C] |==|  0.79846
USER: genes 7 Torsion [N]-CA--CB-[OG] |==|  0.97734
USER: genes 8 Torsion [CA]-CB--OG-[HG] |==|  0.62473
USER: genes 9 Torsion [N]-CA--C-[N] |==|  0.32968
USER: genes 10 Torsion [C]-N--CA-[C] |==|  0.55959
USER: genes 11 Torsion [N]-CA--C-[O] |==|  0.92464
USER: genes 12 Torsion [N]-CA--CB-[CG] |==|  0.07975
USER: genes 13 Torsion [CA]-CB--CG-[CD2] |==|  0.49678
USER: genes 14 Torsion [N]-CA--CB-[CG] |==|  0.82820
USER: genes 15 Torsion [CA]-CB--CG-[CD2] |==|  0.27331
USER: genes 16 Torsion [N]-CA--CB-[CG2] |==|  0.56652
USER: genes 17 Torsion [CA]-CB--CG1-[CD1] |==|  0.78689
USER: genes 18 Torsion [O]-C--CA-[CB] |==|  0.42403
USER: genes 19 Torsion [N]-C--CA-[N] |==|  0.23849
USER: genes 20 Torsion [C]-CA--CB-[CG] |==|  0.35905
USER: genes 21 Torsion [CA]-CB--CG-[CD] |==|  0.28337
USER: genes 22 Torsion [CB]-CG--CD-[NE] |==|  0.37021
USER: genes 23 Torsion [CG]-CD--NE-[CZ] |==|  0.38499
USER: genes 24 Torsion [C]-CA--N-[C] |==|  0.60620
USER: genes 25 Torsion [N]-C--CA-[N] |==|  0.61689
USER: genes 26 Torsion [C]-CA--CB-[CG] |==|  0.78650
USER: genes 27 Torsion [CA]-CB--CG-[ND2] |==|  0.78105
ROOT
ATOM      1  C   PRO C  36      55.616  57.322  16.777  1.00 34.41 LIG 0.24  C 
ATOM      2 O    PRO C  36      54.849  57.102  15.836  1.00 29.89 LIG-0.27  OA
ATOM      3  N   ILE C  37      55.543  58.407  17.543  1.00 30.61 LIG-0.35  N 
ATOM      4 H    ILE C  37      56.061  58.544  18.216  1.00 30.61 LIG 0.16  HD
ENDROOT
BRANCH 3 5
ATOM      5  CA  ILE C  37      54.576  59.473  17.319  1.00 31.48 LIG 0.18  C 
BRANCH 5 6
ATOM      6  C   ILE C  37      53.220  58.792  17.329  1.00 31.96 LIG 0.24  C 
ATOM      7 O    ILE C  37      52.419  58.972  16.410  1.00 31.93 LIG-0.27  OA
ATOM      8  N   LEU C  38      52.959  58.017  18.374  1.00 30.89 LIG-0.35  N 
ATOM      9 H    LEU C  38      53.491  57.912  19.043  1.00 30.89 LIG 0.16  HD
BRANCH 8 10
ATOM     10  CA  LEU C  38      51.716  57.266  18.463  1.00 34.88 LIG 0.18  C 
BRANCH 10 11
ATOM     11  C   LEU C  38      51.539  56.095  17.504  1.00 39.33 LIG 0.24  C 
ATOM     12 O    LEU C  38      52.427  55.775  16.715  1.00 37.11 LIG-0.27  OA
ATOM     13  N   SER C  39      50.373  55.459  17.590  1.00 40.29 LIG-0.34  N 
ATOM     14 H    SER C  39      49.764  55.661  18.163  1.00 40.29 LIG 0.16  HD
BRANCH 13 15
ATOM     15  CA  SER C  39      50.020  54.351  16.712  1.00 42.99 LIG 0.20  C 
BRANCH 15 16
ATOM     16  CB  SER C  39      48.750  53.644  17.201  1.00 41.70 LIG 0.20  C 
BRANCH 16 17
ATOM     17 OG   SER C  39      48.344  54.117  18.474  1.00 43.46 LIG-0.40  OA
ATOM     18 HG   SER C  39      48.141  53.466  18.964  1.00 43.46 LIG 0.21  HD
ENDBRANCH 16 17
ENDBRANCH 15 16
BRANCH 15 19
ATOM     19  C   SER C  39      49.755  55.002  15.358  1.00 43.99 LIG 0.24  C 
ATOM     20  N   LEU C  40      50.531  54.634  14.344  1.00 44.48 LIG-0.34  N 
ATOM     21 H    LEU C  40      51.167  54.058  14.406  1.00 44.48 LIG 0.16  HD
ATOM     22 O    SER C  39      48.854  55.833  15.240  1.00 44.86 LIG-0.27  OA
BRANCH 20 23
ATOM     23  CA  LEU C  40      50.351  55.202  13.014  1.00 50.99 LIG 0.18  C 
BRANCH 23 24
ATOM     24  C   LEU C  40      50.956  54.287  11.950  1.00 53.79 LIG 0.20  C 
ATOM     25 O    LEU C  40      51.905  53.544  12.285  1.00 58.34 LIG-0.65  OA
ATOM     26 OXT  LEU C  40      50.484  54.327  10.794  1.00 54.01 LIG-0.65  OA
ENDBRANCH 23 24
BRANCH 23 27
ATOM     27  CB  LEU C  40      51.006  56.586  12.950  1.00 48.71 LIG 0.04  C 
BRANCH 27 28
ATOM     28  CG  LEU C  40      52.207  56.871  13.852  1.00 48.98 LIG-0.02  C 
ATOM     29  CD2 LEU C  40      52.696  58.283  13.593  1.00 51.62 LIG 0.01  C 
ATOM     30  CD1 LEU C  40      53.319  55.870  13.577  1.00 51.55 LIG 0.01  C 
ENDBRANCH 27 28
ENDBRANCH 23 27
ENDBRANCH 20 23
ENDBRANCH 15 19
ENDBRANCH 13 15
ENDBRANCH 10 11
BRANCH 10 31
ATOM     31  CB  LEU C  38      50.540  58.225  18.302  1.00 30.69 LIG 0.04  C 
BRANCH 31 32
ATOM     32  CG  LEU C  38      50.423  59.315  19.369  1.00 36.50 LIG-0.02  C 
ATOM     33  CD2 LEU C  38      51.021  60.621  18.848  1.00 35.12 LIG 0.01  C 
ATOM     34  CD1 LEU C  38      51.139  58.861  20.635  1.00 37.99 LIG 0.01  C 
ENDBRANCH 31 32
ENDBRANCH 10 31
ENDBRANCH 8 10
ENDBRANCH 5 6
BRANCH 5 35
ATOM     35  CB  ILE C  37      54.797  60.136  15.952  1.00 37.32 LIG 0.01  C 
ATOM     36  CG2 ILE C  37      54.233  61.549  15.966  1.00 35.15 LIG 0.01  C 
BRANCH 35 37
ATOM     37  CG1 ILE C  37      56.289  60.133  15.619  1.00 33.54 LIG 0.00  C 
ATOM     38  CD1 ILE C  37      57.083  61.181  16.364  1.00 46.98 LIG 0.01  C 
ENDBRANCH 35 37
ENDBRANCH 5 35
ENDBRANCH 3 5
BRANCH 1 39
ATOM     39  CA  PRO C  36      56.718  56.330  17.148  1.00 32.35 LIG 0.18  C 
ATOM     40  CB  PRO C  36      57.910  57.013  17.821  1.00 32.18 LIG 0.04  C 
ATOM     41  CG  PRO C  36      58.844  57.272  16.678  1.00 32.63 LIG 0.02  C 
ATOM     42  CD  PRO C  36      58.751  56.000  15.868  1.00 32.64 LIG 0.13  C 
ATOM     43  N   PRO C  36      57.327  55.648  16.003  1.00 32.06 LIG-0.34  N 
ATOM     44  C   ARG C  35      56.601  54.795  15.273  1.00 32.74 LIG 0.24  C 
ATOM     45 O    ARG C  35      55.425  54.554  15.537  1.00 32.93 LIG-0.27  OA
BRANCH 44 46
ATOM     46  CA  ARG C  35      57.290  54.118  14.097  1.00 37.56 LIG 0.18  C 
BRANCH 46 47
ATOM     47  CB  ARG C  35      56.259  53.740  13.033  1.00 40.42 LIG 0.04  C 
BRANCH 47 48
ATOM     48  CG  ARG C  35      56.622  54.206  11.648  1.00 36.41 LIG 0.02  C 
BRANCH 48 49
ATOM     49  CD  ARG C  35      57.178  53.071  10.805  1.00 39.80 LIG 0.14  C 
BRANCH 49 50
ATOM     50  NE  ARG C  35      56.558  53.052   9.484  1.00 32.60 LIG-0.23  N 
ATOM     51 HE   ARG C  35      55.712  53.196   9.437  1.00 32.60 LIG 0.18  HD
ATOM     52  CZ  ARG C  35      57.211  52.829   8.349  1.00 32.33 LIG 0.67  C 
ATOM     53  NH2 ARG C  35      58.517  52.604   8.365  1.00 28.83 LIG-0.23  N 
ATOM     54  NH1 ARG C  35      56.553  52.833   7.198  1.00 30.81 LIG-0.23  N 
ATOM     55 2HH2 ARG C  35      58.937  52.460   7.628  1.00 28.83 LIG 0.17  HD
ATOM     56 1HH2 ARG C  35      58.944  52.603   9.111  1.00 28.83 LIG 0.17  HD
ATOM     57 1HH1 ARG C  35      55.706  52.980   7.188  1.00 30.81 LIG 0.17  HD
ATOM     58 2HH1 ARG C  35      56.973  52.689   6.461  1.00 30.81 LIG 0.17  HD
ENDBRANCH 49 50
ENDBRANCH 48 49
ENDBRANCH 47 48
ENDBRANCH 46 47
BRANCH 46 59
ATOM     59  N   ARG C  35      57.968  52.929  14.591  1.00 36.73 LIG-0.35  N 
ATOM     60  C   ASN C  34      59.157  52.582  14.110  1.00 40.82 LIG 0.26  C 
ATOM     61 O    ASN C  34      59.733  53.226  13.234  1.00 33.40 LIG-0.27  OA
ATOM     62 H    ARG C  35      57.542  52.494  15.198  1.00 36.73 LIG 0.16  HD
BRANCH 60 63
ATOM     63  CA  ASN C  34      59.792  51.329  14.701  1.00 41.08 LIG 0.41  C 
ATOM     64  N   ASN C  34      61.246  51.558  14.933  1.00 44.32 LIG 0.61  N 
BRANCH 63 65
ATOM     65  CB  ASN C  34      59.084  50.987  16.016  1.00 43.19 LIG 0.15  C 
BRANCH 65 66
ATOM     66  CG  ASN C  34      59.513  51.882  17.171  1.00 48.82 LIG 0.22  C 
ATOM     67  ND2 ASN C  34      60.677  51.598  17.749  1.00 46.77 LIG-0.37  N 
ATOM     68 21HD ASN C  34      60.962  52.079  18.402  1.00 46.77 LIG 0.16  HD
ATOM     69 22HD ASN C  34      61.144  50.932  17.469  1.00 46.77 LIG 0.16  HD
ATOM     70 OD1  ASN C  34      58.806  52.822  17.532  1.00 54.33 LIG-0.27  OA
ENDBRANCH 65 66
ENDBRANCH 63 65
ENDBRANCH 60 63
ENDBRANCH 46 59
ENDBRANCH 44 46
ENDBRANCH 1 39
TORSDOF 26
ENDMDL
MODEL 34
USER: ADFR SOLUTION from run 30
USER: SCORE 17.159185 LL:  -5.073 LR: -14.660 RR:   0.000 FEB:  -6.904
USER: RMSD 13.350915
USER: SEED 29
USER: STATUS no improvement in best in 6 clusters for 5 generations
USER: GENES 28
USER: genes 0 Translation |==|  0.65448 0.57262 0.70199
USER: genes 1 Rotation |==|  0.47490 0.56876 0.16352 0.86253
USER: genes 2 Torsion [C]-N--CA-[C] |==|  0.46108
USER: genes 3 Torsion [N]-CA--C-[N] |==|  0.91894
USER: genes 4 Torsion [C]-N--CA-[C] |==|  0.15011
USER: genes 5 Torsion [N]-CA--C-[N] |==|  0.49465
USER: genes 6 Torsion [C]-N--CA-[C] |==|  0.14756
USER: genes 7 Torsion [N]-CA--CB-[OG] |==|  0.72044
USER: genes 8 Torsion [CA]-CB--OG-[HG] |==|  0.80593
USER: genes 9 Torsion [N]-CA--C-[N] |==|  0.13299
USER: genes 10 Torsion [C]-N--CA-[C] |==|  0.18112
USER: genes 11 Torsion [N]-CA--C-[O] |==|  0.57114
USER: genes 12 Torsion [N]-CA--CB-[CG] |==|  0.72582
USER: genes 13 Torsion [CA]-CB--CG-[CD2] |==|  0.70734
USER: genes 14 Torsion [N]-CA--CB-[CG] |==|  0.88053
USER: genes 15 Torsion [CA]-CB--CG-[CD2] |==|  0.65674
USER: genes 16 Torsion [N]-CA--CB-[CG2] |==|  0.23685
USER: genes 17 Torsion [CA]-CB--CG1-[CD1] |==|  0.16948
USER: genes 18 Torsion [O]-C--CA-[CB] |==|  0.71516
USER: genes 19 Torsion [N]-C--CA-[N] |==|  0.48329
USER: genes 20 Torsion [C]-CA--CB-[CG] |==|  0.41247
USER: genes 21 Torsion [CA]-CB--CG-[CD] |==|  0.25422
USER: genes 22 Torsion [CB]-CG--CD-[NE] |==|  0.36112
USER: genes 23 Torsion [CG]-CD--NE-[CZ] |==|  0.36818
USER: genes 24 Torsion [C]-CA--N-[C] |==|  0.61701
USER: genes 25 Torsion [N]-C--CA-[N] |==|  0.47369
USER: genes 26 Torsion [C]-CA--CB-[CG] |==|  0.48796
USER: genes 27 Torsion [CA]-CB--CG-[ND2] |==|  0.27548
ROOT
ATOM      1  C   PRO C  36      52.419  56.386  16.824  1.00 34.41 LIG 0.24  C 
ATOM      2 O    PRO C  36      52.028  56.207  17.981  1.00 29.89 LIG-0.27  OA
ATOM      3  N   ILE C  37      51.807  55.880  15.757  1.00 30.61 LIG-0.35  N 
ATOM      4 H    ILE C  37      52.065  56.030  14.951  1.00 30.61 LIG 0.16  HD
ENDROOT
BRANCH 3 5
ATOM      5  CA  ILE C  37      50.635  55.020  15.849  1.00 31.48 LIG 0.18  C 
BRANCH 5 6
ATOM      6  C   ILE C  37      50.065  54.969  14.442  1.00 31.96 LIG 0.24  C 
ATOM      7 O    ILE C  37      49.454  53.975  14.047  1.00 31.93 LIG-0.27  OA
ATOM      8  N   LEU C  38      50.274  56.038  13.685  1.00 30.89 LIG-0.35  N 
ATOM      9 H    LEU C  38      50.733  56.723  13.931  1.00 30.89 LIG 0.16  HD
BRANCH 8 10
ATOM     10  CA  LEU C  38      49.724  56.127  12.341  1.00 34.88 LIG 0.18  C 
BRANCH 10 11
ATOM     11  C   LEU C  38      48.222  55.914  12.187  1.00 39.33 LIG 0.24  C 
ATOM     12 O    LEU C  38      47.513  55.644  13.156  1.00 37.11 LIG-0.27  OA
ATOM     13  N   SER C  39      47.753  56.043  10.949  1.00 40.29 LIG-0.34  N 
ATOM     14 H    SER C  39      48.241  56.263  10.276  1.00 40.29 LIG 0.16  HD
BRANCH 13 15
ATOM     15  CA  SER C  39      46.351  55.821  10.617  1.00 42.99 LIG 0.20  C 
BRANCH 15 16
ATOM     16  CB  SER C  39      45.956  54.356  10.843  1.00 41.70 LIG 0.20  C 
BRANCH 16 17
ATOM     17 OG   SER C  39      45.928  53.628   9.626  1.00 43.46 LIG-0.40  OA
ATOM     18 HG   SER C  39      45.279  53.887   9.159  1.00 43.46 LIG 0.21  HD
ENDBRANCH 16 17
ENDBRANCH 15 16
BRANCH 15 19
ATOM     19  C   SER C  39      45.580  56.714  11.584  1.00 43.99 LIG 0.24  C 
ATOM     20  N   LEU C  40      45.989  57.972  11.707  1.00 44.48 LIG-0.34  N 
ATOM     21 H    LEU C  40      46.655  58.309  11.279  1.00 44.48 LIG 0.16  HD
ATOM     22 O    SER C  39      44.624  56.259  12.213  1.00 44.86 LIG-0.27  OA
BRANCH 20 23
ATOM     23  CA  LEU C  40      45.312  58.899  12.607  1.00 50.99 LIG 0.18  C 
BRANCH 23 24
ATOM     24  C   LEU C  40      45.475  58.455  14.060  1.00 53.79 LIG 0.20  C 
ATOM     25 O    LEU C  40      44.605  58.811  14.884  1.00 58.34 LIG-0.65  OA
ATOM     26 OXT  LEU C  40      46.473  57.767  14.362  1.00 54.01 LIG-0.65  OA
ENDBRANCH 23 24
BRANCH 23 27
ATOM     27  CB  LEU C  40      43.826  58.978  12.244  1.00 48.71 LIG 0.04  C 
BRANCH 27 28
ATOM     28  CG  LEU C  40      43.341  60.146  11.386  1.00 48.98 LIG-0.02  C 
ATOM     29  CD2 LEU C  40      42.590  61.128  12.265  1.00 51.62 LIG 0.01  C 
ATOM     30  CD1 LEU C  40      42.437  59.638  10.272  1.00 51.55 LIG 0.01  C 
ENDBRANCH 27 28
ENDBRANCH 23 27
ENDBRANCH 20 23
ENDBRANCH 15 19
ENDBRANCH 13 15
ENDBRANCH 10 11
BRANCH 10 31
ATOM     31  CB  LEU C  38      50.462  55.149  11.432  1.00 30.69 LIG 0.04  C 
BRANCH 31 32
ATOM     32  CG  LEU C  38      51.982  55.105  11.602  1.00 36.50 LIG-0.02  C 
ATOM     33  CD2 LEU C  38      52.665  55.394  10.267  1.00 35.12 LIG 0.01  C 
ATOM     34  CD1 LEU C  38      52.391  53.736  12.133  1.00 37.99 LIG 0.01  C 
ENDBRANCH 31 32
ENDBRANCH 10 31
ENDBRANCH 8 10
ENDBRANCH 5 6
BRANCH 5 35
ATOM     35  CB  ILE C  37      49.585  55.619  16.795  1.00 37.32 LIG 0.01  C 
ATOM     36  CG2 ILE C  37      48.709  56.606  16.040  1.00 35.15 LIG 0.01  C 
BRANCH 35 37
ATOM     37  CG1 ILE C  37      48.755  54.494  17.414  1.00 33.54 LIG 0.00  C 
ATOM     38  CD1 ILE C  37      49.566  53.518  18.235  1.00 46.98 LIG 0.01  C 
ENDBRANCH 35 37
ENDBRANCH 5 35
ENDBRANCH 3 5
BRANCH 1 39
ATOM     39  CA  PRO C  36      53.653  57.238  16.530  1.00 32.35 LIG 0.18  C 
ATOM     40  CB  PRO C  36      53.287  58.633  16.021  1.00 32.18 LIG 0.04  C 
ATOM     41  CG  PRO C  36      53.324  58.474  14.532  1.00 32.63 LIG 0.02  C 
ATOM     42  CD  PRO C  36      54.553  57.623  14.312  1.00 32.64 LIG 0.13  C 
ATOM     43  N   PRO C  36      54.511  56.709  15.466  1.00 32.06 LIG-0.34  N 
ATOM     44  C   ARG C  35      55.167  55.558  15.649  1.00 32.74 LIG 0.24  C 
ATOM     45 O    ARG C  35      55.079  54.922  16.697  1.00 32.93 LIG-0.27  OA
BRANCH 44 46
ATOM     46  CA  ARG C  35      56.042  55.062  14.506  1.00 37.56 LIG 0.18  C 
BRANCH 46 47
ATOM     47  CB  ARG C  35      55.176  54.715  13.296  1.00 40.42 LIG 0.04  C 
BRANCH 47 48
ATOM     48  CG  ARG C  35      55.864  54.944  11.976  1.00 36.41 LIG 0.02  C 
BRANCH 48 49
ATOM     49  CD  ARG C  35      56.579  53.692  11.497  1.00 39.80 LIG 0.14  C 
BRANCH 49 50
ATOM     50  NE  ARG C  35      56.228  53.389  10.113  1.00 32.60 LIG-0.23  N 
ATOM     51 HE   ARG C  35      55.396  53.406   9.899  1.00 32.60 LIG 0.18  HD
ATOM     52  CZ  ARG C  35      57.105  53.090   9.161  1.00 32.33 LIG 0.67  C 
ATOM     53  NH2 ARG C  35      58.401  53.053   9.437  1.00 28.83 LIG-0.23  N 
ATOM     54  NH1 ARG C  35      56.681  52.829   7.932  1.00 30.81 LIG-0.23  N 
ATOM     55 2HH2 ARG C  35      58.966  52.859   8.819  1.00 28.83 LIG 0.17  HD
ATOM     56 1HH2 ARG C  35      58.676  53.223  10.233  1.00 28.83 LIG 0.17  HD
ATOM     57 1HH1 ARG C  35      55.840  52.854   7.753  1.00 30.81 LIG 0.17  HD
ATOM     58 2HH1 ARG C  35      57.246  52.635   7.314  1.00 30.81 LIG 0.17  HD
ENDBRANCH 49 50
ENDBRANCH 48 49
ENDBRANCH 47 48
ENDBRANCH 46 47
BRANCH 46 59
ATOM     59  N   ARG C  35      56.765  53.886  14.966  1.00 36.73 LIG-0.35  N 
ATOM     60  C   ASN C  34      58.049  53.723  14.666  1.00 40.82 LIG 0.26  C 
ATOM     61 O    ASN C  34      58.681  54.534  13.990  1.00 33.40 LIG-0.27  OA
ATOM     62 H    ARG C  35      56.299  53.332  15.431  1.00 36.73 LIG 0.16  HD
BRANCH 60 63
ATOM     63  CA  ASN C  34      58.721  52.466  15.204  1.00 41.08 LIG 0.41  C 
ATOM     64  N   ASN C  34      60.073  52.314  14.598  1.00 44.32 LIG 0.61  N 
BRANCH 63 65
ATOM     65  CB  ASN C  34      58.823  52.572  16.730  1.00 43.19 LIG 0.15  C 
BRANCH 65 66
ATOM     66  CG  ASN C  34      59.387  51.314  17.376  1.00 48.82 LIG 0.22  C 
ATOM     67  ND2 ASN C  34      60.678  51.333  17.698  1.00 46.77 LIG-0.37  N 
ATOM     68 21HD ASN C  34      61.039  50.647  18.069  1.00 46.77 LIG 0.16  HD
ATOM     69 22HD ASN C  34      61.152  52.032  17.534  1.00 46.77 LIG 0.16  HD
ATOM     70 OD1  ASN C  34      58.665  50.341  17.588  1.00 54.33 LIG-0.27  OA
ENDBRANCH 65 66
ENDBRANCH 63 65
ENDBRANCH 60 63
ENDBRANCH 46 59
ENDBRANCH 44 46
ENDBRANCH 1 39
TORSDOF 26
ENDMDL
MODEL 35
USER: ADFR SOLUTION from run 98
USER: SCORE 19.631264 LL:  -6.664 LR: -14.531 RR:   0.000 FEB:  -6.775
USER: RMSD 12.418137
USER: SEED 97
USER: STATUS no improvement in best in 13 clusters for 5 generations
USER: GENES 28
USER: genes 0 Translation |==|  0.81616 0.39761 0.63211
USER: genes 1 Rotation |==|  0.66906 0.38713 0.95359 0.55417
USER: genes 2 Torsion [C]-N--CA-[C] |==|  0.55250
USER: genes 3 Torsion [N]-CA--C-[N] |==|  0.42464
USER: genes 4 Torsion [C]-N--CA-[C] |==|  0.64446
USER: genes 5 Torsion [N]-CA--C-[N] |==|  0.90312
USER: genes 6 Torsion [C]-N--CA-[C] |==|  0.77404
USER: genes 7 Torsion [N]-CA--CB-[OG] |==|  0.90635
USER: genes 8 Torsion [CA]-CB--OG-[HG] |==|  0.18514
USER: genes 9 Torsion [N]-CA--C-[N] |==|  0.96693
USER: genes 10 Torsion [C]-N--CA-[C] |==|  0.66054
USER: genes 11 Torsion [N]-CA--C-[O] |==|  0.49560
USER: genes 12 Torsion [N]-CA--CB-[CG] |==|  0.83200
USER: genes 13 Torsion [CA]-CB--CG-[CD2] |==|  0.21888
USER: genes 14 Torsion [N]-CA--CB-[CG] |==|  0.60018
USER: genes 15 Torsion [CA]-CB--CG-[CD2] |==|  0.45983
USER: genes 16 Torsion [N]-CA--CB-[CG2] |==|  0.23543
USER: genes 17 Torsion [CA]-CB--CG1-[CD1] |==|  0.09819
USER: genes 18 Torsion [O]-C--CA-[CB] |==|  0.97931
USER: genes 19 Torsion [N]-C--CA-[N] |==|  0.50562
USER: genes 20 Torsion [C]-CA--CB-[CG] |==|  0.45391
USER: genes 21 Torsion [CA]-CB--CG-[CD] |==|  0.92646
USER: genes 22 Torsion [CB]-CG--CD-[NE] |==|  0.25377
USER: genes 23 Torsion [CG]-CD--NE-[CZ] |==|  0.34280
USER: genes 24 Torsion [C]-CA--N-[C] |==|  0.17886
USER: genes 25 Torsion [N]-C--CA-[N] |==|  0.93721
USER: genes 26 Torsion [C]-CA--CB-[CG] |==|  0.78525
USER: genes 27 Torsion [CA]-CB--CG-[ND2] |==|  0.18938
ROOT
ATOM      1  C   PRO C  36      57.512  53.236  15.514  1.00 34.41 LIG 0.24  C 
ATOM      2 O    PRO C  36      58.329  53.346  16.433  1.00 29.89 LIG-0.27  OA
ATOM      3  N   ILE C  37      56.547  54.121  15.282  1.00 30.61 LIG-0.35  N 
ATOM      4 H    ILE C  37      55.996  54.057  14.624  1.00 30.61 LIG 0.16  HD
ENDROOT
BRANCH 3 5
ATOM      5  CA  ILE C  37      56.325  55.291  16.120  1.00 31.48 LIG 0.18  C 
BRANCH 5 6
ATOM      6  C   ILE C  37      54.906  55.738  15.817  1.00 31.96 LIG 0.24  C 
ATOM      7 O    ILE C  37      54.394  55.507  14.720  1.00 31.93 LIG-0.27  OA
ATOM      8  N   LEU C  38      54.275  56.388  16.787  1.00 30.89 LIG-0.35  N 
ATOM      9 H    LEU C  38      54.631  56.593  17.543  1.00 30.89 LIG 0.16  HD
BRANCH 8 10
ATOM     10  CA  LEU C  38      52.892  56.812  16.632  1.00 34.88 LIG 0.18  C 
BRANCH 10 11
ATOM     11  C   LEU C  38      52.574  58.275  16.915  1.00 39.33 LIG 0.24  C 
ATOM     12 O    LEU C  38      51.714  58.877  16.273  1.00 37.11 LIG-0.27  OA
ATOM     13  N   SER C  39      53.283  58.834  17.892  1.00 40.29 LIG-0.34  N 
ATOM     14 H    SER C  39      53.861  58.406  18.364  1.00 40.29 LIG 0.16  HD
BRANCH 13 15
ATOM     15  CA  SER C  39      53.142  60.238  18.257  1.00 42.99 LIG 0.20  C 
BRANCH 15 16
ATOM     16  CB  SER C  39      53.680  60.498  19.668  1.00 41.70 LIG 0.20  C 
BRANCH 16 17
ATOM     17 OG   SER C  39      53.464  59.388  20.524  1.00 43.46 LIG-0.40  OA
ATOM     18 HG   SER C  39      53.928  58.738  20.263  1.00 43.46 LIG 0.21  HD
ENDBRANCH 16 17
ENDBRANCH 15 16
BRANCH 15 19
ATOM     19  C   SER C  39      53.993  60.988  17.237  1.00 43.99 LIG 0.24  C 
ATOM     20  N   LEU C  40      54.809  60.265  16.477  1.00 44.48 LIG-0.34  N 
ATOM     21 H    LEU C  40      54.886  59.410  16.527  1.00 44.48 LIG 0.16  HD
ATOM     22 O    SER C  39      53.907  62.213  17.146  1.00 44.86 LIG-0.27  OA
BRANCH 20 23
ATOM     23  CA  LEU C  40      55.660  60.896  15.475  1.00 50.99 LIG 0.18  C 
BRANCH 23 24
ATOM     24  C   LEU C  40      55.375  60.321  14.088  1.00 53.79 LIG 0.20  C 
ATOM     25 O    LEU C  40      56.010  60.788  13.117  1.00 58.34 LIG-0.65  OA
ATOM     26 OXT  LEU C  40      54.518  59.419  13.984  1.00 54.01 LIG-0.65  OA
ENDBRANCH 23 24
BRANCH 23 27
ATOM     27  CB  LEU C  40      57.132  60.684  15.841  1.00 48.71 LIG 0.04  C 
BRANCH 27 28
ATOM     28  CG  LEU C  40      57.645  61.238  17.170  1.00 48.98 LIG-0.02  C 
ATOM     29  CD2 LEU C  40      57.227  60.306  18.290  1.00 51.62 LIG 0.01  C 
ATOM     30  CD1 LEU C  40      57.085  62.633  17.408  1.00 51.55 LIG 0.01  C 
ENDBRANCH 27 28
ENDBRANCH 23 27
ENDBRANCH 20 23
ENDBRANCH 15 19
ENDBRANCH 13 15
ENDBRANCH 10 11
BRANCH 10 31
ATOM     31  CB  LEU C  38      51.999  55.930  17.500  1.00 30.69 LIG 0.04  C 
BRANCH 31 32
ATOM     32  CG  LEU C  38      50.626  55.596  16.913  1.00 36.50 LIG-0.02  C 
ATOM     33  CD2 LEU C  38      49.992  54.445  17.692  1.00 35.12 LIG 0.01  C 
ATOM     34  CD1 LEU C  38      50.782  55.232  15.442  1.00 37.99 LIG 0.01  C 
ENDBRANCH 31 32
ENDBRANCH 10 31
ENDBRANCH 8 10
ENDBRANCH 5 6
BRANCH 5 35
ATOM     35  CB  ILE C  37      57.297  56.422  15.756  1.00 37.32 LIG 0.01  C 
ATOM     36  CG2 ILE C  37      56.741  57.229  14.593  1.00 35.15 LIG 0.01  C 
BRANCH 35 37
ATOM     37  CG1 ILE C  37      57.538  57.302  16.983  1.00 33.54 LIG 0.00  C 
ATOM     38  CD1 ILE C  37      57.556  56.539  18.287  1.00 46.98 LIG 0.01  C 
ENDBRANCH 35 37
ENDBRANCH 5 35
ENDBRANCH 3 5
BRANCH 1 39
ATOM     39  CA  PRO C  36      57.566  52.056  14.545  1.00 32.35 LIG 0.18  C 
ATOM     40  CB  PRO C  36      58.813  51.194  14.750  1.00 32.18 LIG 0.04  C 
ATOM     41  CG  PRO C  36      59.784  51.758  13.758  1.00 32.63 LIG 0.02  C 
ATOM     42  CD  PRO C  36      58.925  51.993  12.538  1.00 32.64 LIG 0.13  C 
ATOM     43  N   PRO C  36      57.653  52.437  13.134  1.00 32.06 LIG-0.34  N 
ATOM     44  C   ARG C  35      56.625  53.061  12.548  1.00 32.74 LIG 0.24  C 
ATOM     45 O    ARG C  35      55.592  53.323  13.160  1.00 32.93 LIG-0.27  OA
BRANCH 44 46
ATOM     46  CA  ARG C  35      56.776  53.431  11.079  1.00 37.56 LIG 0.18  C 
BRANCH 46 47
ATOM     47  CB  ARG C  35      58.007  54.317  10.886  1.00 40.42 LIG 0.04  C 
BRANCH 47 48
ATOM     48  CG  ARG C  35      58.466  54.409   9.454  1.00 36.41 LIG 0.02  C 
BRANCH 48 49
ATOM     49  CD  ARG C  35      58.066  53.177   8.661  1.00 39.80 LIG 0.14  C 
BRANCH 49 50
ATOM     50  NE  ARG C  35      56.767  53.368   8.024  1.00 32.60 LIG-0.23  N 
ATOM     51 HE   ARG C  35      56.100  53.567   8.528  1.00 32.60 LIG 0.18  HD
ATOM     52  CZ  ARG C  35      56.544  53.256   6.719  1.00 32.33 LIG 0.67  C 
ATOM     53  NH2 ARG C  35      57.538  52.953   5.897  1.00 28.83 LIG-0.23  N 
ATOM     54  NH1 ARG C  35      55.322  53.449   6.240  1.00 30.81 LIG-0.23  N 
ATOM     55 2HH2 ARG C  35      57.390  52.881   5.053  1.00 28.83 LIG 0.17  HD
ATOM     56 1HH2 ARG C  35      58.330  52.829   6.207  1.00 28.83 LIG 0.17  HD
ATOM     57 1HH1 ARG C  35      54.678  53.647   6.774  1.00 30.81 LIG 0.17  HD
ATOM     58 2HH1 ARG C  35      55.175  53.377   5.396  1.00 30.81 LIG 0.17  HD
ENDBRANCH 49 50
ENDBRANCH 48 49
ENDBRANCH 47 48
ENDBRANCH 46 47
BRANCH 46 59
ATOM     59  N   ARG C  35      55.573  54.137  10.663  1.00 36.73 LIG-0.35  N 
ATOM     60  C   ASN C  34      55.262  55.313  11.196  1.00 40.82 LIG 0.26  C 
ATOM     61 O    ASN C  34      55.953  55.856  12.057  1.00 33.40 LIG-0.27  OA
ATOM     62 H    ARG C  35      55.105  53.734  10.064  1.00 36.73 LIG 0.16  HD
BRANCH 60 63
ATOM     63  CA  ASN C  34      53.990  55.978  10.684  1.00 41.08 LIG 0.41  C 
ATOM     64  N   ASN C  34      53.650  55.450   9.333  1.00 44.32 LIG 0.61  N 
BRANCH 63 65
ATOM     65  CB  ASN C  34      52.853  55.700  11.673  1.00 43.19 LIG 0.15  C 
BRANCH 65 66
ATOM     66  CG  ASN C  34      52.286  54.293  11.546  1.00 48.82 LIG 0.22  C 
ATOM     67  ND2 ASN C  34      53.082  53.291  11.912  1.00 46.77 LIG-0.37  N 
ATOM     68 21HD ASN C  34      52.803  52.480  11.861  1.00 46.77 LIG 0.16  HD
ATOM     69 22HD ASN C  34      53.876  53.456  12.198  1.00 46.77 LIG 0.16  HD
ATOM     70 OD1  ASN C  34      51.143  54.112  11.129  1.00 54.33 LIG-0.27  OA
ENDBRANCH 65 66
ENDBRANCH 63 65
ENDBRANCH 60 63
ENDBRANCH 46 59
ENDBRANCH 44 46
ENDBRANCH 1 39
TORSDOF 26
ENDMDL
MODEL 36
USER: ADFR SOLUTION from run 40
USER: SCORE 18.950818 LL:  -5.291 LR: -14.467 RR:   0.000 FEB:  -6.711
USER: RMSD 11.977225
USER: SEED 39
USER: STATUS no improvement in best in 12 clusters for 5 generations
USER: GENES 28
USER: genes 0 Translation |==|  0.61653 0.49565 0.55578
USER: genes 1 Rotation |==|  0.39067 0.05006 0.63860 0.62801
USER: genes 2 Torsion [C]-N--CA-[C] |==|  0.76497
USER: genes 3 Torsion [N]-CA--C-[N] |==|  0.00703
USER: genes 4 Torsion [C]-N--CA-[C] |==|  0.67824
USER: genes 5 Torsion [N]-CA--C-[N] |==|  0.95553
USER: genes 6 Torsion [C]-N--CA-[C] |==|  0.55349
USER: genes 7 Torsion [N]-CA--CB-[OG] |==|  0.06194
USER: genes 8 Torsion [CA]-CB--OG-[HG] |==|  0.26864
USER: genes 9 Torsion [N]-CA--C-[N] |==|  0.47570
USER: genes 10 Torsion [C]-N--CA-[C] |==|  0.76338
USER: genes 11 Torsion [N]-CA--C-[O] |==|  0.66022
USER: genes 12 Torsion [N]-CA--CB-[CG] |==|  0.66017
USER: genes 13 Torsion [CA]-CB--CG-[CD2] |==|  0.74560
USER: genes 14 Torsion [N]-CA--CB-[CG] |==|  0.05425
USER: genes 15 Torsion [CA]-CB--CG-[CD2] |==|  0.53751
USER: genes 16 Torsion [N]-CA--CB-[CG2] |==|  0.21800
USER: genes 17 Torsion [CA]-CB--CG1-[CD1] |==|  0.03334
USER: genes 18 Torsion [O]-C--CA-[CB] |==|  0.07192
USER: genes 19 Torsion [N]-C--CA-[N] |==|  0.11028
USER: genes 20 Torsion [C]-CA--CB-[CG] |==|  0.19108
USER: genes 21 Torsion [CA]-CB--CG-[CD] |==|  0.49583
USER: genes 22 Torsion [CB]-CG--CD-[NE] |==|  0.27164
USER: genes 23 Torsion [CG]-CD--NE-[CZ] |==|  0.58232
USER: genes 24 Torsion [C]-CA--N-[C] |==|  0.64453
USER: genes 25 Torsion [N]-C--CA-[N] |==|  0.60133
USER: genes 26 Torsion [C]-CA--CB-[CG] |==|  0.25424
USER: genes 27 Torsion [CA]-CB--CG-[ND2] |==|  0.27344
ROOT
ATOM      1  C   PRO C  36      51.224  55.001  14.083  1.00 34.41 LIG 0.24  C 
ATOM      2 O    PRO C  36      50.452  54.088  13.774  1.00 29.89 LIG-0.27  OA
ATOM      3  N   ILE C  37      51.320  55.493  15.315  1.00 30.61 LIG-0.35  N 
ATOM      4 H    ILE C  37      51.879  56.110  15.534  1.00 30.61 LIG 0.16  HD
ENDROOT
BRANCH 3 5
ATOM      5  CA  ILE C  37      50.489  55.035  16.420  1.00 31.48 LIG 0.18  C 
BRANCH 5 6
ATOM      6  C   ILE C  37      49.203  55.835  16.312  1.00 31.96 LIG 0.24  C 
ATOM      7 O    ILE C  37      48.304  55.696  17.143  1.00 31.93 LIG-0.27  OA
ATOM      8  N   LEU C  38      49.114  56.666  15.282  1.00 30.89 LIG-0.35  N 
ATOM      9 H    LEU C  38      49.715  56.746  14.671  1.00 30.89 LIG 0.16  HD
BRANCH 8 10
ATOM     10  CA  LEU C  38      47.955  57.529  15.110  1.00 34.88 LIG 0.18  C 
BRANCH 10 11
ATOM     11  C   LEU C  38      47.086  57.293  13.880  1.00 39.33 LIG 0.24  C 
ATOM     12 O    LEU C  38      45.952  57.764  13.800  1.00 37.11 LIG-0.27  OA
ATOM     13  N   SER C  39      47.642  56.558  12.921  1.00 40.29 LIG-0.34  N 
ATOM     14 H    SER C  39      48.447  56.255  12.962  1.00 40.29 LIG 0.16  HD
BRANCH 13 15
ATOM     15  CA  SER C  39      46.931  56.194  11.702  1.00 42.99 LIG 0.20  C 
BRANCH 15 16
ATOM     16  CB  SER C  39      46.956  57.342  10.686  1.00 41.70 LIG 0.20  C 
BRANCH 16 17
ATOM     17 OG   SER C  39      48.033  58.232  10.927  1.00 43.46 LIG-0.40  OA
ATOM     18 HG   SER C  39      48.680  58.031  10.429  1.00 43.46 LIG 0.21  HD
ENDBRANCH 16 17
ENDBRANCH 15 16
BRANCH 15 19
ATOM     19  C   SER C  39      47.703  55.002  11.147  1.00 43.99 LIG 0.24  C 
ATOM     20  N   LEU C  40      47.163  54.351  10.121  1.00 44.48 LIG-0.34  N 
ATOM     21 H    LEU C  40      46.412  54.561   9.757  1.00 44.48 LIG 0.16  HD
ATOM     22 O    SER C  39      48.779  54.676  11.651  1.00 44.86 LIG-0.27  OA
BRANCH 20 23
ATOM     23  CA  LEU C  40      47.830  53.200   9.525  1.00 50.99 LIG 0.18  C 
BRANCH 23 24
ATOM     24  C   LEU C  40      48.848  53.650   8.477  1.00 53.79 LIG 0.20  C 
ATOM     25 O    LEU C  40      48.719  53.218   7.310  1.00 58.34 LIG-0.65  OA
ATOM     26 OXT  LEU C  40      49.765  54.418   8.833  1.00 54.01 LIG-0.65  OA
ENDBRANCH 23 24
BRANCH 23 27
ATOM     27  CB  LEU C  40      46.790  52.276   8.885  1.00 48.71 LIG 0.04  C 
BRANCH 27 28
ATOM     28  CG  LEU C  40      46.714  50.821   9.352  1.00 48.98 LIG-0.02  C 
ATOM     29  CD2 LEU C  40      47.609  49.972   8.471  1.00 51.62 LIG 0.01  C 
ATOM     30  CD1 LEU C  40      45.278  50.322   9.281  1.00 51.55 LIG 0.01  C 
ENDBRANCH 27 28
ENDBRANCH 23 27
ENDBRANCH 20 23
ENDBRANCH 15 19
ENDBRANCH 13 15
ENDBRANCH 10 11
BRANCH 10 31
ATOM     31  CB  LEU C  38      48.408  58.986  15.129  1.00 30.69 LIG 0.04  C 
BRANCH 31 32
ATOM     32  CG  LEU C  38      49.893  59.222  14.849  1.00 36.50 LIG-0.02  C 
ATOM     33  CD2 LEU C  38      50.273  60.653  15.224  1.00 35.12 LIG 0.01  C 
ATOM     34  CD1 LEU C  38      50.177  58.956  13.376  1.00 37.99 LIG 0.01  C 
ENDBRANCH 31 32
ENDBRANCH 10 31
ENDBRANCH 8 10
ENDBRANCH 5 6
BRANCH 5 35
ATOM     35  CB  ILE C  37      51.156  55.332  17.770  1.00 37.32 LIG 0.01  C 
ATOM     36  CG2 ILE C  37      50.967  56.798  18.129  1.00 35.15 LIG 0.01  C 
BRANCH 35 37
ATOM     37  CG1 ILE C  37      50.568  54.414  18.842  1.00 33.54 LIG 0.00  C 
ATOM     38  CD1 ILE C  37      49.728  53.287  18.286  1.00 46.98 LIG 0.01  C 
ENDBRANCH 35 37
ENDBRANCH 5 35
ENDBRANCH 3 5
BRANCH 1 39
ATOM     39  CA  PRO C  36      52.156  55.631  13.050  1.00 32.35 LIG 0.18  C 
ATOM     40  CB  PRO C  36      51.614  55.504  11.625  1.00 32.18 LIG 0.04  C 
ATOM     41  CG  PRO C  36      52.273  54.256  11.121  1.00 32.63 LIG 0.02  C 
ATOM     42  CD  PRO C  36      53.686  54.383  11.642  1.00 32.64 LIG 0.13  C 
ATOM     43  N   PRO C  36      53.475  55.001  12.963  1.00 32.06 LIG-0.34  N 
ATOM     44  C   ARG C  35      54.322  55.082  13.995  1.00 32.74 LIG 0.24  C 
ATOM     45 O    ARG C  35      54.031  55.683  15.027  1.00 32.93 LIG-0.27  OA
BRANCH 44 46
ATOM     46  CA  ARG C  35      55.678  54.406  13.843  1.00 37.56 LIG 0.18  C 
BRANCH 46 47
ATOM     47  CB  ARG C  35      56.668  54.985  14.854  1.00 40.42 LIG 0.04  C 
BRANCH 47 48
ATOM     48  CG  ARG C  35      56.353  54.624  16.282  1.00 36.41 LIG 0.02  C 
BRANCH 48 49
ATOM     49  CD  ARG C  35      57.386  55.192  17.240  1.00 39.80 LIG 0.14  C 
BRANCH 49 50
ATOM     50  NE  ARG C  35      56.914  56.438  17.834  1.00 32.60 LIG-0.23  N 
ATOM     51 HE   ARG C  35      56.066  56.537  17.936  1.00 32.60 LIG 0.18  HD
ATOM     52  CZ  ARG C  35      57.704  57.431  18.229  1.00 32.33 LIG 0.67  C 
ATOM     53  NH2 ARG C  35      59.018  57.329  18.097  1.00 28.83 LIG-0.23  N 
ATOM     54  NH1 ARG C  35      57.173  58.525  18.758  1.00 30.81 LIG-0.23  N 
ATOM     55 2HH2 ARG C  35      59.527  57.973  18.354  1.00 28.83 LIG 0.17  HD
ATOM     56 1HH2 ARG C  35      59.363  56.619  17.756  1.00 28.83 LIG 0.17  HD
ATOM     57 1HH1 ARG C  35      56.320  58.590  18.844  1.00 30.81 LIG 0.17  HD
ATOM     58 2HH1 ARG C  35      57.682  59.169  19.014  1.00 30.81 LIG 0.17  HD
ENDBRANCH 49 50
ENDBRANCH 48 49
ENDBRANCH 47 48
ENDBRANCH 46 47
BRANCH 46 59
ATOM     59  N   ARG C  35      56.149  54.633  12.485  1.00 36.73 LIG-0.35  N 
ATOM     60  C   ASN C  34      56.544  53.615  11.729  1.00 40.82 LIG 0.26  C 
ATOM     61 O    ASN C  34      56.542  52.451  12.128  1.00 33.40 LIG-0.27  OA
ATOM     62 H    ARG C  35      56.145  55.456  12.233  1.00 36.73 LIG 0.16  HD
BRANCH 60 63
ATOM     63  CA  ASN C  34      57.007  53.954  10.317  1.00 41.08 LIG 0.41  C 
ATOM     64  N   ASN C  34      56.586  52.881   9.373  1.00 44.32 LIG 0.61  N 
BRANCH 63 65
ATOM     65  CB  ASN C  34      56.402  55.301   9.906  1.00 43.19 LIG 0.15  C 
BRANCH 65 66
ATOM     66  CG  ASN C  34      57.302  56.483  10.240  1.00 48.82 LIG 0.22  C 
ATOM     67  ND2 ASN C  34      58.049  56.965   9.250  1.00 46.77 LIG-0.37  N 
ATOM     68 21HD ASN C  34      58.569  57.635   9.392  1.00 46.77 LIG 0.16  HD
ATOM     69 22HD ASN C  34      58.012  56.606   8.470  1.00 46.77 LIG 0.16  HD
ATOM     70 OD1  ASN C  34      57.317  56.958  11.375  1.00 54.33 LIG-0.27  OA
ENDBRANCH 65 66
ENDBRANCH 63 65
ENDBRANCH 60 63
ENDBRANCH 46 59
ENDBRANCH 44 46
ENDBRANCH 1 39
TORSDOF 26
ENDMDL
MODEL 37
USER: ADFR SOLUTION from run 104
USER: SCORE 18.511114 LL:  -5.461 LR: -14.461 RR:   0.000 FEB:  -6.705
USER: RMSD 8.545419
USER: SEED 103
USER: STATUS no improvement in best in 13 clusters for 5 generations
USER: GENES 28
USER: genes 0 Translation |==|  0.66279 0.47599 0.46508
USER: genes 1 Rotation |==|  0.73511 0.20621 0.57907 0.81962
USER: genes 2 Torsion [C]-N--CA-[C] |==|  0.61141
USER: genes 3 Torsion [N]-CA--C-[N] |==|  0.46448
USER: genes 4 Torsion [C]-N--CA-[C] |==|  0.86667
USER: genes 5 Torsion [N]-CA--C-[N] |==|  0.38695
USER: genes 6 Torsion [C]-N--CA-[C] |==|  0.17771
USER: genes 7 Torsion [N]-CA--CB-[OG] |==|  0.47928
USER: genes 8 Torsion [CA]-CB--OG-[HG] |==|  0.07864
USER: genes 9 Torsion [N]-CA--C-[N] |==|  0.18791
USER: genes 10 Torsion [C]-N--CA-[C] |==|  0.75118
USER: genes 11 Torsion [N]-CA--C-[O] |==|  0.66834
USER: genes 12 Torsion [N]-CA--CB-[CG] |==|  0.05723
USER: genes 13 Torsion [CA]-CB--CG-[CD2] |==|  0.67894
USER: genes 14 Torsion [N]-CA--CB-[CG] |==|  0.88700
USER: genes 15 Torsion [CA]-CB--CG-[CD2] |==|  0.61237
USER: genes 16 Torsion [N]-CA--CB-[CG2] |==|  0.20812
USER: genes 17 Torsion [CA]-CB--CG1-[CD1] |==|  0.25709
USER: genes 18 Torsion [O]-C--CA-[CB] |==|  0.34265
USER: genes 19 Torsion [N]-C--CA-[N] |==|  0.18241
USER: genes 20 Torsion [C]-CA--CB-[CG] |==|  0.64286
USER: genes 21 Torsion [CA]-CB--CG-[CD] |==|  0.70475
USER: genes 22 Torsion [CB]-CG--CD-[NE] |==|  0.00536
USER: genes 23 Torsion [CG]-CD--NE-[CZ] |==|  0.32446
USER: genes 24 Torsion [C]-CA--N-[C] |==|  0.60030
USER: genes 25 Torsion [N]-C--CA-[N] |==|  0.53598
USER: genes 26 Torsion [C]-CA--CB-[CG] |==|  0.82720
USER: genes 27 Torsion [CA]-CB--CG-[ND2] |==|  0.47587
ROOT
ATOM      1  C   PRO C  36      52.681  54.647  12.382  1.00 34.41 LIG 0.24  C 
ATOM      2 O    PRO C  36      52.587  53.490  11.962  1.00 29.89 LIG-0.27  OA
ATOM      3  N   ILE C  37      53.789  55.140  12.929  1.00 30.61 LIG-0.35  N 
ATOM      4 H    ILE C  37      53.861  55.954  13.196  1.00 30.61 LIG 0.16  HD
ENDROOT
BRANCH 3 5
ATOM      5  CA  ILE C  37      54.994  54.347  13.132  1.00 31.48 LIG 0.18  C 
BRANCH 5 6
ATOM      6  C   ILE C  37      55.526  54.767  14.490  1.00 31.96 LIG 0.24  C 
ATOM      7 O    ILE C  37      55.094  55.775  15.050  1.00 31.93 LIG-0.27  OA
ATOM      8  N   LEU C  38      56.473  53.998  15.013  1.00 30.89 LIG-0.35  N 
ATOM      9 H    LEU C  38      56.814  53.314  14.618  1.00 30.89 LIG 0.16  HD
BRANCH 8 10
ATOM     10  CA  LEU C  38      57.015  54.268  16.336  1.00 34.88 LIG 0.18  C 
BRANCH 10 11
ATOM     11  C   LEU C  38      57.430  55.703  16.640  1.00 39.33 LIG 0.24  C 
ATOM     12 O    LEU C  38      58.011  56.391  15.801  1.00 37.11 LIG-0.27  OA
ATOM     13  N   SER C  39      57.118  56.140  17.857  1.00 40.29 LIG-0.34  N 
ATOM     14 H    SER C  39      56.684  55.672  18.433  1.00 40.29 LIG 0.16  HD
BRANCH 13 15
ATOM     15  CA  SER C  39      57.488  57.469  18.329  1.00 42.99 LIG 0.20  C 
BRANCH 15 16
ATOM     16  CB  SER C  39      58.996  57.706  18.182  1.00 41.70 LIG 0.20  C 
BRANCH 16 17
ATOM     17 OG   SER C  39      59.346  59.048  18.477  1.00 43.46 LIG-0.40  OA
ATOM     18 HG   SER C  39      58.795  59.368  19.025  1.00 43.46 LIG 0.21  HD
ENDBRANCH 16 17
ENDBRANCH 15 16
BRANCH 15 19
ATOM     19  C   SER C  39      56.727  58.427  17.418  1.00 43.99 LIG 0.24  C 
ATOM     20  N   LEU C  40      55.403  58.448  17.527  1.00 44.48 LIG-0.34  N 
ATOM     21 H    LEU C  40      54.955  57.959  18.075  1.00 44.48 LIG 0.16  HD
ATOM     22 O    SER C  39      57.342  59.137  16.622  1.00 44.86 LIG-0.27  OA
BRANCH 20 23
ATOM     23  CA  LEU C  40      54.593  59.333  16.698  1.00 50.99 LIG 0.18  C 
BRANCH 23 24
ATOM     24  C   LEU C  40      54.401  60.686  17.382  1.00 53.79 LIG 0.20  C 
ATOM     25 O    LEU C  40      53.235  61.048  17.651  1.00 58.34 LIG-0.65  OA
ATOM     26 OXT  LEU C  40      55.413  61.373  17.632  1.00 54.01 LIG-0.65  OA
ENDBRANCH 23 24
BRANCH 23 27
ATOM     27  CB  LEU C  40      53.233  58.683  16.426  1.00 48.71 LIG 0.04  C 
BRANCH 27 28
ATOM     28  CG  LEU C  40      52.748  57.576  17.363  1.00 48.98 LIG-0.02  C 
ATOM     29  CD2 LEU C  40      52.644  56.279  16.584  1.00 51.62 LIG 0.01  C 
ATOM     30  CD1 LEU C  40      51.395  57.945  17.955  1.00 51.55 LIG 0.01  C 
ENDBRANCH 27 28
ENDBRANCH 23 27
ENDBRANCH 20 23
ENDBRANCH 15 19
ENDBRANCH 13 15
ENDBRANCH 10 11
BRANCH 10 31
ATOM     31  CB  LEU C  38      58.201  53.342  16.589  1.00 30.69 LIG 0.04  C 
BRANCH 31 32
ATOM     32  CG  LEU C  38      58.031  51.900  16.106  1.00 36.50 LIG-0.02  C 
ATOM     33  CD2 LEU C  38      58.613  50.933  17.135  1.00 35.12 LIG 0.01  C 
ATOM     34  CD1 LEU C  38      58.722  51.735  14.758  1.00 37.99 LIG 0.01  C 
ENDBRANCH 31 32
ENDBRANCH 10 31
ENDBRANCH 8 10
ENDBRANCH 5 6
BRANCH 5 35
ATOM     35  CB  ILE C  37      56.046  54.661  12.059  1.00 37.32 LIG 0.01  C 
ATOM     36  CG2 ILE C  37      56.690  56.010  12.345  1.00 35.15 LIG 0.01  C 
BRANCH 35 37
ATOM     37  CG1 ILE C  37      57.087  53.542  12.022  1.00 33.54 LIG 0.00  C 
ATOM     38  CD1 ILE C  37      56.775  52.452  11.023  1.00 46.98 LIG 0.01  C 
ENDBRANCH 35 37
ENDBRANCH 5 35
ENDBRANCH 3 5
BRANCH 1 39
ATOM     39  CA  PRO C  36      51.509  55.622  12.284  1.00 32.35 LIG 0.18  C 
ATOM     40  CB  PRO C  36      51.111  56.190  13.648  1.00 32.18 LIG 0.04  C 
ATOM     41  CG  PRO C  36      50.013  55.272  14.092  1.00 32.63 LIG 0.02  C 
ATOM     42  CD  PRO C  36      49.213  55.062  12.828  1.00 32.64 LIG 0.13  C 
ATOM     43  N   PRO C  36      50.264  55.022  11.797  1.00 32.06 LIG-0.34  N 
ATOM     44  C   ARG C  35      50.188  54.574  10.539  1.00 32.74 LIG 0.24  C 
ATOM     45 O    ARG C  35      51.138  54.655   9.764  1.00 32.93 LIG-0.27  OA
BRANCH 44 46
ATOM     46  CA  ARG C  35      48.868  53.961  10.093  1.00 37.56 LIG 0.18  C 
BRANCH 46 47
ATOM     47  CB  ARG C  35      49.014  53.366   8.692  1.00 40.42 LIG 0.04  C 
BRANCH 47 48
ATOM     48  CG  ARG C  35      47.955  53.829   7.726  1.00 36.41 LIG 0.02  C 
BRANCH 48 49
ATOM     49  CD  ARG C  35      46.940  52.734   7.446  1.00 39.80 LIG 0.14  C 
BRANCH 49 50
ATOM     50  NE  ARG C  35      47.237  51.537   8.225  1.00 32.60 LIG-0.23  N 
ATOM     51 HE   ARG C  35      47.981  51.134   8.072  1.00 32.60 LIG 0.18  HD
ATOM     52  CZ  ARG C  35      46.439  51.027   9.156  1.00 32.33 LIG 0.67  C 
ATOM     53  NH2 ARG C  35      45.282  51.610   9.434  1.00 28.83 LIG-0.23  N 
ATOM     54  NH1 ARG C  35      46.803  49.931   9.809  1.00 30.81 LIG-0.23  N 
ATOM     55 2HH2 ARG C  35      44.767  51.277  10.037  1.00 28.83 LIG 0.17  HD
ATOM     56 1HH2 ARG C  35      45.046  52.321   9.012  1.00 28.83 LIG 0.17  HD
ATOM     57 1HH1 ARG C  35      47.554  49.554   9.629  1.00 30.81 LIG 0.17  HD
ATOM     58 2HH1 ARG C  35      46.288  49.599  10.412  1.00 30.81 LIG 0.17  HD
ENDBRANCH 49 50
ENDBRANCH 48 49
ENDBRANCH 47 48
ENDBRANCH 46 47
BRANCH 46 59
ATOM     59  N   ARG C  35      47.858  55.008  10.096  1.00 36.73 LIG-0.35  N 
ATOM     60  C   ASN C  34      46.607  54.738  10.453  1.00 40.82 LIG 0.26  C 
ATOM     61 O    ASN C  34      46.239  53.612  10.785  1.00 33.40 LIG-0.27  OA
ATOM     62 H    ARG C  35      48.139  55.785   9.855  1.00 36.73 LIG 0.16  HD
BRANCH 60 63
ATOM     63  CA  ASN C  34      45.626  55.905  10.437  1.00 41.08 LIG 0.41  C 
ATOM     64  N   ASN C  34      44.373  55.524  11.148  1.00 44.32 LIG 0.61  N 
BRANCH 63 65
ATOM     65  CB  ASN C  34      46.282  57.114  11.112  1.00 43.19 LIG 0.15  C 
BRANCH 65 66
ATOM     66  CG  ASN C  34      46.623  56.865  12.575  1.00 48.82 LIG 0.22  C 
ATOM     67  ND2 ASN C  34      47.354  57.793  13.187  1.00 46.77 LIG-0.37  N 
ATOM     68 21HD ASN C  34      47.567  57.696  14.014  1.00 46.77 LIG 0.16  HD
ATOM     69 22HD ASN C  34      47.613  58.489  12.754  1.00 46.77 LIG 0.16  HD
ATOM     70 OD1  ASN C  34      46.226  55.850  13.146  1.00 54.33 LIG-0.27  OA
ENDBRANCH 65 66
ENDBRANCH 63 65
ENDBRANCH 60 63
ENDBRANCH 46 59
ENDBRANCH 44 46
ENDBRANCH 1 39
TORSDOF 26
ENDMDL
MODEL 38
USER: ADFR SOLUTION from run 78
USER: SCORE 18.376643 LL:  -5.890 LR: -14.410 RR:   0.000 FEB:  -6.654
USER: RMSD 13.284191
USER: SEED 77
USER: STATUS searching
USER: GENES 28
USER: genes 0 Translation |==|  0.66099 0.47238 0.47863
USER: genes 1 Rotation |==|  0.61421 0.96207 0.35030 0.53227
USER: genes 2 Torsion [C]-N--CA-[C] |==|  0.73578
USER: genes 3 Torsion [N]-CA--C-[N] |==|  0.05314
USER: genes 4 Torsion [C]-N--CA-[C] |==|  0.14595
USER: genes 5 Torsion [N]-CA--C-[N] |==|  0.61281
USER: genes 6 Torsion [C]-N--CA-[C] |==|  0.82193
USER: genes 7 Torsion [N]-CA--CB-[OG] |==|  0.01213
USER: genes 8 Torsion [CA]-CB--OG-[HG] |==|  0.57136
USER: genes 9 Torsion [N]-CA--C-[N] |==|  0.38776
USER: genes 10 Torsion [C]-N--CA-[C] |==|  0.72382
USER: genes 11 Torsion [N]-CA--C-[O] |==|  0.91478
USER: genes 12 Torsion [N]-CA--CB-[CG] |==|  0.72583
USER: genes 13 Torsion [CA]-CB--CG-[CD2] |==|  0.23114
USER: genes 14 Torsion [N]-CA--CB-[CG] |==|  0.91228
USER: genes 15 Torsion [CA]-CB--CG-[CD2] |==|  0.87792
USER: genes 16 Torsion [N]-CA--CB-[CG2] |==|  0.18658
USER: genes 17 Torsion [CA]-CB--CG1-[CD1] |==|  0.45091
USER: genes 18 Torsion [O]-C--CA-[CB] |==|  0.04416
USER: genes 19 Torsion [N]-C--CA-[N] |==|  0.85518
USER: genes 20 Torsion [C]-CA--CB-[CG] |==|  0.25663
USER: genes 21 Torsion [CA]-CB--CG-[CD] |==|  0.30062
USER: genes 22 Torsion [CB]-CG--CD-[NE] |==|  0.82641
USER: genes 23 Torsion [CG]-CD--NE-[CZ] |==|  0.73812
USER: genes 24 Torsion [C]-CA--N-[C] |==|  0.52342
USER: genes 25 Torsion [N]-C--CA-[N] |==|  0.16484
USER: genes 26 Torsion [C]-CA--CB-[CG] |==|  0.76241
USER: genes 27 Torsion [CA]-CB--CG-[ND2] |==|  0.57674
ROOT
ATOM      1  C   PRO C  36      52.624  54.582  12.636  1.00 34.41 LIG 0.24  C 
ATOM      2 O    PRO C  36      52.285  53.492  12.167  1.00 29.89 LIG-0.27  OA
ATOM      3  N   ILE C  37      51.940  55.215  13.585  1.00 30.61 LIG-0.35  N 
ATOM      4 H    ILE C  37      52.193  55.961  13.931  1.00 30.61 LIG 0.16  HD
ENDROOT
BRANCH 3 5
ATOM      5  CA  ILE C  37      50.690  54.707  14.136  1.00 31.48 LIG 0.18  C 
BRANCH 5 6
ATOM      6  C   ILE C  37      49.594  55.397  13.344  1.00 31.96 LIG 0.24  C 
ATOM      7 O    ILE C  37      48.442  55.448  13.778  1.00 31.93 LIG-0.27  OA
ATOM      8  N   LEU C  38      49.952  55.919  12.178  1.00 30.89 LIG-0.35  N 
ATOM      9 H    LEU C  38      50.742  55.858  11.842  1.00 30.89 LIG 0.16  HD
BRANCH 8 10
ATOM     10  CA  LEU C  38      49.001  56.657  11.361  1.00 34.88 LIG 0.18  C 
BRANCH 10 11
ATOM     11  C   LEU C  38      48.242  57.797  12.031  1.00 39.33 LIG 0.24  C 
ATOM     12 O    LEU C  38      48.802  58.564  12.812  1.00 37.11 LIG-0.27  OA
ATOM     13  N   SER C  39      46.956  57.893  11.706  1.00 40.29 LIG-0.34  N 
ATOM     14 H    SER C  39      46.570  57.377  11.136  1.00 40.29 LIG 0.16  HD
BRANCH 13 15
ATOM     15  CA  SER C  39      46.073  58.892  12.295  1.00 42.99 LIG 0.20  C 
BRANCH 15 16
ATOM     16  CB  SER C  39      44.665  58.807  11.695  1.00 41.70 LIG 0.20  C 
BRANCH 16 17
ATOM     17 OG   SER C  39      44.545  57.718  10.794  1.00 43.46 LIG-0.40  OA
ATOM     18 HG   SER C  39      43.937  57.881  10.237  1.00 43.46 LIG 0.21  HD
ENDBRANCH 16 17
ENDBRANCH 15 16
BRANCH 15 19
ATOM     19  C   SER C  39      46.021  58.535  13.777  1.00 43.99 LIG 0.24  C 
ATOM     20  N   LEU C  40      46.048  59.540  14.647  1.00 44.48 LIG-0.34  N 
ATOM     21 H    LEU C  40      46.093  60.371  14.425  1.00 44.48 LIG 0.16  HD
ATOM     22 O    SER C  39      45.961  57.355  14.124  1.00 44.86 LIG-0.27  OA
BRANCH 20 23
ATOM     23  CA  LEU C  40      46.002  59.294  16.083  1.00 50.99 LIG 0.18  C 
BRANCH 23 24
ATOM     24  C   LEU C  40      44.586  59.501  16.620  1.00 53.79 LIG 0.20  C 
ATOM     25 O    LEU C  40      43.858  60.342  16.049  1.00 58.34 LIG-0.65  OA
ATOM     26 OXT  LEU C  40      44.222  58.829  17.608  1.00 54.01 LIG-0.65  OA
ENDBRANCH 23 24
BRANCH 23 27
ATOM     27  CB  LEU C  40      46.977  60.233  16.799  1.00 48.71 LIG 0.04  C 
BRANCH 27 28
ATOM     28  CG  LEU C  40      48.353  59.697  17.197  1.00 48.98 LIG-0.02  C 
ATOM     29  CD2 LEU C  40      49.283  59.787  16.003  1.00 51.62 LIG 0.01  C 
ATOM     30  CD1 LEU C  40      48.238  58.255  17.668  1.00 51.55 LIG 0.01  C 
ENDBRANCH 27 28
ENDBRANCH 23 27
ENDBRANCH 20 23
ENDBRANCH 15 19
ENDBRANCH 13 15
ENDBRANCH 10 11
BRANCH 10 31
ATOM     31  CB  LEU C  38      47.999  55.679  10.754  1.00 30.69 LIG 0.04  C 
BRANCH 31 32
ATOM     32  CG  LEU C  38      48.538  54.280  10.452  1.00 36.50 LIG-0.02  C 
ATOM     33  CD2 LEU C  38      49.913  54.382   9.793  1.00 35.12 LIG 0.01  C 
ATOM     34  CD1 LEU C  38      47.558  53.546   9.545  1.00 37.99 LIG 0.01  C 
ENDBRANCH 31 32
ENDBRANCH 10 31
ENDBRANCH 8 10
ENDBRANCH 5 6
BRANCH 5 35
ATOM     35  CB  ILE C  37      50.551  55.079  15.618  1.00 37.32 LIG 0.01  C 
ATOM     36  CG2 ILE C  37      50.390  56.584  15.762  1.00 35.15 LIG 0.01  C 
BRANCH 35 37
ATOM     37  CG1 ILE C  37      49.363  54.329  16.222  1.00 33.54 LIG 0.00  C 
ATOM     38  CD1 ILE C  37      49.378  54.279  17.733  1.00 46.98 LIG 0.01  C 
ENDBRANCH 35 37
ENDBRANCH 5 35
ENDBRANCH 3 5
BRANCH 1 39
ATOM     39  CA  PRO C  36      53.893  55.288  12.162  1.00 32.35 LIG 0.18  C 
ATOM     40  CB  PRO C  36      54.419  54.713  10.845  1.00 32.18 LIG 0.04  C 
ATOM     41  CG  PRO C  36      55.425  53.698  11.294  1.00 32.63 LIG 0.02  C 
ATOM     42  CD  PRO C  36      56.135  54.401  12.428  1.00 32.64 LIG 0.13  C 
ATOM     43  N   PRO C  36      55.037  55.147  13.067  1.00 32.06 LIG-0.34  N 
ATOM     44  C   ARG C  35      55.000  55.710  14.280  1.00 32.74 LIG 0.24  C 
ATOM     45 O    ARG C  35      54.029  56.357  14.664  1.00 32.93 LIG-0.27  OA
BRANCH 44 46
ATOM     46  CA  ARG C  35      56.219  55.528  15.173  1.00 37.56 LIG 0.18  C 
BRANCH 46 47
ATOM     47  CB  ARG C  35      57.407  56.301  14.602  1.00 40.42 LIG 0.04  C 
BRANCH 47 48
ATOM     48  CG  ARG C  35      57.540  57.697  15.150  1.00 36.41 LIG 0.02  C 
BRANCH 48 49
ATOM     49  CD  ARG C  35      58.725  57.815  16.093  1.00 39.80 LIG 0.14  C 
BRANCH 49 50
ATOM     50  NE  ARG C  35      58.553  56.949  17.255  1.00 32.60 LIG-0.23  N 
ATOM     51 HE   ARG C  35      58.805  56.130  17.185  1.00 32.60 LIG 0.18  HD
ATOM     52  CZ  ARG C  35      58.033  57.338  18.415  1.00 32.33 LIG 0.67  C 
ATOM     53  NH2 ARG C  35      57.630  58.589  18.578  1.00 28.83 LIG-0.23  N 
ATOM     54  NH1 ARG C  35      57.920  56.469  19.410  1.00 30.81 LIG-0.23  N 
ATOM     55 2HH2 ARG C  35      57.294  58.838  19.329  1.00 28.83 LIG 0.17  HD
ATOM     56 1HH2 ARG C  35      57.705  59.153  17.932  1.00 28.83 LIG 0.17  HD
ATOM     57 1HH1 ARG C  35      58.183  55.657  19.305  1.00 30.81 LIG 0.17  HD
ATOM     58 2HH1 ARG C  35      57.584  56.718  20.162  1.00 30.81 LIG 0.17  HD
ENDBRANCH 49 50
ENDBRANCH 48 49
ENDBRANCH 47 48
ENDBRANCH 46 47
BRANCH 46 59
ATOM     59  N   ARG C  35      56.523  54.107  15.241  1.00 36.73 LIG-0.35  N 
ATOM     60  C   ASN C  34      57.441  53.653  16.089  1.00 40.82 LIG 0.26  C 
ATOM     61 O    ASN C  34      58.075  54.393  16.840  1.00 33.40 LIG-0.27  OA
ATOM     62 H    ARG C  35      56.070  53.612  14.703  1.00 36.73 LIG 0.16  HD
BRANCH 60 63
ATOM     63  CA  ASN C  34      57.678  52.148  16.094  1.00 41.08 LIG 0.41  C 
ATOM     64  N   ASN C  34      58.108  51.697  14.741  1.00 44.32 LIG 0.61  N 
BRANCH 63 65
ATOM     65  CB  ASN C  34      58.751  51.818  17.138  1.00 43.19 LIG 0.15  C 
BRANCH 65 66
ATOM     66  CG  ASN C  34      60.167  51.949  16.595  1.00 48.82 LIG 0.22  C 
ATOM     67  ND2 ASN C  34      61.100  51.188  17.162  1.00 46.77 LIG-0.37  N 
ATOM     68 21HD ASN C  34      61.913  51.226  16.885  1.00 46.77 LIG 0.16  HD
ATOM     69 22HD ASN C  34      60.889  50.660  17.807  1.00 46.77 LIG 0.16  HD
ATOM     70 OD1  ASN C  34      60.415  52.723  15.670  1.00 54.33 LIG-0.27  OA
ENDBRANCH 65 66
ENDBRANCH 63 65
ENDBRANCH 60 63
ENDBRANCH 46 59
ENDBRANCH 44 46
ENDBRANCH 1 39
TORSDOF 26
ENDMDL
MODEL 39
USER: ADFR SOLUTION from run 78
USER: SCORE 18.846035 LL:  -5.491 LR: -14.405 RR:   0.000 FEB:  -6.650
USER: RMSD 13.390675
USER: SEED 77
USER: STATUS searching
USER: GENES 28
USER: genes 0 Translation |==|  0.65599 0.49364 0.47752
USER: genes 1 Rotation |==|  0.58799 0.96586 0.35047 0.55359
USER: genes 2 Torsion [C]-N--CA-[C] |==|  0.73259
USER: genes 3 Torsion [N]-CA--C-[N] |==|  0.07215
USER: genes 4 Torsion [C]-N--CA-[C] |==|  0.14265
USER: genes 5 Torsion [N]-CA--C-[N] |==|  0.60863
USER: genes 6 Torsion [C]-N--CA-[C] |==|  0.82622
USER: genes 7 Torsion [N]-CA--CB-[OG] |==|  0.00965
USER: genes 8 Torsion [CA]-CB--OG-[HG] |==|  0.57107
USER: genes 9 Torsion [N]-CA--C-[N] |==|  0.38702
USER: genes 10 Torsion [C]-N--CA-[C] |==|  0.72201
USER: genes 11 Torsion [N]-CA--C-[O] |==|  0.90907
USER: genes 12 Torsion [N]-CA--CB-[CG] |==|  0.72526
USER: genes 13 Torsion [CA]-CB--CG-[CD2] |==|  0.22899
USER: genes 14 Torsion [N]-CA--CB-[CG] |==|  0.90166
USER: genes 15 Torsion [CA]-CB--CG-[CD2] |==|  0.84580
USER: genes 16 Torsion [N]-CA--CB-[CG2] |==|  0.17729
USER: genes 17 Torsion [CA]-CB--CG1-[CD1] |==|  0.41121
USER: genes 18 Torsion [O]-C--CA-[CB] |==|  0.22159
USER: genes 19 Torsion [N]-C--CA-[N] |==|  0.48244
USER: genes 20 Torsion [C]-CA--CB-[CG] |==|  0.40717
USER: genes 21 Torsion [CA]-CB--CG-[CD] |==|  0.82201
USER: genes 22 Torsion [CB]-CG--CD-[NE] |==|  0.78447
USER: genes 23 Torsion [CG]-CD--NE-[CZ] |==|  0.64455
USER: genes 24 Torsion [C]-CA--N-[C] |==|  0.77271
USER: genes 25 Torsion [N]-C--CA-[N] |==|  0.81261
USER: genes 26 Torsion [C]-CA--CB-[CG] |==|  0.56096
USER: genes 27 Torsion [CA]-CB--CG-[ND2] |==|  0.69216
ROOT
ATOM      1  C   PRO C  36      52.467  54.964  12.615  1.00 34.41 LIG 0.24  C 
ATOM      2 O    PRO C  36      52.290  53.832  12.157  1.00 29.89 LIG-0.27  OA
ATOM      3  N   ILE C  37      51.664  55.523  13.517  1.00 30.61 LIG-0.35  N 
ATOM      4 H    ILE C  37      51.805  56.301  13.856  1.00 30.61 LIG 0.16  HD
ENDROOT
BRANCH 3 5
ATOM      5  CA  ILE C  37      50.463  54.872  14.022  1.00 31.48 LIG 0.18  C 
BRANCH 5 6
ATOM      6  C   ILE C  37      49.324  55.426  13.185  1.00 31.96 LIG 0.24  C 
ATOM      7 O    ILE C  37      48.174  55.454  13.627  1.00 31.93 LIG-0.27  OA
ATOM      8  N   LEU C  38      49.644  55.856  11.971  1.00 30.89 LIG-0.35  N 
ATOM      9 H    LEU C  38      50.433  55.807  11.633  1.00 30.89 LIG 0.16  HD
BRANCH 8 10
ATOM     10  CA  LEU C  38      48.647  56.463  11.102  1.00 34.88 LIG 0.18  C 
BRANCH 10 11
ATOM     11  C   LEU C  38      47.812  57.598  11.683  1.00 39.33 LIG 0.24  C 
ATOM     12 O    LEU C  38      48.313  58.445  12.423  1.00 37.11 LIG-0.27  OA
ATOM     13  N   SER C  39      46.530  57.601  11.332  1.00 40.29 LIG-0.34  N 
ATOM     14 H    SER C  39      46.185  57.029  10.789  1.00 40.29 LIG 0.16  HD
BRANCH 13 15
ATOM     15  CA  SER C  39      45.581  58.585  11.839  1.00 42.99 LIG 0.20  C 
BRANCH 15 16
ATOM     16  CB  SER C  39      44.184  58.358  11.251  1.00 41.70 LIG 0.20  C 
BRANCH 16 17
ATOM     17 OG   SER C  39      44.144  57.205  10.425  1.00 43.46 LIG-0.40  OA
ATOM     18 HG   SER C  39      43.526  57.286   9.861  1.00 43.46 LIG 0.21  HD
ENDBRANCH 16 17
ENDBRANCH 15 16
BRANCH 15 19
ATOM     19  C   SER C  39      45.548  58.346  13.345  1.00 43.99 LIG 0.24  C 
ATOM     20  N   LEU C  40      45.511  59.418  14.130  1.00 44.48 LIG-0.34  N 
ATOM     21 H    LEU C  40      45.505  60.229  13.842  1.00 44.48 LIG 0.16  HD
ATOM     22 O    SER C  39      45.559  57.197  13.787  1.00 44.86 LIG-0.27  OA
BRANCH 20 23
ATOM     23  CA  LEU C  40      45.477  59.288  15.582  1.00 50.99 LIG 0.18  C 
BRANCH 23 24
ATOM     24  C   LEU C  40      44.052  59.466  16.105  1.00 53.79 LIG 0.20  C 
ATOM     25 O    LEU C  40      43.295  60.251  15.494  1.00 58.34 LIG-0.65  OA
ATOM     26 OXT  LEU C  40      43.711  58.828  17.124  1.00 54.01 LIG-0.65  OA
ENDBRANCH 23 24
BRANCH 23 27
ATOM     27  CB  LEU C  40      46.404  60.329  16.216  1.00 48.71 LIG 0.04  C 
BRANCH 27 28
ATOM     28  CG  LEU C  40      47.804  59.896  16.654  1.00 48.98 LIG-0.02  C 
ATOM     29  CD2 LEU C  40      48.726  59.912  15.452  1.00 51.62 LIG 0.01  C 
ATOM     30  CD1 LEU C  40      47.754  58.502  17.262  1.00 51.55 LIG 0.01  C 
ENDBRANCH 27 28
ENDBRANCH 23 27
ENDBRANCH 20 23
ENDBRANCH 15 19
ENDBRANCH 13 15
ENDBRANCH 10 11
BRANCH 10 31
ATOM     31  CB  LEU C  38      47.713  55.376  10.577  1.00 30.69 LIG 0.04  C 
BRANCH 31 32
ATOM     32  CG  LEU C  38      48.366  54.021  10.297  1.00 36.50 LIG-0.02  C 
ATOM     33  CD2 LEU C  38      49.536  54.196   9.330  1.00 35.12 LIG 0.01  C 
ATOM     34  CD1 LEU C  38      47.325  53.070   9.719  1.00 37.99 LIG 0.01  C 
ENDBRANCH 31 32
ENDBRANCH 10 31
ENDBRANCH 8 10
ENDBRANCH 5 6
BRANCH 5 35
ATOM     35  CB  ILE C  37      50.223  55.227  15.496  1.00 37.32 LIG 0.01  C 
ATOM     36  CG2 ILE C  37      49.961  56.719  15.633  1.00 35.15 LIG 0.01  C 
BRANCH 35 37
ATOM     37  CG1 ILE C  37      49.054  54.402  16.036  1.00 33.54 LIG 0.00  C 
ATOM     38  CD1 ILE C  37      49.177  54.058  17.502  1.00 46.98 LIG 0.01  C 
ENDBRANCH 35 37
ENDBRANCH 5 35
ENDBRANCH 3 5
BRANCH 1 39
ATOM     39  CA  PRO C  36      53.659  55.816  12.182  1.00 32.35 LIG 0.18  C 
ATOM     40  CB  PRO C  36      53.427  56.492  10.830  1.00 32.18 LIG 0.04  C 
ATOM     41  CG  PRO C  36      54.049  55.536   9.859  1.00 32.63 LIG 0.02  C 
ATOM     42  CD  PRO C  36      55.322  55.120  10.560  1.00 32.64 LIG 0.13  C 
ATOM     43  N   PRO C  36      54.895  55.060  11.969  1.00 32.06 LIG-0.34  N 
ATOM     44  C   ARG C  35      55.503  54.471  13.005  1.00 32.74 LIG 0.24  C 
ATOM     45 O    ARG C  35      55.058  54.551  14.148  1.00 32.93 LIG-0.27  OA
BRANCH 44 46
ATOM     46  CA  ARG C  35      56.784  53.700  12.719  1.00 37.56 LIG 0.18  C 
BRANCH 46 47
ATOM     47  CB  ARG C  35      56.480  52.487  11.840  1.00 40.42 LIG 0.04  C 
BRANCH 47 48
ATOM     48  CG  ARG C  35      57.589  52.141  10.882  1.00 36.41 LIG 0.02  C 
BRANCH 48 49
ATOM     49  CD  ARG C  35      57.816  53.250   9.869  1.00 39.80 LIG 0.14  C 
BRANCH 49 50
ATOM     50  NE  ARG C  35      56.795  53.218   8.827  1.00 32.60 LIG-0.23  N 
ATOM     51 HE   ARG C  35      55.972  53.208   9.073  1.00 32.60 LIG 0.18  HD
ATOM     52  CZ  ARG C  35      57.050  53.204   7.523  1.00 32.33 LIG 0.67  C 
ATOM     53  NH2 ARG C  35      58.301  53.221   7.088  1.00 28.83 LIG-0.23  N 
ATOM     54  NH1 ARG C  35      56.047  53.175   6.656  1.00 30.81 LIG-0.23  N 
ATOM     55 2HH2 ARG C  35      58.463  53.212   6.244  1.00 28.83 LIG 0.17  HD
ATOM     56 1HH2 ARG C  35      58.952  53.241   7.651  1.00 28.83 LIG 0.17  HD
ATOM     57 1HH1 ARG C  35      55.235  53.165   6.938  1.00 30.81 LIG 0.17  HD
ATOM     58 2HH1 ARG C  35      56.209  53.165   5.811  1.00 30.81 LIG 0.17  HD
ENDBRANCH 49 50
ENDBRANCH 48 49
ENDBRANCH 47 48
ENDBRANCH 46 47
BRANCH 46 59
ATOM     59  N   ARG C  35      57.352  53.277  13.990  1.00 36.73 LIG-0.35  N 
ATOM     60  C   ASN C  34      58.085  54.115  14.714  1.00 40.82 LIG 0.26  C 
ATOM     61 O    ASN C  34      58.326  55.267  14.356  1.00 33.40 LIG-0.27  OA
ATOM     62 H    ARG C  35      57.174  52.466  14.214  1.00 36.73 LIG 0.16  HD
BRANCH 60 63
ATOM     63  CA  ASN C  34      58.625  53.581  16.036  1.00 41.08 LIG 0.41  C 
ATOM     64  N   ASN C  34      57.500  53.344  16.984  1.00 44.32 LIG 0.61  N 
BRANCH 63 65
ATOM     65  CB  ASN C  34      59.389  52.280  15.771  1.00 43.19 LIG 0.15  C 
BRANCH 65 66
ATOM     66  CG  ASN C  34      59.508  51.399  17.007  1.00 48.82 LIG 0.22  C 
ATOM     67  ND2 ASN C  34      60.722  51.271  17.537  1.00 46.77 LIG-0.37  N 
ATOM     68 21HD ASN C  34      60.836  50.786  18.238  1.00 46.77 LIG 0.16  HD
ATOM     69 22HD ASN C  34      61.392  51.671  17.177  1.00 46.77 LIG 0.16  HD
ATOM     70 OD1  ASN C  34      58.516  50.847  17.481  1.00 54.33 LIG-0.27  OA
ENDBRANCH 65 66
ENDBRANCH 63 65
ENDBRANCH 60 63
ENDBRANCH 46 59
ENDBRANCH 44 46
ENDBRANCH 1 39
TORSDOF 26
ENDMDL
MODEL 40
USER: ADFR SOLUTION from run 71
USER: SCORE 20.341847 LL:  -6.465 LR: -14.392 RR:   0.000 FEB:  -6.637
USER: RMSD 13.080246
USER: SEED 70
USER: STATUS no improvement in best in 4 clusters for 5 generations
USER: GENES 28
USER: genes 0 Translation |==|  0.67309 0.58716 0.66823
USER: genes 1 Rotation |==|  0.39141 0.03441 0.35430 0.51439
USER: genes 2 Torsion [C]-N--CA-[C] |==|  0.75615
USER: genes 3 Torsion [N]-CA--C-[N] |==|  0.94637
USER: genes 4 Torsion [C]-N--CA-[C] |==|  0.81824
USER: genes 5 Torsion [N]-CA--C-[N] |==|  0.91824
USER: genes 6 Torsion [C]-N--CA-[C] |==|  0.77093
USER: genes 7 Torsion [N]-CA--CB-[OG] |==|  0.01366
USER: genes 8 Torsion [CA]-CB--OG-[HG] |==|  0.53382
USER: genes 9 Torsion [N]-CA--C-[N] |==|  0.96340
USER: genes 10 Torsion [C]-N--CA-[C] |==|  0.75042
USER: genes 11 Torsion [N]-CA--C-[O] |==|  0.53907
USER: genes 12 Torsion [N]-CA--CB-[CG] |==|  0.81964
USER: genes 13 Torsion [CA]-CB--CG-[CD2] |==|  0.76589
USER: genes 14 Torsion [N]-CA--CB-[CG] |==|  0.91394
USER: genes 15 Torsion [CA]-CB--CG-[CD2] |==|  0.60448
USER: genes 16 Torsion [N]-CA--CB-[CG2] |==|  0.11383
USER: genes 17 Torsion [CA]-CB--CG1-[CD1] |==|  0.53239
USER: genes 18 Torsion [O]-C--CA-[CB] |==|  0.19265
USER: genes 19 Torsion [N]-C--CA-[N] |==|  0.23497
USER: genes 20 Torsion [C]-CA--CB-[CG] |==|  0.59921
USER: genes 21 Torsion [CA]-CB--CG-[CD] |==|  0.42157
USER: genes 22 Torsion [CB]-CG--CD-[NE] |==|  0.72954
USER: genes 23 Torsion [CG]-CD--NE-[CZ] |==|  0.75054
USER: genes 24 Torsion [C]-CA--N-[C] |==|  0.71113
USER: genes 25 Torsion [N]-C--CA-[N] |==|  0.41781
USER: genes 26 Torsion [C]-CA--CB-[CG] |==|  0.06161
USER: genes 27 Torsion [CA]-CB--CG-[ND2] |==|  0.20674
ROOT
ATOM      1  C   PRO C  36      53.005  56.648  16.191  1.00 34.41 LIG 0.24  C 
ATOM      2 O    PRO C  36      52.786  56.709  14.978  1.00 29.89 LIG-0.27  OA
ATOM      3  N   ILE C  37      52.223  55.993  17.045  1.00 30.61 LIG-0.35  N 
ATOM      4 H    ILE C  37      52.393  55.928  17.886  1.00 30.61 LIG 0.16  HD
ENDROOT
BRANCH 3 5
ATOM      5  CA  ILE C  37      50.998  55.317  16.640  1.00 31.48 LIG 0.18  C 
BRANCH 5 6
ATOM      6  C   ILE C  37      49.911  56.375  16.722  1.00 31.96 LIG 0.24  C 
ATOM      7 O    ILE C  37      48.850  56.235  16.113  1.00 31.93 LIG-0.27  OA
ATOM      8  N   LEU C  38      50.182  57.438  17.469  1.00 30.89 LIG-0.35  N 
ATOM      9 H    LEU C  38      50.933  57.570  17.867  1.00 30.89 LIG 0.16  HD
BRANCH 8 10
ATOM     10  CA  LEU C  38      49.194  58.487  17.670  1.00 34.88 LIG 0.18  C 
BRANCH 10 11
ATOM     11  C   LEU C  38      48.779  59.298  16.448  1.00 39.33 LIG 0.24  C 
ATOM     12 O    LEU C  38      47.656  59.793  16.363  1.00 37.11 LIG-0.27  OA
ATOM     13  N   SER C  39      49.709  59.427  15.506  1.00 40.29 LIG-0.34  N 
ATOM     14 H    SER C  39      50.505  59.109  15.578  1.00 40.29 LIG 0.16  HD
BRANCH 13 15
ATOM     15  CA  SER C  39      49.461  60.126  14.252  1.00 42.99 LIG 0.20  C 
BRANCH 15 16
ATOM     16  CB  SER C  39      50.775  60.568  13.597  1.00 41.70 LIG 0.20  C 
BRANCH 16 17
ATOM     17 OG   SER C  39      51.903  60.092  14.313  1.00 43.46 LIG-0.40  OA
ATOM     18 HG   SER C  39      52.595  60.480  14.037  1.00 43.46 LIG 0.21  HD
ENDBRANCH 16 17
ENDBRANCH 15 16
BRANCH 15 19
ATOM     19  C   SER C  39      48.769  59.095  13.366  1.00 43.99 LIG 0.24  C 
ATOM     20  N   LEU C  40      48.798  57.829  13.769  1.00 44.48 LIG-0.34  N 
ATOM     21 H    LEU C  40      49.181  57.560  14.491  1.00 44.48 LIG 0.16  HD
ATOM     22 O    SER C  39      48.215  59.451  12.325  1.00 44.86 LIG-0.27  OA
BRANCH 20 23
ATOM     23  CA  LEU C  40      48.162  56.776  12.987  1.00 50.99 LIG 0.18  C 
BRANCH 23 24
ATOM     24  C   LEU C  40      46.707  56.589  13.417  1.00 53.79 LIG 0.20  C 
ATOM     25 O    LEU C  40      46.110  55.558  13.037  1.00 58.34 LIG-0.65  OA
ATOM     26 OXT  LEU C  40      46.178  57.477  14.118  1.00 54.01 LIG-0.65  OA
ENDBRANCH 23 24
BRANCH 23 27
ATOM     27  CB  LEU C  40      48.935  55.465  13.164  1.00 48.71 LIG 0.04  C 
BRANCH 27 28
ATOM     28  CG  LEU C  40      50.370  55.383  12.644  1.00 48.98 LIG-0.02  C 
ATOM     29  CD2 LEU C  40      50.343  55.037  11.168  1.00 51.62 LIG 0.01  C 
ATOM     30  CD1 LEU C  40      51.149  54.329  13.418  1.00 51.55 LIG 0.01  C 
ENDBRANCH 27 28
ENDBRANCH 23 27
ENDBRANCH 20 23
ENDBRANCH 15 19
ENDBRANCH 13 15
ENDBRANCH 10 11
BRANCH 10 31
ATOM     31  CB  LEU C  38      49.689  59.438  18.756  1.00 30.69 LIG 0.04  C 
BRANCH 31 32
ATOM     32  CG  LEU C  38      50.565  58.807  19.840  1.00 36.50 LIG-0.02  C 
ATOM     33  CD2 LEU C  38      50.244  59.431  21.197  1.00 35.12 LIG 0.01  C 
ATOM     34  CD1 LEU C  38      52.032  59.012  19.485  1.00 37.99 LIG 0.01  C 
ENDBRANCH 31 32
ENDBRANCH 10 31
ENDBRANCH 8 10
ENDBRANCH 5 6
BRANCH 5 35
ATOM     35  CB  ILE C  37      50.658  54.171  17.602  1.00 37.32 LIG 0.01  C 
ATOM     36  CG2 ILE C  37      50.924  54.602  19.037  1.00 35.15 LIG 0.01  C 
BRANCH 35 37
ATOM     37  CG1 ILE C  37      49.200  53.755  17.405  1.00 33.54 LIG 0.00  C 
ATOM     38  CD1 ILE C  37      48.678  52.832  18.482  1.00 46.98 LIG 0.01  C 
ENDBRANCH 35 37
ENDBRANCH 5 35
ENDBRANCH 3 5
BRANCH 1 39
ATOM     39  CA  PRO C  36      54.229  57.322  16.809  1.00 32.35 LIG 0.18  C 
ATOM     40  CB  PRO C  36      54.131  58.848  16.774  1.00 32.18 LIG 0.04  C 
ATOM     41  CG  PRO C  36      54.853  59.208  15.512  1.00 32.63 LIG 0.02  C 
ATOM     42  CD  PRO C  36      56.051  58.287  15.532  1.00 32.64 LIG 0.13  C 
ATOM     43  N   PRO C  36      55.486  57.053  16.105  1.00 32.06 LIG-0.34  N 
ATOM     44  C   ARG C  35      55.991  55.815  16.092  1.00 32.74 LIG 0.24  C 
ATOM     45 O    ARG C  35      55.433  54.882  16.665  1.00 32.93 LIG-0.27  OA
BRANCH 44 46
ATOM     46  CA  ARG C  35      57.299  55.600  15.344  1.00 37.56 LIG 0.18  C 
BRANCH 46 47
ATOM     47  CB  ARG C  35      57.410  54.144  14.890  1.00 40.42 LIG 0.04  C 
BRANCH 47 48
ATOM     48  CG  ARG C  35      58.814  53.601  14.939  1.00 36.41 LIG 0.02  C 
BRANCH 48 49
ATOM     49  CD  ARG C  35      58.822  52.099  15.165  1.00 39.80 LIG 0.14  C 
BRANCH 49 50
ATOM     50  NE  ARG C  35      59.032  51.786  16.575  1.00 32.60 LIG-0.23  N 
ATOM     51 HE   ARG C  35      58.337  51.711  17.075  1.00 32.60 LIG 0.18  HD
ATOM     52  CZ  ARG C  35      60.222  51.610  17.139  1.00 32.33 LIG 0.67  C 
ATOM     53  NH2 ARG C  35      61.325  51.713  16.412  1.00 28.83 LIG-0.23  N 
ATOM     54  NH1 ARG C  35      60.303  51.329  18.432  1.00 30.81 LIG-0.23  N 
ATOM     55 2HH2 ARG C  35      62.094  51.598  16.780  1.00 28.83 LIG 0.17  HD
ATOM     56 1HH2 ARG C  35      61.273  51.894  15.573  1.00 28.83 LIG 0.17  HD
ATOM     57 1HH1 ARG C  35      59.587  51.261  18.903  1.00 30.81 LIG 0.17  HD
ATOM     58 2HH1 ARG C  35      61.072  51.214  18.800  1.00 30.81 LIG 0.17  HD
ENDBRANCH 49 50
ENDBRANCH 48 49
ENDBRANCH 47 48
ENDBRANCH 46 47
BRANCH 46 59
ATOM     59  N   ARG C  35      58.395  55.937  16.240  1.00 36.73 LIG-0.35  N 
ATOM     60  C   ASN C  34      59.054  57.082  16.099  1.00 40.82 LIG 0.26  C 
ATOM     61 O    ASN C  34      58.786  57.898  15.219  1.00 33.40 LIG-0.27  OA
ATOM     62 H    ARG C  35      58.565  55.347  16.842  1.00 36.73 LIG 0.16  HD
BRANCH 60 63
ATOM     63  CA  ASN C  34      60.176  57.349  17.094  1.00 41.08 LIG 0.41  C 
ATOM     64  N   ASN C  34      61.227  58.194  16.460  1.00 44.32 LIG 0.61  N 
BRANCH 63 65
ATOM     65  CB  ASN C  34      59.592  58.050  18.326  1.00 43.19 LIG 0.15  C 
BRANCH 65 66
ATOM     66  CG  ASN C  34      58.097  57.814  18.489  1.00 48.82 LIG 0.22  C 
ATOM     67  ND2 ASN C  34      57.723  56.613  18.921  1.00 46.77 LIG-0.37  N 
ATOM     68 21HD ASN C  34      56.889  56.436  19.033  1.00 46.77 LIG 0.16  HD
ATOM     69 22HD ASN C  34      58.316  56.013  19.088  1.00 46.77 LIG 0.16  HD
ATOM     70 OD1  ASN C  34      57.290  58.708  18.235  1.00 54.33 LIG-0.27  OA
ENDBRANCH 65 66
ENDBRANCH 63 65
ENDBRANCH 60 63
ENDBRANCH 46 59
ENDBRANCH 44 46
ENDBRANCH 1 39
TORSDOF 26
ENDMDL
MODEL 41
USER: ADFR SOLUTION from run 155
USER: SCORE 18.775929 LL:  -5.747 LR: -14.393 RR:   0.000 FEB:  -6.637
USER: RMSD 13.354657
USER: SEED 154
USER: STATUS no improvement in best in 7 clusters for 5 generations
USER: GENES 28
USER: genes 0 Translation |==|  0.68036 0.56147 0.62838
USER: genes 1 Rotation |==|  0.60092 0.97321 0.48832 0.62549
USER: genes 2 Torsion [C]-N--CA-[C] |==|  0.79453
USER: genes 3 Torsion [N]-CA--C-[N] |==|  0.44162
USER: genes 4 Torsion [C]-N--CA-[C] |==|  0.67744
USER: genes 5 Torsion [N]-CA--C-[N] |==|  0.56848
USER: genes 6 Torsion [C]-N--CA-[C] |==|  0.57528
USER: genes 7 Torsion [N]-CA--CB-[OG] |==|  0.14398
USER: genes 8 Torsion [CA]-CB--OG-[HG] |==|  0.13321
USER: genes 9 Torsion [N]-CA--C-[N] |==|  0.30459
USER: genes 10 Torsion [C]-N--CA-[C] |==|  0.70315
USER: genes 11 Torsion [N]-CA--C-[O] |==|  0.58024
USER: genes 12 Torsion [N]-CA--CB-[CG] |==|  0.75290
USER: genes 13 Torsion [CA]-CB--CG-[CD2] |==|  0.49327
USER: genes 14 Torsion [N]-CA--CB-[CG] |==|  0.82042
USER: genes 15 Torsion [CA]-CB--CG-[CD2] |==|  0.22306
USER: genes 16 Torsion [N]-CA--CB-[CG2] |==|  0.56474
USER: genes 17 Torsion [CA]-CB--CG1-[CD1] |==|  0.75899
USER: genes 18 Torsion [O]-C--CA-[CB] |==|  0.27733
USER: genes 19 Torsion [N]-C--CA-[N] |==|  0.25900
USER: genes 20 Torsion [C]-CA--CB-[CG] |==|  0.14795
USER: genes 21 Torsion [CA]-CB--CG-[CD] |==|  0.11237
USER: genes 22 Torsion [CB]-CG--CD-[NE] |==|  0.32145
USER: genes 23 Torsion [CG]-CD--NE-[CZ] |==|  0.41497
USER: genes 24 Torsion [C]-CA--N-[C] |==|  0.72883
USER: genes 25 Torsion [N]-C--CA-[N] |==|  0.43081
USER: genes 26 Torsion [C]-CA--CB-[CG] |==|  0.10808
USER: genes 27 Torsion [CA]-CB--CG-[ND2] |==|  0.72924
ROOT
ATOM      1  C   PRO C  36      53.234  56.185  15.444  1.00 34.41 LIG 0.24  C 
ATOM      2 O    PRO C  36      53.436  55.404  14.510  1.00 29.89 LIG-0.27  OA
ATOM      3  N   ILE C  37      52.087  56.245  16.114  1.00 30.61 LIG-0.35  N 
ATOM      4 H    ILE C  37      51.958  56.771  16.783  1.00 30.61 LIG 0.16  HD
ENDROOT
BRANCH 3 5
ATOM      5  CA  ILE C  37      50.930  55.424  15.782  1.00 31.48 LIG 0.18  C 
BRANCH 5 6
ATOM      6  C   ILE C  37      50.360  56.029  14.512  1.00 31.96 LIG 0.24  C 
ATOM      7 O    ILE C  37      50.607  57.196  14.206  1.00 31.93 LIG-0.27  OA
ATOM      8  N   LEU C  38      49.589  55.236  13.779  1.00 30.89 LIG-0.35  N 
ATOM      9 H    LEU C  38      49.374  54.432  13.999  1.00 30.89 LIG 0.16  HD
BRANCH 8 10
ATOM     10  CA  LEU C  38      49.036  55.688  12.511  1.00 34.88 LIG 0.18  C 
BRANCH 10 11
ATOM     11  C   LEU C  38      47.520  55.798  12.411  1.00 39.33 LIG 0.24  C 
ATOM     12 O    LEU C  38      46.824  55.964  13.412  1.00 37.11 LIG-0.27  OA
ATOM     13  N   SER C  39      47.022  55.705  11.181  1.00 40.29 LIG-0.34  N 
ATOM     14 H    SER C  39      47.508  55.621  10.477  1.00 40.29 LIG 0.16  HD
BRANCH 13 15
ATOM     15  CA  SER C  39      45.589  55.738  10.912  1.00 42.99 LIG 0.20  C 
BRANCH 15 16
ATOM     16  CB  SER C  39      45.099  57.176  10.708  1.00 41.70 LIG 0.20  C 
BRANCH 16 17
ATOM     17 OG   SER C  39      45.878  57.862   9.741  1.00 43.46 LIG-0.40  OA
ATOM     18 HG   SER C  39      45.966  57.380   9.058  1.00 43.46 LIG 0.21  HD
ENDBRANCH 16 17
ENDBRANCH 15 16
BRANCH 15 19
ATOM     19  C   SER C  39      45.422  54.950   9.617  1.00 43.99 LIG 0.24  C 
ATOM     20  N   LEU C  40      44.832  53.762   9.699  1.00 44.48 LIG-0.34  N 
ATOM     21 H    LEU C  40      44.543  53.415  10.431  1.00 44.48 LIG 0.16  HD
ATOM     22 O    SER C  39      45.830  55.420   8.554  1.00 44.86 LIG-0.27  OA
BRANCH 20 23
ATOM     23  CA  LEU C  40      44.629  52.939   8.513  1.00 50.99 LIG 0.18  C 
BRANCH 23 24
ATOM     24  C   LEU C  40      43.155  52.934   8.107  1.00 53.79 LIG 0.20  C 
ATOM     25 O    LEU C  40      42.712  51.924   7.517  1.00 58.34 LIG-0.65  OA
ATOM     26 OXT  LEU C  40      42.463  53.939   8.372  1.00 54.01 LIG-0.65  OA
ENDBRANCH 23 24
BRANCH 23 27
ATOM     27  CB  LEU C  40      45.103  51.509   8.790  1.00 48.71 LIG 0.04  C 
BRANCH 27 28
ATOM     28  CG  LEU C  40      46.564  51.153   8.511  1.00 48.98 LIG-0.02  C 
ATOM     29  CD2 LEU C  40      46.808  49.712   8.915  1.00 51.62 LIG 0.01  C 
ATOM     30  CD1 LEU C  40      47.487  52.082   9.286  1.00 51.55 LIG 0.01  C 
ENDBRANCH 27 28
ENDBRANCH 23 27
ENDBRANCH 20 23
ENDBRANCH 15 19
ENDBRANCH 13 15
ENDBRANCH 10 11
BRANCH 10 31
ATOM     31  CB  LEU C  38      49.546  54.783  11.393  1.00 30.69 LIG 0.04  C 
BRANCH 31 32
ATOM     32  CG  LEU C  38      51.055  54.826  11.141  1.00 36.50 LIG-0.02  C 
ATOM     33  CD2 LEU C  38      51.778  53.954  12.166  1.00 35.12 LIG 0.01  C 
ATOM     34  CD1 LEU C  38      51.539  56.268  11.222  1.00 37.99 LIG 0.01  C 
ENDBRANCH 31 32
ENDBRANCH 10 31
ENDBRANCH 8 10
ENDBRANCH 5 6
BRANCH 5 35
ATOM     35  CB  ILE C  37      49.871  55.491  16.891  1.00 37.32 LIG 0.01  C 
ATOM     36  CG2 ILE C  37      48.986  54.255  16.838  1.00 35.15 LIG 0.01  C 
BRANCH 35 37
ATOM     37  CG1 ILE C  37      50.562  55.625  18.249  1.00 33.54 LIG 0.00  C 
ATOM     38  CD1 ILE C  37      50.943  54.302  18.872  1.00 46.98 LIG 0.01  C 
ENDBRANCH 35 37
ENDBRANCH 5 35
ENDBRANCH 3 5
BRANCH 1 39
ATOM     39  CA  PRO C  36      54.321  57.149  15.918  1.00 32.35 LIG 0.18  C 
ATOM     40  CB  PRO C  36      54.126  58.562  15.364  1.00 32.18 LIG 0.04  C 
ATOM     41  CG  PRO C  36      54.979  58.566  14.133  1.00 32.63 LIG 0.02  C 
ATOM     42  CD  PRO C  36      56.223  57.834  14.580  1.00 32.64 LIG 0.13  C 
ATOM     43  N   PRO C  36      55.673  56.801  15.474  1.00 32.06 LIG-0.34  N 
ATOM     44  C   ARG C  35      56.257  55.686  15.927  1.00 32.74 LIG 0.24  C 
ATOM     45 O    ARG C  35      55.693  54.936  16.721  1.00 32.93 LIG-0.27  OA
BRANCH 44 46
ATOM     46  CA  ARG C  35      57.661  55.379  15.428  1.00 37.56 LIG 0.18  C 
BRANCH 46 47
ATOM     47  CB  ARG C  35      57.853  53.868  15.298  1.00 40.42 LIG 0.04  C 
BRANCH 47 48
ATOM     48  CG  ARG C  35      56.794  53.194  14.465  1.00 36.41 LIG 0.02  C 
BRANCH 48 49
ATOM     49  CD  ARG C  35      56.434  54.024  13.245  1.00 39.80 LIG 0.14  C 
BRANCH 49 50
ATOM     50  NE  ARG C  35      56.792  53.323  12.016  1.00 32.60 LIG-0.23  N 
ATOM     51 HE   ARG C  35      57.468  52.793  12.040  1.00 32.60 LIG 0.18  HD
ATOM     52  CZ  ARG C  35      56.145  53.448  10.862  1.00 32.33 LIG 0.67  C 
ATOM     53  NH2 ARG C  35      55.094  54.250  10.771  1.00 28.83 LIG-0.23  N 
ATOM     54  NH1 ARG C  35      56.553  52.766   9.801  1.00 30.81 LIG-0.23  N 
ATOM     55 2HH2 ARG C  35      54.678  54.329  10.022  1.00 28.83 LIG 0.17  HD
ATOM     56 1HH2 ARG C  35      54.829  54.692  11.459  1.00 28.83 LIG 0.17  HD
ATOM     57 1HH1 ARG C  35      57.234  52.244   9.861  1.00 30.81 LIG 0.17  HD
ATOM     58 2HH1 ARG C  35      56.136  52.844   9.052  1.00 30.81 LIG 0.17  HD
ENDBRANCH 49 50
ENDBRANCH 48 49
ENDBRANCH 47 48
ENDBRANCH 46 47
BRANCH 46 59
ATOM     59  N   ARG C  35      58.612  55.931  16.381  1.00 36.73 LIG-0.35  N 
ATOM     60  C   ASN C  34      59.178  57.113  16.162  1.00 40.82 LIG 0.26  C 
ATOM     61 O    ASN C  34      58.940  57.788  15.162  1.00 33.40 LIG-0.27  OA
ATOM     62 H    ARG C  35      58.765  55.437  17.068  1.00 36.73 LIG 0.16  HD
BRANCH 60 63
ATOM     63  CA  ASN C  34      60.150  57.610  17.226  1.00 41.08 LIG 0.41  C 
ATOM     64  N   ASN C  34      61.118  58.568  16.620  1.00 44.32 LIG 0.61  N 
BRANCH 63 65
ATOM     65  CB  ASN C  34      59.355  58.286  18.348  1.00 43.19 LIG 0.15  C 
BRANCH 65 66
ATOM     66  CG  ASN C  34      58.054  57.564  18.672  1.00 48.82 LIG 0.22  C 
ATOM     67  ND2 ASN C  34      56.947  58.044  18.112  1.00 46.77 LIG-0.37  N 
ATOM     68 21HD ASN C  34      56.190  57.666  18.263  1.00 46.77 LIG 0.16  HD
ATOM     69 22HD ASN C  34      56.989  58.734  17.600  1.00 46.77 LIG 0.16  HD
ATOM     70 OD1  ASN C  34      58.050  56.581  19.412  1.00 54.33 LIG-0.27  OA
ENDBRANCH 65 66
ENDBRANCH 63 65
ENDBRANCH 60 63
ENDBRANCH 46 59
ENDBRANCH 44 46
ENDBRANCH 1 39
TORSDOF 26
ENDMDL
MODEL 42
USER: ADFR SOLUTION from run 30
USER: SCORE 17.314274 LL:  -5.779 LR: -14.371 RR:   0.000 FEB:  -6.615
USER: RMSD 12.467184
USER: SEED 29
USER: STATUS no improvement in best in 6 clusters for 5 generations
USER: GENES 28
USER: genes 0 Translation |==|  0.64430 0.56783 0.71710
USER: genes 1 Rotation |==|  0.49523 0.57030 0.19348 0.88869
USER: genes 2 Torsion [C]-N--CA-[C] |==|  0.43803
USER: genes 3 Torsion [N]-CA--C-[N] |==|  0.92742
USER: genes 4 Torsion [C]-N--CA-[C] |==|  0.12994
USER: genes 5 Torsion [N]-CA--C-[N] |==|  0.59023
USER: genes 6 Torsion [C]-N--CA-[C] |==|  0.58883
USER: genes 7 Torsion [N]-CA--CB-[OG] |==|  0.82146
USER: genes 8 Torsion [CA]-CB--OG-[HG] |==|  0.81052
USER: genes 9 Torsion [N]-CA--C-[N] |==|  0.12929
USER: genes 10 Torsion [C]-N--CA-[C] |==|  0.20263
USER: genes 11 Torsion [N]-CA--C-[O] |==|  0.52599
USER: genes 12 Torsion [N]-CA--CB-[CG] |==|  0.70763
USER: genes 13 Torsion [CA]-CB--CG-[CD2] |==|  0.79303
USER: genes 14 Torsion [N]-CA--CB-[CG] |==|  0.95099
USER: genes 15 Torsion [CA]-CB--CG-[CD2] |==|  0.65535
USER: genes 16 Torsion [N]-CA--CB-[CG2] |==|  0.19793
USER: genes 17 Torsion [CA]-CB--CG1-[CD1] |==|  0.27124
USER: genes 18 Torsion [O]-C--CA-[CB] |==|  0.74271
USER: genes 19 Torsion [N]-C--CA-[N] |==|  0.29731
USER: genes 20 Torsion [C]-CA--CB-[CG] |==|  0.37740
USER: genes 21 Torsion [CA]-CB--CG-[CD] |==|  0.33591
USER: genes 22 Torsion [CB]-CG--CD-[NE] |==|  0.46394
USER: genes 23 Torsion [CG]-CD--NE-[CZ] |==|  0.46330
USER: genes 24 Torsion [C]-CA--N-[C] |==|  0.77776
USER: genes 25 Torsion [N]-C--CA-[N] |==|  0.47104
USER: genes 26 Torsion [C]-CA--CB-[CG] |==|  0.90298
USER: genes 27 Torsion [CA]-CB--CG-[ND2] |==|  0.38893
ROOT
ATOM      1  C   PRO C  36      52.099  56.300  17.108  1.00 34.41 LIG 0.24  C 
ATOM      2 O    PRO C  36      51.678  55.964  18.219  1.00 29.89 LIG-0.27  OA
ATOM      3  N   ILE C  37      51.624  55.808  15.966  1.00 30.61 LIG-0.35  N 
ATOM      4 H    ILE C  37      51.900  56.064  15.192  1.00 30.61 LIG 0.16  HD
ENDROOT
BRANCH 3 5
ATOM      5  CA  ILE C  37      50.589  54.785  15.912  1.00 31.48 LIG 0.18  C 
BRANCH 5 6
ATOM      6  C   ILE C  37      49.963  54.920  14.535  1.00 31.96 LIG 0.24  C 
ATOM      7 O    ILE C  37      49.428  53.954  13.990  1.00 31.93 LIG-0.27  OA
ATOM      8  N   LEU C  38      50.040  56.119  13.971  1.00 30.89 LIG-0.35  N 
ATOM      9 H    LEU C  38      50.445  56.793  14.320  1.00 30.89 LIG 0.16  HD
BRANCH 8 10
ATOM     10  CA  LEU C  38      49.424  56.383  12.680  1.00 34.88 LIG 0.18  C 
BRANCH 10 11
ATOM     11  C   LEU C  38      47.992  55.899  12.478  1.00 39.33 LIG 0.24  C 
ATOM     12 O    LEU C  38      47.192  55.867  13.412  1.00 37.11 LIG-0.27  OA
ATOM     13  N   SER C  39      47.686  55.527  11.239  1.00 40.29 LIG-0.34  N 
ATOM     14 H    SER C  39      48.234  55.579  10.578  1.00 40.29 LIG 0.16  HD
BRANCH 13 15
ATOM     15  CA  SER C  39      46.377  54.990  10.884  1.00 42.99 LIG 0.20  C 
BRANCH 15 16
ATOM     16  CB  SER C  39      45.446  56.099  10.379  1.00 41.70 LIG 0.20  C 
BRANCH 16 17
ATOM     17 OG   SER C  39      45.166  57.050  11.392  1.00 43.46 LIG-0.40  OA
ATOM     18 HG   SER C  39      44.696  56.693  11.990  1.00 43.46 LIG 0.21  HD
ENDBRANCH 16 17
ENDBRANCH 15 16
BRANCH 15 19
ATOM     19  C   SER C  39      46.659  54.003   9.756  1.00 43.99 LIG 0.24  C 
ATOM     20  N   LEU C  40      47.666  53.153   9.929  1.00 44.48 LIG-0.34  N 
ATOM     21 H    LEU C  40      48.162  53.127  10.631  1.00 44.48 LIG 0.16  HD
ATOM     22 O    SER C  39      45.967  54.019   8.738  1.00 44.86 LIG-0.27  OA
BRANCH 20 23
ATOM     23  CA  LEU C  40      48.007  52.173   8.905  1.00 50.99 LIG 0.18  C 
BRANCH 23 24
ATOM     24  C   LEU C  40      48.678  52.852   7.711  1.00 53.79 LIG 0.20  C 
ATOM     25 O    LEU C  40      48.868  52.172   6.679  1.00 58.34 LIG-0.65  OA
ATOM     26 OXT  LEU C  40      49.015  54.049   7.823  1.00 54.01 LIG-0.65  OA
ENDBRANCH 23 24
BRANCH 23 27
ATOM     27  CB  LEU C  40      46.741  51.440   8.449  1.00 48.71 LIG 0.04  C 
BRANCH 27 28
ATOM     28  CG  LEU C  40      46.514  50.004   8.922  1.00 48.98 LIG-0.02  C 
ATOM     29  CD2 LEU C  40      47.443  49.079   8.160  1.00 51.62 LIG 0.01  C 
ATOM     30  CD1 LEU C  40      45.065  49.600   8.695  1.00 51.55 LIG 0.01  C 
ENDBRANCH 27 28
ENDBRANCH 23 27
ENDBRANCH 20 23
ENDBRANCH 15 19
ENDBRANCH 13 15
ENDBRANCH 10 11
BRANCH 10 31
ATOM     31  CB  LEU C  38      50.305  55.804  11.577  1.00 30.69 LIG 0.04  C 
BRANCH 31 32
ATOM     32  CG  LEU C  38      51.748  55.491  11.978  1.00 36.50 LIG-0.02  C 
ATOM     33  CD2 LEU C  38      52.717  56.224  11.053  1.00 35.12 LIG 0.01  C 
ATOM     34  CD1 LEU C  38      51.974  53.985  11.912  1.00 37.99 LIG 0.01  C 
ENDBRANCH 31 32
ENDBRANCH 10 31
ENDBRANCH 8 10
ENDBRANCH 5 6
BRANCH 5 35
ATOM     35  CB  ILE C  37      49.515  55.033  16.980  1.00 37.32 LIG 0.01  C 
ATOM     36  CG2 ILE C  37      48.678  56.246  16.601  1.00 35.15 LIG 0.01  C 
BRANCH 35 37
ATOM     37  CG1 ILE C  37      48.648  53.782  17.132  1.00 33.54 LIG 0.00  C 
ATOM     38  CD1 ILE C  37      49.054  52.896  18.287  1.00 46.98 LIG 0.01  C 
ENDBRANCH 35 37
ENDBRANCH 5 35
ENDBRANCH 3 5
BRANCH 1 39
ATOM     39  CA  PRO C  36      53.207  57.341  16.963  1.00 32.35 LIG 0.18  C 
ATOM     40  CB  PRO C  36      52.654  58.756  16.785  1.00 32.18 LIG 0.04  C 
ATOM     41  CG  PRO C  36      52.616  58.924  15.297  1.00 32.63 LIG 0.02  C 
ATOM     42  CD  PRO C  36      53.919  58.300  14.852  1.00 32.64 LIG 0.13  C 
ATOM     43  N   PRO C  36      54.052  57.163  15.779  1.00 32.06 LIG-0.34  N 
ATOM     44  C   ARG C  35      54.845  56.090  15.682  1.00 32.74 LIG 0.24  C 
ATOM     45 O    ARG C  35      54.895  55.239  16.568  1.00 32.93 LIG-0.27  OA
BRANCH 44 46
ATOM     46  CA  ARG C  35      55.698  55.962  14.429  1.00 37.56 LIG 0.18  C 
BRANCH 46 47
ATOM     47  CB  ARG C  35      55.573  54.552  13.852  1.00 40.42 LIG 0.04  C 
BRANCH 47 48
ATOM     48  CG  ARG C  35      55.400  54.524  12.356  1.00 36.41 LIG 0.02  C 
BRANCH 48 49
ATOM     49  CD  ARG C  35      56.511  53.738  11.681  1.00 39.80 LIG 0.14  C 
BRANCH 49 50
ATOM     50  NE  ARG C  35      56.178  53.458  10.288  1.00 32.60 LIG-0.23  N 
ATOM     51 HE   ARG C  35      55.366  53.588  10.037  1.00 32.60 LIG 0.18  HD
ATOM     52  CZ  ARG C  35      57.042  53.015   9.381  1.00 32.33 LIG 0.67  C 
ATOM     53  NH2 ARG C  35      58.306  52.799   9.715  1.00 28.83 LIG-0.23  N 
ATOM     54  NH1 ARG C  35      56.637  52.790   8.139  1.00 30.81 LIG-0.23  N 
ATOM     55 2HH2 ARG C  35      58.863  52.513   9.126  1.00 28.83 LIG 0.17  HD
ATOM     56 1HH2 ARG C  35      58.570  52.946  10.521  1.00 28.83 LIG 0.17  HD
ATOM     57 1HH1 ARG C  35      55.817  52.932   7.922  1.00 30.81 LIG 0.17  HD
ATOM     58 2HH1 ARG C  35      57.194  52.504   7.550  1.00 30.81 LIG 0.17  HD
ENDBRANCH 49 50
ENDBRANCH 48 49
ENDBRANCH 47 48
ENDBRANCH 46 47
BRANCH 46 59
ATOM     59  N   ARG C  35      57.080  56.241  14.790  1.00 36.73 LIG-0.35  N 
ATOM     60  C   ASN C  34      57.503  57.494  14.923  1.00 40.82 LIG 0.26  C 
ATOM     61 O    ASN C  34      56.769  58.465  14.744  1.00 33.40 LIG-0.27  OA
ATOM     62 H    ARG C  35      57.573  55.545  14.903  1.00 36.73 LIG 0.16  HD
BRANCH 60 63
ATOM     63  CA  ASN C  34      58.963  57.682  15.316  1.00 41.08 LIG 0.41  C 
ATOM     64  N   ASN C  34      59.345  59.116  15.179  1.00 44.32 LIG 0.61  N 
BRANCH 63 65
ATOM     65  CB  ASN C  34      59.152  57.211  16.762  1.00 43.19 LIG 0.15  C 
BRANCH 65 66
ATOM     66  CG  ASN C  34      57.944  57.497  17.643  1.00 48.82 LIG 0.22  C 
ATOM     67  ND2 ASN C  34      57.601  56.554  18.516  1.00 46.77 LIG-0.37  N 
ATOM     68 21HD ASN C  34      56.928  56.674  19.037  1.00 46.77 LIG 0.16  HD
ATOM     69 22HD ASN C  34      58.053  55.823  18.559  1.00 46.77 LIG 0.16  HD
ATOM     70 OD1  ASN C  34      57.332  58.560  17.540  1.00 54.33 LIG-0.27  OA
ENDBRANCH 65 66
ENDBRANCH 63 65
ENDBRANCH 60 63
ENDBRANCH 46 59
ENDBRANCH 44 46
ENDBRANCH 1 39
TORSDOF 26
ENDMDL
MODEL 43
USER: ADFR SOLUTION from run 187
USER: SCORE 18.448038 LL:  -5.327 LR: -14.372 RR:   0.000 FEB:  -6.617
USER: RMSD 12.532804
USER: SEED 186
USER: STATUS no improvement in best in 43 clusters for 5 generations
USER: GENES 28
USER: genes 0 Translation |==|  0.56106 0.51382 0.45597
USER: genes 1 Rotation |==|  0.56384 0.75891 0.91941 0.55462
USER: genes 2 Torsion [C]-N--CA-[C] |==|  0.57307
USER: genes 3 Torsion [N]-CA--C-[N] |==|  0.77824
USER: genes 4 Torsion [C]-N--CA-[C] |==|  0.60285
USER: genes 5 Torsion [N]-CA--C-[N] |==|  0.48493
USER: genes 6 Torsion [C]-N--CA-[C] |==|  0.80788
USER: genes 7 Torsion [N]-CA--CB-[OG] |==|  0.90745
USER: genes 8 Torsion [CA]-CB--OG-[HG] |==|  0.05376
USER: genes 9 Torsion [N]-CA--C-[N] |==|  0.95753
USER: genes 10 Torsion [C]-N--CA-[C] |==|  0.19717
USER: genes 11 Torsion [N]-CA--C-[O] |==|  0.59295
USER: genes 12 Torsion [N]-CA--CB-[CG] |==|  0.78621
USER: genes 13 Torsion [CA]-CB--CG-[CD2] |==|  0.30258
USER: genes 14 Torsion [N]-CA--CB-[CG] |==|  0.66043
USER: genes 15 Torsion [CA]-CB--CG-[CD2] |==|  0.11695
USER: genes 16 Torsion [N]-CA--CB-[CG2] |==|  0.73772
USER: genes 17 Torsion [CA]-CB--CG1-[CD1] |==|  0.37290
USER: genes 18 Torsion [O]-C--CA-[CB] |==|  0.23295
USER: genes 19 Torsion [N]-C--CA-[N] |==|  0.48235
USER: genes 20 Torsion [C]-CA--CB-[CG] |==|  0.33428
USER: genes 21 Torsion [CA]-CB--CG-[CD] |==|  0.05598
USER: genes 22 Torsion [CB]-CG--CD-[NE] |==|  0.49408
USER: genes 23 Torsion [CG]-CD--NE-[CZ] |==|  0.62070
USER: genes 24 Torsion [C]-CA--N-[C] |==|  0.57776
USER: genes 25 Torsion [N]-C--CA-[N] |==|  0.81418
USER: genes 26 Torsion [C]-CA--CB-[CG] |==|  0.49840
USER: genes 27 Torsion [CA]-CB--CG-[ND2] |==|  0.22387
ROOT
ATOM      1  C   PRO C  36      49.476  55.328  12.211  1.00 34.41 LIG 0.24  C 
ATOM      2 O    PRO C  36      49.844  56.493  12.033  1.00 29.89 LIG-0.27  OA
ATOM      3  N   ILE C  37      48.553  54.729  11.465  1.00 30.61 LIG-0.35  N 
ATOM      4 H    ILE C  37      48.318  53.908  11.573  1.00 30.61 LIG 0.16  HD
ENDROOT
BRANCH 3 5
ATOM      5  CA  ILE C  37      47.844  55.404  10.386  1.00 31.48 LIG 0.18  C 
BRANCH 5 6
ATOM      6  C   ILE C  37      46.518  54.676  10.261  1.00 31.96 LIG 0.24  C 
ATOM      7 O    ILE C  37      45.495  55.140  10.767  1.00 31.93 LIG-0.27  OA
ATOM      8  N   LEU C  38      46.538  53.529   9.593  1.00 30.89 LIG-0.35  N 
ATOM      9 H    LEU C  38      47.250  53.172   9.268  1.00 30.89 LIG 0.16  HD
BRANCH 8 10
ATOM     10  CA  LEU C  38      45.317  52.775   9.357  1.00 34.88 LIG 0.18  C 
BRANCH 10 11
ATOM     11  C   LEU C  38      45.414  51.254   9.414  1.00 39.33 LIG 0.24  C 
ATOM     12 O    LEU C  38      46.498  50.689   9.553  1.00 37.11 LIG-0.27  OA
ATOM     13  N   SER C  39      44.259  50.605   9.305  1.00 40.29 LIG-0.34  N 
ATOM     14 H    SER C  39      43.497  50.999   9.240  1.00 40.29 LIG 0.16  HD
BRANCH 13 15
ATOM     15  CA  SER C  39      44.178  49.150   9.287  1.00 42.99 LIG 0.20  C 
BRANCH 15 16
ATOM     16  CB  SER C  39      42.720  48.678   9.337  1.00 41.70 LIG 0.20  C 
BRANCH 16 17
ATOM     17 OG   SER C  39      41.912  49.553  10.106  1.00 43.46 LIG-0.40  OA
ATOM     18 HG   SER C  39      42.295  50.298  10.178  1.00 43.46 LIG 0.21  HD
ENDBRANCH 16 17
ENDBRANCH 15 16
BRANCH 15 19
ATOM     19  C   SER C  39      44.802  48.746   7.955  1.00 43.99 LIG 0.24  C 
ATOM     20  N   LEU C  40      44.958  49.700   7.042  1.00 44.48 LIG-0.34  N 
ATOM     21 H    LEU C  40      44.730  50.521   7.157  1.00 44.48 LIG 0.16  HD
ATOM     22 O    SER C  39      45.135  47.576   7.760  1.00 44.86 LIG-0.27  OA
BRANCH 20 23
ATOM     23  CA  LEU C  40      45.546  49.407   5.741  1.00 50.99 LIG 0.18  C 
BRANCH 23 24
ATOM     24  C   LEU C  40      44.584  48.580   4.888  1.00 53.79 LIG 0.20  C 
ATOM     25 O    LEU C  40      45.071  47.740   4.100  1.00 58.34 LIG-0.65  OA
ATOM     26 OXT  LEU C  40      43.359  48.785   5.009  1.00 54.01 LIG-0.65  OA
ENDBRANCH 23 24
BRANCH 23 27
ATOM     27  CB  LEU C  40      46.865  48.651   5.929  1.00 48.71 LIG 0.04  C 
BRANCH 27 28
ATOM     28  CG  LEU C  40      48.107  49.435   6.355  1.00 48.98 LIG-0.02  C 
ATOM     29  CD2 LEU C  40      48.448  49.079   7.789  1.00 51.62 LIG 0.01  C 
ATOM     30  CD1 LEU C  40      47.851  50.930   6.229  1.00 51.55 LIG 0.01  C 
ENDBRANCH 27 28
ENDBRANCH 23 27
ENDBRANCH 20 23
ENDBRANCH 15 19
ENDBRANCH 13 15
ENDBRANCH 10 11
BRANCH 10 31
ATOM     31  CB  LEU C  38      44.726  53.187   8.012  1.00 30.69 LIG 0.04  C 
BRANCH 31 32
ATOM     32  CG  LEU C  38      43.295  53.729   8.056  1.00 36.50 LIG-0.02  C 
ATOM     33  CD2 LEU C  38      43.130  54.667   9.250  1.00 35.12 LIG 0.01  C 
ATOM     34  CD1 LEU C  38      42.317  52.564   8.144  1.00 37.99 LIG 0.01  C 
ENDBRANCH 31 32
ENDBRANCH 10 31
ENDBRANCH 8 10
ENDBRANCH 5 6
BRANCH 5 35
ATOM     35  CB  ILE C  37      48.612  55.283   9.063  1.00 37.32 LIG 0.01  C 
ATOM     36  CG2 ILE C  37      49.492  56.507   8.861  1.00 35.15 LIG 0.01  C 
BRANCH 35 37
ATOM     37  CG1 ILE C  37      49.437  53.996   9.068  1.00 33.54 LIG 0.00  C 
ATOM     38  CD1 ILE C  37      49.331  53.198   7.789  1.00 46.98 LIG 0.01  C 
ENDBRANCH 35 37
ENDBRANCH 5 35
ENDBRANCH 3 5
BRANCH 1 39
ATOM     39  CA  PRO C  36      50.085  54.467  13.317  1.00 32.35 LIG 0.18  C 
ATOM     40  CB  PRO C  36      49.415  54.704  14.672  1.00 32.18 LIG 0.04  C 
ATOM     41  CG  PRO C  36      50.292  55.738  15.309  1.00 32.63 LIG 0.02  C 
ATOM     42  CD  PRO C  36      51.684  55.269  14.954  1.00 32.64 LIG 0.13  C 
ATOM     43  N   PRO C  36      51.497  54.744  13.590  1.00 32.06 LIG-0.34  N 
ATOM     44  C   ARG C  35      52.422  54.469  12.664  1.00 32.74 LIG 0.24  C 
ATOM     45 O    ARG C  35      52.124  53.977  11.577  1.00 32.93 LIG-0.27  OA
BRANCH 44 46
ATOM     46  CA  ARG C  35      53.872  54.780  13.007  1.00 37.56 LIG 0.18  C 
BRANCH 46 47
ATOM     47  CB  ARG C  35      54.062  56.289  13.159  1.00 40.42 LIG 0.04  C 
BRANCH 47 48
ATOM     48  CG  ARG C  35      54.555  56.702  14.521  1.00 36.41 LIG 0.02  C 
BRANCH 48 49
ATOM     49  CD  ARG C  35      55.208  55.542  15.252  1.00 39.80 LIG 0.14  C 
BRANCH 49 50
ATOM     50  NE  ARG C  35      55.725  55.969  16.548  1.00 32.60 LIG-0.23  N 
ATOM     51 HE   ARG C  35      55.228  56.480  17.028  1.00 32.60 LIG 0.18  HD
ATOM     52  CZ  ARG C  35      56.910  55.621  17.038  1.00 32.33 LIG 0.67  C 
ATOM     53  NH2 ARG C  35      57.713  54.831  16.340  1.00 28.83 LIG-0.23  N 
ATOM     54  NH1 ARG C  35      57.287  56.065  18.229  1.00 30.81 LIG-0.23  N 
ATOM     55 2HH2 ARG C  35      58.480  54.608  16.660  1.00 28.83 LIG 0.17  HD
ATOM     56 1HH2 ARG C  35      57.469  54.542  15.568  1.00 28.83 LIG 0.17  HD
ATOM     57 1HH1 ARG C  35      56.764  56.576  18.682  1.00 30.81 LIG 0.17  HD
ATOM     58 2HH1 ARG C  35      58.053  55.841  18.549  1.00 30.81 LIG 0.17  HD
ENDBRANCH 49 50
ENDBRANCH 48 49
ENDBRANCH 47 48
ENDBRANCH 46 47
BRANCH 46 59
ATOM     59  N   ARG C  35      54.712  54.268  11.935  1.00 36.73 LIG-0.35  N 
ATOM     60  C   ASN C  34      55.963  53.895  12.179  1.00 40.82 LIG 0.26  C 
ATOM     61 O    ASN C  34      56.473  53.967  13.296  1.00 33.40 LIG-0.27  OA
ATOM     62 H    ARG C  35      54.334  54.234  11.163  1.00 36.73 LIG 0.16  HD
BRANCH 60 63
ATOM     63  CA  ASN C  34      56.758  53.360  10.993  1.00 41.08 LIG 0.41  C 
ATOM     64  N   ASN C  34      56.178  52.065  10.537  1.00 44.32 LIG 0.61  N 
BRANCH 63 65
ATOM     65  CB  ASN C  34      56.720  54.395   9.863  1.00 43.19 LIG 0.15  C 
BRANCH 65 66
ATOM     66  CG  ASN C  34      57.502  53.957   8.632  1.00 48.82 LIG 0.22  C 
ATOM     67  ND2 ASN C  34      56.892  53.112   7.804  1.00 46.77 LIG-0.37  N 
ATOM     68 21HD ASN C  34      57.294  52.841   7.094  1.00 46.77 LIG 0.16  HD
ATOM     69 22HD ASN C  34      56.097  52.836   7.981  1.00 46.77 LIG 0.16  HD
ATOM     70 OD1  ASN C  34      58.638  54.382   8.427  1.00 54.33 LIG-0.27  OA
ENDBRANCH 65 66
ENDBRANCH 63 65
ENDBRANCH 60 63
ENDBRANCH 46 59
ENDBRANCH 44 46
ENDBRANCH 1 39
TORSDOF 26
ENDMDL
MODEL 44
USER: ADFR SOLUTION from run 40
USER: SCORE 19.898260 LL:  -6.374 LR: -14.372 RR:   0.000 FEB:  -6.616
USER: RMSD 12.374362
USER: SEED 39
USER: STATUS no improvement in best in 12 clusters for 5 generations
USER: GENES 28
USER: genes 0 Translation |==|  0.62629 0.49703 0.55355
USER: genes 1 Rotation |==|  0.40706 0.03645 0.66116 0.52266
USER: genes 2 Torsion [C]-N--CA-[C] |==|  0.60427
USER: genes 3 Torsion [N]-CA--C-[N] |==|  0.85116
USER: genes 4 Torsion [C]-N--CA-[C] |==|  0.81494
USER: genes 5 Torsion [N]-CA--C-[N] |==|  0.90207
USER: genes 6 Torsion [C]-N--CA-[C] |==|  0.71667
USER: genes 7 Torsion [N]-CA--CB-[OG] |==|  0.90317
USER: genes 8 Torsion [CA]-CB--OG-[HG] |==|  0.96140
USER: genes 9 Torsion [N]-CA--C-[N] |==|  0.01076
USER: genes 10 Torsion [C]-N--CA-[C] |==|  0.71780
USER: genes 11 Torsion [N]-CA--C-[O] |==|  0.58514
USER: genes 12 Torsion [N]-CA--CB-[CG] |==|  0.69033
USER: genes 13 Torsion [CA]-CB--CG-[CD2] |==|  0.15203
USER: genes 14 Torsion [N]-CA--CB-[CG] |==|  0.89647
USER: genes 15 Torsion [CA]-CB--CG-[CD2] |==|  0.60477
USER: genes 16 Torsion [N]-CA--CB-[CG2] |==|  0.12246
USER: genes 17 Torsion [CA]-CB--CG1-[CD1] |==|  0.24111
USER: genes 18 Torsion [O]-C--CA-[CB] |==|  0.03354
USER: genes 19 Torsion [N]-C--CA-[N] |==|  0.44670
USER: genes 20 Torsion [C]-CA--CB-[CG] |==|  0.47022
USER: genes 21 Torsion [CA]-CB--CG-[CD] |==|  0.63025
USER: genes 22 Torsion [CB]-CG--CD-[NE] |==|  0.54710
USER: genes 23 Torsion [CG]-CD--NE-[CZ] |==|  0.57386
USER: genes 24 Torsion [C]-CA--N-[C] |==|  0.71684
USER: genes 25 Torsion [N]-C--CA-[N] |==|  0.85028
USER: genes 26 Torsion [C]-CA--CB-[CG] |==|  0.04588
USER: genes 27 Torsion [CA]-CB--CG-[ND2] |==|  0.69789
ROOT
ATOM      1  C   PRO C  36      51.531  55.025  14.041  1.00 34.41 LIG 0.24  C 
ATOM      2 O    PRO C  36      51.102  53.933  13.659  1.00 29.89 LIG-0.27  OA
ATOM      3  N   ILE C  37      51.085  55.648  15.129  1.00 30.61 LIG-0.35  N 
ATOM      4 H    ILE C  37      51.405  56.396  15.409  1.00 30.61 LIG 0.16  HD
ENDROOT
BRANCH 3 5
ATOM      5  CA  ILE C  37      50.008  55.124  15.958  1.00 31.48 LIG 0.18  C 
BRANCH 5 6
ATOM      6  C   ILE C  37      49.209  56.339  16.392  1.00 31.96 LIG 0.24  C 
ATOM      7 O    ILE C  37      47.994  56.397  16.195  1.00 31.93 LIG-0.27  OA
ATOM      8  N   LEU C  38      49.895  57.315  16.975  1.00 30.89 LIG-0.35  N 
ATOM      9 H    LEU C  38      50.748  57.308  17.084  1.00 30.89 LIG 0.16  HD
BRANCH 8 10
ATOM     10  CA  LEU C  38      49.227  58.501  17.487  1.00 34.88 LIG 0.18  C 
BRANCH 10 11
ATOM     11  C   LEU C  38      48.577  59.431  16.469  1.00 39.33 LIG 0.24  C 
ATOM     12 O    LEU C  38      47.533  60.028  16.725  1.00 37.11 LIG-0.27  OA
ATOM     13  N   SER C  39      49.219  59.543  15.309  1.00 40.29 LIG-0.34  N 
ATOM     14 H    SER C  39      49.966  59.152  15.140  1.00 40.29 LIG 0.16  HD
BRANCH 13 15
ATOM     15  CA  SER C  39      48.708  60.349  14.207  1.00 42.99 LIG 0.20  C 
BRANCH 15 16
ATOM     16  CB  SER C  39      49.840  61.113  13.511  1.00 41.70 LIG 0.20  C 
BRANCH 16 17
ATOM     17 OG   SER C  39      50.840  61.520  14.430  1.00 43.46 LIG-0.40  OA
ATOM     18 HG   SER C  39      50.550  61.439  15.215  1.00 43.46 LIG 0.21  HD
ENDBRANCH 16 17
ENDBRANCH 15 16
BRANCH 15 19
ATOM     19  C   SER C  39      48.100  59.339  13.240  1.00 43.99 LIG 0.24  C 
ATOM     20  N   LEU C  40      48.092  58.064  13.617  1.00 44.48 LIG-0.34  N 
ATOM     21 H    LEU C  40      48.407  57.779  14.365  1.00 44.48 LIG 0.16  HD
ATOM     22 O    SER C  39      47.646  59.717  12.159  1.00 44.86 LIG-0.27  OA
BRANCH 20 23
ATOM     23  CA  LEU C  40      47.532  57.028  12.757  1.00 50.99 LIG 0.18  C 
BRANCH 23 24
ATOM     24  C   LEU C  40      46.135  56.631  13.233  1.00 53.79 LIG 0.20  C 
ATOM     25 O    LEU C  40      45.760  55.454  13.037  1.00 58.34 LIG-0.65  OA
ATOM     26 OXT  LEU C  40      45.428  57.499  13.787  1.00 54.01 LIG-0.65  OA
ENDBRANCH 23 24
BRANCH 23 27
ATOM     27  CB  LEU C  40      48.454  55.805  12.754  1.00 48.71 LIG 0.04  C 
BRANCH 27 28
ATOM     28  CG  LEU C  40      49.212  55.461  11.472  1.00 48.98 LIG-0.02  C 
ATOM     29  CD2 LEU C  40      50.006  56.672  11.025  1.00 51.62 LIG 0.01  C 
ATOM     30  CD1 LEU C  40      48.235  55.040  10.383  1.00 51.55 LIG 0.01  C 
ENDBRANCH 27 28
ENDBRANCH 23 27
ENDBRANCH 20 23
ENDBRANCH 15 19
ENDBRANCH 13 15
ENDBRANCH 10 11
BRANCH 10 31
ATOM     31  CB  LEU C  38      50.210  59.301  18.337  1.00 30.69 LIG 0.04  C 
BRANCH 31 32
ATOM     32  CG  LEU C  38      51.177  58.474  19.187  1.00 36.50 LIG-0.02  C 
ATOM     33  CD2 LEU C  38      51.396  59.154  20.537  1.00 35.12 LIG 0.01  C 
ATOM     34  CD1 LEU C  38      52.496  58.318  18.441  1.00 37.99 LIG 0.01  C 
ENDBRANCH 31 32
ENDBRANCH 10 31
ENDBRANCH 8 10
ENDBRANCH 5 6
BRANCH 5 35
ATOM     35  CB  ILE C  37      50.564  54.416  17.201  1.00 37.32 LIG 0.01  C 
ATOM     36  CG2 ILE C  37      51.678  55.250  17.816  1.00 35.15 LIG 0.01  C 
BRANCH 35 37
ATOM     37  CG1 ILE C  37      49.432  54.173  18.199  1.00 33.54 LIG 0.00  C 
ATOM     38  CD1 ILE C  37      48.679  52.884  17.964  1.00 46.98 LIG 0.01  C 
ENDBRANCH 35 37
ENDBRANCH 5 35
ENDBRANCH 3 5
BRANCH 1 39
ATOM     39  CA  PRO C  36      52.644  55.747  13.282  1.00 32.35 LIG 0.18  C 
ATOM     40  CB  PRO C  36      52.911  55.123  11.912  1.00 32.18 LIG 0.04  C 
ATOM     41  CG  PRO C  36      54.031  54.166  12.186  1.00 32.63 LIG 0.02  C 
ATOM     42  CD  PRO C  36      54.928  54.950  13.115  1.00 32.64 LIG 0.13  C 
ATOM     43  N   PRO C  36      53.954  55.692  13.935  1.00 32.06 LIG-0.34  N 
ATOM     44  C   ARG C  35      54.144  56.315  15.103  1.00 32.74 LIG 0.24  C 
ATOM     45 O    ARG C  35      53.245  56.949  15.652  1.00 32.93 LIG-0.27  OA
BRANCH 44 46
ATOM     46  CA  ARG C  35      55.527  56.221  15.731  1.00 37.56 LIG 0.18  C 
BRANCH 46 47
ATOM     47  CB  ARG C  35      55.701  54.863  16.412  1.00 40.42 LIG 0.04  C 
BRANCH 47 48
ATOM     48  CG  ARG C  35      57.117  54.578  16.838  1.00 36.41 LIG 0.02  C 
BRANCH 48 49
ATOM     49  CD  ARG C  35      57.551  53.181  16.429  1.00 39.80 LIG 0.14  C 
BRANCH 49 50
ATOM     50  NE  ARG C  35      58.738  52.767  17.170  1.00 32.60 LIG-0.23  N 
ATOM     51 HE   ARG C  35      58.868  53.117  17.944  1.00 32.60 LIG 0.18  HD
ATOM     52  CZ  ARG C  35      59.631  51.886  16.732  1.00 32.33 LIG 0.67  C 
ATOM     53  NH2 ARG C  35      59.476  51.315  15.546  1.00 28.83 LIG-0.23  N 
ATOM     54  NH1 ARG C  35      60.678  51.579  17.485  1.00 30.81 LIG-0.23  N 
ATOM     55 2HH2 ARG C  35      60.055  50.745  15.265  1.00 28.83 LIG 0.17  HD
ATOM     56 1HH2 ARG C  35      58.796  51.513  15.059  1.00 28.83 LIG 0.17  HD
ATOM     57 1HH1 ARG C  35      60.777  51.949  18.254  1.00 30.81 LIG 0.17  HD
ATOM     58 2HH1 ARG C  35      61.257  51.009  17.204  1.00 30.81 LIG 0.17  HD
ENDBRANCH 49 50
ENDBRANCH 48 49
ENDBRANCH 47 48
ENDBRANCH 46 47
BRANCH 46 59
ATOM     59  N   ARG C  35      55.660  57.296  16.701  1.00 36.73 LIG-0.35  N 
ATOM     60  C   ASN C  34      56.349  58.393  16.404  1.00 40.82 LIG 0.26  C 
ATOM     61 O    ASN C  34      56.907  58.552  15.320  1.00 33.40 LIG-0.27  OA
ATOM     62 H    ARG C  35      55.265  57.157  17.453  1.00 36.73 LIG 0.16  HD
BRANCH 60 63
ATOM     63  CA  ASN C  34      56.419  59.467  17.483  1.00 41.08 LIG 0.41  C 
ATOM     64  N   ASN C  34      55.043  59.832  17.925  1.00 44.32 LIG 0.61  N 
BRANCH 63 65
ATOM     65  CB  ASN C  34      57.240  58.934  18.662  1.00 43.19 LIG 0.15  C 
BRANCH 65 66
ATOM     66  CG  ASN C  34      58.072  57.711  18.301  1.00 48.82 LIG 0.22  C 
ATOM     67  ND2 ASN C  34      57.678  56.547  18.811  1.00 46.77 LIG-0.37  N 
ATOM     68 21HD ASN C  34      58.115  55.829  18.631  1.00 46.77 LIG 0.16  HD
ATOM     69 22HD ASN C  34      56.987  56.513  19.321  1.00 46.77 LIG 0.16  HD
ATOM     70 OD1  ASN C  34      59.054  57.815  17.567  1.00 54.33 LIG-0.27  OA
ENDBRANCH 65 66
ENDBRANCH 63 65
ENDBRANCH 60 63
ENDBRANCH 46 59
ENDBRANCH 44 46
ENDBRANCH 1 39
TORSDOF 26
ENDMDL
MODEL 45
USER: ADFR SOLUTION from run 10
USER: SCORE 21.103113 LL:  -7.836 LR: -14.360 RR:   0.000 FEB:  -6.604
USER: RMSD 12.085592
USER: SEED 826672
USER: STATUS no improvement in best in 3 clusters for 5 generations
USER: GENES 28
USER: genes 0 Translation |==|  0.81754 0.35399 0.56599
USER: genes 1 Rotation |==|  0.52843 0.23463 0.88583 0.67292
USER: genes 2 Torsion [C]-N--CA-[C] |==|  0.71857
USER: genes 3 Torsion [N]-CA--C-[N] |==|  0.88043
USER: genes 4 Torsion [C]-N--CA-[C] |==|  0.57293
USER: genes 5 Torsion [N]-CA--C-[N] |==|  0.29994
USER: genes 6 Torsion [C]-N--CA-[C] |==|  0.65558
USER: genes 7 Torsion [N]-CA--CB-[OG] |==|  0.80714
USER: genes 8 Torsion [CA]-CB--OG-[HG] |==|  0.19936
USER: genes 9 Torsion [N]-CA--C-[N] |==|  0.00656
USER: genes 10 Torsion [C]-N--CA-[C] |==|  0.80333
USER: genes 11 Torsion [N]-CA--C-[O] |==|  0.74857
USER: genes 12 Torsion [N]-CA--CB-[CG] |==|  0.77292
USER: genes 13 Torsion [CA]-CB--CG-[CD2] |==|  0.27209
USER: genes 14 Torsion [N]-CA--CB-[CG] |==|  0.56208
USER: genes 15 Torsion [CA]-CB--CG-[CD2] |==|  0.40768
USER: genes 16 Torsion [N]-CA--CB-[CG2] |==|  0.01606
USER: genes 17 Torsion [CA]-CB--CG1-[CD1] |==|  0.27434
USER: genes 18 Torsion [O]-C--CA-[CB] |==|  0.81179
USER: genes 19 Torsion [N]-C--CA-[N] |==|  0.46415
USER: genes 20 Torsion [C]-CA--CB-[CG] |==|  0.43065
USER: genes 21 Torsion [CA]-CB--CG-[CD] |==|  0.82916
USER: genes 22 Torsion [CB]-CG--CD-[NE] |==|  0.20630
USER: genes 23 Torsion [CG]-CD--NE-[CZ] |==|  0.56357
USER: genes 24 Torsion [C]-CA--N-[C] |==|  0.57057
USER: genes 25 Torsion [N]-C--CA-[N] |==|  0.36340
USER: genes 26 Torsion [C]-CA--CB-[CG] |==|  0.78518
USER: genes 27 Torsion [CA]-CB--CG-[ND2] |==|  0.22766
ROOT
ATOM      1  C   PRO C  36      57.556  52.451  14.274  1.00 34.41 LIG 0.24  C 
ATOM      2 O    PRO C  36      57.678  51.711  15.255  1.00 29.89 LIG-0.27  OA
ATOM      3  N   ILE C  37      57.626  53.777  14.345  1.00 30.61 LIG-0.35  N 
ATOM      4 H    ILE C  37      57.568  54.290  13.657  1.00 30.61 LIG 0.16  HD
ENDROOT
BRANCH 3 5
ATOM      5  CA  ILE C  37      57.809  54.497  15.599  1.00 31.48 LIG 0.18  C 
BRANCH 5 6
ATOM      6  C   ILE C  37      56.429  55.011  15.970  1.00 31.96 LIG 0.24  C 
ATOM      7 O    ILE C  37      56.019  54.931  17.129  1.00 31.93 LIG-0.27  OA
ATOM      8  N   LEU C  38      55.711  55.529  14.983  1.00 30.89 LIG-0.35  N 
ATOM      9 H    LEU C  38      55.965  55.556  14.161  1.00 30.89 LIG 0.16  HD
BRANCH 8 10
ATOM     10  CA  LEU C  38      54.399  56.107  15.231  1.00 34.88 LIG 0.18  C 
BRANCH 10 11
ATOM     11  C   LEU C  38      53.408  56.113  14.073  1.00 39.33 LIG 0.24  C 
ATOM     12 O    LEU C  38      53.556  56.866  13.110  1.00 37.11 LIG-0.27  OA
ATOM     13  N   SER C  39      52.396  55.257  14.184  1.00 40.29 LIG-0.34  N 
ATOM     14 H    SER C  39      52.309  54.708  14.840  1.00 40.29 LIG 0.16  HD
BRANCH 13 15
ATOM     15  CA  SER C  39      51.332  55.171  13.191  1.00 42.99 LIG 0.20  C 
BRANCH 15 16
ATOM     16  CB  SER C  39      51.303  53.787  12.533  1.00 41.70 LIG 0.20  C 
BRANCH 16 17
ATOM     17 OG   SER C  39      52.431  53.579  11.700  1.00 43.46 LIG-0.40  OA
ATOM     18 HG   SER C  39      53.116  53.479  12.175  1.00 43.46 LIG 0.21  HD
ENDBRANCH 16 17
ENDBRANCH 15 16
BRANCH 15 19
ATOM     19  C   SER C  39      50.047  55.390  13.984  1.00 43.99 LIG 0.24  C 
ATOM     20  N   LEU C  40      50.170  55.641  15.284  1.00 44.48 LIG-0.34  N 
ATOM     21 H    LEU C  40      50.922  55.686  15.699  1.00 44.48 LIG 0.16  HD
ATOM     22 O    SER C  39      48.956  55.327  13.417  1.00 44.86 LIG-0.27  OA
BRANCH 20 23
ATOM     23  CA  LEU C  40      48.997  55.863  16.121  1.00 50.99 LIG 0.18  C 
BRANCH 23 24
ATOM     24  C   LEU C  40      48.349  57.208  15.794  1.00 53.79 LIG 0.20  C 
ATOM     25 O    LEU C  40      48.728  58.214  16.435  1.00 58.34 LIG-0.65  OA
ATOM     26 OXT  LEU C  40      47.466  57.243  14.912  1.00 54.01 LIG-0.65  OA
ENDBRANCH 23 24
BRANCH 23 27
ATOM     27  CB  LEU C  40      49.401  55.819  17.598  1.00 48.71 LIG 0.04  C 
BRANCH 27 28
ATOM     28  CG  LEU C  40      49.547  54.457  18.278  1.00 48.98 LIG-0.02  C 
ATOM     29  CD2 LEU C  40      51.011  54.065  18.292  1.00 51.62 LIG 0.01  C 
ATOM     30  CD1 LEU C  40      48.728  53.411  17.537  1.00 51.55 LIG 0.01  C 
ENDBRANCH 27 28
ENDBRANCH 23 27
ENDBRANCH 20 23
ENDBRANCH 15 19
ENDBRANCH 13 15
ENDBRANCH 10 11
BRANCH 10 31
ATOM     31  CB  LEU C  38      54.570  57.533  15.748  1.00 30.69 LIG 0.04  C 
BRANCH 31 32
ATOM     32  CG  LEU C  38      53.391  58.095  16.545  1.00 36.50 LIG-0.02  C 
ATOM     33  CD2 LEU C  38      53.901  59.040  17.632  1.00 35.12 LIG 0.01  C 
ATOM     34  CD1 LEU C  38      52.602  56.944  17.157  1.00 37.99 LIG 0.01  C 
ENDBRANCH 31 32
ENDBRANCH 10 31
ENDBRANCH 8 10
ENDBRANCH 5 6
BRANCH 5 35
ATOM     35  CB  ILE C  37      58.758  55.689  15.416  1.00 37.32 LIG 0.01  C 
ATOM     36  CG2 ILE C  37      59.112  55.848  13.945  1.00 35.15 LIG 0.01  C 
BRANCH 35 37
ATOM     37  CG1 ILE C  37      58.101  56.953  15.972  1.00 33.54 LIG 0.00  C 
ATOM     38  CD1 ILE C  37      58.562  57.317  17.364  1.00 46.98 LIG 0.01  C 
ENDBRANCH 35 37
ENDBRANCH 5 35
ENDBRANCH 3 5
BRANCH 1 39
ATOM     39  CA  PRO C  36      57.327  51.880  12.876  1.00 32.35 LIG 0.18  C 
ATOM     40  CB  PRO C  36      58.549  51.124  12.351  1.00 32.18 LIG 0.04  C 
ATOM     41  CG  PRO C  36      59.279  52.165  11.558  1.00 32.63 LIG 0.02  C 
ATOM     42  CD  PRO C  36      58.165  52.884  10.833  1.00 32.64 LIG 0.13  C 
ATOM     43  N   PRO C  36      57.092  52.892  11.842  1.00 32.06 LIG-0.34  N 
ATOM     44  C   ARG C  35      55.982  53.637  11.880  1.00 32.74 LIG 0.24  C 
ATOM     45 O    ARG C  35      55.136  53.496  12.761  1.00 32.93 LIG-0.27  OA
BRANCH 44 46
ATOM     46  CA  ARG C  35      55.795  54.671  10.778  1.00 37.56 LIG 0.18  C 
BRANCH 46 47
ATOM     47  CB  ARG C  35      56.764  55.835  10.982  1.00 40.42 LIG 0.04  C 
BRANCH 47 48
ATOM     48  CG  ARG C  35      57.092  56.578   9.714  1.00 36.41 LIG 0.02  C 
BRANCH 48 49
ATOM     49  CD  ARG C  35      57.771  55.674   8.700  1.00 39.80 LIG 0.14  C 
BRANCH 49 50
ATOM     50  NE  ARG C  35      56.810  54.756   8.096  1.00 32.60 LIG-0.23  N 
ATOM     51 HE   ARG C  35      55.981  54.981   8.107  1.00 32.60 LIG 0.18  HD
ATOM     52  CZ  ARG C  35      57.129  53.597   7.529  1.00 32.33 LIG 0.67  C 
ATOM     53  NH2 ARG C  35      58.394  53.204   7.482  1.00 28.83 LIG-0.23  N 
ATOM     54  NH1 ARG C  35      56.178  52.834   7.008  1.00 30.81 LIG-0.23  N 
ATOM     55 2HH2 ARG C  35      58.597  52.454   7.114  1.00 28.83 LIG 0.17  HD
ATOM     56 1HH2 ARG C  35      59.011  53.699   7.818  1.00 28.83 LIG 0.17  HD
ATOM     57 1HH1 ARG C  35      55.358  53.090   7.037  1.00 30.81 LIG 0.17  HD
ATOM     58 2HH1 ARG C  35      56.381  52.084   6.640  1.00 30.81 LIG 0.17  HD
ENDBRANCH 49 50
ENDBRANCH 48 49
ENDBRANCH 47 48
ENDBRANCH 46 47
BRANCH 46 59
ATOM     59  N   ARG C  35      54.419  55.141  10.825  1.00 36.73 LIG-0.35  N 
ATOM     60  C   ASN C  34      53.836  55.632   9.737  1.00 40.82 LIG 0.26  C 
ATOM     61 O    ASN C  34      54.416  55.722   8.656  1.00 33.40 LIG-0.27  OA
ATOM     62 H    ARG C  35      54.038  55.072  11.594  1.00 36.73 LIG 0.16  HD
BRANCH 60 63
ATOM     63  CA  ASN C  34      52.389  56.086   9.886  1.00 41.08 LIG 0.41  C 
ATOM     64  N   ASN C  34      52.224  57.452   9.313  1.00 44.32 LIG 0.61  N 
BRANCH 63 65
ATOM     65  CB  ASN C  34      51.478  55.087   9.164  1.00 43.19 LIG 0.15  C 
BRANCH 65 66
ATOM     66  CG  ASN C  34      51.482  55.265   7.652  1.00 48.82 LIG 0.22  C 
ATOM     67  ND2 ASN C  34      52.489  54.705   6.986  1.00 46.77 LIG-0.37  N 
ATOM     68 21HD ASN C  34      52.530  54.776   6.130  1.00 46.77 LIG 0.16  HD
ATOM     69 22HD ASN C  34      53.098  54.274   7.412  1.00 46.77 LIG 0.16  HD
ATOM     70 OD1  ASN C  34      50.584  55.893   7.093  1.00 54.33 LIG-0.27  OA
ENDBRANCH 65 66
ENDBRANCH 63 65
ENDBRANCH 60 63
ENDBRANCH 46 59
ENDBRANCH 44 46
ENDBRANCH 1 39
TORSDOF 26
ENDMDL
MODEL 46
USER: ADFR SOLUTION from run 104
USER: SCORE 18.851308 LL:  -6.007 LR: -14.357 RR:   0.000 FEB:  -6.601
USER: RMSD 8.316939
USER: SEED 103
USER: STATUS no improvement in best in 13 clusters for 5 generations
USER: GENES 28
USER: genes 0 Translation |==|  0.66598 0.47086 0.47175
USER: genes 1 Rotation |==|  0.75771 0.22170 0.50071 0.82579
USER: genes 2 Torsion [C]-N--CA-[C] |==|  0.60808
USER: genes 3 Torsion [N]-CA--C-[N] |==|  0.46666
USER: genes 4 Torsion [C]-N--CA-[C] |==|  0.74977
USER: genes 5 Torsion [N]-CA--C-[N] |==|  0.69684
USER: genes 6 Torsion [C]-N--CA-[C] |==|  0.74642
USER: genes 7 Torsion [N]-CA--CB-[OG] |==|  0.01346
USER: genes 8 Torsion [CA]-CB--OG-[HG] |==|  0.62409
USER: genes 9 Torsion [N]-CA--C-[N] |==|  0.02637
USER: genes 10 Torsion [C]-N--CA-[C] |==|  0.69475
USER: genes 11 Torsion [N]-CA--C-[O] |==|  0.07213
USER: genes 12 Torsion [N]-CA--CB-[CG] |==|  0.96382
USER: genes 13 Torsion [CA]-CB--CG-[CD2] |==|  0.55596
USER: genes 14 Torsion [N]-CA--CB-[CG] |==|  0.60437
USER: genes 15 Torsion [CA]-CB--CG-[CD2] |==|  0.75663
USER: genes 16 Torsion [N]-CA--CB-[CG2] |==|  0.23420
USER: genes 17 Torsion [CA]-CB--CG1-[CD1] |==|  0.44153
USER: genes 18 Torsion [O]-C--CA-[CB] |==|  0.35041
USER: genes 19 Torsion [N]-C--CA-[N] |==|  0.25948
USER: genes 20 Torsion [C]-CA--CB-[CG] |==|  0.62876
USER: genes 21 Torsion [CA]-CB--CG-[CD] |==|  0.65804
USER: genes 22 Torsion [CB]-CG--CD-[NE] |==|  0.89743
USER: genes 23 Torsion [CG]-CD--NE-[CZ] |==|  0.39710
USER: genes 24 Torsion [C]-CA--N-[C] |==|  0.65331
USER: genes 25 Torsion [N]-C--CA-[N] |==|  0.43596
USER: genes 26 Torsion [C]-CA--CB-[CG] |==|  0.86373
USER: genes 27 Torsion [CA]-CB--CG-[ND2] |==|  0.34997
ROOT
ATOM      1  C   PRO C  36      52.781  54.554  12.507  1.00 34.41 LIG 0.24  C 
ATOM      2 O    PRO C  36      52.440  53.540  11.892  1.00 29.89 LIG-0.27  OA
ATOM      3  N   ILE C  37      54.035  54.798  12.878  1.00 30.61 LIG-0.35  N 
ATOM      4 H    ILE C  37      54.276  55.519  13.282  1.00 30.61 LIG 0.16  HD
ENDROOT
BRANCH 3 5
ATOM      5  CA  ILE C  37      55.130  53.868  12.637  1.00 31.48 LIG 0.18  C 
BRANCH 5 6
ATOM      6  C   ILE C  37      55.994  53.933  13.883  1.00 31.96 LIG 0.24  C 
ATOM      7 O    ILE C  37      55.830  54.826  14.716  1.00 31.93 LIG-0.27  OA
ATOM      8  N   LEU C  38      56.920  52.990  14.005  1.00 30.89 LIG-0.35  N 
ATOM      9 H    LEU C  38      57.074  52.384  13.414  1.00 30.89 LIG 0.16  HD
BRANCH 8 10
ATOM     10  CA  LEU C  38      57.766  52.917  15.186  1.00 34.88 LIG 0.18  C 
BRANCH 10 11
ATOM     11  C   LEU C  38      59.078  53.692  15.155  1.00 39.33 LIG 0.24  C 
ATOM     12 O    LEU C  38      59.094  54.922  15.205  1.00 37.11 LIG-0.27  OA
ATOM     13  N   SER C  39      60.178  52.949  15.073  1.00 40.29 LIG-0.34  N 
ATOM     14 H    SER C  39      60.170  52.089  15.070  1.00 40.29 LIG 0.16  HD
BRANCH 13 15
ATOM     15  CA  SER C  39      61.511  53.532  14.981  1.00 42.99 LIG 0.20  C 
BRANCH 15 16
ATOM     16  CB  SER C  39      62.561  52.608  15.609  1.00 41.70 LIG 0.20  C 
BRANCH 16 17
ATOM     17 OG   SER C  39      61.995  51.375  16.021  1.00 43.46 LIG-0.40  OA
ATOM     18 HG   SER C  39      62.279  51.178  16.787  1.00 43.46 LIG 0.21  HD
ENDBRANCH 16 17
ENDBRANCH 15 16
BRANCH 15 19
ATOM     19  C   SER C  39      61.771  53.661  13.484  1.00 43.99 LIG 0.24  C 
ATOM     20  N   LEU C  40      60.748  53.436  12.666  1.00 44.48 LIG-0.34  N 
ATOM     21 H    LEU C  40      59.957  53.223  12.929  1.00 44.48 LIG 0.16  HD
ATOM     22 O    SER C  39      62.895  53.961  13.078  1.00 44.86 LIG-0.27  OA
BRANCH 20 23
ATOM     23  CA  LEU C  40      60.903  53.538  11.220  1.00 50.99 LIG 0.18  C 
BRANCH 23 24
ATOM     24  C   LEU C  40      60.160  54.761  10.683  1.00 53.79 LIG 0.20  C 
ATOM     25 O    LEU C  40      59.977  55.724  11.459  1.00 58.34 LIG-0.65  OA
ATOM     26 OXT  LEU C  40      59.762  54.740   9.500  1.00 54.01 LIG-0.65  OA
ENDBRANCH 23 24
BRANCH 23 27
ATOM     27  CB  LEU C  40      60.372  52.265  10.553  1.00 48.71 LIG 0.04  C 
BRANCH 27 28
ATOM     28  CG  LEU C  40      60.082  51.044  11.428  1.00 48.98 LIG-0.02  C 
ATOM     29  CD2 LEU C  40      60.059  49.805  10.555  1.00 51.62 LIG 0.01  C 
ATOM     30  CD1 LEU C  40      58.747  51.214  12.138  1.00 51.55 LIG 0.01  C 
ENDBRANCH 27 28
ENDBRANCH 23 27
ENDBRANCH 20 23
ENDBRANCH 15 19
ENDBRANCH 13 15
ENDBRANCH 10 11
BRANCH 10 31
ATOM     31  CB  LEU C  38      58.060  51.452  15.501  1.00 30.69 LIG 0.04  C 
BRANCH 31 32
ATOM     32  CG  LEU C  38      58.103  51.089  16.986  1.00 36.50 LIG-0.02  C 
ATOM     33  CD2 LEU C  38      59.511  51.311  17.536  1.00 35.12 LIG 0.01  C 
ATOM     34  CD1 LEU C  38      57.676  49.638  17.164  1.00 37.99 LIG 0.01  C 
ENDBRANCH 31 32
ENDBRANCH 10 31
ENDBRANCH 8 10
ENDBRANCH 5 6
BRANCH 5 35
ATOM     35  CB  ILE C  37      55.963  54.302  11.423  1.00 37.32 LIG 0.01  C 
ATOM     36  CG2 ILE C  37      57.002  55.329  11.849  1.00 35.15 LIG 0.01  C 
BRANCH 35 37
ATOM     37  CG1 ILE C  37      56.618  53.075  10.789  1.00 33.54 LIG 0.00  C 
ATOM     38  CD1 ILE C  37      57.032  53.279   9.350  1.00 46.98 LIG 0.01  C 
ENDBRANCH 35 37
ENDBRANCH 5 35
ENDBRANCH 3 5
BRANCH 1 39
ATOM     39  CA  PRO C  36      51.766  55.634  12.878  1.00 32.35 LIG 0.18  C 
ATOM     40  CB  PRO C  36      51.783  55.957  14.374  1.00 32.18 LIG 0.04  C 
ATOM     41  CG  PRO C  36      50.703  55.075  14.924  1.00 32.63 LIG 0.02  C 
ATOM     42  CD  PRO C  36      49.607  55.194  13.891  1.00 32.64 LIG 0.13  C 
ATOM     43  N   PRO C  36      50.371  55.261  12.633  1.00 32.06 LIG-0.34  N 
ATOM     44  C   ARG C  35      49.940  55.078  11.380  1.00 32.74 LIG 0.24  C 
ATOM     45 O    ARG C  35      50.684  55.222  10.412  1.00 32.93 LIG-0.27  OA
BRANCH 44 46
ATOM     46  CA  ARG C  35      48.480  54.691  11.191  1.00 37.56 LIG 0.18  C 
BRANCH 46 47
ATOM     47  CB  ARG C  35      48.338  53.753   9.992  1.00 40.42 LIG 0.04  C 
BRANCH 47 48
ATOM     48  CG  ARG C  35      47.211  54.125   9.065  1.00 36.41 LIG 0.02  C 
BRANCH 48 49
ATOM     49  CD  ARG C  35      46.231  52.978   8.892  1.00 39.80 LIG 0.14  C 
BRANCH 49 50
ATOM     50  NE  ARG C  35      46.928  51.696   8.868  1.00 32.60 LIG-0.23  N 
ATOM     51 HE   ARG C  35      47.693  51.665   8.476  1.00 32.60 LIG 0.18  HD
ATOM     52  CZ  ARG C  35      46.464  50.576   9.409  1.00 32.33 LIG 0.67  C 
ATOM     53  NH2 ARG C  35      45.292  50.570  10.027  1.00 28.83 LIG-0.23  N 
ATOM     54  NH1 ARG C  35      47.178  49.461   9.331  1.00 30.81 LIG-0.23  N 
ATOM     55 2HH2 ARG C  35      44.994  49.843  10.377  1.00 28.83 LIG 0.17  HD
ATOM     56 1HH2 ARG C  35      44.829  51.293  10.079  1.00 28.83 LIG 0.17  HD
ATOM     57 1HH1 ARG C  35      47.939  49.465   8.932  1.00 30.81 LIG 0.17  HD
ATOM     58 2HH1 ARG C  35      46.880  48.734   9.681  1.00 30.81 LIG 0.17  HD
ENDBRANCH 49 50
ENDBRANCH 48 49
ENDBRANCH 47 48
ENDBRANCH 46 47
BRANCH 46 59
ATOM     59  N   ARG C  35      47.712  55.908  10.977  1.00 36.73 LIG-0.35  N 
ATOM     60  C   ASN C  34      46.670  56.193  11.750  1.00 40.82 LIG 0.26  C 
ATOM     61 O    ASN C  34      46.299  55.457  12.663  1.00 33.40 LIG-0.27  OA
ATOM     62 H    ARG C  35      47.988  56.402  10.329  1.00 36.73 LIG 0.16  HD
BRANCH 60 63
ATOM     63  CA  ASN C  34      45.939  57.497  11.454  1.00 41.08 LIG 0.41  C 
ATOM     64  N   ASN C  34      44.543  57.425  11.971  1.00 44.32 LIG 0.61  N 
BRANCH 63 65
ATOM     65  CB  ASN C  34      46.698  58.653  12.115  1.00 43.19 LIG 0.15  C 
BRANCH 65 66
ATOM     66  CG  ASN C  34      47.036  58.383  13.575  1.00 48.82 LIG 0.22  C 
ATOM     67  ND2 ASN C  34      48.314  58.506  13.926  1.00 46.77 LIG-0.37  N 
ATOM     68 21HD ASN C  34      48.551  58.367  14.741  1.00 46.77 LIG 0.16  HD
ATOM     69 22HD ASN C  34      48.902  58.723  13.338  1.00 46.77 LIG 0.16  HD
ATOM     70 OD1  ASN C  34      46.155  58.075  14.376  1.00 54.33 LIG-0.27  OA
ENDBRANCH 65 66
ENDBRANCH 63 65
ENDBRANCH 60 63
ENDBRANCH 46 59
ENDBRANCH 44 46
ENDBRANCH 1 39
TORSDOF 26
ENDMDL
MODEL 47
USER: ADFR SOLUTION from run 155
USER: SCORE 20.002866 LL:  -5.750 LR: -14.341 RR:   0.000 FEB:  -6.585
USER: RMSD 13.739069
USER: SEED 154
USER: STATUS no improvement in best in 7 clusters for 5 generations
USER: GENES 28
USER: genes 0 Translation |==|  0.73642 0.53823 0.62006
USER: genes 1 Rotation |==|  0.71543 0.94512 0.44182 0.54551
USER: genes 2 Torsion [C]-N--CA-[C] |==|  0.84444
USER: genes 3 Torsion [N]-CA--C-[N] |==|  0.38866
USER: genes 4 Torsion [C]-N--CA-[C] |==|  0.78365
USER: genes 5 Torsion [N]-CA--C-[N] |==|  0.42982
USER: genes 6 Torsion [C]-N--CA-[C] |==|  0.80723
USER: genes 7 Torsion [N]-CA--CB-[OG] |==|  0.43836
USER: genes 8 Torsion [CA]-CB--OG-[HG] |==|  0.99752
USER: genes 9 Torsion [N]-CA--C-[N] |==|  0.95648
USER: genes 10 Torsion [C]-N--CA-[C] |==|  0.77060
USER: genes 11 Torsion [N]-CA--C-[O] |==|  0.65393
USER: genes 12 Torsion [N]-CA--CB-[CG] |==|  0.98373
USER: genes 13 Torsion [CA]-CB--CG-[CD2] |==|  0.77668
USER: genes 14 Torsion [N]-CA--CB-[CG] |==|  0.73736
USER: genes 15 Torsion [CA]-CB--CG-[CD2] |==|  0.12625
USER: genes 16 Torsion [N]-CA--CB-[CG2] |==|  0.29429
USER: genes 17 Torsion [CA]-CB--CG1-[CD1] |==|  0.95079
USER: genes 18 Torsion [O]-C--CA-[CB] |==|  0.30220
USER: genes 19 Torsion [N]-C--CA-[N] |==|  0.37555
USER: genes 20 Torsion [C]-CA--CB-[CG] |==|  0.14966
USER: genes 21 Torsion [CA]-CB--CG-[CD] |==|  0.21484
USER: genes 22 Torsion [CB]-CG--CD-[NE] |==|  0.31812
USER: genes 23 Torsion [CG]-CD--NE-[CZ] |==|  0.70152
USER: genes 24 Torsion [C]-CA--N-[C] |==|  0.80483
USER: genes 25 Torsion [N]-C--CA-[N] |==|  0.40859
USER: genes 26 Torsion [C]-CA--CB-[CG] |==|  0.08324
USER: genes 27 Torsion [CA]-CB--CG-[ND2] |==|  0.75439
ROOT
ATOM      1  C   PRO C  36      55.000  55.767  15.288  1.00 34.41 LIG 0.24  C 
ATOM      2 O    PRO C  36      54.517  55.061  14.398  1.00 29.89 LIG-0.27  OA
ATOM      3  N   ILE C  37      54.276  56.326  16.254  1.00 30.61 LIG-0.35  N 
ATOM      4 H    ILE C  37      54.618  56.794  16.889  1.00 30.61 LIG 0.16  HD
ENDROOT
BRANCH 3 5
ATOM      5  CA  ILE C  37      52.827  56.201  16.333  1.00 31.48 LIG 0.18  C 
BRANCH 5 6
ATOM      6  C   ILE C  37      52.307  56.713  15.001  1.00 31.96 LIG 0.24  C 
ATOM      7 O    ILE C  37      52.806  57.708  14.472  1.00 31.93 LIG-0.27  OA
ATOM      8  N   LEU C  38      51.298  56.038  14.466  1.00 30.89 LIG-0.35  N 
ATOM      9 H    LEU C  38      50.912  55.367  14.841  1.00 30.89 LIG 0.16  HD
BRANCH 8 10
ATOM     10  CA  LEU C  38      50.758  56.400  13.165  1.00 34.88 LIG 0.18  C 
BRANCH 10 11
ATOM     11  C   LEU C  38      49.828  57.607  13.106  1.00 39.33 LIG 0.24  C 
ATOM     12 O    LEU C  38      49.186  57.966  14.092  1.00 37.11 LIG-0.27  OA
ATOM     13  N   SER C  39      49.771  58.225  11.930  1.00 40.29 LIG-0.34  N 
ATOM     14 H    SER C  39      50.243  57.995  11.249  1.00 40.29 LIG 0.16  HD
BRANCH 13 15
ATOM     15  CA  SER C  39      48.893  59.363  11.687  1.00 42.99 LIG 0.20  C 
BRANCH 15 16
ATOM     16  CB  SER C  39      49.170  59.990  10.315  1.00 41.70 LIG 0.20  C 
BRANCH 16 17
ATOM     17 OG   SER C  39      48.056  60.729   9.842  1.00 43.46 LIG-0.40  OA
ATOM     18 HG   SER C  39      47.430  60.681  10.401  1.00 43.46 LIG 0.21  HD
ENDBRANCH 16 17
ENDBRANCH 15 16
BRANCH 15 19
ATOM     19  C   SER C  39      47.486  58.776  11.708  1.00 43.99 LIG 0.24  C 
ATOM     20  N   LEU C  40      47.376  57.455  11.602  1.00 44.48 LIG-0.34  N 
ATOM     21 H    LEU C  40      48.044  56.919  11.523  1.00 44.48 LIG 0.16  HD
ATOM     22 O    SER C  39      46.510  59.519  11.816  1.00 44.86 LIG-0.27  OA
BRANCH 20 23
ATOM     23  CA  LEU C  40      46.071  56.805  11.614  1.00 50.99 LIG 0.18  C 
BRANCH 23 24
ATOM     24  C   LEU C  40      45.579  56.611  13.047  1.00 53.79 LIG 0.20  C 
ATOM     25 O    LEU C  40      45.271  55.454  13.411  1.00 58.34 LIG-0.65  OA
ATOM     26 OXT  LEU C  40      45.496  57.613  13.787  1.00 54.01 LIG-0.65  OA
ENDBRANCH 23 24
BRANCH 23 27
ATOM     27  CB  LEU C  40      46.163  55.453  10.900  1.00 48.71 LIG 0.04  C 
BRANCH 27 28
ATOM     28  CG  LEU C  40      47.472  55.075  10.207  1.00 48.98 LIG-0.02  C 
ATOM     29  CD2 LEU C  40      47.531  55.760   8.855  1.00 51.62 LIG 0.01  C 
ATOM     30  CD1 LEU C  40      47.559  53.565  10.037  1.00 51.55 LIG 0.01  C 
ENDBRANCH 27 28
ENDBRANCH 23 27
ENDBRANCH 20 23
ENDBRANCH 15 19
ENDBRANCH 13 15
ENDBRANCH 10 11
BRANCH 10 31
ATOM     31  CB  LEU C  38      50.045  55.191  12.565  1.00 30.69 LIG 0.04  C 
BRANCH 31 32
ATOM     32  CG  LEU C  38      50.884  54.330  11.618  1.00 36.50 LIG-0.02  C 
ATOM     33  CD2 LEU C  38      52.261  54.077  12.228  1.00 35.12 LIG 0.01  C 
ATOM     34  CD1 LEU C  38      51.009  55.034  10.273  1.00 37.99 LIG 0.01  C 
ENDBRANCH 31 32
ENDBRANCH 10 31
ENDBRANCH 8 10
ENDBRANCH 5 6
BRANCH 5 35
ATOM     35  CB  ILE C  37      52.260  57.071  17.463  1.00 37.32 LIG 0.01  C 
ATOM     36  CG2 ILE C  37      51.567  58.293  16.878  1.00 35.15 LIG 0.01  C 
BRANCH 35 37
ATOM     37  CG1 ILE C  37      51.301  56.240  18.315  1.00 33.54 LIG 0.00  C 
ATOM     38  CD1 ILE C  37      50.822  54.976  17.637  1.00 46.98 LIG 0.01  C 
ENDBRANCH 35 37
ENDBRANCH 5 35
ENDBRANCH 3 5
BRANCH 1 39
ATOM     39  CA  PRO C  36      56.502  56.039  15.354  1.00 32.35 LIG 0.18  C 
ATOM     40  CB  PRO C  36      56.847  57.481  14.981  1.00 32.18 LIG 0.04  C 
ATOM     41  CG  PRO C  36      57.160  57.389  13.518  1.00 32.63 LIG 0.02  C 
ATOM     42  CD  PRO C  36      57.967  56.115  13.423  1.00 32.64 LIG 0.13  C 
ATOM     43  N   PRO C  36      57.300  55.250  14.412  1.00 32.06 LIG-0.34  N 
ATOM     44  C   ARG C  35      57.384  53.923  14.558  1.00 32.74 LIG 0.24  C 
ATOM     45 O    ARG C  35      56.812  53.335  15.473  1.00 32.93 LIG-0.27  OA
BRANCH 44 46
ATOM     46  CA  ARG C  35      58.229  53.160  13.547  1.00 37.56 LIG 0.18  C 
BRANCH 46 47
ATOM     47  CB  ARG C  35      57.325  52.437  12.549  1.00 40.42 LIG 0.04  C 
BRANCH 47 48
ATOM     48  CG  ARG C  35      56.328  53.340  11.873  1.00 36.41 LIG 0.02  C 
BRANCH 48 49
ATOM     49  CD  ARG C  35      56.979  54.167  10.777  1.00 39.80 LIG 0.14  C 
BRANCH 49 50
ATOM     50  NE  ARG C  35      56.452  53.800   9.466  1.00 32.60 LIG-0.23  N 
ATOM     51 HE   ARG C  35      55.651  54.046   9.274  1.00 32.60 LIG 0.18  HD
ATOM     52  CZ  ARG C  35      57.125  53.112   8.550  1.00 32.33 LIG 0.67  C 
ATOM     53  NH2 ARG C  35      58.363  52.710   8.795  1.00 28.83 LIG-0.23  N 
ATOM     54  NH1 ARG C  35      56.553  52.829   7.387  1.00 30.81 LIG-0.23  N 
ATOM     55 2HH2 ARG C  35      58.796  52.266   8.199  1.00 28.83 LIG 0.17  HD
ATOM     56 1HH2 ARG C  35      58.735  52.895   9.548  1.00 28.83 LIG 0.17  HD
ATOM     57 1HH1 ARG C  35      55.749  53.091   7.228  1.00 30.81 LIG 0.17  HD
ATOM     58 2HH1 ARG C  35      56.986  52.384   6.792  1.00 30.81 LIG 0.17  HD
ENDBRANCH 49 50
ENDBRANCH 48 49
ENDBRANCH 47 48
ENDBRANCH 46 47
BRANCH 46 59
ATOM     59  N   ARG C  35      59.051  52.203  14.273  1.00 36.73 LIG-0.35  N 
ATOM     60  C   ASN C  34      60.056  52.619  15.035  1.00 40.82 LIG 0.26  C 
ATOM     61 O    ASN C  34      60.347  53.808  15.161  1.00 33.40 LIG-0.27  OA
ATOM     62 H    ARG C  35      58.830  51.379  14.164  1.00 36.73 LIG 0.16  HD
BRANCH 60 63
ATOM     63  CA  ASN C  34      60.849  51.541  15.765  1.00 41.08 LIG 0.41  C 
ATOM     64  N   ASN C  34      62.275  51.955  15.886  1.00 44.32 LIG 0.61  N 
BRANCH 63 65
ATOM     65  CB  ASN C  34      60.232  51.322  17.150  1.00 43.19 LIG 0.15  C 
BRANCH 65 66
ATOM     66  CG  ASN C  34      58.734  51.595  17.183  1.00 48.82 LIG 0.22  C 
ATOM     67  ND2 ASN C  34      58.358  52.846  17.438  1.00 46.77 LIG-0.37  N 
ATOM     68 21HD ASN C  34      57.523  53.047  17.462  1.00 46.77 LIG 0.16  HD
ATOM     69 22HD ASN C  34      58.952  53.452  17.580  1.00 46.77 LIG 0.16  HD
ATOM     70 OD1  ASN C  34      57.927  50.690  16.973  1.00 54.33 LIG-0.27  OA
ENDBRANCH 65 66
ENDBRANCH 63 65
ENDBRANCH 60 63
ENDBRANCH 46 59
ENDBRANCH 44 46
ENDBRANCH 1 39
TORSDOF 26
ENDMDL
MODEL 48
USER: ADFR SOLUTION from run 142
USER: SCORE 19.901137 LL:  -7.022 LR: -14.342 RR:   0.000 FEB:  -6.586
USER: RMSD 11.460672
USER: SEED 141
USER: STATUS no improvement in best in 1 clusters for 5 generations
USER: GENES 28
USER: genes 0 Translation |==|  0.57997 0.69733 0.77403
USER: genes 1 Rotation |==|  0.65814 0.55007 0.12292 0.78336
USER: genes 2 Torsion [C]-N--CA-[C] |==|  0.74694
USER: genes 3 Torsion [N]-CA--C-[N] |==|  0.97556
USER: genes 4 Torsion [C]-N--CA-[C] |==|  0.16820
USER: genes 5 Torsion [N]-CA--C-[N] |==|  0.09744
USER: genes 6 Torsion [C]-N--CA-[C] |==|  0.22778
USER: genes 7 Torsion [N]-CA--CB-[OG] |==|  0.87244
USER: genes 8 Torsion [CA]-CB--OG-[HG] |==|  0.32173
USER: genes 9 Torsion [N]-CA--C-[N] |==|  0.82660
USER: genes 10 Torsion [C]-N--CA-[C] |==|  0.70209
USER: genes 11 Torsion [N]-CA--C-[O] |==|  0.87077
USER: genes 12 Torsion [N]-CA--CB-[CG] |==|  0.93994
USER: genes 13 Torsion [CA]-CB--CG-[CD2] |==|  0.82312
USER: genes 14 Torsion [N]-CA--CB-[CG] |==|  0.81226
USER: genes 15 Torsion [CA]-CB--CG-[CD2] |==|  0.24282
USER: genes 16 Torsion [N]-CA--CB-[CG2] |==|  0.16200
USER: genes 17 Torsion [CA]-CB--CG1-[CD1] |==|  0.60944
USER: genes 18 Torsion [O]-C--CA-[CB] |==|  0.77505
USER: genes 19 Torsion [N]-C--CA-[N] |==|  0.22914
USER: genes 20 Torsion [C]-CA--CB-[CG] |==|  0.39857
USER: genes 21 Torsion [CA]-CB--CG-[CD] |==|  0.56253
USER: genes 22 Torsion [CB]-CG--CD-[NE] |==|  0.76463
USER: genes 23 Torsion [CG]-CD--NE-[CZ] |==|  0.61664
USER: genes 24 Torsion [C]-CA--N-[C] |==|  0.55893
USER: genes 25 Torsion [N]-C--CA-[N] |==|  0.78702
USER: genes 26 Torsion [C]-CA--CB-[CG] |==|  0.14083
USER: genes 27 Torsion [CA]-CB--CG-[ND2] |==|  0.24041
ROOT
ATOM      1  C   PRO C  36      50.072  58.631  18.175  1.00 34.41 LIG 0.24  C 
ATOM      2 O    PRO C  36      49.065  58.341  18.828  1.00 29.89 LIG-0.27  OA
ATOM      3  N   ILE C  37      50.057  58.847  16.862  1.00 30.61 LIG-0.35  N 
ATOM      4 H    ILE C  37      50.755  59.076  16.414  1.00 30.61 LIG 0.16  HD
ENDROOT
BRANCH 3 5
ATOM      5  CA  ILE C  37      48.855  58.715  16.050  1.00 31.48 LIG 0.18  C 
BRANCH 5 6
ATOM      6  C   ILE C  37      48.852  57.275  15.569  1.00 31.96 LIG 0.24  C 
ATOM      7 O    ILE C  37      47.868  56.806  14.995  1.00 31.93 LIG-0.27  OA
ATOM      8  N   LEU C  38      49.951  56.573  15.813  1.00 30.89 LIG-0.35  N 
ATOM      9 H    LEU C  38      50.630  56.873  16.247  1.00 30.89 LIG 0.16  HD
BRANCH 8 10
ATOM     10  CA  LEU C  38      50.086  55.202  15.345  1.00 34.88 LIG 0.18  C 
BRANCH 10 11
ATOM     11  C   LEU C  38      50.016  54.968  13.840  1.00 39.33 LIG 0.24  C 
ATOM     12 O    LEU C  38      49.496  53.954  13.376  1.00 37.11 LIG-0.27  OA
ATOM     13  N   SER C  39      50.549  55.927  13.089  1.00 40.29 LIG-0.34  N 
ATOM     14 H    SER C  39      50.884  56.651  13.411  1.00 40.29 LIG 0.16  HD
BRANCH 13 15
ATOM     15  CA  SER C  39      50.614  55.838  11.635  1.00 42.99 LIG 0.20  C 
BRANCH 15 16
ATOM     16  CB  SER C  39      50.878  54.397  11.183  1.00 41.70 LIG 0.20  C 
BRANCH 16 17
ATOM     17 OG   SER C  39      51.918  53.794  11.935  1.00 43.46 LIG-0.40  OA
ATOM     18 HG   SER C  39      51.609  53.148  12.375  1.00 43.46 LIG 0.21  HD
ENDBRANCH 16 17
ENDBRANCH 15 16
BRANCH 15 19
ATOM     19  C   SER C  39      49.233  56.279  11.161  1.00 43.99 LIG 0.24  C 
ATOM     20  N   LEU C  40      48.195  55.539  11.537  1.00 44.48 LIG-0.34  N 
ATOM     21 H    LEU C  40      48.255  54.834  12.026  1.00 44.48 LIG 0.16  HD
ATOM     22 O    SER C  39      49.116  57.282  10.456  1.00 44.86 LIG-0.27  OA
BRANCH 20 23
ATOM     23  CA  LEU C  40      46.838  55.884  11.132  1.00 50.99 LIG 0.18  C 
BRANCH 23 24
ATOM     24  C   LEU C  40      46.048  56.442  12.315  1.00 53.79 LIG 0.20  C 
ATOM     25 O    LEU C  40      46.107  55.829  13.403  1.00 58.34 LIG-0.65  OA
ATOM     26 OXT  LEU C  40      45.371  57.478  12.141  1.00 54.01 LIG-0.65  OA
ENDBRANCH 23 24
BRANCH 23 27
ATOM     27  CB  LEU C  40      46.136  54.645  10.568  1.00 48.71 LIG 0.04  C 
BRANCH 27 28
ATOM     28  CG  LEU C  40      46.992  53.489  10.050  1.00 48.98 LIG-0.02  C 
ATOM     29  CD2 LEU C  40      47.801  53.967   8.860  1.00 51.62 LIG 0.01  C 
ATOM     30  CD1 LEU C  40      46.105  52.319   9.649  1.00 51.55 LIG 0.01  C 
ENDBRANCH 27 28
ENDBRANCH 23 27
ENDBRANCH 20 23
ENDBRANCH 15 19
ENDBRANCH 13 15
ENDBRANCH 10 11
BRANCH 10 31
ATOM     31  CB  LEU C  38      49.037  54.333  16.034  1.00 30.69 LIG 0.04  C 
BRANCH 31 32
ATOM     32  CG  LEU C  38      49.227  54.134  17.539  1.00 36.50 LIG-0.02  C 
ATOM     33  CD2 LEU C  38      48.546  55.267  18.303  1.00 35.12 LIG 0.01  C 
ATOM     34  CD1 LEU C  38      50.716  54.086  17.858  1.00 37.99 LIG 0.01  C 
ENDBRANCH 31 32
ENDBRANCH 10 31
ENDBRANCH 8 10
ENDBRANCH 5 6
BRANCH 5 35
ATOM     35  CB  ILE C  37      48.906  59.652  14.836  1.00 37.32 LIG 0.01  C 
ATOM     36  CG2 ILE C  37      50.134  59.341  13.993  1.00 35.15 LIG 0.01  C 
BRANCH 35 37
ATOM     37  CG1 ILE C  37      47.619  59.505  14.024  1.00 33.54 LIG 0.00  C 
ATOM     38  CD1 ILE C  37      47.834  59.538  12.528  1.00 46.98 LIG 0.01  C 
ENDBRANCH 35 37
ENDBRANCH 5 35
ENDBRANCH 3 5
BRANCH 1 39
ATOM     39  CA  PRO C  36      51.435  58.784  18.849  1.00 32.35 LIG 0.18  C 
ATOM     40  CB  PRO C  36      51.604  60.153  19.510  1.00 32.18 LIG 0.04  C 
ATOM     41  CG  PRO C  36      52.292  60.960  18.451  1.00 32.63 LIG 0.02  C 
ATOM     42  CD  PRO C  36      53.308  59.991  17.892  1.00 32.64 LIG 0.13  C 
ATOM     43  N   PRO C  36      52.574  58.714  17.930  1.00 32.06 LIG-0.34  N 
ATOM     44  C   ARG C  35      52.850  57.569  17.298  1.00 32.74 LIG 0.24  C 
ATOM     45 O    ARG C  35      52.177  56.555  17.468  1.00 32.93 LIG-0.27  OA
BRANCH 44 46
ATOM     46  CA  ARG C  35      54.047  57.560  16.356  1.00 37.56 LIG 0.18  C 
BRANCH 46 47
ATOM     47  CB  ARG C  35      53.893  56.443  15.324  1.00 40.42 LIG 0.04  C 
BRANCH 47 48
ATOM     48  CG  ARG C  35      54.409  56.808  13.957  1.00 36.41 LIG 0.02  C 
BRANCH 48 49
ATOM     49  CD  ARG C  35      53.772  55.953  12.875  1.00 39.80 LIG 0.14  C 
BRANCH 49 50
ATOM     50  NE  ARG C  35      54.485  54.688  12.725  1.00 32.60 LIG-0.23  N 
ATOM     51 HE   ARG C  35      54.734  54.282  13.440  1.00 32.60 LIG 0.18  HD
ATOM     52  CZ  ARG C  35      54.774  54.121  11.559  1.00 32.33 LIG 0.67  C 
ATOM     53  NH2 ARG C  35      54.410  54.704  10.426  1.00 28.83 LIG-0.23  N 
ATOM     54  NH1 ARG C  35      55.428  52.968  11.531  1.00 30.81 LIG-0.23  N 
ATOM     55 2HH2 ARG C  35      54.599  54.334   9.673  1.00 28.83 LIG 0.17  HD
ATOM     56 1HH2 ARG C  35      53.985  55.451  10.443  1.00 28.83 LIG 0.17  HD
ATOM     57 1HH1 ARG C  35      55.663  52.589  12.267  1.00 30.81 LIG 0.17  HD
ATOM     58 2HH1 ARG C  35      55.617  52.598  10.778  1.00 30.81 LIG 0.17  HD
ENDBRANCH 49 50
ENDBRANCH 48 49
ENDBRANCH 47 48
ENDBRANCH 46 47
BRANCH 46 59
ATOM     59  N   ARG C  35      55.248  57.355  17.151  1.00 36.73 LIG-0.35  N 
ATOM     60  C   ASN C  34      56.438  57.713  16.680  1.00 40.82 LIG 0.26  C 
ATOM     61 O    ASN C  34      56.588  58.218  15.568  1.00 33.40 LIG-0.27  OA
ATOM     62 H    ARG C  35      55.117  56.996  17.921  1.00 36.73 LIG 0.16  HD
BRANCH 60 63
ATOM     63  CA  ASN C  34      57.633  57.469  17.593  1.00 41.08 LIG 0.41  C 
ATOM     64  N   ASN C  34      57.675  58.507  18.662  1.00 44.32 LIG 0.61  N 
BRANCH 63 65
ATOM     65  CB  ASN C  34      57.513  56.069  18.206  1.00 43.19 LIG 0.15  C 
BRANCH 65 66
ATOM     66  CG  ASN C  34      57.260  54.986  17.166  1.00 48.82 LIG 0.22  C 
ATOM     67  ND2 ASN C  34      58.331  54.454  16.582  1.00 46.77 LIG-0.37  N 
ATOM     68 21HD ASN C  34      58.236  53.836  15.992  1.00 46.77 LIG 0.16  HD
ATOM     69 22HD ASN C  34      59.117  54.730  16.794  1.00 46.77 LIG 0.16  HD
ATOM     70 OD1  ASN C  34      56.113  54.629  16.899  1.00 54.33 LIG-0.27  OA
ENDBRANCH 65 66
ENDBRANCH 63 65
ENDBRANCH 60 63
ENDBRANCH 46 59
ENDBRANCH 44 46
ENDBRANCH 1 39
TORSDOF 26
ENDMDL
MODEL 49
USER: ADFR SOLUTION from run 98
USER: SCORE 18.299328 LL:  -5.741 LR: -14.323 RR:   0.000 FEB:  -6.568
USER: RMSD 12.866000
USER: SEED 97
USER: STATUS no improvement in best in 13 clusters for 5 generations
USER: GENES 28
USER: genes 0 Translation |==|  0.78527 0.50295 0.68469
USER: genes 1 Rotation |==|  0.70494 0.45711 0.95044 0.55718
USER: genes 2 Torsion [C]-N--CA-[C] |==|  0.56936
USER: genes 3 Torsion [N]-CA--C-[N] |==|  0.35266
USER: genes 4 Torsion [C]-N--CA-[C] |==|  0.59192
USER: genes 5 Torsion [N]-CA--C-[N] |==|  0.31821
USER: genes 6 Torsion [C]-N--CA-[C] |==|  0.80048
USER: genes 7 Torsion [N]-CA--CB-[OG] |==|  0.93637
USER: genes 8 Torsion [CA]-CB--OG-[HG] |==|  0.68555
USER: genes 9 Torsion [N]-CA--C-[N] |==|  0.87897
USER: genes 10 Torsion [C]-N--CA-[C] |==|  0.59450
USER: genes 11 Torsion [N]-CA--C-[O] |==|  0.49034
USER: genes 12 Torsion [N]-CA--CB-[CG] |==|  0.64548
USER: genes 13 Torsion [CA]-CB--CG-[CD2] |==|  0.15520
USER: genes 14 Torsion [N]-CA--CB-[CG] |==|  0.78810
USER: genes 15 Torsion [CA]-CB--CG-[CD2] |==|  0.81710
USER: genes 16 Torsion [N]-CA--CB-[CG2] |==|  0.71753
USER: genes 17 Torsion [CA]-CB--CG1-[CD1] |==|  0.67838
USER: genes 18 Torsion [O]-C--CA-[CB] |==|  0.01468
USER: genes 19 Torsion [N]-C--CA-[N] |==|  0.46111
USER: genes 20 Torsion [C]-CA--CB-[CG] |==|  0.41441
USER: genes 21 Torsion [CA]-CB--CG-[CD] |==|  0.96574
USER: genes 22 Torsion [CB]-CG--CD-[NE] |==|  0.29056
USER: genes 23 Torsion [CG]-CD--NE-[CZ] |==|  0.29678
USER: genes 24 Torsion [C]-CA--N-[C] |==|  0.18735
USER: genes 25 Torsion [N]-C--CA-[N] |==|  0.96648
USER: genes 26 Torsion [C]-CA--CB-[CG] |==|  0.75629
USER: genes 27 Torsion [CA]-CB--CG-[ND2] |==|  0.57597
ROOT
ATOM      1  C   PRO C  36      56.539  55.132  16.500  1.00 34.41 LIG 0.24  C 
ATOM      2 O    PRO C  36      57.463  55.541  17.209  1.00 29.89 LIG-0.27  OA
ATOM      3  N   ILE C  37      55.440  55.839  16.250  1.00 30.61 LIG-0.35  N 
ATOM      4 H    ILE C  37      54.810  55.563  15.733  1.00 30.61 LIG 0.16  HD
ENDROOT
BRANCH 3 5
ATOM      5  CA  ILE C  37      55.194  57.154  16.827  1.00 31.48 LIG 0.18  C 
BRANCH 5 6
ATOM      6  C   ILE C  37      53.684  57.314  16.829  1.00 31.96 LIG 0.24  C 
ATOM      7 O    ILE C  37      53.033  57.156  15.795  1.00 31.93 LIG-0.27  OA
ATOM      8  N   LEU C  38      53.130  57.636  17.991  1.00 30.89 LIG-0.35  N 
ATOM      9 H    LEU C  38      53.573  57.789  18.712  1.00 30.89 LIG 0.16  HD
BRANCH 8 10
ATOM     10  CA  LEU C  38      51.687  57.757  18.128  1.00 34.88 LIG 0.18  C 
BRANCH 10 11
ATOM     11  C   LEU C  38      51.163  58.797  19.111  1.00 39.33 LIG 0.24  C 
ATOM     12 O    LEU C  38      51.368  58.692  20.320  1.00 37.11 LIG-0.27  OA
ATOM     13  N   SER C  39      50.485  59.805  18.568  1.00 40.29 LIG-0.34  N 
ATOM     14 H    SER C  39      50.369  59.896  17.721  1.00 40.29 LIG 0.16  HD
BRANCH 13 15
ATOM     15  CA  SER C  39      49.872  60.856  19.370  1.00 42.99 LIG 0.20  C 
BRANCH 15 16
ATOM     16  CB  SER C  39      49.377  62.006  18.485  1.00 41.70 LIG 0.20  C 
BRANCH 16 17
ATOM     17 OG   SER C  39      50.059  62.042  17.242  1.00 43.46 LIG-0.40  OA
ATOM     18 HG   SER C  39      50.529  62.737  17.200  1.00 43.46 LIG 0.21  HD
ENDBRANCH 16 17
ENDBRANCH 15 16
BRANCH 15 19
ATOM     19  C   SER C  39      48.683  60.181  20.047  1.00 43.99 LIG 0.24  C 
ATOM     20  N   LEU C  40      47.933  59.378  19.299  1.00 44.48 LIG-0.34  N 
ATOM     21 H    LEU C  40      48.076  59.219  18.466  1.00 44.48 LIG 0.16  HD
ATOM     22 O    SER C  39      48.451  60.393  21.237  1.00 44.86 LIG-0.27  OA
BRANCH 20 23
ATOM     23  CA  LEU C  40      46.777  58.690  19.861  1.00 50.99 LIG 0.18  C 
BRANCH 23 24
ATOM     24  C   LEU C  40      46.600  57.317  19.213  1.00 53.79 LIG 0.20  C 
ATOM     25 O    LEU C  40      45.686  56.579  19.641  1.00 58.34 LIG-0.65  OA
ATOM     26 OXT  LEU C  40      47.381  56.990  18.295  1.00 54.01 LIG-0.65  OA
ENDBRANCH 23 24
BRANCH 23 27
ATOM     27  CB  LEU C  40      45.519  59.537  19.649  1.00 48.71 LIG 0.04  C 
BRANCH 27 28
ATOM     28  CG  LEU C  40      44.633  59.852  20.855  1.00 48.98 LIG-0.02  C 
ATOM     29  CD2 LEU C  40      45.474  60.522  21.924  1.00 51.62 LIG 0.01  C 
ATOM     30  CD1 LEU C  40      44.013  58.572  21.397  1.00 51.55 LIG 0.01  C 
ENDBRANCH 27 28
ENDBRANCH 23 27
ENDBRANCH 20 23
ENDBRANCH 15 19
ENDBRANCH 13 15
ENDBRANCH 10 11
BRANCH 10 31
ATOM     31  CB  LEU C  38      51.102  56.393  18.485  1.00 30.69 LIG 0.04  C 
BRANCH 31 32
ATOM     32  CG  LEU C  38      51.002  55.392  17.333  1.00 36.50 LIG-0.02  C 
ATOM     33  CD2 LEU C  38      49.997  55.891  16.296  1.00 35.12 LIG 0.01  C 
ATOM     34  CD1 LEU C  38      50.583  54.033  17.880  1.00 37.99 LIG 0.01  C 
ENDBRANCH 31 32
ENDBRANCH 10 31
ENDBRANCH 8 10
ENDBRANCH 5 6
BRANCH 5 35
ATOM     35  CB  ILE C  37      55.815  58.259  15.962  1.00 37.32 LIG 0.01  C 
ATOM     36  CG2 ILE C  37      57.118  58.734  16.587  1.00 35.15 LIG 0.01  C 
BRANCH 35 37
ATOM     37  CG1 ILE C  37      56.035  57.733  14.543  1.00 33.54 LIG 0.00  C 
ATOM     38  CD1 ILE C  37      57.489  57.667  14.136  1.00 46.98 LIG 0.01  C 
ENDBRANCH 35 37
ENDBRANCH 5 35
ENDBRANCH 3 5
BRANCH 1 39
ATOM     39  CA  PRO C  36      56.603  53.760  15.831  1.00 32.35 LIG 0.18  C 
ATOM     40  CB  PRO C  36      57.840  52.966  16.253  1.00 32.18 LIG 0.04  C 
ATOM     41  CG  PRO C  36      58.832  53.283  15.177  1.00 32.63 LIG 0.02  C 
ATOM     42  CD  PRO C  36      57.997  53.232  13.919  1.00 32.64 LIG 0.13  C 
ATOM     43  N   PRO C  36      56.718  53.805  14.371  1.00 32.06 LIG-0.34  N 
ATOM     44  C   ARG C  35      55.705  54.280  13.637  1.00 32.74 LIG 0.24  C 
ATOM     45 O    ARG C  35      54.663  54.679  14.152  1.00 32.93 LIG-0.27  OA
BRANCH 44 46
ATOM     46  CA  ARG C  35      55.886  54.301  12.126  1.00 37.56 LIG 0.18  C 
BRANCH 46 47
ATOM     47  CB  ARG C  35      56.860  55.411  11.730  1.00 40.42 LIG 0.04  C 
BRANCH 47 48
ATOM     48  CG  ARG C  35      57.658  55.100  10.491  1.00 36.41 LIG 0.02  C 
BRANCH 48 49
ATOM     49  CD  ARG C  35      57.529  53.639  10.097  1.00 39.80 LIG 0.14  C 
BRANCH 49 50
ATOM     50  NE  ARG C  35      56.646  53.488   8.945  1.00 32.60 LIG-0.23  N 
ATOM     51 HE   ARG C  35      55.803  53.595   9.071  1.00 32.60 LIG 0.18  HD
ATOM     52  CZ  ARG C  35      57.056  53.196   7.715  1.00 32.33 LIG 0.67  C 
ATOM     53  NH2 ARG C  35      58.346  53.024   7.466  1.00 28.83 LIG-0.23  N 
ATOM     54  NH1 ARG C  35      56.170  53.079   6.735  1.00 30.81 LIG-0.23  N 
ATOM     55 2HH2 ARG C  35      58.608  52.835   6.669  1.00 28.83 LIG 0.17  HD
ATOM     56 1HH2 ARG C  35      58.921  53.101   8.101  1.00 28.83 LIG 0.17  HD
ATOM     57 1HH1 ARG C  35      55.333  53.193   6.897  1.00 30.81 LIG 0.17  HD
ATOM     58 2HH1 ARG C  35      56.432  52.891   5.938  1.00 30.81 LIG 0.17  HD
ENDBRANCH 49 50
ENDBRANCH 48 49
ENDBRANCH 47 48
ENDBRANCH 46 47
BRANCH 46 59
ATOM     59  N   ARG C  35      54.584  54.526  11.516  1.00 36.73 LIG-0.35  N 
ATOM     60  C   ASN C  34      53.962  55.690  11.666  1.00 40.82 LIG 0.26  C 
ATOM     61 O    ASN C  34      54.436  56.618  12.319  1.00 33.40 LIG-0.27  OA
ATOM     62 H    ARG C  35      54.273  53.860  11.069  1.00 36.73 LIG 0.16  HD
BRANCH 60 63
ATOM     63  CA  ASN C  34      52.609  55.833  10.978  1.00 41.08 LIG 0.41  C 
ATOM     64  N   ASN C  34      52.402  54.704  10.027  1.00 44.32 LIG 0.61  N 
BRANCH 63 65
ATOM     65  CB  ASN C  34      51.509  55.847  12.044  1.00 43.19 LIG 0.15  C 
BRANCH 65 66
ATOM     66  CG  ASN C  34      51.018  54.452  12.409  1.00 48.82 LIG 0.22  C 
ATOM     67  ND2 ASN C  34      49.767  54.354  12.852  1.00 46.77 LIG-0.37  N 
ATOM     68 21HD ASN C  34      49.446  53.585  13.066  1.00 46.77 LIG 0.16  HD
ATOM     69 22HD ASN C  34      49.281  55.059  12.924  1.00 46.77 LIG 0.16  HD
ATOM     70 OD1  ASN C  34      51.757  53.476  12.287  1.00 54.33 LIG-0.27  OA
ENDBRANCH 65 66
ENDBRANCH 63 65
ENDBRANCH 60 63
ENDBRANCH 46 59
ENDBRANCH 44 46
ENDBRANCH 1 39
TORSDOF 26
ENDMDL
MODEL 50
USER: ADFR SOLUTION from run 143
USER: SCORE 19.089659 LL:  -5.834 LR: -14.317 RR:   0.000 FEB:  -6.561
USER: RMSD 12.132619
USER: SEED 142
USER: STATUS searching
USER: GENES 28
USER: genes 0 Translation |==|  0.66187 0.45956 0.47074
USER: genes 1 Rotation |==|  0.61383 0.95541 0.34292 0.57049
USER: genes 2 Torsion [C]-N--CA-[C] |==|  0.77606
USER: genes 3 Torsion [N]-CA--C-[N] |==|  0.15726
USER: genes 4 Torsion [C]-N--CA-[C] |==|  0.14448
USER: genes 5 Torsion [N]-CA--C-[N] |==|  0.05803
USER: genes 6 Torsion [C]-N--CA-[C] |==|  0.16537
USER: genes 7 Torsion [N]-CA--CB-[OG] |==|  0.89326
USER: genes 8 Torsion [CA]-CB--OG-[HG] |==|  0.65818
USER: genes 9 Torsion [N]-CA--C-[N] |==|  0.10544
USER: genes 10 Torsion [C]-N--CA-[C] |==|  0.56685
USER: genes 11 Torsion [N]-CA--C-[O] |==|  0.93608
USER: genes 12 Torsion [N]-CA--CB-[CG] |==|  0.23156
USER: genes 13 Torsion [CA]-CB--CG-[CD2] |==|  0.61168
USER: genes 14 Torsion [N]-CA--CB-[CG] |==|  0.62068
USER: genes 15 Torsion [CA]-CB--CG-[CD2] |==|  0.39878
USER: genes 16 Torsion [N]-CA--CB-[CG2] |==|  0.57040
USER: genes 17 Torsion [CA]-CB--CG1-[CD1] |==|  0.62981
USER: genes 18 Torsion [O]-C--CA-[CB] |==|  0.97025
USER: genes 19 Torsion [N]-C--CA-[N] |==|  0.48606
USER: genes 20 Torsion [C]-CA--CB-[CG] |==|  0.43486
USER: genes 21 Torsion [CA]-CB--CG-[CD] |==|  0.89197
USER: genes 22 Torsion [CB]-CG--CD-[NE] |==|  0.49289
USER: genes 23 Torsion [CG]-CD--NE-[CZ] |==|  0.82350
USER: genes 24 Torsion [C]-CA--N-[C] |==|  0.58295
USER: genes 25 Torsion [N]-C--CA-[N] |==|  0.09929
USER: genes 26 Torsion [C]-CA--CB-[CG] |==|  0.75413
USER: genes 27 Torsion [CA]-CB--CG-[ND2] |==|  0.35213
ROOT
ATOM      1  C   PRO C  36      52.652  54.351  12.488  1.00 34.41 LIG 0.24  C 
ATOM      2 O    PRO C  36      52.418  53.218  12.058  1.00 29.89 LIG-0.27  OA
ATOM      3  N   ILE C  37      51.823  55.016  13.289  1.00 30.61 LIG-0.35  N 
ATOM      4 H    ILE C  37      52.001  55.794  13.610  1.00 30.61 LIG 0.16  HD
ENDROOT
BRANCH 3 5
ATOM      5  CA  ILE C  37      50.528  54.492  13.702  1.00 31.48 LIG 0.18  C 
BRANCH 5 6
ATOM      6  C   ILE C  37      49.594  54.766  12.537  1.00 31.96 LIG 0.24  C 
ATOM      7 O    ILE C  37      48.558  55.412  12.700  1.00 31.93 LIG-0.27  OA
ATOM      8  N   LEU C  38      49.958  54.266  11.363  1.00 30.89 LIG-0.35  N 
ATOM      9 H    LEU C  38      50.657  53.780  11.240  1.00 30.89 LIG 0.16  HD
BRANCH 8 10
ATOM     10  CA  LEU C  38      49.174  54.516  10.163  1.00 34.88 LIG 0.18  C 
BRANCH 10 11
ATOM     11  C   LEU C  38      48.835  55.967   9.840  1.00 39.33 LIG 0.24  C 
ATOM     12 O    LEU C  38      47.892  56.253   9.103  1.00 37.11 LIG-0.27  OA
ATOM     13  N   SER C  39      49.622  56.876  10.409  1.00 40.29 LIG-0.34  N 
ATOM     14 H    SER C  39      50.261  56.679  10.949  1.00 40.29 LIG 0.16  HD
BRANCH 13 15
ATOM     15  CA  SER C  39      49.470  58.305  10.164  1.00 42.99 LIG 0.20  C 
BRANCH 15 16
ATOM     16  CB  SER C  39      49.615  58.627   8.672  1.00 41.70 LIG 0.20  C 
BRANCH 16 17
ATOM     17 OG   SER C  39      50.624  57.839   8.061  1.00 43.46 LIG-0.40  OA
ATOM     18 HG   SER C  39      51.196  58.342   7.706  1.00 43.46 LIG 0.21  HD
ENDBRANCH 16 17
ENDBRANCH 15 16
BRANCH 15 19
ATOM     19  C   SER C  39      48.051  58.625  10.622  1.00 43.99 LIG 0.24  C 
ATOM     20  N   LEU C  40      47.607  58.001  11.708  1.00 44.48 LIG-0.34  N 
ATOM     21 H    LEU C  40      48.067  57.434  12.162  1.00 44.48 LIG 0.16  HD
ATOM     22 O    SER C  39      47.367  59.431   9.990  1.00 44.86 LIG-0.27  OA
BRANCH 20 23
ATOM     23  CA  LEU C  40      46.264  58.245  12.220  1.00 50.99 LIG 0.18  C 
BRANCH 23 24
ATOM     24  C   LEU C  40      46.188  57.921  13.712  1.00 53.79 LIG 0.20  C 
ATOM     25 O    LEU C  40      47.031  57.126  14.183  1.00 58.34 LIG-0.65  OA
ATOM     26 OXT  LEU C  40      45.285  58.454  14.390  1.00 54.01 LIG-0.65  OA
ENDBRANCH 23 24
BRANCH 23 27
ATOM     27  CB  LEU C  40      45.253  57.395  11.445  1.00 48.71 LIG 0.04  C 
BRANCH 27 28
ATOM     28  CG  LEU C  40      45.040  55.941  11.867  1.00 48.98 LIG-0.02  C 
ATOM     29  CD2 LEU C  40      44.901  55.080  10.627  1.00 51.62 LIG 0.01  C 
ATOM     30  CD1 LEU C  40      43.794  55.824  12.733  1.00 51.55 LIG 0.01  C 
ENDBRANCH 27 28
ENDBRANCH 23 27
ENDBRANCH 20 23
ENDBRANCH 15 19
ENDBRANCH 13 15
ENDBRANCH 10 11
BRANCH 10 31
ATOM     31  CB  LEU C  38      47.882  53.706  10.233  1.00 30.69 LIG 0.04  C 
BRANCH 31 32
ATOM     32  CG  LEU C  38      47.475  52.996   8.940  1.00 36.50 LIG-0.02  C 
ATOM     33  CD2 LEU C  38      46.844  51.644   9.265  1.00 35.12 LIG 0.01  C 
ATOM     34  CD1 LEU C  38      48.701  52.820   8.053  1.00 37.99 LIG 0.01  C 
ENDBRANCH 31 32
ENDBRANCH 10 31
ENDBRANCH 8 10
ENDBRANCH 5 6
BRANCH 5 35
ATOM     35  CB  ILE C  37      50.009  55.226  14.946  1.00 37.32 LIG 0.01  C 
ATOM     36  CG2 ILE C  37      49.052  54.329  15.715  1.00 35.15 LIG 0.01  C 
BRANCH 35 37
ATOM     37  CG1 ILE C  37      51.192  55.655  15.815  1.00 33.54 LIG 0.00  C 
ATOM     38  CD1 ILE C  37      51.018  55.338  17.282  1.00 46.98 LIG 0.01  C 
ENDBRANCH 35 37
ENDBRANCH 5 35
ENDBRANCH 3 5
BRANCH 1 39
ATOM     39  CA  PRO C  36      53.949  55.078  12.138  1.00 32.35 LIG 0.18  C 
ATOM     40  CB  PRO C  36      54.964  54.158  11.457  1.00 32.18 LIG 0.04  C 
ATOM     41  CG  PRO C  36      55.809  53.679  12.598  1.00 32.63 LIG 0.02  C 
ATOM     42  CD  PRO C  36      55.996  54.927  13.430  1.00 32.64 LIG 0.13  C 
ATOM     43  N   PRO C  36      54.687  55.589  13.296  1.00 32.06 LIG-0.34  N 
ATOM     44  C   ARG C  35      54.164  56.570  14.040  1.00 32.74 LIG 0.24  C 
ATOM     45 O    ARG C  35      53.073  57.071  13.776  1.00 32.93 LIG-0.27  OA
BRANCH 44 46
ATOM     46  CA  ARG C  35      54.978  57.057  15.229  1.00 37.56 LIG 0.18  C 
BRANCH 46 47
ATOM     47  CB  ARG C  35      55.128  55.935  16.256  1.00 40.42 LIG 0.04  C 
BRANCH 47 48
ATOM     48  CG  ARG C  35      56.324  56.096  17.157  1.00 36.41 LIG 0.02  C 
BRANCH 48 49
ATOM     49  CD  ARG C  35      57.526  56.629  16.397  1.00 39.80 LIG 0.14  C 
BRANCH 49 50
ATOM     50  NE  ARG C  35      58.659  56.836  17.294  1.00 32.60 LIG-0.23  N 
ATOM     51 HE   ARG C  35      59.365  56.364  17.162  1.00 32.60 LIG 0.18  HD
ATOM     52  CZ  ARG C  35      58.674  57.704  18.299  1.00 32.33 LIG 0.67  C 
ATOM     53  NH2 ARG C  35      57.612  58.458  18.545  1.00 28.83 LIG-0.23  N 
ATOM     54  NH1 ARG C  35      59.756  57.816  19.058  1.00 30.81 LIG-0.23  N 
ATOM     55 2HH2 ARG C  35      57.625  59.020  19.196  1.00 28.83 LIG 0.17  HD
ATOM     56 1HH2 ARG C  35      56.911  58.387  18.052  1.00 28.83 LIG 0.17  HD
ATOM     57 1HH1 ARG C  35      60.445  57.327  18.897  1.00 30.81 LIG 0.17  HD
ATOM     58 2HH1 ARG C  35      59.769  58.377  19.709  1.00 30.81 LIG 0.17  HD
ENDBRANCH 49 50
ENDBRANCH 48 49
ENDBRANCH 47 48
ENDBRANCH 46 47
BRANCH 46 59
ATOM     59  N   ARG C  35      54.287  58.195  15.818  1.00 36.73 LIG-0.35  N 
ATOM     60  C   ASN C  34      54.969  59.154  16.433  1.00 40.82 LIG 0.26  C 
ATOM     61 O    ASN C  34      56.194  59.131  16.545  1.00 33.40 LIG-0.27  OA
ATOM     62 H    ARG C  35      53.432  58.184  15.731  1.00 36.73 LIG 0.16  HD
BRANCH 60 63
ATOM     63  CA  ASN C  34      54.156  60.309  17.005  1.00 41.08 LIG 0.41  C 
ATOM     64  N   ASN C  34      52.855  59.804  17.528  1.00 44.32 LIG 0.61  N 
BRANCH 63 65
ATOM     65  CB  ASN C  34      54.962  60.979  18.123  1.00 43.19 LIG 0.15  C 
BRANCH 65 66
ATOM     66  CG  ASN C  34      54.725  60.345  19.487  1.00 48.82 LIG 0.22  C 
ATOM     67  ND2 ASN C  34      55.803  59.954  20.162  1.00 46.77 LIG-0.37  N 
ATOM     68 21HD ASN C  34      55.717  59.595  20.938  1.00 46.77 LIG 0.16  HD
ATOM     69 22HD ASN C  34      56.585  60.060  19.821  1.00 46.77 LIG 0.16  HD
ATOM     70 OD1  ASN C  34      53.584  60.217  19.929  1.00 54.33 LIG-0.27  OA
ENDBRANCH 65 66
ENDBRANCH 63 65
ENDBRANCH 60 63
ENDBRANCH 46 59
ENDBRANCH 44 46
ENDBRANCH 1 39
TORSDOF 26
ENDMDL
MODEL 51
USER: ADFR SOLUTION from run 77
USER: SCORE 19.331188 LL:  -6.250 LR: -14.305 RR:   0.000 FEB:  -6.549
USER: RMSD 14.308923
USER: SEED 76
USER: STATUS no improvement in best in 4 clusters for 5 generations
USER: GENES 28
USER: genes 0 Translation |==|  0.81013 0.44002 0.70019
USER: genes 1 Rotation |==|  0.20934 0.27481 0.82894 0.58129
USER: genes 2 Torsion [C]-N--CA-[C] |==|  0.84043
USER: genes 3 Torsion [N]-CA--C-[N] |==|  0.36466
USER: genes 4 Torsion [C]-N--CA-[C] |==|  0.51061
USER: genes 5 Torsion [N]-CA--C-[N] |==|  0.47088
USER: genes 6 Torsion [C]-N--CA-[C] |==|  0.74513
USER: genes 7 Torsion [N]-CA--CB-[OG] |==|  0.90300
USER: genes 8 Torsion [CA]-CB--OG-[HG] |==|  0.95860
USER: genes 9 Torsion [N]-CA--C-[N] |==|  0.98962
USER: genes 10 Torsion [C]-N--CA-[C] |==|  0.72300
USER: genes 11 Torsion [N]-CA--C-[O] |==|  0.94908
USER: genes 12 Torsion [N]-CA--CB-[CG] |==|  0.95503
USER: genes 13 Torsion [CA]-CB--CG-[CD2] |==|  0.74450
USER: genes 14 Torsion [N]-CA--CB-[CG] |==|  0.65675
USER: genes 15 Torsion [CA]-CB--CG-[CD2] |==|  0.35878
USER: genes 16 Torsion [N]-CA--CB-[CG2] |==|  0.69499
USER: genes 17 Torsion [CA]-CB--CG1-[CD1] |==|  0.22430
USER: genes 18 Torsion [O]-C--CA-[CB] |==|  0.65892
USER: genes 19 Torsion [N]-C--CA-[N] |==|  0.15394
USER: genes 20 Torsion [C]-CA--CB-[CG] |==|  0.26533
USER: genes 21 Torsion [CA]-CB--CG-[CD] |==|  0.26953
USER: genes 22 Torsion [CB]-CG--CD-[NE] |==|  0.19331
USER: genes 23 Torsion [CG]-CD--NE-[CZ] |==|  0.69866
USER: genes 24 Torsion [C]-CA--N-[C] |==|  0.55000
USER: genes 25 Torsion [N]-C--CA-[N] |==|  0.17813
USER: genes 26 Torsion [C]-CA--CB-[CG] |==|  0.70142
USER: genes 27 Torsion [CA]-CB--CG-[ND2] |==|  0.32063
ROOT
ATOM      1  C   PRO C  36      57.322  53.999  16.790  1.00 34.41 LIG 0.24  C 
ATOM      2 O    PRO C  36      56.175  53.963  17.245  1.00 29.89 LIG-0.27  OA
ATOM      3  N   ILE C  37      58.074  55.097  16.788  1.00 30.61 LIG-0.35  N 
ATOM      4 H    ILE C  37      58.883  55.113  16.496  1.00 30.61 LIG 0.16  HD
ENDROOT
BRANCH 3 5
ATOM      5  CA  ILE C  37      57.602  56.384  17.280  1.00 31.48 LIG 0.18  C 
BRANCH 5 6
ATOM      6  C   ILE C  37      56.362  56.695  16.461  1.00 31.96 LIG 0.24  C 
ATOM      7 O    ILE C  37      56.380  56.604  15.233  1.00 31.93 LIG-0.27  OA
ATOM      8  N   LEU C  38      55.288  57.072  17.144  1.00 30.89 LIG-0.35  N 
ATOM      9 H    LEU C  38      55.270  57.180  17.997  1.00 30.89 LIG 0.16  HD
BRANCH 8 10
ATOM     10  CA  LEU C  38      54.025  57.338  16.471  1.00 34.88 LIG 0.18  C 
BRANCH 10 11
ATOM     11  C   LEU C  38      52.873  57.852  17.327  1.00 39.33 LIG 0.24  C 
ATOM     12 O    LEU C  38      52.944  57.857  18.555  1.00 37.11 LIG-0.27  OA
ATOM     13  N   SER C  39      51.813  58.288  16.653  1.00 40.29 LIG-0.34  N 
ATOM     14 H    SER C  39      51.775  58.315  15.794  1.00 40.29 LIG 0.16  HD
BRANCH 13 15
ATOM     15  CA  SER C  39      50.605  58.763  17.316  1.00 42.99 LIG 0.20  C 
BRANCH 15 16
ATOM     16  CB  SER C  39      49.897  59.830  16.474  1.00 41.70 LIG 0.20  C 
BRANCH 16 17
ATOM     17 OG   SER C  39      50.822  60.645  15.773  1.00 43.46 LIG-0.40  OA
ATOM     18 HG   SER C  39      51.591  60.536  16.095  1.00 43.46 LIG 0.21  HD
ENDBRANCH 16 17
ENDBRANCH 15 16
BRANCH 15 19
ATOM     19  C   SER C  39      49.718  57.528  17.432  1.00 43.99 LIG 0.24  C 
ATOM     20  N   LEU C  40      50.162  56.405  16.879  1.00 44.48 LIG-0.34  N 
ATOM     21 H    LEU C  40      50.913  56.334  16.463  1.00 44.48 LIG 0.16  HD
ATOM     22 O    SER C  39      48.637  57.600  18.018  1.00 44.86 LIG-0.27  OA
BRANCH 20 23
ATOM     23  CA  LEU C  40      49.382  55.175  16.940  1.00 50.99 LIG 0.18  C 
BRANCH 23 24
ATOM     24  C   LEU C  40      49.904  54.261  18.049  1.00 53.79 LIG 0.20  C 
ATOM     25 O    LEU C  40      51.056  54.469  18.489  1.00 58.34 LIG-0.65  OA
ATOM     26 OXT  LEU C  40      49.162  53.344  18.459  1.00 54.01 LIG-0.65  OA
ENDBRANCH 23 24
BRANCH 23 27
ATOM     27  CB  LEU C  40      49.447  54.454  15.590  1.00 48.71 LIG 0.04  C 
BRANCH 27 28
ATOM     28  CG  LEU C  40      49.927  55.233  14.365  1.00 48.98 LIG-0.02  C 
ATOM     29  CD2 LEU C  40      48.728  55.840  13.664  1.00 51.62 LIG 0.01  C 
ATOM     30  CD1 LEU C  40      50.679  54.308  13.418  1.00 51.55 LIG 0.01  C 
ENDBRANCH 27 28
ENDBRANCH 23 27
ENDBRANCH 20 23
ENDBRANCH 15 19
ENDBRANCH 13 15
ENDBRANCH 10 11
BRANCH 10 31
ATOM     31  CB  LEU C  38      53.576  56.080  15.734  1.00 30.69 LIG 0.04  C 
BRANCH 31 32
ATOM     32  CG  LEU C  38      53.330  56.243  14.233  1.00 36.50 LIG-0.02  C 
ATOM     33  CD2 LEU C  38      54.083  55.162  13.460  1.00 35.12 LIG 0.01  C 
ATOM     34  CD1 LEU C  38      53.779  57.632  13.796  1.00 37.99 LIG 0.01  C 
ENDBRANCH 31 32
ENDBRANCH 10 31
ENDBRANCH 8 10
ENDBRANCH 5 6
BRANCH 5 35
ATOM     35  CB  ILE C  37      58.649  57.481  17.044  1.00 37.32 LIG 0.01  C 
ATOM     36  CG2 ILE C  37      59.251  57.916  18.371  1.00 35.15 LIG 0.01  C 
BRANCH 35 37
ATOM     37  CG1 ILE C  37      59.723  56.963  16.086  1.00 33.54 LIG 0.00  C 
ATOM     38  CD1 ILE C  37      59.322  57.024  14.630  1.00 46.98 LIG 0.01  C 
ENDBRANCH 35 37
ENDBRANCH 5 35
ENDBRANCH 3 5
BRANCH 1 39
ATOM     39  CA  PRO C  36      57.980  52.752  16.202  1.00 32.35 LIG 0.18  C 
ATOM     40  CB  PRO C  36      59.296  52.407  16.899  1.00 32.18 LIG 0.04  C 
ATOM     41  CG  PRO C  36      60.324  53.076  16.039  1.00 32.63 LIG 0.02  C 
ATOM     42  CD  PRO C  36      59.833  52.790  14.639  1.00 32.64 LIG 0.13  C 
ATOM     43  N   PRO C  36      58.371  52.883  14.796  1.00 32.06 LIG-0.34  N 
ATOM     44  C   ARG C  35      57.433  53.014  13.852  1.00 32.74 LIG 0.24  C 
ATOM     45 O    ARG C  35      56.235  53.021  14.126  1.00 32.93 LIG-0.27  OA
BRANCH 44 46
ATOM     46  CA  ARG C  35      57.904  53.146  12.411  1.00 37.56 LIG 0.18  C 
BRANCH 46 47
ATOM     47  CB  ARG C  35      56.700  53.188  11.469  1.00 40.42 LIG 0.04  C 
BRANCH 47 48
ATOM     48  CG  ARG C  35      56.267  54.583  11.104  1.00 36.41 LIG 0.02  C 
BRANCH 48 49
ATOM     49  CD  ARG C  35      56.844  55.014   9.767  1.00 39.80 LIG 0.14  C 
BRANCH 49 50
ATOM     50  NE  ARG C  35      56.234  54.267   8.672  1.00 32.60 LIG-0.23  N 
ATOM     51 HE   ARG C  35      55.418  54.447   8.471  1.00 32.60 LIG 0.18  HD
ATOM     52  CZ  ARG C  35      56.852  53.329   7.963  1.00 32.33 LIG 0.67  C 
ATOM     53  NH2 ARG C  35      58.112  53.015   8.229  1.00 28.83 LIG-0.23  N 
ATOM     54  NH1 ARG C  35      56.206  52.708   6.986  1.00 30.81 LIG-0.23  N 
ATOM     55 2HH2 ARG C  35      58.509  52.408   7.769  1.00 28.83 LIG 0.17  HD
ATOM     56 1HH2 ARG C  35      58.532  53.419   8.862  1.00 28.83 LIG 0.17  HD
ATOM     57 1HH1 ARG C  35      55.389  52.913   6.813  1.00 30.81 LIG 0.17  HD
ATOM     58 2HH1 ARG C  35      56.603  52.100   6.526  1.00 30.81 LIG 0.17  HD
ENDBRANCH 49 50
ENDBRANCH 48 49
ENDBRANCH 47 48
ENDBRANCH 46 47
BRANCH 46 59
ATOM     59  N   ARG C  35      58.749  52.002  12.103  1.00 36.73 LIG-0.35  N 
ATOM     60  C   ASN C  34      59.571  52.032  11.060  1.00 40.82 LIG 0.26  C 
ATOM     61 O    ASN C  34      59.656  53.002  10.309  1.00 33.40 LIG-0.27  OA
ATOM     62 H    ARG C  35      58.666  51.335  12.640  1.00 36.73 LIG 0.16  HD
BRANCH 60 63
ATOM     63  CA  ASN C  34      60.424  50.790  10.829  1.00 41.08 LIG 0.41  C 
ATOM     64  N   ASN C  34      59.550  49.625  10.514  1.00 44.32 LIG 0.61  N 
BRANCH 63 65
ATOM     65  CB  ASN C  34      61.395  51.062   9.675  1.00 43.19 LIG 0.15  C 
BRANCH 65 66
ATOM     66  CG  ASN C  34      61.024  50.319   8.399  1.00 48.82 LIG 0.22  C 
ATOM     67  ND2 ASN C  34      60.679  51.062   7.351  1.00 46.77 LIG-0.37  N 
ATOM     68 21HD ASN C  34      60.466  50.685   6.608  1.00 46.77 LIG 0.16  HD
ATOM     69 22HD ASN C  34      60.669  51.919   7.417  1.00 46.77 LIG 0.16  HD
ATOM     70 OD1  ASN C  34      61.054  49.089   8.359  1.00 54.33 LIG-0.27  OA
ENDBRANCH 65 66
ENDBRANCH 63 65
ENDBRANCH 60 63
ENDBRANCH 46 59
ENDBRANCH 44 46
ENDBRANCH 1 39
TORSDOF 26
ENDMDL
MODEL 52
USER: ADFR SOLUTION from run 177
USER: SCORE 19.878213 LL:  -6.413 LR: -14.288 RR:   0.000 FEB:  -6.532
USER: RMSD 12.214495
USER: SEED 176
USER: STATUS no improvement in best in 3 clusters for 5 generations
USER: GENES 28
USER: genes 0 Translation |==|  0.56466 0.52355 0.56448
USER: genes 1 Rotation |==|  0.28285 0.12952 0.47431 0.75481
USER: genes 2 Torsion [C]-N--CA-[C] |==|  0.77600
USER: genes 3 Torsion [N]-CA--C-[N] |==|  0.96535
USER: genes 4 Torsion [C]-N--CA-[C] |==|  0.72777
USER: genes 5 Torsion [N]-CA--C-[N] |==|  0.07605
USER: genes 6 Torsion [C]-N--CA-[C] |==|  0.74434
USER: genes 7 Torsion [N]-CA--CB-[OG] |==|  0.08607
USER: genes 8 Torsion [CA]-CB--OG-[HG] |==|  0.40803
USER: genes 9 Torsion [N]-CA--C-[N] |==|  0.02349
USER: genes 10 Torsion [C]-N--CA-[C] |==|  0.78103
USER: genes 11 Torsion [N]-CA--C-[O] |==|  0.86828
USER: genes 12 Torsion [N]-CA--CB-[CG] |==|  0.03371
USER: genes 13 Torsion [CA]-CB--CG-[CD2] |==|  0.54129
USER: genes 14 Torsion [N]-CA--CB-[CG] |==|  0.83820
USER: genes 15 Torsion [CA]-CB--CG-[CD2] |==|  0.72282
USER: genes 16 Torsion [N]-CA--CB-[CG2] |==|  0.19168
USER: genes 17 Torsion [CA]-CB--CG1-[CD1] |==|  0.22891
USER: genes 18 Torsion [O]-C--CA-[CB] |==|  0.85783
USER: genes 19 Torsion [N]-C--CA-[N] |==|  0.13519
USER: genes 20 Torsion [C]-CA--CB-[CG] |==|  0.46575
USER: genes 21 Torsion [CA]-CB--CG-[CD] |==|  0.35819
USER: genes 22 Torsion [CB]-CG--CD-[NE] |==|  0.40855
USER: genes 23 Torsion [CG]-CD--NE-[CZ] |==|  0.68415
USER: genes 24 Torsion [C]-CA--N-[C] |==|  0.60091
USER: genes 25 Torsion [N]-C--CA-[N] |==|  0.66606
USER: genes 26 Torsion [C]-CA--CB-[CG] |==|  0.71117
USER: genes 27 Torsion [CA]-CB--CG-[ND2] |==|  0.79478
ROOT
ATOM      1  C   PRO C  36      49.590  55.503  14.246  1.00 34.41 LIG 0.24  C 
ATOM      2 O    PRO C  36      48.382  55.609  14.015  1.00 29.89 LIG-0.27  OA
ATOM      3  N   ILE C  37      50.079  55.055  15.399  1.00 30.61 LIG-0.35  N 
ATOM      4 H    ILE C  37      50.920  54.956  15.548  1.00 30.61 LIG 0.16  HD
ENDROOT
BRANCH 3 5
ATOM      5  CA  ILE C  37      49.236  54.687  16.529  1.00 31.48 LIG 0.18  C 
BRANCH 5 6
ATOM      6  C   ILE C  37      48.883  55.997  17.209  1.00 31.96 LIG 0.24  C 
ATOM      7 O    ILE C  37      47.990  56.045  18.057  1.00 31.93 LIG-0.27  OA
ATOM      8  N   LEU C  38      49.578  57.062  16.829  1.00 30.89 LIG-0.35  N 
ATOM      9 H    LEU C  38      50.176  57.053  16.211  1.00 30.89 LIG 0.16  HD
BRANCH 8 10
ATOM     10  CA  LEU C  38      49.369  58.359  17.454  1.00 34.88 LIG 0.18  C 
BRANCH 10 11
ATOM     11  C   LEU C  38      48.460  59.344  16.730  1.00 39.33 LIG 0.24  C 
ATOM     12 O    LEU C  38      48.598  60.559  16.866  1.00 37.11 LIG-0.27  OA
ATOM     13  N   SER C  39      47.528  58.797  15.954  1.00 40.29 LIG-0.34  N 
ATOM     14 H    SER C  39      47.450  57.949  15.832  1.00 40.29 LIG 0.16  HD
BRANCH 13 15
ATOM     15  CA  SER C  39      46.544  59.593  15.232  1.00 42.99 LIG 0.20  C 
BRANCH 15 16
ATOM     16  CB  SER C  39      46.124  58.902  13.929  1.00 41.70 LIG 0.20  C 
BRANCH 16 17
ATOM     17 OG   SER C  39      46.178  57.490  14.045  1.00 43.46 LIG-0.40  OA
ATOM     18 HG   SER C  39      45.572  57.146  13.575  1.00 43.46 LIG 0.21  HD
ENDBRANCH 16 17
ENDBRANCH 15 16
BRANCH 15 19
ATOM     19  C   SER C  39      45.349  59.678  16.176  1.00 43.99 LIG 0.24  C 
ATOM     20  N   LEU C  40      45.515  59.214  17.410  1.00 44.48 LIG-0.34  N 
ATOM     21 H    LEU C  40      46.248  58.872  17.704  1.00 44.48 LIG 0.16  HD
ATOM     22 O    SER C  39      44.287  60.160  15.782  1.00 44.86 LIG-0.27  OA
BRANCH 20 23
ATOM     23  CA  LEU C  40      44.429  59.255  18.382  1.00 50.99 LIG 0.18  C 
BRANCH 23 24
ATOM     24  C   LEU C  40      44.286  60.657  18.973  1.00 53.79 LIG 0.20  C 
ATOM     25 O    LEU C  40      45.322  61.236  19.368  1.00 58.34 LIG-0.65  OA
ATOM     26 OXT  LEU C  40      43.145  61.158  19.043  1.00 54.01 LIG-0.65  OA
ENDBRANCH 23 24
BRANCH 23 27
ATOM     27  CB  LEU C  40      44.695  58.239  19.497  1.00 48.71 LIG 0.04  C 
BRANCH 27 28
ATOM     28  CG  LEU C  40      46.081  57.599  19.591  1.00 48.98 LIG-0.02  C 
ATOM     29  CD2 LEU C  40      46.006  56.390  20.502  1.00 51.62 LIG 0.01  C 
ATOM     30  CD1 LEU C  40      47.087  58.605  20.130  1.00 51.55 LIG 0.01  C 
ENDBRANCH 27 28
ENDBRANCH 23 27
ENDBRANCH 20 23
ENDBRANCH 15 19
ENDBRANCH 13 15
ENDBRANCH 10 11
BRANCH 10 31
ATOM     31  CB  LEU C  38      50.722  59.018  17.703  1.00 30.69 LIG 0.04  C 
BRANCH 31 32
ATOM     32  CG  LEU C  38      51.694  58.227  18.581  1.00 36.50 LIG-0.02  C 
ATOM     33  CD2 LEU C  38      51.668  58.771  20.008  1.00 35.12 LIG 0.01  C 
ATOM     34  CD1 LEU C  38      53.096  58.320  17.992  1.00 37.99 LIG 0.01  C 
ENDBRANCH 31 32
ENDBRANCH 10 31
ENDBRANCH 8 10
ENDBRANCH 5 6
BRANCH 5 35
ATOM     35  CB  ILE C  37      50.001  53.796  17.518  1.00 37.32 LIG 0.01  C 
ATOM     36  CG2 ILE C  37      51.085  54.606  18.213  1.00 35.15 LIG 0.01  C 
BRANCH 35 37
ATOM     37  CG1 ILE C  37      49.020  53.195  18.525  1.00 33.54 LIG 0.00  C 
ATOM     38  CD1 ILE C  37      48.304  51.964  18.019  1.00 46.98 LIG 0.01  C 
ENDBRANCH 35 37
ENDBRANCH 5 35
ENDBRANCH 3 5
BRANCH 1 39
ATOM     39  CA  PRO C  36      50.632  55.871  13.191  1.00 32.35 LIG 0.18  C 
ATOM     40  CB  PRO C  36      50.360  55.193  11.847  1.00 32.18 LIG 0.04  C 
ATOM     41  CG  PRO C  36      51.200  53.954  11.914  1.00 32.63 LIG 0.02  C 
ATOM     42  CD  PRO C  36      52.484  54.448  12.540  1.00 32.64 LIG 0.13  C 
ATOM     43  N   PRO C  36      51.995  55.440  13.512  1.00 32.06 LIG-0.34  N 
ATOM     44  C   ARG C  35      52.638  55.984  14.551  1.00 32.74 LIG 0.24  C 
ATOM     45 O    ARG C  35      52.121  56.852  15.251  1.00 32.93 LIG-0.27  OA
BRANCH 44 46
ATOM     46  CA  ARG C  35      54.052  55.495  14.833  1.00 37.56 LIG 0.18  C 
BRANCH 46 47
ATOM     47  CB  ARG C  35      54.721  56.397  15.870  1.00 40.42 LIG 0.04  C 
BRANCH 47 48
ATOM     48  CG  ARG C  35      56.000  55.830  16.428  1.00 36.41 LIG 0.02  C 
BRANCH 48 49
ATOM     49  CD  ARG C  35      57.136  56.835  16.349  1.00 39.80 LIG 0.14  C 
BRANCH 49 50
ATOM     50  NE  ARG C  35      58.052  56.674  17.473  1.00 32.60 LIG-0.23  N 
ATOM     51 HE   ARG C  35      58.508  55.946  17.517  1.00 32.60 LIG 0.18  HD
ATOM     52  CZ  ARG C  35      58.232  57.574  18.434  1.00 32.33 LIG 0.67  C 
ATOM     53  NH2 ARG C  35      57.557  58.714  18.413  1.00 28.83 LIG-0.23  N 
ATOM     54  NH1 ARG C  35      59.090  57.329  19.414  1.00 30.81 LIG-0.23  N 
ATOM     55 2HH2 ARG C  35      57.675  59.294  19.036  1.00 28.83 LIG 0.17  HD
ATOM     56 1HH2 ARG C  35      57.001  58.873  17.777  1.00 28.83 LIG 0.17  HD
ATOM     57 1HH1 ARG C  35      59.529  56.590  19.427  1.00 30.81 LIG 0.17  HD
ATOM     58 2HH1 ARG C  35      59.209  57.910  20.037  1.00 30.81 LIG 0.17  HD
ENDBRANCH 49 50
ENDBRANCH 48 49
ENDBRANCH 47 48
ENDBRANCH 46 47
BRANCH 46 59
ATOM     59  N   ARG C  35      54.798  55.516  13.584  1.00 36.73 LIG-0.35  N 
ATOM     60  C   ASN C  34      55.694  54.573  13.317  1.00 40.82 LIG 0.26  C 
ATOM     61 O    ASN C  34      55.944  53.654  14.096  1.00 33.40 LIG-0.27  OA
ATOM     62 H    ARG C  35      54.608  56.171  13.060  1.00 36.73 LIG 0.16  HD
BRANCH 60 63
ATOM     63  CA  ASN C  34      56.414  54.676  11.978  1.00 41.08 LIG 0.41  C 
ATOM     64  N   ASN C  34      56.155  53.452  11.168  1.00 44.32 LIG 0.61  N 
BRANCH 63 65
ATOM     65  CB  ASN C  34      55.915  55.924  11.241  1.00 43.19 LIG 0.15  C 
BRANCH 65 66
ATOM     66  CG  ASN C  34      54.946  55.599  10.112  1.00 48.82 LIG 0.22  C 
ATOM     67  ND2 ASN C  34      55.467  55.070   9.009  1.00 46.77 LIG-0.37  N 
ATOM     68 21HD ASN C  34      54.957  54.867   8.347  1.00 46.77 LIG 0.16  HD
ATOM     69 22HD ASN C  34      56.314  54.933   8.957  1.00 46.77 LIG 0.16  HD
ATOM     70 OD1  ASN C  34      53.741  55.818  10.238  1.00 54.33 LIG-0.27  OA
ENDBRANCH 65 66
ENDBRANCH 63 65
ENDBRANCH 60 63
ENDBRANCH 46 59
ENDBRANCH 44 46
ENDBRANCH 1 39
TORSDOF 26
ENDMDL
MODEL 53
USER: ADFR SOLUTION from run 158
USER: SCORE 19.361032 LL:  -5.573 LR: -14.295 RR:   0.000 FEB:  -6.539
USER: RMSD 13.139025
USER: SEED 157
USER: STATUS no improvement in best in 7 clusters for 5 generations
USER: GENES 28
USER: genes 0 Translation |==|  0.67397 0.46675 0.45362
USER: genes 1 Rotation |==|  0.61187 0.93617 0.31112 0.60755
USER: genes 2 Torsion [C]-N--CA-[C] |==|  0.73369
USER: genes 3 Torsion [N]-CA--C-[N] |==|  0.40555
USER: genes 4 Torsion [C]-N--CA-[C] |==|  0.77380
USER: genes 5 Torsion [N]-CA--C-[N] |==|  0.90652
USER: genes 6 Torsion [C]-N--CA-[C] |==|  0.72943
USER: genes 7 Torsion [N]-CA--CB-[OG] |==|  0.72052
USER: genes 8 Torsion [CA]-CB--OG-[HG] |==|  0.42870
USER: genes 9 Torsion [N]-CA--C-[N] |==|  0.28926
USER: genes 10 Torsion [C]-N--CA-[C] |==|  0.64411
USER: genes 11 Torsion [N]-CA--C-[O] |==|  0.42727
USER: genes 12 Torsion [N]-CA--CB-[CG] |==|  0.92839
USER: genes 13 Torsion [CA]-CB--CG-[CD2] |==|  0.58244
USER: genes 14 Torsion [N]-CA--CB-[CG] |==|  0.75233
USER: genes 15 Torsion [CA]-CB--CG-[CD2] |==|  0.86225
USER: genes 16 Torsion [N]-CA--CB-[CG2] |==|  0.21667
USER: genes 17 Torsion [CA]-CB--CG1-[CD1] |==|  0.37222
USER: genes 18 Torsion [O]-C--CA-[CB] |==|  0.11072
USER: genes 19 Torsion [N]-C--CA-[N] |==|  0.46018
USER: genes 20 Torsion [C]-CA--CB-[CG] |==|  0.33018
USER: genes 21 Torsion [CA]-CB--CG-[CD] |==|  0.33998
USER: genes 22 Torsion [CB]-CG--CD-[NE] |==|  0.54342
USER: genes 23 Torsion [CG]-CD--NE-[CZ] |==|  0.45624
USER: genes 24 Torsion [C]-CA--N-[C] |==|  0.60605
USER: genes 25 Torsion [N]-C--CA-[N] |==|  0.45263
USER: genes 26 Torsion [C]-CA--CB-[CG] |==|  0.75363
USER: genes 27 Torsion [CA]-CB--CG-[ND2] |==|  0.75782
ROOT
ATOM      1  C   PRO C  36      53.033  54.480  12.167  1.00 34.41 LIG 0.24  C 
ATOM      2 O    PRO C  36      52.860  53.284  11.918  1.00 29.89 LIG-0.27  OA
ATOM      3  N   ILE C  37      52.112  55.250  12.741  1.00 30.61 LIG-0.35  N 
ATOM      4 H    ILE C  37      52.245  56.077  12.939  1.00 30.61 LIG 0.16  HD
ENDROOT
BRANCH 3 5
ATOM      5  CA  ILE C  37      50.782  54.769  13.091  1.00 31.48 LIG 0.18  C 
BRANCH 5 6
ATOM      6  C   ILE C  37      49.893  55.166  11.927  1.00 31.96 LIG 0.24  C 
ATOM      7 O    ILE C  37      50.092  56.215  11.312  1.00 31.93 LIG-0.27  OA
ATOM      8  N   LEU C  38      48.905  54.331  11.632  1.00 30.89 LIG-0.35  N 
ATOM      9 H    LEU C  38      48.727  53.615  12.076  1.00 30.89 LIG 0.16  HD
BRANCH 8 10
ATOM     10  CA  LEU C  38      48.026  54.577  10.499  1.00 34.88 LIG 0.18  C 
BRANCH 10 11
ATOM     11  C   LEU C  38      46.880  55.561  10.705  1.00 39.33 LIG 0.24  C 
ATOM     12 O    LEU C  38      46.487  56.283   9.790  1.00 37.11 LIG-0.27  OA
ATOM     13  N   SER C  39      46.350  55.572  11.925  1.00 40.29 LIG-0.34  N 
ATOM     14 H    SER C  39      46.602  55.045  12.557  1.00 40.29 LIG 0.16  HD
BRANCH 13 15
ATOM     15  CA  SER C  39      45.283  56.488  12.306  1.00 42.99 LIG 0.20  C 
BRANCH 15 16
ATOM     16  CB  SER C  39      44.305  55.821  13.280  1.00 41.70 LIG 0.20  C 
BRANCH 16 17
ATOM     17 OG   SER C  39      43.127  55.383  12.622  1.00 43.46 LIG-0.40  OA
ATOM     18 HG   SER C  39      42.787  54.746  13.050  1.00 43.46 LIG 0.21  HD
ENDBRANCH 16 17
ENDBRANCH 15 16
BRANCH 15 19
ATOM     19  C   SER C  39      45.997  57.640  13.006  1.00 43.99 LIG 0.24  C 
ATOM     20  N   LEU C  40      46.135  58.774  12.325  1.00 44.48 LIG-0.34  N 
ATOM     21 H    LEU C  40      45.850  58.894  11.522  1.00 44.48 LIG 0.16  HD
ATOM     22 O    SER C  39      46.419  57.497  14.154  1.00 44.86 LIG-0.27  OA
BRANCH 20 23
ATOM     23  CA  LEU C  40      46.803  59.928  12.914  1.00 50.99 LIG 0.18  C 
BRANCH 23 24
ATOM     24  C   LEU C  40      45.929  61.176  12.793  1.00 53.79 LIG 0.20  C 
ATOM     25 O    LEU C  40      46.087  62.088  13.633  1.00 58.34 LIG-0.65  OA
ATOM     26 OXT  LEU C  40      45.091  61.225  11.868  1.00 54.01 LIG-0.65  OA
ENDBRANCH 23 24
BRANCH 23 27
ATOM     27  CB  LEU C  40      48.147  60.158  12.216  1.00 48.71 LIG 0.04  C 
BRANCH 27 28
ATOM     28  CG  LEU C  40      48.844  58.968  11.555  1.00 48.98 LIG-0.02  C 
ATOM     29  CD2 LEU C  40      50.344  59.188  11.596  1.00 51.62 LIG 0.01  C 
ATOM     30  CD1 LEU C  40      48.373  58.818  10.116  1.00 51.55 LIG 0.01  C 
ENDBRANCH 27 28
ENDBRANCH 23 27
ENDBRANCH 20 23
ENDBRANCH 15 19
ENDBRANCH 13 15
ENDBRANCH 10 11
BRANCH 10 31
ATOM     31  CB  LEU C  38      47.459  53.247  10.007  1.00 30.69 LIG 0.04  C 
BRANCH 31 32
ATOM     32  CG  LEU C  38      48.293  52.523   8.949  1.00 36.50 LIG-0.02  C 
ATOM     33  CD2 LEU C  38      48.658  53.488   7.823  1.00 35.12 LIG 0.01  C 
ATOM     34  CD1 LEU C  38      47.503  51.337   8.409  1.00 37.99 LIG 0.01  C 
ENDBRANCH 31 32
ENDBRANCH 10 31
ENDBRANCH 8 10
ENDBRANCH 5 6
BRANCH 5 35
ATOM     35  CB  ILE C  37      50.271  55.448  14.370  1.00 37.32 LIG 0.01  C 
ATOM     36  CG2 ILE C  37      49.780  56.852  14.050  1.00 35.15 LIG 0.01  C 
BRANCH 35 37
ATOM     37  CG1 ILE C  37      49.164  54.596  14.991  1.00 33.54 LIG 0.00  C 
ATOM     38  CD1 ILE C  37      49.308  54.403  16.483  1.00 46.98 LIG 0.01  C 
ENDBRANCH 35 37
ENDBRANCH 5 35
ENDBRANCH 3 5
BRANCH 1 39
ATOM     39  CA  PRO C  36      54.356  55.172  11.843  1.00 32.35 LIG 0.18  C 
ATOM     40  CB  PRO C  36      54.934  54.719  10.502  1.00 32.18 LIG 0.04  C 
ATOM     41  CG  PRO C  36      55.870  53.614  10.890  1.00 32.63 LIG 0.02  C 
ATOM     42  CD  PRO C  36      56.539  54.157  12.131  1.00 32.64 LIG 0.13  C 
ATOM     43  N   PRO C  36      55.437  54.881  12.788  1.00 32.06 LIG-0.34  N 
ATOM     44  C   ARG C  35      55.352  55.311  14.052  1.00 32.74 LIG 0.24  C 
ATOM     45 O    ARG C  35      54.387  55.958  14.452  1.00 32.93 LIG-0.27  OA
BRANCH 44 46
ATOM     46  CA  ARG C  35      56.507  54.976  14.984  1.00 37.56 LIG 0.18  C 
BRANCH 46 47
ATOM     47  CB  ARG C  35      56.464  53.495  15.361  1.00 40.42 LIG 0.04  C 
BRANCH 47 48
ATOM     48  CG  ARG C  35      57.686  52.727  14.931  1.00 36.41 LIG 0.02  C 
BRANCH 48 49
ATOM     49  CD  ARG C  35      58.370  52.061  16.112  1.00 39.80 LIG 0.14  C 
BRANCH 49 50
ATOM     50  NE  ARG C  35      59.722  51.640  15.761  1.00 32.60 LIG-0.23  N 
ATOM     51 HE   ARG C  35      59.926  51.604  14.927  1.00 32.60 LIG 0.18  HD
ATOM     52  CZ  ARG C  35      60.660  51.308  16.642  1.00 32.33 LIG 0.67  C 
ATOM     53  NH2 ARG C  35      60.399  51.348  17.940  1.00 28.83 LIG-0.23  N 
ATOM     54  NH1 ARG C  35      61.861  50.937  16.217  1.00 30.81 LIG-0.23  N 
ATOM     55 2HH2 ARG C  35      61.008  51.132  18.507  1.00 28.83 LIG 0.17  HD
ATOM     56 1HH2 ARG C  35      59.621  51.589  18.215  1.00 28.83 LIG 0.17  HD
ATOM     57 1HH1 ARG C  35      62.030  50.913  15.375  1.00 30.81 LIG 0.17  HD
ATOM     58 2HH1 ARG C  35      62.470  50.722  16.785  1.00 30.81 LIG 0.17  HD
ENDBRANCH 49 50
ENDBRANCH 48 49
ENDBRANCH 47 48
ENDBRANCH 46 47
BRANCH 46 59
ATOM     59  N   ARG C  35      56.385  55.805  16.174  1.00 36.73 LIG-0.35  N 
ATOM     60  C   ASN C  34      57.466  56.314  16.756  1.00 40.82 LIG 0.26  C 
ATOM     61 O    ASN C  34      58.604  56.109  16.337  1.00 33.40 LIG-0.27  OA
ATOM     62 H    ARG C  35      55.579  55.928  16.449  1.00 36.73 LIG 0.16  HD
BRANCH 60 63
ATOM     63  CA  ASN C  34      57.232  57.180  17.988  1.00 41.08 LIG 0.41  C 
ATOM     64  N   ASN C  34      58.503  57.327  18.752  1.00 44.32 LIG 0.61  N 
BRANCH 63 65
ATOM     65  CB  ASN C  34      56.711  58.550  17.541  1.00 43.19 LIG 0.15  C 
BRANCH 65 66
ATOM     66  CG  ASN C  34      57.828  59.545  17.254  1.00 48.82 LIG 0.22  C 
ATOM     67  ND2 ASN C  34      58.278  60.254  18.285  1.00 46.77 LIG-0.37  N 
ATOM     68 21HD ASN C  34      58.911  60.825  18.170  1.00 46.77 LIG 0.16  HD
ATOM     69 22HD ASN C  34      57.936  60.142  19.066  1.00 46.77 LIG 0.16  HD
ATOM     70 OD1  ASN C  34      58.281  59.666  16.116  1.00 54.33 LIG-0.27  OA
ENDBRANCH 65 66
ENDBRANCH 63 65
ENDBRANCH 60 63
ENDBRANCH 46 59
ENDBRANCH 44 46
ENDBRANCH 1 39
TORSDOF 26
ENDMDL
MODEL 54
USER: ADFR SOLUTION from run 129
USER: SCORE 18.203545 LL:  -4.978 LR: -14.291 RR:   0.000 FEB:  -6.536
USER: RMSD 13.745327
USER: SEED 128
USER: STATUS no improvement in best in 11 clusters for 5 generations
USER: GENES 28
USER: genes 0 Translation |==|  0.65244 0.48644 0.48864
USER: genes 1 Rotation |==|  0.57458 0.97593 0.36760 0.52003
USER: genes 2 Torsion [C]-N--CA-[C] |==|  0.76184
USER: genes 3 Torsion [N]-CA--C-[N] |==|  0.15173
USER: genes 4 Torsion [C]-N--CA-[C] |==|  0.60000
USER: genes 5 Torsion [N]-CA--C-[N] |==|  0.30012
USER: genes 6 Torsion [C]-N--CA-[C] |==|  0.65950
USER: genes 7 Torsion [N]-CA--CB-[OG] |==|  0.31370
USER: genes 8 Torsion [CA]-CB--OG-[HG] |==|  0.82498
USER: genes 9 Torsion [N]-CA--C-[N] |==|  0.03394
USER: genes 10 Torsion [C]-N--CA-[C] |==|  0.65355
USER: genes 11 Torsion [N]-CA--C-[O] |==|  0.51569
USER: genes 12 Torsion [N]-CA--CB-[CG] |==|  0.22425
USER: genes 13 Torsion [CA]-CB--CG-[CD2] |==|  0.69523
USER: genes 14 Torsion [N]-CA--CB-[CG] |==|  0.65133
USER: genes 15 Torsion [CA]-CB--CG-[CD2] |==|  0.01121
USER: genes 16 Torsion [N]-CA--CB-[CG2] |==|  0.15857
USER: genes 17 Torsion [CA]-CB--CG1-[CD1] |==|  0.41547
USER: genes 18 Torsion [O]-C--CA-[CB] |==|  0.19639
USER: genes 19 Torsion [N]-C--CA-[N] |==|  0.46972
USER: genes 20 Torsion [C]-CA--CB-[CG] |==|  0.39425
USER: genes 21 Torsion [CA]-CB--CG-[CD] |==|  0.89558
USER: genes 22 Torsion [CB]-CG--CD-[NE] |==|  0.58751
USER: genes 23 Torsion [CG]-CD--NE-[CZ] |==|  0.28100
USER: genes 24 Torsion [C]-CA--N-[C] |==|  0.64100
USER: genes 25 Torsion [N]-C--CA-[N] |==|  0.91242
USER: genes 26 Torsion [C]-CA--CB-[CG] |==|  0.62827
USER: genes 27 Torsion [CA]-CB--CG-[ND2] |==|  0.69074
ROOT
ATOM      1  C   PRO C  36      52.355  54.835  12.824  1.00 34.41 LIG 0.24  C 
ATOM      2 O    PRO C  36      52.138  53.744  12.287  1.00 29.89 LIG-0.27  OA
ATOM      3  N   ILE C  37      51.670  55.284  13.873  1.00 30.61 LIG-0.35  N 
ATOM      4 H    ILE C  37      51.841  56.031  14.262  1.00 30.61 LIG 0.16  HD
ENDROOT
BRANCH 3 5
ATOM      5  CA  ILE C  37      50.560  54.552  14.467  1.00 31.48 LIG 0.18  C 
BRANCH 5 6
ATOM      6  C   ILE C  37      49.338  54.952  13.660  1.00 31.96 LIG 0.24  C 
ATOM      7 O    ILE C  37      48.336  55.404  14.217  1.00 31.93 LIG-0.27  OA
ATOM      8  N   LEU C  38      49.419  54.777  12.347  1.00 30.89 LIG-0.35  N 
ATOM      9 H    LEU C  38      50.095  54.426  11.947  1.00 30.89 LIG 0.16  HD
BRANCH 8 10
ATOM     10  CA  LEU C  38      48.334  55.180  11.466  1.00 34.88 LIG 0.18  C 
BRANCH 10 11
ATOM     11  C   LEU C  38      48.055  54.300  10.253  1.00 39.33 LIG 0.24  C 
ATOM     12 O    LEU C  38      48.824  54.274   9.293  1.00 37.11 LIG-0.27  OA
ATOM     13  N   SER C  39      46.941  53.577  10.318  1.00 40.29 LIG-0.34  N 
ATOM     14 H    SER C  39      46.419  53.569  11.002  1.00 40.29 LIG 0.16  HD
BRANCH 13 15
ATOM     15  CA  SER C  39      46.498  52.722   9.223  1.00 42.99 LIG 0.20  C 
BRANCH 15 16
ATOM     16  CB  SER C  39      46.419  51.256   9.665  1.00 41.70 LIG 0.20  C 
BRANCH 16 17
ATOM     17 OG   SER C  39      45.082  50.786   9.684  1.00 43.46 LIG-0.40  OA
ATOM     18 HG   SER C  39      44.639  51.222  10.250  1.00 43.46 LIG 0.21  HD
ENDBRANCH 16 17
ENDBRANCH 15 16
BRANCH 15 19
ATOM     19  C   SER C  39      45.102  53.230   8.878  1.00 43.99 LIG 0.24  C 
ATOM     20  N   LEU C  40      44.730  54.392   9.404  1.00 44.48 LIG-0.34  N 
ATOM     21 H    LEU C  40      45.225  54.870   9.922  1.00 44.48 LIG 0.16  HD
ATOM     22 O    SER C  39      44.370  52.567   8.142  1.00 44.86 LIG-0.27  OA
BRANCH 20 23
ATOM     23  CA  LEU C  40      43.414  54.956   9.130  1.00 50.99 LIG 0.18  C 
BRANCH 23 24
ATOM     24  C   LEU C  40      43.541  56.369   8.562  1.00 53.79 LIG 0.20  C 
ATOM     25 O    LEU C  40      42.492  57.025   8.377  1.00 58.34 LIG-0.65  OA
ATOM     26 OXT  LEU C  40      44.682  56.803   8.299  1.00 54.01 LIG-0.65  OA
ENDBRANCH 23 24
BRANCH 23 27
ATOM     27  CB  LEU C  40      42.584  54.979  10.416  1.00 48.71 LIG 0.04  C 
BRANCH 27 28
ATOM     28  CG  LEU C  40      42.812  56.112  11.417  1.00 48.98 LIG-0.02  C 
ATOM     29  CD2 LEU C  40      43.490  55.553  12.652  1.00 51.62 LIG 0.01  C 
ATOM     30  CD1 LEU C  40      41.484  56.757  11.791  1.00 51.55 LIG 0.01  C 
ENDBRANCH 27 28
ENDBRANCH 23 27
ENDBRANCH 20 23
ENDBRANCH 15 19
ENDBRANCH 13 15
ENDBRANCH 10 11
BRANCH 10 31
ATOM     31  CB  LEU C  38      48.575  56.612  10.998  1.00 30.69 LIG 0.04  C 
BRANCH 31 32
ATOM     32  CG  LEU C  38      47.429  57.594  11.251  1.00 36.50 LIG-0.02  C 
ATOM     33  CD2 LEU C  38      46.312  56.901  12.028  1.00 35.12 LIG 0.01  C 
ATOM     34  CD1 LEU C  38      46.913  58.121   9.918  1.00 37.99 LIG 0.01  C 
ENDBRANCH 31 32
ENDBRANCH 10 31
ENDBRANCH 8 10
ENDBRANCH 5 6
BRANCH 5 35
ATOM     35  CB  ILE C  37      50.352  54.963  15.932  1.00 37.32 LIG 0.01  C 
ATOM     36  CG2 ILE C  37      50.119  56.464  16.020  1.00 35.15 LIG 0.01  C 
BRANCH 35 37
ATOM     37  CG1 ILE C  37      49.178  54.180  16.519  1.00 33.54 LIG 0.00  C 
ATOM     38  CD1 ILE C  37      49.301  53.917  18.002  1.00 46.98 LIG 0.01  C 
ENDBRANCH 35 37
ENDBRANCH 5 35
ENDBRANCH 3 5
BRANCH 1 39
ATOM     39  CA  PRO C  36      53.463  55.759  12.320  1.00 32.35 LIG 0.18  C 
ATOM     40  CB  PRO C  36      53.127  56.380  10.963  1.00 32.18 LIG 0.04  C 
ATOM     41  CG  PRO C  36      53.778  55.445   9.990  1.00 32.63 LIG 0.02  C 
ATOM     42  CD  PRO C  36      55.105  55.141  10.646  1.00 32.64 LIG 0.13  C 
ATOM     43  N   PRO C  36      54.742  55.088  12.073  1.00 32.06 LIG-0.34  N 
ATOM     44  C   ARG C  35      55.433  54.574  13.096  1.00 32.74 LIG 0.24  C 
ATOM     45 O    ARG C  35      55.030  54.651  14.254  1.00 32.93 LIG-0.27  OA
BRANCH 44 46
ATOM     46  CA  ARG C  35      56.754  53.890  12.774  1.00 37.56 LIG 0.18  C 
BRANCH 46 47
ATOM     47  CB  ARG C  35      56.498  52.576  12.037  1.00 40.42 LIG 0.04  C 
BRANCH 47 48
ATOM     48  CG  ARG C  35      57.498  52.289  10.948  1.00 36.41 LIG 0.02  C 
BRANCH 48 49
ATOM     49  CD  ARG C  35      57.901  53.556  10.214  1.00 39.80 LIG 0.14  C 
BRANCH 49 50
ATOM     50  NE  ARG C  35      58.215  53.270   8.817  1.00 32.60 LIG-0.23  N 
ATOM     51 HE   ARG C  35      58.984  52.930   8.642  1.00 32.60 LIG 0.18  HD
ATOM     52  CZ  ARG C  35      57.394  53.499   7.798  1.00 32.33 LIG 0.67  C 
ATOM     53  NH2 ARG C  35      56.194  54.020   8.013  1.00 28.83 LIG-0.23  N 
ATOM     54  NH1 ARG C  35      57.777  53.203   6.564  1.00 30.81 LIG-0.23  N 
ATOM     55 2HH2 ARG C  35      55.665  54.167   7.352  1.00 28.83 LIG 0.17  HD
ATOM     56 1HH2 ARG C  35      55.945  54.210   8.814  1.00 28.83 LIG 0.17  HD
ATOM     57 1HH1 ARG C  35      58.555  52.864   6.425  1.00 30.81 LIG 0.17  HD
ATOM     58 2HH1 ARG C  35      57.248  53.350   5.902  1.00 30.81 LIG 0.17  HD
ENDBRANCH 49 50
ENDBRANCH 48 49
ENDBRANCH 47 48
ENDBRANCH 46 47
BRANCH 46 59
ATOM     59  N   ARG C  35      57.453  53.641  14.026  1.00 36.73 LIG-0.35  N 
ATOM     60  C   ASN C  34      58.719  54.016  14.178  1.00 40.82 LIG 0.26  C 
ATOM     61 O    ASN C  34      59.358  54.573  13.287  1.00 33.40 LIG-0.27  OA
ATOM     62 H    ARG C  35      56.986  53.246  14.630  1.00 36.73 LIG 0.16  HD
BRANCH 60 63
ATOM     63  CA  ASN C  34      59.358  53.723  15.530  1.00 41.08 LIG 0.41  C 
ATOM     64  N   ASN C  34      58.327  53.787  16.604  1.00 44.32 LIG 0.61  N 
BRANCH 63 65
ATOM     65  CB  ASN C  34      60.002  52.332  15.484  1.00 43.19 LIG 0.15  C 
BRANCH 65 66
ATOM     66  CG  ASN C  34      59.675  51.487  16.708  1.00 48.82 LIG 0.22  C 
ATOM     67  ND2 ASN C  34      60.678  51.227  17.542  1.00 46.77 LIG-0.37  N 
ATOM     68 21HD ASN C  34      60.539  50.757  18.248  1.00 46.77 LIG 0.16  HD
ATOM     69 22HD ASN C  34      61.466  51.529  17.374  1.00 46.77 LIG 0.16  HD
ATOM     70 OD1  ASN C  34      58.530  51.079  16.900  1.00 54.33 LIG-0.27  OA
ENDBRANCH 65 66
ENDBRANCH 63 65
ENDBRANCH 60 63
ENDBRANCH 46 59
ENDBRANCH 44 46
ENDBRANCH 1 39
TORSDOF 26
ENDMDL
MODEL 55
USER: ADFR SOLUTION from run 175
USER: SCORE 18.227324 LL:  -6.064 LR: -14.283 RR:   0.000 FEB:  -6.527
USER: RMSD 12.527877
USER: SEED 174
USER: STATUS no improvement in best in 11 clusters for 5 generations
USER: GENES 28
USER: genes 0 Translation |==|  0.56162 0.51431 0.45799
USER: genes 1 Rotation |==|  0.54314 0.26948 0.05842 0.50262
USER: genes 2 Torsion [C]-N--CA-[C] |==|  0.63333
USER: genes 3 Torsion [N]-CA--C-[N] |==|  0.64752
USER: genes 4 Torsion [C]-N--CA-[C] |==|  0.19101
USER: genes 5 Torsion [N]-CA--C-[N] |==|  0.73194
USER: genes 6 Torsion [C]-N--CA-[C] |==|  0.67387
USER: genes 7 Torsion [N]-CA--CB-[OG] |==|  0.92442
USER: genes 8 Torsion [CA]-CB--OG-[HG] |==|  0.25629
USER: genes 9 Torsion [N]-CA--C-[N] |==|  0.97321
USER: genes 10 Torsion [C]-N--CA-[C] |==|  0.59097
USER: genes 11 Torsion [N]-CA--C-[O] |==|  0.20054
USER: genes 12 Torsion [N]-CA--CB-[CG] |==|  0.62610
USER: genes 13 Torsion [CA]-CB--CG-[CD2] |==|  0.31630
USER: genes 14 Torsion [N]-CA--CB-[CG] |==|  0.62300
USER: genes 15 Torsion [CA]-CB--CG-[CD2] |==|  0.65659
USER: genes 16 Torsion [N]-CA--CB-[CG2] |==|  0.62040
USER: genes 17 Torsion [CA]-CB--CG1-[CD1] |==|  0.74032
USER: genes 18 Torsion [O]-C--CA-[CB] |==|  0.12729
USER: genes 19 Torsion [N]-C--CA-[N] |==|  0.46408
USER: genes 20 Torsion [C]-CA--CB-[CG] |==|  0.38651
USER: genes 21 Torsion [CA]-CB--CG-[CD] |==|  0.89120
USER: genes 22 Torsion [CB]-CG--CD-[NE] |==|  0.36279
USER: genes 23 Torsion [CG]-CD--NE-[CZ] |==|  0.37182
USER: genes 24 Torsion [C]-CA--N-[C] |==|  0.55667
USER: genes 25 Torsion [N]-C--CA-[N] |==|  0.17784
USER: genes 26 Torsion [C]-CA--CB-[CG] |==|  0.76455
USER: genes 27 Torsion [CA]-CB--CG-[ND2] |==|  0.21579
ROOT
ATOM      1  C   PRO C  36      49.494  55.336  12.249  1.00 34.41 LIG 0.24  C 
ATOM      2 O    PRO C  36      49.379  56.566  12.258  1.00 29.89 LIG-0.27  OA
ATOM      3  N   ILE C  37      49.099  54.571  11.235  1.00 30.61 LIG-0.35  N 
ATOM      4 H    ILE C  37      49.206  53.718  11.219  1.00 30.61 LIG 0.16  HD
ENDROOT
BRANCH 3 5
ATOM      5  CA  ILE C  37      48.444  55.104  10.048  1.00 31.48 LIG 0.18  C 
BRANCH 5 6
ATOM      6  C   ILE C  37      47.233  54.215   9.826  1.00 31.96 LIG 0.24  C 
ATOM      7 O    ILE C  37      46.428  54.011  10.736  1.00 31.93 LIG-0.27  OA
ATOM      8  N   LEU C  38      47.111  53.680   8.618  1.00 30.89 LIG-0.35  N 
ATOM      9 H    LEU C  38      47.685  53.780   7.985  1.00 30.89 LIG 0.16  HD
BRANCH 8 10
ATOM     10  CA  LEU C  38      45.960  52.861   8.271  1.00 34.88 LIG 0.18  C 
BRANCH 10 11
ATOM     11  C   LEU C  38      44.611  53.563   8.162  1.00 39.33 LIG 0.24  C 
ATOM     12 O    LEU C  38      44.274  54.139   7.128  1.00 37.11 LIG-0.27  OA
ATOM     13  N   SER C  39      43.846  53.500   9.248  1.00 40.29 LIG-0.34  N 
ATOM     14 H    SER C  39      44.067  53.070   9.959  1.00 40.29 LIG 0.16  HD
BRANCH 13 15
ATOM     15  CA  SER C  39      42.550  54.161   9.330  1.00 42.99 LIG 0.20  C 
BRANCH 15 16
ATOM     16  CB  SER C  39      41.444  53.163   9.690  1.00 41.70 LIG 0.20  C 
BRANCH 16 17
ATOM     17 OG   SER C  39      41.764  51.849   9.262  1.00 43.46 LIG-0.40  OA
ATOM     18 HG   SER C  39      42.153  51.439   9.884  1.00 43.46 LIG 0.21  HD
ENDBRANCH 16 17
ENDBRANCH 15 16
BRANCH 15 19
ATOM     19  C   SER C  39      42.708  55.179  10.455  1.00 43.99 LIG 0.24  C 
ATOM     20  N   LEU C  40      43.812  55.106  11.191  1.00 44.48 LIG-0.34  N 
ATOM     21 H    LEU C  40      44.436  54.526  11.072  1.00 44.48 LIG 0.16  HD
ATOM     22 O    SER C  39      41.830  56.020  10.652  1.00 44.86 LIG-0.27  OA
BRANCH 20 23
ATOM     23  CA  LEU C  40      44.049  56.038  12.287  1.00 50.99 LIG 0.18  C 
BRANCH 23 24
ATOM     24  C   LEU C  40      45.543  56.325  12.437  1.00 53.79 LIG 0.20  C 
ATOM     25 O    LEU C  40      46.094  57.037  11.569  1.00 58.34 LIG-0.65  OA
ATOM     26 OXT  LEU C  40      46.147  55.831  13.412  1.00 54.01 LIG-0.65  OA
ENDBRANCH 23 24
BRANCH 23 27
ATOM     27  CB  LEU C  40      43.492  55.455  13.590  1.00 48.71 LIG 0.04  C 
BRANCH 27 28
ATOM     28  CG  LEU C  40      42.669  56.360  14.507  1.00 48.98 LIG-0.02  C 
ATOM     29  CD2 LEU C  40      41.240  55.855  14.547  1.00 51.62 LIG 0.01  C 
ATOM     30  CD1 LEU C  40      42.707  57.794  13.999  1.00 51.55 LIG 0.01  C 
ENDBRANCH 27 28
ENDBRANCH 23 27
ENDBRANCH 20 23
ENDBRANCH 15 19
ENDBRANCH 13 15
ENDBRANCH 10 11
BRANCH 10 31
ATOM     31  CB  LEU C  38      45.845  51.712   9.269  1.00 30.69 LIG 0.04  C 
BRANCH 31 32
ATOM     32  CG  LEU C  38      45.552  50.337   8.665  1.00 36.50 LIG-0.02  C 
ATOM     33  CD2 LEU C  38      44.285  49.754   9.288  1.00 35.12 LIG 0.01  C 
ATOM     34  CD1 LEU C  38      46.743  49.418   8.902  1.00 37.99 LIG 0.01  C 
ENDBRANCH 31 32
ENDBRANCH 10 31
ENDBRANCH 8 10
ENDBRANCH 5 6
BRANCH 5 35
ATOM     35  CB  ILE C  37      49.366  55.013   8.824  1.00 37.32 LIG 0.01  C 
ATOM     36  CG2 ILE C  37      49.294  56.305   8.024  1.00 35.15 LIG 0.01  C 
BRANCH 35 37
ATOM     37  CG1 ILE C  37      50.795  54.719   9.283  1.00 33.54 LIG 0.00  C 
ATOM     38  CD1 ILE C  37      51.641  55.957   9.474  1.00 46.98 LIG 0.01  C 
ENDBRANCH 35 37
ENDBRANCH 5 35
ENDBRANCH 3 5
BRANCH 1 39
ATOM     39  CA  PRO C  36      50.131  54.593  13.422  1.00 32.35 LIG 0.18  C 
ATOM     40  CB  PRO C  36      49.602  55.079  14.773  1.00 32.18 LIG 0.04  C 
ATOM     41  CG  PRO C  36      50.607  56.113  15.180  1.00 32.63 LIG 0.02  C 
ATOM     42  CD  PRO C  36      51.923  55.478  14.795  1.00 32.64 LIG 0.13  C 
ATOM     43  N   PRO C  36      51.578  54.782  13.543  1.00 32.06 LIG-0.34  N 
ATOM     44  C   ARG C  35      52.395  54.297  12.601  1.00 32.74 LIG 0.24  C 
ATOM     45 O    ARG C  35      51.967  53.683  11.627  1.00 32.93 LIG-0.27  OA
BRANCH 44 46
ATOM     46  CA  ARG C  35      53.888  54.527  12.784  1.00 37.56 LIG 0.18  C 
BRANCH 46 47
ATOM     47  CB  ARG C  35      54.227  55.996  12.532  1.00 40.42 LIG 0.04  C 
BRANCH 47 48
ATOM     48  CG  ARG C  35      55.232  56.559  13.502  1.00 36.41 LIG 0.02  C 
BRANCH 48 49
ATOM     49  CD  ARG C  35      54.995  56.044  14.911  1.00 39.80 LIG 0.14  C 
BRANCH 49 50
ATOM     50  NE  ARG C  35      56.235  55.542  15.497  1.00 32.60 LIG-0.23  N 
ATOM     51 HE   ARG C  35      56.726  55.028  15.013  1.00 32.60 LIG 0.18  HD
ATOM     52  CZ  ARG C  35      56.656  55.825  16.724  1.00 32.33 LIG 0.67  C 
ATOM     53  NH2 ARG C  35      55.938  56.615  17.509  1.00 28.83 LIG-0.23  N 
ATOM     54  NH1 ARG C  35      57.800  55.316  17.162  1.00 30.81 LIG-0.23  N 
ATOM     55 2HH2 ARG C  35      56.214  56.797  18.303  1.00 28.83 LIG 0.17  HD
ATOM     56 1HH2 ARG C  35      55.198  56.947  17.225  1.00 28.83 LIG 0.17  HD
ATOM     57 1HH1 ARG C  35      58.266  54.805  16.651  1.00 30.81 LIG 0.17  HD
ATOM     58 2HH1 ARG C  35      58.075  55.498  17.956  1.00 30.81 LIG 0.17  HD
ENDBRANCH 49 50
ENDBRANCH 48 49
ENDBRANCH 47 48
ENDBRANCH 46 47
BRANCH 46 59
ATOM     59  N   ARG C  35      54.597  53.674  11.842  1.00 36.73 LIG-0.35  N 
ATOM     60  C   ASN C  34      55.874  53.363  12.041  1.00 40.82 LIG 0.26  C 
ATOM     61 O    ASN C  34      56.515  53.777  13.006  1.00 33.40 LIG-0.27  OA
ATOM     62 H    ARG C  35      54.128  53.403  11.174  1.00 36.73 LIG 0.16  HD
BRANCH 60 63
ATOM     63  CA  ASN C  34      56.523  52.454  11.005  1.00 41.08 LIG 0.41  C 
ATOM     64  N   ASN C  34      56.560  53.137   9.681  1.00 44.32 LIG 0.61  N 
BRANCH 63 65
ATOM     65  CB  ASN C  34      57.941  52.104  11.470  1.00 43.19 LIG 0.15  C 
BRANCH 65 66
ATOM     66  CG  ASN C  34      58.969  53.159  11.084  1.00 48.82 LIG 0.22  C 
ATOM     67  ND2 ASN C  34      59.000  54.265  11.822  1.00 46.77 LIG-0.37  N 
ATOM     68 21HD ASN C  34      59.567  54.886  11.644  1.00 46.77 LIG 0.16  HD
ATOM     69 22HD ASN C  34      58.451  54.359  12.478  1.00 46.77 LIG 0.16  HD
ATOM     70 OD1  ASN C  34      59.730  52.973  10.135  1.00 54.33 LIG-0.27  OA
ENDBRANCH 65 66
ENDBRANCH 63 65
ENDBRANCH 60 63
ENDBRANCH 46 59
ENDBRANCH 44 46
ENDBRANCH 1 39
TORSDOF 26
ENDMDL
